
  -OEChem-04072317163D

 73 79  0     1  0  0  0  0  0999 V2000
   -3.7601    3.6844   -3.8178 C   0  0  0  0  0  0  0  0  0  0  0  0
   -1.7354    3.7599   -2.5019 C   0  0  0  0  0  0  0  0  0  0  0  0
   11.2256   11.9277  -10.5167 C   0  0  0  0  0  0  0  0  0  0  0  0
    7.1244    9.9336   -8.2780 C   0  0  0  0  0  0  0  0  0  0  0  0
   -3.0313    3.2202   -4.9127 C   0  0  0  0  0  0  0  0  0  0  0  0
   -1.0065    3.2956   -3.5967 C   0  0  0  0  0  0  0  0  0  0  0  0
   12.2126   12.3484  -11.4079 C   0  0  0  0  0  0  0  0  0  0  0  0
    7.4058   11.2933   -8.4112 C   0  0  0  0  0  0  0  0  0  0  0  0
    8.8151    9.4223   -9.9262 C   0  0  0  0  0  0  0  0  0  0  0  0
   10.0014   10.9282  -12.3440 C   0  0  0  0  0  0  0  0  0  0  0  0
   -4.9054    4.7129    0.6750 C   0  0  0  0  0  0  0  0  0  0  0  0
   -3.1122    3.9544   -2.6124 C   0  0  0  0  0  0  0  0  0  0  0  0
   10.1200   11.2176  -10.9847 C   0  0  0  0  0  0  0  0  0  0  0  0
    9.0966   10.7819  -10.0594 C   0  0  0  0  0  0  0  0  0  0  0  0
    7.8290    8.9981   -9.0355 C   0  0  0  0  0  0  0  0  0  0  0  0
   -1.6545    3.0257   -4.8022 C   0  0  0  0  0  0  0  0  0  0  0  0
   12.0940   12.0590  -12.7673 C   0  0  0  0  0  0  0  0  0  0  0  0
   10.9884   11.3489  -13.2354 C   0  0  0  0  0  0  0  0  0  0  0  0
    8.3919   11.7175   -9.3019 C   0  0  0  0  0  0  0  0  0  0  0  0
   -3.8659    4.4346   -1.4801 C   0  0  0  0  0  0  0  0  0  0  0  0
   -4.6323    5.5707   -1.3249 C   0  0  0  0  0  0  0  0  0  0  0  0
    9.7467   11.0051  -18.9495 C   0  0  0  0  0  0  0  0  0  0  0  0
   10.6770    9.1468  -17.0898 C   0  0  0  0  0  0  0  0  0  0  0  0
   10.0059   10.2292  -16.6722 C   0  0  0  0  0  0  0  0  0  0  0  0
    9.5178   11.2017  -17.6380 C   0  0  0  0  0  0  0  0  0  0  0  0
   10.4938    9.8020  -19.4193 C   0  0  0  0  0  0  0  0  0  0  0  0
    7.5364    7.5804   -8.8944 C   0  0  0  0  0  0  0  0  0  0  0  0
    9.8094   10.3522  -15.2126 C   0  0  0  0  0  0  0  0  0  0  0  0
    0.5004    3.6202   -7.7558 C   0  0  0  0  0  0  0  0  0  0  0  0
    3.4416    3.5676   -9.0532 C   0  0  0  0  0  0  0  0  0  0  0  0
    6.1357    5.0896  -10.5277 C   0  0  0  0  0  0  0  0  0  0  0  0
    0.7567    5.9907   -8.3956 C   0  0  0  0  0  0  0  0  0  0  0  0
    2.0091    5.2542  -10.2959 C   0  0  0  0  0  0  0  0  0  0  0  0
   13.3860   13.9162  -13.7638 C   0  0  0  0  0  0  0  0  0  0  0  0
   14.2235   11.5909  -13.8770 C   0  0  0  0  0  0  0  0  0  0  0  0
    1.5080    4.7279   -7.9981 C   0  0  2  0  0  0  0  0  0  0  0  0
    0.6821    5.8980   -9.9197 C   0  0  2  0  0  0  0  0  0  0  0  0
   14.0214   14.2356  -15.1223 C   0  0  1  0  0  0  0  0  0  0  0  0
   14.8648   11.8599  -15.2422 C   0  0  2  0  0  0  0  0  0  0  0  0
   -4.8678    6.6120   -2.3470 C   0  0  0  0  0  0  0  0  0  0  0  0
   14.4083   15.7155  -15.1549 C   0  0  0  0  0  0  0  0  0  0  0  0
   16.0952   10.9646  -15.4006 C   0  0  0  0  0  0  0  0  0  0  0  0
   -0.1697    1.1912   -5.7089 C   0  0  0  0  0  0  0  0  0  0  0  0
    5.1104    1.8766  -12.1776 C   0  0  0  0  0  0  0  0  0  0  0  0
    2.8424    1.5442  -11.1705 C   0  0  0  0  0  0  0  0  0  0  0  0
    4.8856    1.0257   -9.8367 C   0  0  0  0  0  0  0  0  0  0  0  0
   15.9588   13.6603  -16.6395 C   0  0  0  0  0  0  0  0  0  0  0  0
    7.5409    5.3434  -10.0252 C   0  0  0  0  0  0  0  0  0  0  0  0
   -0.8636    2.5223   -5.9904 C   0  0  2  0  0  0  0  0  0  0  0  0
    4.2804    3.4434  -10.2999 C   0  0  2  0  0  0  0  0  0  0  0  0
    8.7668   12.4089  -17.1586 C   0  0  0  0  0  0  0  0  0  0  0  0
    4.2889    1.9970  -10.8785 C   0  0  0  0  0  0  0  0  0  0  0  0
   -5.2295    5.7317   -0.0899 N   0  0  0  0  0  0  0  0  0  0  0  0
   10.9147    8.9378  -18.4248 N   0  0  0  0  0  0  0  0  0  0  0  0
   13.0960   12.4912  -13.6437 N   0  0  0  0  0  0  0  0  0  0  0  0
    2.3766    4.4488   -9.1353 N   0  0  0  0  0  0  0  0  0  0  0  0
   10.8485   11.0480  -14.5934 N   0  0  0  0  0  0  0  0  0  0  0  0
    7.7992    6.7651  -10.0012 N   0  0  0  0  0  0  0  0  0  0  0  0
    0.0920    3.5089   -6.4404 N   0  0  0  0  0  0  0  0  0  0  0  0
    5.5940    3.9432   -9.9641 N   0  0  0  0  0  0  0  0  0  0  0  0
   15.2456   13.3412  -15.3414 N   0  3  0  0  0  0  0  0  0  0  0  0
   10.7000    9.6279  -20.6175 O   0  0  0  0  0  0  0  0  0  0  0  0
    7.0554    7.1375   -7.8366 O   0  0  0  0  0  0  0  0  0  0  0  0
    8.8107    9.8638  -14.6983 O   0  0  0  0  0  0  0  0  0  0  0  0
    0.1272    2.9270   -8.6949 O   0  0  0  0  0  0  0  0  0  0  0  0
    3.7149    2.9066   -8.0499 O   0  0  0  0  0  0  0  0  0  0  0  0
    5.5787    5.8012  -11.3597 O   0  0  0  0  0  0  0  0  0  0  0  0
    0.5527    7.1769  -10.5082 O   0  0  0  0  0  0  0  0  0  0  0  0
    8.6503   13.0282   -9.4189 F   0  0  0  0  0  0  0  0  0  0  0  0
    8.3985   13.1875  -18.1949 F   0  0  0  0  0  0  0  0  0  0  0  0
    7.6520   12.0490  -16.4922 F   0  0  0  0  0  0  0  0  0  0  0  0
    9.5249   13.1524  -16.3287 F   0  0  0  0  0  0  0  0  0  0  0  0
   -3.8851    3.5247   -0.0265 S   0  0  0  0  0  0  0  0  0  0  0  0
  1  5  2  0  0  0  0
  1 12  1  0  0  0  0
  2  6  1  0  0  0  0
  2 12  2  0  0  0  0
  3  7  2  0  0  0  0
  3 13  1  0  0  0  0
  4  8  2  0  0  0  0
  4 15  1  0  0  0  0
  5 16  1  0  0  0  0
  6 16  2  0  0  0  0
  7 17  1  0  0  0  0
  8 19  1  0  0  0  0
  9 14  1  0  0  0  0
  9 15  2  0  0  0  0
 10 13  2  0  0  0  0
 10 18  1  0  0  0  0
 11 53  2  0  0  0  0
 11 73  1  0  0  0  0
 12 20  1  0  0  0  0
 13 14  1  0  0  0  0
 14 19  2  0  0  0  0
 15 27  1  0  0  0  0
 16 49  1  0  0  0  0
 17 18  2  0  0  0  0
 17 55  1  0  0  0  0
 18 57  1  0  0  0  0
 19 69  1  0  0  0  0
 20 21  2  0  0  0  0
 20 73  1  0  0  0  0
 21 40  1  0  0  0  0
 21 53  1  0  0  0  0
 22 25  2  0  0  0  0
 22 26  1  0  0  0  0
 23 24  2  0  0  0  0
 23 54  1  0  0  0  0
 24 25  1  0  0  0  0
 24 28  1  0  0  0  0
 25 51  1  0  0  0  0
 26 54  1  0  0  0  0
 26 62  2  0  0  0  0
 27 58  1  0  0  0  0
 27 63  2  0  0  0  0
 28 57  1  0  0  0  0
 28 64  2  0  0  0  0
 29 36  1  0  0  0  0
 29 59  1  0  0  0  0
 29 65  2  0  0  0  0
 30 50  1  0  0  0  0
 30 56  1  0  0  0  0
 30 66  2  0  0  0  0
 31 48  1  0  0  0  0
 31 60  1  0  0  0  0
 31 67  2  0  0  0  0
 32 36  1  0  0  0  0
 32 37  1  0  0  0  0
 33 37  1  0  0  0  0
 33 56  1  0  0  0  0
 34 38  1  0  0  0  0
 34 55  1  0  0  0  0
 35 39  1  0  0  0  0
 35 55  1  0  0  0  0
 36 56  1  0  0  0  0
 37 68  1  0  0  0  0
 38 41  1  0  0  0  0
 38 61  1  0  0  0  0
 39 42  1  0  0  0  0
 39 61  1  0  0  0  0
 43 49  1  0  0  0  0
 44 52  1  0  0  0  0
 45 52  1  0  0  0  0
 46 52  1  0  0  0  0
 47 61  1  0  0  0  0
 48 58  1  0  0  0  0
 49 59  1  0  0  0  0
 50 52  1  0  0  0  0
 50 60  1  0  0  0  0
 51 70  1  0  0  0  0
 51 71  1  0  0  0  0
 51 72  1  0  0  0  0
M  CHG  1  61   1
M  ISO  4  15 100  27 101  31 101  48 100
M  END
> <Batch ID>
0000

> <Smiles>
Cc1ncsc1-c1ccc([C@H](C)NC(=O)[C@@H]2C[C@@H](O)CN2C(=O)[C@@H](N[101C](=O)[100CH2]N[101C](=O)[100c]2ccc(F)c(-c3ccc(N4C[C@@H](C)N(C)[C@@H](C)C4)c(NC(=O)c4c[nH]c(=O)cc4C(F)(F)F)c3)c2)C(C)(C)C)cc1

> <Shape>
0.291

> <Color>
0.130

> <Negative vol penalty>
0.000

$$$$
