
  -OEChem-04092311513D

 59 65  0     1  0  0  0  0  0999 V2000
   70.1406   43.6801   51.9612 C   0  0  0  0  0  0  0  0  0  0  0  0
   69.4528   44.8695   51.7033 C   0  0  0  0  0  0  0  0  0  0  0  0
   69.1037   36.4782   56.2608 C   0  0  0  0  0  0  0  0  0  0  0  0
   69.1961   34.0645   56.2083 C   0  0  0  0  0  0  0  0  0  0  0  0
   70.4009   42.7549   50.9297 C   0  0  0  0  0  0  0  0  0  0  0  0
   68.1435   36.4195   57.2708 C   0  0  0  0  0  0  0  0  0  0  0  0
   68.2359   34.0058   57.2183 C   0  0  0  0  0  0  0  0  0  0  0  0
   69.6299   35.3007   55.7294 C   0  0  0  0  0  0  0  0  0  0  0  0
   69.0455   45.0911   50.4039 C   0  0  0  0  0  0  0  0  0  0  0  0
   69.3017   44.1807   49.3891 C   0  0  0  0  0  0  0  0  0  0  0  0
   70.2819   36.0259   53.4006 C   0  0  0  0  0  0  0  0  0  0  0  0
   68.9429   36.0789   52.8629 C   0  0  0  0  0  0  0  0  0  0  0  0
   69.9784   43.0008   49.6201 C   0  0  0  0  0  0  0  0  0  0  0  0
   67.7096   35.1833   57.7496 C   0  0  0  0  0  0  0  0  0  0  0  0
   68.8370   36.8642   51.7368 C   0  0  0  0  0  0  0  0  0  0  0  0
   71.1253   36.7480   52.5786 C   0  0  0  0  0  0  0  0  0  0  0  0
   73.3455   36.0318   53.3937 C   0  0  0  0  0  0  0  0  0  0  0  0
   73.3501   37.8066   52.1418 C   0  0  0  0  0  0  0  0  0  0  0  0
   70.6536   35.3630   54.6531 C   0  0  0  0  0  0  0  0  0  0  0  0
   68.3172   46.2209   49.8270 C   0  0  0  0  0  0  0  0  0  0  0  0
   68.7411   44.7154   48.1489 C   0  0  0  0  0  0  0  0  0  0  0  0
   66.1701   49.2924   46.8672 C   0  0  0  0  0  0  0  0  0  0  0  0
   68.2898   48.0987   47.4778 C   0  0  0  0  0  0  0  0  0  0  0  0
   73.9353   33.3293   52.1526 C   0  0  0  0  0  0  0  0  0  0  0  0
   69.9040   39.8418   47.8355 C   0  0  0  0  0  0  0  0  0  0  0  0
   65.4114   47.9921   46.9836 C   0  0  0  0  0  0  0  0  0  0  0  0
   66.0685   47.0508   47.9785 C   0  0  0  0  0  0  0  0  0  0  0  0
   72.9259   34.7382   53.9990 C   0  0  2  0  0  0  0  0  0  0  0  0
   67.5076   46.7989   47.5562 C   0  0  2  0  0  0  0  0  0  0  0  0
   67.7713   35.3673   53.4426 C   0  0  0  0  0  0  0  0  0  0  0  0
   67.6472   37.1469   50.9037 C   0  0  0  0  0  0  0  0  0  0  0  0
   72.9849   38.8433   51.1528 C   0  0  0  0  0  0  0  0  0  0  0  0
   72.6892   33.6455   52.9592 C   0  0  0  0  0  0  0  0  0  0  0  0
   70.3146   40.7328   48.9883 C   0  0  0  0  0  0  0  0  0  0  0  0
   74.3005   35.4020   47.2979 C   0  0  0  0  0  0  0  0  0  0  0  0
   73.1554   35.9283   46.4297 C   0  0  0  0  0  0  0  0  0  0  0  0
   73.8848   34.2534   48.2221 C   0  0  0  0  0  0  0  0  0  0  0  0
   71.9926   36.4289   47.2906 C   0  0  0  0  0  0  0  0  0  0  0  0
   75.0490   33.6751   49.0332 C   0  0  0  0  0  0  0  0  0  0  0  0
   70.8589   36.9845   46.4235 C   0  0  0  0  0  0  0  0  0  0  0  0
   74.6201   32.5013   49.9096 C   0  0  0  0  0  0  0  0  0  0  0  0
   69.6584   37.4377   47.2479 C   0  0  0  0  0  0  0  0  0  0  0  0
   74.5823   36.4829   53.3268 N   0  0  0  0  0  0  0  0  0  0  0  0
   74.5846   37.6011   52.5353 N   0  0  0  0  0  0  0  0  0  0  0  0
   71.7962   34.8380   54.9090 N   0  0  0  0  0  0  0  0  0  0  0  0
   72.5042   36.8745   52.6951 N   0  0  0  0  0  0  0  0  0  0  0  0
   67.5366   49.2147   47.1163 N   0  0  0  0  0  0  0  0  0  0  0  0
   68.1766   45.9276   48.4872 N   0  0  0  0  0  0  0  0  0  0  0  0
   73.6233   32.8702   50.8768 N   0  0  0  0  0  0  0  0  0  0  0  0
   69.9898   38.4935   48.1641 N   0  0  0  0  0  0  0  0  0  0  0  0
   67.9429   47.1893   50.4618 O   0  0  0  0  0  0  0  0  0  0  0  0
   68.7971   44.1519   47.0715 O   0  0  0  0  0  0  0  0  0  0  0  0
   65.6108   50.3332   46.5228 O   0  0  0  0  0  0  0  0  0  0  0  0
   69.5084   48.1536   47.6439 O   0  0  0  0  0  0  0  0  0  0  0  0
   75.0736   33.4697   52.5913 O   0  0  0  0  0  0  0  0  0  0  0  0
   69.5434   40.2854   46.7487 O   0  0  0  0  0  0  0  0  0  0  0  0
   70.2360   42.0934   48.6197 O   0  0  0  0  0  0  0  0  0  0  0  0
   70.3367   37.5518   51.3084 S   0  0  0  0  0  0  0  0  0  0  0  0
   66.5262   35.1109   58.9966 Cl  0  0  0  0  0  0  0  0  0  0  0  0
  1  2  1  0  0  0  0
  1  5  2  0  0  0  0
  2  9  2  0  0  0  0
  3  6  2  0  0  0  0
  3  8  1  0  0  0  0
  4  7  1  0  0  0  0
  4  8  2  0  0  0  0
  5 13  1  0  0  0  0
  6 14  1  0  0  0  0
  7 14  2  0  0  0  0
  8 19  1  0  0  0  0
  9 10  1  0  0  0  0
  9 20  1  0  0  0  0
 10 13  2  0  0  0  0
 10 21  1  0  0  0  0
 11 12  1  0  0  0  0
 11 16  2  0  0  0  0
 11 19  1  0  0  0  0
 12 15  2  0  0  0  0
 12 30  1  0  0  0  0
 13 57  1  0  0  0  0
 14 59  1  0  0  0  0
 15 31  1  0  0  0  0
 15 58  1  0  0  0  0
 16 46  1  0  0  0  0
 16 58  1  0  0  0  0
 17 28  1  0  0  0  0
 17 43  2  0  0  0  0
 17 46  1  0  0  0  0
 18 32  1  0  0  0  0
 18 44  2  0  0  0  0
 18 46  1  0  0  0  0
 19 45  2  0  0  0  0
 20 48  1  0  0  0  0
 20 51  2  0  0  0  0
 21 48  1  0  0  0  0
 21 52  2  0  0  0  0
 22 26  1  0  0  0  0
 22 47  1  0  0  0  0
 22 53  2  0  0  0  0
 23 29  1  0  0  0  0
 23 47  1  0  0  0  0
 23 54  2  0  0  0  0
 24 33  1  0  0  0  0
 24 49  1  0  0  0  0
 24 55  2  0  0  0  0
 25 34  1  0  0  0  0
 25 50  1  0  0  0  0
 25 56  2  0  0  0  0
 26 27  1  0  0  0  0
 27 29  1  0  0  0  0
 28 33  1  0  0  0  0
 28 45  1  0  0  0  0
 29 48  1  0  0  0  0
 34 57  1  0  0  0  0
 35 36  1  0  0  0  0
 35 37  1  0  0  0  0
 36 38  1  0  0  0  0
 37 39  1  0  0  0  0
 38 40  1  0  0  0  0
 39 41  1  0  0  0  0
 40 42  1  0  0  0  0
 41 49  1  0  0  0  0
 42 50  1  0  0  0  0
 43 44  1  0  0  0  0
M  ISO  4  13 101  24 100  49 100  57 101
M  END
> <Batch ID>
0000

> <Smiles>
Cc1sc2c(c1C)C(c1ccc(Cl)cc1)=N[C@@H](C[100C](=O)[100NH]CCCCCCCCNC(=O)C[101O][101c]1cccc3c1C(=O)N([C@H]1CCC(=O)NC1=O)C3=O)c1nnc(C)n1-2

> <Shape>
0.404

> <Color>
0.202

> <Negative vol penalty>
0.000

$$$$
