ligand_isotope
                    3D
 Structure written by MMmdl.
132138  0  0  1  0            999 V2000
  -11.5565    7.2343   15.2067 O   0  0  0  0  0  0
  -12.2600    8.0582   14.6176 C   0  0  0  0  0  0
  -12.7786    9.2885   15.3258 C   0  0  0  0  0  0
  -13.7907   10.0826   14.7723 C   0  0  0  0  0  0
  -14.2614   11.2062   15.4397 C   0  0  0  0  0  0
  -12.2643    9.6412   16.5731 C   0  0  0  0  0  0
  -12.7510   10.7538   17.2471 C   0  0  0  0  0  0
  -13.7650   11.5624   16.7024 C   0  0  0  0  0  0
  -14.2983   12.7617   17.4418 C   0  0  0  0  0  0
  -13.7196   13.1906   18.6427 C   0  0  0  0  0  0
  -14.1549   14.3348   19.3171 C   0  0  0  0  0  0
  -13.6087   14.5808   20.5830 N   0  0  0  0  0  0
  -12.2981   14.7251   20.8653 C   0  0  0  0  0  0
  -11.4225   14.8222   20.0046 O   0  0  0  0  0  0
  -12.0023   14.7564   22.2843 C   0  0  0  0  0  0
  -11.1979   15.8256   22.9230 C   0  0  0  0  0  0
  -10.6776   17.0467   22.1474 C   0  0  0  0  0  0
  -10.1680   17.9709   22.9643 F   0  0  0  0  0  0
  -11.6727   17.6116   21.4644 F   0  0  0  0  0  0
   -9.7189   16.6741   21.3005 F   0  0  0  0  0  0
  -10.9568   15.6953   24.2608 C   0  0  0  0  0  0
  -11.4283   14.5907   25.0944 C   0  0  0  0  0  0
  -11.1771   14.4916   26.2910 O   0  0  0  0  0  0
  -12.1720   13.6678   24.4285 N   0  0  0  0  0  0
  -12.4347   13.7568   23.0923 C   0  0  0  0  0  0
  -15.4010   13.4970   16.9816 C   0  0  0  0  0  0
  -15.8277   14.6565   17.6257 C   0  0  0  0  0  0
  -15.1896   15.1272   18.7757 C   0  0  0  0  0  0
  -15.5768   16.3785   19.2508 N   0  0  0  0  0  0
  -16.9164   16.5743   19.8256 C   0  0  0  0  0  0
  -17.3782   18.0449   19.6750 C   0  0  0  0  0  0
  -14.6649   17.2780   19.9769 C   0  0  0  0  0  0
  -15.0996   18.7504   19.8171 C   0  0  0  0  0  0
  -16.4442   18.9382   20.3701 N   0  0  0  0  0  0
  -16.8514   20.3306   20.2320 C   0  0  0  0  0  0
  -12.6338    7.9110   13.3352 N   0  0  0  0  0  0
  -12.3755    6.7382   12.5113 C   0  0  0  0  0  0
  -10.9320    6.6705   11.9797 C   0  0  0  0  0  0
  -10.7519    5.5914   10.8989 C   0  0  0  0  0  0
  -10.9094    4.1391   11.3966 C   0  0  0  0  0  0
   -9.7107    3.6697   12.2227 C   0  0  0  0  0  0
   -8.6011    3.6437   11.7028 O   0  0  0  0  0  0
   -9.9279    3.2878   13.4894 N   0  0  0  0  0  0
   -8.9110    2.6664   14.3494 C   0  0  1  0  0  0
   -8.7858    3.3491   15.7658 C   0  0  0  0  0  0
   -8.6312    4.8827   15.6038 C   0  0  0  0  0  0
   -7.5344    2.8202   16.5059 C   0  0  0  0  0  0
  -10.0221    3.1023   16.6662 C   0  0  0  0  0  0
   -9.2672    1.1628   14.4111 C   0  0  0  0  0  0
  -10.4366    0.8788   14.6861 O   0  0  0  0  0  0
   -8.3255    0.2086   14.1889 N   0  0  0  0  0  0
   -8.5502   -1.2434   14.3703 C   0  0  1  0  0  0
   -7.2136   -1.9246   14.0798 C   0  0  0  0  0  0
   -6.5284   -0.9401   13.1477 C   0  0  1  0  0  0
   -6.9435   -1.1374   11.8114 O   0  0  0  0  0  0
   -6.9575    0.4248   13.6975 C   0  0  0  0  0  0
   -9.0785   -1.6041   15.7749 C   0  0  0  0  0  0
   -8.7448   -0.9357   16.7538 O   0  0  0  0  0  0
   -9.8739   -2.6773   15.8297 N   0  0  0  0  0  0
  -10.3409   -3.3079   17.0609 C   0  0  0  0  0  0
   -9.4586   -4.4430   17.5798 C   0  0  0  0  0  0
   -8.5729   -5.1269   16.7400 C   0  0  0  0  0  0
   -7.8060   -6.1725   17.2385 C   0  0  0  0  0  0
   -7.9163   -6.5542   18.5781 C   0  0  0  0  0  0
   -8.7741   -5.8481   19.4242 C   0  0  0  0  0  0
   -9.5419   -4.7992   18.9272 C   0  0  0  0  0  0
   -7.1265   -7.7086   19.0945 C   0  0  0  0  0  0
   -5.5402   -8.0298   18.4419 S   0  0  0  0  0  0
   -5.4320   -9.3772   19.5025 C   0  0  0  0  0  0
   -6.4604   -9.5727   20.2804 N   0  0  0  0  0  0
   -7.4048   -8.6722   20.0789 C   0  0  0  0  0  0
   -8.6416   -8.8296   20.9381 C   0  0  0  0  0  0
  -14.2432    9.8312   13.8275 H   0  0  0  0  0  0
  -15.0312   11.7773   14.9465 H   0  0  0  0  0  0
  -11.4887    9.0506   17.0406 H   0  0  0  0  0  0
  -12.3127   10.9485   18.2109 H   0  0  0  0  0  0
  -12.9171   12.6345   19.0966 H   0  0  0  0  0  0
  -14.2728   14.7775   21.3223 H   0  0  0  0  0  0
  -10.3804   16.4504   24.7760 H   0  0  0  0  0  0
  -12.4978   12.8739   24.9667 H   0  0  0  0  0  0
  -13.0194   12.9056   22.7657 H   0  0  0  0  0  0
  -15.9309   13.2151   16.0877 H   0  0  0  0  0  0
  -16.6354   15.2235   17.1867 H   0  0  0  0  0  0
  -16.8839   16.3044   20.8784 H   0  0  0  0  0  0
  -17.6429   15.9192   19.3441 H   0  0  0  0  0  0
  -18.3830   18.1597   20.0851 H   0  0  0  0  0  0
  -17.4219   18.3121   18.6167 H   0  0  0  0  0  0
  -13.6534   17.1726   19.5829 H   0  0  0  0  0  0
  -14.6400   17.0073   21.0336 H   0  0  0  0  0  0
  -15.0965   19.0298   18.7623 H   0  0  0  0  0  0
  -14.3867   19.3964   20.3273 H   0  0  0  0  0  0
  -16.1790   20.9852   20.7873 H   0  0  0  0  0  0
  -16.8365   20.6444   19.1880 H   0  0  0  0  0  0
  -17.8579   20.4813   20.6251 H   0  0  0  0  0  0
  -13.1059    8.6792   12.8815 H   0  0  0  0  0  0
  -13.0751    6.7724   11.6747 H   0  0  0  0  0  0
  -12.6294    5.8323   13.0656 H   0  0  0  0  0  0
  -10.2344    6.5062   12.8022 H   0  0  0  0  0  0
  -10.6604    7.6361   11.5525 H   0  0  0  0  0  0
   -9.7751    5.7192   10.4328 H   0  0  0  0  0  0
  -11.4744    5.7715   10.1059 H   0  0  0  0  0  0
  -10.9696    3.4798   10.5300 H   0  0  0  0  0  0
  -11.8472    3.9956   11.9346 H   0  0  0  0  0  0
  -10.8599    3.3314   13.8748 H   0  0  0  0  0  0
   -7.9383    2.7872   13.8754 H   0  0  0  0  0  0
   -8.4524    5.3748   16.5608 H   0  0  0  0  0  0
   -7.7953    5.1340   14.9495 H   0  0  0  0  0  0
   -9.5255    5.3402   15.1790 H   0  0  0  0  0  0
   -7.3951    3.3141   17.4685 H   0  0  0  0  0  0
   -7.6015    1.7509   16.7040 H   0  0  0  0  0  0
   -6.6307    2.9876   15.9237 H   0  0  0  0  0  0
   -9.9998    3.7185   17.5660 H   0  0  0  0  0  0
  -10.9381    3.3402   16.1276 H   0  0  0  0  0  0
  -10.0923    2.0666   17.0011 H   0  0  0  0  0  0
   -9.2696   -1.5906   13.6268 H   0  0  0  0  0  0
   -7.3974   -2.9030   13.6368 H   0  0  0  0  0  0
   -6.6378   -2.0545   14.9970 H   0  0  0  0  0  0
   -5.4470   -1.0587   13.2015 H   0  0  0  0  0  0
   -6.4823   -0.5015   11.2537 H   0  0  0  0  0  0
   -6.3204    0.7167   14.5333 H   0  0  0  0  0  0
   -6.8840    1.2014   12.9360 H   0  0  0  0  0  0
  -10.0446   -3.1890   14.9724 H   0  0  0  0  0  0
  -11.3336   -3.7174   16.8707 H   0  0  0  0  0  0
  -10.4622   -2.5626   17.8507 H   0  0  0  0  0  0
   -8.4771   -4.8632   15.6978 H   0  0  0  0  0  0
   -7.1384   -6.6931   16.5682 H   0  0  0  0  0  0
   -8.8534   -6.1063   20.4691 H   0  0  0  0  0  0
  -10.2112   -4.2715   19.5913 H   0  0  0  0  0  0
   -4.5394   -9.9768   19.5259 H   0  0  0  0  0  0
   -8.9060   -9.8742   21.1051 H   0  0  0  0  0  0
   -8.5052   -8.3745   21.9190 H   0  0  0  0  0  0
   -9.5174   -8.3661   20.4853 H   0  0  0  0  0  0
  1  2  2  0  0  0
  2  3  1  0  0  0
  2 36  1  0  0  0
  3  4  1  0  0  0
  3  6  2  0  0  0
  4  5  2  0  0  0
  4 73  1  0  0  0
  5  8  1  0  0  0
  5 74  1  0  0  0
  6  7  1  0  0  0
  6 75  1  0  0  0
  7  8  2  0  0  0
  7 76  1  0  0  0
  8  9  1  0  0  0
  9 10  1  0  0  0
  9 26  2  0  0  0
 10 11  2  0  0  0
 10 77  1  0  0  0
 11 12  1  0  0  0
 11 28  1  0  0  0
 12 13  1  0  0  0
 12 78  1  0  0  0
 13 14  2  0  0  0
 13 15  1  0  0  0
 15 16  1  0  0  0
 15 25  2  0  0  0
 16 17  1  0  0  0
 16 21  2  0  0  0
 17 18  1  0  0  0
 17 19  1  0  0  0
 17 20  1  0  0  0
 21 22  1  0  0  0
 21 79  1  0  0  0
 22 23  2  0  0  0
 22 24  1  0  0  0
 24 25  1  0  0  0
 24 80  1  0  0  0
 25 81  1  0  0  0
 26 27  1  0  0  0
 26 82  1  0  0  0
 27 28  2  0  0  0
 27 83  1  0  0  0
 28 29  1  0  0  0
 29 30  1  0  0  0
 29 32  1  0  0  0
 30 31  1  0  0  0
 30 84  1  0  0  0
 30 85  1  0  0  0
 31 34  1  0  0  0
 31 86  1  0  0  0
 31 87  1  0  0  0
 32 33  1  0  0  0
 32 88  1  0  0  0
 32 89  1  0  0  0
 33 34  1  0  0  0
 33 90  1  0  0  0
 33 91  1  0  0  0
 34 35  1  0  0  0
 35 92  1  0  0  0
 35 93  1  0  0  0
 35 94  1  0  0  0
 36 37  1  0  0  0
 36 95  1  0  0  0
 37 38  1  0  0  0
 37 96  1  0  0  0
 37 97  1  0  0  0
 38 39  1  0  0  0
 38 98  1  0  0  0
 38 99  1  0  0  0
 39 40  1  0  0  0
 39100  1  0  0  0
 39101  1  0  0  0
 40 41  1  0  0  0
 40102  1  0  0  0
 40103  1  0  0  0
 41 42  2  0  0  0
 41 43  1  0  0  0
 43 44  1  0  0  0
 43104  1  0  0  0
 44 45  1  0  0  0
 44 49  1  0  0  0
 44105  1  0  0  0
 45 46  1  0  0  0
 45 47  1  0  0  0
 45 48  1  0  0  0
 46106  1  0  0  0
 46107  1  0  0  0
 46108  1  0  0  0
 47109  1  0  0  0
 47110  1  0  0  0
 47111  1  0  0  0
 48112  1  0  0  0
 48113  1  0  0  0
 48114  1  0  0  0
 49 50  2  0  0  0
 49 51  1  0  0  0
 51 52  1  0  0  0
 51 56  1  0  0  0
 52 53  1  0  0  0
 52 57  1  0  0  0
 52115  1  0  0  0
 53 54  1  0  0  0
 53116  1  0  0  0
 53117  1  0  0  0
 54 55  1  0  0  0
 54 56  1  0  0  0
 54118  1  0  0  0
 55119  1  0  0  0
 56120  1  0  0  0
 56121  1  0  0  0
 57 58  2  0  0  0
 57 59  1  0  0  0
 59 60  1  0  0  0
 59122  1  0  0  0
 60 61  1  0  0  0
 60123  1  0  0  0
 60124  1  0  0  0
 61 62  1  0  0  0
 61 66  2  0  0  0
 62 63  2  0  0  0
 62125  1  0  0  0
 63 64  1  0  0  0
 63126  1  0  0  0
 64 65  2  0  0  0
 64 67  1  0  0  0
 65 66  1  0  0  0
 65127  1  0  0  0
 66128  1  0  0  0
 67 68  1  0  0  0
 67 71  2  0  0  0
 68 69  1  0  0  0
 69 70  2  0  0  0
 69129  1  0  0  0
 70 71  1  0  0  0
 71 72  1  0  0  0
 72130  1  0  0  0
 72131  1  0  0  0
 72132  1  0  0  0
M  ISO  4   2 101   3 100  40 100  41 101
M  END
> <s_m_entry_id>
12

> <s_m_entry_name>
7q2j.1_mol5

> <s_m_subgroup_title>
7Q2J - minimized_split_by_molecule

> <s_m_subgroupid>
7Q2J - minimized_split_by_molecule

> <b_m_subgroup_collapsed>
0

$$$$
