e3_ligand
                    3D
 Structure written by MMmdl.
 33 35  0  0  1  0            999 V2000
   -9.7107    3.6697   12.2227 C   0  0  0  0  0  0
   -8.6011    3.6437   11.7028 O   0  0  0  0  0  0
   -9.9279    3.2878   13.4894 N   0  0  0  0  0  0
   -8.9110    2.6664   14.3494 C   0  0  1  0  0  0
   -8.7858    3.3491   15.7658 C   0  0  0  0  0  0
   -8.6312    4.8827   15.6038 C   0  0  0  0  0  0
   -7.5344    2.8202   16.5059 C   0  0  0  0  0  0
  -10.0221    3.1023   16.6662 C   0  0  0  0  0  0
   -9.2672    1.1628   14.4111 C   0  0  0  0  0  0
  -10.4366    0.8788   14.6861 O   0  0  0  0  0  0
   -8.3255    0.2086   14.1889 N   0  0  0  0  0  0
   -8.5502   -1.2434   14.3703 C   0  0  1  0  0  0
   -7.2136   -1.9246   14.0798 C   0  0  0  0  0  0
   -6.5284   -0.9401   13.1477 C   0  0  1  0  0  0
   -6.9435   -1.1374   11.8114 O   0  0  0  0  0  0
   -6.9575    0.4248   13.6975 C   0  0  0  0  0  0
   -9.0785   -1.6041   15.7749 C   0  0  0  0  0  0
   -8.7448   -0.9357   16.7538 O   0  0  0  0  0  0
   -9.8739   -2.6773   15.8297 N   0  0  0  0  0  0
  -10.3409   -3.3079   17.0609 C   0  0  0  0  0  0
   -9.4586   -4.4430   17.5798 C   0  0  0  0  0  0
   -8.5729   -5.1269   16.7400 C   0  0  0  0  0  0
   -7.8060   -6.1725   17.2385 C   0  0  0  0  0  0
   -7.9163   -6.5542   18.5781 C   0  0  0  0  0  0
   -8.7741   -5.8481   19.4242 C   0  0  0  0  0  0
   -9.5419   -4.7992   18.9272 C   0  0  0  0  0  0
   -7.1265   -7.7086   19.0945 C   0  0  0  0  0  0
   -5.5402   -8.0298   18.4419 S   0  0  0  0  0  0
   -5.4320   -9.3772   19.5025 C   0  0  0  0  0  0
   -6.4604   -9.5727   20.2804 N   0  0  0  0  0  0
   -7.4048   -8.6722   20.0789 C   0  0  0  0  0  0
   -8.6416   -8.8296   20.9381 C   0  0  0  0  0  0
  -10.5646    4.0109   11.6563 *   0  0  0  0  0  0
  1  2  2  0  0  0
  1  3  1  0  0  0
  1 33  1  0  0  0
  3  4  1  0  0  0
  4  5  1  0  0  0
  4  9  1  0  0  0
  5  6  1  0  0  0
  5  7  1  0  0  0
  5  8  1  0  0  0
  9 10  2  0  0  0
  9 11  1  0  0  0
 11 12  1  0  0  0
 11 16  1  0  0  0
 12 13  1  0  0  0
 12 17  1  0  0  0
 13 14  1  0  0  0
 14 15  1  0  0  0
 14 16  1  0  0  0
 17 18  2  0  0  0
 17 19  1  0  0  0
 19 20  1  0  0  0
 20 21  1  0  0  0
 21 22  1  0  0  0
 21 26  2  0  0  0
 22 23  2  0  0  0
 23 24  1  0  0  0
 24 25  2  0  0  0
 24 27  1  0  0  0
 25 26  1  0  0  0
 27 28  1  0  0  0
 27 31  2  0  0  0
 28 29  1  0  0  0
 29 30  2  0  0  0
 30 31  1  0  0  0
 31 32  1  0  0  0
M  ISO  1   1 101
M  END
> <s_m_entry_id>
15

> <s_m_entry_name>
7q2j.1_mol5

> <s_m_subgroup_title>
7Q2J - minimized_split_by_molecule

> <s_m_subgroupid>
7Q2J - minimized_split_by_molecule

> <b_m_subgroup_collapsed>
0

$$$$
