
  -OEChem-04042320113D

 79 87  0     1  0  0  0  0  0999 V2000
  -33.1744  -32.6220   16.3375 C   0  0  0  0  0  0  0  0  0  0  0  0
  -32.6012  -31.3595   16.2229 C   0  0  0  0  0  0  0  0  0  0  0  0
  -22.7292  -10.4445   21.0704 C   0  0  0  0  0  0  0  0  0  0  0  0
  -24.5678   -9.0400   21.7658 C   0  0  0  0  0  0  0  0  0  0  0  0
  -28.4443  -20.7411   19.6132 C   0  0  0  0  0  0  0  0  0  0  0  0
  -26.5270  -21.0050   18.1670 C   0  0  0  0  0  0  0  0  0  0  0  0
  -33.1613  -33.2834   17.5648 C   0  0  0  0  0  0  0  0  0  0  0  0
  -32.0155  -30.7573   17.3358 C   0  0  0  0  0  0  0  0  0  0  0  0
  -27.0962  -27.1099   17.3858 C   0  0  0  0  0  0  0  0  0  0  0  0
  -21.8870   -9.3328   21.0516 C   0  0  0  0  0  0  0  0  0  0  0  0
  -23.7256   -7.9282   21.7471 C   0  0  0  0  0  0  0  0  0  0  0  0
  -28.2311  -19.3630   19.6444 C   0  0  0  0  0  0  0  0  0  0  0  0
  -26.3138  -19.6268   18.1981 C   0  0  0  0  0  0  0  0  0  0  0  0
  -26.9570  -25.7232   17.4230 C   0  0  0  0  0  0  0  0  0  0  0  0
  -21.3516   -6.5701   23.7321 C   0  0  0  0  0  0  0  0  0  0  0  0
  -21.4183   -5.6901   24.8122 C   0  0  0  0  0  0  0  0  0  0  0  0
  -26.6834  -25.8208   19.8177 C   0  0  0  0  0  0  0  0  0  0  0  0
  -22.0409   -3.8992   23.3148 C   0  0  0  0  0  0  0  0  0  0  0  0
  -24.0696  -10.2981   21.4274 C   0  0  0  0  0  0  0  0  0  0  0  0
  -27.5921  -21.5621   18.8745 C   0  0  0  0  0  0  0  0  0  0  0  0
  -25.1878  -12.3073   22.5322 C   0  0  0  0  0  0  0  0  0  0  0  0
  -32.5665  -32.6931   18.6911 C   0  0  0  0  0  0  0  0  0  0  0  0
  -27.0408  -27.8627   18.5676 C   0  0  0  0  0  0  0  0  0  0  0  0
  -31.9956  -31.4109   18.5797 C   0  0  0  0  0  0  0  0  0  0  0  0
  -26.8196  -27.2172   19.7926 C   0  0  0  0  0  0  0  0  0  0  0  0
  -22.3852   -8.0747   21.3899 C   0  0  0  0  0  0  0  0  0  0  0  0
  -27.1659  -18.8059   18.9368 C   0  0  0  0  0  0  0  0  0  0  0  0
  -26.7535  -25.0781   18.6393 C   0  0  0  0  0  0  0  0  0  0  0  0
  -21.6295   -6.1146   22.4432 C   0  0  0  0  0  0  0  0  0  0  0  0
  -21.7630   -4.3547   24.6036 C   0  0  0  0  0  0  0  0  0  0  0  0
  -21.9741   -4.7792   22.2346 C   0  0  0  0  0  0  0  0  0  0  0  0
  -24.9402  -11.4460   21.4465 C   0  0  0  0  0  0  0  0  0  0  0  0
  -26.0792  -13.2301   22.0421 C   0  0  0  0  0  0  0  0  0  0  0  0
  -24.6592  -12.2759   23.8646 C   0  0  0  0  0  0  0  0  0  0  0  0
  -27.8191  -23.0298   18.8410 C   0  0  0  0  0  0  0  0  0  1  0  0
  -29.0668  -29.7618   20.1144 C   0  0  0  0  0  0  0  0  0  0  0  0
  -26.4911  -30.3191   22.0059 C   0  0  0  0  0  0  0  0  0  0  0  0
  -23.4833  -29.2338   23.1985 C   0  0  0  0  0  0  0  0  0  0  0  0
  -27.6155  -16.7197   17.9597 C   0  0  0  0  0  0  0  0  0  0  0  0
  -32.6186  -33.4266   20.0078 C   0  0  0  0  0  0  0  0  0  0  0  0
  -27.1660  -29.3604   18.5075 C   0  0  0  0  0  0  0  0  0  0  0  0
  -26.7321  -27.9816   21.0873 C   0  0  0  0  0  0  0  0  0  0  0  0
  -31.6462  -32.8786   21.0492 C   0  0  0  0  0  0  0  0  0  0  0  0
  -28.7319  -13.3042   17.7449 C   0  0  0  0  0  0  0  0  0  0  0  0
  -31.7242  -31.3561   21.1034 C   0  0  0  0  0  0  0  0  0  0  0  0
  -27.8373  -12.5821   18.7520 C   0  0  0  0  0  0  0  0  0  0  0  0
  -27.9881  -14.4407   17.0505 C   0  0  0  0  0  0  0  0  0  0  0  0
  -26.4859  -14.7110   19.0056 C   0  0  0  0  0  0  0  0  0  0  0  0
  -31.3287  -30.7353   19.7582 C   0  0  1  0  0  0  0  0  0  0  0  0
  -27.6068  -29.9768   19.8316 C   0  0  1  0  0  0  0  0  0  0  0  0
  -27.2119  -13.5755   19.7475 C   0  0  1  0  0  0  0  0  0  0  0  0
  -21.6307  -29.8889   24.7592 C   0  0  0  0  0  0  0  0  0  0  0  0
  -28.2358  -29.5604   24.3914 C   0  0  0  0  0  0  0  0  0  0  0  0
  -26.1477  -29.3087   25.7497 C   0  0  0  0  0  0  0  0  0  0  0  0
  -26.7404  -31.5277   24.7763 C   0  0  0  0  0  0  0  0  0  0  0  0
  -21.4921  -29.2618   21.0091 C   0  0  0  0  0  0  0  0  0  0  0  0
  -25.9223  -29.6842   23.2519 C   0  0  1  0  0  0  0  0  0  0  0  0
  -22.1403  -29.9296   23.3270 C   0  0  2  0  0  0  0  0  0  0  0  0
  -26.7651  -30.0054   24.5183 C   0  0  0  0  0  0  0  0  0  0  0  0
  -25.6194  -11.7910   20.3494 N   0  0  0  0  0  0  0  0  0  0  0  0
  -26.3025  -12.8794   20.7431 N   0  0  0  0  0  0  0  0  0  0  0  0
  -26.8669  -29.4436   20.9773 N   0  0  0  0  0  0  0  0  0  0  0  0
  -27.3764  -15.3432   18.0249 N   0  0  0  0  0  0  0  0  0  0  0  0
  -26.6860  -14.2993   22.5998 N   0  0  0  0  0  0  0  0  0  0  0  0
  -23.7547  -11.2595   24.2008 N   0  0  0  0  0  0  0  0  0  0  0  0
  -29.8901  -30.7453   19.6004 N   0  0  0  0  0  0  0  0  0  0  0  0
  -24.5320  -30.1188   23.3332 N   0  0  0  0  0  0  0  0  0  0  0  0
  -21.1304  -29.2725   22.4499 N   0  3  0  0  0  0  0  0  0  0  0  0
  -24.9670  -13.1337   24.7266 O   0  0  0  0  0  0  0  0  0  0  0  0
  -28.9252  -23.5382   18.9465 O   0  0  0  0  0  0  0  0  0  0  0  0
  -29.4199  -28.7774   20.7530 O   0  0  0  0  0  0  0  0  0  0  0  0
  -26.5914  -31.5470   21.9447 O   0  0  0  0  0  0  0  0  0  0  0  0
  -23.5913  -28.0254   23.0022 O   0  0  0  0  0  0  0  0  0  0  0  0
  -28.3285  -17.2590   17.1143 O   0  0  0  0  0  0  0  0  0  0  0  0
  -21.5636   -6.9897   21.3720 O   0  0  0  0  0  0  0  0  0  0  0  0
  -26.6180  -23.7246   18.6785 O   0  0  0  0  0  0  0  0  0  1  0  0
  -26.9518  -17.4242   18.9681 O   0  0  0  0  0  0  0  0  0  0  0  0
  -21.8285   -3.5101   25.6412 F   0  0  0  0  0  0  0  0  0  0  0  0
  -22.2433   -4.3361   20.9989 F   0  0  0  0  0  0  0  0  0  0  0  0
  1  2  1  0  0  0  0
  1  7  2  0  0  0  0
  2  8  2  0  0  0  0
  3 10  2  0  0  0  0
  3 19  1  0  0  0  0
  4 11  1  0  0  0  0
  4 19  2  0  0  0  0
  5 12  2  0  0  0  0
  5 20  1  0  0  0  0
  6 13  1  0  0  0  0
  6 20  2  0  0  0  0
  7 22  1  0  0  0  0
  8 24  1  0  0  0  0
  9 14  2  0  0  0  0
  9 23  1  0  0  0  0
 10 26  1  0  0  0  0
 11 26  2  0  0  0  0
 12 27  1  0  0  0  0
 13 27  2  0  0  0  0
 14 28  1  0  0  0  0
 15 16  2  0  0  0  0
 15 29  1  0  0  0  0
 16 30  1  0  0  0  0
 17 25  1  0  0  0  0
 17 28  2  0  0  0  0
 18 30  2  0  0  0  0
 18 31  1  0  0  0  0
 19 32  1  0  0  0  0
 20 35  1  0  0  0  0
 21 32  1  0  0  0  0
 21 33  2  0  0  0  0
 21 34  1  0  0  0  0
 22 24  2  0  0  0  0
 22 40  1  0  0  0  0
 23 25  2  0  0  0  0
 23 41  1  0  0  0  0
 24 49  1  0  0  0  0
 25 42  1  0  0  0  0
 26 75  1  0  0  0  0
 27 77  1  0  0  0  0
 28 76  1  0  0  0  0
 29 31  2  0  0  0  0
 29 75  1  0  0  0  0
 30 78  1  0  0  0  0
 31 79  1  0  0  0  0
 32 60  2  0  0  0  0
 33 61  1  0  0  0  0
 33 64  1  0  0  0  0
 34 65  1  0  0  0  0
 34 69  2  0  0  0  0
 35 70  2  0  0  0  0
 35 76  1  0  0  0  0
 36 50  1  0  0  0  0
 36 66  1  0  0  0  0
 36 71  2  0  0  0  0
 37 57  1  0  0  0  0
 37 62  1  0  0  0  0
 37 72  2  0  0  0  0
 38 58  1  0  0  0  0
 38 67  1  0  0  0  0
 38 73  2  0  0  0  0
 39 63  1  0  0  0  0
 39 74  2  0  0  0  0
 39 77  1  0  0  0  0
 40 43  1  0  0  0  0
 41 50  1  0  0  0  0
 42 62  1  0  0  0  0
 43 45  1  0  0  0  0
 44 46  1  0  0  0  0
 44 47  1  0  0  0  0
 45 49  1  0  0  0  0
 46 51  1  0  0  0  0
 47 63  1  0  0  0  0
 48 51  1  0  0  0  0
 48 63  1  0  0  0  0
 49 66  1  0  0  0  0
 50 62  1  0  0  0  0
 51 61  1  0  0  0  0
 52 58  1  0  0  0  0
 53 59  1  0  0  0  0
 54 59  1  0  0  0  0
 55 59  1  0  0  0  0
 56 68  1  0  0  0  0
 57 59  1  0  0  0  0
 57 67  1  0  0  0  0
 58 68  1  0  0  0  0
 60 61  1  0  0  0  0
M  CHG  1  68   1
M  ISO  4  35 101  39 100  76 101  77 100
M  END
> <Batch ID>
0000

> <Smiles>
CNC(C)C(=O)NC(C(=O)N1Cc2cc([101O:1][101C:1](=O)c3ccc([100O:0][100C:0](=O)N4CCCC(n5nc(-c6ccc(Oc7ccc(F)cc7F)cc6)c(C(N)=O)c5N)C4)cc3)ccc2CC1C(=O)NC1CCCc2ccccc21)C(C)(C)C

> <Shape>
0.259

> <Color>
0.146

> <Negative vol penalty>
0.000

$$$$

  -OEChem-04042320113D

 90 97  0     1  0  0  0  0  0999 V2000
  -16.0870  -26.4429   24.3027 C   0  0  0  0  0  0  0  0  0  0  0  0
  -17.1007  -26.0816   23.4212 C   0  0  0  0  0  0  0  0  0  0  0  0
  -27.7939  -12.7059   18.7904 C   0  0  0  0  0  0  0  0  0  0  0  0
  -28.2830  -13.3098   21.0780 C   0  0  0  0  0  0  0  0  0  0  0  0
  -15.9161  -27.7808   24.6562 C   0  0  0  0  0  0  0  0  0  0  0  0
  -17.9436  -27.0581   22.8917 C   0  0  0  0  0  0  0  0  0  0  0  0
  -22.8151  -25.6777   22.9845 C   0  0  0  0  0  0  0  0  0  0  0  0
  -29.0969  -12.2325   18.6368 C   0  0  0  0  0  0  0  0  0  0  0  0
  -29.5860  -12.8364   20.9244 C   0  0  0  0  0  0  0  0  0  0  0  0
  -23.2430  -24.7859   22.0019 C   0  0  0  0  0  0  0  0  0  0  0  0
  -32.4026  -11.1941   17.5333 C   0  0  0  0  0  0  0  0  0  0  0  0
  -33.0892  -11.5458   16.3712 C   0  0  0  0  0  0  0  0  0  0  0  0
  -24.1709  -26.6245   20.7458 C   0  0  0  0  0  0  0  0  0  0  0  0
  -32.8613  -13.8819   16.9435 C   0  0  0  0  0  0  0  0  0  0  0  0
  -27.3869  -13.2446   20.0110 C   0  0  0  0  0  0  0  0  0  0  0  0
  -24.9171  -13.0058   20.6031 C   0  0  0  0  0  0  0  0  0  0  0  0
  -16.7634  -28.7730   24.1383 C   0  0  0  0  0  0  0  0  0  0  0  0
  -23.0527  -27.0531   22.8496 C   0  0  0  0  0  0  0  0  0  0  0  0
  -17.7831  -28.4107   23.2376 C   0  0  0  0  0  0  0  0  0  0  0  0
  -23.7472  -27.5314   21.7293 C   0  0  0  0  0  0  0  0  0  0  0  0
  -29.9930  -12.2977   19.7037 C   0  0  0  0  0  0  0  0  0  0  0  0
  -23.9184  -25.2596   20.8810 C   0  0  0  0  0  0  0  0  0  0  0  0
  -31.9453  -12.1864   18.4005 C   0  0  0  0  0  0  0  0  0  0  0  0
  -33.3186  -12.8897   16.0763 C   0  0  0  0  0  0  0  0  0  0  0  0
  -32.1746  -13.5303   18.1056 C   0  0  0  0  0  0  0  0  0  0  0  0
  -26.0412  -13.7343   20.1702 C   0  0  0  0  0  0  0  0  0  0  0  0
  -23.8892  -13.9166   20.5833 C   0  0  0  0  0  0  0  0  0  0  0  0
  -24.8115  -11.6289   20.9887 C   0  0  0  0  0  0  0  0  0  0  0  0
  -21.2133  -29.6348   22.6142 C   0  0  0  0  0  0  0  0  0  0  0  0
  -24.0521  -31.1949   22.7846 C   0  0  0  0  0  0  0  0  0  0  0  0
  -29.0649  -20.9705   18.4945 C   0  0  0  0  0  0  0  0  0  0  0  0
  -27.4328  -31.1175   22.3244 C   0  0  0  0  0  0  0  0  0  0  0  0
  -25.6318  -23.8821   20.1267 C   0  0  0  0  0  0  0  0  0  1  0  0
  -23.7237  -19.8876   20.9962 C   0  0  0  0  0  0  0  0  0  0  0  0
  -16.5101  -30.2118   24.5128 C   0  0  0  0  0  0  0  0  0  0  0  0
  -22.6082  -27.9991   23.9312 C   0  0  0  0  0  0  0  0  0  0  0  0
  -24.0452  -28.9964   21.5469 C   0  0  0  0  0  0  0  0  0  0  0  0
  -17.6822  -31.1382   24.1993 C   0  0  0  0  0  0  0  0  0  0  0  0
  -22.4491  -17.8892   18.3394 C   0  0  0  0  0  0  0  0  0  0  0  0
  -18.2107  -30.8735   22.7931 C   0  0  0  0  0  0  0  0  0  0  0  0
  -23.1238  -16.5321   18.5464 C   0  0  0  0  0  0  0  0  0  0  0  0
  -23.3842  -19.0439   18.6920 C   0  0  0  0  0  0  0  0  0  0  0  0
  -24.6526  -17.6133   20.2471 C   0  0  0  0  0  0  0  0  0  0  0  0
  -18.7334  -29.4379   22.6614 C   0  0  1  0  0  0  0  0  0  0  0  0
  -22.4515  -29.4354   23.4416 C   0  0  1  0  0  0  0  0  0  0  0  0
  -23.7301  -16.4168   19.9579 C   0  0  2  0  0  0  0  0  0  0  0  0
  -29.4800  -32.5565   22.5130 C   0  0  0  0  0  0  0  0  0  0  0  0
  -23.2683  -32.6426   20.2156 C   0  0  0  0  0  0  0  0  0  0  0  0
  -25.6647  -33.3155   19.9461 C   0  0  0  0  0  0  0  0  0  0  0  0
  -24.3699  -34.0885   21.9332 C   0  0  0  0  0  0  0  0  0  0  0  0
  -28.6549  -29.3174   24.3306 C   0  0  0  0  0  0  0  0  0  0  0  0
  -27.6786  -21.5121   18.2176 C   0  0  0  0  0  0  0  0  0  0  0  0
  -25.9851  -22.9375   19.0068 C   0  0  0  0  0  0  0  0  0  0  0  0
  -30.4605  -18.9485   18.0952 C   0  0  0  0  0  0  0  0  0  0  0  0
  -24.1336  -20.5896   23.3410 C   0  0  0  0  0  0  0  0  0  0  0  0
  -30.4292  -18.1213   19.3674 C   0  0  0  0  0  0  0  0  0  0  0  0
  -25.2863  -21.5773   23.3698 C   0  0  0  0  0  0  0  0  0  0  0  0
  -30.2898  -18.2566   21.7094 C   0  0  0  0  0  0  0  0  0  0  0  0
  -27.6204  -21.7578   23.5754 C   0  0  0  0  0  0  0  0  0  0  0  0
  -30.2002  -19.2313   22.8678 C   0  0  0  0  0  0  0  0  0  0  0  0
  -28.8880  -20.9519   23.7844 C   0  0  0  0  0  0  0  0  0  0  0  0
  -25.0754  -31.6655   21.7795 C   0  0  1  0  0  0  0  0  0  0  0  0
  -28.5811  -31.5520   23.2172 C   0  0  2  0  0  0  0  0  0  0  0  0
  -24.5875  -32.9006   20.9708 C   0  0  0  0  0  0  0  0  0  0  0  0
  -25.7546  -15.0096   19.8953 N   0  0  0  0  0  0  0  0  0  0  0  0
  -24.4387  -15.0895   20.1560 N   0  0  0  0  0  0  0  0  0  0  0  0
  -23.5847  -29.8823   22.6289 N   0  0  0  0  0  0  0  0  0  0  0  0
  -23.9238  -18.8751   20.0434 N   0  0  0  0  0  0  0  0  0  0  0  0
  -22.5780  -13.8205   20.8898 N   0  0  0  0  0  0  0  0  0  0  0  0
  -25.9653  -10.8341   20.9511 N   0  0  0  0  0  0  0  0  0  0  0  0
  -20.0400  -29.3178   23.2718 N   0  0  0  0  0  0  0  0  0  0  0  0
  -29.2305  -19.6968   17.9733 N   0  0  0  0  0  0  0  0  0  0  0  0
  -26.3084  -31.8896   22.5265 N   0  0  0  0  0  0  0  0  0  0  0  0
  -24.2622  -19.6450   22.2539 N   0  0  0  0  0  0  0  0  0  0  0  0
  -29.4074  -30.3750   23.6079 N   0  3  0  0  0  0  0  0  0  0  0  0
  -23.7228  -11.1144   21.3401 O   0  0  0  0  0  0  0  0  0  0  0  0
  -21.3146  -30.0471   21.4646 O   0  0  0  0  0  0  0  0  0  0  0  0
  -23.6865  -31.9613   23.6794 O   0  0  0  0  0  0  0  0  0  0  0  0
  -29.9163  -21.6077   19.1085 O   0  0  0  0  0  0  0  0  0  0  0  0
  -27.5253  -30.1887   21.5249 O   0  0  0  0  0  0  0  0  0  0  0  0
  -26.3611  -24.1614   21.0689 O   0  0  0  0  0  0  0  0  0  0  0  0
  -23.1060  -20.9282   20.7462 O   0  0  0  0  0  0  0  0  0  0  0  0
  -31.2645  -11.8356   19.5542 O   0  0  0  0  0  0  0  0  0  0  0  0
  -24.3366  -24.3914   19.9202 O   0  0  0  0  0  0  0  0  0  1  0  0
  -27.2782  -22.4166   19.2419 O   0  0  0  0  0  0  0  0  0  0  0  0
  -30.3229  -18.9865   20.4907 O   0  0  0  0  0  0  0  0  0  0  0  0
  -26.5077  -20.8723   23.5421 O   0  0  0  0  0  0  0  0  0  0  0  0
  -29.0237  -20.0176   22.7228 O   0  0  0  0  0  0  0  0  0  0  0  0
  -33.9793  -13.2272   14.9610 F   0  0  0  0  0  0  0  0  0  0  0  0
  -31.7387  -14.4879   18.9354 F   0  0  0  0  0  0  0  0  0  0  0  0
  1  2  1  0  0  0  0
  1  5  2  0  0  0  0
  2  6  2  0  0  0  0
  3  8  2  0  0  0  0
  3 15  1  0  0  0  0
  4  9  1  0  0  0  0
  4 15  2  0  0  0  0
  5 17  1  0  0  0  0
  6 19  1  0  0  0  0
  7 10  2  0  0  0  0
  7 18  1  0  0  0  0
  8 21  1  0  0  0  0
  9 21  2  0  0  0  0
 10 22  1  0  0  0  0
 11 12  2  0  0  0  0
 11 23  1  0  0  0  0
 12 24  1  0  0  0  0
 13 20  1  0  0  0  0
 13 22  2  0  0  0  0
 14 24  2  0  0  0  0
 14 25  1  0  0  0  0
 15 26  1  0  0  0  0
 16 26  1  0  0  0  0
 16 27  2  0  0  0  0
 16 28  1  0  0  0  0
 17 19  2  0  0  0  0
 17 35  1  0  0  0  0
 18 20  2  0  0  0  0
 18 36  1  0  0  0  0
 19 44  1  0  0  0  0
 20 37  1  0  0  0  0
 21 83  1  0  0  0  0
 22 84  1  0  0  0  0
 23 25  2  0  0  0  0
 23 83  1  0  0  0  0
 24 89  1  0  0  0  0
 25 90  1  0  0  0  0
 26 65  2  0  0  0  0
 27 66  1  0  0  0  0
 27 69  1  0  0  0  0
 28 70  1  0  0  0  0
 28 76  2  0  0  0  0
 29 45  1  0  0  0  0
 29 71  1  0  0  0  0
 29 77  2  0  0  0  0
 30 62  1  0  0  0  0
 30 67  1  0  0  0  0
 30 78  2  0  0  0  0
 31 52  1  0  0  0  0
 31 72  1  0  0  0  0
 31 79  2  0  0  0  0
 32 63  1  0  0  0  0
 32 73  1  0  0  0  0
 32 80  2  0  0  0  0
 33 53  1  0  0  0  0
 33 81  2  0  0  0  0
 33 84  1  0  0  0  0
 34 68  1  0  0  0  0
 34 74  1  0  0  0  0
 34 82  2  0  0  0  0
 35 38  1  0  0  0  0
 36 45  1  0  0  0  0
 37 67  1  0  0  0  0
 38 40  1  0  0  0  0
 39 41  1  0  0  0  0
 39 42  1  0  0  0  0
 40 44  1  0  0  0  0
 41 46  1  0  0  0  0
 42 68  1  0  0  0  0
 43 46  1  0  0  0  0
 43 68  1  0  0  0  0
 44 71  1  0  0  0  0
 45 67  1  0  0  0  0
 46 66  1  0  0  0  0
 47 63  1  0  0  0  0
 48 64  1  0  0  0  0
 49 64  1  0  0  0  0
 50 64  1  0  0  0  0
 51 75  1  0  0  0  0
 52 85  1  0  0  0  0
 53 85  1  0  0  0  0
 54 56  1  0  0  0  0
 54 72  1  0  0  0  0
 55 57  1  0  0  0  0
 55 74  1  0  0  0  0
 56 86  1  0  0  0  0
 57 87  1  0  0  0  0
 58 60  1  0  0  0  0
 58 86  1  0  0  0  0
 59 61  1  0  0  0  0
 59 87  1  0  0  0  0
 60 88  1  0  0  0  0
 61 88  1  0  0  0  0
 62 64  1  0  0  0  0
 62 73  1  0  0  0  0
 63 75  1  0  0  0  0
 65 66  1  0  0  0  0
M  CHG  1  75   1
M  ISO  4  33 101  34 100  74 100  84 101
M  END
> <Batch ID>
0000

> <Smiles>
CNC(C)C(=O)NC(C(=O)N1Cc2cc([101O:1][101C:1](=O)COCC(=O)NCCOCCOCCOCC[100NH:0][100C:0](=O)N3CCCC(n4nc(-c5ccc(Oc6ccc(F)cc6F)cc5)c(C(N)=O)c4N)C3)ccc2CC1C(=O)NC1CCCc2ccccc21)C(C)(C)C

> <Shape>
0.254

> <Color>
0.079

> <Negative vol penalty>
0.000

$$$$

  -OEChem-04042320113D

 79 86  0     1  0  0  0  0  0999 V2000
  -24.1488  -21.5364   17.0982 C   0  0  0  0  0  0  0  0  0  0  0  0
  -25.2246  -20.6811   16.8822 C   0  0  0  0  0  0  0  0  0  0  0  0
  -27.9659  -23.3978   17.2597 C   0  0  0  0  0  0  0  0  0  0  0  0
  -29.4539  -24.6259   18.7138 C   0  0  0  0  0  0  0  0  0  0  0  0
  -23.4472  -21.4819   18.3019 C   0  0  0  0  0  0  0  0  0  0  0  0
  -25.6000  -19.7715   17.8701 C   0  0  0  0  0  0  0  0  0  0  0  0
  -28.3657  -13.2105   18.6580 C   0  0  0  0  0  0  0  0  0  0  0  0
  -27.1215  -24.5056   17.1879 C   0  0  0  0  0  0  0  0  0  0  0  0
  -28.6095  -25.7339   18.6420 C   0  0  0  0  0  0  0  0  0  0  0  0
  -29.3989  -12.5497   19.3211 C   0  0  0  0  0  0  0  0  0  0  0  0
  -25.6958  -26.7397   20.0310 C   0  0  0  0  0  0  0  0  0  0  0  0
  -25.3996  -27.4069   21.2196 C   0  0  0  0  0  0  0  0  0  0  0  0
  -28.0640  -12.4905   21.3295 C   0  0  0  0  0  0  0  0  0  0  0  0
  -26.3659  -29.4320   20.3237 C   0  0  0  0  0  0  0  0  0  0  0  0
  -29.1321  -23.4578   18.0227 C   0  0  0  0  0  0  0  0  0  0  0  0
  -31.0851  -22.0112   17.2476 C   0  0  0  0  0  0  0  0  0  0  0  0
  -23.8082  -20.5645   19.3012 C   0  0  0  0  0  0  0  0  0  0  0  0
  -27.1762  -13.5265   19.3300 C   0  0  0  0  0  0  0  0  0  0  0  0
  -24.9034  -19.7056   19.0888 C   0  0  0  0  0  0  0  0  0  0  0  0
  -27.0163  -13.1531   20.6720 C   0  0  0  0  0  0  0  0  0  0  0  0
  -27.4433  -25.6737   17.8791 C   0  0  0  0  0  0  0  0  0  0  0  0
  -29.2493  -12.1921   20.6578 C   0  0  0  0  0  0  0  0  0  0  0  0
  -26.3271  -27.4186   18.9888 C   0  0  0  0  0  0  0  0  0  0  0  0
  -25.7346  -28.7530   21.3659 C   0  0  0  0  0  0  0  0  0  0  0  0
  -26.6621  -28.7648   19.1351 C   0  0  0  0  0  0  0  0  0  0  0  0
  -30.0044  -22.3135   18.0977 C   0  0  0  0  0  0  0  0  0  0  0  0
  -31.5855  -20.8289   17.7355 C   0  0  0  0  0  0  0  0  0  0  0  0
  -31.5913  -22.7346   16.1179 C   0  0  0  0  0  0  0  0  0  0  0  0
  -25.6635  -16.2239   20.0648 C   0  0  0  0  0  0  0  0  0  0  0  0
  -23.3609  -14.1909   21.1077 C   0  0  0  0  0  0  0  0  0  0  0  0
  -22.5428  -11.0812   22.2511 C   0  0  0  0  0  0  0  0  0  0  0  0
  -31.4488  -18.4269   23.1270 C   0  0  0  0  0  0  0  0  0  0  0  0
  -23.0495  -20.5751   20.6047 C   0  0  0  0  0  0  0  0  0  0  0  0
  -26.0608  -14.2159   18.5930 C   0  0  0  0  0  0  0  0  0  0  0  0
  -25.7510  -13.4512   21.4328 C   0  0  0  0  0  0  0  0  0  0  0  0
  -23.2764  -19.3255   21.4516 C   0  0  0  0  0  0  0  0  0  0  0  0
  -30.2441  -16.8806   20.0848 C   0  0  0  0  0  0  0  0  0  0  0  0
  -24.7628  -18.9900   21.5206 C   0  0  0  0  0  0  0  0  0  0  0  0
  -30.1510  -18.0857   19.1472 C   0  0  0  0  0  0  0  0  0  0  0  0
  -29.8381  -17.2542   21.5074 C   0  0  0  0  0  0  0  0  0  0  0  0
  -30.5135  -19.5977   21.1529 C   0  0  0  0  0  0  0  0  0  0  0  0
  -25.3256  -18.6882   20.1264 C   0  0  1  0  0  0  0  0  0  0  0  0
  -25.0931  -14.9450   19.5201 C   0  0  1  0  0  0  0  0  0  0  0  0
  -30.9328  -19.2904   19.7038 C   0  0  2  0  0  0  0  0  0  0  0  0
  -20.5878   -9.7300   23.0570 C   0  0  0  0  0  0  0  0  0  0  0  0
  -23.4523  -15.6580   23.7815 C   0  0  0  0  0  0  0  0  0  0  0  0
  -22.2294  -13.7271   24.8035 C   0  0  0  0  0  0  0  0  0  0  0  0
  -21.1535  -15.0660   22.9944 C   0  0  0  0  0  0  0  0  0  0  0  0
  -22.8469   -9.1181   20.0574 C   0  0  0  0  0  0  0  0  0  0  0  0
  -32.3027  -17.1272   25.0605 C   0  0  0  0  0  0  0  0  0  0  0  0
  -32.1882  -15.7446   25.6773 C   0  0  0  0  0  0  0  0  0  0  0  0
  -31.5886  -11.8245   20.8775 C   0  0  0  0  0  0  0  0  0  1  0  0
  -32.5314  -11.6696   22.0552 C   0  0  0  0  0  0  0  0  0  0  0  0
  -32.5348  -13.4559   25.2720 C   0  0  0  0  0  0  0  0  0  0  0  0
  -32.9891  -12.4631   24.2193 C   0  0  0  0  0  0  0  0  0  0  0  0
  -23.0548  -13.5030   22.4161 C   0  0  1  0  0  0  0  0  0  0  0  0
  -21.4344  -10.1222   21.8561 C   0  0  2  0  0  0  0  0  0  0  0  0
  -22.4972  -14.4845   23.4854 C   0  0  0  0  0  0  0  0  0  0  0  0
  -29.8279  -21.3970   19.0531 N   0  0  0  0  0  0  0  0  0  0  0  0
  -30.8043  -20.5072   18.8063 N   0  0  0  0  0  0  0  0  0  0  0  0
  -24.6917  -14.1324   20.6703 N   0  0  0  0  0  0  0  0  0  0  0  0
  -30.6323  -18.3952   21.9843 N   0  0  0  0  0  0  0  0  0  0  0  0
  -32.6130  -20.0433   17.3488 N   0  0  0  0  0  0  0  0  0  0  0  0
  -30.9593  -23.9311   15.7528 N   0  0  0  0  0  0  0  0  0  0  0  0
  -24.9522  -17.3538   19.7087 N   0  0  0  0  0  0  0  0  0  0  0  0
  -22.1594  -12.3966   22.0959 N   0  0  0  0  0  0  0  0  0  0  0  0
  -31.5012  -17.2497   23.8632 N   0  0  0  0  0  0  0  0  0  0  0  0
  -22.0095   -8.8825   21.2616 N   0  3  0  0  0  0  0  0  0  0  0  0
  -32.5648  -22.3234   15.4420 O   0  0  0  0  0  0  0  0  0  0  0  0
  -26.6733  -16.1880   20.7581 O   0  0  0  0  0  0  0  0  0  0  0  0
  -22.4513  -14.7531   20.4927 O   0  0  0  0  0  0  0  0  0  0  0  0
  -23.6378  -10.7016   22.6602 O   0  0  0  0  0  0  0  0  0  0  0  0
  -32.0886  -19.4291   23.4636 O   0  0  0  0  0  0  0  0  0  0  0  0
  -26.6198  -26.7551   17.8091 O   0  0  0  0  0  0  0  0  0  0  0  0
  -30.2564  -11.5476   21.3076 O   0  0  0  0  0  0  0  0  0  1  0  0
  -32.6238  -14.7714   24.7383 O   0  0  0  0  0  0  0  0  0  0  0  0
  -32.1372  -12.5659   23.0870 O   0  0  0  0  0  0  0  0  0  0  0  0
  -25.4487  -29.3940   22.5068 F   0  0  0  0  0  0  0  0  0  0  0  0
  -27.2676  -29.4226   18.1369 F   0  0  0  0  0  0  0  0  0  0  0  0
  1  2  1  0  0  0  0
  1  5  2  0  0  0  0
  2  6  2  0  0  0  0
  3  8  2  0  0  0  0
  3 15  1  0  0  0  0
  4  9  1  0  0  0  0
  4 15  2  0  0  0  0
  5 17  1  0  0  0  0
  6 19  1  0  0  0  0
  7 10  2  0  0  0  0
  7 18  1  0  0  0  0
  8 21  1  0  0  0  0
  9 21  2  0  0  0  0
 10 22  1  0  0  0  0
 11 12  2  0  0  0  0
 11 23  1  0  0  0  0
 12 24  1  0  0  0  0
 13 20  1  0  0  0  0
 13 22  2  0  0  0  0
 14 24  2  0  0  0  0
 14 25  1  0  0  0  0
 15 26  1  0  0  0  0
 16 26  1  0  0  0  0
 16 27  2  0  0  0  0
 16 28  1  0  0  0  0
 17 19  2  0  0  0  0
 17 33  1  0  0  0  0
 18 20  2  0  0  0  0
 18 34  1  0  0  0  0
 19 42  1  0  0  0  0
 20 35  1  0  0  0  0
 21 74  1  0  0  0  0
 22 75  1  0  0  0  0
 23 25  2  0  0  0  0
 23 74  1  0  0  0  0
 24 78  1  0  0  0  0
 25 79  1  0  0  0  0
 26 59  2  0  0  0  0
 27 60  1  0  0  0  0
 27 63  1  0  0  0  0
 28 64  1  0  0  0  0
 28 69  2  0  0  0  0
 29 43  1  0  0  0  0
 29 65  1  0  0  0  0
 29 70  2  0  0  0  0
 30 56  1  0  0  0  0
 30 61  1  0  0  0  0
 30 71  2  0  0  0  0
 31 57  1  0  0  0  0
 31 66  1  0  0  0  0
 31 72  2  0  0  0  0
 32 62  1  0  0  0  0
 32 67  1  0  0  0  0
 32 73  2  0  0  0  0
 33 36  1  0  0  0  0
 34 43  1  0  0  0  0
 35 61  1  0  0  0  0
 36 38  1  0  0  0  0
 37 39  1  0  0  0  0
 37 40  1  0  0  0  0
 38 42  1  0  0  0  0
 39 44  1  0  0  0  0
 40 62  1  0  0  0  0
 41 44  1  0  0  0  0
 41 62  1  0  0  0  0
 42 65  1  0  0  0  0
 43 61  1  0  0  0  0
 44 60  1  0  0  0  0
 45 57  1  0  0  0  0
 46 58  1  0  0  0  0
 47 58  1  0  0  0  0
 48 58  1  0  0  0  0
 49 68  1  0  0  0  0
 50 51  1  0  0  0  0
 50 67  1  0  0  0  0
 51 76  1  0  0  0  0
 52 53  1  0  0  0  0
 52 75  1  0  0  0  0
 53 77  1  0  0  0  0
 54 55  1  0  0  0  0
 54 76  1  0  0  0  0
 55 77  1  0  0  0  0
 56 58  1  0  0  0  0
 56 66  1  0  0  0  0
 57 68  1  0  0  0  0
 59 60  1  0  0  0  0
M  CHG  1  68   1
M  ISO  4  32 100  52 101  67 100  75 101
M  END
> <Batch ID>
0000

> <Smiles>
CNC(C)C(=O)NC(C(=O)N1Cc2cc([101O:1][101CH2:1]COCCOCC[100NH:0][100C:0](=O)N3CCCC(n4nc(-c5ccc(Oc6ccc(F)cc6F)cc5)c(C(N)=O)c4N)C3)ccc2CC1C(=O)NC1CCCc2ccccc21)C(C)(C)C

> <Shape>
0.193

> <Color>
0.068

> <Negative vol penalty>
0.000

$$$$

  -OEChem-04042320113D

 82 90  0     1  0  0  0  0  0999 V2000
  -28.4353  -32.7061   28.2182 C   0  0  0  0  0  0  0  0  0  0  0  0
  -28.3458  -31.6820   27.2809 C   0  0  0  0  0  0  0  0  0  0  0  0
  -24.6068   -8.6828   21.4336 C   0  0  0  0  0  0  0  0  0  0  0  0
  -23.1647  -10.6099   21.2236 C   0  0  0  0  0  0  0  0  0  0  0  0
  -27.3849  -33.6115   28.3622 C   0  0  0  0  0  0  0  0  0  0  0  0
  -27.2053  -31.5621   26.4876 C   0  0  0  0  0  0  0  0  0  0  0  0
  -28.3058  -30.6897   21.6222 C   0  0  0  0  0  0  0  0  0  0  0  0
  -26.1556  -18.0367   19.7879 C   0  0  0  0  0  0  0  0  0  0  0  0
  -28.3999  -18.4803   20.5646 C   0  0  0  0  0  0  0  0  0  0  0  0
  -23.7770   -8.1705   22.4309 C   0  0  0  0  0  0  0  0  0  0  0  0
  -22.3349  -10.0975   22.2208 C   0  0  0  0  0  0  0  0  0  0  0  0
  -28.6745  -29.3905   21.2758 C   0  0  0  0  0  0  0  0  0  0  0  0
  -25.7701  -19.3223   20.1677 C   0  0  0  0  0  0  0  0  0  0  0  0
  -28.0144  -19.7659   20.9444 C   0  0  0  0  0  0  0  0  0  0  0  0
  -20.8206   -6.5402   22.6173 C   0  0  0  0  0  0  0  0  0  0  0  0
  -20.4844   -5.1882   22.5496 C   0  0  0  0  0  0  0  0  0  0  0  0
  -26.4414  -28.9805   20.4607 C   0  0  0  0  0  0  0  0  0  0  0  0
  -21.5037   -4.8265   24.7100 C   0  0  0  0  0  0  0  0  0  0  0  0
  -24.3007   -9.9026   20.8300 C   0  0  0  0  0  0  0  0  0  0  0  0
  -25.0599  -10.2084   18.4139 C   0  0  0  0  0  0  0  0  0  0  0  0
  -26.2350  -33.5084   27.5636 C   0  0  0  0  0  0  0  0  0  0  0  0
  -26.9969  -31.1413   21.4000 C   0  0  0  0  0  0  0  0  0  0  0  0
  -26.1379  -32.4662   26.6220 C   0  0  0  0  0  0  0  0  0  0  0  0
  -26.0593  -30.2867   20.8028 C   0  0  0  0  0  0  0  0  0  0  0  0
  -27.4705  -17.6157   19.9865 C   0  0  0  0  0  0  0  0  0  0  0  0
  -22.6410   -8.8778   22.8245 C   0  0  0  0  0  0  0  0  0  0  0  0
  -26.6994  -20.1869   20.7459 C   0  0  0  0  0  0  0  0  0  0  0  0
  -27.7415  -28.5347   20.6976 C   0  0  0  0  0  0  0  0  0  0  0  0
  -21.4985   -7.0354   23.7313 C   0  0  0  0  0  0  0  0  0  0  0  0
  -20.8259   -4.3313   23.5960 C   0  0  0  0  0  0  0  0  0  0  0  0
  -21.8400   -6.1786   24.7777 C   0  0  0  0  0  0  0  0  0  0  0  0
  -25.1578  -10.4326   19.8002 C   0  0  0  0  0  0  0  0  0  0  0  0
  -26.0985  -10.9280   17.8755 C   0  0  0  0  0  0  0  0  0  0  0  0
  -24.1145   -9.4203   17.6785 C   0  0  0  0  0  0  0  0  0  0  0  0
  -24.6350  -32.1752   23.2590 C   0  0  0  0  0  0  0  0  0  0  0  0
  -23.1907  -32.7871   20.4197 C   0  0  0  0  0  0  0  0  0  0  0  0
  -22.9348  -32.0878   17.0892 C   0  0  0  0  0  0  0  0  0  0  0  0
  -29.1265  -15.7349   19.7276 C   0  0  0  0  0  0  0  0  0  0  0  0
  -25.1055  -34.4823   27.7882 C   0  0  0  0  0  0  0  0  0  0  0  0
  -26.6224  -32.5541   21.7548 C   0  0  0  0  0  0  0  0  0  0  0  0
  -24.6469  -30.7295   20.5247 C   0  0  0  0  0  0  0  0  0  0  0  0
  -24.0901  -34.5107   26.6487 C   0  0  0  0  0  0  0  0  0  0  0  0
  -30.4822  -12.5399   18.9334 C   0  0  0  0  0  0  0  0  0  0  0  0
  -23.7074  -33.0920   26.2391 C   0  0  0  0  0  0  0  0  0  0  0  0
  -29.2609  -11.6176   18.9334 C   0  0  0  0  0  0  0  0  0  0  0  0
  -30.3839  -13.6113   20.0179 C   0  0  0  0  0  0  0  0  0  0  0  0
  -27.9240  -13.4777   20.0009 C   0  0  0  0  0  0  0  0  0  0  0  0
  -24.9276  -32.3180   25.7258 C   0  0  1  0  0  0  0  0  0  0  0  0
  -25.1217  -32.7420   21.9554 C   0  0  1  0  0  0  0  0  0  0  0  0
  -27.9472  -12.4222   18.8833 C   0  0  2  0  0  0  0  0  0  0  0  0
  -21.6379  -32.7230   15.0369 C   0  0  0  0  0  0  0  0  0  0  0  0
  -20.8142  -31.1552   21.4192 C   0  0  0  0  0  0  0  0  0  0  0  0
  -19.9998  -31.0231   19.0554 C   0  0  0  0  0  0  0  0  0  0  0  0
  -20.2013  -33.2399   20.1813 C   0  0  0  0  0  0  0  0  0  0  0  0
  -25.3721  -33.0292   15.6991 C   0  0  0  0  0  0  0  0  0  0  0  0
  -26.6764  -23.8123   20.7993 C   0  0  0  0  0  0  0  0  0  0  0  0
  -27.7164  -24.9244   20.7195 C   0  0  0  0  0  0  0  0  0  0  0  0
  -27.3204  -22.4594   21.0714 C   0  0  0  0  0  0  0  0  0  0  0  0
  -27.0778  -26.2698   20.4050 C   0  0  0  0  0  0  0  0  0  1  0  0
  -22.2967  -32.0084   19.4852 C   0  0  1  0  0  0  0  0  0  0  0  0
  -22.8805  -32.9923   15.8712 C   0  0  2  0  0  0  0  0  0  0  0  0
  -20.8540  -31.8474   20.0422 C   0  0  0  0  0  0  0  0  0  0  0  0
  -26.1782  -11.2319   20.1225 N   0  0  0  0  0  0  0  0  0  0  0  0
  -26.7310  -11.5163   18.9310 N   0  0  0  0  0  0  0  0  0  0  0  0
  -24.3273  -32.1181   20.8953 N   0  0  0  0  0  0  0  0  0  0  0  0
  -29.1157  -14.3353   19.9056 N   0  0  0  0  0  0  0  0  0  0  0  0
  -26.5234  -11.1086   16.6069 N   0  0  0  0  0  0  0  0  0  0  0  0
  -23.1114   -8.7460   18.3881 N   0  0  0  0  0  0  0  0  0  0  0  0
  -27.8623  -16.3097   19.6008 N   0  0  0  0  0  0  0  0  0  0  0  0
  -25.2473  -32.7184   24.3723 N   0  0  0  0  0  0  0  0  0  0  0  0
  -22.3669  -32.6850   18.1946 N   0  0  0  0  0  0  0  0  0  0  0  0
  -24.0791  -32.7769   15.0123 N   0  3  0  0  0  0  0  0  0  0  0  0
  -24.1679   -9.3037   16.4307 O   0  0  0  0  0  0  0  0  0  0  0  0
  -23.7670  -31.3102   23.2552 O   0  0  0  0  0  0  0  0  0  0  0  0
  -22.8953  -33.9488   20.7110 O   0  0  0  0  0  0  0  0  0  0  0  0
  -23.4280  -30.9624   17.0617 O   0  0  0  0  0  0  0  0  0  0  0  0
  -30.1805  -16.3728   19.6632 O   0  0  0  0  0  0  0  0  0  0  0  0
  -21.8309   -8.3781   23.7974 O   0  0  0  0  0  0  0  0  0  0  0  0
  -26.3207  -21.4501   21.1190 O   0  0  0  0  0  0  0  0  0  0  0  0
  -28.0986  -27.2660   20.3592 O   0  0  0  0  0  0  0  0  0  1  0  0
  -20.5016   -3.0333   23.5315 F   0  0  0  0  0  0  0  0  0  0  0  0
  -22.4902   -6.6487   25.8510 F   0  0  0  0  0  0  0  0  0  0  0  0
  1  2  1  0  0  0  0
  1  5  2  0  0  0  0
  2  6  2  0  0  0  0
  3 10  2  0  0  0  0
  3 19  1  0  0  0  0
  4 11  1  0  0  0  0
  4 19  2  0  0  0  0
  5 21  1  0  0  0  0
  6 23  1  0  0  0  0
  7 12  2  0  0  0  0
  7 22  1  0  0  0  0
  8 13  2  0  0  0  0
  8 25  1  0  0  0  0
  9 14  1  0  0  0  0
  9 25  2  0  0  0  0
 10 26  1  0  0  0  0
 11 26  2  0  0  0  0
 12 28  1  0  0  0  0
 13 27  1  0  0  0  0
 14 27  2  0  0  0  0
 15 16  2  0  0  0  0
 15 29  1  0  0  0  0
 16 30  1  0  0  0  0
 17 24  1  0  0  0  0
 17 28  2  0  0  0  0
 18 30  2  0  0  0  0
 18 31  1  0  0  0  0
 19 32  1  0  0  0  0
 20 32  1  0  0  0  0
 20 33  2  0  0  0  0
 20 34  1  0  0  0  0
 21 23  2  0  0  0  0
 21 39  1  0  0  0  0
 22 24  2  0  0  0  0
 22 40  1  0  0  0  0
 23 48  1  0  0  0  0
 24 41  1  0  0  0  0
 25 69  1  0  0  0  0
 26 78  1  0  0  0  0
 27 79  1  0  0  0  0
 28 80  1  0  0  0  0
 29 31  2  0  0  0  0
 29 78  1  0  0  0  0
 30 81  1  0  0  0  0
 31 82  1  0  0  0  0
 32 63  2  0  0  0  0
 33 64  1  0  0  0  0
 33 67  1  0  0  0  0
 34 68  1  0  0  0  0
 34 73  2  0  0  0  0
 35 49  1  0  0  0  0
 35 70  1  0  0  0  0
 35 74  2  0  0  0  0
 36 60  1  0  0  0  0
 36 65  1  0  0  0  0
 36 75  2  0  0  0  0
 37 61  1  0  0  0  0
 37 71  1  0  0  0  0
 37 76  2  0  0  0  0
 38 66  1  0  0  0  0
 38 69  1  0  0  0  0
 38 77  2  0  0  0  0
 39 42  1  0  0  0  0
 40 49  1  0  0  0  0
 41 65  1  0  0  0  0
 42 44  1  0  0  0  0
 43 45  1  0  0  0  0
 43 46  1  0  0  0  0
 44 48  1  0  0  0  0
 45 50  1  0  0  0  0
 46 66  1  0  0  0  0
 47 50  1  0  0  0  0
 47 66  1  0  0  0  0
 48 70  1  0  0  0  0
 49 65  1  0  0  0  0
 50 64  1  0  0  0  0
 51 61  1  0  0  0  0
 52 62  1  0  0  0  0
 53 62  1  0  0  0  0
 54 62  1  0  0  0  0
 55 72  1  0  0  0  0
 56 57  1  0  0  0  0
 56 58  1  0  0  0  0
 57 59  1  0  0  0  0
 58 79  1  0  0  0  0
 59 80  1  0  0  0  0
 60 62  1  0  0  0  0
 60 71  1  0  0  0  0
 61 72  1  0  0  0  0
 63 64  1  0  0  0  0
M  CHG  1  72   1
M  ISO  4  38 100  59 101  69 100  80 101
M  END
> <Batch ID>
0000

> <Smiles>
CNC(C)C(=O)NC(C(=O)N1Cc2cc([101O:1][101CH2:1]CCCOc3ccc([100NH:0][100C:0](=O)N4CCCC(n5nc(-c6ccc(Oc7ccc(F)cc7F)cc6)c(C(N)=O)c5N)C4)cc3)ccc2CC1C(=O)NC1CCCc2ccccc21)C(C)(C)C

> <Shape>
0.243

> <Color>
0.082

> <Negative vol penalty>
0.000

$$$$

  -OEChem-04042320113D

 94101  0     1  0  0  0  0  0999 V2000
  -23.3701  -21.2957   23.3063 C   0  0  0  0  0  0  0  0  0  0  0  0
  -23.9293  -22.1642   22.3744 C   0  0  0  0  0  0  0  0  0  0  0  0
  -22.9992   -9.8970   19.9811 C   0  0  0  0  0  0  0  0  0  0  0  0
  -23.7299   -9.9447   22.2834 C   0  0  0  0  0  0  0  0  0  0  0  0
  -23.9052  -21.2149   24.5912 C   0  0  0  0  0  0  0  0  0  0  0  0
  -25.0234  -22.9534   22.7274 C   0  0  0  0  0  0  0  0  0  0  0  0
  -29.6784  -24.6208   19.1140 C   0  0  0  0  0  0  0  0  0  0  0  0
  -22.2340   -8.7617   20.2474 C   0  0  0  0  0  0  0  0  0  0  0  0
  -22.9646   -8.8093   22.5498 C   0  0  0  0  0  0  0  0  0  0  0  0
  -29.9404  -25.7902   18.4014 C   0  0  0  0  0  0  0  0  0  0  0  0
  -23.2097   -5.4713   22.0719 C   0  0  0  0  0  0  0  0  0  0  0  0
  -23.7996   -4.4532   22.8209 C   0  0  0  0  0  0  0  0  0  0  0  0
  -31.3072  -26.5866   20.2226 C   0  0  0  0  0  0  0  0  0  0  0  0
  -22.0796   -4.6924   24.5007 C   0  0  0  0  0  0  0  0  0  0  0  0
  -23.7472  -10.4885   20.9991 C   0  0  0  0  0  0  0  0  0  0  0  0
  -24.1307  -13.0046   20.8262 C   0  0  0  0  0  0  0  0  0  0  0  0
  -25.0125  -21.9964   24.9571 C   0  0  0  0  0  0  0  0  0  0  0  0
  -30.2209  -24.4300   20.3929 C   0  0  0  0  0  0  0  0  0  0  0  0
  -25.5730  -22.8840   24.0188 C   0  0  0  0  0  0  0  0  0  0  0  0
  -31.0526  -25.4129   20.9483 C   0  0  0  0  0  0  0  0  0  0  0  0
  -22.2166   -8.2178   21.5318 C   0  0  0  0  0  0  0  0  0  0  0  0
  -30.7526  -26.7745   18.9569 C   0  0  0  0  0  0  0  0  0  0  0  0
  -22.0547   -6.1000   22.5372 C   0  0  0  0  0  0  0  0  0  0  0  0
  -23.2346   -4.0638   24.0353 C   0  0  0  0  0  0  0  0  0  0  0  0
  -21.4897   -5.7106   23.7516 C   0  0  0  0  0  0  0  0  0  0  0  0
  -24.5384  -11.6610   20.7244 C   0  0  0  0  0  0  0  0  0  0  0  0
  -25.2391  -13.7284   20.4604 C   0  0  0  0  0  0  0  0  0  0  0  0
  -22.8633  -13.5497   21.2167 C   0  0  0  0  0  0  0  0  0  0  0  0
  -29.0121  -24.0317   23.3056 C   0  0  0  0  0  0  0  0  0  0  0  0
  -32.1160  -23.5266   24.1010 C   0  0  0  0  0  0  0  0  0  0  0  0
  -35.4122  -24.0259   23.3708 C   0  0  0  0  0  0  0  0  0  0  0  0
  -30.7356  -14.6658   20.6972 C   0  0  0  0  0  0  0  0  0  0  0  0
  -25.5266  -21.9094   26.3723 C   0  0  0  0  0  0  0  0  0  0  0  0
  -29.9503  -23.1514   21.1375 C   0  0  0  0  0  0  0  0  0  0  0  0
  -31.6758  -25.2477   22.3095 C   0  0  0  0  0  0  0  0  0  0  0  0
  -26.9206  -22.5050   26.5517 C   0  0  0  0  0  0  0  0  0  0  0  0
  -29.5906  -12.2453   18.3505 C   0  0  0  0  0  0  0  0  0  0  0  0
  -27.0125  -23.8645   25.8661 C   0  0  0  0  0  0  0  0  0  0  0  0
  -28.1433  -11.9840   18.7711 C   0  0  0  0  0  0  0  0  0  0  0  0
  -30.4958  -12.4792   19.5579 C   0  0  0  0  0  0  0  0  0  0  0  0
  -28.5884  -13.2714   20.9026 C   0  0  0  0  0  0  0  0  0  0  0  0
  -26.7758  -23.7382   24.3563 C   0  0  1  0  0  0  0  0  0  0  0  0
  -30.1378  -23.2870   22.6455 C   0  0  1  0  0  0  0  0  0  0  0  0
  -27.6267  -13.0852   19.7166 C   0  0  2  0  0  0  0  0  0  0  0  0
  -37.7173  -23.5238   24.2261 C   0  0  0  0  0  0  0  0  0  0  0  0
  -31.7862  -25.6740   26.2435 C   0  0  0  0  0  0  0  0  0  0  0  0
  -34.2816  -25.8011   26.4014 C   0  0  0  0  0  0  0  0  0  0  0  0
  -33.1048  -23.6749   26.9644 C   0  0  0  0  0  0  0  0  0  0  0  0
  -36.1154  -22.5130   20.9264 C   0  0  0  0  0  0  0  0  0  0  0  0
  -29.0882  -18.3514   20.7937 C   0  0  0  0  0  0  0  0  0  0  0  0
  -30.5696  -17.9766   20.8968 C   0  0  0  0  0  0  0  0  0  0  0  0
  -28.8711  -19.4794   19.7867 C   0  0  0  0  0  0  0  0  0  0  0  0
  -25.7783  -22.3930   17.5540 C   0  0  0  0  0  0  0  0  0  0  0  0
  -24.3357  -22.8404   17.3460 C   0  0  0  0  0  0  0  0  0  0  0  0
  -25.7504  -27.3045   16.3763 C   0  0  0  0  0  0  0  0  0  0  0  0
  -30.8199  -16.8428   21.8857 C   0  0  0  0  0  0  0  0  0  0  0  0
  -27.3958  -19.8309   19.6467 C   0  0  0  0  0  0  0  0  0  0  0  0
  -25.8743  -21.2532   18.5582 C   0  0  0  0  0  0  0  0  0  0  0  0
  -24.2356  -23.9510   16.3102 C   0  0  0  0  0  0  0  0  0  0  0  0
  -24.9311  -26.1448   15.8343 C   0  0  0  0  0  0  0  0  0  0  0  0
  -25.7278  -28.5039   15.4418 C   0  0  0  0  0  0  0  0  0  0  0  0
  -31.8498  -28.8835   18.8931 C   0  0  0  0  0  0  0  0  0  1  0  0
  -32.0089  -30.0769   17.9711 C   0  0  0  0  0  0  0  0  0  0  0  0
  -26.4928  -30.7071   15.1528 C   0  0  0  0  0  0  0  0  0  0  0  0
  -27.2998  -31.8096   15.8109 C   0  0  0  0  0  0  0  0  0  0  0  0
  -30.8209  -31.7841   16.8771 C   0  0  0  0  0  0  0  0  0  0  0  0
  -29.4300  -32.3434   16.6477 C   0  0  0  0  0  0  0  0  0  0  0  0
  -33.2613  -24.4027   24.5482 C   0  0  1  0  0  0  0  0  0  0  0  0
  -36.5880  -23.0674   23.3155 C   0  0  2  0  0  0  0  0  0  0  0  0
  -33.0953  -24.8925   26.0145 C   0  0  0  0  0  0  0  0  0  0  0  0
  -25.8067  -11.5359   20.3250 N   0  0  0  0  0  0  0  0  0  0  0  0
  -26.2056  -12.8102   20.1725 N   0  0  0  0  0  0  0  0  0  0  0  0
  -31.3763  -23.9828   23.0008 N   0  0  0  0  0  0  0  0  0  0  0  0
  -29.9504  -13.5362   20.4131 N   0  0  0  0  0  0  0  0  0  0  0  0
  -25.4716  -15.0544   20.3599 N   0  0  0  0  0  0  0  0  0  0  0  0
  -21.8329  -12.6644   21.5613 N   0  0  0  0  0  0  0  0  0  0  0  0
  -27.9602  -23.2271   23.7001 N   0  0  0  0  0  0  0  0  0  0  0  0
  -34.4793  -23.6363   24.3084 N   0  0  0  0  0  0  0  0  0  0  0  0
  -30.1406  -15.6229   21.5100 N   0  0  0  0  0  0  0  0  0  0  0  0
  -37.1147  -22.9734   21.9246 N   0  3  0  0  0  0  0  0  0  0  0  0
  -22.6460  -14.7848   21.2430 O   0  0  0  0  0  0  0  0  0  0  0  0
  -29.0926  -25.2462   23.4480 O   0  0  0  0  0  0  0  0  0  0  0  0
  -31.8907  -22.4728   24.7013 O   0  0  0  0  0  0  0  0  0  0  0  0
  -35.3312  -25.0228   22.6565 O   0  0  0  0  0  0  0  0  0  0  0  0
  -31.8798  -14.8130   20.2546 O   0  0  0  0  0  0  0  0  0  0  0  0
  -21.4698   -7.1101   21.7921 O   0  0  0  0  0  0  0  0  0  0  0  0
  -31.0094  -27.9171   18.2638 O   0  0  0  0  0  0  0  0  0  1  0  0
  -27.2401  -20.8948   18.7172 O   0  0  0  0  0  0  0  0  0  0  0  0
  -24.9859  -25.0703   16.7624 O   0  0  0  0  0  0  0  0  0  0  0  0
  -26.4903  -29.5646   16.0003 O   0  0  0  0  0  0  0  0  0  0  0  0
  -30.7314  -30.6574   17.7379 O   0  0  0  0  0  0  0  0  0  0  0  0
  -28.6249  -31.3464   16.0302 O   0  0  0  0  0  0  0  0  0  0  0  0
  -23.8003   -3.0850   24.7537 F   0  0  0  0  0  0  0  0  0  0  0  0
  -20.3796   -6.3101   24.2033 F   0  0  0  0  0  0  0  0  0  0  0  0
  1  2  1  0  0  0  0
  1  5  2  0  0  0  0
  2  6  2  0  0  0  0
  3  8  2  0  0  0  0
  3 15  1  0  0  0  0
  4  9  1  0  0  0  0
  4 15  2  0  0  0  0
  5 17  1  0  0  0  0
  6 19  1  0  0  0  0
  7 10  2  0  0  0  0
  7 18  1  0  0  0  0
  8 21  1  0  0  0  0
  9 21  2  0  0  0  0
 10 22  1  0  0  0  0
 11 12  2  0  0  0  0
 11 23  1  0  0  0  0
 12 24  1  0  0  0  0
 13 20  1  0  0  0  0
 13 22  2  0  0  0  0
 14 24  2  0  0  0  0
 14 25  1  0  0  0  0
 15 26  1  0  0  0  0
 16 26  1  0  0  0  0
 16 27  2  0  0  0  0
 16 28  1  0  0  0  0
 17 19  2  0  0  0  0
 17 33  1  0  0  0  0
 18 20  2  0  0  0  0
 18 34  1  0  0  0  0
 19 42  1  0  0  0  0
 20 35  1  0  0  0  0
 21 86  1  0  0  0  0
 22 87  1  0  0  0  0
 23 25  2  0  0  0  0
 23 86  1  0  0  0  0
 24 93  1  0  0  0  0
 25 94  1  0  0  0  0
 26 71  2  0  0  0  0
 27 72  1  0  0  0  0
 27 75  1  0  0  0  0
 28 76  1  0  0  0  0
 28 81  2  0  0  0  0
 29 43  1  0  0  0  0
 29 77  1  0  0  0  0
 29 82  2  0  0  0  0
 30 68  1  0  0  0  0
 30 73  1  0  0  0  0
 30 83  2  0  0  0  0
 31 69  1  0  0  0  0
 31 78  1  0  0  0  0
 31 84  2  0  0  0  0
 32 74  1  0  0  0  0
 32 79  1  0  0  0  0
 32 85  2  0  0  0  0
 33 36  1  0  0  0  0
 34 43  1  0  0  0  0
 35 73  1  0  0  0  0
 36 38  1  0  0  0  0
 37 39  1  0  0  0  0
 37 40  1  0  0  0  0
 38 42  1  0  0  0  0
 39 44  1  0  0  0  0
 40 74  1  0  0  0  0
 41 44  1  0  0  0  0
 41 74  1  0  0  0  0
 42 77  1  0  0  0  0
 43 73  1  0  0  0  0
 44 72  1  0  0  0  0
 45 69  1  0  0  0  0
 46 70  1  0  0  0  0
 47 70  1  0  0  0  0
 48 70  1  0  0  0  0
 49 80  1  0  0  0  0
 50 51  1  0  0  0  0
 50 52  1  0  0  0  0
 51 56  1  0  0  0  0
 52 57  1  0  0  0  0
 53 54  1  0  0  0  0
 53 58  1  0  0  0  0
 54 59  1  0  0  0  0
 55 60  1  0  0  0  0
 55 61  1  0  0  0  0
 56 79  1  0  0  0  0
 57 88  1  0  0  0  0
 58 88  1  0  0  0  0
 59 89  1  0  0  0  0
 60 89  1  0  0  0  0
 61 90  1  0  0  0  0
 62 63  1  0  0  0  0
 62 87  1  0  0  0  0
 63 91  1  0  0  0  0
 64 65  1  0  0  0  0
 64 90  1  0  0  0  0
 65 92  1  0  0  0  0
 66 67  1  0  0  0  0
 66 91  1  0  0  0  0
 67 92  1  0  0  0  0
 68 70  1  0  0  0  0
 68 78  1  0  0  0  0
 69 80  1  0  0  0  0
 71 72  1  0  0  0  0
M  CHG  1  80   1
M  ISO  4  32 100  62 101  79 100  87 101
M  END
> <Batch ID>
0000

> <Smiles>
CNC(C)C(=O)NC(C(=O)N1Cc2cc([101O:1][101CH2:1]COCCOCCOCCCOCCCCOCCCCC[100NH:0][100C:0](=O)N3CCCC(n4nc(-c5ccc(Oc6ccc(F)cc6F)cc5)c(C(N)=O)c4N)C3)ccc2CC1C(=O)NC1CCCc2ccccc21)C(C)(C)C

> <Shape>
0.231

> <Color>
0.189

> <Negative vol penalty>
0.000

$$$$

  -OEChem-04042320113D

 89 98  0     1  0  0  0  0  0999 V2000
  -20.4998  -30.7137   22.1330 C   0  0  0  0  0  0  0  0  0  0  0  0
  -20.8489  -29.6410   21.3203 C   0  0  0  0  0  0  0  0  0  0  0  0
  -24.9050  -28.4306   19.9415 C   0  0  0  0  0  0  0  0  0  0  0  0
  -25.8352  -28.9263   19.0249 C   0  0  0  0  0  0  0  0  0  0  0  0
  -27.1844  -16.6364   23.0855 C   0  0  0  0  0  0  0  0  0  0  0  0
  -27.9295  -17.7428   21.0712 C   0  0  0  0  0  0  0  0  0  0  0  0
  -20.6913  -30.6307   23.5105 C   0  0  0  0  0  0  0  0  0  0  0  0
  -21.3784  -28.4806   21.8860 C   0  0  0  0  0  0  0  0  0  0  0  0
  -23.5152  -23.4134   19.2623 C   0  0  0  0  0  0  0  0  0  0  0  0
  -25.3121  -27.6567   21.0355 C   0  0  0  0  0  0  0  0  0  0  0  0
  -27.2026  -28.6682   19.1669 C   0  0  0  0  0  0  0  0  0  0  0  0
  -26.3028  -15.8604   22.3332 C   0  0  0  0  0  0  0  0  0  0  0  0
  -27.0479  -16.9668   20.3188 C   0  0  0  0  0  0  0  0  0  0  0  0
  -24.7417  -22.9257   18.8131 C   0  0  0  0  0  0  0  0  0  0  0  0
  -24.1151  -13.3354   20.9001 C   0  0  0  0  0  0  0  0  0  0  0  0
  -24.0556  -11.9695   21.1765 C   0  0  0  0  0  0  0  0  0  0  0  0
  -25.0321  -21.7512   20.9001 C   0  0  0  0  0  0  0  0  0  0  0  0
  -26.3993  -11.7567   20.6299 C   0  0  0  0  0  0  0  0  0  0  0  0
  -27.9978  -17.5777   22.4546 C   0  0  0  0  0  0  0  0  0  0  0  0
  -30.2435  -18.0755   23.5576 C   0  0  0  0  0  0  0  0  0  0  0  0
  -21.2351  -29.4732   24.0913 C   0  0  0  0  0  0  0  0  0  0  0  0
  -23.0423  -23.0819   20.5401 C   0  0  0  0  0  0  0  0  0  0  0  0
  -21.5570  -28.3685   23.2768 C   0  0  0  0  0  0  0  0  0  0  0  0
  -23.7982  -22.2339   21.3621 C   0  0  0  0  0  0  0  0  0  0  0  0
  -26.6821  -27.3874   21.1935 C   0  0  0  0  0  0  0  0  0  0  0  0
  -27.5850  -27.8953   20.2638 C   0  0  0  0  0  0  0  0  0  0  0  0
  -26.2345  -16.0255   20.9498 C   0  0  0  0  0  0  0  0  0  0  0  0
  -25.5017  -22.0968   19.6332 C   0  0  0  0  0  0  0  0  0  0  0  0
  -25.3168  -13.9119   20.4886 C   0  0  0  0  0  0  0  0  0  0  0  0
  -25.1976  -11.1801   21.0414 C   0  0  0  0  0  0  0  0  0  0  0  0
  -26.4589  -13.1226   20.3535 C   0  0  0  0  0  0  0  0  0  0  0  0
  -28.9083  -18.3800   23.2313 C   0  0  0  0  0  0  0  0  0  0  0  0
  -30.6680  -19.1483   24.3029 C   0  0  0  0  0  0  0  0  0  0  0  0
  -28.6070  -26.7276   21.8407 C   0  0  0  0  0  0  0  0  0  0  0  0
  -31.0297  -16.9258   23.2175 C   0  0  0  0  0  0  0  0  0  0  0  0
  -22.3272  -24.7275   23.1639 C   0  0  0  0  0  0  0  0  0  0  0  0
  -21.2859  -21.8423   24.2193 C   0  0  0  0  0  0  0  0  0  0  0  0
  -21.4554  -18.4413   23.9936 C   0  0  0  0  0  0  0  0  0  0  0  0
  -28.9200  -24.8684   24.5793 C   0  0  0  0  0  0  0  0  0  0  0  0
  -21.4136  -29.4342   25.5886 C   0  0  0  0  0  0  0  0  0  0  0  0
  -21.7048  -23.5945   20.9994 C   0  0  0  0  0  0  0  0  0  0  0  0
  -23.3257  -21.8318   22.7345 C   0  0  0  0  0  0  0  0  0  0  0  0
  -22.3844  -28.3493   26.0435 C   0  0  0  0  0  0  0  0  0  0  0  0
  -29.0332  -22.5323   27.2638 C   0  0  0  0  0  0  0  0  0  0  0  0
  -22.0239  -27.0227   25.3918 C   0  0  0  0  0  0  0  0  0  0  0  0
  -29.1345  -21.1758   26.5642 C   0  0  0  0  0  0  0  0  0  0  0  0
  -28.1397  -23.5003   26.4913 C   0  0  0  0  0  0  0  0  0  0  0  0
  -28.6066  -22.3274   24.3747 C   0  0  0  0  0  0  0  0  0  0  0  0
  -22.1630  -27.1079   23.8666 C   0  0  1  0  0  0  0  0  0  0  0  0
  -21.5598  -23.6087   22.5180 C   0  0  1  0  0  0  0  0  0  0  0  0
  -29.5420  -21.3356   25.0871 C   0  0  2  0  0  0  0  0  0  0  0  0
  -20.8582  -16.0454   24.4413 C   0  0  0  0  0  0  0  0  0  0  0  0
  -23.0688  -22.2334   26.6643 C   0  0  0  0  0  0  0  0  0  0  0  0
  -22.8332  -19.7868   27.1408 C   0  0  0  0  0  0  0  0  0  0  0  0
  -20.8193  -21.2588   27.1587 C   0  0  0  0  0  0  0  0  0  0  0  0
  -19.4227  -18.4249   21.8426 C   0  0  0  0  0  0  0  0  0  0  0  0
  -29.7219  -26.1002   22.5796 C   0  0  0  0  0  0  0  0  0  0  0  0
  -30.0949  -27.7280   20.0644 C   0  0  0  0  0  0  0  0  0  0  0  0
  -30.3338  -26.8542   18.8403 C   0  0  0  0  0  0  0  0  0  0  0  0
  -27.6965  -21.3673   20.1866 C   0  0  0  0  0  0  0  0  0  1  0  0
  -29.0672  -21.5804   19.5738 C   0  0  0  0  0  0  0  0  0  0  0  0
  -30.4955  -24.6315   18.0943 C   0  0  0  0  0  0  0  0  0  0  0  0
  -30.4468  -23.1879   18.5562 C   0  0  0  0  0  0  0  0  0  0  0  0
  -21.9137  -20.6824   24.9537 C   0  0  1  0  0  0  0  0  0  0  0  0
  -20.3712  -17.3824   23.9047 C   0  0  2  0  0  0  0  0  0  0  0  0
  -22.1688  -20.9993   26.4543 C   0  0  0  0  0  0  0  0  0  0  0  0
  -27.3352  -26.6650   22.1657 N   0  0  0  0  0  0  0  0  0  0  0  0
  -28.5109  -19.5542   23.7286 N   0  0  0  0  0  0  0  0  0  0  0  0
  -28.8084  -27.4578   20.7026 N   0  0  0  0  0  0  0  0  0  0  0  0
  -29.6027  -19.9969   24.3751 N   0  0  0  0  0  0  0  0  0  0  0  0
  -22.0144  -22.3639   23.1409 N   0  0  0  0  0  0  0  0  0  0  0  0
  -28.5807  -23.6081   25.0986 N   0  0  0  0  0  0  0  0  0  0  0  0
  -31.8448  -19.4390   24.8971 N   0  0  0  0  0  0  0  0  0  0  0  0
  -30.4383  -15.9167   22.4453 N   0  0  0  0  0  0  0  0  0  0  0  0
  -21.6158  -25.9069   23.2749 N   0  0  0  0  0  0  0  0  0  0  0  0
  -21.0424  -19.5348   24.7251 N   0  0  0  0  0  0  0  0  0  0  0  0
  -29.3339  -24.8808   23.2529 N   0  0  0  0  0  0  0  0  0  0  0  0
  -19.9462  -17.1939   22.4888 N   0  3  0  0  0  0  0  0  0  0  0  0
  -32.2162  -16.7896   23.6011 O   0  0  0  0  0  0  0  0  0  0  0  0
  -23.4789  -24.5345   23.5354 O   0  0  0  0  0  0  0  0  0  0  0  0
  -20.1861  -22.2653   24.5844 O   0  0  0  0  0  0  0  0  0  0  0  0
  -22.5595  -18.3098   23.4700 O   0  0  0  0  0  0  0  0  0  0  0  0
  -28.8638  -25.9049   25.2497 O   0  0  0  0  0  0  0  0  0  0  0  0
  -25.3745  -15.2683   20.2153 O   0  0  0  0  0  0  0  0  0  0  0  0
  -26.6994  -21.6199   19.1975 O   0  0  0  0  0  0  0  0  0  1  0  0
  -30.2769  -25.4840   19.2118 O   0  0  0  0  0  0  0  0  0  0  0  0
  -29.1777  -22.9308   19.1408 O   0  0  0  0  0  0  0  0  0  0  0  0
  -25.1406   -9.8688   21.3083 F   0  0  0  0  0  0  0  0  0  0  0  0
  -27.6164  -13.6710   19.9597 F   0  0  0  0  0  0  0  0  0  0  0  0
  1  2  1  0  0  0  0
  1  7  2  0  0  0  0
  2  8  2  0  0  0  0
  3  4  1  0  0  0  0
  3 10  2  0  0  0  0
  4 11  2  0  0  0  0
  5 12  2  0  0  0  0
  5 19  1  0  0  0  0
  6 13  1  0  0  0  0
  6 19  2  0  0  0  0
  7 21  1  0  0  0  0
  8 23  1  0  0  0  0
  9 14  2  0  0  0  0
  9 22  1  0  0  0  0
 10 25  1  0  0  0  0
 11 26  1  0  0  0  0
 12 27  1  0  0  0  0
 13 27  2  0  0  0  0
 14 28  1  0  0  0  0
 15 16  2  0  0  0  0
 15 29  1  0  0  0  0
 16 30  1  0  0  0  0
 17 24  1  0  0  0  0
 17 28  2  0  0  0  0
 18 30  2  0  0  0  0
 18 31  1  0  0  0  0
 19 32  1  0  0  0  0
 20 32  1  0  0  0  0
 20 33  2  0  0  0  0
 20 35  1  0  0  0  0
 21 23  2  0  0  0  0
 21 40  1  0  0  0  0
 22 24  2  0  0  0  0
 22 41  1  0  0  0  0
 23 49  1  0  0  0  0
 24 42  1  0  0  0  0
 25 26  2  0  0  0  0
 25 67  1  0  0  0  0
 26 69  1  0  0  0  0
 27 84  1  0  0  0  0
 28 85  1  0  0  0  0
 29 31  2  0  0  0  0
 29 84  1  0  0  0  0
 30 88  1  0  0  0  0
 31 89  1  0  0  0  0
 32 68  2  0  0  0  0
 33 70  1  0  0  0  0
 33 73  1  0  0  0  0
 34 57  1  0  0  0  0
 34 67  2  0  0  0  0
 34 69  1  0  0  0  0
 35 74  1  0  0  0  0
 35 79  2  0  0  0  0
 36 50  1  0  0  0  0
 36 75  1  0  0  0  0
 36 80  2  0  0  0  0
 37 64  1  0  0  0  0
 37 71  1  0  0  0  0
 37 81  2  0  0  0  0
 38 65  1  0  0  0  0
 38 76  1  0  0  0  0
 38 82  2  0  0  0  0
 39 72  1  0  0  0  0
 39 77  1  0  0  0  0
 39 83  2  0  0  0  0
 40 43  1  0  0  0  0
 41 50  1  0  0  0  0
 42 71  1  0  0  0  0
 43 45  1  0  0  0  0
 44 46  1  0  0  0  0
 44 47  1  0  0  0  0
 45 49  1  0  0  0  0
 46 51  1  0  0  0  0
 47 72  1  0  0  0  0
 48 51  1  0  0  0  0
 48 72  1  0  0  0  0
 49 75  1  0  0  0  0
 50 71  1  0  0  0  0
 51 70  1  0  0  0  0
 52 65  1  0  0  0  0
 53 66  1  0  0  0  0
 54 66  1  0  0  0  0
 55 66  1  0  0  0  0
 56 78  1  0  0  0  0
 57 77  1  0  0  0  0
 58 59  1  0  0  0  0
 58 69  1  0  0  0  0
 59 86  1  0  0  0  0
 60 61  1  0  0  0  0
 60 85  1  0  0  0  0
 61 87  1  0  0  0  0
 62 63  1  0  0  0  0
 62 86  1  0  0  0  0
 63 87  1  0  0  0  0
 64 66  1  0  0  0  0
 64 76  1  0  0  0  0
 65 78  1  0  0  0  0
 68 70  1  0  0  0  0
M  CHG  1  78   1
M  ISO  4  39 100  60 101  77 100  85 101
M  END
> <Batch ID>
0000

> <Smiles>
CNC(C)C(=O)NC(C(=O)N1Cc2cc([101O:1][101CH2:1]COCCOCCn3c(C[100NH:0][100C:0](=O)N4CCCC(n5nc(-c6ccc(Oc7ccc(F)cc7F)cc6)c(C(N)=O)c5N)C4)nc4ccccc43)ccc2CC1C(=O)NC1CCCc2ccccc21)C(C)(C)C

> <Shape>
0.183

> <Color>
0.083

> <Negative vol penalty>
0.000

$$$$

  -OEChem-04042320113D

 88 96  0     1  0  0  0  0  0999 V2000
  -16.7592  -30.4086   23.6327 C   0  0  0  0  0  0  0  0  0  0  0  0
  -17.9329  -30.9894   24.1023 C   0  0  0  0  0  0  0  0  0  0  0  0
  -24.2908  -17.1639   20.0443 C   0  0  0  0  0  0  0  0  0  0  0  0
  -25.5325  -16.5925   22.0365 C   0  0  0  0  0  0  0  0  0  0  0  0
  -16.7985  -29.1557   23.0222 C   0  0  0  0  0  0  0  0  0  0  0  0
  -19.1465  -30.3171   23.9627 C   0  0  0  0  0  0  0  0  0  0  0  0
  -26.1248  -31.5524   22.9167 C   0  0  0  0  0  0  0  0  0  0  0  0
  -25.3999  -16.8442   19.2613 C   0  0  0  0  0  0  0  0  0  0  0  0
  -26.6416  -16.2727   21.2534 C   0  0  0  0  0  0  0  0  0  0  0  0
  -27.3681  -31.2379   23.4636 C   0  0  0  0  0  0  0  0  0  0  0  0
  -27.6704  -13.6907   19.3310 C   0  0  0  0  0  0  0  0  0  0  0  0
  -28.3518  -12.5101   19.6267 C   0  0  0  0  0  0  0  0  0  0  0  0
  -30.4904  -26.3096   24.2402 C   0  0  0  0  0  0  0  0  0  0  0  0
  -28.7074  -26.7310   25.8150 C   0  0  0  0  0  0  0  0  0  0  0  0
  -27.3263  -29.1136   22.3213 C   0  0  0  0  0  0  0  0  0  0  0  0
  -30.3643  -13.7780   20.0505 C   0  0  0  0  0  0  0  0  0  0  0  0
  -24.3571  -17.0381   21.4320 C   0  0  0  0  0  0  0  0  0  0  0  0
  -29.6828  -25.8811   25.2937 C   0  0  0  0  0  0  0  0  0  0  0  0
  -22.1746  -16.5045   22.6403 C   0  0  0  0  0  0  0  0  0  0  0  0
  -18.0146  -28.4720   22.8664 C   0  0  0  0  0  0  0  0  0  0  0  0
  -25.4668  -30.6438   22.0754 C   0  0  0  0  0  0  0  0  0  0  0  0
  -19.2020  -29.0533   23.3508 C   0  0  0  0  0  0  0  0  0  0  0  0
  -26.0759  -29.4200   21.7630 C   0  0  0  0  0  0  0  0  0  0  0  0
  -26.5753  -16.3985   19.8658 C   0  0  0  0  0  0  0  0  0  0  0  0
  -27.9677  -30.0171   23.1682 C   0  0  0  0  0  0  0  0  0  0  0  0
  -28.3359  -14.9149   19.3950 C   0  0  0  0  0  0  0  0  0  0  0  0
  -29.3471  -28.4379   24.2293 C   0  0  0  0  0  0  0  0  0  1  0  0
  -29.6988  -12.5537   19.9865 C   0  0  0  0  0  0  0  0  0  0  0  0
  -29.6828  -14.9586   19.7548 C   0  0  0  0  0  0  0  0  0  0  0  0
  -30.3226  -27.5880   23.7080 C   0  0  0  0  0  0  0  0  0  0  0  0
  -28.5395  -28.0094   25.2828 C   0  0  0  0  0  0  0  0  0  0  0  0
  -23.2119  -17.3688   22.2415 C   0  0  0  0  0  0  0  0  0  0  0  0
  -21.3380  -17.2951   23.3896 C   0  0  0  0  0  0  0  0  0  0  0  0
  -29.8579  -24.5481   25.8479 C   0  0  0  0  0  0  0  0  0  0  0  0
  -21.9845  -15.1116   22.3587 C   0  0  0  0  0  0  0  0  0  0  0  0
  -22.7130  -29.0611   22.1995 C   0  0  0  0  0  0  0  0  0  0  0  0
  -23.5355  -28.1737   19.1898 C   0  0  0  0  0  0  0  0  0  0  0  0
  -26.0062  -27.6812   16.8876 C   0  0  0  0  0  0  0  0  0  0  0  0
  -22.2050  -22.3167   26.5334 C   0  0  0  0  0  0  0  0  0  0  0  0
  -18.0007  -27.0990   22.2424 C   0  0  0  0  0  0  0  0  0  0  0  0
  -24.1383  -31.0093   21.4722 C   0  0  0  0  0  0  0  0  0  0  0  0
  -25.4203  -28.4184   20.8490 C   0  0  0  0  0  0  0  0  0  0  0  0
  -19.3794  -26.6184   21.7970 C   0  0  0  0  0  0  0  0  0  0  0  0
  -19.9026  -21.8348   23.8606 C   0  0  0  0  0  0  0  0  0  0  0  0
  -20.4116  -26.8688   22.8919 C   0  0  0  0  0  0  0  0  0  0  0  0
  -20.3961  -20.5576   23.1786 C   0  0  0  0  0  0  0  0  0  0  0  0
  -21.0630  -22.6888   24.3668 C   0  0  0  0  0  0  0  0  0  0  0  0
  -22.5112  -20.7039   24.5582 C   0  0  0  0  0  0  0  0  0  0  0  0
  -20.5414  -28.3663   23.1956 C   0  0  1  0  0  0  0  0  0  0  0  0
  -23.3242  -29.7940   21.0389 C   0  0  1  0  0  0  0  0  0  0  0  0
  -21.3755  -19.7828   24.0805 C   0  0  2  0  0  0  0  0  0  0  0  0
  -26.3743  -26.9155   14.5264 C   0  0  0  0  0  0  0  0  0  0  0  0
  -23.1385  -25.2790   20.0692 C   0  0  0  0  0  0  0  0  0  0  0  0
  -24.4068  -24.5599   18.0338 C   0  0  0  0  0  0  0  0  0  0  0  0
  -22.2599  -25.8061   17.7878 C   0  0  0  0  0  0  0  0  0  0  0  0
  -27.1430  -30.2959   16.0941 C   0  0  0  0  0  0  0  0  0  0  0  0
  -27.1248  -22.9147   28.3061 C   0  0  0  0  0  0  0  0  0  0  0  0
  -25.8988  -22.0072   28.1762 C   0  0  0  0  0  0  0  0  0  0  0  0
  -28.3815  -22.2318   27.7582 C   0  0  0  0  0  0  0  0  0  0  0  0
  -24.6507  -22.6740   28.7622 C   0  0  0  0  0  0  0  0  0  0  0  0
  -29.6256  -23.1049   27.8847 C   0  0  0  0  0  0  0  0  0  0  0  0
  -23.4041  -21.8021   28.6444 C   0  0  0  0  0  0  0  0  0  0  0  0
  -24.3204  -27.0330   18.5884 C   0  0  1  0  0  0  0  0  0  0  0  0
  -26.1307  -28.1092   15.4365 C   0  0  2  0  0  0  0  0  0  0  0  0
  -23.5432  -25.6873   18.6386 C   0  0  0  0  0  0  0  0  0  0  0  0
  -23.0509  -18.6132   22.6993 N   0  0  0  0  0  0  0  0  0  0  0  0
  -21.9027  -18.5366   23.3936 N   0  0  0  0  0  0  0  0  0  0  0  0
  -24.1191  -28.8193   20.2891 N   0  0  0  0  0  0  0  0  0  0  0  0
  -21.9535  -21.8952   25.2173 N   0  0  0  0  0  0  0  0  0  0  0  0
  -20.1816  -17.0426   24.0388 N   0  0  0  0  0  0  0  0  0  0  0  0
  -22.9398  -14.4523   21.5732 N   0  0  0  0  0  0  0  0  0  0  0  0
  -29.4900  -24.3627   27.1857 N   0  0  0  0  0  0  0  0  0  0  0  0
  -21.3320  -29.0221   22.1760 N   0  0  0  0  0  0  0  0  0  0  0  0
  -24.6928  -27.4581   17.2434 N   0  0  0  0  0  0  0  0  0  0  0  0
  -23.0550  -21.5038   27.2733 N   0  0  0  0  0  0  0  0  0  0  0  0
  -27.2637  -29.0635   15.2734 N   0  3  0  0  0  0  0  0  0  0  0  0
  -30.3345  -23.6330   25.1532 O   0  0  0  0  0  0  0  0  0  0  0  0
  -20.9882  -14.4746   22.7772 O   0  0  0  0  0  0  0  0  0  0  0  0
  -23.4407  -28.5662   23.0524 O   0  0  0  0  0  0  0  0  0  0  0  0
  -22.4481  -28.4852   18.6978 O   0  0  0  0  0  0  0  0  0  0  0  0
  -26.9772  -27.5535   17.6302 O   0  0  0  0  0  0  0  0  0  0  0  0
  -21.7045  -23.3386   27.0152 O   0  0  0  0  0  0  0  0  0  0  0  0
  -27.6577  -16.0862   19.1020 O   0  0  0  0  0  0  0  0  0  0  0  0
  -29.1810  -29.7073   23.7011 O   0  0  0  0  0  0  0  0  0  1  0  0
  -30.3527  -11.4201   20.2719 F   0  0  0  0  0  0  0  0  0  0  0  0
  -30.3272  -16.1318   19.8192 F   0  0  0  0  0  0  0  0  0  0  0  0
  -31.3393  -28.0897   22.4071 Cl  0  0  0  0  0  0  0  0  0  0  0  0
  -27.3241  -29.0371   25.9497 Cl  0  0  0  0  0  0  0  0  0  0  0  0
  1  2  1  0  0  0  0
  1  5  2  0  0  0  0
  2  6  2  0  0  0  0
  3  8  2  0  0  0  0
  3 17  1  0  0  0  0
  4  9  1  0  0  0  0
  4 17  2  0  0  0  0
  5 20  1  0  0  0  0
  6 22  1  0  0  0  0
  7 10  2  0  0  0  0
  7 21  1  0  0  0  0
  8 24  1  0  0  0  0
  9 24  2  0  0  0  0
 10 25  1  0  0  0  0
 11 12  2  0  0  0  0
 11 26  1  0  0  0  0
 12 28  1  0  0  0  0
 13 18  1  0  0  0  0
 13 30  2  0  0  0  0
 14 18  2  0  0  0  0
 14 31  1  0  0  0  0
 15 23  1  0  0  0  0
 15 25  2  0  0  0  0
 16 28  2  0  0  0  0
 16 29  1  0  0  0  0
 17 32  1  0  0  0  0
 18 34  1  0  0  0  0
 19 32  1  0  0  0  0
 19 33  2  0  0  0  0
 19 35  1  0  0  0  0
 20 22  2  0  0  0  0
 20 40  1  0  0  0  0
 21 23  2  0  0  0  0
 21 41  1  0  0  0  0
 22 49  1  0  0  0  0
 23 42  1  0  0  0  0
 24 83  1  0  0  0  0
 25 84  1  0  0  0  0
 26 29  2  0  0  0  0
 26 83  1  0  0  0  0
 27 30  1  0  0  0  0
 27 31  2  0  0  0  0
 27 84  1  0  0  0  0
 28 85  1  0  0  0  0
 29 86  1  0  0  0  0
 30 87  1  0  0  0  0
 31 88  1  0  0  0  0
 32 66  2  0  0  0  0
 33 67  1  0  0  0  0
 33 70  1  0  0  0  0
 34 72  1  0  0  0  0
 34 77  2  0  0  0  0
 35 71  1  0  0  0  0
 35 78  2  0  0  0  0
 36 50  1  0  0  0  0
 36 73  1  0  0  0  0
 36 79  2  0  0  0  0
 37 63  1  0  0  0  0
 37 68  1  0  0  0  0
 37 80  2  0  0  0  0
 38 64  1  0  0  0  0
 38 74  1  0  0  0  0
 38 81  2  0  0  0  0
 39 69  1  0  0  0  0
 39 75  1  0  0  0  0
 39 82  2  0  0  0  0
 40 43  1  0  0  0  0
 41 50  1  0  0  0  0
 42 68  1  0  0  0  0
 43 45  1  0  0  0  0
 44 46  1  0  0  0  0
 44 47  1  0  0  0  0
 45 49  1  0  0  0  0
 46 51  1  0  0  0  0
 47 69  1  0  0  0  0
 48 51  1  0  0  0  0
 48 69  1  0  0  0  0
 49 73  1  0  0  0  0
 50 68  1  0  0  0  0
 51 67  1  0  0  0  0
 52 64  1  0  0  0  0
 53 65  1  0  0  0  0
 54 65  1  0  0  0  0
 55 65  1  0  0  0  0
 56 76  1  0  0  0  0
 57 58  1  0  0  0  0
 57 59  1  0  0  0  0
 58 60  1  0  0  0  0
 59 61  1  0  0  0  0
 60 62  1  0  0  0  0
 61 72  1  0  0  0  0
 62 75  1  0  0  0  0
 63 65  1  0  0  0  0
 63 74  1  0  0  0  0
 64 76  1  0  0  0  0
 66 67  1  0  0  0  0
M  CHG  1  76   1
M  ISO  4  27 101  39 100  75 100  84 101
M  END
> <Batch ID>
0000

> <Smiles>
CNC(C)C(=O)NC(C(=O)N1Cc2cc([101O:1][101c:1]3c(Cl)cc(C(=O)NCCCCCC[100NH:0][100C:0](=O)N4CCCC(n5nc(-c6ccc(Oc7ccc(F)cc7F)cc6)c(C(N)=O)c5N)C4)cc3Cl)ccc2CC1C(=O)NC1CCCc2ccccc21)C(C)(C)C

> <Shape>
0.198

> <Color>
0.092

> <Negative vol penalty>
0.000

$$$$

  -OEChem-04042320113D

 78 86  0     1  0  0  0  0  0999 V2000
  -26.6841  -10.9203   17.4068 C   0  0  0  0  0  0  0  0  0  0  0  0
  -25.9165  -12.0441   17.6955 C   0  0  0  0  0  0  0  0  0  0  0  0
  -19.9748  -20.0918   15.6358 C   0  0  0  0  0  0  0  0  0  0  0  0
  -26.2164  -29.3106   20.5870 C   0  0  0  0  0  0  0  0  0  0  0  0
  -23.8093  -29.2573   20.3869 C   0  0  0  0  0  0  0  0  0  0  0  0
  -27.9824  -10.8178   17.9046 C   0  0  0  0  0  0  0  0  0  0  0  0
  -26.4464  -13.0655   18.4831 C   0  0  0  0  0  0  0  0  0  0  0  0
  -25.4958  -17.6671   16.5943 C   0  0  0  0  0  0  0  0  0  0  0  0
  -20.6014  -20.8556   14.6511 C   0  0  0  0  0  0  0  0  0  0  0  0
  -20.6913  -19.6775   16.7585 C   0  0  0  0  0  0  0  0  0  0  0  0
  -26.1283  -30.4847   21.3348 C   0  0  0  0  0  0  0  0  0  0  0  0
  -23.7211  -30.4314   21.1348 C   0  0  0  0  0  0  0  0  0  0  0  0
  -24.2173  -18.1859   16.7945 C   0  0  0  0  0  0  0  0  0  0  0  0
  -26.5161  -33.2993   23.6026 C   0  0  0  0  0  0  0  0  0  0  0  0
  -27.2957  -33.3941   24.7552 C   0  0  0  0  0  0  0  0  0  0  0  0
  -25.0503  -19.5155   18.6269 C   0  0  0  0  0  0  0  0  0  0  0  0
  -22.6613  -20.7908   15.9118 C   0  0  0  0  0  0  0  0  0  0  0  0
  -26.1775  -31.4580   25.6708 C   0  0  0  0  0  0  0  0  0  0  0  0
  -25.0569  -28.6969   20.1130 C   0  0  0  0  0  0  0  0  0  0  0  0
  -25.1360  -26.1633   19.8263 C   0  0  0  0  0  0  0  0  0  0  0  0
  -28.5320  -11.8429   18.6907 C   0  0  0  0  0  0  0  0  0  0  0  0
  -26.5607  -18.0611   17.4173 C   0  0  0  0  0  0  0  0  0  0  0  0
  -27.7528  -12.9760   18.9929 C   0  0  0  0  0  0  0  0  0  0  0  0
  -26.3419  -19.0022   18.4334 C   0  0  0  0  0  0  0  0  0  0  0  0
  -21.9447  -21.2051   14.7892 C   0  0  0  0  0  0  0  0  0  0  0  0
  -24.8807  -31.0451   21.6087 C   0  0  0  0  0  0  0  0  0  0  0  0
  -23.9938  -19.1080   17.8127 C   0  0  0  0  0  0  0  0  0  0  0  0
  -22.0346  -20.0270   16.8965 C   0  0  0  0  0  0  0  0  0  1  0  0
  -25.5670  -32.2839   23.4840 C   0  0  0  0  0  0  0  0  0  0  0  0
  -27.1265  -32.4734   25.7893 C   0  0  0  0  0  0  0  0  0  0  0  0
  -25.3978  -31.3633   24.5181 C   0  0  0  0  0  0  0  0  0  0  0  0
  -25.1473  -27.4843   19.3400 C   0  0  0  0  0  0  0  0  0  0  0  0
  -25.2459  -25.3824   18.7017 C   0  0  0  0  0  0  0  0  0  0  0  0
  -25.0350  -25.6848   21.1741 C   0  0  0  0  0  0  0  0  0  0  0  0
  -28.5059  -16.5659   19.4382 C   0  0  0  0  0  0  0  0  0  0  0  0
  -29.9681  -19.4589   19.5605 C   0  0  0  0  0  0  0  0  0  0  0  0
  -29.7385  -22.8404   19.1610 C   0  0  0  0  0  0  0  0  0  0  0  0
  -23.7955  -24.1852   13.4474 C   0  0  0  0  0  0  0  0  0  0  0  0
  -29.9231  -11.6657   19.2455 C   0  0  0  0  0  0  0  0  0  0  0  0
  -27.9394  -17.5124   17.1713 C   0  0  0  0  0  0  0  0  0  0  0  0
  -27.4556  -19.4731   19.3314 C   0  0  0  0  0  0  0  0  0  0  0  0
  -30.5429  -12.9620   19.7612 C   0  0  0  0  0  0  0  0  0  0  0  0
  -26.3418  -26.6277   13.9232 C   0  0  0  0  0  0  0  0  0  0  0  0
  -29.5451  -13.7225   20.6288 C   0  0  0  0  0  0  0  0  0  0  0  0
  -26.2528  -26.9636   15.4129 C   0  0  0  0  0  0  0  0  0  0  0  0
  -24.9634  -26.3660   13.3203 C   0  0  0  0  0  0  0  0  0  0  0  0
  -24.0734  -25.6835   15.5147 C   0  0  0  0  0  0  0  0  0  0  0  0
  -28.3012  -14.1163   19.8231 C   0  0  1  0  0  0  0  0  0  0  0  0
  -28.8433  -17.5957   18.3974 C   0  0  1  0  0  0  0  0  0  0  0  0
  -25.4433  -25.9007   16.1799 C   0  0  2  0  0  0  0  0  0  0  0  0
  -31.0889  -24.9450   19.3711 C   0  0  0  0  0  0  0  0  0  0  0  0
  -29.6895  -19.3316   22.5963 C   0  0  0  0  0  0  0  0  0  0  0  0
  -30.1591  -21.7896   22.6727 C   0  0  0  0  0  0  0  0  0  0  0  0
  -31.8828  -20.2193   21.7863 C   0  0  0  0  0  0  0  0  0  0  0  0
  -29.4207  -23.4692   16.2865 C   0  0  0  0  0  0  0  0  0  0  0  0
  -22.6139  -22.0219   13.7363 C   0  0  0  0  0  0  0  0  0  0  0  0
  -29.8171  -20.6981   20.4094 C   0  0  1  0  0  0  0  0  0  0  0  0
  -30.6330  -23.8325   18.4399 C   0  0  2  0  0  0  0  0  0  0  0  0
  -30.3655  -20.4995   21.8507 C   0  0  0  0  0  0  0  0  0  0  0  0
  -25.2560  -27.5432   18.0100 N   0  0  0  0  0  0  0  0  0  0  0  0
  -25.3141  -26.2495   17.6511 N   0  0  0  0  0  0  0  0  0  0  0  0
  -28.7845  -18.9027   19.0551 N   0  0  0  0  0  0  0  0  0  0  0  0
  -24.2485  -25.3474   14.0931 N   0  0  0  0  0  0  0  0  0  0  0  0
  -25.2899  -24.0456   18.5190 N   0  0  0  0  0  0  0  0  0  0  0  0
  -24.9289  -26.6229   22.2099 N   0  0  0  0  0  0  0  0  0  0  0  0
  -28.5833  -15.2625   18.9859 N   0  0  0  0  0  0  0  0  0  0  0  0
  -30.4581  -21.7801   19.6700 N   0  0  0  0  0  0  0  0  0  0  0  0
  -23.1329  -23.2682   14.2542 N   0  0  0  0  0  0  0  0  0  0  0  0
  -29.9058  -24.4476   17.2936 N   0  3  0  0  0  0  0  0  0  0  0  0
  -25.0553  -24.4619   21.4530 O   0  0  0  0  0  0  0  0  0  0  0  0
  -28.1997  -16.9270   20.5685 O   0  0  0  0  0  0  0  0  0  0  0  0
  -31.0953  -19.0054   19.3476 O   0  0  0  0  0  0  0  0  0  0  0  0
  -28.5234  -22.9928   19.2657 O   0  0  0  0  0  0  0  0  0  0  0  0
  -23.9733  -23.9774   12.2423 O   0  0  0  0  0  0  0  0  0  0  0  0
  -24.7943  -32.1907   22.3386 O   0  0  0  0  0  0  0  0  0  0  0  0
  -22.7467  -19.6154   18.0107 O   0  0  0  0  0  0  0  0  0  1  0  0
  -27.8763  -32.5636   26.8956 F   0  0  0  0  0  0  0  0  0  0  0  0
  -24.4885  -30.3849   24.4094 F   0  0  0  0  0  0  0  0  0  0  0  0
  1  2  1  0  0  0  0
  1  6  2  0  0  0  0
  2  7  2  0  0  0  0
  3  9  1  0  0  0  0
  3 10  2  0  0  0  0
  4 11  2  0  0  0  0
  4 19  1  0  0  0  0
  5 12  1  0  0  0  0
  5 19  2  0  0  0  0
  6 21  1  0  0  0  0
  7 23  1  0  0  0  0
  8 13  2  0  0  0  0
  8 22  1  0  0  0  0
  9 25  2  0  0  0  0
 10 28  1  0  0  0  0
 11 26  1  0  0  0  0
 12 26  2  0  0  0  0
 13 27  1  0  0  0  0
 14 15  2  0  0  0  0
 14 29  1  0  0  0  0
 15 30  1  0  0  0  0
 16 24  1  0  0  0  0
 16 27  2  0  0  0  0
 17 25  1  0  0  0  0
 17 28  2  0  0  0  0
 18 30  2  0  0  0  0
 18 31  1  0  0  0  0
 19 32  1  0  0  0  0
 20 32  1  0  0  0  0
 20 33  2  0  0  0  0
 20 34  1  0  0  0  0
 21 23  2  0  0  0  0
 21 39  1  0  0  0  0
 22 24  2  0  0  0  0
 22 40  1  0  0  0  0
 23 48  1  0  0  0  0
 24 41  1  0  0  0  0
 25 56  1  0  0  0  0
 26 75  1  0  0  0  0
 27 76  1  0  0  0  0
 28 76  1  0  0  0  0
 29 31  2  0  0  0  0
 29 75  1  0  0  0  0
 30 77  1  0  0  0  0
 31 78  1  0  0  0  0
 32 60  2  0  0  0  0
 33 61  1  0  0  0  0
 33 64  1  0  0  0  0
 34 65  1  0  0  0  0
 34 70  2  0  0  0  0
 35 49  1  0  0  0  0
 35 66  1  0  0  0  0
 35 71  2  0  0  0  0
 36 57  1  0  0  0  0
 36 62  1  0  0  0  0
 36 72  2  0  0  0  0
 37 58  1  0  0  0  0
 37 67  1  0  0  0  0
 37 73  2  0  0  0  0
 38 63  1  0  0  0  0
 38 68  1  0  0  0  0
 38 74  2  0  0  0  0
 39 42  1  0  0  0  0
 40 49  1  0  0  0  0
 41 62  1  0  0  0  0
 42 44  1  0  0  0  0
 43 45  1  0  0  0  0
 43 46  1  0  0  0  0
 44 48  1  0  0  0  0
 45 50  1  0  0  0  0
 46 63  1  0  0  0  0
 47 50  1  0  0  0  0
 47 63  1  0  0  0  0
 48 66  1  0  0  0  0
 49 62  1  0  0  0  0
 50 61  1  0  0  0  0
 51 58  1  0  0  0  0
 52 59  1  0  0  0  0
 53 59  1  0  0  0  0
 54 59  1  0  0  0  0
 55 69  1  0  0  0  0
 56 68  1  0  0  0  0
 57 59  1  0  0  0  0
 57 67  1  0  0  0  0
 58 69  1  0  0  0  0
 60 61  1  0  0  0  0
M  CHG  1  69   1
M  ISO  4  28 101  38 100  68 100  76 101
M  END
> <Batch ID>
0000

> <Smiles>
CNC(C)C(=O)NC(C(=O)N1Cc2cc([101O:1][101c:1]3cccc(C[100NH:0][100C:0](=O)N4CCCC(n5nc(-c6ccc(Oc7ccc(F)cc7F)cc6)c(C(N)=O)c5N)C4)c3)ccc2CC1C(=O)NC1CCCc2ccccc21)C(C)(C)C

> <Shape>
0.233

> <Color>
0.052

> <Negative vol penalty>
0.000

$$$$

  -OEChem-04042320113D

 81 89  0     1  0  0  0  0  0999 V2000
  -25.9048   -6.9630   23.0526 C   0  0  0  0  0  0  0  0  0  0  0  0
  -26.6941   -8.0531   22.7004 C   0  0  0  0  0  0  0  0  0  0  0  0
  -21.4994  -30.1621   20.9884 C   0  0  0  0  0  0  0  0  0  0  0  0
  -22.5050  -28.9466   22.8183 C   0  0  0  0  0  0  0  0  0  0  0  0
  -24.5699   -6.9124   22.6532 C   0  0  0  0  0  0  0  0  0  0  0  0
  -26.1492   -9.0928   21.9477 C   0  0  0  0  0  0  0  0  0  0  0  0
  -27.5101  -15.0490   22.3698 C   0  0  0  0  0  0  0  0  0  0  0  0
  -30.7400  -23.4308   19.6692 C   0  0  0  0  0  0  0  0  0  0  0  0
  -28.8009  -23.7377   21.0772 C   0  0  0  0  0  0  0  0  0  0  0  0
  -20.2388  -29.7155   21.3846 C   0  0  0  0  0  0  0  0  0  0  0  0
  -21.2443  -28.5001   23.2145 C   0  0  0  0  0  0  0  0  0  0  0  0
  -28.3530  -15.8735   21.6259 C   0  0  0  0  0  0  0  0  0  0  0  0
  -30.4441  -22.0723   19.5577 C   0  0  0  0  0  0  0  0  0  0  0  0
  -28.5049  -22.3792   20.9657 C   0  0  0  0  0  0  0  0  0  0  0  0
  -19.0299  -26.1280   22.2655 C   0  0  0  0  0  0  0  0  0  0  0  0
  -18.8943  -24.7797   22.5960 C   0  0  0  0  0  0  0  0  0  0  0  0
  -26.4719  -16.5840   20.2933 C   0  0  0  0  0  0  0  0  0  0  0  0
  -18.1925  -25.3963   24.8241 C   0  0  0  0  0  0  0  0  0  0  0  0
  -22.6326  -29.7776   21.7053 C   0  0  0  0  0  0  0  0  0  0  0  0
  -24.5922  -31.4108   21.7144 C   0  0  0  0  0  0  0  0  0  0  0  0
  -24.0058   -7.9565   21.9035 C   0  0  0  0  0  0  0  0  0  0  0  0
  -26.1413  -14.9773   22.0735 C   0  0  0  0  0  0  0  0  0  0  0  0
  -24.8059   -9.0555   21.5368 C   0  0  0  0  0  0  0  0  0  0  0  0
  -25.6133  -15.7597   21.0365 C   0  0  0  0  0  0  0  0  0  0  0  0
  -29.9184  -24.2635   20.4290 C   0  0  0  0  0  0  0  0  0  0  0  0
  -20.1112  -28.8845   22.4976 C   0  0  0  0  0  0  0  0  0  0  0  0
  -29.3265  -21.5465   20.2060 C   0  0  0  0  0  0  0  0  0  0  0  0
  -27.8345  -16.6390   20.5856 C   0  0  0  0  0  0  0  0  0  0  0  0
  -18.7468  -27.1106   23.2144 C   0  0  0  0  0  0  0  0  0  0  0  0
  -18.4756  -24.4138   23.8752 C   0  0  0  0  0  0  0  0  0  0  0  0
  -18.3281  -26.7447   24.4936 C   0  0  0  0  0  0  0  0  0  0  0  0
  -23.9351  -30.2381   21.2962 C   0  0  0  0  0  0  0  0  0  0  0  0
  -25.7906  -31.3907   21.0436 C   0  0  0  0  0  0  0  0  0  0  0  0
  -24.1581  -32.4274   22.6275 C   0  0  0  0  0  0  0  0  0  0  0  0
  -24.1692  -12.6719   21.1253 C   0  0  0  0  0  0  0  0  0  0  0  0
  -21.9108  -14.9587   21.5638 C   0  0  0  0  0  0  0  0  0  0  0  0
  -21.1458  -18.2803   21.7335 C   0  0  0  0  0  0  0  0  0  0  0  0
  -29.0951  -26.9655   18.7310 C   0  0  0  0  0  0  0  0  0  0  0  0
  -22.5711   -7.8350   21.4545 C   0  0  0  0  0  0  0  0  0  0  0  0
  -25.2408  -14.1033   22.9026 C   0  0  0  0  0  0  0  0  0  0  0  0
  -24.1475  -15.7341   20.6913 C   0  0  0  0  0  0  0  0  0  0  0  0
  -21.9682   -9.1540   20.9779 C   0  0  0  0  0  0  0  0  0  0  0  0
  -27.7936  -29.7933   17.0029 C   0  0  0  0  0  0  0  0  0  0  0  0
  -22.9289   -9.8697   20.0337 C   0  0  0  0  0  0  0  0  0  0  0  0
  -26.7164  -30.3338   17.9450 C   0  0  0  0  0  0  0  0  0  0  0  0
  -27.8524  -28.2676   17.0291 C   0  0  0  0  0  0  0  0  0  0  0  0
  -26.9294  -28.2171   19.3137 C   0  0  0  0  0  0  0  0  0  0  0  0
  -24.2444  -10.2145   20.7422 C   0  0  1  0  0  0  0  0  0  0  0  0
  -23.9526  -13.7183   22.1816 C   0  0  1  0  0  0  0  0  0  0  0  0
  -26.8698  -29.7534   19.3638 C   0  0  2  0  0  0  0  0  0  0  0  0
  -19.2093  -19.8413   22.0662 C   0  0  0  0  0  0  0  0  0  0  0  0
  -20.9858  -14.4161   18.7072 C   0  0  0  0  0  0  0  0  0  0  0  0
  -19.7392  -16.5864   18.7728 C   0  0  0  0  0  0  0  0  0  0  0  0
  -19.1362  -14.7554   20.3560 C   0  0  0  0  0  0  0  0  0  0  0  0
  -22.3510  -19.4410   24.1746 C   0  0  0  0  0  0  0  0  0  0  0  0
  -30.2343  -25.7161   20.5477 C   0  0  0  0  0  0  0  0  0  0  0  0
  -30.1360  -19.3292   19.9153 C   0  0  0  0  0  0  0  0  0  0  0  0
  -29.7955  -17.9830   20.5249 C   0  0  0  0  0  0  0  0  0  1  0  0
  -21.2924  -16.0303   20.6988 C   0  0  1  0  0  0  0  0  0  0  0  0
  -20.3379  -19.0777   22.7414 C   0  0  2  0  0  0  0  0  0  0  0  0
  -20.3164  -15.4463   19.6387 C   0  0  0  0  0  0  0  0  0  0  0  0
  -24.6562  -29.5250   20.4270 N   0  0  0  0  0  0  0  0  0  0  0  0
  -25.7788  -30.2518   20.2934 N   0  0  0  0  0  0  0  0  0  0  0  0
  -23.3088  -14.8590   21.5269 N   0  0  0  0  0  0  0  0  0  0  0  0
  -27.9999  -27.7815   18.4031 N   0  0  0  0  0  0  0  0  0  0  0  0
  -26.8427  -32.2365   21.0281 N   0  0  0  0  0  0  0  0  0  0  0  0
  -22.8992  -32.2923   23.2286 N   0  0  0  0  0  0  0  0  0  0  0  0
  -24.0725  -11.3743   21.5906 N   0  0  0  0  0  0  0  0  0  0  0  0
  -20.6790  -16.9886   21.6120 N   0  0  0  0  0  0  0  0  0  0  0  0
  -29.1630  -26.5538   20.0564 N   0  0  0  0  0  0  0  0  0  0  0  0
  -21.2117  -20.0572   23.4471 N   0  3  0  0  0  0  0  0  0  0  0  0
  -24.8587  -33.4343   22.8898 O   0  0  0  0  0  0  0  0  0  0  0  0
  -24.4049  -13.0161   19.9731 O   0  0  0  0  0  0  0  0  0  0  0  0
  -21.1808  -14.2414   22.2524 O   0  0  0  0  0  0  0  0  0  0  0  0
  -22.0937  -18.7568   21.1130 O   0  0  0  0  0  0  0  0  0  0  0  0
  -29.9521  -26.6332   17.9051 O   0  0  0  0  0  0  0  0  0  0  0  0
  -18.8812  -28.4488   22.8846 O   0  0  0  0  0  0  0  0  0  0  0  0
  -29.0353  -20.2123   20.0953 O   0  0  0  0  0  0  0  0  0  0  0  0
  -28.6551  -17.4442   19.8575 O   0  0  0  0  0  0  0  0  0  1  0  0
  -18.3439  -23.1190   24.1919 F   0  0  0  0  0  0  0  0  0  0  0  0
  -18.0536  -27.6841   25.4090 F   0  0  0  0  0  0  0  0  0  0  0  0
  1  2  1  0  0  0  0
  1  5  2  0  0  0  0
  2  6  2  0  0  0  0
  3 10  2  0  0  0  0
  3 19  1  0  0  0  0
  4 11  1  0  0  0  0
  4 19  2  0  0  0  0
  5 21  1  0  0  0  0
  6 23  1  0  0  0  0
  7 12  2  0  0  0  0
  7 22  1  0  0  0  0
  8 13  2  0  0  0  0
  8 25  1  0  0  0  0
  9 14  1  0  0  0  0
  9 25  2  0  0  0  0
 10 26  1  0  0  0  0
 11 26  2  0  0  0  0
 12 28  1  0  0  0  0
 13 27  1  0  0  0  0
 14 27  2  0  0  0  0
 15 16  2  0  0  0  0
 15 29  1  0  0  0  0
 16 30  1  0  0  0  0
 17 24  1  0  0  0  0
 17 28  2  0  0  0  0
 18 30  2  0  0  0  0
 18 31  1  0  0  0  0
 19 32  1  0  0  0  0
 20 32  1  0  0  0  0
 20 33  2  0  0  0  0
 20 34  1  0  0  0  0
 21 23  2  0  0  0  0
 21 39  1  0  0  0  0
 22 24  2  0  0  0  0
 22 40  1  0  0  0  0
 23 48  1  0  0  0  0
 24 41  1  0  0  0  0
 25 56  1  0  0  0  0
 26 77  1  0  0  0  0
 27 78  1  0  0  0  0
 28 79  1  0  0  0  0
 29 31  2  0  0  0  0
 29 77  1  0  0  0  0
 30 80  1  0  0  0  0
 31 81  1  0  0  0  0
 32 62  2  0  0  0  0
 33 63  1  0  0  0  0
 33 66  1  0  0  0  0
 34 67  1  0  0  0  0
 34 72  2  0  0  0  0
 35 49  1  0  0  0  0
 35 68  1  0  0  0  0
 35 73  2  0  0  0  0
 36 59  1  0  0  0  0
 36 64  1  0  0  0  0
 36 74  2  0  0  0  0
 37 60  1  0  0  0  0
 37 69  1  0  0  0  0
 37 75  2  0  0  0  0
 38 65  1  0  0  0  0
 38 70  1  0  0  0  0
 38 76  2  0  0  0  0
 39 42  1  0  0  0  0
 40 49  1  0  0  0  0
 41 64  1  0  0  0  0
 42 44  1  0  0  0  0
 43 45  1  0  0  0  0
 43 46  1  0  0  0  0
 44 48  1  0  0  0  0
 45 50  1  0  0  0  0
 46 65  1  0  0  0  0
 47 50  1  0  0  0  0
 47 65  1  0  0  0  0
 48 68  1  0  0  0  0
 49 64  1  0  0  0  0
 50 63  1  0  0  0  0
 51 60  1  0  0  0  0
 52 61  1  0  0  0  0
 53 61  1  0  0  0  0
 54 61  1  0  0  0  0
 55 71  1  0  0  0  0
 56 70  1  0  0  0  0
 57 58  1  0  0  0  0
 57 78  1  0  0  0  0
 58 79  1  0  0  0  0
 59 61  1  0  0  0  0
 59 69  1  0  0  0  0
 60 71  1  0  0  0  0
 62 63  1  0  0  0  0
M  CHG  1  71   1
M  ISO  4  38 100  58 101  70 100  79 101
M  END
> <Batch ID>
0000

> <Smiles>
CNC(C)C(=O)NC(C(=O)N1Cc2cc([101O:1][101CH2:1]COc3ccc(C[100NH:0][100C:0](=O)N4CCCC(n5nc(-c6ccc(Oc7ccc(F)cc7F)cc6)c(C(N)=O)c5N)C4)cc3)ccc2CC1C(=O)NC1CCCc2ccccc21)C(C)(C)C

> <Shape>
0.269

> <Color>
0.051

> <Negative vol penalty>
0.000

$$$$

  -OEChem-04042320113D

 74 81  0     1  0  0  0  0  0999 V2000
  -30.6713  -22.7308   23.0468 C   0  0  0  0  0  0  0  0  0  0  0  0
  -30.0155  -23.6422   22.2269 C   0  0  0  0  0  0  0  0  0  0  0  0
  -27.5529  -17.6118   20.5783 C   0  0  0  0  0  0  0  0  0  0  0  0
  -26.2038  -17.8257   18.5855 C   0  0  0  0  0  0  0  0  0  0  0  0
  -30.5376  -22.8222   24.4307 C   0  0  0  0  0  0  0  0  0  0  0  0
  -29.2355  -24.6524   22.7908 C   0  0  0  0  0  0  0  0  0  0  0  0
  -27.4442  -28.0637   19.7317 C   0  0  0  0  0  0  0  0  0  0  0  0
  -27.4986  -16.2226   20.4659 C   0  0  0  0  0  0  0  0  0  0  0  0
  -26.1495  -16.4364   18.4731 C   0  0  0  0  0  0  0  0  0  0  0  0
  -26.4146  -27.8006   18.8291 C   0  0  0  0  0  0  0  0  0  0  0  0
  -29.0095  -13.8102   18.6410 C   0  0  0  0  0  0  0  0  0  0  0  0
  -30.1960  -13.0986   18.8183 C   0  0  0  0  0  0  0  0  0  0  0  0
  -24.8628  -28.9523   20.2729 C   0  0  0  0  0  0  0  0  0  0  0  0
  -29.2068  -11.9118   20.6757 C   0  0  0  0  0  0  0  0  0  0  0  0
  -26.9054  -18.4134   19.6381 C   0  0  0  0  0  0  0  0  0  0  0  0
  -27.9232  -20.7101   19.1945 C   0  0  0  0  0  0  0  0  0  0  0  0
  -29.7453  -23.8268   25.0105 C   0  0  0  0  0  0  0  0  0  0  0  0
  -27.1882  -28.7647   20.9189 C   0  0  0  0  0  0  0  0  0  0  0  0
  -29.1074  -24.7759   24.1861 C   0  0  0  0  0  0  0  0  0  0  0  0
  -25.8913  -29.2252   21.1877 C   0  0  0  0  0  0  0  0  0  0  0  0
  -26.7970  -15.6349   19.4134 C   0  0  0  0  0  0  0  0  0  0  0  0
  -25.1232  -28.2425   19.1010 C   0  0  0  0  0  0  0  0  0  0  0  0
  -27.9216  -13.5726   19.4811 C   0  0  0  0  0  0  0  0  0  0  0  0
  -30.2947  -12.1495   19.8356 C   0  0  0  0  0  0  0  0  0  0  0  0
  -28.0202  -12.6234   20.4984 C   0  0  0  0  0  0  0  0  0  0  0  0
  -26.9606  -19.8485   19.7539 C   0  0  0  0  0  0  0  0  0  0  0  0
  -27.5329  -21.9655   19.5924 C   0  0  0  0  0  0  0  0  0  0  0  0
  -29.0677  -20.4032   18.3872 C   0  0  0  0  0  0  0  0  0  0  0  0
  -27.4207  -28.0908   24.0166 C   0  0  0  0  0  0  0  0  0  0  0  0
  -26.6555  -31.2246   24.3574 C   0  0  0  0  0  0  0  0  0  0  0  0
  -25.1909  -34.0096   23.0361 C   0  0  0  0  0  0  0  0  0  0  0  0
  -22.6185  -24.9339   20.5016 C   0  0  0  0  0  0  0  0  0  0  0  0
  -29.6417  -23.8842   26.5142 C   0  0  0  0  0  0  0  0  0  0  0  0
  -28.3149  -29.0636   21.8695 C   0  0  0  0  0  0  0  0  0  0  0  0
  -25.5681  -29.9997   22.4384 C   0  0  0  0  0  0  0  0  0  0  0  0
  -28.4495  -24.7039   26.9971 C   0  0  0  0  0  0  0  0  0  0  0  0
  -24.6955  -23.7643   23.2068 C   0  0  0  0  0  0  0  0  0  0  0  0
  -28.4215  -26.0488   26.2865 C   0  0  0  0  0  0  0  0  0  0  0  0
  -25.5551  -22.6883   22.5445 C   0  0  0  0  0  0  0  0  0  0  0  0
  -23.2937  -23.8075   22.6071 C   0  0  0  0  0  0  0  0  0  0  0  0
  -24.1410  -22.9135   20.4531 C   0  0  0  0  0  0  0  0  0  0  0  0
  -28.2290  -25.8644   24.7759 C   0  0  1  0  0  0  0  0  0  0  0  0
  -27.8390  -29.3392   23.2924 C   0  0  1  0  0  0  0  0  0  0  0  0
  -25.5720  -22.8591   21.0150 C   0  0  2  0  0  0  0  0  0  0  0  0
  -24.6891  -36.4107   23.5654 C   0  0  0  0  0  0  0  0  0  0  0  0
  -24.3913  -30.3421   26.2025 C   0  0  0  0  0  0  0  0  0  0  0  0
  -23.3779  -32.6154   25.9314 C   0  0  0  0  0  0  0  0  0  0  0  0
  -25.6323  -32.3727   26.9714 C   0  0  0  0  0  0  0  0  0  0  0  0
  -26.8002  -34.9716   20.7462 C   0  0  0  0  0  0  0  0  0  0  0  0
  -22.8327  -26.2558   17.1363 C   0  0  0  0  0  0  0  0  0  0  0  0
  -24.2209  -26.7951   17.4436 C   0  0  0  0  0  0  0  0  0  1  0  0
  -22.0658  -25.9051   18.4017 C   0  0  0  0  0  0  0  0  0  0  0  0
  -25.3684  -32.0032   24.4843 C   0  0  1  0  0  0  0  0  0  0  0  0
  -25.6733  -35.4446   22.9245 C   0  0  2  0  0  0  0  0  0  0  0  0
  -24.6978  -31.8171   25.8747 C   0  0  0  0  0  0  0  0  0  0  0  0
  -26.0291  -20.5013   20.4540 N   0  0  0  0  0  0  0  0  0  0  0  0
  -26.4045  -21.7864   20.3372 N   0  0  0  0  0  0  0  0  0  0  0  0
  -26.7024  -30.2613   23.3397 N   0  0  0  0  0  0  0  0  0  0  0  0
  -23.3451  -23.9309   21.1508 N   0  0  0  0  0  0  0  0  0  0  0  0
  -28.0484  -23.1940   19.3744 N   0  0  0  0  0  0  0  0  0  0  0  0
  -29.3224  -19.0616   18.0717 N   0  0  0  0  0  0  0  0  0  0  0  0
  -28.4167  -27.1382   24.1171 N   0  0  0  0  0  0  0  0  0  0  0  0
  -25.6947  -33.3873   24.1587 N   0  0  0  0  0  0  0  0  0  0  0  0
  -25.8408  -35.8250   21.4933 N   0  3  0  0  0  0  0  0  0  0  0  0
  -29.8508  -21.2908   17.9721 O   0  0  0  0  0  0  0  0  0  0  0  0
  -26.2793  -27.9993   24.4531 O   0  0  0  0  0  0  0  0  0  0  0  0
  -27.5876  -31.4674   25.1280 O   0  0  0  0  0  0  0  0  0  0  0  0
  -24.4392  -33.4935   22.2120 O   0  0  0  0  0  0  0  0  0  0  0  0
  -21.9086  -25.7574   21.0762 O   0  0  0  0  0  0  0  0  0  0  0  0
  -26.7440  -14.2793   19.3033 O   0  0  0  0  0  0  0  0  0  0  0  0
  -24.1163  -27.9865   18.2221 O   0  0  0  0  0  0  0  0  0  1  0  0
  -22.7789  -24.9073   19.1416 O   0  0  0  0  0  0  0  0  0  0  0  0
  -31.4336  -11.4651   20.0048 F   0  0  0  0  0  0  0  0  0  0  0  0
  -26.9781  -12.3900   21.3079 F   0  0  0  0  0  0  0  0  0  0  0  0
  1  2  1  0  0  0  0
  1  5  2  0  0  0  0
  2  6  2  0  0  0  0
  3  8  2  0  0  0  0
  3 15  1  0  0  0  0
  4  9  1  0  0  0  0
  4 15  2  0  0  0  0
  5 17  1  0  0  0  0
  6 19  1  0  0  0  0
  7 10  2  0  0  0  0
  7 18  1  0  0  0  0
  8 21  1  0  0  0  0
  9 21  2  0  0  0  0
 10 22  1  0  0  0  0
 11 12  2  0  0  0  0
 11 23  1  0  0  0  0
 12 24  1  0  0  0  0
 13 20  1  0  0  0  0
 13 22  2  0  0  0  0
 14 24  2  0  0  0  0
 14 25  1  0  0  0  0
 15 26  1  0  0  0  0
 16 26  1  0  0  0  0
 16 27  2  0  0  0  0
 16 28  1  0  0  0  0
 17 19  2  0  0  0  0
 17 33  1  0  0  0  0
 18 20  2  0  0  0  0
 18 34  1  0  0  0  0
 19 42  1  0  0  0  0
 20 35  1  0  0  0  0
 21 70  1  0  0  0  0
 22 71  1  0  0  0  0
 23 25  2  0  0  0  0
 23 70  1  0  0  0  0
 24 73  1  0  0  0  0
 25 74  1  0  0  0  0
 26 56  2  0  0  0  0
 27 57  1  0  0  0  0
 27 60  1  0  0  0  0
 28 61  1  0  0  0  0
 28 65  2  0  0  0  0
 29 43  1  0  0  0  0
 29 62  1  0  0  0  0
 29 66  2  0  0  0  0
 30 53  1  0  0  0  0
 30 58  1  0  0  0  0
 30 67  2  0  0  0  0
 31 54  1  0  0  0  0
 31 63  1  0  0  0  0
 31 68  2  0  0  0  0
 32 59  1  0  0  0  0
 32 69  2  0  0  0  0
 32 72  1  0  0  0  0
 33 36  1  0  0  0  0
 34 43  1  0  0  0  0
 35 58  1  0  0  0  0
 36 38  1  0  0  0  0
 37 39  1  0  0  0  0
 37 40  1  0  0  0  0
 38 42  1  0  0  0  0
 39 44  1  0  0  0  0
 40 59  1  0  0  0  0
 41 44  1  0  0  0  0
 41 59  1  0  0  0  0
 42 62  1  0  0  0  0
 43 58  1  0  0  0  0
 44 57  1  0  0  0  0
 45 54  1  0  0  0  0
 46 55  1  0  0  0  0
 47 55  1  0  0  0  0
 48 55  1  0  0  0  0
 49 64  1  0  0  0  0
 50 51  1  0  0  0  0
 50 52  1  0  0  0  0
 51 71  1  0  0  0  0
 52 72  1  0  0  0  0
 53 55  1  0  0  0  0
 53 63  1  0  0  0  0
 54 64  1  0  0  0  0
 56 57  1  0  0  0  0
M  CHG  1  64   1
M  ISO  4  32 100  51 101  71 101  72 100
M  END
> <Batch ID>
0000

> <Smiles>
CNC(C)C(=O)NC(C(=O)N1Cc2cc([101O:1][101CH2:1]CC[100O:0][100C:0](=O)N3CCCC(n4nc(-c5ccc(Oc6ccc(F)cc6F)cc5)c(C(N)=O)c4N)C3)ccc2CC1C(=O)NC1CCCc2ccccc21)C(C)(C)C

> <Shape>
0.211

> <Color>
0.062

> <Negative vol penalty>
0.000

$$$$

  -OEChem-04042320113D

 95103  0     1  0  0  0  0  0999 V2000
  -18.0350  -25.4479   22.9267 C   0  0  0  0  0  0  0  0  0  0  0  0
  -19.0121  -25.4882   21.9372 C   0  0  0  0  0  0  0  0  0  0  0  0
  -23.3969  -11.7591   23.2540 C   0  0  0  0  0  0  0  0  0  0  0  0
  -22.8785  -14.0989   22.9478 C   0  0  0  0  0  0  0  0  0  0  0  0
  -17.6469  -26.6225   23.5698 C   0  0  0  0  0  0  0  0  0  0  0  0
  -19.6009  -26.7034   21.5894 C   0  0  0  0  0  0  0  0  0  0  0  0
  -25.4035  -27.6212   19.8593 C   0  0  0  0  0  0  0  0  0  0  0  0
  -28.5203  -19.4339   20.5247 C   0  0  0  0  0  0  0  0  0  0  0  0
  -30.8154  -18.9281   21.0850 C   0  0  0  0  0  0  0  0  0  0  0  0
  -22.5447  -11.7146   24.3573 C   0  0  0  0  0  0  0  0  0  0  0  0
  -22.0263  -14.0544   24.0512 C   0  0  0  0  0  0  0  0  0  0  0  0
  -25.9973  -27.7631   18.6059 C   0  0  0  0  0  0  0  0  0  0  0  0
  -28.7518  -20.7828   20.7941 C   0  0  0  0  0  0  0  0  0  0  0  0
  -31.0469  -20.2770   21.3544 C   0  0  0  0  0  0  0  0  0  0  0  0
  -19.2181  -11.5151   24.9289 C   0  0  0  0  0  0  0  0  0  0  0  0
  -18.3425  -10.4339   25.0285 C   0  0  0  0  0  0  0  0  0  0  0  0
  -25.8746  -30.1622   18.8261 C   0  0  0  0  0  0  0  0  0  0  0  0
  -19.3493   -9.8126   27.1350 C   0  0  0  0  0  0  0  0  0  0  0  0
  -23.5639  -12.9513   22.5492 C   0  0  0  0  0  0  0  0  0  0  0  0
  -24.1093  -12.7480   20.0655 C   0  0  0  0  0  0  0  0  0  0  0  0
  -18.2381  -27.8513   23.2365 C   0  0  0  0  0  0  0  0  0  0  0  0
  -25.0302  -28.7505   20.6020 C   0  0  0  0  0  0  0  0  0  0  0  0
  -19.2193  -27.8958   22.2277 C   0  0  0  0  0  0  0  0  0  0  0  0
  -25.2786  -30.0319   20.0897 C   0  0  0  0  0  0  0  0  0  0  0  0
  -29.5521  -18.5066   20.6702 C   0  0  0  0  0  0  0  0  0  0  0  0
  -21.8594  -12.8623   24.7559 C   0  0  0  0  0  0  0  0  0  0  0  0
  -30.0151  -21.2043   21.2089 C   0  0  0  0  0  0  0  0  0  0  0  0
  -26.2303  -29.0336   18.0878 C   0  0  0  0  0  0  0  0  0  0  0  0
  -20.1594  -11.7450   25.9323 C   0  0  0  0  0  0  0  0  0  0  0  0
  -18.4080   -9.5827   26.1316 C   0  0  0  0  0  0  0  0  0  0  0  0
  -20.2250  -10.8937   27.0354 C   0  0  0  0  0  0  0  0  0  0  0  0
  -24.4445  -12.9979   21.4097 C   0  0  0  0  0  0  0  0  0  0  0  0
  -25.2871  -12.9201   19.3802 C   0  0  0  0  0  0  0  0  0  0  0  0
  -22.8461  -12.3921   19.4879 C   0  0  0  0  0  0  0  0  0  0  0  0
  -22.2809  -29.8986   21.7097 C   0  0  0  0  0  0  0  0  0  0  0  0
  -24.2155  -32.0701   23.1465 C   0  0  0  0  0  0  0  0  0  0  0  0
  -31.5399  -29.2315   20.0445 C   0  0  0  0  0  0  0  0  0  0  0  0
  -27.2086  -33.7092   23.1801 C   0  0  0  0  0  0  0  0  0  0  0  0
  -30.2309  -16.0872   20.4909 C   0  0  0  0  0  0  0  0  0  0  0  0
  -17.7521  -29.1015   23.9261 C   0  0  0  0  0  0  0  0  0  0  0  0
  -24.4151  -28.5808   21.9641 C   0  0  0  0  0  0  0  0  0  0  0  0
  -24.9151  -31.2765   20.8561 C   0  0  0  0  0  0  0  0  0  0  0  0
  -18.6923  -30.2928   23.7612 C   0  0  0  0  0  0  0  0  0  0  0  0
  -30.0306  -12.5751   19.9408 C   0  0  0  0  0  0  0  0  0  0  0  0
  -19.1277  -30.4318   22.3059 C   0  0  0  0  0  0  0  0  0  0  0  0
  -28.5439  -12.2633   20.1267 C   0  0  0  0  0  0  0  0  0  0  0  0
  -30.5094  -13.6538   20.9108 C   0  0  0  0  0  0  0  0  0  0  0  0
  -28.2335  -14.5803   21.0870 C   0  0  0  0  0  0  0  0  0  0  0  0
  -19.8991  -29.1910   21.8399 C   0  0  1  0  0  0  0  0  0  0  0  0
  -23.6063  -29.7951   22.4100 C   0  0  1  0  0  0  0  0  0  0  0  0
  -27.6899  -13.5457   20.0880 C   0  0  2  0  0  0  0  0  0  0  0  0
  -28.4853  -35.4533   24.4552 C   0  0  0  0  0  0  0  0  0  0  0  0
  -22.5076  -34.2515   21.8680 C   0  0  0  0  0  0  0  0  0  0  0  0
  -24.3393  -35.8827   22.3699 C   0  0  0  0  0  0  0  0  0  0  0  0
  -23.1763  -34.7032   24.2351 C   0  0  0  0  0  0  0  0  0  0  0  0
  -29.3651  -31.7998   23.8603 C   0  0  0  0  0  0  0  0  0  0  0  0
  -30.4375  -28.9080   21.0303 C   0  0  0  0  0  0  0  0  0  0  0  0
  -29.6003  -24.8318   21.6240 C   0  0  0  0  0  0  0  0  0  0  0  0
  -28.4630  -25.8364   21.4764 C   0  0  0  0  0  0  0  0  0  0  0  0
  -33.0815  -31.0813   19.4140 C   0  0  0  0  0  0  0  0  0  0  0  0
  -29.1445  -23.4154   21.3035 C   0  0  0  0  0  0  0  0  0  0  0  0
  -28.9292  -27.2581   21.7553 C   0  0  0  0  0  0  0  0  0  0  0  0
  -32.4823  -31.7740   18.2036 C   0  0  0  0  0  0  0  0  0  0  0  0
  -27.7173  -28.1537   16.4537 C   0  0  0  0  0  0  0  0  0  1  0  0
  -28.7671  -28.7613   15.5435 C   0  0  0  0  0  0  0  0  0  0  0  0
  -31.1988  -31.4265   16.2659 C   0  0  0  0  0  0  0  0  0  0  0  0
  -30.4859  -30.3616   15.4551 C   0  0  0  0  0  0  0  0  0  0  0  0
  -24.7805  -33.4168   22.7642 C   0  0  1  0  0  0  0  0  0  0  0  0
  -28.2033  -33.9672   24.2975 C   0  0  2  0  0  0  0  0  0  0  0  0
  -23.7061  -34.5403   22.7938 C   0  0  0  0  0  0  0  0  0  0  0  0
  -25.7343  -13.3053   21.5709 N   0  0  0  0  0  0  0  0  0  0  0  0
  -26.2199  -13.2495   20.3191 N   0  0  0  0  0  0  0  0  0  0  0  0
  -24.3103  -31.0584   22.1805 N   0  0  0  0  0  0  0  0  0  0  0  0
  -29.6560  -14.8402   20.8155 N   0  0  0  0  0  0  0  0  0  0  0  0
  -25.6054  -12.8203   18.0721 N   0  0  0  0  0  0  0  0  0  0  0  0
  -21.7382  -12.2568   20.3356 N   0  0  0  0  0  0  0  0  0  0  0  0
  -29.3171  -17.1363   20.3966 N   0  0  0  0  0  0  0  0  0  0  0  0
  -21.2560  -29.2212   22.3422 N   0  0  0  0  0  0  0  0  0  0  0  0
  -31.9985  -30.5038   20.2425 N   0  0  0  0  0  0  0  0  0  0  0  0
  -25.9143  -33.6507   23.6519 N   0  0  0  0  0  0  0  0  0  0  0  0
  -29.4909  -33.2719   24.0156 N   0  3  0  0  0  0  0  0  0  0  0  0
  -22.7077  -12.1838   18.2587 O   0  0  0  0  0  0  0  0  0  0  0  0
  -22.1942  -30.5464   20.6731 O   0  0  0  0  0  0  0  0  0  0  0  0
  -23.7151  -31.9194   24.2639 O   0  0  0  0  0  0  0  0  0  0  0  0
  -31.9341  -28.4292   19.2024 O   0  0  0  0  0  0  0  0  0  0  0  0
  -27.5457  -33.5768   22.0057 O   0  0  0  0  0  0  0  0  0  0  0  0
  -31.4408  -16.2096   20.2832 O   0  0  0  0  0  0  0  0  0  0  0  0
  -21.0276  -12.8192   25.8323 O   0  0  0  0  0  0  0  0  0  0  0  0
  -30.2427  -22.5299   21.4737 O   0  0  0  0  0  0  0  0  0  0  0  0
  -26.8092  -29.1750   16.8644 O   0  0  0  0  0  0  0  0  0  1  0  0
  -29.9689  -27.5901   20.8395 O   0  0  0  0  0  0  0  0  0  0  0  0
  -31.7800  -30.8231   17.4155 O   0  0  0  0  0  0  0  0  0  0  0  0
  -29.4854  -29.7566   16.2623 O   0  0  0  0  0  0  0  0  0  0  0  0
  -17.5661   -8.5454   26.2279 F   0  0  0  0  0  0  0  0  0  0  0  0
  -21.1264  -11.1102   28.0031 F   0  0  0  0  0  0  0  0  0  0  0  0
  1  2  1  0  0  0  0
  1  5  2  0  0  0  0
  2  6  2  0  0  0  0
  3 10  2  0  0  0  0
  3 19  1  0  0  0  0
  4 11  1  0  0  0  0
  4 19  2  0  0  0  0
  5 21  1  0  0  0  0
  6 23  1  0  0  0  0
  7 12  2  0  0  0  0
  7 22  1  0  0  0  0
  8 13  2  0  0  0  0
  8 25  1  0  0  0  0
  9 14  1  0  0  0  0
  9 25  2  0  0  0  0
 10 26  1  0  0  0  0
 11 26  2  0  0  0  0
 12 28  1  0  0  0  0
 13 27  1  0  0  0  0
 14 27  2  0  0  0  0
 15 16  2  0  0  0  0
 15 29  1  0  0  0  0
 16 30  1  0  0  0  0
 17 24  1  0  0  0  0
 17 28  2  0  0  0  0
 18 30  2  0  0  0  0
 18 31  1  0  0  0  0
 19 32  1  0  0  0  0
 20 32  1  0  0  0  0
 20 33  2  0  0  0  0
 20 34  1  0  0  0  0
 21 23  2  0  0  0  0
 21 40  1  0  0  0  0
 22 24  2  0  0  0  0
 22 41  1  0  0  0  0
 23 49  1  0  0  0  0
 24 42  1  0  0  0  0
 25 77  1  0  0  0  0
 26 88  1  0  0  0  0
 27 89  1  0  0  0  0
 28 90  1  0  0  0  0
 29 31  2  0  0  0  0
 29 88  1  0  0  0  0
 30 94  1  0  0  0  0
 31 95  1  0  0  0  0
 32 71  2  0  0  0  0
 33 72  1  0  0  0  0
 33 75  1  0  0  0  0
 34 76  1  0  0  0  0
 34 82  2  0  0  0  0
 35 50  1  0  0  0  0
 35 78  1  0  0  0  0
 35 83  2  0  0  0  0
 36 68  1  0  0  0  0
 36 73  1  0  0  0  0
 36 84  2  0  0  0  0
 37 57  1  0  0  0  0
 37 79  1  0  0  0  0
 37 85  2  0  0  0  0
 38 69  1  0  0  0  0
 38 80  1  0  0  0  0
 38 86  2  0  0  0  0
 39 74  1  0  0  0  0
 39 77  1  0  0  0  0
 39 87  2  0  0  0  0
 40 43  1  0  0  0  0
 41 50  1  0  0  0  0
 42 73  1  0  0  0  0
 43 45  1  0  0  0  0
 44 46  1  0  0  0  0
 44 47  1  0  0  0  0
 45 49  1  0  0  0  0
 46 51  1  0  0  0  0
 47 74  1  0  0  0  0
 48 51  1  0  0  0  0
 48 74  1  0  0  0  0
 49 78  1  0  0  0  0
 50 73  1  0  0  0  0
 51 72  1  0  0  0  0
 52 69  1  0  0  0  0
 53 70  1  0  0  0  0
 54 70  1  0  0  0  0
 55 70  1  0  0  0  0
 56 81  1  0  0  0  0
 57 91  1  0  0  0  0
 58 59  1  0  0  0  0
 58 61  1  0  0  0  0
 59 62  1  0  0  0  0
 60 63  1  0  0  0  0
 60 79  1  0  0  0  0
 61 89  1  0  0  0  0
 62 91  1  0  0  0  0
 63 92  1  0  0  0  0
 64 65  1  0  0  0  0
 64 90  1  0  0  0  0
 65 93  1  0  0  0  0
 66 67  1  0  0  0  0
 66 92  1  0  0  0  0
 67 93  1  0  0  0  0
 68 70  1  0  0  0  0
 68 80  1  0  0  0  0
 69 81  1  0  0  0  0
 71 72  1  0  0  0  0
M  CHG  1  81   1
M  ISO  4  39 100  64 101  77 100  90 101
M  END
> <Batch ID>
0000

> <Smiles>
CNC(C)C(=O)NC(C(=O)N1Cc2cc([101O:1][101CH2:1]COCCOCCNC(=O)COCCCCOc3ccc([100NH:0][100C:0](=O)N4CCCC(n5nc(-c6ccc(Oc7ccc(F)cc7F)cc6)c(C(N)=O)c5N)C4)cc3)ccc2CC1C(=O)NC1CCCc2ccccc21)C(C)(C)C

> <Shape>
0.290

> <Color>
0.097

> <Negative vol penalty>
0.000

$$$$

  -OEChem-04042320113D

 82 89  0     1  0  0  0  0  0999 V2000
  -32.1465  -13.7135   21.4347 C   0  0  0  0  0  0  0  0  0  0  0  0
  -31.4367  -14.9100   21.4328 C   0  0  0  0  0  0  0  0  0  0  0  0
  -28.9743  -26.3807   20.6244 C   0  0  0  0  0  0  0  0  0  0  0  0
  -27.0125  -25.0317   20.2136 C   0  0  0  0  0  0  0  0  0  0  0  0
  -31.5565  -12.5535   20.9346 C   0  0  0  0  0  0  0  0  0  0  0  0
  -30.1368  -14.9474   20.9296 C   0  0  0  0  0  0  0  0  0  0  0  0
  -26.9756  -17.5530   23.9066 C   0  0  0  0  0  0  0  0  0  0  0  0
  -29.6997  -25.2308   20.9360 C   0  0  0  0  0  0  0  0  0  0  0  0
  -27.7380  -23.8818   20.5251 C   0  0  0  0  0  0  0  0  0  0  0  0
  -27.0354  -18.9441   23.8356 C   0  0  0  0  0  0  0  0  0  0  0  0
  -29.1696  -20.5569   20.8625 C   0  0  0  0  0  0  0  0  0  0  0  0
  -29.0288  -19.4528   20.0219 C   0  0  0  0  0  0  0  0  0  0  0  0
  -25.0967  -18.9482   22.4002 C   0  0  0  0  0  0  0  0  0  0  0  0
  -29.8475  -20.7627   18.1642 C   0  0  0  0  0  0  0  0  0  0  0  0
  -27.6306  -26.2812   20.2633 C   0  0  0  0  0  0  0  0  0  0  0  0
  -26.7352  -28.0655   18.6752 C   0  0  0  0  0  0  0  0  0  0  0  0
  -30.2451  -12.5746   20.4339 C   0  0  0  0  0  0  0  0  0  0  0  0
  -25.9808  -16.8472   23.2149 C   0  0  0  0  0  0  0  0  0  0  0  0
  -29.5291  -13.7869   20.4211 C   0  0  0  0  0  0  0  0  0  0  0  0
  -25.0249  -17.5483   22.4660 C   0  0  0  0  0  0  0  0  0  0  0  0
  -29.0816  -23.9814   20.8863 C   0  0  0  0  0  0  0  0  0  0  0  0
  -26.0976  -19.6418   23.0800 C   0  0  0  0  0  0  0  0  0  0  0  0
  -29.6493  -21.7640   20.3540 C   0  0  0  0  0  0  0  0  0  0  0  0
  -29.3678  -19.5557   18.6727 C   0  0  0  0  0  0  0  0  0  0  0  0
  -29.9883  -21.8669   19.0048 C   0  0  0  0  0  0  0  0  0  0  0  0
  -26.8806  -27.4687   19.9419 C   0  0  0  0  0  0  0  0  0  0  0  0
  -25.9351  -29.1589   18.9007 C   0  0  0  0  0  0  0  0  0  0  0  0
  -27.2751  -27.6672   17.4081 C   0  0  0  0  0  0  0  0  0  0  0  0
  -25.9738  -14.6746   20.8947 C   0  0  0  0  0  0  0  0  0  0  0  0
  -22.7899  -14.5955   21.5102 C   0  0  0  0  0  0  0  0  0  0  0  0
  -20.0370  -16.1913   22.7438 C   0  0  0  0  0  0  0  0  0  0  0  0
  -21.8864  -30.4485   23.1191 C   0  0  0  0  0  0  0  0  0  0  0  0
  -29.6666  -11.3055   19.8603 C   0  0  0  0  0  0  0  0  0  0  0  0
  -25.9138  -15.3484   23.3233 C   0  0  0  0  0  0  0  0  0  0  0  0
  -23.9247  -16.8389   21.7213 C   0  0  0  0  0  0  0  0  0  0  0  0
  -28.1502  -11.3500   19.6898 C   0  0  0  0  0  0  0  0  0  0  0  0
  -24.7964  -32.3288   22.2987 C   0  0  0  0  0  0  0  0  0  0  0  0
  -27.7249  -12.6603   19.0350 C   0  0  0  0  0  0  0  0  0  0  0  0
  -25.6474  -31.3502   21.4873 C   0  0  0  0  0  0  0  0  0  0  0  0
  -24.0456  -31.6234   23.4259 C   0  0  0  0  0  0  0  0  0  0  0  0
  -24.0810  -29.4921   22.1889 C   0  0  0  0  0  0  0  0  0  0  0  0
  -28.1080  -13.8624   19.9065 C   0  0  1  0  0  0  0  0  0  0  0  0
  -25.1676  -14.6981   22.1624 C   0  0  1  0  0  0  0  0  0  0  0  0
  -24.8136  -30.1477   21.0058 C   0  0  2  0  0  0  0  0  0  0  0  0
  -17.5681  -15.8884   23.0759 C   0  0  0  0  0  0  0  0  0  0  0  0
  -22.3295  -15.1090   18.5380 C   0  0  0  0  0  0  0  0  0  0  0  0
  -19.9673  -15.7344   19.0832 C   0  0  0  0  0  0  0  0  0  0  0  0
  -20.7856  -13.4261   19.5573 C   0  0  0  0  0  0  0  0  0  0  0  0
  -20.2838  -16.4435   25.6822 C   0  0  0  0  0  0  0  0  0  0  0  0
  -19.8018  -29.1627   22.7186 C   0  0  0  0  0  0  0  0  0  0  0  0
  -19.4491  -28.3845   23.9736 C   0  0  0  0  0  0  0  0  0  0  0  0
  -26.6857  -21.6880   24.1398 C   0  0  0  0  0  0  0  0  0  1  0  0
  -26.0302  -23.0515   24.2427 C   0  0  0  0  0  0  0  0  0  0  0  0
  -19.7525  -26.3315   25.0764 C   0  0  0  0  0  0  0  0  0  0  0  0
  -20.4048  -24.9683   24.9492 C   0  0  0  0  0  0  0  0  0  0  0  0
  -23.9621  -24.1314   24.5248 C   0  0  0  0  0  0  0  0  0  0  0  0
  -22.4746  -23.8861   24.6900 C   0  0  0  0  0  0  0  0  0  0  0  0
  -21.5831  -15.3443   20.9984 C   0  0  1  0  0  0  0  0  0  0  0  0
  -18.9479  -15.7308   23.6958 C   0  0  2  0  0  0  0  0  0  0  0  0
  -21.1881  -14.9170   19.5566 C   0  0  0  0  0  0  0  0  0  0  0  0
  -26.2255  -28.1283   20.9010 N   0  0  0  0  0  0  0  0  0  0  0  0
  -25.6609  -29.1511   20.2367 N   0  0  0  0  0  0  0  0  0  0  0  0
  -23.9052  -15.3727   21.8532 N   0  0  0  0  0  0  0  0  0  0  0  0
  -23.2734  -30.4940   22.9023 N   0  0  0  0  0  0  0  0  0  0  0  0
  -25.4466  -30.1168   18.0844 N   0  0  0  0  0  0  0  0  0  0  0  0
  -28.0768  -26.5188   17.3547 N   0  0  0  0  0  0  0  0  0  0  0  0
  -27.1781  -14.0063   21.0061 N   0  0  0  0  0  0  0  0  0  0  0  0
  -20.5304  -15.1481   21.9892 N   0  0  0  0  0  0  0  0  0  0  0  0
  -21.2296  -29.3471   22.5840 N   0  0  0  0  0  0  0  0  0  0  0  0
  -18.9908  -16.5259   24.9555 N   0  3  0  0  0  0  0  0  0  0  0  0
  -27.0666  -28.3197   16.3573 O   0  0  0  0  0  0  0  0  0  0  0  0
  -25.5349  -15.2209   19.8894 O   0  0  0  0  0  0  0  0  0  0  0  0
  -22.7421  -13.3668   21.6090 O   0  0  0  0  0  0  0  0  0  0  0  0
  -20.4099  -17.3603   22.6737 O   0  0  0  0  0  0  0  0  0  0  0  0
  -21.2775  -31.3273   23.7388 O   0  0  0  0  0  0  0  0  0  0  0  0
  -29.7893  -22.8591   21.1900 O   0  0  0  0  0  0  0  0  0  0  0  0
  -26.1541  -20.9995   23.0085 O   0  0  0  0  0  0  0  0  0  1  0  0
  -20.0550  -27.1006   23.9186 O   0  0  0  0  0  0  0  0  0  0  0  0
  -24.6294  -22.8813   24.4219 O   0  0  0  0  0  0  0  0  0  0  0  0
  -21.8089  -25.1371   24.8135 O   0  0  0  0  0  0  0  0  0  0  0  0
  -29.2339  -18.4949   17.8659 F   0  0  0  0  0  0  0  0  0  0  0  0
  -30.4508  -23.0235   18.5108 F   0  0  0  0  0  0  0  0  0  0  0  0
  1  2  1  0  0  0  0
  1  5  2  0  0  0  0
  2  6  2  0  0  0  0
  3  8  2  0  0  0  0
  3 15  1  0  0  0  0
  4  9  1  0  0  0  0
  4 15  2  0  0  0  0
  5 17  1  0  0  0  0
  6 19  1  0  0  0  0
  7 10  2  0  0  0  0
  7 18  1  0  0  0  0
  8 21  1  0  0  0  0
  9 21  2  0  0  0  0
 10 22  1  0  0  0  0
 11 12  2  0  0  0  0
 11 23  1  0  0  0  0
 12 24  1  0  0  0  0
 13 20  1  0  0  0  0
 13 22  2  0  0  0  0
 14 24  2  0  0  0  0
 14 25  1  0  0  0  0
 15 26  1  0  0  0  0
 16 26  1  0  0  0  0
 16 27  2  0  0  0  0
 16 28  1  0  0  0  0
 17 19  2  0  0  0  0
 17 33  1  0  0  0  0
 18 20  2  0  0  0  0
 18 34  1  0  0  0  0
 19 42  1  0  0  0  0
 20 35  1  0  0  0  0
 21 76  1  0  0  0  0
 22 77  1  0  0  0  0
 23 25  2  0  0  0  0
 23 76  1  0  0  0  0
 24 81  1  0  0  0  0
 25 82  1  0  0  0  0
 26 61  2  0  0  0  0
 27 62  1  0  0  0  0
 27 65  1  0  0  0  0
 28 66  1  0  0  0  0
 28 71  2  0  0  0  0
 29 43  1  0  0  0  0
 29 67  1  0  0  0  0
 29 72  2  0  0  0  0
 30 58  1  0  0  0  0
 30 63  1  0  0  0  0
 30 73  2  0  0  0  0
 31 59  1  0  0  0  0
 31 68  1  0  0  0  0
 31 74  2  0  0  0  0
 32 64  1  0  0  0  0
 32 69  1  0  0  0  0
 32 75  2  0  0  0  0
 33 36  1  0  0  0  0
 34 43  1  0  0  0  0
 35 63  1  0  0  0  0
 36 38  1  0  0  0  0
 37 39  1  0  0  0  0
 37 40  1  0  0  0  0
 38 42  1  0  0  0  0
 39 44  1  0  0  0  0
 40 64  1  0  0  0  0
 41 44  1  0  0  0  0
 41 64  1  0  0  0  0
 42 67  1  0  0  0  0
 43 63  1  0  0  0  0
 44 62  1  0  0  0  0
 45 59  1  0  0  0  0
 46 60  1  0  0  0  0
 47 60  1  0  0  0  0
 48 60  1  0  0  0  0
 49 70  1  0  0  0  0
 50 51  1  0  0  0  0
 50 69  1  0  0  0  0
 51 78  1  0  0  0  0
 52 53  1  0  0  0  0
 52 77  1  0  0  0  0
 53 79  1  0  0  0  0
 54 55  1  0  0  0  0
 54 78  1  0  0  0  0
 55 80  1  0  0  0  0
 56 57  1  0  0  0  0
 56 79  1  0  0  0  0
 57 80  1  0  0  0  0
 58 60  1  0  0  0  0
 58 68  1  0  0  0  0
 59 70  1  0  0  0  0
 61 62  1  0  0  0  0
M  CHG  1  70   1
M  ISO  4  32 100  52 101  69 100  77 101
M  END
> <Batch ID>
0000

> <Smiles>
CNC(C)C(=O)NC(C(=O)N1Cc2cc([101O:1][101CH2:1]COCCOCCOCC[100NH:0][100C:0](=O)N3CCCC(n4nc(-c5ccc(Oc6ccc(F)cc6F)cc5)c(C(N)=O)c4N)C3)ccc2CC1C(=O)NC1CCCc2ccccc21)C(C)(C)C

> <Shape>
0.233

> <Color>
0.068

> <Negative vol penalty>
0.000

$$$$

  -OEChem-04042320113D

 82 89  0     1  0  0  0  0  0999 V2000
  -16.7408  -29.6750   24.2619 C   0  0  0  0  0  0  0  0  0  0  0  0
  -17.3562  -28.4716   23.9324 C   0  0  0  0  0  0  0  0  0  0  0  0
  -30.5866  -20.5608   19.6324 C   0  0  0  0  0  0  0  0  0  0  0  0
  -28.6149  -20.5220   18.2367 C   0  0  0  0  0  0  0  0  0  0  0  0
  -17.2300  -30.8723   23.7414 C   0  0  0  0  0  0  0  0  0  0  0  0
  -18.4606  -28.4648   23.0812 C   0  0  0  0  0  0  0  0  0  0  0  0
  -23.2808  -24.6956   23.3350 C   0  0  0  0  0  0  0  0  0  0  0  0
  -31.1361  -21.5595   18.8285 C   0  0  0  0  0  0  0  0  0  0  0  0
  -29.1644  -21.5207   17.4328 C   0  0  0  0  0  0  0  0  0  0  0  0
  -23.6009  -23.5336   22.6341 C   0  0  0  0  0  0  0  0  0  0  0  0
  -30.8034  -24.9007   18.4299 C   0  0  0  0  0  0  0  0  0  0  0  0
  -31.4003  -25.9893   19.0656 C   0  0  0  0  0  0  0  0  0  0  0  0
  -24.9289  -24.8341   21.0965 C   0  0  0  0  0  0  0  0  0  0  0  0
  -33.5000  -25.4653   17.9915 C   0  0  0  0  0  0  0  0  0  0  0  0
  -29.3261  -20.0420   19.3365 C   0  0  0  0  0  0  0  0  0  0  0  0
  -27.9487  -19.1838   21.3048 C   0  0  0  0  0  0  0  0  0  0  0  0
  -18.3470  -30.8811   22.8911 C   0  0  0  0  0  0  0  0  0  0  0  0
  -23.7744  -25.9390   22.9147 C   0  0  0  0  0  0  0  0  0  0  0  0
  -18.9645  -29.6632   22.5478 C   0  0  0  0  0  0  0  0  0  0  0  0
  -24.6157  -26.0100   21.7952 C   0  0  0  0  0  0  0  0  0  0  0  0
  -30.4249  -22.0395   17.7287 C   0  0  0  0  0  0  0  0  0  0  0  0
  -24.4227  -23.6031   21.5130 C   0  0  0  0  0  0  0  0  0  0  0  0
  -31.5549  -24.0942   17.5751 C   0  0  0  0  0  0  0  0  0  0  0  0
  -32.7486  -26.2717   18.8464 C   0  0  0  0  0  0  0  0  0  0  0  0
  -32.9032  -24.3766   17.3559 C   0  0  0  0  0  0  0  0  0  0  0  0
  -28.7582  -19.0099   20.1663 C   0  0  0  0  0  0  0  0  0  0  0  0
  -27.6729  -17.9067   21.7283 C   0  0  0  0  0  0  0  0  0  0  0  0
  -27.4871  -20.3918   21.9240 C   0  0  0  0  0  0  0  0  0  0  0  0
  -22.4578  -28.6483   21.8998 C   0  0  0  0  0  0  0  0  0  0  0  0
  -25.5172  -29.7208   22.0098 C   0  0  0  0  0  0  0  0  0  0  0  0
  -28.8492  -28.9856   21.9422 C   0  0  0  0  0  0  0  0  0  0  0  0
  -26.1297  -12.6748   20.4928 C   0  0  0  0  0  0  0  0  0  0  0  0
  -18.8108  -32.1957   22.3154 C   0  0  0  0  0  0  0  0  0  0  0  0
  -23.4416  -27.1796   23.6974 C   0  0  0  0  0  0  0  0  0  0  0  0
  -25.1880  -27.3178   21.3150 C   0  0  0  0  0  0  0  0  0  0  0  0
  -20.2150  -32.1381   21.7195 C   0  0  0  0  0  0  0  0  0  0  0  0
  -29.6437  -13.4682   20.3436 C   0  0  0  0  0  0  0  0  0  0  0  0
  -20.3697  -30.9044   20.8358 C   0  0  0  0  0  0  0  0  0  0  0  0
  -29.6547  -14.9964   20.3371 C   0  0  0  0  0  0  0  0  0  0  0  0
  -28.4324  -12.9147   19.5999 C   0  0  0  0  0  0  0  0  0  0  0  0
  -27.1309  -14.9660   20.1050 C   0  0  0  0  0  0  0  0  0  0  0  0
  -20.1800  -29.6172   21.6474 C   0  0  1  0  0  0  0  0  0  0  0  0
  -23.5825  -28.4588   22.8780 C   0  0  1  0  0  0  0  0  0  0  0  0
  -28.3257  -15.5604   20.8703 C   0  0  2  0  0  0  0  0  0  0  0  0
  -31.1086  -30.0752   22.0133 C   0  0  0  0  0  0  0  0  0  0  0  0
  -25.1794  -30.6048   19.1090 C   0  0  0  0  0  0  0  0  0  0  0  0
  -27.6708  -30.7934   18.9494 C   0  0  0  0  0  0  0  0  0  0  0  0
  -26.4137  -32.2277   20.5572 C   0  0  0  0  0  0  0  0  0  0  0  0
  -29.5888  -27.5561   24.4259 C   0  0  0  0  0  0  0  0  0  0  0  0
  -23.7711  -21.4193   20.8330 C   0  0  0  0  0  0  0  0  0  1  0  0
  -23.9144  -12.6099   21.3571 C   0  0  0  0  0  0  0  0  0  0  0  0
  -23.8884  -20.6317   19.5425 C   0  0  0  0  0  0  0  0  0  0  0  0
  -22.8154  -13.5485   21.8159 C   0  0  0  0  0  0  0  0  0  0  0  0
  -22.9736  -18.8272   18.3467 C   0  0  0  0  0  0  0  0  0  0  0  0
  -21.3981  -15.2827   21.1041 C   0  0  0  0  0  0  0  0  0  0  0  0
  -21.9258  -17.7327   18.4099 C   0  0  0  0  0  0  0  0  0  0  0  0
  -21.0476  -16.1548   19.9139 C   0  0  0  0  0  0  0  0  0  0  0  0
  -26.6722  -29.7591   21.0384 C   0  0  1  0  0  0  0  0  0  0  0  0
  -29.9975  -29.4326   22.8288 C   0  0  2  0  0  0  0  0  0  0  0  0
  -26.4718  -30.8217   19.9211 C   0  0  0  0  0  0  0  0  0  0  0  0
  -28.9824  -17.7237   19.8845 N   0  0  0  0  0  0  0  0  0  0  0  0
  -28.3096  -17.0778   20.8522 N   0  0  0  0  0  0  0  0  0  0  0  0
  -24.8284  -28.5036   22.1099 N   0  0  0  0  0  0  0  0  0  0  0  0
  -27.1901  -13.4990   20.1037 N   0  0  0  0  0  0  0  0  0  0  0  0
  -26.9505  -17.4232   22.7612 N   0  0  0  0  0  0  0  0  0  0  0  0
  -27.8635  -21.6181   21.3594 N   0  0  0  0  0  0  0  0  0  0  0  0
  -21.3700  -29.3253   22.4175 N   0  0  0  0  0  0  0  0  0  0  0  0
  -27.8744  -29.9556   21.8412 N   0  0  0  0  0  0  0  0  0  0  0  0
  -30.5673  -28.2686   23.5645 N   0  3  0  0  0  0  0  0  0  0  0  0
  -26.7759  -20.3842   22.9572 O   0  0  0  0  0  0  0  0  0  0  0  0
  -22.5692  -28.2139   20.7594 O   0  0  0  0  0  0  0  0  0  0  0  0
  -25.2410  -30.7313   22.6611 O   0  0  0  0  0  0  0  0  0  0  0  0
  -28.8215  -27.8874   21.3912 O   0  0  0  0  0  0  0  0  0  0  0  0
  -26.1537  -11.4462   20.4453 O   0  0  0  0  0  0  0  0  0  0  0  0
  -30.9607  -23.0142   16.9441 O   0  0  0  0  0  0  0  0  0  0  0  0
  -24.7361  -22.4706   20.8266 O   0  0  0  0  0  0  0  0  0  1  0  0
  -25.0454  -13.3829   20.9387 O   0  0  0  0  0  0  0  0  0  0  0  0
  -22.9093  -19.5999   19.5373 O   0  0  0  0  0  0  0  0  0  0  0  0
  -22.4303  -14.3787   20.7291 O   0  0  0  0  0  0  0  0  0  0  0  0
  -22.1973  -16.8941   19.5264 O   0  0  0  0  0  0  0  0  0  0  0  0
  -33.3212  -27.3181   19.4557 F   0  0  0  0  0  0  0  0  0  0  0  0
  -33.6299  -23.6061   16.5348 F   0  0  0  0  0  0  0  0  0  0  0  0
  1  2  1  0  0  0  0
  1  5  2  0  0  0  0
  2  6  2  0  0  0  0
  3  8  2  0  0  0  0
  3 15  1  0  0  0  0
  4  9  1  0  0  0  0
  4 15  2  0  0  0  0
  5 17  1  0  0  0  0
  6 19  1  0  0  0  0
  7 10  2  0  0  0  0
  7 18  1  0  0  0  0
  8 21  1  0  0  0  0
  9 21  2  0  0  0  0
 10 22  1  0  0  0  0
 11 12  2  0  0  0  0
 11 23  1  0  0  0  0
 12 24  1  0  0  0  0
 13 20  1  0  0  0  0
 13 22  2  0  0  0  0
 14 24  2  0  0  0  0
 14 25  1  0  0  0  0
 15 26  1  0  0  0  0
 16 26  1  0  0  0  0
 16 27  2  0  0  0  0
 16 28  1  0  0  0  0
 17 19  2  0  0  0  0
 17 33  1  0  0  0  0
 18 20  2  0  0  0  0
 18 34  1  0  0  0  0
 19 42  1  0  0  0  0
 20 35  1  0  0  0  0
 21 75  1  0  0  0  0
 22 76  1  0  0  0  0
 23 25  2  0  0  0  0
 23 75  1  0  0  0  0
 24 81  1  0  0  0  0
 25 82  1  0  0  0  0
 26 61  2  0  0  0  0
 27 62  1  0  0  0  0
 27 65  1  0  0  0  0
 28 66  1  0  0  0  0
 28 70  2  0  0  0  0
 29 43  1  0  0  0  0
 29 67  1  0  0  0  0
 29 71  2  0  0  0  0
 30 58  1  0  0  0  0
 30 63  1  0  0  0  0
 30 72  2  0  0  0  0
 31 59  1  0  0  0  0
 31 68  1  0  0  0  0
 31 73  2  0  0  0  0
 32 64  1  0  0  0  0
 32 74  2  0  0  0  0
 32 77  1  0  0  0  0
 33 36  1  0  0  0  0
 34 43  1  0  0  0  0
 35 63  1  0  0  0  0
 36 38  1  0  0  0  0
 37 39  1  0  0  0  0
 37 40  1  0  0  0  0
 38 42  1  0  0  0  0
 39 44  1  0  0  0  0
 40 64  1  0  0  0  0
 41 44  1  0  0  0  0
 41 64  1  0  0  0  0
 42 67  1  0  0  0  0
 43 63  1  0  0  0  0
 44 62  1  0  0  0  0
 45 59  1  0  0  0  0
 46 60  1  0  0  0  0
 47 60  1  0  0  0  0
 48 60  1  0  0  0  0
 49 69  1  0  0  0  0
 50 52  1  0  0  0  0
 50 76  1  0  0  0  0
 51 53  1  0  0  0  0
 51 77  1  0  0  0  0
 52 78  1  0  0  0  0
 53 79  1  0  0  0  0
 54 56  1  0  0  0  0
 54 78  1  0  0  0  0
 55 57  1  0  0  0  0
 55 79  1  0  0  0  0
 56 80  1  0  0  0  0
 57 80  1  0  0  0  0
 58 60  1  0  0  0  0
 58 68  1  0  0  0  0
 59 69  1  0  0  0  0
 61 62  1  0  0  0  0
M  CHG  1  69   1
M  ISO  4  32 100  50 101  76 101  77 100
M  END
> <Batch ID>
0000

> <Smiles>
CNC(C)C(=O)NC(C(=O)N1Cc2cc([101O:1][101CH2:1]COCCOCCOCC[100O:0][100C:0](=O)N3CCCC(n4nc(-c5ccc(Oc6ccc(F)cc6F)cc5)c(C(N)=O)c4N)C3)ccc2CC1C(=O)NC1CCCc2ccccc21)C(C)(C)C

> <Shape>
0.228

> <Color>
0.079

> <Negative vol penalty>
0.000

$$$$

  -OEChem-04042320113D

 83 90  0     1  0  0  0  0  0999 V2000
  -29.5433  -19.5730   24.1510 C   0  0  0  0  0  0  0  0  0  0  0  0
  -28.1785  -19.5380   23.8841 C   0  0  0  0  0  0  0  0  0  0  0  0
  -28.2171  -25.6245   18.5515 C   0  0  0  0  0  0  0  0  0  0  0  0
  -26.0851  -24.4890   18.5987 C   0  0  0  0  0  0  0  0  0  0  0  0
  -30.4101  -18.7297   23.4572 C   0  0  0  0  0  0  0  0  0  0  0  0
  -27.6796  -18.6603   22.9222 C   0  0  0  0  0  0  0  0  0  0  0  0
  -23.5138  -16.2371   24.4775 C   0  0  0  0  0  0  0  0  0  0  0  0
  -28.8726  -24.3989   18.6692 C   0  0  0  0  0  0  0  0  0  0  0  0
  -26.7406  -23.2633   18.7163 C   0  0  0  0  0  0  0  0  0  0  0  0
  -22.3140  -16.9463   24.4421 C   0  0  0  0  0  0  0  0  0  0  0  0
  -29.5982  -22.1881   21.1208 C   0  0  0  0  0  0  0  0  0  0  0  0
  -30.6530  -22.1027   22.0294 C   0  0  0  0  0  0  0  0  0  0  0  0
  -21.7328  -15.8483   22.3743 C   0  0  0  0  0  0  0  0  0  0  0  0
  -32.1547  -21.5136   20.2308 C   0  0  0  0  0  0  0  0  0  0  0  0
  -26.8234  -25.6696   18.5163 C   0  0  0  0  0  0  0  0  0  0  0  0
  -25.7712  -27.5889   17.2061 C   0  0  0  0  0  0  0  0  0  0  0  0
  -29.9204  -17.8343   22.4932 C   0  0  0  0  0  0  0  0  0  0  0  0
  -23.8376  -15.3346   23.4542 C   0  0  0  0  0  0  0  0  0  0  0  0
  -28.5408  -17.8051   22.2138 C   0  0  0  0  0  0  0  0  0  0  0  0
  -22.9362  -15.1269   22.4004 C   0  0  0  0  0  0  0  0  0  0  0  0
  -28.1343  -23.2183   18.7515 C   0  0  0  0  0  0  0  0  0  0  0  0
  -21.4246  -16.7541   23.3889 C   0  0  0  0  0  0  0  0  0  0  0  0
  -29.8216  -21.9362   19.7671 C   0  0  0  0  0  0  0  0  0  0  0  0
  -31.9313  -21.7655   21.5845 C   0  0  0  0  0  0  0  0  0  0  0  0
  -31.0999  -21.5990   19.3222 C   0  0  0  0  0  0  0  0  0  0  0  0
  -26.1458  -26.9354   18.3954 C   0  0  0  0  0  0  0  0  0  0  0  0
  -25.1631  -28.7462   17.6271 C   0  0  0  0  0  0  0  0  0  0  0  0
  -25.9563  -27.1857   15.8426 C   0  0  0  0  0  0  0  0  0  0  0  0
  -26.1625  -15.1302   21.2963 C   0  0  0  0  0  0  0  0  0  0  0  0
  -24.7775  -12.2697   20.6470 C   0  0  0  0  0  0  0  0  0  0  0  0
  -19.5951  -26.0233   23.5587 C   0  0  0  0  0  0  0  0  0  0  0  0
  -21.9802  -10.3170   20.7423 C   0  0  0  0  0  0  0  0  0  0  0  0
  -22.3662  -30.2713   22.6969 C   0  0  0  0  0  0  0  0  0  0  0  0
  -30.9017  -16.9756   21.7352 C   0  0  0  0  0  0  0  0  0  0  0  0
  -25.1237  -14.5575   23.5209 C   0  0  0  0  0  0  0  0  0  0  0  0
  -23.2275  -14.1545   21.2878 C   0  0  0  0  0  0  0  0  0  0  0  0
  -30.2480  -15.8096   20.9980 C   0  0  0  0  0  0  0  0  0  0  0  0
  -25.1825  -31.8873   21.2360 C   0  0  0  0  0  0  0  0  0  0  0  0
  -29.0138  -16.2837   20.2372 C   0  0  0  0  0  0  0  0  0  0  0  0
  -25.7149  -30.8604   20.2350 C   0  0  0  0  0  0  0  0  0  0  0  0
  -24.6468  -31.2182   22.4999 C   0  0  0  0  0  0  0  0  0  0  0  0
  -24.1723  -29.1396   21.2637 C   0  0  0  0  0  0  0  0  0  0  0  0
  -27.9585  -16.8492   21.1953 C   0  0  1  0  0  0  0  0  0  0  0  0
  -25.5835  -14.0452   22.1595 C   0  0  1  0  0  0  0  0  0  0  0  0
  -24.6721  -29.7630   19.9492 C   0  0  2  0  0  0  0  0  0  0  0  0
  -21.1459   -8.0382   20.1034 C   0  0  0  0  0  0  0  0  0  0  0  0
  -24.6322  -13.1441   17.7274 C   0  0  0  0  0  0  0  0  0  0  0  0
  -22.9812  -11.3043   17.3310 C   0  0  0  0  0  0  0  0  0  0  0  0
  -25.3004  -10.7586   18.0699 C   0  0  0  0  0  0  0  0  0  0  0  0
  -21.3596   -9.6289   23.5530 C   0  0  0  0  0  0  0  0  0  0  0  0
  -20.3310  -24.7020   23.4934 C   0  0  0  0  0  0  0  0  0  0  0  0
  -19.9879  -28.4257   24.0785 C   0  0  0  0  0  0  0  0  0  0  0  0
  -20.1245  -29.2101   22.7838 C   0  0  0  0  0  0  0  0  0  0  0  0
  -19.7146  -17.7419   22.0638 C   0  0  0  0  0  0  0  0  0  1  0  0
  -20.1292  -22.4085   23.0222 C   0  0  0  0  0  0  0  0  0  0  0  0
  -18.9367  -19.0414   22.1393 C   0  0  0  0  0  0  0  0  0  0  0  0
  -19.1406  -21.3347   22.6104 C   0  0  0  0  0  0  0  0  0  0  0  0
  -23.6869  -11.7966   19.7165 C   0  0  1  0  0  0  0  0  0  0  0  0
  -21.7655   -8.8866   21.2029 C   0  0  2  0  0  0  0  0  0  0  0  0
  -24.1453  -11.7708   18.2310 C   0  0  0  0  0  0  0  0  0  0  0  0
  -25.8044  -27.6207   19.4898 N   0  0  0  0  0  0  0  0  0  0  0  0
  -25.2089  -28.7169   18.9899 N   0  0  0  0  0  0  0  0  0  0  0  0
  -24.5008  -13.4231   21.3946 N   0  0  0  0  0  0  0  0  0  0  0  0
  -23.6614  -30.1891   22.1595 N   0  0  0  0  0  0  0  0  0  0  0  0
  -24.5991  -29.7760   16.9608 N   0  0  0  0  0  0  0  0  0  0  0  0
  -26.6004  -25.9674   15.5877 N   0  0  0  0  0  0  0  0  0  0  0  0
  -27.2487  -15.7752   21.8564 N   0  0  0  0  0  0  0  0  0  0  0  0
  -20.4347  -27.0587   23.9387 N   0  0  0  0  0  0  0  0  0  0  0  0
  -23.2460  -10.5036   20.2284 N   0  0  0  0  0  0  0  0  0  0  0  0
  -21.4926  -29.2592   22.3184 N   0  0  0  0  0  0  0  0  0  0  0  0
  -20.8617   -8.8540   22.3874 N   0  3  0  0  0  0  0  0  0  0  0  0
  -25.5767  -27.8930   14.8786 O   0  0  0  0  0  0  0  0  0  0  0  0
  -25.6619  -15.3639   20.2025 O   0  0  0  0  0  0  0  0  0  0  0  0
  -25.8331  -11.6350   20.7136 O   0  0  0  0  0  0  0  0  0  0  0  0
  -18.3996  -26.1311   23.2997 O   0  0  0  0  0  0  0  0  0  0  0  0
  -21.1106  -11.1815   20.8263 O   0  0  0  0  0  0  0  0  0  0  0  0
  -22.0129  -31.1823   23.4533 O   0  0  0  0  0  0  0  0  0  0  0  0
  -28.7735  -22.0221   18.8661 O   0  0  0  0  0  0  0  0  0  0  0  0
  -20.2531  -17.4456   23.3516 O   0  0  0  0  0  0  0  0  0  1  0  0
  -19.4548  -23.6591   23.0894 O   0  0  0  0  0  0  0  0  0  0  0  0
  -19.8186  -20.0892   22.5235 O   0  0  0  0  0  0  0  0  0  0  0  0
  -32.9444  -21.6851   22.4570 F   0  0  0  0  0  0  0  0  0  0  0  0
  -31.3209  -21.3570   18.0228 F   0  0  0  0  0  0  0  0  0  0  0  0
  1  2  1  0  0  0  0
  1  5  2  0  0  0  0
  2  6  2  0  0  0  0
  3  8  2  0  0  0  0
  3 15  1  0  0  0  0
  4  9  1  0  0  0  0
  4 15  2  0  0  0  0
  5 17  1  0  0  0  0
  6 19  1  0  0  0  0
  7 10  2  0  0  0  0
  7 18  1  0  0  0  0
  8 21  1  0  0  0  0
  9 21  2  0  0  0  0
 10 22  1  0  0  0  0
 11 12  2  0  0  0  0
 11 23  1  0  0  0  0
 12 24  1  0  0  0  0
 13 20  1  0  0  0  0
 13 22  2  0  0  0  0
 14 24  2  0  0  0  0
 14 25  1  0  0  0  0
 15 26  1  0  0  0  0
 16 26  1  0  0  0  0
 16 27  2  0  0  0  0
 16 28  1  0  0  0  0
 17 19  2  0  0  0  0
 17 34  1  0  0  0  0
 18 20  2  0  0  0  0
 18 35  1  0  0  0  0
 19 43  1  0  0  0  0
 20 36  1  0  0  0  0
 21 78  1  0  0  0  0
 22 79  1  0  0  0  0
 23 25  2  0  0  0  0
 23 78  1  0  0  0  0
 24 82  1  0  0  0  0
 25 83  1  0  0  0  0
 26 61  2  0  0  0  0
 27 62  1  0  0  0  0
 27 65  1  0  0  0  0
 28 66  1  0  0  0  0
 28 72  2  0  0  0  0
 29 44  1  0  0  0  0
 29 67  1  0  0  0  0
 29 73  2  0  0  0  0
 30 58  1  0  0  0  0
 30 63  1  0  0  0  0
 30 74  2  0  0  0  0
 31 51  1  0  0  0  0
 31 68  1  0  0  0  0
 31 75  2  0  0  0  0
 32 59  1  0  0  0  0
 32 69  1  0  0  0  0
 32 76  2  0  0  0  0
 33 64  1  0  0  0  0
 33 70  1  0  0  0  0
 33 77  2  0  0  0  0
 34 37  1  0  0  0  0
 35 44  1  0  0  0  0
 36 63  1  0  0  0  0
 37 39  1  0  0  0  0
 38 40  1  0  0  0  0
 38 41  1  0  0  0  0
 39 43  1  0  0  0  0
 40 45  1  0  0  0  0
 41 64  1  0  0  0  0
 42 45  1  0  0  0  0
 42 64  1  0  0  0  0
 43 67  1  0  0  0  0
 44 63  1  0  0  0  0
 45 62  1  0  0  0  0
 46 59  1  0  0  0  0
 47 60  1  0  0  0  0
 48 60  1  0  0  0  0
 49 60  1  0  0  0  0
 50 71  1  0  0  0  0
 51 80  1  0  0  0  0
 52 53  1  0  0  0  0
 52 68  1  0  0  0  0
 53 70  1  0  0  0  0
 54 56  1  0  0  0  0
 54 79  1  0  0  0  0
 55 57  1  0  0  0  0
 55 80  1  0  0  0  0
 56 81  1  0  0  0  0
 57 81  1  0  0  0  0
 58 60  1  0  0  0  0
 58 69  1  0  0  0  0
 59 71  1  0  0  0  0
 61 62  1  0  0  0  0
M  CHG  1  71   1
M  ISO  4  33 100  54 101  70 100  79 101
M  END
> <Batch ID>
0000

> <Smiles>
CNC(C)C(=O)NC(C(=O)N1Cc2cc([101O:1][101CH2:1]COCCOCC(=O)NCC[100NH:0][100C:0](=O)N3CCCC(n4nc(-c5ccc(Oc6ccc(F)cc6F)cc5)c(C(N)=O)c4N)C3)ccc2CC1C(=O)NC1CCCc2ccccc21)C(C)(C)C

> <Shape>
0.209

> <Color>
0.078

> <Negative vol penalty>
0.000

$$$$

  -OEChem-04042320113D

 93101  0     1  0  0  0  0  0999 V2000
  -18.4381  -26.1289   20.0774 C   0  0  0  0  0  0  0  0  0  0  0  0
  -19.6574  -25.6208   20.5141 C   0  0  0  0  0  0  0  0  0  0  0  0
  -24.7615   -8.7726   21.4742 C   0  0  0  0  0  0  0  0  0  0  0  0
  -23.1402  -10.5563   21.3106 C   0  0  0  0  0  0  0  0  0  0  0  0
  -18.3468  -27.4557   19.6589 C   0  0  0  0  0  0  0  0  0  0  0  0
  -20.7863  -26.4391   20.5315 C   0  0  0  0  0  0  0  0  0  0  0  0
  -25.3613  -26.3143   24.6009 C   0  0  0  0  0  0  0  0  0  0  0  0
  -24.8875  -19.5294   20.8180 C   0  0  0  0  0  0  0  0  0  0  0  0
  -27.0487  -20.1478   21.7033 C   0  0  0  0  0  0  0  0  0  0  0  0
  -25.4129  -18.3117   20.3858 C   0  0  0  0  0  0  0  0  0  0  0  0
  -27.5742  -18.9301   21.2712 C   0  0  0  0  0  0  0  0  0  0  0  0
  -23.9549   -8.1253   22.4102 C   0  0  0  0  0  0  0  0  0  0  0  0
  -22.3336   -9.9090   22.2466 C   0  0  0  0  0  0  0  0  0  0  0  0
  -26.6295  -25.7359   24.5690 C   0  0  0  0  0  0  0  0  0  0  0  0
  -21.1735   -6.2027   22.3959 C   0  0  0  0  0  0  0  0  0  0  0  0
  -20.9777   -4.8301   22.2440 C   0  0  0  0  0  0  0  0  0  0  0  0
  -27.5651  -27.8414   23.8544 C   0  0  0  0  0  0  0  0  0  0  0  0
  -21.9561   -4.4497   24.4200 C   0  0  0  0  0  0  0  0  0  0  0  0
  -24.3541   -9.9881   20.9244 C   0  0  0  0  0  0  0  0  0  0  0  0
  -25.1583  -10.5033   18.5589 C   0  0  0  0  0  0  0  0  0  0  0  0
  -19.4730  -28.2933   19.6803 C   0  0  0  0  0  0  0  0  0  0  0  0
  -25.1836  -27.6599   24.2486 C   0  0  0  0  0  0  0  0  0  0  0  0
  -20.7103  -27.7780   20.1116 C   0  0  0  0  0  0  0  0  0  0  0  0
  -26.2940  -28.4352   23.8851 C   0  0  0  0  0  0  0  0  0  0  0  0
  -25.7054  -20.4475   21.4767 C   0  0  0  0  0  0  0  0  0  0  0  0
  -26.7563  -18.0121   20.6124 C   0  0  0  0  0  0  0  0  0  0  0  0
  -22.7410   -8.6935   22.7964 C   0  0  0  0  0  0  0  0  0  0  0  0
  -27.7312  -26.4988   24.1929 C   0  0  0  0  0  0  0  0  0  0  0  0
  -21.7606   -6.6989   23.5598 C   0  0  0  0  0  0  0  0  0  0  0  0
  -21.3690   -3.9536   23.2560 C   0  0  0  0  0  0  0  0  0  0  0  0
  -22.1519   -5.8224   24.5719 C   0  0  0  0  0  0  0  0  0  0  0  0
  -25.1871  -10.6575   19.9579 C   0  0  0  0  0  0  0  0  0  0  0  0
  -26.1364  -11.3513   18.0998 C   0  0  0  0  0  0  0  0  0  0  0  0
  -24.3221   -9.6683   17.7470 C   0  0  0  0  0  0  0  0  0  0  0  0
  -23.5705  -29.1897   21.9768 C   0  0  0  0  0  0  0  0  0  0  0  0
  -24.5408  -31.8227   23.6041 C   0  0  0  0  0  0  0  0  0  0  0  0
  -26.7937  -33.2428   25.7382 C   0  0  0  0  0  0  0  0  0  0  0  0
  -28.6011  -16.3219   20.3188 C   0  0  0  0  0  0  0  0  0  0  0  0
  -19.3358  -29.7073   19.1737 C   0  0  0  0  0  0  0  0  0  0  0  0
  -23.8130  -28.2760   24.3139 C   0  0  0  0  0  0  0  0  0  0  0  0
  -26.1596  -29.8895   23.5173 C   0  0  0  0  0  0  0  0  0  0  0  0
  -20.4959  -30.6139   19.5768 C   0  0  0  0  0  0  0  0  0  0  0  0
  -30.2977  -13.3265   19.4099 C   0  0  0  0  0  0  0  0  0  0  0  0
  -21.8297  -29.9173   19.3268 C   0  0  0  0  0  0  0  0  0  0  0  0
  -29.1763  -12.2894   19.3141 C   0  0  0  0  0  0  0  0  0  0  0  0
  -30.0559  -14.3200   20.5449 C   0  0  0  0  0  0  0  0  0  0  0  0
  -27.6239  -13.9451   20.4258 C   0  0  0  0  0  0  0  0  0  0  0  0
  -21.9519  -28.6413   20.1685 C   0  0  1  0  0  0  0  0  0  0  0  0
  -23.6740  -29.5182   23.4394 C   0  0  1  0  0  0  0  0  0  0  0  0
  -27.7905  -12.9617   19.2558 C   0  0  2  0  0  0  0  0  0  0  0  0
  -27.3479  -35.4214   26.8536 C   0  0  0  0  0  0  0  0  0  0  0  0
  -25.6653  -32.8812   20.9725 C   0  0  0  0  0  0  0  0  0  0  0  0
  -26.9992  -34.5403   22.2903 C   0  0  0  0  0  0  0  0  0  0  0  0
  -24.5068  -34.5960   22.3767 C   0  0  0  0  0  0  0  0  0  0  0  0
  -26.4550  -32.0797   28.4385 C   0  0  0  0  0  0  0  0  0  0  0  0
  -25.1400  -21.7573   21.9416 C   0  0  0  0  0  0  0  0  0  0  0  0
  -29.0429  -24.5420   23.8669 C   0  0  0  0  0  0  0  0  0  1  0  0
  -24.8813  -23.9768   21.2136 C   0  0  0  0  0  0  0  0  0  0  0  0
  -30.3571  -24.2509   23.1685 C   0  0  0  0  0  0  0  0  0  0  0  0
  -24.7238  -24.8396   19.9764 C   0  0  0  0  0  0  0  0  0  0  0  0
  -31.6457  -24.7886   21.2782 C   0  0  0  0  0  0  0  0  0  0  0  0
  -25.7672  -25.4552   17.9627 C   0  0  0  0  0  0  0  0  0  0  0  0
  -31.6549  -25.6178   20.0084 C   0  0  0  0  0  0  0  0  0  0  0  0
  -27.0160  -25.2471   17.1277 C   0  0  0  0  0  0  0  0  0  0  0  0
  -30.5212  -25.9696   17.9802 C   0  0  0  0  0  0  0  0  0  0  0  0
  -29.3536  -25.4888   17.1403 C   0  0  0  0  0  0  0  0  0  0  0  0
  -25.7462  -32.7299   23.5487 C   0  0  1  0  0  0  0  0  0  0  0  0
  -26.6059  -34.0997   26.9771 C   0  0  2  0  0  0  0  0  0  0  0  0
  -25.7320  -33.6589   22.3021 C   0  0  0  0  0  0  0  0  0  0  0  0
  -26.1105  -11.5344   20.3611 N   0  0  0  0  0  0  0  0  0  0  0  0
  -26.6710  -11.9388   19.2085 N   0  0  0  0  0  0  0  0  0  0  0  0
  -24.7979  -30.4445   23.5905 N   0  0  0  0  0  0  0  0  0  0  0  0
  -28.7256  -14.9202   20.4220 N   0  0  0  0  0  0  0  0  0  0  0  0
  -26.5827  -11.6443   16.8599 N   0  0  0  0  0  0  0  0  0  0  0  0
  -23.3692   -8.8592   18.3807 N   0  0  0  0  0  0  0  0  0  0  0  0
  -27.2903  -16.7751   20.1737 N   0  0  0  0  0  0  0  0  0  0  0  0
  -22.2783  -28.9696   21.5396 N   0  0  0  0  0  0  0  0  0  0  0  0
  -25.7817  -33.4399   24.8227 N   0  0  0  0  0  0  0  0  0  0  0  0
  -27.1145  -33.3861   28.1825 N   0  3  0  0  0  0  0  0  0  0  0  0
  -24.4284   -9.6282   16.4978 O   0  0  0  0  0  0  0  0  0  0  0  0
  -24.5876  -29.1412   21.2951 O   0  0  0  0  0  0  0  0  0  0  0  0
  -23.4130  -32.3187   23.6647 O   0  0  0  0  0  0  0  0  0  0  0  0
  -27.7452  -32.4782   25.5952 O   0  0  0  0  0  0  0  0  0  0  0  0
  -29.5869  -17.0635   20.3289 O   0  0  0  0  0  0  0  0  0  0  0  0
  -21.9536   -8.0620   23.7095 O   0  0  0  0  0  0  0  0  0  0  0  0
  -28.9701  -25.9366   24.1604 O   0  0  0  0  0  0  0  0  0  1  0  0
  -24.9688  -22.6127   20.8201 O   0  0  0  0  0  0  0  0  0  0  0  0
  -30.4303  -25.0225   21.9757 O   0  0  0  0  0  0  0  0  0  0  0  0
  -25.8611  -24.6665   19.1427 O   0  0  0  0  0  0  0  0  0  0  0  0
  -30.5620  -25.2228   19.1881 O   0  0  0  0  0  0  0  0  0  0  0  0
  -28.1493  -25.6621   17.8773 O   0  0  0  0  0  0  0  0  0  0  0  0
  -21.1796   -2.6356   23.1107 F   0  0  0  0  0  0  0  0  0  0  0  0
  -22.7154   -6.2933   25.6929 F   0  0  0  0  0  0  0  0  0  0  0  0
  1  2  1  0  0  0  0
  1  5  2  0  0  0  0
  2  6  2  0  0  0  0
  3 12  2  0  0  0  0
  3 19  1  0  0  0  0
  4 13  1  0  0  0  0
  4 19  2  0  0  0  0
  5 21  1  0  0  0  0
  6 23  1  0  0  0  0
  7 14  2  0  0  0  0
  7 22  1  0  0  0  0
  8 10  2  0  0  0  0
  8 25  1  0  0  0  0
  9 11  1  0  0  0  0
  9 25  2  0  0  0  0
 10 26  1  0  0  0  0
 11 26  2  0  0  0  0
 12 27  1  0  0  0  0
 13 27  2  0  0  0  0
 14 28  1  0  0  0  0
 15 16  2  0  0  0  0
 15 29  1  0  0  0  0
 16 30  1  0  0  0  0
 17 24  1  0  0  0  0
 17 28  2  0  0  0  0
 18 30  2  0  0  0  0
 18 31  1  0  0  0  0
 19 32  1  0  0  0  0
 20 32  1  0  0  0  0
 20 33  2  0  0  0  0
 20 34  1  0  0  0  0
 21 23  2  0  0  0  0
 21 39  1  0  0  0  0
 22 24  2  0  0  0  0
 22 40  1  0  0  0  0
 23 48  1  0  0  0  0
 24 41  1  0  0  0  0
 25 56  1  0  0  0  0
 26 76  1  0  0  0  0
 27 85  1  0  0  0  0
 28 86  1  0  0  0  0
 29 31  2  0  0  0  0
 29 85  1  0  0  0  0
 30 92  1  0  0  0  0
 31 93  1  0  0  0  0
 32 70  2  0  0  0  0
 33 71  1  0  0  0  0
 33 74  1  0  0  0  0
 34 75  1  0  0  0  0
 34 80  2  0  0  0  0
 35 49  1  0  0  0  0
 35 77  1  0  0  0  0
 35 81  2  0  0  0  0
 36 67  1  0  0  0  0
 36 72  1  0  0  0  0
 36 82  2  0  0  0  0
 37 68  1  0  0  0  0
 37 78  1  0  0  0  0
 37 83  2  0  0  0  0
 38 73  1  0  0  0  0
 38 76  1  0  0  0  0
 38 84  2  0  0  0  0
 39 42  1  0  0  0  0
 40 49  1  0  0  0  0
 41 72  1  0  0  0  0
 42 44  1  0  0  0  0
 43 45  1  0  0  0  0
 43 46  1  0  0  0  0
 44 48  1  0  0  0  0
 45 50  1  0  0  0  0
 46 73  1  0  0  0  0
 47 50  1  0  0  0  0
 47 73  1  0  0  0  0
 48 77  1  0  0  0  0
 49 72  1  0  0  0  0
 50 71  1  0  0  0  0
 51 68  1  0  0  0  0
 52 69  1  0  0  0  0
 53 69  1  0  0  0  0
 54 69  1  0  0  0  0
 55 79  1  0  0  0  0
 56 87  1  0  0  0  0
 57 59  1  0  0  0  0
 57 86  1  0  0  0  0
 58 60  1  0  0  0  0
 58 87  1  0  0  0  0
 59 88  1  0  0  0  0
 60 89  1  0  0  0  0
 61 63  1  0  0  0  0
 61 88  1  0  0  0  0
 62 64  1  0  0  0  0
 62 89  1  0  0  0  0
 63 90  1  0  0  0  0
 64 91  1  0  0  0  0
 65 66  1  0  0  0  0
 65 90  1  0  0  0  0
 66 91  1  0  0  0  0
 67 69  1  0  0  0  0
 67 78  1  0  0  0  0
 68 79  1  0  0  0  0
 70 71  1  0  0  0  0
M  CHG  1  79   1
M  ISO  4  38 100  57 101  76 100  86 101
M  END
> <Batch ID>
0000

> <Smiles>
CNC(C)C(=O)NC(C(=O)N1Cc2cc([101O:1][101CH2:1]COCCOCCOCCOCCOCc3ccc([100NH:0][100C:0](=O)N4CCCC(n5nc(-c6ccc(Oc7ccc(F)cc7F)cc6)c(C(N)=O)c5N)C4)cc3)ccc2CC1C(=O)NC1CCCc2ccccc21)C(C)(C)C

> <Shape>
0.260

> <Color>
0.108

> <Negative vol penalty>
0.000

$$$$

  -OEChem-04042320113D

 79 86  0     1  0  0  0  0  0999 V2000
  -18.7889  -27.2484   23.3445 C   0  0  0  0  0  0  0  0  0  0  0  0
  -19.2383  -26.2084   22.5371 C   0  0  0  0  0  0  0  0  0  0  0  0
  -25.7477  -15.7088   21.4069 C   0  0  0  0  0  0  0  0  0  0  0  0
  -25.7723  -14.7733   19.1795 C   0  0  0  0  0  0  0  0  0  0  0  0
  -19.4421  -28.4800   23.3209 C   0  0  0  0  0  0  0  0  0  0  0  0
  -20.3405  -26.3997   21.7047 C   0  0  0  0  0  0  0  0  0  0  0  0
  -24.5998  -22.2555   20.2251 C   0  0  0  0  0  0  0  0  0  0  0  0
  -24.3957  -15.3874   21.5269 C   0  0  0  0  0  0  0  0  0  0  0  0
  -24.4203  -14.4518   19.2995 C   0  0  0  0  0  0  0  0  0  0  0  0
  -24.7661  -21.4395   19.1069 C   0  0  0  0  0  0  0  0  0  0  0  0
  -21.0277  -14.4877   22.5576 C   0  0  0  0  0  0  0  0  0  0  0  0
  -20.6046  -13.8982   23.7488 C   0  0  0  0  0  0  0  0  0  0  0  0
  -26.2750  -23.0628   18.1543 C   0  0  0  0  0  0  0  0  0  0  0  0
  -22.1126  -12.0492   23.3695 C   0  0  0  0  0  0  0  0  0  0  0  0
  -26.4360  -15.4018   20.2331 C   0  0  0  0  0  0  0  0  0  0  0  0
  -28.9326  -14.9287   20.4585 C   0  0  0  0  0  0  0  0  0  0  0  0
  -20.5588  -28.6835   22.4950 C   0  0  0  0  0  0  0  0  0  0  0  0
  -25.2625  -23.4883   20.3115 C   0  0  0  0  0  0  0  0  0  0  0  0
  -21.0084  -27.6356   21.6690 C   0  0  0  0  0  0  0  0  0  0  0  0
  -26.1174  -23.8913   19.2758 C   0  0  0  0  0  0  0  0  0  0  0  0
  -23.7320  -14.7588   20.4733 C   0  0  0  0  0  0  0  0  0  0  0  0
  -25.6015  -21.8444   18.0700 C   0  0  0  0  0  0  0  0  0  0  0  0
  -21.9932  -13.8579   21.7722 C   0  0  0  0  0  0  0  0  0  0  0  0
  -21.1470  -12.6790   24.1548 C   0  0  0  0  0  0  0  0  0  0  0  0
  -22.5357  -12.6387   22.1782 C   0  0  0  0  0  0  0  0  0  0  0  0
  -27.8324  -15.7342   20.1083 C   0  0  0  0  0  0  0  0  0  0  0  0
  -30.0306  -15.6934   20.1486 C   0  0  0  0  0  0  0  0  0  0  0  0
  -28.9596  -13.6073   21.0143 C   0  0  0  0  0  0  0  0  0  0  0  0
  -24.3377  -26.5226   20.5157 C   0  0  0  0  0  0  0  0  0  0  0  0
  -27.5133  -27.0574   20.9054 C   0  0  0  0  0  0  0  0  0  0  0  0
  -30.7147  -25.9874   20.4026 C   0  0  0  0  0  0  0  0  0  0  0  0
  -30.7484  -20.2155   16.2479 C   0  0  0  0  0  0  0  0  0  0  0  0
  -21.2033  -30.0468   22.4684 C   0  0  0  0  0  0  0  0  0  0  0  0
  -25.0934  -24.3447   21.5364 C   0  0  0  0  0  0  0  0  0  0  0  0
  -26.8674  -25.1964   19.3291 C   0  0  0  0  0  0  0  0  0  0  0  0
  -22.5928  -30.0515   21.8364 C   0  0  0  0  0  0  0  0  0  0  0  0
  -31.4619  -20.2352   19.7821 C   0  0  0  0  0  0  0  0  0  0  0  0
  -22.5876  -29.2646   20.5296 C   0  0  0  0  0  0  0  0  0  0  0  0
  -30.6773  -19.0310   20.3015 C   0  0  0  0  0  0  0  0  0  0  0  0
  -30.7367  -20.9191   18.6275 C   0  0  0  0  0  0  0  0  0  0  0  0
  -29.6227  -18.7898   18.0093 C   0  0  0  0  0  0  0  0  0  0  0  0
  -22.2158  -27.7966   20.7710 C   0  0  1  0  0  0  0  0  0  0  0  0
  -25.4157  -25.8148   21.2868 C   0  0  1  0  0  0  0  0  0  0  0  0
  -30.3381  -18.0582   19.1581 C   0  0  2  0  0  0  0  0  0  0  0  0
  -33.1006  -26.6565   20.7991 C   0  0  0  0  0  0  0  0  0  0  0  0
  -27.3298  -29.0620   18.6124 C   0  0  0  0  0  0  0  0  0  0  0  0
  -29.8252  -28.9756   18.4295 C   0  0  0  0  0  0  0  0  0  0  0  0
  -28.7580  -29.7974   20.5291 C   0  0  0  0  0  0  0  0  0  0  0  0
  -31.2265  -23.6025   22.0786 C   0  0  0  0  0  0  0  0  0  0  0  0
  -24.6661  -20.2179   16.6087 C   0  0  0  0  0  0  0  0  0  1  0  0
  -30.6788  -19.4042   14.0129 C   0  0  0  0  0  0  0  0  0  0  0  0
  -24.6887  -20.0033   15.1077 C   0  0  0  0  0  0  0  0  0  0  0  0
  -29.6285  -18.7187   13.1605 C   0  0  0  0  0  0  0  0  0  0  0  0
  -25.9769  -19.1251   13.3493 C   0  0  0  0  0  0  0  0  0  0  0  0
  -27.2974  -18.4524   13.0273 C   0  0  0  0  0  0  0  0  0  0  0  0
  -28.6730  -27.3313   19.9785 C   0  0  1  0  0  0  0  0  0  0  0  0
  -31.9037  -25.8908   21.3414 C   0  0  2  0  0  0  0  0  0  0  0  0
  -28.6310  -28.7678   19.3852 C   0  0  0  0  0  0  0  0  0  0  0  0
  -28.1982  -16.9198   19.6138 N   0  0  0  0  0  0  0  0  0  0  0  0
  -29.5404  -16.8650   19.6512 N   0  0  0  0  0  0  0  0  0  0  0  0
  -26.6642  -26.0016   20.5448 N   0  0  0  0  0  0  0  0  0  0  0  0
  -30.3945  -19.9614   17.5766 N   0  0  0  0  0  0  0  0  0  0  0  0
  -31.3578  -15.4714   20.2558 N   0  0  0  0  0  0  0  0  0  0  0  0
  -27.7404  -12.9654   21.2711 N   0  0  0  0  0  0  0  0  0  0  0  0
  -23.3468  -27.0705   21.3078 N   0  0  0  0  0  0  0  0  0  0  0  0
  -29.8822  -27.0339   20.7387 N   0  0  0  0  0  0  0  0  0  0  0  0
  -32.3020  -24.4669   21.5281 N   0  3  0  0  0  0  0  0  0  0  0  0
  -30.0329  -13.0197   21.2906 O   0  0  0  0  0  0  0  0  0  0  0  0
  -24.4011  -26.5694   19.2928 O   0  0  0  0  0  0  0  0  0  0  0  0
  -27.3703  -27.7501   21.9161 O   0  0  0  0  0  0  0  0  0  0  0  0
  -30.5437  -25.2142   19.4626 O   0  0  0  0  0  0  0  0  0  0  0  0
  -31.3494  -21.2200   15.8710 O   0  0  0  0  0  0  0  0  0  0  0  0
  -22.4128  -14.4448   20.5902 O   0  0  0  0  0  0  0  0  0  0  0  0
  -25.7651  -21.0502   16.9772 O   0  0  0  0  0  0  0  0  0  1  0  0
  -30.3530  -19.2191   15.3953 O   0  0  0  0  0  0  0  0  0  0  0  0
  -25.9016  -19.3522   14.7497 O   0  0  0  0  0  0  0  0  0  0  0  0
  -28.3627  -19.3096   13.4194 O   0  0  0  0  0  0  0  0  0  0  0  0
  -20.7417  -12.1138   25.2995 F   0  0  0  0  0  0  0  0  0  0  0  0
  -23.4645  -12.0294   21.4285 F   0  0  0  0  0  0  0  0  0  0  0  0
  1  2  1  0  0  0  0
  1  5  2  0  0  0  0
  2  6  2  0  0  0  0
  3  8  2  0  0  0  0
  3 15  1  0  0  0  0
  4  9  1  0  0  0  0
  4 15  2  0  0  0  0
  5 17  1  0  0  0  0
  6 19  1  0  0  0  0
  7 10  2  0  0  0  0
  7 18  1  0  0  0  0
  8 21  1  0  0  0  0
  9 21  2  0  0  0  0
 10 22  1  0  0  0  0
 11 12  2  0  0  0  0
 11 23  1  0  0  0  0
 12 24  1  0  0  0  0
 13 20  1  0  0  0  0
 13 22  2  0  0  0  0
 14 24  2  0  0  0  0
 14 25  1  0  0  0  0
 15 26  1  0  0  0  0
 16 26  1  0  0  0  0
 16 27  2  0  0  0  0
 16 28  1  0  0  0  0
 17 19  2  0  0  0  0
 17 33  1  0  0  0  0
 18 20  2  0  0  0  0
 18 34  1  0  0  0  0
 19 42  1  0  0  0  0
 20 35  1  0  0  0  0
 21 73  1  0  0  0  0
 22 74  1  0  0  0  0
 23 25  2  0  0  0  0
 23 73  1  0  0  0  0
 24 78  1  0  0  0  0
 25 79  1  0  0  0  0
 26 59  2  0  0  0  0
 27 60  1  0  0  0  0
 27 63  1  0  0  0  0
 28 64  1  0  0  0  0
 28 68  2  0  0  0  0
 29 43  1  0  0  0  0
 29 65  1  0  0  0  0
 29 69  2  0  0  0  0
 30 56  1  0  0  0  0
 30 61  1  0  0  0  0
 30 70  2  0  0  0  0
 31 57  1  0  0  0  0
 31 66  1  0  0  0  0
 31 71  2  0  0  0  0
 32 62  1  0  0  0  0
 32 72  2  0  0  0  0
 32 75  1  0  0  0  0
 33 36  1  0  0  0  0
 34 43  1  0  0  0  0
 35 61  1  0  0  0  0
 36 38  1  0  0  0  0
 37 39  1  0  0  0  0
 37 40  1  0  0  0  0
 38 42  1  0  0  0  0
 39 44  1  0  0  0  0
 40 62  1  0  0  0  0
 41 44  1  0  0  0  0
 41 62  1  0  0  0  0
 42 65  1  0  0  0  0
 43 61  1  0  0  0  0
 44 60  1  0  0  0  0
 45 57  1  0  0  0  0
 46 58  1  0  0  0  0
 47 58  1  0  0  0  0
 48 58  1  0  0  0  0
 49 67  1  0  0  0  0
 50 52  1  0  0  0  0
 50 74  1  0  0  0  0
 51 53  1  0  0  0  0
 51 75  1  0  0  0  0
 52 76  1  0  0  0  0
 53 77  1  0  0  0  0
 54 55  1  0  0  0  0
 54 76  1  0  0  0  0
 55 77  1  0  0  0  0
 56 58  1  0  0  0  0
 56 66  1  0  0  0  0
 57 67  1  0  0  0  0
 59 60  1  0  0  0  0
M  CHG  1  67   1
M  ISO  4  32 100  50 101  74 101  75 100
M  END
> <Batch ID>
0000

> <Smiles>
CNC(C)C(=O)NC(C(=O)N1Cc2cc([101O:1][101CH2:1]COCCOCC[100O:0][100C:0](=O)N3CCCC(n4nc(-c5ccc(Oc6ccc(F)cc6F)cc5)c(C(N)=O)c4N)C3)ccc2CC1C(=O)NC1CCCc2ccccc21)C(C)(C)C

> <Shape>
0.209

> <Color>
0.060

> <Negative vol penalty>
0.000

$$$$

  -OEChem-04042320113D

 79 86  0     1  0  0  0  0  0999 V2000
  -24.1488  -21.5364   17.0982 C   0  0  0  0  0  0  0  0  0  0  0  0
  -25.2246  -20.6811   16.8822 C   0  0  0  0  0  0  0  0  0  0  0  0
  -27.9659  -23.3978   17.2597 C   0  0  0  0  0  0  0  0  0  0  0  0
  -29.4539  -24.6259   18.7138 C   0  0  0  0  0  0  0  0  0  0  0  0
  -23.4472  -21.4819   18.3019 C   0  0  0  0  0  0  0  0  0  0  0  0
  -25.6000  -19.7715   17.8701 C   0  0  0  0  0  0  0  0  0  0  0  0
  -28.3657  -13.2105   18.6580 C   0  0  0  0  0  0  0  0  0  0  0  0
  -27.1215  -24.5056   17.1879 C   0  0  0  0  0  0  0  0  0  0  0  0
  -28.6095  -25.7339   18.6420 C   0  0  0  0  0  0  0  0  0  0  0  0
  -29.3989  -12.5497   19.3211 C   0  0  0  0  0  0  0  0  0  0  0  0
  -25.6958  -26.7397   20.0310 C   0  0  0  0  0  0  0  0  0  0  0  0
  -25.3996  -27.4069   21.2196 C   0  0  0  0  0  0  0  0  0  0  0  0
  -28.0640  -12.4905   21.3295 C   0  0  0  0  0  0  0  0  0  0  0  0
  -26.3659  -29.4320   20.3237 C   0  0  0  0  0  0  0  0  0  0  0  0
  -29.1321  -23.4578   18.0227 C   0  0  0  0  0  0  0  0  0  0  0  0
  -31.0851  -22.0112   17.2476 C   0  0  0  0  0  0  0  0  0  0  0  0
  -23.8082  -20.5645   19.3012 C   0  0  0  0  0  0  0  0  0  0  0  0
  -27.1762  -13.5265   19.3300 C   0  0  0  0  0  0  0  0  0  0  0  0
  -24.9034  -19.7056   19.0888 C   0  0  0  0  0  0  0  0  0  0  0  0
  -27.0163  -13.1531   20.6720 C   0  0  0  0  0  0  0  0  0  0  0  0
  -27.4433  -25.6737   17.8791 C   0  0  0  0  0  0  0  0  0  0  0  0
  -29.2493  -12.1921   20.6578 C   0  0  0  0  0  0  0  0  0  0  0  0
  -26.3271  -27.4186   18.9888 C   0  0  0  0  0  0  0  0  0  0  0  0
  -25.7346  -28.7530   21.3659 C   0  0  0  0  0  0  0  0  0  0  0  0
  -26.6621  -28.7648   19.1351 C   0  0  0  0  0  0  0  0  0  0  0  0
  -30.0044  -22.3135   18.0977 C   0  0  0  0  0  0  0  0  0  0  0  0
  -31.5855  -20.8289   17.7355 C   0  0  0  0  0  0  0  0  0  0  0  0
  -31.5913  -22.7346   16.1179 C   0  0  0  0  0  0  0  0  0  0  0  0
  -25.6635  -16.2239   20.0648 C   0  0  0  0  0  0  0  0  0  0  0  0
  -23.3609  -14.1909   21.1077 C   0  0  0  0  0  0  0  0  0  0  0  0
  -22.5428  -11.0812   22.2511 C   0  0  0  0  0  0  0  0  0  0  0  0
  -31.4488  -18.4269   23.1270 C   0  0  0  0  0  0  0  0  0  0  0  0
  -23.0495  -20.5751   20.6047 C   0  0  0  0  0  0  0  0  0  0  0  0
  -26.0608  -14.2159   18.5930 C   0  0  0  0  0  0  0  0  0  0  0  0
  -25.7510  -13.4512   21.4328 C   0  0  0  0  0  0  0  0  0  0  0  0
  -23.2764  -19.3255   21.4516 C   0  0  0  0  0  0  0  0  0  0  0  0
  -30.2441  -16.8806   20.0848 C   0  0  0  0  0  0  0  0  0  0  0  0
  -24.7628  -18.9900   21.5206 C   0  0  0  0  0  0  0  0  0  0  0  0
  -30.1510  -18.0857   19.1472 C   0  0  0  0  0  0  0  0  0  0  0  0
  -29.8381  -17.2542   21.5074 C   0  0  0  0  0  0  0  0  0  0  0  0
  -30.5135  -19.5977   21.1529 C   0  0  0  0  0  0  0  0  0  0  0  0
  -25.3256  -18.6882   20.1264 C   0  0  1  0  0  0  0  0  0  0  0  0
  -25.0931  -14.9450   19.5201 C   0  0  1  0  0  0  0  0  0  0  0  0
  -30.9328  -19.2904   19.7038 C   0  0  2  0  0  0  0  0  0  0  0  0
  -20.5878   -9.7300   23.0570 C   0  0  0  0  0  0  0  0  0  0  0  0
  -23.4523  -15.6580   23.7815 C   0  0  0  0  0  0  0  0  0  0  0  0
  -22.2294  -13.7271   24.8035 C   0  0  0  0  0  0  0  0  0  0  0  0
  -21.1535  -15.0660   22.9944 C   0  0  0  0  0  0  0  0  0  0  0  0
  -22.8469   -9.1181   20.0574 C   0  0  0  0  0  0  0  0  0  0  0  0
  -32.3027  -17.1272   25.0605 C   0  0  0  0  0  0  0  0  0  0  0  0
  -32.1882  -15.7446   25.6773 C   0  0  0  0  0  0  0  0  0  0  0  0
  -31.5886  -11.8245   20.8775 C   0  0  0  0  0  0  0  0  0  1  0  0
  -32.5314  -11.6696   22.0552 C   0  0  0  0  0  0  0  0  0  0  0  0
  -32.5348  -13.4559   25.2720 C   0  0  0  0  0  0  0  0  0  0  0  0
  -32.9891  -12.4631   24.2193 C   0  0  0  0  0  0  0  0  0  0  0  0
  -23.0548  -13.5030   22.4161 C   0  0  1  0  0  0  0  0  0  0  0  0
  -21.4344  -10.1222   21.8561 C   0  0  2  0  0  0  0  0  0  0  0  0
  -22.4972  -14.4845   23.4854 C   0  0  0  0  0  0  0  0  0  0  0  0
  -29.8279  -21.3970   19.0531 N   0  0  0  0  0  0  0  0  0  0  0  0
  -30.8043  -20.5072   18.8063 N   0  0  0  0  0  0  0  0  0  0  0  0
  -24.6917  -14.1324   20.6703 N   0  0  0  0  0  0  0  0  0  0  0  0
  -30.6323  -18.3952   21.9843 N   0  0  0  0  0  0  0  0  0  0  0  0
  -32.6130  -20.0433   17.3488 N   0  0  0  0  0  0  0  0  0  0  0  0
  -30.9593  -23.9311   15.7528 N   0  0  0  0  0  0  0  0  0  0  0  0
  -24.9522  -17.3538   19.7087 N   0  0  0  0  0  0  0  0  0  0  0  0
  -22.1594  -12.3966   22.0959 N   0  0  0  0  0  0  0  0  0  0  0  0
  -31.5012  -17.2497   23.8632 N   0  0  0  0  0  0  0  0  0  0  0  0
  -22.0095   -8.8825   21.2616 N   0  3  0  0  0  0  0  0  0  0  0  0
  -32.5648  -22.3234   15.4420 O   0  0  0  0  0  0  0  0  0  0  0  0
  -26.6733  -16.1880   20.7581 O   0  0  0  0  0  0  0  0  0  0  0  0
  -22.4513  -14.7531   20.4927 O   0  0  0  0  0  0  0  0  0  0  0  0
  -23.6378  -10.7016   22.6602 O   0  0  0  0  0  0  0  0  0  0  0  0
  -32.0886  -19.4291   23.4636 O   0  0  0  0  0  0  0  0  0  0  0  0
  -26.6198  -26.7551   17.8091 O   0  0  0  0  0  0  0  0  0  0  0  0
  -30.2564  -11.5476   21.3076 O   0  0  0  0  0  0  0  0  0  1  0  0
  -32.6238  -14.7714   24.7383 O   0  0  0  0  0  0  0  0  0  0  0  0
  -32.1372  -12.5659   23.0870 O   0  0  0  0  0  0  0  0  0  0  0  0
  -25.4487  -29.3940   22.5068 F   0  0  0  0  0  0  0  0  0  0  0  0
  -27.2676  -29.4226   18.1369 F   0  0  0  0  0  0  0  0  0  0  0  0
  1  2  1  0  0  0  0
  1  5  2  0  0  0  0
  2  6  2  0  0  0  0
  3  8  2  0  0  0  0
  3 15  1  0  0  0  0
  4  9  1  0  0  0  0
  4 15  2  0  0  0  0
  5 17  1  0  0  0  0
  6 19  1  0  0  0  0
  7 10  2  0  0  0  0
  7 18  1  0  0  0  0
  8 21  1  0  0  0  0
  9 21  2  0  0  0  0
 10 22  1  0  0  0  0
 11 12  2  0  0  0  0
 11 23  1  0  0  0  0
 12 24  1  0  0  0  0
 13 20  1  0  0  0  0
 13 22  2  0  0  0  0
 14 24  2  0  0  0  0
 14 25  1  0  0  0  0
 15 26  1  0  0  0  0
 16 26  1  0  0  0  0
 16 27  2  0  0  0  0
 16 28  1  0  0  0  0
 17 19  2  0  0  0  0
 17 33  1  0  0  0  0
 18 20  2  0  0  0  0
 18 34  1  0  0  0  0
 19 42  1  0  0  0  0
 20 35  1  0  0  0  0
 21 74  1  0  0  0  0
 22 75  1  0  0  0  0
 23 25  2  0  0  0  0
 23 74  1  0  0  0  0
 24 78  1  0  0  0  0
 25 79  1  0  0  0  0
 26 59  2  0  0  0  0
 27 60  1  0  0  0  0
 27 63  1  0  0  0  0
 28 64  1  0  0  0  0
 28 69  2  0  0  0  0
 29 43  1  0  0  0  0
 29 65  1  0  0  0  0
 29 70  2  0  0  0  0
 30 56  1  0  0  0  0
 30 61  1  0  0  0  0
 30 71  2  0  0  0  0
 31 57  1  0  0  0  0
 31 66  1  0  0  0  0
 31 72  2  0  0  0  0
 32 62  1  0  0  0  0
 32 67  1  0  0  0  0
 32 73  2  0  0  0  0
 33 36  1  0  0  0  0
 34 43  1  0  0  0  0
 35 61  1  0  0  0  0
 36 38  1  0  0  0  0
 37 39  1  0  0  0  0
 37 40  1  0  0  0  0
 38 42  1  0  0  0  0
 39 44  1  0  0  0  0
 40 62  1  0  0  0  0
 41 44  1  0  0  0  0
 41 62  1  0  0  0  0
 42 65  1  0  0  0  0
 43 61  1  0  0  0  0
 44 60  1  0  0  0  0
 45 57  1  0  0  0  0
 46 58  1  0  0  0  0
 47 58  1  0  0  0  0
 48 58  1  0  0  0  0
 49 68  1  0  0  0  0
 50 51  1  0  0  0  0
 50 67  1  0  0  0  0
 51 76  1  0  0  0  0
 52 53  1  0  0  0  0
 52 75  1  0  0  0  0
 53 77  1  0  0  0  0
 54 55  1  0  0  0  0
 54 76  1  0  0  0  0
 55 77  1  0  0  0  0
 56 58  1  0  0  0  0
 56 66  1  0  0  0  0
 57 68  1  0  0  0  0
 59 60  1  0  0  0  0
M  CHG  1  68   1
M  ISO  4  32 100  52 101  67 100  75 101
M  END
> <Batch ID>
0000

> <Smiles>
CNC(C)C(=O)NC(C(=O)N1Cc2cc([101O:1][101CH2:1]COCCOCC[100NH:0][100C:0](=O)N3CCCC(n4nc(-c5ccc(Oc6ccc(F)cc6F)cc5)c(C(N)=O)c4N)C3)ccc2CC1C(=O)NC1CCCc2ccccc21)C(C)(C)C

> <Shape>
0.193

> <Color>
0.068

> <Negative vol penalty>
0.000

$$$$

  -OEChem-04042320113D

 94103  0     1  0  0  0  0  0999 V2000
  -20.7779  -30.2885   20.2251 C   0  0  0  0  0  0  0  0  0  0  0  0
  -21.7451  -30.3136   21.2248 C   0  0  0  0  0  0  0  0  0  0  0  0
  -25.1121  -28.6370   19.2752 C   0  0  0  0  0  0  0  0  0  0  0  0
  -29.6517  -17.4899   20.1488 C   0  0  0  0  0  0  0  0  0  0  0  0
  -27.4194  -17.8168   21.0130 C   0  0  0  0  0  0  0  0  0  0  0  0
  -19.7192  -29.3847   20.3035 C   0  0  0  0  0  0  0  0  0  0  0  0
  -21.6535  -29.4354   22.3041 C   0  0  0  0  0  0  0  0  0  0  0  0
  -26.2928  -26.7914   25.3028 C   0  0  0  0  0  0  0  0  0  0  0  0
  -25.7505  -27.4799   19.7213 C   0  0  0  0  0  0  0  0  0  0  0  0
  -28.0832  -32.0186   24.6694 C   0  0  0  0  0  0  0  0  0  0  0  0
  -25.4481  -29.8747   19.8240 C   0  0  0  0  0  0  0  0  0  0  0  0
  -29.5804  -16.1361   20.4766 C   0  0  0  0  0  0  0  0  0  0  0  0
  -27.3481  -16.4629   21.3408 C   0  0  0  0  0  0  0  0  0  0  0  0
  -26.9358  -27.1044   26.4996 C   0  0  0  0  0  0  0  0  0  0  0  0
  -27.9595  -31.9368   23.2824 C   0  0  0  0  0  0  0  0  0  0  0  0
  -29.8481  -12.5215   20.7566 C   0  0  0  0  0  0  0  0  0  0  0  0
  -30.2923  -11.6003   19.8081 C   0  0  0  0  0  0  0  0  0  0  0  0
  -25.5259  -25.5293   27.6619 C   0  0  0  0  0  0  0  0  0  0  0  0
  -27.0606  -28.7979   21.2652 C   0  0  0  0  0  0  0  0  0  0  0  0
  -25.9170  -30.6722   23.5392 C   0  0  0  0  0  0  0  0  0  0  0  0
  -28.6362  -12.4099   18.2463 C   0  0  0  0  0  0  0  0  0  0  0  0
  -28.5712  -18.3304   20.4170 C   0  0  0  0  0  0  0  0  0  0  0  0
  -28.2626  -20.3316   18.8654 C   0  0  0  0  0  0  0  0  0  0  0  0
  -19.6199  -28.4884   21.3793 C   0  0  0  0  0  0  0  0  0  0  0  0
  -25.2524  -25.8514   25.2784 C   0  0  0  0  0  0  0  0  0  0  0  0
  -20.5918  -28.5196   22.3976 C   0  0  0  0  0  0  0  0  0  0  0  0
  -24.8731  -25.2043   26.4631 C   0  0  0  0  0  0  0  0  0  0  0  0
  -26.7247  -27.5603   20.7163 C   0  0  0  0  0  0  0  0  0  0  0  0
  -27.1237  -31.4273   25.4913 C   0  0  0  0  0  0  0  0  0  0  0  0
  -28.4286  -15.6225   21.0726 C   0  0  0  0  0  0  0  0  0  0  0  0
  -26.5505  -26.4755   27.6799 C   0  0  0  0  0  0  0  0  0  0  0  0
  -26.4223  -29.9550   20.8190 C   0  0  0  0  0  0  0  0  0  0  0  0
  -26.8764  -31.2636   22.7173 C   0  0  0  0  0  0  0  0  0  0  0  0
  -28.7979  -13.3869   20.4500 C   0  0  0  0  0  0  0  0  0  0  0  0
  -29.6864  -11.5445   18.5529 C   0  0  0  0  0  0  0  0  0  0  0  0
  -26.0406  -30.7541   24.9261 C   0  0  0  0  0  0  0  0  0  0  0  0
  -28.1920  -13.3310   19.1948 C   0  0  0  0  0  0  0  0  0  0  0  0
  -28.6445  -19.7291   20.0791 C   0  0  0  0  0  0  0  0  0  0  0  0
  -28.5275  -21.6671   19.0468 C   0  0  0  0  0  0  0  0  0  0  0  0
  -27.7172  -19.7372   17.6801 C   0  0  0  0  0  0  0  0  0  0  0  0
  -22.1656  -25.9411   24.5253 C   0  0  0  0  0  0  0  0  0  0  0  0
  -22.3638  -22.7340   24.9700 C   0  0  0  0  0  0  0  0  0  0  0  0
  -23.9739  -20.1064   26.4363 C   0  0  0  0  0  0  0  0  0  0  0  0
  -28.3614  -26.2884   22.1481 C   0  0  0  0  0  0  0  0  0  0  0  0
  -18.4317  -27.5618   21.4449 C   0  0  0  0  0  0  0  0  0  0  0  0
  -24.5869  -25.5053   23.9746 C   0  0  0  0  0  0  0  0  0  0  0  0
  -23.7757  -24.1730   26.4870 C   0  0  0  0  0  0  0  0  0  0  0  0
  -18.6114  -26.4096   22.4300 C   0  0  0  0  0  0  0  0  0  0  0  0
  -31.0732  -24.0519   22.7147 C   0  0  0  0  0  0  0  0  0  0  0  0
  -19.1609  -26.9228   23.7573 C   0  0  0  0  0  0  0  0  0  0  0  0
  -30.6517  -22.7774   21.9797 C   0  0  0  0  0  0  0  0  0  0  0  0
  -29.8822  -24.7490   23.3698 C   0  0  0  0  0  0  0  0  0  0  0  0
  -28.3315  -23.7496   21.7371 C   0  0  0  0  0  0  0  0  0  0  0  0
  -20.5405  -27.5659   23.5715 C   0  0  1  0  0  0  0  0  0  0  0  0
  -23.1938  -24.9101   24.1545 C   0  0  1  0  0  0  0  0  0  0  0  0
  -29.4875  -23.0472   21.0063 C   0  0  2  0  0  0  0  0  0  0  0  0
  -24.5363  -17.7165   26.9555 C   0  0  0  0  0  0  0  0  0  0  0  0
  -20.0236  -22.9847   26.9119 C   0  0  0  0  0  0  0  0  0  0  0  0
  -20.5903  -20.7058   27.7800 C   0  0  0  0  0  0  0  0  0  0  0  0
  -19.9137  -20.9980   25.3968 C   0  0  0  0  0  0  0  0  0  0  0  0
  -25.8853  -19.9452   24.1825 C   0  0  0  0  0  0  0  0  0  0  0  0
  -28.0866  -32.5342   27.5095 C   0  0  0  0  0  0  0  0  0  0  0  0
  -27.6766  -32.6672   28.9648 C   0  0  0  0  0  0  0  0  0  0  0  0
  -26.4059  -26.6688   30.0458 C   0  0  0  0  0  0  0  0  0  1  0  0
  -26.9134  -27.6787   31.0568 C   0  0  0  0  0  0  0  0  0  0  0  0
  -27.0436  -31.3472   30.8032 C   0  0  0  0  0  0  0  0  0  0  0  0
  -27.2158  -29.9786   31.4335 C   0  0  0  0  0  0  0  0  0  0  0  0
  -22.1892  -21.8051   26.1472 C   0  0  1  0  0  0  0  0  0  0  0  0
  -24.4616  -18.7833   25.8742 C   0  0  2  0  0  0  0  0  0  0  0  0
  -20.6986  -21.6442   26.5592 C   0  0  0  0  0  0  0  0  0  0  0  0
  -29.1162  -20.6096   20.9659 N   0  0  0  0  0  0  0  0  0  0  0  0
  -29.0325  -21.7789   20.3088 N   0  0  0  0  0  0  0  0  0  0  0  0
  -23.1511  -23.8735   25.1878 N   0  0  0  0  0  0  0  0  0  0  0  0
  -28.8205  -24.9758   22.3868 N   0  0  0  0  0  0  0  0  0  0  0  0
  -28.3754  -22.7448   18.2482 N   0  0  0  0  0  0  0  0  0  0  0  0
  -27.5084  -18.3514   17.6629 N   0  0  0  0  0  0  0  0  0  0  0  0
  -27.3731  -26.3845   21.1690 N   0  0  0  0  0  0  0  0  0  0  0  0
  -27.2471  -31.5087   26.8487 N   0  0  0  0  0  0  0  0  0  0  0  0
  -21.5597  -26.5468   23.4411 N   0  0  0  0  0  0  0  0  0  0  0  0
  -22.8464  -20.5549   25.7816 N   0  0  0  0  0  0  0  0  0  0  0  0
  -25.8175  -18.9426   25.2767 N   0  3  0  0  0  0  0  0  0  0  0  0
  -27.4390  -20.4127   16.6604 O   0  0  0  0  0  0  0  0  0  0  0  0
  -21.9376  -26.1690   25.7076 O   0  0  0  0  0  0  0  0  0  0  0  0
  -21.8274  -22.4550   23.8948 O   0  0  0  0  0  0  0  0  0  0  0  0
  -24.5348  -20.6825   27.3659 O   0  0  0  0  0  0  0  0  0  0  0  0
  -28.8310  -27.2592   22.7473 O   0  0  0  0  0  0  0  0  0  0  0  0
  -28.3586  -14.3014   21.3925 O   0  0  0  0  0  0  0  0  0  0  0  0
  -26.7557  -31.1836   21.3640 O   0  0  0  0  0  0  0  0  0  0  0  0
  -27.1760  -26.7796   28.8496 O   0  0  0  0  0  0  0  0  0  1  0  0
  -27.8177  -31.4100   29.6115 O   0  0  0  0  0  0  0  0  0  0  0  0
  -26.7548  -28.9884   30.5249 O   0  0  0  0  0  0  0  0  0  0  0  0
  -30.1140  -10.6609   17.6416 F   0  0  0  0  0  0  0  0  0  0  0  0
  -25.1126  -30.1822   25.7066 F   0  0  0  0  0  0  0  0  0  0  0  0
  -27.1834  -14.1606   18.8941 F   0  0  0  0  0  0  0  0  0  0  0  0
  1  2  1  0  0  0  0
  1  6  2  0  0  0  0
  2  7  2  0  0  0  0
  3  9  1  0  0  0  0
  3 11  2  0  0  0  0
  4 12  2  0  0  0  0
  4 22  1  0  0  0  0
  5 13  1  0  0  0  0
  5 22  2  0  0  0  0
  6 24  1  0  0  0  0
  7 26  1  0  0  0  0
  8 14  2  0  0  0  0
  8 25  1  0  0  0  0
  9 28  2  0  0  0  0
 10 15  2  0  0  0  0
 10 29  1  0  0  0  0
 11 32  1  0  0  0  0
 12 30  1  0  0  0  0
 13 30  2  0  0  0  0
 14 31  1  0  0  0  0
 15 33  1  0  0  0  0
 16 17  2  0  0  0  0
 16 34  1  0  0  0  0
 17 35  1  0  0  0  0
 18 27  1  0  0  0  0
 18 31  2  0  0  0  0
 19 28  1  0  0  0  0
 19 32  2  0  0  0  0
 20 33  2  0  0  0  0
 20 36  1  0  0  0  0
 21 35  2  0  0  0  0
 21 37  1  0  0  0  0
 22 38  1  0  0  0  0
 23 38  1  0  0  0  0
 23 39  2  0  0  0  0
 23 40  1  0  0  0  0
 24 26  2  0  0  0  0
 24 45  1  0  0  0  0
 25 27  2  0  0  0  0
 25 46  1  0  0  0  0
 26 54  1  0  0  0  0
 27 47  1  0  0  0  0
 28 77  1  0  0  0  0
 29 36  2  0  0  0  0
 29 78  1  0  0  0  0
 30 87  1  0  0  0  0
 31 89  1  0  0  0  0
 32 88  1  0  0  0  0
 33 88  1  0  0  0  0
 34 37  2  0  0  0  0
 34 87  1  0  0  0  0
 35 92  1  0  0  0  0
 36 93  1  0  0  0  0
 37 94  1  0  0  0  0
 38 71  2  0  0  0  0
 39 72  1  0  0  0  0
 39 75  1  0  0  0  0
 40 76  1  0  0  0  0
 40 82  2  0  0  0  0
 41 55  1  0  0  0  0
 41 79  1  0  0  0  0
 41 83  2  0  0  0  0
 42 68  1  0  0  0  0
 42 73  1  0  0  0  0
 42 84  2  0  0  0  0
 43 69  1  0  0  0  0
 43 80  1  0  0  0  0
 43 85  2  0  0  0  0
 44 74  1  0  0  0  0
 44 77  1  0  0  0  0
 44 86  2  0  0  0  0
 45 48  1  0  0  0  0
 46 55  1  0  0  0  0
 47 73  1  0  0  0  0
 48 50  1  0  0  0  0
 49 51  1  0  0  0  0
 49 52  1  0  0  0  0
 50 54  1  0  0  0  0
 51 56  1  0  0  0  0
 52 74  1  0  0  0  0
 53 56  1  0  0  0  0
 53 74  1  0  0  0  0
 54 79  1  0  0  0  0
 55 73  1  0  0  0  0
 56 72  1  0  0  0  0
 57 69  1  0  0  0  0
 58 70  1  0  0  0  0
 59 70  1  0  0  0  0
 60 70  1  0  0  0  0
 61 81  1  0  0  0  0
 62 63  1  0  0  0  0
 62 78  1  0  0  0  0
 63 90  1  0  0  0  0
 64 65  1  0  0  0  0
 64 89  1  0  0  0  0
 65 91  1  0  0  0  0
 66 67  1  0  0  0  0
 66 90  1  0  0  0  0
 67 91  1  0  0  0  0
 68 70  1  0  0  0  0
 68 80  1  0  0  0  0
 69 81  1  0  0  0  0
 71 72  1  0  0  0  0
M  CHG  1  81   1
M  ISO  4  44 100  64 101  77 100  89 101
M  END
> <Batch ID>
0000

> <Smiles>
CNC(C)C(=O)NC(C(=O)N1Cc2cc([101O:1][101CH2:1]COCCOCCNc3ccc(Oc4cccc([100NH:0][100C:0](=O)N5CCCC(n6nc(-c7ccc(Oc8ccc(F)cc8F)cc7)c(C(N)=O)c6N)C5)c4)cc3F)ccc2CC1C(=O)NC1CCCc2ccccc21)C(C)(C)C

> <Shape>
0.250

> <Color>
0.061

> <Negative vol penalty>
0.000

$$$$

  -OEChem-04042320113D

 79 87  0     1  0  0  0  0  0999 V2000
  -28.7111  -24.1032   17.9694 C   0  0  0  0  0  0  0  0  0  0  0  0
  -27.4719  -24.3658   18.5444 C   0  0  0  0  0  0  0  0  0  0  0  0
  -19.6203  -23.8235   19.7295 C   0  0  0  0  0  0  0  0  0  0  0  0
  -27.3005  -16.2045   21.5152 C   0  0  0  0  0  0  0  0  0  0  0  0
  -25.8503  -16.7910   19.6740 C   0  0  0  0  0  0  0  0  0  0  0  0
  -29.8622  -24.6826   18.5016 C   0  0  0  0  0  0  0  0  0  0  0  0
  -27.3831  -25.2071   19.6529 C   0  0  0  0  0  0  0  0  0  0  0  0
  -23.5873  -28.5367   19.2656 C   0  0  0  0  0  0  0  0  0  0  0  0
  -19.2332  -25.0032   20.3652 C   0  0  0  0  0  0  0  0  0  0  0  0
  -20.2547  -22.8157   20.4558 C   0  0  0  0  0  0  0  0  0  0  0  0
  -27.3642  -14.8921   21.0470 C   0  0  0  0  0  0  0  0  0  0  0  0
  -25.9140  -15.4786   19.2058 C   0  0  0  0  0  0  0  0  0  0  0  0
  -22.3004  -28.0684   19.5270 C   0  0  0  0  0  0  0  0  0  0  0  0
  -28.9994  -13.1869   18.6281 C   0  0  0  0  0  0  0  0  0  0  0  0
  -30.2508  -12.5720   18.5906 C   0  0  0  0  0  0  0  0  0  0  0  0
  -22.4127  -29.0147   21.7431 C   0  0  0  0  0  0  0  0  0  0  0  0
  -20.1149  -24.1673   22.4535 C   0  0  0  0  0  0  0  0  0  0  0  0
  -29.4540  -10.8583   20.0956 C   0  0  0  0  0  0  0  0  0  0  0  0
  -26.5435  -17.1539   20.8287 C   0  0  0  0  0  0  0  0  0  0  0  0
  -27.3337  -19.5750   20.9764 C   0  0  0  0  0  0  0  0  0  0  0  0
  -29.7864  -25.5391   19.6112 C   0  0  0  0  0  0  0  0  0  0  0  0
  -24.3020  -29.2393   20.2464 C   0  0  0  0  0  0  0  0  0  0  0  0
  -28.5344  -25.7975   20.2013 C   0  0  0  0  0  0  0  0  0  0  0  0
  -23.7076  -29.4931   21.4907 C   0  0  0  0  0  0  0  0  0  0  0  0
  -19.4805  -25.1751   21.7271 C   0  0  0  0  0  0  0  0  0  0  0  0
  -20.5020  -22.9876   21.8178 C   0  0  0  0  0  0  0  0  0  0  0  0
  -26.6710  -14.5291   19.8923 C   0  0  0  0  0  0  0  0  0  0  0  0
  -21.7140  -28.3049   20.7669 C   0  0  0  0  0  0  0  0  0  0  0  0
  -27.9752  -12.6375   19.3995 C   0  0  0  0  0  0  0  0  0  0  0  0
  -30.4781  -11.4077   19.3243 C   0  0  0  0  0  0  0  0  0  0  0  0
  -28.2025  -11.4732   20.1332 C   0  0  0  0  0  0  0  0  0  0  0  0
  -26.4769  -18.5096   21.3121 C   0  0  0  0  0  0  0  0  0  0  0  0
  -26.8522  -20.6422   21.6944 C   0  0  0  0  0  0  0  0  0  0  0  0
  -28.4637  -19.5978   20.0942 C   0  0  0  0  0  0  0  0  0  0  0  0
  -27.0198  -28.7529   21.8214 C   0  0  0  0  0  0  0  0  0  0  0  0
  -26.4357  -31.7315   22.9656 C   0  0  0  0  0  0  0  0  0  0  0  0
  -24.1556  -34.1769   23.6491 C   0  0  0  0  0  0  0  0  0  0  0  0
  -21.4659  -21.9733   23.9126 C   0  0  0  0  0  0  0  0  0  0  0  0
  -31.0635  -26.1045   20.1805 C   0  0  0  0  0  0  0  0  0  0  0  0
  -25.6789  -29.7610   19.9394 C   0  0  0  0  0  0  0  0  0  0  0  0
  -24.4248  -30.2599   22.5706 C   0  0  0  0  0  0  0  0  0  0  0  0
  -30.8401  -27.2819   21.1261 C   0  0  0  0  0  0  0  0  0  0  0  0
  -24.5085  -21.6829   25.7389 C   0  0  0  0  0  0  0  0  0  0  0  0
  -29.7229  -26.9671   22.1158 C   0  0  0  0  0  0  0  0  0  0  0  0
  -25.4384  -20.9385   24.7781 C   0  0  0  0  0  0  0  0  0  0  0  0
  -23.0692  -21.1811   25.6380 C   0  0  0  0  0  0  0  0  0  0  0  0
  -23.4373  -20.4310   23.3205 C   0  0  0  0  0  0  0  0  0  0  0  0
  -28.3944  -26.7244   21.3893 C   0  0  1  0  0  0  0  0  0  0  0  0
  -26.5129  -30.0189   21.1906 C   0  0  1  0  0  0  0  0  0  0  0  0
  -24.8856  -20.9464   23.3394 C   0  0  2  0  0  0  0  0  0  0  0  0
  -23.9728  -36.4850   24.6170 C   0  0  0  0  0  0  0  0  0  0  0  0
  -26.7295  -30.5746   25.7737 C   0  0  0  0  0  0  0  0  0  0  0  0
  -25.6236  -32.6369   26.6636 C   0  0  0  0  0  0  0  0  0  0  0  0
  -27.7964  -32.8134   25.4508 C   0  0  0  0  0  0  0  0  0  0  0  0
  -23.1145  -35.2849   21.1099 C   0  0  0  0  0  0  0  0  0  0  0  0
  -19.0614  -26.4519   22.4145 C   0  0  0  0  0  0  0  0  0  0  0  0
  -20.1537  -27.5152   22.3787 C   0  0  0  0  0  0  0  0  0  1  0  0
  -25.6905  -32.2939   24.1518 C   0  0  1  0  0  0  0  0  0  0  0  0
  -24.1540  -35.6650   23.3491 C   0  0  2  0  0  0  0  0  0  0  0  0
  -26.4470  -32.0635   25.4905 C   0  0  0  0  0  0  0  0  0  0  0  0
  -25.5235  -18.8675   22.1764 N   0  0  0  0  0  0  0  0  0  0  0  0
  -25.7783  -20.1696   22.3898 N   0  0  0  0  0  0  0  0  0  0  0  0
  -25.7715  -30.7439   22.2244 N   0  0  0  0  0  0  0  0  0  0  0  0
  -22.6117  -21.2211   24.2473 N   0  0  0  0  0  0  0  0  0  0  0  0
  -27.2470  -21.9294   21.7926 N   0  0  0  0  0  0  0  0  0  0  0  0
  -28.8216  -18.4133   19.4360 N   0  0  0  0  0  0  0  0  0  0  0  0
  -21.1458  -21.9633   22.5554 N   0  0  0  0  0  0  0  0  0  0  0  0
  -27.8030  -27.9815   20.9840 N   0  0  0  0  0  0  0  0  0  0  0  0
  -25.4333  -33.6967   23.8446 N   0  0  0  0  0  0  0  0  0  0  0  0
  -23.0481  -36.0027   22.4089 N   0  3  0  0  0  0  0  0  0  0  0  0
  -29.1462  -20.6338   19.9081 O   0  0  0  0  0  0  0  0  0  0  0  0
  -26.7236  -28.4956   22.9823 O   0  0  0  0  0  0  0  0  0  0  0  0
  -27.5628  -32.1579   22.7019 O   0  0  0  0  0  0  0  0  0  0  0  0
  -23.1261  -33.5083   23.7082 O   0  0  0  0  0  0  0  0  0  0  0  0
  -20.8322  -22.6036   24.7630 O   0  0  0  0  0  0  0  0  0  0  0  0
  -26.7331  -13.2486   19.4351 O   0  0  0  0  0  0  0  0  0  0  0  0
  -20.4583  -27.8483   21.0249 O   0  0  0  0  0  0  0  0  0  1  0  0
  -31.6795  -10.8165   19.2869 F   0  0  0  0  0  0  0  0  0  0  0  0
  -27.2221  -10.9400   20.8751 F   0  0  0  0  0  0  0  0  0  0  0  0
  1  2  1  0  0  0  0
  1  6  2  0  0  0  0
  2  7  2  0  0  0  0
  3  9  2  0  0  0  0
  3 10  1  0  0  0  0
  4 11  2  0  0  0  0
  4 19  1  0  0  0  0
  5 12  1  0  0  0  0
  5 19  2  0  0  0  0
  6 21  1  0  0  0  0
  7 23  1  0  0  0  0
  8 13  2  0  0  0  0
  8 22  1  0  0  0  0
  9 25  1  0  0  0  0
 10 26  2  0  0  0  0
 11 27  1  0  0  0  0
 12 27  2  0  0  0  0
 13 28  1  0  0  0  0
 14 15  2  0  0  0  0
 14 29  1  0  0  0  0
 15 30  1  0  0  0  0
 16 24  1  0  0  0  0
 16 28  2  0  0  0  0
 17 25  2  0  0  0  0
 17 26  1  0  0  0  0
 18 30  2  0  0  0  0
 18 31  1  0  0  0  0
 19 32  1  0  0  0  0
 20 32  1  0  0  0  0
 20 33  2  0  0  0  0
 20 34  1  0  0  0  0
 21 23  2  0  0  0  0
 21 39  1  0  0  0  0
 22 24  2  0  0  0  0
 22 40  1  0  0  0  0
 23 48  1  0  0  0  0
 24 41  1  0  0  0  0
 25 56  1  0  0  0  0
 26 67  1  0  0  0  0
 27 76  1  0  0  0  0
 28 77  1  0  0  0  0
 29 31  2  0  0  0  0
 29 76  1  0  0  0  0
 30 78  1  0  0  0  0
 31 79  1  0  0  0  0
 32 61  2  0  0  0  0
 33 62  1  0  0  0  0
 33 65  1  0  0  0  0
 34 66  1  0  0  0  0
 34 71  2  0  0  0  0
 35 49  1  0  0  0  0
 35 68  1  0  0  0  0
 35 72  2  0  0  0  0
 36 58  1  0  0  0  0
 36 63  1  0  0  0  0
 36 73  2  0  0  0  0
 37 59  1  0  0  0  0
 37 69  1  0  0  0  0
 37 74  2  0  0  0  0
 38 64  1  0  0  0  0
 38 67  1  0  0  0  0
 38 75  2  0  0  0  0
 39 42  1  0  0  0  0
 40 49  1  0  0  0  0
 41 63  1  0  0  0  0
 42 44  1  0  0  0  0
 43 45  1  0  0  0  0
 43 46  1  0  0  0  0
 44 48  1  0  0  0  0
 45 50  1  0  0  0  0
 46 64  1  0  0  0  0
 47 50  1  0  0  0  0
 47 64  1  0  0  0  0
 48 68  1  0  0  0  0
 49 63  1  0  0  0  0
 50 62  1  0  0  0  0
 51 59  1  0  0  0  0
 52 60  1  0  0  0  0
 53 60  1  0  0  0  0
 54 60  1  0  0  0  0
 55 70  1  0  0  0  0
 56 57  1  0  0  0  0
 57 77  1  0  0  0  0
 58 60  1  0  0  0  0
 58 69  1  0  0  0  0
 59 70  1  0  0  0  0
 61 62  1  0  0  0  0
M  CHG  1  70   1
M  ISO  4  38 100  57 101  67 100  77 101
M  END
> <Batch ID>
0000

> <Smiles>
CNC(C)C(=O)NC(C(=O)N1Cc2cc([101O:1][101CH2:1]Cc3cccc([100NH:0][100C:0](=O)N4CCCC(n5nc(-c6ccc(Oc7ccc(F)cc7F)cc6)c(C(N)=O)c5N)C4)c3)ccc2CC1C(=O)NC1CCCc2ccccc21)C(C)(C)C

> <Shape>
0.298

> <Color>
0.075

> <Negative vol penalty>
0.000

$$$$

  -OEChem-04042320113D

 73 80  0     1  0  0  0  0  0999 V2000
  -28.7807  -11.4027   19.8413 C   0  0  0  0  0  0  0  0  0  0  0  0
  -28.8747  -12.6791   19.2960 C   0  0  0  0  0  0  0  0  0  0  0  0
  -25.9114  -28.9143   20.8188 C   0  0  0  0  0  0  0  0  0  0  0  0
  -25.2447  -26.5922   20.8056 C   0  0  0  0  0  0  0  0  0  0  0  0
  -27.5741  -10.9659   20.3863 C   0  0  0  0  0  0  0  0  0  0  0  0
  -27.7616  -13.5191   19.2943 C   0  0  0  0  0  0  0  0  0  0  0  0
  -28.8908  -18.2435   20.7261 C   0  0  0  0  0  0  0  0  0  0  0  0
  -24.5811  -29.2972   20.6476 C   0  0  0  0  0  0  0  0  0  0  0  0
  -23.9144  -26.9751   20.6344 C   0  0  0  0  0  0  0  0  0  0  0  0
  -29.5037  -19.0657   19.7816 C   0  0  0  0  0  0  0  0  0  0  0  0
  -20.2991  -27.3512   20.5553 C   0  0  0  0  0  0  0  0  0  0  0  0
  -19.3346  -26.7145   21.3363 C   0  0  0  0  0  0  0  0  0  0  0  0
  -27.3782  -20.1087   19.3193 C   0  0  0  0  0  0  0  0  0  0  0  0
  -20.4277  -27.5133   23.3374 C   0  0  0  0  0  0  0  0  0  0  0  0
  -26.2432  -27.5618   20.8978 C   0  0  0  0  0  0  0  0  0  0  0  0
  -28.2943  -26.9641   22.2918 C   0  0  0  0  0  0  0  0  0  0  0  0
  -26.4483  -11.8044   20.4000 C   0  0  0  0  0  0  0  0  0  0  0  0
  -27.5128  -18.3403   20.9669 C   0  0  0  0  0  0  0  0  0  0  0  0
  -26.5384  -13.0925   19.8388 C   0  0  0  0  0  0  0  0  0  0  0  0
  -26.7507  -19.2883   20.2692 C   0  0  0  0  0  0  0  0  0  0  0  0
  -23.5826  -28.3276   20.5554 C   0  0  0  0  0  0  0  0  0  0  0  0
  -28.7469  -19.9965   19.0760 C   0  0  0  0  0  0  0  0  0  0  0  0
  -21.3280  -28.0688   21.1653 C   0  0  0  0  0  0  0  0  0  0  0  0
  -19.3988  -26.7956   22.7274 C   0  0  0  0  0  0  0  0  0  0  0  0
  -21.3923  -28.1499   22.5564 C   0  0  0  0  0  0  0  0  0  0  0  0
  -27.6173  -27.1656   21.0741 C   0  0  0  0  0  0  0  0  0  0  0  0
  -29.5659  -26.6003   21.9215 C   0  0  0  0  0  0  0  0  0  0  0  0
  -27.8165  -27.0941   23.6374 C   0  0  0  0  0  0  0  0  0  0  0  0
  -25.0394  -16.3661   20.6693 C   0  0  0  0  0  0  0  0  0  0  0  0
  -23.4301  -18.7916   22.1009 C   0  0  0  0  0  0  0  0  0  0  0  0
  -23.2352  -22.1273   22.7949 C   0  0  0  0  0  0  0  0  0  0  0  0
  -31.8053  -24.0606   16.9833 C   0  0  0  0  0  0  0  0  0  0  0  0
  -25.1525  -11.2708   20.9575 C   0  0  0  0  0  0  0  0  0  0  0  0
  -26.8716  -17.4645   22.0082 C   0  0  0  0  0  0  0  0  0  0  0  0
  -25.2716  -19.4460   20.5052 C   0  0  0  0  0  0  0  0  0  0  0  0
  -24.1234  -12.3586   21.2544 C   0  0  0  0  0  0  0  0  0  0  0  0
  -32.7528  -27.1859   18.4013 C   0  0  0  0  0  0  0  0  0  0  0  0
  -24.0228  -13.3319   20.0842 C   0  0  0  0  0  0  0  0  0  0  0  0
  -31.6052  -27.5169   19.3570 C   0  0  0  0  0  0  0  0  0  0  0  0
  -32.2517  -26.4924   17.1365 C   0  0  0  0  0  0  0  0  0  0  0  0
  -30.2768  -25.6255   18.3290 C   0  0  0  0  0  0  0  0  0  0  0  0
  -25.3600  -14.0420   19.8407 C   0  0  1  0  0  0  0  0  0  0  0  0
  -25.3693  -17.2948   21.8034 C   0  0  1  0  0  0  0  0  0  0  0  0
  -30.7390  -26.2758   19.6442 C   0  0  2  0  0  0  0  0  0  0  0  0
  -21.7856  -23.8170   23.9528 C   0  0  0  0  0  0  0  0  0  0  0  0
  -21.4554  -18.6861   19.7772 C   0  0  0  0  0  0  0  0  0  0  0  0
  -20.6243  -20.9432   20.4723 C   0  0  0  0  0  0  0  0  0  0  0  0
  -20.4056  -19.0030   22.0249 C   0  0  0  0  0  0  0  0  0  0  0  0
  -25.3980  -22.8660   24.6752 C   0  0  0  0  0  0  0  0  0  0  0  0
  -31.2354  -21.6456   16.9357 C   0  0  0  0  0  0  0  0  0  0  0  0
  -30.7465  -20.6355   17.9583 C   0  0  0  0  0  0  0  0  0  1  0  0
  -22.6870  -20.0136   21.6176 C   0  0  1  0  0  0  0  0  0  0  0  0
  -22.9697  -22.8728   24.0904 C   0  0  2  0  0  0  0  0  0  0  0  0
  -21.3206  -19.6574   20.9669 C   0  0  0  0  0  0  0  0  0  0  0  0
  -28.3944  -26.9480   20.0099 N   0  0  0  0  0  0  0  0  0  0  0  0
  -29.5730  -26.6061   20.5576 N   0  0  0  0  0  0  0  0  0  0  0  0
  -24.6895  -18.5623   21.5289 N   0  0  0  0  0  0  0  0  0  0  0  0
  -31.4385  -25.3228   17.4784 N   0  0  0  0  0  0  0  0  0  0  0  0
  -30.6675  -26.2792   22.6327 N   0  0  0  0  0  0  0  0  0  0  0  0
  -26.4833  -27.4765   23.8389 N   0  0  0  0  0  0  0  0  0  0  0  0
  -25.5584  -15.0937   20.8148 N   0  0  0  0  0  0  0  0  0  0  0  0
  -22.5873  -20.9105   22.7639 N   0  0  0  0  0  0  0  0  0  0  0  0
  -30.9843  -23.0048   17.3602 N   0  0  0  0  0  0  0  0  0  0  0  0
  -24.1650  -23.6719   24.4825 N   0  3  0  0  0  0  0  0  0  0  0  0
  -28.5547  -26.8935   24.6315 O   0  0  0  0  0  0  0  0  0  0  0  0
  -24.3627  -16.7733   19.7323 O   0  0  0  0  0  0  0  0  0  0  0  0
  -22.9152  -18.0710   22.9596 O   0  0  0  0  0  0  0  0  0  0  0  0
  -23.9432  -22.5808   21.8985 O   0  0  0  0  0  0  0  0  0  0  0  0
  -32.7944  -23.8864   16.2633 O   0  0  0  0  0  0  0  0  0  0  0  0
  -22.2844  -28.7009   20.3885 O   0  0  0  0  0  0  0  0  0  0  0  0
  -29.3424  -20.7999   18.1530 O   0  0  0  0  0  0  0  0  0  1  0  0
  -18.4716  -26.1855   23.4772 F   0  0  0  0  0  0  0  0  0  0  0  0
  -22.3777  -28.8388   23.1481 F   0  0  0  0  0  0  0  0  0  0  0  0
  1  2  1  0  0  0  0
  1  5  2  0  0  0  0
  2  6  2  0  0  0  0
  3  8  2  0  0  0  0
  3 15  1  0  0  0  0
  4  9  1  0  0  0  0
  4 15  2  0  0  0  0
  5 17  1  0  0  0  0
  6 19  1  0  0  0  0
  7 10  2  0  0  0  0
  7 18  1  0  0  0  0
  8 21  1  0  0  0  0
  9 21  2  0  0  0  0
 10 22  1  0  0  0  0
 11 12  2  0  0  0  0
 11 23  1  0  0  0  0
 12 24  1  0  0  0  0
 13 20  1  0  0  0  0
 13 22  2  0  0  0  0
 14 24  2  0  0  0  0
 14 25  1  0  0  0  0
 15 26  1  0  0  0  0
 16 26  1  0  0  0  0
 16 27  2  0  0  0  0
 16 28  1  0  0  0  0
 17 19  2  0  0  0  0
 17 33  1  0  0  0  0
 18 20  2  0  0  0  0
 18 34  1  0  0  0  0
 19 42  1  0  0  0  0
 20 35  1  0  0  0  0
 21 70  1  0  0  0  0
 22 71  1  0  0  0  0
 23 25  2  0  0  0  0
 23 70  1  0  0  0  0
 24 72  1  0  0  0  0
 25 73  1  0  0  0  0
 26 55  2  0  0  0  0
 27 56  1  0  0  0  0
 27 59  1  0  0  0  0
 28 60  1  0  0  0  0
 28 65  2  0  0  0  0
 29 43  1  0  0  0  0
 29 61  1  0  0  0  0
 29 66  2  0  0  0  0
 30 52  1  0  0  0  0
 30 57  1  0  0  0  0
 30 67  2  0  0  0  0
 31 53  1  0  0  0  0
 31 62  1  0  0  0  0
 31 68  2  0  0  0  0
 32 58  1  0  0  0  0
 32 63  1  0  0  0  0
 32 69  2  0  0  0  0
 33 36  1  0  0  0  0
 34 43  1  0  0  0  0
 35 57  1  0  0  0  0
 36 38  1  0  0  0  0
 37 39  1  0  0  0  0
 37 40  1  0  0  0  0
 38 42  1  0  0  0  0
 39 44  1  0  0  0  0
 40 58  1  0  0  0  0
 41 44  1  0  0  0  0
 41 58  1  0  0  0  0
 42 61  1  0  0  0  0
 43 57  1  0  0  0  0
 44 56  1  0  0  0  0
 45 53  1  0  0  0  0
 46 54  1  0  0  0  0
 47 54  1  0  0  0  0
 48 54  1  0  0  0  0
 49 64  1  0  0  0  0
 50 51  1  0  0  0  0
 50 63  1  0  0  0  0
 51 71  1  0  0  0  0
 52 54  1  0  0  0  0
 52 62  1  0  0  0  0
 53 64  1  0  0  0  0
 55 56  1  0  0  0  0
M  CHG  1  64   1
M  ISO  4  32 100  51 101  63 100  71 101
M  END
> <Batch ID>
0000

> <Smiles>
CNC(C)C(=O)NC(C(=O)N1Cc2cc([101O:1][101CH2:1]C[100NH:0][100C:0](=O)N3CCCC(n4nc(-c5ccc(Oc6ccc(F)cc6F)cc5)c(C(N)=O)c4N)C3)ccc2CC1C(=O)NC1CCCc2ccccc21)C(C)(C)C

> <Shape>
0.226

> <Color>
0.066

> <Negative vol penalty>
0.000

$$$$

  -OEChem-04042320113D

 80 88  0     1  0  0  0  0  0999 V2000
  -17.9506  -22.6565   27.1815 C   0  0  0  0  0  0  0  0  0  0  0  0
  -19.2802  -22.4148   26.8513 C   0  0  0  0  0  0  0  0  0  0  0  0
  -31.3556  -19.3434   19.1129 C   0  0  0  0  0  0  0  0  0  0  0  0
  -22.9963   -9.9022   19.9809 C   0  0  0  0  0  0  0  0  0  0  0  0
  -23.7280   -9.9460   22.2831 C   0  0  0  0  0  0  0  0  0  0  0  0
  -30.1315  -20.0121   19.1131 C   0  0  0  0  0  0  0  0  0  0  0  0
  -16.9301  -22.0744   26.4307 C   0  0  0  0  0  0  0  0  0  0  0  0
  -19.5901  -21.5898   25.7706 C   0  0  0  0  0  0  0  0  0  0  0  0
  -24.3222  -22.1786   21.9278 C   0  0  0  0  0  0  0  0  0  0  0  0
  -31.5840  -18.3064   20.0174 C   0  0  0  0  0  0  0  0  0  0  0  0
  -22.2288   -8.7682   20.2464 C   0  0  0  0  0  0  0  0  0  0  0  0
  -22.9603   -8.8120   22.5486 C   0  0  0  0  0  0  0  0  0  0  0  0
  -25.5691  -21.5573   21.8733 C   0  0  0  0  0  0  0  0  0  0  0  0
  -23.1981   -5.4740   22.0673 C   0  0  0  0  0  0  0  0  0  0  0  0
  -23.7862   -4.4539   22.8151 C   0  0  0  0  0  0  0  0  0  0  0  0
  -29.3642  -18.6069   20.9225 C   0  0  0  0  0  0  0  0  0  0  0  0
  -24.7026  -19.9722   20.2746 C   0  0  0  0  0  0  0  0  0  0  0  0
  -22.0673   -4.6951   24.4957 C   0  0  0  0  0  0  0  0  0  0  0  0
  -23.7460  -10.4911   20.9992 C   0  0  0  0  0  0  0  0  0  0  0  0
  -29.1358  -19.6439   20.0179 C   0  0  0  0  0  0  0  0  0  0  0  0
  -24.1348  -13.0065   20.8287 C   0  0  0  0  0  0  0  0  0  0  0  0
  -17.2276  -21.2497   25.3344 C   0  0  0  0  0  0  0  0  0  0  0  0
  -23.2514  -21.6938   21.1632 C   0  0  0  0  0  0  0  0  0  0  0  0
  -18.5727  -20.9951   25.0053 C   0  0  0  0  0  0  0  0  0  0  0  0
  -23.4438  -20.5906   20.3194 C   0  0  0  0  0  0  0  0  0  0  0  0
  -30.5883  -17.9382   20.9222 C   0  0  0  0  0  0  0  0  0  0  0  0
  -22.2107   -8.2231   21.5302 C   0  0  0  0  0  0  0  0  0  0  0  0
  -25.7587  -20.4522   21.0488 C   0  0  0  0  0  0  0  0  0  0  0  0
  -22.0447   -6.1047   22.5337 C   0  0  0  0  0  0  0  0  0  0  0  0
  -23.2207   -4.0645   24.0293 C   0  0  0  0  0  0  0  0  0  0  0  0
  -21.4793   -5.7153   23.7479 C   0  0  0  0  0  0  0  0  0  0  0  0
  -24.5395  -11.6622   20.7255 C   0  0  0  0  0  0  0  0  0  0  0  0
  -25.2446  -13.7283   20.4631 C   0  0  0  0  0  0  0  0  0  0  0  0
  -22.8687  -13.5539   21.2202 C   0  0  0  0  0  0  0  0  0  0  0  0
  -27.8320  -20.3559   20.0174 C   0  0  0  0  0  0  0  0  0  1  0  0
  -20.3868  -20.4865   21.8267 C   0  0  0  0  0  0  0  0  0  0  0  0
  -20.0248  -20.5970   18.6050 C   0  0  0  0  0  0  0  0  0  0  0  0
  -21.4931  -20.6471   15.5246 C   0  0  0  0  0  0  0  0  0  0  0  0
  -30.7431  -14.6537   20.6990 C   0  0  0  0  0  0  0  0  0  0  0  0
  -16.0909  -20.6048   24.5816 C   0  0  0  0  0  0  0  0  0  0  0  0
  -21.9198  -22.3916   21.2131 C   0  0  0  0  0  0  0  0  0  0  0  0
  -22.3320  -20.0437   19.4631 C   0  0  0  0  0  0  0  0  0  0  0  0
  -16.5011  -20.0441   23.2223 C   0  0  0  0  0  0  0  0  0  0  0  0
  -29.5922  -12.2380   18.3503 C   0  0  0  0  0  0  0  0  0  0  0  0
  -17.7925  -19.2413   23.3436 C   0  0  0  0  0  0  0  0  0  0  0  0
  -28.1445  -11.9794   18.7712 C   0  0  0  0  0  0  0  0  0  0  0  0
  -30.4983  -12.4688   19.5577 C   0  0  0  0  0  0  0  0  0  0  0  0
  -28.5931  -13.2638   20.9038 C   0  0  0  0  0  0  0  0  0  0  0  0
  -18.9489  -20.1259   23.8250 C   0  0  1  0  0  0  0  0  0  0  0  0
  -20.7608  -21.4987   20.7810 C   0  0  1  0  0  0  0  0  0  0  0  0
  -27.6305  -13.0807   19.7179 C   0  0  2  0  0  0  0  0  0  0  0  0
  -20.9372  -20.7003   13.0781 C   0  0  0  0  0  0  0  0  0  0  0  0
  -19.2767  -17.6409   18.7131 C   0  0  0  0  0  0  0  0  0  0  0  0
  -19.6638  -17.5242   16.2424 C   0  0  0  0  0  0  0  0  0  0  0  0
  -17.8828  -19.0135   17.1550 C   0  0  0  0  0  0  0  0  0  0  0  0
  -22.8889  -23.2290   15.1451 C   0  0  0  0  0  0  0  0  0  0  0  0
  -30.8325  -16.8294   21.8896 C   0  0  0  0  0  0  0  0  0  0  0  0
  -20.3099  -19.6505   17.4641 C   0  0  1  0  0  0  0  0  0  0  0  0
  -21.2595  -21.5294   14.3116 C   0  0  2  0  0  0  0  0  0  0  0  0
  -19.3039  -18.4661   17.4111 C   0  0  0  0  0  0  0  0  0  0  0  0
  -25.8075  -11.5347   20.3255 N   0  0  0  0  0  0  0  0  0  0  0  0
  -26.2091  -12.8083   20.1741 N   0  0  0  0  0  0  0  0  0  0  0  0
  -21.0469  -20.7566   19.5515 N   0  0  0  0  0  0  0  0  0  0  0  0
  -29.9555  -13.5261   20.4140 N   0  0  0  0  0  0  0  0  0  0  0  0
  -25.4799  -15.0539   20.3639 N   0  0  0  0  0  0  0  0  0  0  0  0
  -21.8365  -12.6705   21.5642 N   0  0  0  0  0  0  0  0  0  0  0  0
  -19.4506  -20.9380   22.7372 N   0  0  0  0  0  0  0  0  0  0  0  0
  -20.3374  -20.4657   16.2545 N   0  0  0  0  0  0  0  0  0  0  0  0
  -30.1505  -15.6113   21.5129 N   0  0  0  0  0  0  0  0  0  0  0  0
  -22.4718  -22.3472   14.0247 N   0  3  0  0  0  0  0  0  0  0  0  0
  -22.6540  -14.7895   21.2477 O   0  0  0  0  0  0  0  0  0  0  0  0
  -27.5699  -21.2710   19.2512 O   0  0  0  0  0  0  0  0  0  0  0  0
  -20.9078  -19.3776   21.8078 O   0  0  0  0  0  0  0  0  0  0  0  0
  -18.9382  -21.1791   18.6507 O   0  0  0  0  0  0  0  0  0  0  0  0
  -22.5902  -20.1638   15.7954 O   0  0  0  0  0  0  0  0  0  0  0  0
  -31.8876  -14.7990   20.2561 O   0  0  0  0  0  0  0  0  0  0  0  0
  -21.4617   -7.1167   21.7897 O   0  0  0  0  0  0  0  0  0  0  0  0
  -26.9746  -19.8435   20.9941 O   0  0  0  0  0  0  0  0  0  1  0  0
  -23.7846   -3.0838   24.7466 F   0  0  0  0  0  0  0  0  0  0  0  0
  -20.3706   -6.3167   24.2005 F   0  0  0  0  0  0  0  0  0  0  0  0
  1  2  1  0  0  0  0
  1  7  2  0  0  0  0
  2  8  2  0  0  0  0
  3  6  2  0  0  0  0
  3 10  1  0  0  0  0
  4 11  2  0  0  0  0
  4 19  1  0  0  0  0
  5 12  1  0  0  0  0
  5 19  2  0  0  0  0
  6 20  1  0  0  0  0
  7 22  1  0  0  0  0
  8 24  1  0  0  0  0
  9 13  2  0  0  0  0
  9 23  1  0  0  0  0
 10 26  2  0  0  0  0
 11 27  1  0  0  0  0
 12 27  2  0  0  0  0
 13 28  1  0  0  0  0
 14 15  2  0  0  0  0
 14 29  1  0  0  0  0
 15 30  1  0  0  0  0
 16 20  2  0  0  0  0
 16 26  1  0  0  0  0
 17 25  1  0  0  0  0
 17 28  2  0  0  0  0
 18 30  2  0  0  0  0
 18 31  1  0  0  0  0
 19 32  1  0  0  0  0
 20 35  1  0  0  0  0
 21 32  1  0  0  0  0
 21 33  2  0  0  0  0
 21 34  1  0  0  0  0
 22 24  2  0  0  0  0
 22 40  1  0  0  0  0
 23 25  2  0  0  0  0
 23 41  1  0  0  0  0
 24 49  1  0  0  0  0
 25 42  1  0  0  0  0
 26 57  1  0  0  0  0
 27 77  1  0  0  0  0
 28 78  1  0  0  0  0
 29 31  2  0  0  0  0
 29 77  1  0  0  0  0
 30 79  1  0  0  0  0
 31 80  1  0  0  0  0
 32 61  2  0  0  0  0
 33 62  1  0  0  0  0
 33 65  1  0  0  0  0
 34 66  1  0  0  0  0
 34 71  2  0  0  0  0
 35 72  2  0  0  0  0
 35 78  1  0  0  0  0
 36 50  1  0  0  0  0
 36 67  1  0  0  0  0
 36 73  2  0  0  0  0
 37 58  1  0  0  0  0
 37 63  1  0  0  0  0
 37 74  2  0  0  0  0
 38 59  1  0  0  0  0
 38 68  1  0  0  0  0
 38 75  2  0  0  0  0
 39 64  1  0  0  0  0
 39 69  1  0  0  0  0
 39 76  2  0  0  0  0
 40 43  1  0  0  0  0
 41 50  1  0  0  0  0
 42 63  1  0  0  0  0
 43 45  1  0  0  0  0
 44 46  1  0  0  0  0
 44 47  1  0  0  0  0
 45 49  1  0  0  0  0
 46 51  1  0  0  0  0
 47 64  1  0  0  0  0
 48 51  1  0  0  0  0
 48 64  1  0  0  0  0
 49 67  1  0  0  0  0
 50 63  1  0  0  0  0
 51 62  1  0  0  0  0
 52 59  1  0  0  0  0
 53 60  1  0  0  0  0
 54 60  1  0  0  0  0
 55 60  1  0  0  0  0
 56 70  1  0  0  0  0
 57 69  1  0  0  0  0
 58 60  1  0  0  0  0
 58 68  1  0  0  0  0
 59 70  1  0  0  0  0
 61 62  1  0  0  0  0
M  CHG  1  70   1
M  ISO  4  35 101  39 100  69 100  78 101
M  END
> <Batch ID>
0000

> <Smiles>
CNC(C)C(=O)NC(C(=O)N1Cc2cc([101O:1][101C:1](=O)c3cccc(C[100NH:0][100C:0](=O)N4CCCC(n5nc(-c6ccc(Oc7ccc(F)cc7F)cc6)c(C(N)=O)c5N)C4)c3)ccc2CC1C(=O)NC1CCCc2ccccc21)C(C)(C)C

> <Shape>
0.206

> <Color>
0.207

> <Negative vol penalty>
0.000

$$$$

  -OEChem-04042320113D

 82 89  0     1  0  0  0  0  0999 V2000
  -32.1465  -13.7135   21.4347 C   0  0  0  0  0  0  0  0  0  0  0  0
  -31.4367  -14.9100   21.4328 C   0  0  0  0  0  0  0  0  0  0  0  0
  -28.9743  -26.3807   20.6244 C   0  0  0  0  0  0  0  0  0  0  0  0
  -27.0125  -25.0317   20.2136 C   0  0  0  0  0  0  0  0  0  0  0  0
  -31.5565  -12.5535   20.9346 C   0  0  0  0  0  0  0  0  0  0  0  0
  -30.1368  -14.9474   20.9296 C   0  0  0  0  0  0  0  0  0  0  0  0
  -26.9756  -17.5530   23.9066 C   0  0  0  0  0  0  0  0  0  0  0  0
  -29.6997  -25.2308   20.9360 C   0  0  0  0  0  0  0  0  0  0  0  0
  -27.7380  -23.8818   20.5251 C   0  0  0  0  0  0  0  0  0  0  0  0
  -27.0354  -18.9441   23.8356 C   0  0  0  0  0  0  0  0  0  0  0  0
  -29.1696  -20.5569   20.8625 C   0  0  0  0  0  0  0  0  0  0  0  0
  -29.0288  -19.4528   20.0219 C   0  0  0  0  0  0  0  0  0  0  0  0
  -25.0967  -18.9482   22.4002 C   0  0  0  0  0  0  0  0  0  0  0  0
  -29.8475  -20.7627   18.1642 C   0  0  0  0  0  0  0  0  0  0  0  0
  -27.6306  -26.2812   20.2633 C   0  0  0  0  0  0  0  0  0  0  0  0
  -26.7352  -28.0655   18.6752 C   0  0  0  0  0  0  0  0  0  0  0  0
  -30.2451  -12.5746   20.4339 C   0  0  0  0  0  0  0  0  0  0  0  0
  -25.9808  -16.8472   23.2149 C   0  0  0  0  0  0  0  0  0  0  0  0
  -29.5291  -13.7869   20.4211 C   0  0  0  0  0  0  0  0  0  0  0  0
  -25.0249  -17.5483   22.4660 C   0  0  0  0  0  0  0  0  0  0  0  0
  -29.0816  -23.9814   20.8863 C   0  0  0  0  0  0  0  0  0  0  0  0
  -26.0976  -19.6418   23.0800 C   0  0  0  0  0  0  0  0  0  0  0  0
  -29.6493  -21.7640   20.3540 C   0  0  0  0  0  0  0  0  0  0  0  0
  -29.3678  -19.5557   18.6727 C   0  0  0  0  0  0  0  0  0  0  0  0
  -29.9883  -21.8669   19.0048 C   0  0  0  0  0  0  0  0  0  0  0  0
  -26.8806  -27.4687   19.9419 C   0  0  0  0  0  0  0  0  0  0  0  0
  -25.9351  -29.1589   18.9007 C   0  0  0  0  0  0  0  0  0  0  0  0
  -27.2751  -27.6672   17.4081 C   0  0  0  0  0  0  0  0  0  0  0  0
  -25.9738  -14.6746   20.8947 C   0  0  0  0  0  0  0  0  0  0  0  0
  -22.7899  -14.5955   21.5102 C   0  0  0  0  0  0  0  0  0  0  0  0
  -20.0370  -16.1913   22.7438 C   0  0  0  0  0  0  0  0  0  0  0  0
  -21.8864  -30.4485   23.1191 C   0  0  0  0  0  0  0  0  0  0  0  0
  -29.6666  -11.3055   19.8603 C   0  0  0  0  0  0  0  0  0  0  0  0
  -25.9138  -15.3484   23.3233 C   0  0  0  0  0  0  0  0  0  0  0  0
  -23.9247  -16.8389   21.7213 C   0  0  0  0  0  0  0  0  0  0  0  0
  -28.1502  -11.3500   19.6898 C   0  0  0  0  0  0  0  0  0  0  0  0
  -24.7964  -32.3288   22.2987 C   0  0  0  0  0  0  0  0  0  0  0  0
  -27.7249  -12.6603   19.0350 C   0  0  0  0  0  0  0  0  0  0  0  0
  -25.6474  -31.3502   21.4873 C   0  0  0  0  0  0  0  0  0  0  0  0
  -24.0456  -31.6234   23.4259 C   0  0  0  0  0  0  0  0  0  0  0  0
  -24.0810  -29.4921   22.1889 C   0  0  0  0  0  0  0  0  0  0  0  0
  -28.1080  -13.8624   19.9065 C   0  0  1  0  0  0  0  0  0  0  0  0
  -25.1676  -14.6981   22.1624 C   0  0  1  0  0  0  0  0  0  0  0  0
  -24.8136  -30.1477   21.0058 C   0  0  2  0  0  0  0  0  0  0  0  0
  -17.5681  -15.8884   23.0759 C   0  0  0  0  0  0  0  0  0  0  0  0
  -22.3295  -15.1090   18.5380 C   0  0  0  0  0  0  0  0  0  0  0  0
  -19.9673  -15.7344   19.0832 C   0  0  0  0  0  0  0  0  0  0  0  0
  -20.7856  -13.4261   19.5573 C   0  0  0  0  0  0  0  0  0  0  0  0
  -20.2838  -16.4435   25.6822 C   0  0  0  0  0  0  0  0  0  0  0  0
  -19.8018  -29.1627   22.7186 C   0  0  0  0  0  0  0  0  0  0  0  0
  -19.4491  -28.3845   23.9736 C   0  0  0  0  0  0  0  0  0  0  0  0
  -26.6857  -21.6880   24.1398 C   0  0  0  0  0  0  0  0  0  1  0  0
  -26.0302  -23.0515   24.2427 C   0  0  0  0  0  0  0  0  0  0  0  0
  -19.7525  -26.3315   25.0764 C   0  0  0  0  0  0  0  0  0  0  0  0
  -20.4048  -24.9683   24.9492 C   0  0  0  0  0  0  0  0  0  0  0  0
  -23.9621  -24.1314   24.5248 C   0  0  0  0  0  0  0  0  0  0  0  0
  -22.4746  -23.8861   24.6900 C   0  0  0  0  0  0  0  0  0  0  0  0
  -21.5831  -15.3443   20.9984 C   0  0  1  0  0  0  0  0  0  0  0  0
  -18.9479  -15.7308   23.6958 C   0  0  2  0  0  0  0  0  0  0  0  0
  -21.1881  -14.9170   19.5566 C   0  0  0  0  0  0  0  0  0  0  0  0
  -26.2255  -28.1283   20.9010 N   0  0  0  0  0  0  0  0  0  0  0  0
  -25.6609  -29.1511   20.2367 N   0  0  0  0  0  0  0  0  0  0  0  0
  -23.9052  -15.3727   21.8532 N   0  0  0  0  0  0  0  0  0  0  0  0
  -23.2734  -30.4940   22.9023 N   0  0  0  0  0  0  0  0  0  0  0  0
  -25.4466  -30.1168   18.0844 N   0  0  0  0  0  0  0  0  0  0  0  0
  -28.0768  -26.5188   17.3547 N   0  0  0  0  0  0  0  0  0  0  0  0
  -27.1781  -14.0063   21.0061 N   0  0  0  0  0  0  0  0  0  0  0  0
  -20.5304  -15.1481   21.9892 N   0  0  0  0  0  0  0  0  0  0  0  0
  -21.2296  -29.3471   22.5840 N   0  0  0  0  0  0  0  0  0  0  0  0
  -18.9908  -16.5259   24.9555 N   0  3  0  0  0  0  0  0  0  0  0  0
  -27.0666  -28.3197   16.3573 O   0  0  0  0  0  0  0  0  0  0  0  0
  -25.5349  -15.2209   19.8894 O   0  0  0  0  0  0  0  0  0  0  0  0
  -22.7421  -13.3668   21.6090 O   0  0  0  0  0  0  0  0  0  0  0  0
  -20.4099  -17.3603   22.6737 O   0  0  0  0  0  0  0  0  0  0  0  0
  -21.2775  -31.3273   23.7388 O   0  0  0  0  0  0  0  0  0  0  0  0
  -29.7893  -22.8591   21.1900 O   0  0  0  0  0  0  0  0  0  0  0  0
  -26.1541  -20.9995   23.0085 O   0  0  0  0  0  0  0  0  0  1  0  0
  -20.0550  -27.1006   23.9186 O   0  0  0  0  0  0  0  0  0  0  0  0
  -24.6294  -22.8813   24.4219 O   0  0  0  0  0  0  0  0  0  0  0  0
  -21.8089  -25.1371   24.8135 O   0  0  0  0  0  0  0  0  0  0  0  0
  -29.2339  -18.4949   17.8659 F   0  0  0  0  0  0  0  0  0  0  0  0
  -30.4508  -23.0235   18.5108 F   0  0  0  0  0  0  0  0  0  0  0  0
  1  2  1  0  0  0  0
  1  5  2  0  0  0  0
  2  6  2  0  0  0  0
  3  8  2  0  0  0  0
  3 15  1  0  0  0  0
  4  9  1  0  0  0  0
  4 15  2  0  0  0  0
  5 17  1  0  0  0  0
  6 19  1  0  0  0  0
  7 10  2  0  0  0  0
  7 18  1  0  0  0  0
  8 21  1  0  0  0  0
  9 21  2  0  0  0  0
 10 22  1  0  0  0  0
 11 12  2  0  0  0  0
 11 23  1  0  0  0  0
 12 24  1  0  0  0  0
 13 20  1  0  0  0  0
 13 22  2  0  0  0  0
 14 24  2  0  0  0  0
 14 25  1  0  0  0  0
 15 26  1  0  0  0  0
 16 26  1  0  0  0  0
 16 27  2  0  0  0  0
 16 28  1  0  0  0  0
 17 19  2  0  0  0  0
 17 33  1  0  0  0  0
 18 20  2  0  0  0  0
 18 34  1  0  0  0  0
 19 42  1  0  0  0  0
 20 35  1  0  0  0  0
 21 76  1  0  0  0  0
 22 77  1  0  0  0  0
 23 25  2  0  0  0  0
 23 76  1  0  0  0  0
 24 81  1  0  0  0  0
 25 82  1  0  0  0  0
 26 61  2  0  0  0  0
 27 62  1  0  0  0  0
 27 65  1  0  0  0  0
 28 66  1  0  0  0  0
 28 71  2  0  0  0  0
 29 43  1  0  0  0  0
 29 67  1  0  0  0  0
 29 72  2  0  0  0  0
 30 58  1  0  0  0  0
 30 63  1  0  0  0  0
 30 73  2  0  0  0  0
 31 59  1  0  0  0  0
 31 68  1  0  0  0  0
 31 74  2  0  0  0  0
 32 64  1  0  0  0  0
 32 69  1  0  0  0  0
 32 75  2  0  0  0  0
 33 36  1  0  0  0  0
 34 43  1  0  0  0  0
 35 63  1  0  0  0  0
 36 38  1  0  0  0  0
 37 39  1  0  0  0  0
 37 40  1  0  0  0  0
 38 42  1  0  0  0  0
 39 44  1  0  0  0  0
 40 64  1  0  0  0  0
 41 44  1  0  0  0  0
 41 64  1  0  0  0  0
 42 67  1  0  0  0  0
 43 63  1  0  0  0  0
 44 62  1  0  0  0  0
 45 59  1  0  0  0  0
 46 60  1  0  0  0  0
 47 60  1  0  0  0  0
 48 60  1  0  0  0  0
 49 70  1  0  0  0  0
 50 51  1  0  0  0  0
 50 69  1  0  0  0  0
 51 78  1  0  0  0  0
 52 53  1  0  0  0  0
 52 77  1  0  0  0  0
 53 79  1  0  0  0  0
 54 55  1  0  0  0  0
 54 78  1  0  0  0  0
 55 80  1  0  0  0  0
 56 57  1  0  0  0  0
 56 79  1  0  0  0  0
 57 80  1  0  0  0  0
 58 60  1  0  0  0  0
 58 68  1  0  0  0  0
 59 70  1  0  0  0  0
 61 62  1  0  0  0  0
M  CHG  1  70   1
M  ISO  4  32 100  52 101  69 100  77 101
M  END
> <Batch ID>
0000

> <Smiles>
CNC(C)C(=O)NC(C(=O)N1Cc2cc([101O:1][101CH2:1]COCCOCCOCC[100NH:0][100C:0](=O)N3CCCC(n4nc(-c5ccc(Oc6ccc(F)cc6F)cc5)c(C(N)=O)c4N)C3)ccc2CC1C(=O)NC1CCCc2ccccc21)C(C)(C)C

> <Shape>
0.233

> <Color>
0.068

> <Negative vol penalty>
0.000

$$$$

  -OEChem-04042320113D

 82 90  0     1  0  0  0  0  0999 V2000
  -17.4720  -30.8956   24.2232 C   0  0  0  0  0  0  0  0  0  0  0  0
  -18.8413  -31.1410   24.2371 C   0  0  0  0  0  0  0  0  0  0  0  0
  -27.7513  -21.7644   23.7748 C   0  0  0  0  0  0  0  0  0  0  0  0
  -24.6284  -12.3079   19.6558 C   0  0  0  0  0  0  0  0  0  0  0  0
  -25.4403  -13.1353   21.7755 C   0  0  0  0  0  0  0  0  0  0  0  0
  -28.5022  -22.7821   23.1868 C   0  0  0  0  0  0  0  0  0  0  0  0
  -16.9851  -29.6967   23.7041 C   0  0  0  0  0  0  0  0  0  0  0  0
  -19.7246  -30.1871   23.7328 C   0  0  0  0  0  0  0  0  0  0  0  0
  -26.0037  -29.6403   20.3284 C   0  0  0  0  0  0  0  0  0  0  0  0
  -26.8221  -21.0546   23.0142 C   0  0  0  0  0  0  0  0  0  0  0  0
  -25.4268  -11.1725   19.7931 C   0  0  0  0  0  0  0  0  0  0  0  0
  -26.2387  -11.9998   21.9129 C   0  0  0  0  0  0  0  0  0  0  0  0
  -27.2371  -29.0000   20.4398 C   0  0  0  0  0  0  0  0  0  0  0  0
  -26.9786   -7.8852   19.7566 C   0  0  0  0  0  0  0  0  0  0  0  0
  -26.4037   -6.6488   19.4629 C   0  0  0  0  0  0  0  0  0  0  0  0
  -27.3945  -22.3806   21.0775 C   0  0  0  0  0  0  0  0  0  0  0  0
  -26.2768  -26.9987   19.4954 C   0  0  0  0  0  0  0  0  0  0  0  0
  -24.7508   -7.0074   21.1881 C   0  0  0  0  0  0  0  0  0  0  0  0
  -24.6352  -13.2893   20.6470 C   0  0  0  0  0  0  0  0  0  0  0  0
  -28.3238  -23.0903   21.8381 C   0  0  0  0  0  0  0  0  0  0  0  0
  -22.4852  -14.6289   20.9486 C   0  0  0  0  0  0  0  0  0  0  0  0
  -17.8622  -28.7317   23.1843 C   0  0  0  0  0  0  0  0  0  0  0  0
  -24.8930  -28.9600   19.8089 C   0  0  0  0  0  0  0  0  0  0  0  0
  -19.2491  -28.9736   23.2075 C   0  0  0  0  0  0  0  0  0  0  0  0
  -25.0310  -27.6335   19.3761 C   0  0  0  0  0  0  0  0  0  0  0  0
  -26.6437  -21.3627   21.6656 C   0  0  0  0  0  0  0  0  0  0  0  0
  -26.2320  -11.0184   20.9216 C   0  0  0  0  0  0  0  0  0  0  0  0
  -27.3731  -27.6781   20.0260 C   0  0  0  0  0  0  0  0  0  0  0  0
  -26.4396   -8.6828   20.7662 C   0  0  0  0  0  0  0  0  0  0  0  0
  -25.2898   -6.2099   20.1786 C   0  0  0  0  0  0  0  0  0  0  0  0
  -25.3257   -8.2439   21.4819 C   0  0  0  0  0  0  0  0  0  0  0  0
  -23.8110  -14.4627   20.5054 C   0  0  0  0  0  0  0  0  0  0  0  0
  -22.1565  -15.9093   20.5757 C   0  0  0  0  0  0  0  0  0  0  0  0
  -29.1243  -24.1746   21.2131 C   0  0  0  0  0  0  0  0  0  0  0  0
  -21.6276  -13.7082   21.6359 C   0  0  0  0  0  0  0  0  0  0  0  0
  -22.0415  -28.1278   20.9404 C   0  0  0  0  0  0  0  0  0  0  0  0
  -21.5408  -27.1684   17.8825 C   0  0  0  0  0  0  0  0  0  0  0  0
  -22.8735  -26.1454   14.9119 C   0  0  0  0  0  0  0  0  0  0  0  0
  -25.3999  -20.8204   19.5430 C   0  0  0  0  0  0  0  0  0  0  0  0
  -17.2922  -27.4308   22.6770 C   0  0  0  0  0  0  0  0  0  0  0  0
  -23.5760  -29.6733   19.6705 C   0  0  0  0  0  0  0  0  0  0  0  0
  -23.8743  -26.8653   18.7926 C   0  0  0  0  0  0  0  0  0  0  0  0
  -18.2694  -26.6311   21.8192 C   0  0  0  0  0  0  0  0  0  0  0  0
  -23.1702  -19.2245   17.2718 C   0  0  0  0  0  0  0  0  0  0  0  0
  -19.6398  -26.5709   22.4863 C   0  0  0  0  0  0  0  0  0  0  0  0
  -22.9560  -17.8396   17.8868 C   0  0  0  0  0  0  0  0  0  0  0  0
  -24.6040  -19.7151   17.4646 C   0  0  0  0  0  0  0  0  0  0  0  0
  -24.8740  -18.3038   19.4657 C   0  0  0  0  0  0  0  0  0  0  0  0
  -20.2373  -27.9740   22.6469 C   0  0  1  0  0  0  0  0  0  0  0  0
  -22.3853  -28.7219   19.6038 C   0  0  1  0  0  0  0  0  0  0  0  0
  -23.4274  -17.7953   19.3535 C   0  0  2  0  0  0  0  0  0  0  0  0
  -22.2121  -25.3961   12.6101 C   0  0  0  0  0  0  0  0  0  0  0  0
  -20.7519  -24.4409   18.9996 C   0  0  0  0  0  0  0  0  0  0  0  0
  -21.0286  -23.4957   16.6978 C   0  0  0  0  0  0  0  0  0  0  0  0
  -19.3129  -25.2557   17.1235 C   0  0  0  0  0  0  0  0  0  0  0  0
  -24.2917  -28.4109   13.6410 C   0  0  0  0  0  0  0  0  0  0  0  0
  -30.3257  -26.3094   21.6070 C   0  0  0  0  0  0  0  0  0  0  0  0
  -29.4319  -27.4664   21.1975 C   0  0  0  0  0  0  0  0  0  1  0  0
  -21.7608  -25.8877   17.1142 C   0  0  1  0  0  0  0  0  0  0  0  0
  -22.6009  -26.5792   13.4830 C   0  0  2  0  0  0  0  0  0  0  0  0
  -20.7351  -24.7836   17.4965 C   0  0  0  0  0  0  0  0  0  0  0  0
  -24.2916  -15.5505   19.8973 N   0  0  0  0  0  0  0  0  0  0  0  0
  -23.2622  -16.4125   19.9557 N   0  0  0  0  0  0  0  0  0  0  0  0
  -22.6056  -27.6043   18.6837 N   0  0  0  0  0  0  0  0  0  0  0  0
  -24.9796  -19.6488   18.8786 N   0  0  0  0  0  0  0  0  0  0  0  0
  -21.0323  -16.6425   20.7209 N   0  0  0  0  0  0  0  0  0  0  0  0
  -22.1241  -12.4339   21.9423 N   0  0  0  0  0  0  0  0  0  0  0  0
  -25.6999  -20.6414   20.8931 N   0  0  0  0  0  0  0  0  0  0  0  0
  -29.5617  -25.1799   22.0663 N   0  0  0  0  0  0  0  0  0  0  0  0
  -20.7722  -28.4428   21.3865 N   0  0  0  0  0  0  0  0  0  0  0  0
  -21.7481  -26.2517   15.7015 N   0  0  0  0  0  0  0  0  0  0  0  0
  -23.8122  -27.2185   12.8957 N   0  3  0  0  0  0  0  0  0  0  0  0
  -29.3374  -24.1423   20.0039 O   0  0  0  0  0  0  0  0  0  0  0  0
  -20.4500  -14.0011   21.9540 O   0  0  0  0  0  0  0  0  0  0  0  0
  -22.8663  -27.4337   21.5232 O   0  0  0  0  0  0  0  0  0  0  0  0
  -20.4665  -27.7641   17.7701 O   0  0  0  0  0  0  0  0  0  0  0  0
  -23.9737  -25.7481   15.2890 O   0  0  0  0  0  0  0  0  0  0  0  0
  -25.4612  -21.9081   18.9643 O   0  0  0  0  0  0  0  0  0  0  0  0
  -27.0110   -9.9104   21.0561 O   0  0  0  0  0  0  0  0  0  0  0  0
  -28.5757  -27.0506   20.1343 O   0  0  0  0  0  0  0  0  0  1  0  0
  -24.7369   -5.0232   19.8953 F   0  0  0  0  0  0  0  0  0  0  0  0
  -24.8028   -9.0062   22.4521 F   0  0  0  0  0  0  0  0  0  0  0  0
  1  2  1  0  0  0  0
  1  7  2  0  0  0  0
  2  8  2  0  0  0  0
  3  6  2  0  0  0  0
  3 10  1  0  0  0  0
  4 11  2  0  0  0  0
  4 19  1  0  0  0  0
  5 12  1  0  0  0  0
  5 19  2  0  0  0  0
  6 20  1  0  0  0  0
  7 22  1  0  0  0  0
  8 24  1  0  0  0  0
  9 13  2  0  0  0  0
  9 23  1  0  0  0  0
 10 26  2  0  0  0  0
 11 27  1  0  0  0  0
 12 27  2  0  0  0  0
 13 28  1  0  0  0  0
 14 15  2  0  0  0  0
 14 29  1  0  0  0  0
 15 30  1  0  0  0  0
 16 20  2  0  0  0  0
 16 26  1  0  0  0  0
 17 25  1  0  0  0  0
 17 28  2  0  0  0  0
 18 30  2  0  0  0  0
 18 31  1  0  0  0  0
 19 32  1  0  0  0  0
 20 34  1  0  0  0  0
 21 32  1  0  0  0  0
 21 33  2  0  0  0  0
 21 35  1  0  0  0  0
 22 24  2  0  0  0  0
 22 40  1  0  0  0  0
 23 25  2  0  0  0  0
 23 41  1  0  0  0  0
 24 49  1  0  0  0  0
 25 42  1  0  0  0  0
 26 68  1  0  0  0  0
 27 79  1  0  0  0  0
 28 80  1  0  0  0  0
 29 31  2  0  0  0  0
 29 79  1  0  0  0  0
 30 81  1  0  0  0  0
 31 82  1  0  0  0  0
 32 62  2  0  0  0  0
 33 63  1  0  0  0  0
 33 66  1  0  0  0  0
 34 69  1  0  0  0  0
 34 73  2  0  0  0  0
 35 67  1  0  0  0  0
 35 74  2  0  0  0  0
 36 50  1  0  0  0  0
 36 70  1  0  0  0  0
 36 75  2  0  0  0  0
 37 59  1  0  0  0  0
 37 64  1  0  0  0  0
 37 76  2  0  0  0  0
 38 60  1  0  0  0  0
 38 71  1  0  0  0  0
 38 77  2  0  0  0  0
 39 65  1  0  0  0  0
 39 68  1  0  0  0  0
 39 78  2  0  0  0  0
 40 43  1  0  0  0  0
 41 50  1  0  0  0  0
 42 64  1  0  0  0  0
 43 45  1  0  0  0  0
 44 46  1  0  0  0  0
 44 47  1  0  0  0  0
 45 49  1  0  0  0  0
 46 51  1  0  0  0  0
 47 65  1  0  0  0  0
 48 51  1  0  0  0  0
 48 65  1  0  0  0  0
 49 70  1  0  0  0  0
 50 64  1  0  0  0  0
 51 63  1  0  0  0  0
 52 60  1  0  0  0  0
 53 61  1  0  0  0  0
 54 61  1  0  0  0  0
 55 61  1  0  0  0  0
 56 72  1  0  0  0  0
 57 58  1  0  0  0  0
 57 69  1  0  0  0  0
 58 80  1  0  0  0  0
 59 61  1  0  0  0  0
 59 71  1  0  0  0  0
 60 72  1  0  0  0  0
 62 63  1  0  0  0  0
M  CHG  1  72   1
M  ISO  4  39 100  58 101  68 100  80 101
M  END
> <Batch ID>
0000

> <Smiles>
CNC(C)C(=O)NC(C(=O)N1Cc2cc([101O:1][101CH2:1]CNC(=O)c3cccc([100NH:0][100C:0](=O)N4CCCC(n5nc(-c6ccc(Oc7ccc(F)cc7F)cc6)c(C(N)=O)c5N)C4)c3)ccc2CC1C(=O)NC1CCCc2ccccc21)C(C)(C)C

> <Shape>
0.205

> <Color>
0.100

> <Negative vol penalty>
0.000

$$$$

  -OEChem-04042320113D

 86 94  0     1  0  0  0  0  0999 V2000
  -26.8717  -23.7942   17.6243 C   0  0  0  0  0  0  0  0  0  0  0  0
  -25.7148  -24.3208   18.1898 C   0  0  0  0  0  0  0  0  0  0  0  0
  -25.8696  -12.2651   19.8203 C   0  0  0  0  0  0  0  0  0  0  0  0
  -24.3397  -12.9327   21.5670 C   0  0  0  0  0  0  0  0  0  0  0  0
  -28.1128  -24.0652   18.1988 C   0  0  0  0  0  0  0  0  0  0  0  0
  -25.7984  -25.1178   19.3310 C   0  0  0  0  0  0  0  0  0  0  0  0
  -22.9043  -29.2619   19.0223 C   0  0  0  0  0  0  0  0  0  0  0  0
  -23.2001  -20.9140   23.3635 C   0  0  0  0  0  0  0  0  0  0  0  0
  -24.2387  -22.6674   22.0659 C   0  0  0  0  0  0  0  0  0  0  0  0
  -26.1143  -11.0676   20.4923 C   0  0  0  0  0  0  0  0  0  0  0  0
  -24.5843  -11.7351   22.2390 C   0  0  0  0  0  0  0  0  0  0  0  0
  -21.5371  -29.1016   19.2432 C   0  0  0  0  0  0  0  0  0  0  0  0
  -22.2240  -21.8119   23.7955 C   0  0  0  0  0  0  0  0  0  0  0  0
  -23.2626  -23.5653   22.4978 C   0  0  0  0  0  0  0  0  0  0  0  0
  -24.5313   -8.6963   24.2343 C   0  0  0  0  0  0  0  0  0  0  0  0
  -23.4345   -8.0037   24.7469 C   0  0  0  0  0  0  0  0  0  0  0  0
  -21.8125  -29.9122   21.4985 C   0  0  0  0  0  0  0  0  0  0  0  0
  -22.5153   -7.8118   22.5209 C   0  0  0  0  0  0  0  0  0  0  0  0
  -24.9823  -13.1977   20.3577 C   0  0  0  0  0  0  0  0  0  0  0  0
  -23.7346  -14.6810   18.6991 C   0  0  0  0  0  0  0  0  0  0  0  0
  -28.2125  -24.8739   19.3419 C   0  0  0  0  0  0  0  0  0  0  0  0
  -23.7391  -29.7391   20.0431 C   0  0  0  0  0  0  0  0  0  0  0  0
  -27.0419  -25.3988   19.9221 C   0  0  0  0  0  0  0  0  0  0  0  0
  -23.1896  -30.0801   21.2872 C   0  0  0  0  0  0  0  0  0  0  0  0
  -24.2075  -21.3418   22.4987 C   0  0  0  0  0  0  0  0  0  0  0  0
  -25.4717  -10.8025   21.7016 C   0  0  0  0  0  0  0  0  0  0  0  0
  -22.2552  -23.1375   23.3627 C   0  0  0  0  0  0  0  0  0  0  0  0
  -20.9915  -29.4240   20.4823 C   0  0  0  0  0  0  0  0  0  0  0  0
  -24.6201   -8.9468   22.8650 C   0  0  0  0  0  0  0  0  0  0  0  0
  -22.4265   -7.5614   23.8902 C   0  0  0  0  0  0  0  0  0  0  0  0
  -23.6121   -8.5045   22.0083 C   0  0  0  0  0  0  0  0  0  0  0  0
  -24.7295  -14.4352   19.6643 C   0  0  0  0  0  0  0  0  0  0  0  0
  -23.9112  -15.9980   18.3517 C   0  0  0  0  0  0  0  0  0  0  0  0
  -22.7397  -13.7978   18.1646 C   0  0  0  0  0  0  0  0  0  0  0  0
  -26.2249  -28.5665   21.6398 C   0  0  0  0  0  0  0  0  0  0  0  0
  -26.3295  -31.5545   22.8982 C   0  0  0  0  0  0  0  0  0  0  0  0
  -24.6726  -34.4426   23.6467 C   0  0  0  0  0  0  0  0  0  0  0  0
  -26.2673  -20.6914   21.2023 C   0  0  0  0  0  0  0  0  0  0  0  0
  -29.5719  -25.1001   19.9548 C   0  0  0  0  0  0  0  0  0  0  0  0
  -25.2075  -29.9316   19.7804 C   0  0  0  0  0  0  0  0  0  0  0  0
  -24.0394  -30.6153   22.4096 C   0  0  0  0  0  0  0  0  0  0  0  0
  -29.6079  -26.2612   20.9451 C   0  0  0  0  0  0  0  0  0  0  0  0
  -27.2970  -19.3723   18.0596 C   0  0  0  0  0  0  0  0  0  0  0  0
  -28.4231  -26.1831   21.9027 C   0  0  0  0  0  0  0  0  0  0  0  0
  -26.6599  -17.9812   18.0240 C   0  0  0  0  0  0  0  0  0  0  0  0
  -27.7693  -19.7439   19.4641 C   0  0  0  0  0  0  0  0  0  0  0  0
  -26.1140  -18.2278   20.4792 C   0  0  0  0  0  0  0  0  0  0  0  0
  -27.0939  -26.2881   21.1454 C   0  0  1  0  0  0  0  0  0  0  0  0
  -26.0466  -29.9389   21.0545 C   0  0  1  0  0  0  0  0  0  0  0  0
  -25.5641  -17.8356   19.0981 C   0  0  2  0  0  0  0  0  0  0  0  0
  -25.0137  -36.6912   24.7073 C   0  0  0  0  0  0  0  0  0  0  0  0
  -26.2710  -30.2582   25.6597 C   0  0  0  0  0  0  0  0  0  0  0  0
  -25.6593  -32.4892   26.6173 C   0  0  0  0  0  0  0  0  0  0  0  0
  -27.8428  -32.1919   25.4481 C   0  0  0  0  0  0  0  0  0  0  0  0
  -23.9868  -35.8580   21.1397 C   0  0  0  0  0  0  0  0  0  0  0  0
  -20.3022  -23.5102   24.6675 C   0  0  0  0  0  0  0  0  0  0  0  0
  -18.9973  -28.2315   19.9751 C   0  0  0  0  0  0  0  0  0  1  0  0
  -19.3520  -24.6312   25.0423 C   0  0  0  0  0  0  0  0  0  0  0  0
  -17.8322  -27.7159   20.7975 C   0  0  0  0  0  0  0  0  0  0  0  0
  -17.8520  -26.2067   24.1532 C   0  0  0  0  0  0  0  0  0  0  0  0
  -17.2683  -26.7316   22.8556 C   0  0  0  0  0  0  0  0  0  0  0  0
  -25.7076  -32.2330   24.0948 C   0  0  1  0  0  0  0  0  0  0  0  0
  -25.0290  -35.8989   23.4093 C   0  0  2  0  0  0  0  0  0  0  0  0
  -26.3542  -31.7812   25.4347 C   0  0  0  0  0  0  0  0  0  0  0  0
  -25.4825  -15.5098   19.9138 N   0  0  0  0  0  0  0  0  0  0  0  0
  -24.9606  -16.4436   19.1004 N   0  0  0  0  0  0  0  0  0  0  0  0
  -25.4706  -30.7799   22.1058 N   0  0  0  0  0  0  0  0  0  0  0  0
  -26.6775  -19.5859   20.4274 N   0  0  0  0  0  0  0  0  0  0  0  0
  -23.2698  -16.8068   17.4817 N   0  0  0  0  0  0  0  0  0  0  0  0
  -22.6981  -12.4771   18.6319 N   0  0  0  0  0  0  0  0  0  0  0  0
  -25.1992  -20.4298   22.0598 N   0  0  0  0  0  0  0  0  0  0  0  0
  -26.8256  -27.6634   20.7836 N   0  0  0  0  0  0  0  0  0  0  0  0
  -25.7958  -33.6672   23.8424 N   0  0  0  0  0  0  0  0  0  0  0  0
  -24.0581  -36.5228   22.4664 N   0  3  0  0  0  0  0  0  0  0  0  0
  -21.9225  -14.1642   17.2862 O   0  0  0  0  0  0  0  0  0  0  0  0
  -25.8470  -28.3439   22.7841 O   0  0  0  0  0  0  0  0  0  0  0  0
  -27.5317  -31.7120   22.6708 O   0  0  0  0  0  0  0  0  0  0  0  0
  -23.5134  -34.0343   23.6612 O   0  0  0  0  0  0  0  0  0  0  0  0
  -26.8048  -21.7963   21.0922 O   0  0  0  0  0  0  0  0  0  0  0  0
  -25.7100   -9.6339   22.3575 O   0  0  0  0  0  0  0  0  0  0  0  0
  -21.2965  -24.0195   23.7870 O   0  0  0  0  0  0  0  0  0  0  0  0
  -19.6574  -29.2679   20.7008 O   0  0  0  0  0  0  0  0  0  1  0  0
  -18.7563  -25.1484   23.8607 O   0  0  0  0  0  0  0  0  0  0  0  0
  -18.3210  -27.2290   22.0414 O   0  0  0  0  0  0  0  0  0  0  0  0
  -21.3740   -6.8949   24.3825 F   0  0  0  0  0  0  0  0  0  0  0  0
  -23.6924   -8.7411   20.6917 F   0  0  0  0  0  0  0  0  0  0  0  0
  1  2  1  0  0  0  0
  1  5  2  0  0  0  0
  2  6  2  0  0  0  0
  3 10  2  0  0  0  0
  3 19  1  0  0  0  0
  4 11  1  0  0  0  0
  4 19  2  0  0  0  0
  5 21  1  0  0  0  0
  6 23  1  0  0  0  0
  7 12  2  0  0  0  0
  7 22  1  0  0  0  0
  8 13  2  0  0  0  0
  8 25  1  0  0  0  0
  9 14  1  0  0  0  0
  9 25  2  0  0  0  0
 10 26  1  0  0  0  0
 11 26  2  0  0  0  0
 12 28  1  0  0  0  0
 13 27  1  0  0  0  0
 14 27  2  0  0  0  0
 15 16  2  0  0  0  0
 15 29  1  0  0  0  0
 16 30  1  0  0  0  0
 17 24  1  0  0  0  0
 17 28  2  0  0  0  0
 18 30  2  0  0  0  0
 18 31  1  0  0  0  0
 19 32  1  0  0  0  0
 20 32  1  0  0  0  0
 20 33  2  0  0  0  0
 20 34  1  0  0  0  0
 21 23  2  0  0  0  0
 21 39  1  0  0  0  0
 22 24  2  0  0  0  0
 22 40  1  0  0  0  0
 23 48  1  0  0  0  0
 24 41  1  0  0  0  0
 25 71  1  0  0  0  0
 26 80  1  0  0  0  0
 27 81  1  0  0  0  0
 28 82  1  0  0  0  0
 29 31  2  0  0  0  0
 29 80  1  0  0  0  0
 30 85  1  0  0  0  0
 31 86  1  0  0  0  0
 32 65  2  0  0  0  0
 33 66  1  0  0  0  0
 33 69  1  0  0  0  0
 34 70  1  0  0  0  0
 34 75  2  0  0  0  0
 35 49  1  0  0  0  0
 35 72  1  0  0  0  0
 35 76  2  0  0  0  0
 36 62  1  0  0  0  0
 36 67  1  0  0  0  0
 36 77  2  0  0  0  0
 37 63  1  0  0  0  0
 37 73  1  0  0  0  0
 37 78  2  0  0  0  0
 38 68  1  0  0  0  0
 38 71  1  0  0  0  0
 38 79  2  0  0  0  0
 39 42  1  0  0  0  0
 40 49  1  0  0  0  0
 41 67  1  0  0  0  0
 42 44  1  0  0  0  0
 43 45  1  0  0  0  0
 43 46  1  0  0  0  0
 44 48  1  0  0  0  0
 45 50  1  0  0  0  0
 46 68  1  0  0  0  0
 47 50  1  0  0  0  0
 47 68  1  0  0  0  0
 48 72  1  0  0  0  0
 49 67  1  0  0  0  0
 50 66  1  0  0  0  0
 51 63  1  0  0  0  0
 52 64  1  0  0  0  0
 53 64  1  0  0  0  0
 54 64  1  0  0  0  0
 55 74  1  0  0  0  0
 56 58  1  0  0  0  0
 56 81  1  0  0  0  0
 57 59  1  0  0  0  0
 57 82  1  0  0  0  0
 58 83  1  0  0  0  0
 59 84  1  0  0  0  0
 60 61  1  0  0  0  0
 60 83  1  0  0  0  0
 61 84  1  0  0  0  0
 62 64  1  0  0  0  0
 62 73  1  0  0  0  0
 63 74  1  0  0  0  0
 65 66  1  0  0  0  0
M  CHG  1  74   1
M  ISO  4  38 100  57 101  71 100  82 101
M  END
> <Batch ID>
0000

> <Smiles>
CNC(C)C(=O)NC(C(=O)N1Cc2cc([101O:1][101CH2:1]COCCOCCOc3ccc([100NH:0][100C:0](=O)N4CCCC(n5nc(-c6ccc(Oc7ccc(F)cc7F)cc6)c(C(N)=O)c5N)C4)cc3)ccc2CC1C(=O)NC1CCCc2ccccc21)C(C)(C)C

> <Shape>
0.273

> <Color>
0.073

> <Negative vol penalty>
0.000

$$$$

  -OEChem-04042320113D

 97106  0     1  0  0  0  0  0999 V2000
  -22.6215  -20.0456   26.1577 C   0  0  0  0  0  0  0  0  0  0  0  0
  -22.9094  -20.3345   24.8238 C   0  0  0  0  0  0  0  0  0  0  0  0
  -23.4055  -19.1285   26.8576 C   0  0  0  0  0  0  0  0  0  0  0  0
  -18.7287  -28.9053   26.1758 C   0  0  0  0  0  0  0  0  0  0  0  0
  -19.5210  -27.8187   26.5320 C   0  0  0  0  0  0  0  0  0  0  0  0
  -23.1625   -9.9051   20.8234 C   0  0  0  0  0  0  0  0  0  0  0  0
  -23.6743  -10.5984   23.0805 C   0  0  0  0  0  0  0  0  0  0  0  0
  -23.9813  -19.7063   24.1898 C   0  0  0  0  0  0  0  0  0  0  0  0
  -24.4774  -18.5002   26.2236 C   0  0  0  0  0  0  0  0  0  0  0  0
  -18.3656  -29.0946   24.8431 C   0  0  0  0  0  0  0  0  0  0  0  0
  -19.9499  -26.9202   25.5557 C   0  0  0  0  0  0  0  0  0  0  0  0
  -24.8460  -25.7195   26.0367 C   0  0  0  0  0  0  0  0  0  0  0  0
  -29.6255  -16.2118   23.0464 C   0  0  0  0  0  0  0  0  0  0  0  0
  -28.4229  -16.8245   23.3987 C   0  0  0  0  0  0  0  0  0  0  0  0
  -22.3928   -8.8536   21.3209 C   0  0  0  0  0  0  0  0  0  0  0  0
  -22.9046   -9.5469   23.5780 C   0  0  0  0  0  0  0  0  0  0  0  0
  -25.1807  -24.7946   27.0248 C   0  0  0  0  0  0  0  0  0  0  0  0
  -20.7807   -7.2604   25.4433 C   0  0  0  0  0  0  0  0  0  0  0  0
  -19.9041   -7.5372   26.4924 C   0  0  0  0  0  0  0  0  0  0  0  0
  -25.3009  -23.0605   25.3521 C   0  0  0  0  0  0  0  0  0  0  0  0
  -30.2775  -16.1542   25.3720 C   0  0  0  0  0  0  0  0  0  0  0  0
  -18.7501   -9.1432   25.1045 C   0  0  0  0  0  0  0  0  0  0  0  0
  -23.8033  -10.7775   21.7032 C   0  0  0  0  0  0  0  0  0  0  0  0
  -24.7653  -18.7891   24.8897 C   0  0  0  0  0  0  0  0  0  0  0  0
  -24.1635  -13.1678   20.8883 C   0  0  0  0  0  0  0  0  0  0  0  0
  -18.7982  -28.2034   23.8485 C   0  0  0  0  0  0  0  0  0  0  0  0
  -24.7254  -25.3190   24.6983 C   0  0  0  0  0  0  0  0  0  0  0  0
  -19.5911  -27.0970   24.2086 C   0  0  0  0  0  0  0  0  0  0  0  0
  -24.9671  -23.9828   24.3487 C   0  0  0  0  0  0  0  0  0  0  0  0
  -30.5527  -15.8766   24.0331 C   0  0  0  0  0  0  0  0  0  0  0  0
  -28.1477  -17.1021   24.7377 C   0  0  0  0  0  0  0  0  0  0  0  0
  -22.2638   -8.6745   22.6982 C   0  0  0  0  0  0  0  0  0  0  0  0
  -25.4054  -23.4642   26.6830 C   0  0  0  0  0  0  0  0  0  0  0  0
  -20.6421   -7.9251   24.2248 C   0  0  0  0  0  0  0  0  0  0  0  0
  -29.0750  -16.7670   25.7244 C   0  0  0  0  0  0  0  0  0  0  0  0
  -18.8888   -8.4785   26.3230 C   0  0  0  0  0  0  0  0  0  0  0  0
  -19.6268   -8.8664   24.0554 C   0  0  0  0  0  0  0  0  0  0  0  0
  -24.5990  -11.8635   21.1899 C   0  0  0  0  0  0  0  0  0  0  0  0
  -25.2903  -13.8101   20.4363 C   0  0  0  0  0  0  0  0  0  0  0  0
  -25.8971  -18.1256   24.2201 C   0  0  0  0  0  0  0  0  0  0  0  0
  -22.8572  -13.7470   21.0061 C   0  0  0  0  0  0  0  0  0  0  0  0
  -22.3630  -25.2828   22.5719 C   0  0  0  0  0  0  0  0  0  0  0  0
  -24.7201  -24.3472   20.5494 C   0  0  0  0  0  0  0  0  0  0  0  0
  -27.7800  -22.8918   20.1421 C   0  0  0  0  0  0  0  0  0  0  0  0
  -31.1386  -12.9216   21.3633 C   0  0  0  0  0  0  0  0  0  0  0  0
  -18.3409  -28.4229   22.4282 C   0  0  0  0  0  0  0  0  0  0  0  0
  -24.3898  -26.3344   23.6406 C   0  0  0  0  0  0  0  0  0  0  0  0
  -24.8702  -23.5061   22.9233 C   0  0  0  0  0  0  0  0  0  0  0  0
  -19.1476  -27.6343   21.3998 C   0  0  0  0  0  0  0  0  0  0  0  0
  -29.4503  -12.9660   18.2289 C   0  0  0  0  0  0  0  0  0  0  0  0
  -19.3223  -26.1884   21.8532 C   0  0  0  0  0  0  0  0  0  0  0  0
  -27.9762  -12.8061   18.6052 C   0  0  0  0  0  0  0  0  0  0  0  0
  -30.3582  -12.1468   19.1436 C   0  0  0  0  0  0  0  0  0  0  0  0
  -28.6966  -12.2345   20.9616 C   0  0  0  0  0  0  0  0  0  0  0  0
  -20.0967  -26.1143   23.1747 C   0  0  1  0  0  0  0  0  0  0  0  0
  -23.7906  -25.7118   22.3833 C   0  0  1  0  0  0  0  0  0  0  0  0
  -27.7462  -13.0859   20.1025 C   0  0  2  0  0  0  0  0  0  0  0  0
  -29.4276  -22.2331   18.3676 C   0  0  0  0  0  0  0  0  0  0  0  0
  -22.9699  -21.9584   19.8145 C   0  0  0  0  0  0  0  0  0  0  0  0
  -24.9918  -20.8738   18.8127 C   0  0  0  0  0  0  0  0  0  0  0  0
  -24.1427  -23.0263   17.8810 C   0  0  0  0  0  0  0  0  0  0  0  0
  -29.8676  -24.6687   21.2573 C   0  0  0  0  0  0  0  0  0  0  0  0
  -31.8383  -15.2215   23.6560 C   0  0  0  0  0  0  0  0  0  0  0  0
  -31.7654  -13.6899   23.6384 C   0  0  0  0  0  0  0  0  0  0  0  0
  -25.2185  -22.7921   28.9566 C   0  0  0  0  0  0  0  0  0  1  0  0
  -29.7405  -17.8918   27.7112 C   0  0  0  0  0  0  0  0  0  0  0  0
  -25.0237  -21.4607   29.6558 C   0  0  0  0  0  0  0  0  0  0  0  0
  -29.2867  -18.0827   29.1456 C   0  0  0  0  0  0  0  0  0  0  0  0
  -26.1573  -19.5457   30.4113 C   0  0  0  0  0  0  0  0  0  0  0  0
  -27.5208  -18.8846   30.4728 C   0  0  0  0  0  0  0  0  0  0  0  0
  -25.3025  -23.0199   20.1275 C   0  0  1  0  0  0  0  0  0  0  0  0
  -28.9996  -23.3172   19.3445 C   0  0  2  0  0  0  0  0  0  0  0  0
  -24.3517  -22.2279   19.1862 C   0  0  0  0  0  0  0  0  0  0  0  0
  -25.9008  -11.6861   20.9497 N   0  0  0  0  0  0  0  0  0  0  0  0
  -26.2931  -12.8873   20.4922 N   0  0  0  0  0  0  0  0  0  0  0  0
  -24.5331  -24.5354   21.9261 N   0  0  0  0  0  0  0  0  0  0  0  0
  -30.0908  -12.4604   20.5494 N   0  0  0  0  0  0  0  0  0  0  0  0
  -25.5113  -15.0685   20.0005 N   0  0  0  0  0  0  0  0  0  0  0  0
  -21.8125  -12.9467   21.4881 N   0  0  0  0  0  0  0  0  0  0  0  0
  -26.9401  -17.7181   25.0746 N   0  0  0  0  0  0  0  0  0  0  0  0
  -21.5121  -26.3067   22.9426 N   0  0  0  0  0  0  0  0  0  0  0  0
  -26.6090  -23.3130   19.5482 N   0  0  0  0  0  0  0  0  0  0  0  0
  -30.7980  -13.2016   22.6811 N   0  0  0  0  0  0  0  0  0  0  0  0
  -30.1416  -23.6041   20.2580 N   0  3  0  0  0  0  0  0  0  0  0  0
  -25.9153  -17.9842   22.9992 O   0  0  0  0  0  0  0  0  0  0  0  0
  -22.6199  -14.9342   20.6778 O   0  0  0  0  0  0  0  0  0  0  0  0
  -22.0558  -24.1101   22.3930 O   0  0  0  0  0  0  0  0  0  0  0  0
  -24.4481  -25.1889   19.6896 O   0  0  0  0  0  0  0  0  0  0  0  0
  -27.8581  -22.2470   21.1855 O   0  0  0  0  0  0  0  0  0  0  0  0
  -32.2909  -13.0778   20.9453 O   0  0  0  0  0  0  0  0  0  0  0  0
  -21.5127   -7.6487   23.1840 O   0  0  0  0  0  0  0  0  0  0  0  0
  -25.7315  -22.5592   27.6455 O   0  0  0  0  0  0  0  0  0  1  0  0
  -28.8243  -17.0314   27.0451 O   0  0  0  0  0  0  0  0  0  0  0  0
  -26.2806  -20.8032   29.7616 O   0  0  0  0  0  0  0  0  0  0  0  0
  -27.9982  -18.6813   29.1484 O   0  0  0  0  0  0  0  0  0  0  0  0
  -18.0461   -8.7430   27.3300 F   0  0  0  0  0  0  0  0  0  0  0  0
  -19.4879   -9.5073   22.8867 F   0  0  0  0  0  0  0  0  0  0  0  0
  1  2  1  0  0  0  0
  1  3  2  0  0  0  0
  2  8  2  0  0  0  0
  3  9  1  0  0  0  0
  4  5  1  0  0  0  0
  4 10  2  0  0  0  0
  5 11  2  0  0  0  0
  6 15  2  0  0  0  0
  6 23  1  0  0  0  0
  7 16  1  0  0  0  0
  7 23  2  0  0  0  0
  8 24  1  0  0  0  0
  9 24  2  0  0  0  0
 10 26  1  0  0  0  0
 11 28  1  0  0  0  0
 12 17  2  0  0  0  0
 12 27  1  0  0  0  0
 13 14  2  0  0  0  0
 13 30  1  0  0  0  0
 14 31  1  0  0  0  0
 15 32  1  0  0  0  0
 16 32  2  0  0  0  0
 17 33  1  0  0  0  0
 18 19  2  0  0  0  0
 18 34  1  0  0  0  0
 19 36  1  0  0  0  0
 20 29  1  0  0  0  0
 20 33  2  0  0  0  0
 21 30  2  0  0  0  0
 21 35  1  0  0  0  0
 22 36  2  0  0  0  0
 22 37  1  0  0  0  0
 23 38  1  0  0  0  0
 24 40  1  0  0  0  0
 25 38  1  0  0  0  0
 25 39  2  0  0  0  0
 25 41  1  0  0  0  0
 26 28  2  0  0  0  0
 26 46  1  0  0  0  0
 27 29  2  0  0  0  0
 27 47  1  0  0  0  0
 28 55  1  0  0  0  0
 29 48  1  0  0  0  0
 30 63  1  0  0  0  0
 31 35  2  0  0  0  0
 31 80  1  0  0  0  0
 32 91  1  0  0  0  0
 33 92  1  0  0  0  0
 34 37  2  0  0  0  0
 34 91  1  0  0  0  0
 35 93  1  0  0  0  0
 36 96  1  0  0  0  0
 37 97  1  0  0  0  0
 38 74  2  0  0  0  0
 39 75  1  0  0  0  0
 39 78  1  0  0  0  0
 40 80  1  0  0  0  0
 40 85  2  0  0  0  0
 41 79  1  0  0  0  0
 41 86  2  0  0  0  0
 42 56  1  0  0  0  0
 42 81  1  0  0  0  0
 42 87  2  0  0  0  0
 43 71  1  0  0  0  0
 43 76  1  0  0  0  0
 43 88  2  0  0  0  0
 44 72  1  0  0  0  0
 44 82  1  0  0  0  0
 44 89  2  0  0  0  0
 45 77  1  0  0  0  0
 45 83  1  0  0  0  0
 45 90  2  0  0  0  0
 46 49  1  0  0  0  0
 47 56  1  0  0  0  0
 48 76  1  0  0  0  0
 49 51  1  0  0  0  0
 50 52  1  0  0  0  0
 50 53  1  0  0  0  0
 51 55  1  0  0  0  0
 52 57  1  0  0  0  0
 53 77  1  0  0  0  0
 54 57  1  0  0  0  0
 54 77  1  0  0  0  0
 55 81  1  0  0  0  0
 56 76  1  0  0  0  0
 57 75  1  0  0  0  0
 58 72  1  0  0  0  0
 59 73  1  0  0  0  0
 60 73  1  0  0  0  0
 61 73  1  0  0  0  0
 62 84  1  0  0  0  0
 63 64  1  0  0  0  0
 64 83  1  0  0  0  0
 65 67  1  0  0  0  0
 65 92  1  0  0  0  0
 66 68  1  0  0  0  0
 66 93  1  0  0  0  0
 67 94  1  0  0  0  0
 68 95  1  0  0  0  0
 69 70  1  0  0  0  0
 69 94  1  0  0  0  0
 70 95  1  0  0  0  0
 71 73  1  0  0  0  0
 71 82  1  0  0  0  0
 72 84  1  0  0  0  0
 74 75  1  0  0  0  0
M  CHG  1  84   1
M  ISO  4  45 100  65 101  83 100  92 101
M  END
> <Batch ID>
0000

> <Smiles>
CNC(C)C(=O)NC(C(=O)N1Cc2cc([101O:1][101CH2:1]COCCOCCOc3cc(CC[100NH:0][100C:0](=O)N4CCCC(n5nc(-c6ccc(Oc7ccc(F)cc7F)cc6)c(C(N)=O)c5N)C4)ccc3NC(=O)c3ccccc3)ccc2CC1C(=O)NC1CCCc2ccccc21)C(C)(C)C

> <Shape>
0.185

> <Color>
0.136

> <Negative vol penalty>
0.000

$$$$

  -OEChem-04042320113D

 83 91  0     1  0  0  0  0  0999 V2000
  -27.8416  -36.3706   20.9111 C   0  0  0  0  0  0  0  0  0  0  0  0
  -28.1692  -35.0220   21.0082 C   0  0  0  0  0  0  0  0  0  0  0  0
  -24.1383   -9.5379   21.2904 C   0  0  0  0  0  0  0  0  0  0  0  0
  -25.1395  -10.6326   23.1973 C   0  0  0  0  0  0  0  0  0  0  0  0
  -26.6511  -36.8392   21.4652 C   0  0  0  0  0  0  0  0  0  0  0  0
  -27.3070  -34.1414   21.6606 C   0  0  0  0  0  0  0  0  0  0  0  0
  -26.6384  -29.8232   19.1011 C   0  0  0  0  0  0  0  0  0  0  0  0
  -28.1089  -19.3873   20.1355 C   0  0  0  0  0  0  0  0  0  0  0  0
  -30.3540  -19.0491   19.3097 C   0  0  0  0  0  0  0  0  0  0  0  0
  -23.8995   -8.4039   22.0667 C   0  0  0  0  0  0  0  0  0  0  0  0
  -24.9007   -9.4986   23.9737 C   0  0  0  0  0  0  0  0  0  0  0  0
  -27.6558  -28.8731   19.1786 C   0  0  0  0  0  0  0  0  0  0  0  0
  -28.4521  -20.6773   20.5404 C   0  0  0  0  0  0  0  0  0  0  0  0
  -30.6972  -20.3391   19.7145 C   0  0  0  0  0  0  0  0  0  0  0  0
  -21.6546   -7.4021   24.3883 C   0  0  0  0  0  0  0  0  0  0  0  0
  -20.4003   -6.8001   24.2879 C   0  0  0  0  0  0  0  0  0  0  0  0
  -26.3867  -27.6578   20.8314 C   0  0  0  0  0  0  0  0  0  0  0  0
  -21.4429   -4.7523   23.5417 C   0  0  0  0  0  0  0  0  0  0  0  0
  -24.7584  -10.6522   21.8556 C   0  0  0  0  0  0  0  0  0  0  0  0
  -24.1489  -12.9255   20.8717 C   0  0  0  0  0  0  0  0  0  0  0  0
  -25.7693  -35.9622   22.1163 C   0  0  0  0  0  0  0  0  0  0  0  0
  -25.4905  -29.7034   19.8975 C   0  0  0  0  0  0  0  0  0  0  0  0
  -26.1042  -34.5990   22.2252 C   0  0  0  0  0  0  0  0  0  0  0  0
  -25.3551  -28.6064   20.7602 C   0  0  0  0  0  0  0  0  0  0  0  0
  -29.0599  -18.5732   19.5203 C   0  0  0  0  0  0  0  0  0  0  0  0
  -24.2806   -8.3843   23.4084 C   0  0  0  0  0  0  0  0  0  0  0  0
  -29.7463  -21.1531   20.3299 C   0  0  0  0  0  0  0  0  0  0  0  0
  -27.5313  -27.7918   20.0459 C   0  0  0  0  0  0  0  0  0  0  0  0
  -22.8030   -6.6792   24.0653 C   0  0  0  0  0  0  0  0  0  0  0  0
  -20.2945   -5.4752   23.8646 C   0  0  0  0  0  0  0  0  0  0  0  0
  -22.6972   -5.3544   23.6421 C   0  0  0  0  0  0  0  0  0  0  0  0
  -25.0058  -11.8236   21.0540 C   0  0  0  0  0  0  0  0  0  0  0  0
  -24.8398  -13.7622   20.0296 C   0  0  0  0  0  0  0  0  0  0  0  0
  -22.8449  -13.1708   21.4150 C   0  0  0  0  0  0  0  0  0  0  0  0
  -24.1506  -31.4631   22.1805 C   0  0  0  0  0  0  0  0  0  0  0  0
  -21.7774  -29.2646   21.9416 C   0  0  0  0  0  0  0  0  0  0  0  0
  -20.8309  -26.1078   21.0553 C   0  0  0  0  0  0  0  0  0  0  0  0
  -29.5346  -16.3263   18.4847 C   0  0  0  0  0  0  0  0  0  0  0  0
  -24.5166  -36.5237   22.7410 C   0  0  0  0  0  0  0  0  0  0  0  0
  -24.3902  -30.7225   19.7826 C   0  0  0  0  0  0  0  0  0  0  0  0
  -24.1336  -28.4211   21.6217 C   0  0  0  0  0  0  0  0  0  0  0  0
  -23.4793  -35.4589   23.0884 C   0  0  0  0  0  0  0  0  0  0  0  0
  -29.0629  -12.9848   17.3495 C   0  0  0  0  0  0  0  0  0  0  0  0
  -24.1394  -34.2833   23.8018 C   0  0  0  0  0  0  0  0  0  0  0  0
  -27.8948  -12.4754   18.1971 C   0  0  0  0  0  0  0  0  0  0  0  0
  -29.9838  -13.9056   18.1480 C   0  0  0  0  0  0  0  0  0  0  0  0
  -28.1436  -14.5153   19.6682 C   0  0  0  0  0  0  0  0  0  0  0  0
  -25.1830  -33.6084   22.9035 C   0  0  1  0  0  0  0  0  0  0  0  0
  -23.4944  -30.7764   21.0163 C   0  0  1  0  0  0  0  0  0  0  0  0
  -27.1525  -13.6356   18.8888 C   0  0  2  0  0  0  0  0  0  0  0  0
  -18.8335  -24.5893   21.0118 C   0  0  0  0  0  0  0  0  0  0  0  0
  -22.0360  -28.8422   24.9523 C   0  0  0  0  0  0  0  0  0  0  0  0
  -20.7451  -26.7126   24.6941 C   0  0  0  0  0  0  0  0  0  0  0  0
  -19.6839  -28.8917   24.1041 C   0  0  0  0  0  0  0  0  0  0  0  0
  -20.9561  -25.8365   18.1109 C   0  0  0  0  0  0  0  0  0  0  0  0
  -31.4213  -22.8347   20.4792 C   0  0  0  0  0  0  0  0  0  0  0  0
  -29.8534  -27.3106   19.8660 C   0  0  0  0  0  0  0  0  0  1  0  0
  -31.5952  -24.2613   20.9635 C   0  0  0  0  0  0  0  0  0  0  0  0
  -30.8248  -26.4610   20.6623 C   0  0  0  0  0  0  0  0  0  0  0  0
  -21.4780  -27.9390   22.5989 C   0  0  1  0  0  0  0  0  0  0  0  0
  -19.6600  -25.6008   20.2330 C   0  0  2  0  0  0  0  0  0  0  0  0
  -21.0098  -28.1006   24.0727 C   0  0  0  0  0  0  0  0  0  0  0  0
  -26.1535  -11.9462   20.3817 N   0  0  0  0  0  0  0  0  0  0  0  0
  -26.0224  -13.1349   19.7687 N   0  0  0  0  0  0  0  0  0  0  0  0
  -23.0880  -29.4475   21.4781 N   0  0  0  0  0  0  0  0  0  0  0  0
  -29.2119  -14.9830   18.7711 N   0  0  0  0  0  0  0  0  0  0  0  0
  -24.5450  -14.9659   19.4943 N   0  0  0  0  0  0  0  0  0  0  0  0
  -22.2822  -12.2071   22.2628 N   0  0  0  0  0  0  0  0  0  0  0  0
  -28.7113  -17.2628   19.1090 N   0  0  0  0  0  0  0  0  0  0  0  0
  -24.5353  -32.7648   21.9220 N   0  0  0  0  0  0  0  0  0  0  0  0
  -20.5141  -27.2642   21.7363 N   0  0  0  0  0  0  0  0  0  0  0  0
  -20.1475  -24.9482   18.9850 N   0  3  0  0  0  0  0  0  0  0  0  0
  -22.1911  -14.2063   21.1431 O   0  0  0  0  0  0  0  0  0  0  0  0
  -24.2958  -30.8572   23.2358 O   0  0  0  0  0  0  0  0  0  0  0  0
  -20.8797  -30.1041   21.8367 O   0  0  0  0  0  0  0  0  0  0  0  0
  -21.9168  -25.5333   21.0930 O   0  0  0  0  0  0  0  0  0  0  0  0
  -30.4551  -16.6235   17.7189 O   0  0  0  0  0  0  0  0  0  0  0  0
  -24.0475   -7.2781   24.1663 O   0  0  0  0  0  0  0  0  0  0  0  0
  -30.0834  -22.4201   20.7275 O   0  0  0  0  0  0  0  0  0  0  0  0
  -28.5231  -26.8633   20.1240 O   0  0  0  0  0  0  0  0  0  1  0  0
  -30.7046  -25.1057   20.2476 O   0  0  0  0  0  0  0  0  0  0  0  0
  -19.0901   -4.8968   23.7697 F   0  0  0  0  0  0  0  0  0  0  0  0
  -23.7970   -4.6545   23.3316 F   0  0  0  0  0  0  0  0  0  0  0  0
  1  2  1  0  0  0  0
  1  5  2  0  0  0  0
  2  6  2  0  0  0  0
  3 10  2  0  0  0  0
  3 19  1  0  0  0  0
  4 11  1  0  0  0  0
  4 19  2  0  0  0  0
  5 21  1  0  0  0  0
  6 23  1  0  0  0  0
  7 12  2  0  0  0  0
  7 22  1  0  0  0  0
  8 13  2  0  0  0  0
  8 25  1  0  0  0  0
  9 14  1  0  0  0  0
  9 25  2  0  0  0  0
 10 26  1  0  0  0  0
 11 26  2  0  0  0  0
 12 28  1  0  0  0  0
 13 27  1  0  0  0  0
 14 27  2  0  0  0  0
 15 16  2  0  0  0  0
 15 29  1  0  0  0  0
 16 30  1  0  0  0  0
 17 24  1  0  0  0  0
 17 28  2  0  0  0  0
 18 30  2  0  0  0  0
 18 31  1  0  0  0  0
 19 32  1  0  0  0  0
 20 32  1  0  0  0  0
 20 33  2  0  0  0  0
 20 34  1  0  0  0  0
 21 23  2  0  0  0  0
 21 39  1  0  0  0  0
 22 24  2  0  0  0  0
 22 40  1  0  0  0  0
 23 48  1  0  0  0  0
 24 41  1  0  0  0  0
 25 69  1  0  0  0  0
 26 78  1  0  0  0  0
 27 79  1  0  0  0  0
 28 80  1  0  0  0  0
 29 31  2  0  0  0  0
 29 78  1  0  0  0  0
 30 82  1  0  0  0  0
 31 83  1  0  0  0  0
 32 63  2  0  0  0  0
 33 64  1  0  0  0  0
 33 67  1  0  0  0  0
 34 68  1  0  0  0  0
 34 73  2  0  0  0  0
 35 49  1  0  0  0  0
 35 70  1  0  0  0  0
 35 74  2  0  0  0  0
 36 60  1  0  0  0  0
 36 65  1  0  0  0  0
 36 75  2  0  0  0  0
 37 61  1  0  0  0  0
 37 71  1  0  0  0  0
 37 76  2  0  0  0  0
 38 66  1  0  0  0  0
 38 69  1  0  0  0  0
 38 77  2  0  0  0  0
 39 42  1  0  0  0  0
 40 49  1  0  0  0  0
 41 65  1  0  0  0  0
 42 44  1  0  0  0  0
 43 45  1  0  0  0  0
 43 46  1  0  0  0  0
 44 48  1  0  0  0  0
 45 50  1  0  0  0  0
 46 66  1  0  0  0  0
 47 50  1  0  0  0  0
 47 66  1  0  0  0  0
 48 70  1  0  0  0  0
 49 65  1  0  0  0  0
 50 64  1  0  0  0  0
 51 61  1  0  0  0  0
 52 62  1  0  0  0  0
 53 62  1  0  0  0  0
 54 62  1  0  0  0  0
 55 72  1  0  0  0  0
 56 58  1  0  0  0  0
 56 79  1  0  0  0  0
 57 59  1  0  0  0  0
 57 80  1  0  0  0  0
 58 81  1  0  0  0  0
 59 81  1  0  0  0  0
 60 62  1  0  0  0  0
 60 71  1  0  0  0  0
 61 72  1  0  0  0  0
 63 64  1  0  0  0  0
M  CHG  1  72   1
M  ISO  4  38 100  57 101  69 100  80 101
M  END
> <Batch ID>
0000

> <Smiles>
CNC(C)C(=O)NC(C(=O)N1Cc2cc([101O:1][101CH2:1]COCCOc3ccc([100NH:0][100C:0](=O)N4CCCC(n5nc(-c6ccc(Oc7ccc(F)cc7F)cc6)c(C(N)=O)c5N)C4)cc3)ccc2CC1C(=O)NC1CCCc2ccccc21)C(C)(C)C

> <Shape>
0.356

> <Color>
0.138

> <Negative vol penalty>
0.000

$$$$

  -OEChem-04042320113D

 79 86  0     1  0  0  0  0  0999 V2000
  -18.7889  -27.2484   23.3445 C   0  0  0  0  0  0  0  0  0  0  0  0
  -19.2383  -26.2084   22.5371 C   0  0  0  0  0  0  0  0  0  0  0  0
  -25.7477  -15.7088   21.4069 C   0  0  0  0  0  0  0  0  0  0  0  0
  -25.7723  -14.7733   19.1795 C   0  0  0  0  0  0  0  0  0  0  0  0
  -19.4421  -28.4800   23.3209 C   0  0  0  0  0  0  0  0  0  0  0  0
  -20.3405  -26.3997   21.7047 C   0  0  0  0  0  0  0  0  0  0  0  0
  -24.5998  -22.2555   20.2251 C   0  0  0  0  0  0  0  0  0  0  0  0
  -24.3957  -15.3874   21.5269 C   0  0  0  0  0  0  0  0  0  0  0  0
  -24.4203  -14.4518   19.2995 C   0  0  0  0  0  0  0  0  0  0  0  0
  -24.7661  -21.4395   19.1069 C   0  0  0  0  0  0  0  0  0  0  0  0
  -21.0277  -14.4877   22.5576 C   0  0  0  0  0  0  0  0  0  0  0  0
  -20.6046  -13.8982   23.7488 C   0  0  0  0  0  0  0  0  0  0  0  0
  -26.2750  -23.0628   18.1543 C   0  0  0  0  0  0  0  0  0  0  0  0
  -22.1126  -12.0492   23.3695 C   0  0  0  0  0  0  0  0  0  0  0  0
  -26.4360  -15.4018   20.2331 C   0  0  0  0  0  0  0  0  0  0  0  0
  -28.9326  -14.9287   20.4585 C   0  0  0  0  0  0  0  0  0  0  0  0
  -20.5588  -28.6835   22.4950 C   0  0  0  0  0  0  0  0  0  0  0  0
  -25.2625  -23.4883   20.3115 C   0  0  0  0  0  0  0  0  0  0  0  0
  -21.0084  -27.6356   21.6690 C   0  0  0  0  0  0  0  0  0  0  0  0
  -26.1174  -23.8913   19.2758 C   0  0  0  0  0  0  0  0  0  0  0  0
  -23.7320  -14.7588   20.4733 C   0  0  0  0  0  0  0  0  0  0  0  0
  -25.6015  -21.8444   18.0700 C   0  0  0  0  0  0  0  0  0  0  0  0
  -21.9932  -13.8579   21.7722 C   0  0  0  0  0  0  0  0  0  0  0  0
  -21.1470  -12.6790   24.1548 C   0  0  0  0  0  0  0  0  0  0  0  0
  -22.5357  -12.6387   22.1782 C   0  0  0  0  0  0  0  0  0  0  0  0
  -27.8324  -15.7342   20.1083 C   0  0  0  0  0  0  0  0  0  0  0  0
  -30.0306  -15.6934   20.1486 C   0  0  0  0  0  0  0  0  0  0  0  0
  -28.9596  -13.6073   21.0143 C   0  0  0  0  0  0  0  0  0  0  0  0
  -24.3377  -26.5226   20.5157 C   0  0  0  0  0  0  0  0  0  0  0  0
  -27.5133  -27.0574   20.9054 C   0  0  0  0  0  0  0  0  0  0  0  0
  -30.7147  -25.9874   20.4026 C   0  0  0  0  0  0  0  0  0  0  0  0
  -30.7484  -20.2155   16.2479 C   0  0  0  0  0  0  0  0  0  0  0  0
  -21.2033  -30.0468   22.4684 C   0  0  0  0  0  0  0  0  0  0  0  0
  -25.0934  -24.3447   21.5364 C   0  0  0  0  0  0  0  0  0  0  0  0
  -26.8674  -25.1964   19.3291 C   0  0  0  0  0  0  0  0  0  0  0  0
  -22.5928  -30.0515   21.8364 C   0  0  0  0  0  0  0  0  0  0  0  0
  -31.4619  -20.2352   19.7821 C   0  0  0  0  0  0  0  0  0  0  0  0
  -22.5876  -29.2646   20.5296 C   0  0  0  0  0  0  0  0  0  0  0  0
  -30.6773  -19.0310   20.3015 C   0  0  0  0  0  0  0  0  0  0  0  0
  -30.7367  -20.9191   18.6275 C   0  0  0  0  0  0  0  0  0  0  0  0
  -29.6227  -18.7898   18.0093 C   0  0  0  0  0  0  0  0  0  0  0  0
  -22.2158  -27.7966   20.7710 C   0  0  1  0  0  0  0  0  0  0  0  0
  -25.4157  -25.8148   21.2868 C   0  0  1  0  0  0  0  0  0  0  0  0
  -30.3381  -18.0582   19.1581 C   0  0  2  0  0  0  0  0  0  0  0  0
  -33.1006  -26.6565   20.7991 C   0  0  0  0  0  0  0  0  0  0  0  0
  -27.3298  -29.0620   18.6124 C   0  0  0  0  0  0  0  0  0  0  0  0
  -29.8252  -28.9756   18.4295 C   0  0  0  0  0  0  0  0  0  0  0  0
  -28.7580  -29.7974   20.5291 C   0  0  0  0  0  0  0  0  0  0  0  0
  -31.2265  -23.6025   22.0786 C   0  0  0  0  0  0  0  0  0  0  0  0
  -24.6661  -20.2179   16.6087 C   0  0  0  0  0  0  0  0  0  1  0  0
  -30.6788  -19.4042   14.0129 C   0  0  0  0  0  0  0  0  0  0  0  0
  -24.6887  -20.0033   15.1077 C   0  0  0  0  0  0  0  0  0  0  0  0
  -29.6285  -18.7187   13.1605 C   0  0  0  0  0  0  0  0  0  0  0  0
  -25.9769  -19.1251   13.3493 C   0  0  0  0  0  0  0  0  0  0  0  0
  -27.2974  -18.4524   13.0273 C   0  0  0  0  0  0  0  0  0  0  0  0
  -28.6730  -27.3313   19.9785 C   0  0  1  0  0  0  0  0  0  0  0  0
  -31.9037  -25.8908   21.3414 C   0  0  2  0  0  0  0  0  0  0  0  0
  -28.6310  -28.7678   19.3852 C   0  0  0  0  0  0  0  0  0  0  0  0
  -28.1982  -16.9198   19.6138 N   0  0  0  0  0  0  0  0  0  0  0  0
  -29.5404  -16.8650   19.6512 N   0  0  0  0  0  0  0  0  0  0  0  0
  -26.6642  -26.0016   20.5448 N   0  0  0  0  0  0  0  0  0  0  0  0
  -30.3945  -19.9614   17.5766 N   0  0  0  0  0  0  0  0  0  0  0  0
  -31.3578  -15.4714   20.2558 N   0  0  0  0  0  0  0  0  0  0  0  0
  -27.7404  -12.9654   21.2711 N   0  0  0  0  0  0  0  0  0  0  0  0
  -23.3468  -27.0705   21.3078 N   0  0  0  0  0  0  0  0  0  0  0  0
  -29.8822  -27.0339   20.7387 N   0  0  0  0  0  0  0  0  0  0  0  0
  -32.3020  -24.4669   21.5281 N   0  3  0  0  0  0  0  0  0  0  0  0
  -30.0329  -13.0197   21.2906 O   0  0  0  0  0  0  0  0  0  0  0  0
  -24.4011  -26.5694   19.2928 O   0  0  0  0  0  0  0  0  0  0  0  0
  -27.3703  -27.7501   21.9161 O   0  0  0  0  0  0  0  0  0  0  0  0
  -30.5437  -25.2142   19.4626 O   0  0  0  0  0  0  0  0  0  0  0  0
  -31.3494  -21.2200   15.8710 O   0  0  0  0  0  0  0  0  0  0  0  0
  -22.4128  -14.4448   20.5902 O   0  0  0  0  0  0  0  0  0  0  0  0
  -25.7651  -21.0502   16.9772 O   0  0  0  0  0  0  0  0  0  1  0  0
  -30.3530  -19.2191   15.3953 O   0  0  0  0  0  0  0  0  0  0  0  0
  -25.9016  -19.3522   14.7497 O   0  0  0  0  0  0  0  0  0  0  0  0
  -28.3627  -19.3096   13.4194 O   0  0  0  0  0  0  0  0  0  0  0  0
  -20.7417  -12.1138   25.2995 F   0  0  0  0  0  0  0  0  0  0  0  0
  -23.4645  -12.0294   21.4285 F   0  0  0  0  0  0  0  0  0  0  0  0
  1  2  1  0  0  0  0
  1  5  2  0  0  0  0
  2  6  2  0  0  0  0
  3  8  2  0  0  0  0
  3 15  1  0  0  0  0
  4  9  1  0  0  0  0
  4 15  2  0  0  0  0
  5 17  1  0  0  0  0
  6 19  1  0  0  0  0
  7 10  2  0  0  0  0
  7 18  1  0  0  0  0
  8 21  1  0  0  0  0
  9 21  2  0  0  0  0
 10 22  1  0  0  0  0
 11 12  2  0  0  0  0
 11 23  1  0  0  0  0
 12 24  1  0  0  0  0
 13 20  1  0  0  0  0
 13 22  2  0  0  0  0
 14 24  2  0  0  0  0
 14 25  1  0  0  0  0
 15 26  1  0  0  0  0
 16 26  1  0  0  0  0
 16 27  2  0  0  0  0
 16 28  1  0  0  0  0
 17 19  2  0  0  0  0
 17 33  1  0  0  0  0
 18 20  2  0  0  0  0
 18 34  1  0  0  0  0
 19 42  1  0  0  0  0
 20 35  1  0  0  0  0
 21 73  1  0  0  0  0
 22 74  1  0  0  0  0
 23 25  2  0  0  0  0
 23 73  1  0  0  0  0
 24 78  1  0  0  0  0
 25 79  1  0  0  0  0
 26 59  2  0  0  0  0
 27 60  1  0  0  0  0
 27 63  1  0  0  0  0
 28 64  1  0  0  0  0
 28 68  2  0  0  0  0
 29 43  1  0  0  0  0
 29 65  1  0  0  0  0
 29 69  2  0  0  0  0
 30 56  1  0  0  0  0
 30 61  1  0  0  0  0
 30 70  2  0  0  0  0
 31 57  1  0  0  0  0
 31 66  1  0  0  0  0
 31 71  2  0  0  0  0
 32 62  1  0  0  0  0
 32 72  2  0  0  0  0
 32 75  1  0  0  0  0
 33 36  1  0  0  0  0
 34 43  1  0  0  0  0
 35 61  1  0  0  0  0
 36 38  1  0  0  0  0
 37 39  1  0  0  0  0
 37 40  1  0  0  0  0
 38 42  1  0  0  0  0
 39 44  1  0  0  0  0
 40 62  1  0  0  0  0
 41 44  1  0  0  0  0
 41 62  1  0  0  0  0
 42 65  1  0  0  0  0
 43 61  1  0  0  0  0
 44 60  1  0  0  0  0
 45 57  1  0  0  0  0
 46 58  1  0  0  0  0
 47 58  1  0  0  0  0
 48 58  1  0  0  0  0
 49 67  1  0  0  0  0
 50 52  1  0  0  0  0
 50 74  1  0  0  0  0
 51 53  1  0  0  0  0
 51 75  1  0  0  0  0
 52 76  1  0  0  0  0
 53 77  1  0  0  0  0
 54 55  1  0  0  0  0
 54 76  1  0  0  0  0
 55 77  1  0  0  0  0
 56 58  1  0  0  0  0
 56 66  1  0  0  0  0
 57 67  1  0  0  0  0
 59 60  1  0  0  0  0
M  CHG  1  67   1
M  ISO  4  32 100  50 101  74 101  75 100
M  END
> <Batch ID>
0000

> <Smiles>
CNC(C)C(=O)NC(C(=O)N1Cc2cc([101O:1][101CH2:1]COCCOCC[100O:0][100C:0](=O)N3CCCC(n4nc(-c5ccc(Oc6ccc(F)cc6F)cc5)c(C(N)=O)c4N)C3)ccc2CC1C(=O)NC1CCCc2ccccc21)C(C)(C)C

> <Shape>
0.209

> <Color>
0.060

> <Negative vol penalty>
0.000

$$$$

  -OEChem-04042320113D

 90 99  0     1  0  0  0  0  0999 V2000
  -22.6161  -35.9397   16.2248 C   0  0  0  0  0  0  0  0  0  0  0  0
  -23.4366  -34.8181   16.1602 C   0  0  0  0  0  0  0  0  0  0  0  0
  -23.6700   -6.0340   19.6001 C   0  0  0  0  0  0  0  0  0  0  0  0
  -22.1284   -7.3931   18.3299 C   0  0  0  0  0  0  0  0  0  0  0  0
  -27.6435  -17.7036   19.2893 C   0  0  0  0  0  0  0  0  0  0  0  0
  -28.7164  -17.8270   21.4505 C   0  0  0  0  0  0  0  0  0  0  0  0
  -22.4803  -36.6344   17.4260 C   0  0  0  0  0  0  0  0  0  0  0  0
  -24.1228  -34.3911   17.2966 C   0  0  0  0  0  0  0  0  0  0  0  0
  -25.3885  -28.6117   18.8784 C   0  0  0  0  0  0  0  0  0  0  0  0
  -27.7313  -19.0902   19.1666 C   0  0  0  0  0  0  0  0  0  0  0  0
  -28.8042  -19.2137   21.3277 C   0  0  0  0  0  0  0  0  0  0  0  0
  -23.6323   -5.0594   18.6030 C   0  0  0  0  0  0  0  0  0  0  0  0
  -22.0908   -6.4185   17.3327 C   0  0  0  0  0  0  0  0  0  0  0  0
  -26.5339  -27.8297   18.7360 C   0  0  0  0  0  0  0  0  0  0  0  0
  -20.5841   -3.4355   16.8201 C   0  0  0  0  0  0  0  0  0  0  0  0
  -19.3371   -3.0867   16.3015 C   0  0  0  0  0  0  0  0  0  0  0  0
  -27.1943  -28.3980   20.9854 C   0  0  0  0  0  0  0  0  0  0  0  0
  -20.0586   -3.7785   14.1019 C   0  0  0  0  0  0  0  0  0  0  0  0
  -22.9179   -7.2009   19.4636 C   0  0  0  0  0  0  0  0  0  0  0  0
  -28.1360  -17.0719   20.4314 C   0  0  0  0  0  0  0  0  0  0  0  0
  -22.5883   -8.0567   21.8441 C   0  0  0  0  0  0  0  0  0  0  0  0
  -23.1576  -36.2101   18.5801 C   0  0  0  0  0  0  0  0  0  0  0  0
  -25.1425  -29.3027   20.0735 C   0  0  0  0  0  0  0  0  0  0  0  0
  -23.9970  -35.0816   18.5140 C   0  0  0  0  0  0  0  0  0  0  0  0
  -26.0438  -29.1861   21.1414 C   0  0  0  0  0  0  0  0  0  0  0  0
  -28.3116  -19.8453   20.1857 C   0  0  0  0  0  0  0  0  0  0  0  0
  -22.8428   -5.2516   17.4693 C   0  0  0  0  0  0  0  0  0  0  0  0
  -27.4384  -27.7250   19.7886 C   0  0  0  0  0  0  0  0  0  0  0  0
  -21.5683   -3.9558   15.9797 C   0  0  0  0  0  0  0  0  0  0  0  0
  -19.0744   -3.2582   14.9424 C   0  0  0  0  0  0  0  0  0  0  0  0
  -21.3055   -4.1273   14.6206 C   0  0  0  0  0  0  0  0  0  0  0  0
  -22.9559   -8.2078   20.4936 C   0  0  0  0  0  0  0  0  0  0  0  0
  -22.8058   -9.2939   22.3996 C   0  0  0  0  0  0  0  0  0  0  0  0
  -28.0433  -15.6027   20.5617 C   0  0  0  0  0  0  0  0  0  0  0  0
  -22.0944   -6.9013   22.5347 C   0  0  0  0  0  0  0  0  0  0  0  0
  -24.8368  -32.3641   20.8726 C   0  0  0  0  0  0  0  0  0  0  0  0
  -24.0517  -31.1272   23.7667 C   0  0  0  0  0  0  0  0  0  0  0  0
  -25.2192  -28.4569   25.8937 C   0  0  0  0  0  0  0  0  0  0  0  0
  -26.5330  -13.6309   20.6495 C   0  0  0  0  0  0  0  0  0  0  0  0
  -23.0166  -37.0209   19.8440 C   0  0  0  0  0  0  0  0  0  0  0  0
  -23.8889  -30.1208   20.2207 C   0  0  0  0  0  0  0  0  0  0  0  0
  -25.8156  -29.8917   22.4523 C   0  0  0  0  0  0  0  0  0  0  0  0
  -23.4842  -36.2835   21.0961 C   0  0  0  0  0  0  0  0  0  0  0  0
  -22.8994  -13.9322   21.3303 C   0  0  0  0  0  0  0  0  0  0  0  0
  -24.8341  -35.6170   20.8503 C   0  0  0  0  0  0  0  0  0  0  0  0
  -22.4688  -12.4729   21.2318 C   0  0  0  0  0  0  0  0  0  0  0  0
  -24.0699  -14.2531   20.4019 C   0  0  0  0  0  0  0  0  0  0  0  0
  -28.3675  -22.0883   21.2478 C   0  0  0  0  0  0  0  0  0  0  0  0
  -24.8085  -11.8822   20.4989 C   0  0  0  0  0  0  0  0  0  0  0  0
  -28.4688  -21.8770   18.7514 C   0  0  0  0  0  0  0  0  0  0  0  0
  -27.8084  -23.4566   20.8865 C   0  0  0  0  0  0  0  0  0  0  0  0
  -24.7382  -34.5729   19.7314 C   0  0  1  0  0  0  0  0  0  0  0  0
  -23.9984  -31.1929   21.3004 C   0  0  1  0  0  0  0  0  0  0  0  0
  -23.6675  -11.5433   21.4689 C   0  0  2  0  0  0  0  0  0  0  0  0
  -29.2942  -23.1677   18.8353 C   0  0  1  0  0  0  0  0  0  0  0  0
  -24.0093  -27.1038   27.6265 C   0  0  0  0  0  0  0  0  0  0  0  0
  -30.4487  -23.2188   16.6076 C   0  0  0  0  0  0  0  0  0  0  0  0
  -28.0148  -23.8117   16.7748 C   0  0  0  0  0  0  0  0  0  0  0  0
  -25.1391  -33.1985   25.7255 C   0  0  0  0  0  0  0  0  0  0  0  0
  -25.5019  -31.3482   27.3726 C   0  0  0  0  0  0  0  0  0  0  0  0
  -23.1964  -31.8747   26.5788 C   0  0  0  0  0  0  0  0  0  0  0  0
  -25.9624  -25.9068   24.5886 C   0  0  0  0  0  0  0  0  0  0  0  0
  -29.7152  -25.0258   20.4826 C   0  0  0  0  0  0  0  0  0  0  0  0
  -29.0780  -26.3557   20.8338 C   0  0  0  0  0  0  0  0  0  1  0  0
  -24.8192  -30.7392   25.0074 C   0  0  1  0  0  0  0  0  0  0  0  0
  -24.5033  -27.1512   26.1890 C   0  0  2  0  0  0  0  0  0  0  0  0
  -29.3696  -23.8599   17.4769 C   0  0  0  0  0  0  0  0  0  0  0  0
  -24.6761  -31.7891   26.1452 C   0  0  0  0  0  0  0  0  0  0  0  0
  -23.3750   -9.4435   20.2084 N   0  0  0  0  0  0  0  0  0  0  0  0
  -23.2720  -10.0802   21.3874 N   0  0  0  0  0  0  0  0  0  0  0  0
  -28.3989  -21.2290   20.0632 N   0  0  3  0  0  0  0  0  0  0  0  0
  -24.5785  -30.6845   22.5451 N   0  0  0  0  0  0  0  0  0  0  0  0
  -25.1776  -13.3006   20.5598 N   0  0  0  0  0  0  0  0  0  0  0  0
  -22.6418   -9.7749   23.6502 N   0  0  0  0  0  0  0  0  0  0  0  0
  -21.9303   -5.7111   21.8131 N   0  0  0  0  0  0  0  0  0  0  0  0
  -26.8232  -15.0441   20.5368 N   0  0  0  0  0  0  0  0  0  0  0  0
  -24.1272  -33.3575   20.2252 N   0  0  0  0  0  0  0  0  0  0  0  0
  -24.3629  -29.4013   25.3680 N   0  0  0  0  0  0  0  0  0  0  0  0
  -29.1811  -14.9230   20.7018 N   0  3  0  0  0  0  0  0  0  0  0  0
  -28.6799  -24.1293   19.8484 N   0  3  2  0  0  0  0  0  0  0  0  0
  -25.4196  -25.9968   25.9685 N   0  3  0  0  0  0  0  0  0  0  0  0
  -21.7917   -6.9282   23.7517 O   0  0  0  0  0  0  0  0  0  0  0  0
  -26.0384  -32.3669   21.1133 O   0  0  0  0  0  0  0  0  0  0  0  0
  -23.0187  -31.7922   23.8778 O   0  0  0  0  0  0  0  0  0  0  0  0
  -26.4172  -28.6238   26.1113 O   0  0  0  0  0  0  0  0  0  0  0  0
  -27.4546  -12.8326   20.7813 O   0  0  0  0  0  0  0  0  0  0  0  0
  -22.8061   -4.3009   16.4960 O   0  0  0  0  0  0  0  0  0  0  0  0
  -28.5575  -26.9629   19.6520 O   0  0  0  0  0  0  0  0  0  1  0  0
  -17.8774   -2.9218   14.4442 F   0  0  0  0  0  0  0  0  0  0  0  0
  -22.2475   -4.6255   13.8080 F   0  0  0  0  0  0  0  0  0  0  0  0
  1  2  1  0  0  0  0
  1  7  2  0  0  0  0
  2  8  2  0  0  0  0
  3 12  2  0  0  0  0
  3 19  1  0  0  0  0
  4 13  1  0  0  0  0
  4 19  2  0  0  0  0
  5 10  2  0  0  0  0
  5 20  1  0  0  0  0
  6 11  1  0  0  0  0
  6 20  2  0  0  0  0
  7 22  1  0  0  0  0
  8 24  1  0  0  0  0
  9 14  2  0  0  0  0
  9 23  1  0  0  0  0
 10 26  1  0  0  0  0
 11 26  2  0  0  0  0
 12 27  1  0  0  0  0
 13 27  2  0  0  0  0
 14 28  1  0  0  0  0
 15 16  2  0  0  0  0
 15 29  1  0  0  0  0
 16 30  1  0  0  0  0
 17 25  1  0  0  0  0
 17 28  2  0  0  0  0
 18 30  2  0  0  0  0
 18 31  1  0  0  0  0
 19 32  1  0  0  0  0
 20 34  1  0  0  0  0
 21 32  1  0  0  0  0
 21 33  2  0  0  0  0
 21 35  1  0  0  0  0
 22 24  2  0  0  0  0
 22 40  1  0  0  0  0
 23 25  2  0  0  0  0
 23 41  1  0  0  0  0
 24 52  1  0  0  0  0
 25 42  1  0  0  0  0
 26 71  1  0  0  0  0
 27 87  1  0  0  0  0
 28 88  1  0  0  0  0
 29 31  2  0  0  0  0
 29 87  1  0  0  0  0
 30 89  1  0  0  0  0
 31 90  1  0  0  0  0
 32 69  2  0  0  0  0
 33 70  1  0  0  0  0
 33 74  1  0  0  0  0
 34 76  1  0  0  0  0
 34 79  2  0  0  0  0
 35 75  1  0  0  0  0
 35 82  2  0  0  0  0
 36 53  1  0  0  0  0
 36 77  1  0  0  0  0
 36 83  2  0  0  0  0
 37 65  1  0  0  0  0
 37 72  1  0  0  0  0
 37 84  2  0  0  0  0
 38 66  1  0  0  0  0
 38 78  1  0  0  0  0
 38 85  2  0  0  0  0
 39 73  1  0  0  0  0
 39 76  1  0  0  0  0
 39 86  2  0  0  0  0
 40 43  1  0  0  0  0
 41 53  1  0  0  0  0
 42 72  1  0  0  0  0
 43 45  1  0  0  0  0
 44 46  1  0  0  0  0
 44 47  1  0  0  0  0
 45 52  1  0  0  0  0
 46 54  1  0  0  0  0
 47 73  1  0  0  0  0
 48 51  1  0  0  0  0
 48 71  1  0  0  0  0
 49 54  1  0  0  0  0
 49 73  1  0  0  0  0
 50 55  1  0  0  0  0
 50 71  1  0  0  0  0
 51 80  1  0  0  0  0
 52 77  1  0  0  0  0
 53 72  1  0  0  0  0
 54 70  1  0  0  0  0
 55 67  1  0  0  0  0
 55 80  1  0  0  0  0
 56 66  1  0  0  0  0
 57 67  1  0  0  0  0
 58 67  1  0  0  0  0
 59 68  1  0  0  0  0
 60 68  1  0  0  0  0
 61 68  1  0  0  0  0
 62 81  1  0  0  0  0
 63 64  1  0  0  0  0
 63 80  1  0  0  0  0
 64 88  1  0  0  0  0
 65 68  1  0  0  0  0
 65 78  1  0  0  0  0
 66 81  1  0  0  0  0
 69 70  1  0  0  0  0
M  CHG  3  79   1  80   1  81   1
M  ISO  4  39 100  64 101  76 100  88 101
M  END
> <Batch ID>
0000

> <Smiles>
CNC(C)C(=O)NC(C(=O)N1Cc2cc([101O:1][101CH2:1]CN3CCN(c4ccc(C(=N)[100NH:0][100C:0](=O)N5CCCC(n6nc(-c7ccc(Oc8ccc(F)cc8F)cc7)c(C(N)=O)c6N)C5)cc4)CC3C(C)C)ccc2CC1C(=O)NC1CCCc2ccccc21)C(C)(C)C

> <Shape>
0.271

> <Color>
0.081

> <Negative vol penalty>
0.000

$$$$

  -OEChem-04042320113D

 87 95  0     1  0  0  0  0  0999 V2000
  -24.1462  -32.0838   24.7303 C   0  0  0  0  0  0  0  0  0  0  0  0
  -24.5209  -30.7797   24.4274 C   0  0  0  0  0  0  0  0  0  0  0  0
  -28.3333  -20.0335   20.4902 C   0  0  0  0  0  0  0  0  0  0  0  0
  -27.9742  -19.7482   18.1181 C   0  0  0  0  0  0  0  0  0  0  0  0
  -22.8041  -32.4521   24.6661 C   0  0  0  0  0  0  0  0  0  0  0  0
  -23.5551  -29.8465   24.0487 C   0  0  0  0  0  0  0  0  0  0  0  0
  -24.0536  -23.8925   22.8533 C   0  0  0  0  0  0  0  0  0  0  0  0
  -28.7924  -21.3311   20.2647 C   0  0  0  0  0  0  0  0  0  0  0  0
  -28.4333  -21.0460   17.8926 C   0  0  0  0  0  0  0  0  0  0  0  0
  -23.9462  -22.6903   23.5511 C   0  0  0  0  0  0  0  0  0  0  0  0
  -21.9557  -14.2863   21.7651 C   0  0  0  0  0  0  0  0  0  0  0  0
  -23.5940  -14.5473   23.5216 C   0  0  0  0  0  0  0  0  0  0  0  0
  -21.3930  -15.5159   22.1072 C   0  0  0  0  0  0  0  0  0  0  0  0
  -23.0312  -15.7769   23.8637 C   0  0  0  0  0  0  0  0  0  0  0  0
  -27.4549  -24.3741   19.6449 C   0  0  0  0  0  0  0  0  0  0  0  0
  -26.9820  -25.3838   20.4830 C   0  0  0  0  0  0  0  0  0  0  0  0
  -21.6645  -22.4657   22.8012 C   0  0  0  0  0  0  0  0  0  0  0  0
  -29.2437  -25.8574   21.1885 C   0  0  0  0  0  0  0  0  0  0  0  0
  -27.9242  -19.2420   19.4169 C   0  0  0  0  0  0  0  0  0  0  0  0
  -26.1244  -17.4994   19.8980 C   0  0  0  0  0  0  0  0  0  0  0  0
  -21.8205  -31.5191   24.2984 C   0  0  0  0  0  0  0  0  0  0  0  0
  -22.9619  -24.3967   22.1319 C   0  0  0  0  0  0  0  0  0  0  0  0
  -22.1982  -30.2051   23.9548 C   0  0  0  0  0  0  0  0  0  0  0  0
  -21.7614  -23.6733   22.0930 C   0  0  0  0  0  0  0  0  0  0  0  0
  -28.8424  -21.8374   18.9659 C   0  0  0  0  0  0  0  0  0  0  0  0
  -23.0562  -13.8020   22.4723 C   0  0  0  0  0  0  0  0  0  0  0  0
  -21.9307  -16.2612   23.1565 C   0  0  0  0  0  0  0  0  0  0  0  0
  -22.7507  -21.9782   23.5275 C   0  0  0  0  0  0  0  0  0  0  0  0
  -28.8221  -24.1060   19.5787 C   0  0  0  0  0  0  0  0  0  0  0  0
  -27.8764  -26.1255   21.2548 C   0  0  0  0  0  0  0  0  0  0  0  0
  -29.7165  -24.8476   20.3504 C   0  0  0  0  0  0  0  0  0  0  0  0
  -27.4504  -17.9012   19.6491 C   0  0  0  0  0  0  0  0  0  0  0  0
  -26.2013  -16.1364   20.0493 C   0  0  0  0  0  0  0  0  0  0  0  0
  -24.9299  -18.2876   19.9844 C   0  0  0  0  0  0  0  0  0  0  0  0
  -21.1868  -27.0284   22.2970 C   0  0  0  0  0  0  0  0  0  0  0  0
  -19.8808  -25.8494   19.5719 C   0  0  0  0  0  0  0  0  0  0  0  0
  -24.6897  -11.3338   20.3881 C   0  0  0  0  0  0  0  0  0  0  0  0
  -19.2265  -23.1334   17.6118 C   0  0  0  0  0  0  0  0  0  0  0  0
  -28.1248  -11.1591   18.4148 C   0  0  0  0  0  0  0  0  0  0  0  0
  -20.3835  -31.9736   24.2376 C   0  0  0  0  0  0  0  0  0  0  0  0
  -23.1023  -25.6816   21.3626 C   0  0  0  0  0  0  0  0  0  0  0  0
  -20.5663  -24.1612   21.3169 C   0  0  0  0  0  0  0  0  0  0  0  0
  -19.3920  -30.8148   24.2604 C   0  0  0  0  0  0  0  0  0  0  0  0
  -30.2167  -13.1002   20.5438 C   0  0  0  0  0  0  0  0  0  0  0  0
  -19.7923  -29.7680   23.2315 C   0  0  0  0  0  0  0  0  0  0  0  0
  -29.5779  -14.4899   20.5162 C   0  0  0  0  0  0  0  0  0  0  0  0
  -30.1204  -12.4078   19.1862 C   0  0  0  0  0  0  0  0  0  0  0  0
  -28.1197  -13.7209   18.5976 C   0  0  0  0  0  0  0  0  0  0  0  0
  -21.1615  -29.1651   23.5700 C   0  0  1  0  0  0  0  0  0  0  0  0
  -21.7646  -26.3592   21.0821 C   0  0  1  0  0  0  0  0  0  0  0  0
  -28.1425  -14.4362   19.9593 C   0  0  2  0  0  0  0  0  0  0  0  0
  -18.1092  -22.4785   15.4624 C   0  0  0  0  0  0  0  0  0  0  0  0
  -17.1521  -26.1228   20.9097 C   0  0  0  0  0  0  0  0  0  0  0  0
  -16.2147  -24.6103   19.1485 C   0  0  0  0  0  0  0  0  0  0  0  0
  -17.2079  -26.8061   18.5046 C   0  0  0  0  0  0  0  0  0  0  0  0
  -21.7598  -22.1142   16.4706 C   0  0  0  0  0  0  0  0  0  0  0  0
  -23.5100  -12.2006   20.7737 C   0  0  0  0  0  0  0  0  0  0  0  0
  -25.2985   -9.4843   18.8373 C   0  0  0  0  0  0  0  0  0  0  0  0
  -26.0444  -10.0499   17.6398 C   0  0  0  0  0  0  0  0  0  0  0  0
  -22.2554  -18.4443   24.0422 C   0  0  0  0  0  0  0  0  0  0  0  0
  -21.7486  -19.8267   23.6793 C   0  0  0  0  0  0  0  0  0  1  0  0
  -18.7285  -24.9288   19.2498 C   0  0  1  0  0  0  0  0  0  0  0  0
  -19.4131  -22.8964   16.1241 C   0  0  2  0  0  0  0  0  0  0  0  0
  -17.3475  -25.6085   19.4695 C   0  0  0  0  0  0  0  0  0  0  0  0
  -28.3071  -16.8765   19.6422 N   0  0  0  0  0  0  0  0  0  0  0  0
  -27.5175  -15.8172   19.8886 N   0  0  0  0  0  0  0  0  0  0  0  0
  -20.7511  -25.4258   20.5862 N   0  0  0  0  0  0  0  0  0  0  0  0
  -28.7334  -12.3889   18.7151 N   0  0  0  0  0  0  0  0  0  0  0  0
  -25.2708  -15.1919   20.3030 N   0  0  0  0  0  0  0  0  0  0  0  0
  -25.0296  -19.6739   19.8034 N   0  0  0  0  0  0  0  0  0  0  0  0
  -21.5980  -28.3365   22.4679 N   0  0  0  0  0  0  0  0  0  0  0  0
  -24.3569  -10.4302   19.3910 N   0  0  0  0  0  0  0  0  0  0  0  0
  -18.9520  -24.4562   17.8878 N   0  0  0  0  0  0  0  0  0  0  0  0
  -26.8067  -11.2303   17.9809 N   0  0  0  0  0  0  0  0  0  0  0  0
  -20.4222  -21.8243   15.8929 N   0  3  0  0  0  0  0  0  0  0  0  0
  -23.8098  -17.7798   20.2317 O   0  0  0  0  0  0  0  0  0  0  0  0
  -20.4233  -26.4045   23.0247 O   0  0  0  0  0  0  0  0  0  0  0  0
  -20.0080  -26.9022   18.9416 O   0  0  0  0  0  0  0  0  0  0  0  0
  -25.7942  -11.4435   20.9135 O   0  0  0  0  0  0  0  0  0  0  0  0
  -19.3117  -22.2342   18.4454 O   0  0  0  0  0  0  0  0  0  0  0  0
  -28.7109  -10.0773   18.5303 O   0  0  0  0  0  0  0  0  0  0  0  0
  -29.2901  -23.1037   18.7455 O   0  0  0  0  0  0  0  0  0  0  0  0
  -23.6045  -12.6015   22.1397 O   0  0  0  0  0  0  0  0  0  0  0  0
  -21.3779  -17.4688   23.4927 O   0  0  0  0  0  0  0  0  0  0  0  0
  -22.6430  -20.8048   24.2083 O   0  0  0  0  0  0  0  0  0  1  0  0
  -27.4223  -27.0961   22.0585 F   0  0  0  0  0  0  0  0  0  0  0  0
  -31.0313  -24.5954   20.2901 F   0  0  0  0  0  0  0  0  0  0  0  0
  1  2  1  0  0  0  0
  1  5  2  0  0  0  0
  2  6  2  0  0  0  0
  3  8  2  0  0  0  0
  3 19  1  0  0  0  0
  4  9  1  0  0  0  0
  4 19  2  0  0  0  0
  5 21  1  0  0  0  0
  6 23  1  0  0  0  0
  7 10  2  0  0  0  0
  7 22  1  0  0  0  0
  8 25  1  0  0  0  0
  9 25  2  0  0  0  0
 10 28  1  0  0  0  0
 11 13  2  0  0  0  0
 11 26  1  0  0  0  0
 12 14  1  0  0  0  0
 12 26  2  0  0  0  0
 13 27  1  0  0  0  0
 14 27  2  0  0  0  0
 15 16  2  0  0  0  0
 15 29  1  0  0  0  0
 16 30  1  0  0  0  0
 17 24  1  0  0  0  0
 17 28  2  0  0  0  0
 18 30  2  0  0  0  0
 18 31  1  0  0  0  0
 19 32  1  0  0  0  0
 20 32  1  0  0  0  0
 20 33  2  0  0  0  0
 20 34  1  0  0  0  0
 21 23  2  0  0  0  0
 21 40  1  0  0  0  0
 22 24  2  0  0  0  0
 22 41  1  0  0  0  0
 23 49  1  0  0  0  0
 24 42  1  0  0  0  0
 25 82  1  0  0  0  0
 26 83  1  0  0  0  0
 27 84  1  0  0  0  0
 28 85  1  0  0  0  0
 29 31  2  0  0  0  0
 29 82  1  0  0  0  0
 30 86  1  0  0  0  0
 31 87  1  0  0  0  0
 32 65  2  0  0  0  0
 33 66  1  0  0  0  0
 33 69  1  0  0  0  0
 34 70  1  0  0  0  0
 34 76  2  0  0  0  0
 35 50  1  0  0  0  0
 35 71  1  0  0  0  0
 35 77  2  0  0  0  0
 36 62  1  0  0  0  0
 36 67  1  0  0  0  0
 36 78  2  0  0  0  0
 37 57  1  0  0  0  0
 37 72  1  0  0  0  0
 37 79  2  0  0  0  0
 38 63  1  0  0  0  0
 38 73  1  0  0  0  0
 38 80  2  0  0  0  0
 39 68  1  0  0  0  0
 39 74  1  0  0  0  0
 39 81  2  0  0  0  0
 40 43  1  0  0  0  0
 41 50  1  0  0  0  0
 42 67  1  0  0  0  0
 43 45  1  0  0  0  0
 44 46  1  0  0  0  0
 44 47  1  0  0  0  0
 45 49  1  0  0  0  0
 46 51  1  0  0  0  0
 47 68  1  0  0  0  0
 48 51  1  0  0  0  0
 48 68  1  0  0  0  0
 49 71  1  0  0  0  0
 50 67  1  0  0  0  0
 51 66  1  0  0  0  0
 52 63  1  0  0  0  0
 53 64  1  0  0  0  0
 54 64  1  0  0  0  0
 55 64  1  0  0  0  0
 56 75  1  0  0  0  0
 57 83  1  0  0  0  0
 58 59  1  0  0  0  0
 58 72  1  0  0  0  0
 59 74  1  0  0  0  0
 60 61  1  0  0  0  0
 60 84  1  0  0  0  0
 61 85  1  0  0  0  0
 62 64  1  0  0  0  0
 62 73  1  0  0  0  0
 63 75  1  0  0  0  0
 65 66  1  0  0  0  0
M  CHG  1  75   1
M  ISO  4  39 100  61 101  74 100  85 101
M  END
> <Batch ID>
0000

> <Smiles>
CNC(C)C(=O)NC(C(=O)N1Cc2cc([101O:1][101CH2:1]COc3ccc(OCC(=O)NCC[100NH:0][100C:0](=O)N4CCCC(n5nc(-c6ccc(Oc7ccc(F)cc7F)cc6)c(C(N)=O)c5N)C4)cc3)ccc2CC1C(=O)NC1CCCc2ccccc21)C(C)(C)C

> <Shape>
0.207

> <Color>
0.087

> <Negative vol penalty>
0.000

$$$$

  -OEChem-04042320113D

 77 84  0     1  0  0  0  0  0999 V2000
  -22.7078  -10.4370   19.7172 C   0  0  0  0  0  0  0  0  0  0  0  0
  -22.0316  -11.5882   20.1081 C   0  0  0  0  0  0  0  0  0  0  0  0
  -28.3689  -28.5981   21.0386 C   0  0  0  0  0  0  0  0  0  0  0  0
  -27.0149  -27.3622   19.4649 C   0  0  0  0  0  0  0  0  0  0  0  0
  -24.0981  -10.3822   19.8066 C   0  0  0  0  0  0  0  0  0  0  0  0
  -22.7454  -12.6851   20.5896 C   0  0  0  0  0  0  0  0  0  0  0  0
  -21.3853  -18.6023   19.7878 C   0  0  0  0  0  0  0  0  0  0  0  0
  -29.4463  -27.7522   20.7759 C   0  0  0  0  0  0  0  0  0  0  0  0
  -28.0924  -26.5163   19.2022 C   0  0  0  0  0  0  0  0  0  0  0  0
  -20.7442  -19.5359   20.6009 C   0  0  0  0  0  0  0  0  0  0  0  0
  -30.4504  -24.6492   21.6634 C   0  0  0  0  0  0  0  0  0  0  0  0
  -31.1785  -24.1710   22.7528 C   0  0  0  0  0  0  0  0  0  0  0  0
  -22.8881  -20.3216   21.3789 C   0  0  0  0  0  0  0  0  0  0  0  0
  -33.1734  -25.2165   21.8785 C   0  0  0  0  0  0  0  0  0  0  0  0
  -27.1531  -28.4031   20.3831 C   0  0  0  0  0  0  0  0  0  0  0  0
  -25.7174  -30.4748   19.9900 C   0  0  0  0  0  0  0  0  0  0  0  0
  -24.8299  -11.4824   20.2804 C   0  0  0  0  0  0  0  0  0  0  0  0
  -22.7847  -18.5138   19.7724 C   0  0  0  0  0  0  0  0  0  0  0  0
  -24.1467  -12.6445   20.6867 C   0  0  0  0  0  0  0  0  0  0  0  0
  -23.5447  -19.3877   20.5629 C   0  0  0  0  0  0  0  0  0  0  0  0
  -29.3081  -26.7113   19.8577 C   0  0  0  0  0  0  0  0  0  0  0  0
  -21.4955  -20.3938   21.3988 C   0  0  0  0  0  0  0  0  0  0  0  0
  -31.0838  -25.4111   20.6815 C   0  0  0  0  0  0  0  0  0  0  0  0
  -32.5400  -24.4546   22.8604 C   0  0  0  0  0  0  0  0  0  0  0  0
  -32.4453  -25.6947   20.7891 C   0  0  0  0  0  0  0  0  0  0  0  0
  -26.0395  -29.2763   20.6545 C   0  0  0  0  0  0  0  0  0  0  0  0
  -24.5798  -30.9204   20.6176 C   0  0  0  0  0  0  0  0  0  0  0  0
  -26.3867  -31.1271   18.9026 C   0  0  0  0  0  0  0  0  0  0  0  0
  -24.8980  -16.2582   20.5137 C   0  0  0  0  0  0  0  0  0  0  0  0
  -27.0189  -18.3960   19.3080 C   0  0  0  0  0  0  0  0  0  0  0  0
  -27.7586  -21.6469   18.5787 C   0  0  0  0  0  0  0  0  0  0  0  0
  -20.6435  -22.5489   21.5764 C   0  0  0  0  0  0  0  0  0  1  0  0
  -20.2575  -28.1341   23.6844 C   0  0  0  0  0  0  0  0  0  0  0  0
  -26.3280  -11.3591   20.4034 C   0  0  0  0  0  0  0  0  0  0  0  0
  -23.4619  -17.5193   18.8697 C   0  0  0  0  0  0  0  0  0  0  0  0
  -25.0502  -19.3469   20.5672 C   0  0  0  0  0  0  0  0  0  0  0  0
  -27.0378  -12.7001   20.5719 C   0  0  0  0  0  0  0  0  0  0  0  0
  -22.3353  -30.7840   24.8407 C   0  0  0  0  0  0  0  0  0  0  0  0
  -26.3269  -13.5525   21.6182 C   0  0  0  0  0  0  0  0  0  0  0  0
  -23.4912  -30.8063   23.8389 C   0  0  0  0  0  0  0  0  0  0  0  0
  -21.8595  -29.3605   25.1218 C   0  0  0  0  0  0  0  0  0  0  0  0
  -22.6654  -28.5985   22.9209 C   0  0  0  0  0  0  0  0  0  0  0  0
  -24.8875  -13.8640   21.1909 C   0  0  1  0  0  0  0  0  0  0  0  0
  -24.8771  -17.1705   19.3200 C   0  0  1  0  0  0  0  0  0  0  0  0
  -23.1427  -30.0164   22.5630 C   0  0  2  0  0  0  0  0  0  0  0  0
  -29.5830  -23.0878   17.6339 C   0  0  0  0  0  0  0  0  0  0  0  0
  -28.5693  -18.1442   21.9239 C   0  0  0  0  0  0  0  0  0  0  0  0
  -29.7897  -20.2457   21.3219 C   0  0  0  0  0  0  0  0  0  0  0  0
  -29.9944  -18.2273   19.8704 C   0  0  0  0  0  0  0  0  0  0  0  0
  -26.0373  -22.5695   16.3551 C   0  0  0  0  0  0  0  0  0  0  0  0
  -19.9522  -23.4722   22.5463 C   0  0  0  0  0  0  0  0  0  0  0  0
  -18.7662  -26.9056   22.1268 C   0  0  0  0  0  0  0  0  0  0  0  0
  -18.6861  -25.4521   22.5581 C   0  0  0  0  0  0  0  0  0  0  0  0
  -27.8303  -19.5345   19.8777 C   0  0  1  0  0  0  0  0  0  0  0  0
  -28.3218  -22.2954   17.3271 C   0  0  2  0  0  0  0  0  0  0  0  0
  -29.0175  -19.0376   20.7501 C   0  0  0  0  0  0  0  0  0  0  0  0
  -25.1764  -28.9793   21.6296 N   0  0  0  0  0  0  0  0  0  0  0  0
  -24.3008  -29.9977   21.5825 N   0  0  0  0  0  0  0  0  0  0  0  0
  -25.6657  -18.3529   19.6724 N   0  0  0  0  0  0  0  0  0  0  0  0
  -21.5438  -28.6667   23.8708 N   0  0  0  0  0  0  0  0  0  0  0  0
  -23.8011  -32.0075   20.4327 N   0  0  0  0  0  0  0  0  0  0  0  0
  -27.5419  -30.5330   18.3763 N   0  0  0  0  0  0  0  0  0  0  0  0
  -24.8719  -14.9139   20.1949 N   0  0  0  0  0  0  0  0  0  0  0  0
  -28.2275  -20.3606   18.7427 N   0  0  0  0  0  0  0  0  0  0  0  0
  -20.0402  -27.4981   22.4682 N   0  0  0  0  0  0  0  0  0  0  0  0
  -27.3194  -23.2210   16.7275 N   0  3  0  0  0  0  0  0  0  0  0  0
  -25.9818  -32.2132   18.4230 O   0  0  0  0  0  0  0  0  0  0  0  0
  -24.9366  -16.7383   21.6405 O   0  0  0  0  0  0  0  0  0  0  0  0
  -27.5639  -17.5793   18.5613 O   0  0  0  0  0  0  0  0  0  0  0  0
  -26.9834  -22.2249   19.3373 O   0  0  0  0  0  0  0  0  0  0  0  0
  -20.9566  -22.8388   20.4294 O   0  0  0  0  0  0  0  0  0  0  0  0
  -19.3670  -28.2236   24.5363 O   0  0  0  0  0  0  0  0  0  0  0  0
  -30.3594  -25.8858   19.6010 O   0  0  0  0  0  0  0  0  0  0  0  0
  -20.8722  -21.3056   22.1938 O   0  0  0  0  0  0  0  0  0  1  0  0
  -19.7080  -24.7075   21.9033 O   0  0  0  0  0  0  0  0  0  0  0  0
  -33.2387  -23.9966   23.9073 F   0  0  0  0  0  0  0  0  0  0  0  0
  -33.0590  -26.4271   19.8495 F   0  0  0  0  0  0  0  0  0  0  0  0
  1  2  1  0  0  0  0
  1  5  2  0  0  0  0
  2  6  2  0  0  0  0
  3  8  2  0  0  0  0
  3 15  1  0  0  0  0
  4  9  1  0  0  0  0
  4 15  2  0  0  0  0
  5 17  1  0  0  0  0
  6 19  1  0  0  0  0
  7 10  2  0  0  0  0
  7 18  1  0  0  0  0
  8 21  1  0  0  0  0
  9 21  2  0  0  0  0
 10 22  1  0  0  0  0
 11 12  2  0  0  0  0
 11 23  1  0  0  0  0
 12 24  1  0  0  0  0
 13 20  1  0  0  0  0
 13 22  2  0  0  0  0
 14 24  2  0  0  0  0
 14 25  1  0  0  0  0
 15 26  1  0  0  0  0
 16 26  1  0  0  0  0
 16 27  2  0  0  0  0
 16 28  1  0  0  0  0
 17 19  2  0  0  0  0
 17 34  1  0  0  0  0
 18 20  2  0  0  0  0
 18 35  1  0  0  0  0
 19 43  1  0  0  0  0
 20 36  1  0  0  0  0
 21 73  1  0  0  0  0
 22 74  1  0  0  0  0
 23 25  2  0  0  0  0
 23 73  1  0  0  0  0
 24 76  1  0  0  0  0
 25 77  1  0  0  0  0
 26 57  2  0  0  0  0
 27 58  1  0  0  0  0
 27 61  1  0  0  0  0
 28 62  1  0  0  0  0
 28 67  2  0  0  0  0
 29 44  1  0  0  0  0
 29 63  1  0  0  0  0
 29 68  2  0  0  0  0
 30 54  1  0  0  0  0
 30 59  1  0  0  0  0
 30 69  2  0  0  0  0
 31 55  1  0  0  0  0
 31 64  1  0  0  0  0
 31 70  2  0  0  0  0
 32 51  1  0  0  0  0
 32 71  2  0  0  0  0
 32 74  1  0  0  0  0
 33 60  1  0  0  0  0
 33 65  1  0  0  0  0
 33 72  2  0  0  0  0
 34 37  1  0  0  0  0
 35 44  1  0  0  0  0
 36 59  1  0  0  0  0
 37 39  1  0  0  0  0
 38 40  1  0  0  0  0
 38 41  1  0  0  0  0
 39 43  1  0  0  0  0
 40 45  1  0  0  0  0
 41 60  1  0  0  0  0
 42 45  1  0  0  0  0
 42 60  1  0  0  0  0
 43 63  1  0  0  0  0
 44 59  1  0  0  0  0
 45 58  1  0  0  0  0
 46 55  1  0  0  0  0
 47 56  1  0  0  0  0
 48 56  1  0  0  0  0
 49 56  1  0  0  0  0
 50 66  1  0  0  0  0
 51 75  1  0  0  0  0
 52 53  1  0  0  0  0
 52 65  1  0  0  0  0
 53 75  1  0  0  0  0
 54 56  1  0  0  0  0
 54 64  1  0  0  0  0
 55 66  1  0  0  0  0
 57 58  1  0  0  0  0
M  CHG  1  66   1
M  ISO  4  32 101  33 100  65 100  74 101
M  END
> <Batch ID>
0000

> <Smiles>
CNC(C)C(=O)NC(C(=O)N1Cc2cc([101O:1][101C:1](=O)COCC[100NH:0][100C:0](=O)N3CCCC(n4nc(-c5ccc(Oc6ccc(F)cc6F)cc5)c(C(N)=O)c4N)C3)ccc2CC1C(=O)NC1CCCc2ccccc21)C(C)(C)C

> <Shape>
0.236

> <Color>
0.059

> <Negative vol penalty>
0.000

$$$$

  -OEChem-04042320113D

 88 96  0     1  0  0  0  0  0999 V2000
  -30.6597  -18.1006   23.9059 C   0  0  0  0  0  0  0  0  0  0  0  0
  -29.2901  -18.3371   23.9667 C   0  0  0  0  0  0  0  0  0  0  0  0
  -29.4616  -27.4802   20.1404 C   0  0  0  0  0  0  0  0  0  0  0  0
  -27.5939  -26.4480   19.0075 C   0  0  0  0  0  0  0  0  0  0  0  0
  -18.4160  -27.6007   23.6969 C   0  0  0  0  0  0  0  0  0  0  0  0
  -31.1830  -17.2977   22.8933 C   0  0  0  0  0  0  0  0  0  0  0  0
  -28.4431  -17.7716   23.0142 C   0  0  0  0  0  0  0  0  0  0  0  0
  -22.7211  -15.7755   23.8977 C   0  0  0  0  0  0  0  0  0  0  0  0
  -19.5762  -28.3744   23.6671 C   0  0  0  0  0  0  0  0  0  0  0  0
  -30.2094  -26.3154   19.9689 C   0  0  0  0  0  0  0  0  0  0  0  0
  -28.3418  -25.2831   18.8360 C   0  0  0  0  0  0  0  0  0  0  0  0
  -21.4771  -16.3558   23.6537 C   0  0  0  0  0  0  0  0  0  0  0  0
  -29.2633  -22.6170   20.6997 C   0  0  0  0  0  0  0  0  0  0  0  0
  -28.6400  -21.4001   20.9760 C   0  0  0  0  0  0  0  0  0  0  0  0
  -18.7420  -27.0224   21.3739 C   0  0  0  0  0  0  0  0  0  0  0  0
  -21.3598  -15.2005   21.5393 C   0  0  0  0  0  0  0  0  0  0  0  0
  -29.0103  -20.6928   18.6957 C   0  0  0  0  0  0  0  0  0  0  0  0
  -28.1538  -27.5465   19.6598 C   0  0  0  0  0  0  0  0  0  0  0  0
  -17.9989  -26.9245   22.5503 C   0  0  0  0  0  0  0  0  0  0  0  0
  -27.3047  -29.8482   18.9606 C   0  0  0  0  0  0  0  0  0  0  0  0
  -30.3409  -16.7143   21.9336 C   0  0  0  0  0  0  0  0  0  0  0  0
  -23.2997  -14.9105   22.9578 C   0  0  0  0  0  0  0  0  0  0  0  0
  -28.9558  -16.9613   21.9870 C   0  0  0  0  0  0  0  0  0  0  0  0
  -22.6101  -14.6086   21.7749 C   0  0  0  0  0  0  0  0  0  0  0  0
  -19.9021  -27.7962   21.3440 C   0  0  0  0  0  0  0  0  0  0  0  0
  -20.3192  -28.4723   22.4907 C   0  0  0  0  0  0  0  0  0  0  0  0
  -29.6496  -25.2168   19.3167 C   0  0  0  0  0  0  0  0  0  0  0  0
  -20.7976  -16.0706   22.4731 C   0  0  0  0  0  0  0  0  0  0  0  0
  -29.7600  -22.8718   19.4214 C   0  0  0  0  0  0  0  0  0  0  0  0
  -28.5135  -20.4380   19.9740 C   0  0  0  0  0  0  0  0  0  0  0  0
  -29.6335  -21.9097   18.4194 C   0  0  0  0  0  0  0  0  0  0  0  0
  -27.3805  -28.7493   19.8372 C   0  0  0  0  0  0  0  0  0  0  0  0
  -26.4450  -30.7224   19.5795 C   0  0  0  0  0  0  0  0  0  0  0  0
  -16.7626  -26.1014   22.5822 C   0  0  0  0  0  0  0  0  0  0  0  0
  -27.9533  -30.0597   17.6995 C   0  0  0  0  0  0  0  0  0  0  0  0
  -25.9564  -14.9470   21.2130 C   0  0  0  0  0  0  0  0  0  0  0  0
  -24.9981  -11.9569   20.3987 C   0  0  0  0  0  0  0  0  0  0  0  0
  -22.4386   -9.7233   20.0714 C   0  0  0  0  0  0  0  0  0  0  0  0
  -22.0321  -29.9914   23.5415 C   0  0  0  0  0  0  0  0  0  0  0  0
  -30.9582  -15.8922   20.8300 C   0  0  0  0  0  0  0  0  0  0  0  0
  -24.6302  -14.2718   23.2481 C   0  0  0  0  0  0  0  0  0  0  0  0
  -23.1787  -13.6705   20.7428 C   0  0  0  0  0  0  0  0  0  0  0  0
  -29.9503  -15.0254   20.0796 C   0  0  0  0  0  0  0  0  0  0  0  0
  -24.9242  -32.0319   23.9277 C   0  0  0  0  0  0  0  0  0  0  0  0
  -28.7085  -15.8368   19.7242 C   0  0  0  0  0  0  0  0  0  0  0  0
  -25.8731  -31.5258   22.8388 C   0  0  0  0  0  0  0  0  0  0  0  0
  -24.1163  -30.8943   24.5496 C   0  0  0  0  0  0  0  0  0  0  0  0
  -24.3416  -29.5440   22.5014 C   0  0  0  0  0  0  0  0  0  0  0  0
  -28.0019  -16.3454   20.9866 C   0  0  1  0  0  0  0  0  0  0  0  0
  -25.3578  -13.8085   21.9897 C   0  0  1  0  0  0  0  0  0  0  0  0
  -25.1300  -30.6624   21.8006 C   0  0  2  0  0  0  0  0  0  0  0  0
  -20.6785  -27.8835   20.0703 C   0  0  0  0  0  0  0  0  0  0  0  0
  -21.9591   -7.3691   19.3466 C   0  0  0  0  0  0  0  0  0  0  0  0
  -25.2460  -12.8078   17.4790 C   0  0  0  0  0  0  0  0  0  0  0  0
  -23.8802  -10.8053   16.8520 C   0  0  0  0  0  0  0  0  0  0  0  0
  -26.0900  -10.5054   17.9698 C   0  0  0  0  0  0  0  0  0  0  0  0
  -21.4382   -8.9776   22.7551 C   0  0  0  0  0  0  0  0  0  0  0  0
  -15.9502  -22.7665   21.1339 C   0  0  0  0  0  0  0  0  0  0  0  0
  -18.4007  -18.7135   21.9048 C   0  0  0  0  0  0  0  0  0  0  0  0
  -15.5691  -24.1736   21.5746 C   0  0  0  0  0  0  0  0  0  0  0  0
  -16.8985  -22.0787   22.1086 C   0  0  0  0  0  0  0  0  0  0  0  0
  -19.3422  -17.9230   22.7997 C   0  0  0  0  0  0  0  0  0  1  0  0
  -18.0943  -20.0892   22.4757 C   0  0  0  0  0  0  0  0  0  0  0  0
  -24.1298  -11.3715   19.3113 C   0  0  1  0  0  0  0  0  0  0  0  0
  -22.2991   -8.2788   20.5169 C   0  0  2  0  0  0  0  0  0  0  0  0
  -24.8264  -11.3917   17.9214 C   0  0  0  0  0  0  0  0  0  0  0  0
  -26.6290  -28.9085   20.9299 N   0  0  0  0  0  0  0  0  0  0  0  0
  -26.0729  -30.1178   20.7440 N   0  0  0  0  0  0  0  0  0  0  0  0
  -24.4853  -13.0761   21.0697 N   0  0  0  0  0  0  0  0  0  0  0  0
  -23.4365  -30.1226   23.5068 N   0  0  0  0  0  0  0  0  0  0  0  0
  -25.9786  -31.9418   19.2358 N   0  0  0  0  0  0  0  0  0  0  0  0
  -28.8042  -29.0595   17.2097 N   0  0  0  0  0  0  0  0  0  0  0  0
  -21.4947  -29.2634   22.4805 N   0  0  0  0  0  0  0  0  0  0  0  0
  -16.7077  -25.0446   21.6809 N   0  0  0  0  0  0  0  0  0  0  0  0
  -27.2395  -15.2807   21.6027 N   0  0  0  0  0  0  0  0  0  0  0  0
  -23.7458  -10.0401   19.7679 N   0  0  0  0  0  0  0  0  0  0  0  0
  -21.2210   -8.1536   21.5382 N   0  3  0  0  0  0  0  0  0  0  0  0
  -15.8648  -26.3973   23.3663 O   0  0  0  0  0  0  0  0  0  0  0  0
  -27.7962  -31.1118   17.0348 O   0  0  0  0  0  0  0  0  0  0  0  0
  -25.3032  -15.4819   20.3249 O   0  0  0  0  0  0  0  0  0  0  0  0
  -26.0879  -11.4358   20.6485 O   0  0  0  0  0  0  0  0  0  0  0  0
  -21.4830  -10.4924   19.9963 O   0  0  0  0  0  0  0  0  0  0  0  0
  -21.3536  -30.5113   24.4310 O   0  0  0  0  0  0  0  0  0  0  0  0
  -30.3792  -24.0801   19.1489 O   0  0  0  0  0  0  0  0  0  0  0  0
  -19.5835  -16.6361   22.2321 O   0  0  0  0  0  0  0  0  0  1  0  0
  -17.2096  -20.7853   21.6083 O   0  0  0  0  0  0  0  0  0  0  0  0
  -27.9164  -19.2688   20.2399 F   0  0  0  0  0  0  0  0  0  0  0  0
  -30.1098  -22.1483   17.1898 F   0  0  0  0  0  0  0  0  0  0  0  0
  1  2  1  0  0  0  0
  1  6  2  0  0  0  0
  2  7  2  0  0  0  0
  3 10  2  0  0  0  0
  3 18  1  0  0  0  0
  4 11  1  0  0  0  0
  4 18  2  0  0  0  0
  5  9  2  0  0  0  0
  5 19  1  0  0  0  0
  6 21  1  0  0  0  0
  7 23  1  0  0  0  0
  8 12  2  0  0  0  0
  8 22  1  0  0  0  0
  9 26  1  0  0  0  0
 10 27  1  0  0  0  0
 11 27  2  0  0  0  0
 12 28  1  0  0  0  0
 13 14  2  0  0  0  0
 13 29  1  0  0  0  0
 14 30  1  0  0  0  0
 15 19  2  0  0  0  0
 15 25  1  0  0  0  0
 16 24  1  0  0  0  0
 16 28  2  0  0  0  0
 17 30  2  0  0  0  0
 17 31  1  0  0  0  0
 18 32  1  0  0  0  0
 19 34  1  0  0  0  0
 20 32  1  0  0  0  0
 20 33  2  0  0  0  0
 20 35  1  0  0  0  0
 21 23  2  0  0  0  0
 21 40  1  0  0  0  0
 22 24  2  0  0  0  0
 22 41  1  0  0  0  0
 23 49  1  0  0  0  0
 24 42  1  0  0  0  0
 25 26  2  0  0  0  0
 25 52  1  0  0  0  0
 26 73  1  0  0  0  0
 27 84  1  0  0  0  0
 28 85  1  0  0  0  0
 29 31  2  0  0  0  0
 29 84  1  0  0  0  0
 30 87  1  0  0  0  0
 31 88  1  0  0  0  0
 32 67  2  0  0  0  0
 33 68  1  0  0  0  0
 33 71  1  0  0  0  0
 34 74  1  0  0  0  0
 34 78  2  0  0  0  0
 35 72  1  0  0  0  0
 35 79  2  0  0  0  0
 36 50  1  0  0  0  0
 36 75  1  0  0  0  0
 36 80  2  0  0  0  0
 37 64  1  0  0  0  0
 37 69  1  0  0  0  0
 37 81  2  0  0  0  0
 38 65  1  0  0  0  0
 38 76  1  0  0  0  0
 38 82  2  0  0  0  0
 39 70  1  0  0  0  0
 39 73  1  0  0  0  0
 39 83  2  0  0  0  0
 40 43  1  0  0  0  0
 41 50  1  0  0  0  0
 42 69  1  0  0  0  0
 43 45  1  0  0  0  0
 44 46  1  0  0  0  0
 44 47  1  0  0  0  0
 45 49  1  0  0  0  0
 46 51  1  0  0  0  0
 47 70  1  0  0  0  0
 48 51  1  0  0  0  0
 48 70  1  0  0  0  0
 49 75  1  0  0  0  0
 50 69  1  0  0  0  0
 51 68  1  0  0  0  0
 53 65  1  0  0  0  0
 54 66  1  0  0  0  0
 55 66  1  0  0  0  0
 56 66  1  0  0  0  0
 57 77  1  0  0  0  0
 58 60  1  0  0  0  0
 58 61  1  0  0  0  0
 59 62  1  0  0  0  0
 59 63  1  0  0  0  0
 60 74  1  0  0  0  0
 61 86  1  0  0  0  0
 62 85  1  0  0  0  0
 63 86  1  0  0  0  0
 64 66  1  0  0  0  0
 64 76  1  0  0  0  0
 65 77  1  0  0  0  0
 67 68  1  0  0  0  0
M  CHG  1  77   1
M  ISO  4  39 100  62 101  73 100  85 101
M  END
> <Batch ID>
0000

> <Smiles>
CNC(C)C(=O)NC(C(=O)N1Cc2cc([101O:1][101CH2:1]CCOCCCNC(=O)c3ccc([100NH:0][100C:0](=O)N4CCCC(n5nc(-c6ccc(Oc7ccc(F)cc7F)cc6)c(C(N)=O)c5N)C4)c(C)c3)ccc2CC1C(=O)NC1CCCc2ccccc21)C(C)(C)C

> <Shape>
0.296

> <Color>
0.077

> <Negative vol penalty>
0.000

$$$$

  -OEChem-04042320113D

 87 95  0     1  0  0  0  0  0999 V2000
  -16.8958  -30.3817   24.5715 C   0  0  0  0  0  0  0  0  0  0  0  0
  -17.5795  -29.1864   24.7695 C   0  0  0  0  0  0  0  0  0  0  0  0
  -21.7267  -18.2288   21.6873 C   0  0  0  0  0  0  0  0  0  0  0  0
  -30.1992  -19.1358   20.0806 C   0  0  0  0  0  0  0  0  0  0  0  0
  -27.7895  -19.0675   19.9209 C   0  0  0  0  0  0  0  0  0  0  0  0
  -17.1505  -31.1492   23.4357 C   0  0  0  0  0  0  0  0  0  0  0  0
  -18.5177  -28.7574   23.8313 C   0  0  0  0  0  0  0  0  0  0  0  0
  -23.7087  -25.7051   24.9458 C   0  0  0  0  0  0  0  0  0  0  0  0
  -22.4106  -19.3587   22.1358 C   0  0  0  0  0  0  0  0  0  0  0  0
  -22.3391  -16.9766   21.7391 C   0  0  0  0  0  0  0  0  0  0  0  0
  -30.2030  -20.3967   19.4842 C   0  0  0  0  0  0  0  0  0  0  0  0
  -27.7933  -20.3285   19.3245 C   0  0  0  0  0  0  0  0  0  0  0  0
  -24.0358  -24.3519   24.8705 C   0  0  0  0  0  0  0  0  0  0  0  0
  -30.8211  -23.7888   18.3324 C   0  0  0  0  0  0  0  0  0  0  0  0
  -31.6323  -24.7718   18.8991 C   0  0  0  0  0  0  0  0  0  0  0  0
  -24.9279  -24.6969   22.6559 C   0  0  0  0  0  0  0  0  0  0  0  0
  -24.3194  -17.9844   22.6877 C   0  0  0  0  0  0  0  0  0  0  0  0
  -30.4162  -24.5770   20.9777 C   0  0  0  0  0  0  0  0  0  0  0  0
  -28.9924  -18.4712   20.2989 C   0  0  0  0  0  0  0  0  0  0  0  0
  -28.9048  -16.8782   22.2895 C   0  0  0  0  0  0  0  0  0  0  0  0
  -18.0992  -30.7342   22.4879 C   0  0  0  0  0  0  0  0  0  0  0  0
  -23.9793  -26.5637   23.8706 C   0  0  0  0  0  0  0  0  0  0  0  0
  -18.7843  -29.5195   22.6811 C   0  0  0  0  0  0  0  0  0  0  0  0
  -24.6056  -26.0611   22.7211 C   0  0  0  0  0  0  0  0  0  0  0  0
  -23.7070  -19.2365   22.6360 C   0  0  0  0  0  0  0  0  0  0  0  0
  -29.0001  -20.9930   19.1062 C   0  0  0  0  0  0  0  0  0  0  0  0
  -24.6428  -23.8471   23.7243 C   0  0  0  0  0  0  0  0  0  0  0  0
  -23.6355  -16.8544   22.2393 C   0  0  0  0  0  0  0  0  0  0  0  0
  -29.8074  -23.1999   19.0882 C   0  0  0  0  0  0  0  0  0  0  0  0
  -31.4299  -25.1659   20.2217 C   0  0  0  0  0  0  0  0  0  0  0  0
  -29.6050  -23.5939   20.4109 C   0  0  0  0  0  0  0  0  0  0  0  0
  -28.9879  -17.1684   20.9144 C   0  0  0  0  0  0  0  0  0  0  0  0
  -28.9386  -15.5066   22.3535 C   0  0  0  0  0  0  0  0  0  0  0  0
  -28.8059  -17.7687   23.4087 C   0  0  0  0  0  0  0  0  0  0  0  0
  -22.2102  -28.3560   21.9311 C   0  0  0  0  0  0  0  0  0  0  0  0
  -25.1019  -29.3686   20.8656 C   0  0  0  0  0  0  0  0  0  0  0  0
  -24.2769  -13.2400   21.9337 C   0  0  0  0  0  0  0  0  0  0  0  0
  -28.4361  -28.7408   20.4975 C   0  0  0  0  0  0  0  0  0  0  0  0
  -27.0060  -10.9385   19.3224 C   0  0  0  0  0  0  0  0  0  0  0  0
  -23.9558  -21.6903   23.1154 C   0  0  0  0  0  0  0  0  0  1  0  0
  -18.3062  -31.5739   21.2523 C   0  0  0  0  0  0  0  0  0  0  0  0
  -23.6446  -28.0261   23.9780 C   0  0  0  0  0  0  0  0  0  0  0  0
  -24.9357  -26.9451   21.5471 C   0  0  0  0  0  0  0  0  0  0  0  0
  -19.5866  -31.2355   20.4933 C   0  0  0  0  0  0  0  0  0  0  0  0
  -30.4801  -11.9023   19.3562 C   0  0  0  0  0  0  0  0  0  0  0  0
  -19.7292  -29.7252   20.3336 C   0  0  0  0  0  0  0  0  0  0  0  0
  -30.4352  -13.3461   19.8552 C   0  0  0  0  0  0  0  0  0  0  0  0
  -29.2616  -11.5680   18.5018 C   0  0  0  0  0  0  0  0  0  0  0  0
  -27.9070  -13.2743   19.6894 C   0  0  0  0  0  0  0  0  0  0  0  0
  -19.8273  -29.0329   21.6984 C   0  0  1  0  0  0  0  0  0  0  0  0
  -23.4983  -28.7069   22.6206 C   0  0  1  0  0  0  0  0  0  0  0  0
  -29.1085  -13.6393   20.5781 C   0  0  2  0  0  0  0  0  0  0  0  0
  -30.5361  -29.7388   19.5535 C   0  0  0  0  0  0  0  0  0  0  0  0
  -24.1800  -28.6389   18.0499 C   0  0  0  0  0  0  0  0  0  0  0  0
  -26.5706  -28.7477   17.3142 C   0  0  0  0  0  0  0  0  0  0  0  0
  -25.4485  -30.7884   18.2081 C   0  0  0  0  0  0  0  0  0  0  0  0
  -29.7430  -28.7929   23.1524 C   0  0  0  0  0  0  0  0  0  0  0  0
  -23.4770  -14.5198   21.8149 C   0  0  0  0  0  0  0  0  0  0  0  0
  -24.0964  -10.8024   21.4630 C   0  0  0  0  0  0  0  0  0  0  0  0
  -24.8302  -10.4877   20.1717 C   0  0  0  0  0  0  0  0  0  0  0  0
  -26.0640  -28.9175   19.7932 C   0  0  1  0  0  0  0  0  0  0  0  0
  -29.6594  -29.5918   20.7873 C   0  0  2  0  0  0  0  0  0  0  0  0
  -25.5579  -29.2558   18.3625 C   0  0  0  0  0  0  0  0  0  0  0  0
  -29.0686  -16.0696   20.1594 N   0  0  0  0  0  0  0  0  0  0  0  0
  -29.0364  -15.0755   21.0632 N   0  0  0  0  0  0  0  0  0  0  0  0
  -24.5831  -28.3665   21.6978 N   0  0  0  0  0  0  0  0  0  0  0  0
  -28.0196  -11.8942   19.2014 N   0  0  0  0  0  0  0  0  0  0  0  0
  -28.8940  -14.6393   23.3871 N   0  0  0  0  0  0  0  0  0  0  0  0
  -28.7837  -19.1487   23.1647 N   0  0  0  0  0  0  0  0  0  0  0  0
  -24.3995  -20.3817   23.0905 N   0  0  0  0  0  0  0  0  0  0  0  0
  -21.1558  -29.1901   22.2505 N   0  0  0  0  0  0  0  0  0  0  0  0
  -23.5656  -12.1463   21.4654 N   0  0  0  0  0  0  0  0  0  0  0  0
  -27.3543  -29.5110   20.1266 N   0  0  0  0  0  0  0  0  0  0  0  0
  -30.4742  -28.9751   21.8721 N   0  3  0  0  0  0  0  0  0  0  0  0
  -28.7556  -17.3536   24.5914 O   0  0  0  0  0  0  0  0  0  0  0  0
  -22.1759  -27.4003   21.1649 O   0  0  0  0  0  0  0  0  0  0  0  0
  -24.8265  -30.5668   20.9658 O   0  0  0  0  0  0  0  0  0  0  0  0
  -25.4153  -13.2087   22.3931 O   0  0  0  0  0  0  0  0  0  0  0  0
  -28.4410  -27.5150   20.5874 O   0  0  0  0  0  0  0  0  0  0  0  0
  -27.0729   -9.7967   18.8706 O   0  0  0  0  0  0  0  0  0  0  0  0
  -22.8687  -22.1198   22.7465 O   0  0  0  0  0  0  0  0  0  0  0  0
  -29.0034  -22.2235   18.5244 O   0  0  0  0  0  0  0  0  0  0  0  0
  -24.9626  -22.5265   23.6480 O   0  0  0  0  0  0  0  0  0  1  0  0
  -24.2332  -15.6325   22.2897 O   0  0  0  0  0  0  0  0  0  0  0  0
  -25.9149  -11.4081   20.0045 O   0  0  0  0  0  0  0  0  0  0  0  0
  -32.2099  -26.1088   20.7663 F   0  0  0  0  0  0  0  0  0  0  0  0
  -28.6335  -23.0310   21.1424 F   0  0  0  0  0  0  0  0  0  0  0  0
  1  2  1  0  0  0  0
  1  6  2  0  0  0  0
  2  7  2  0  0  0  0
  3  9  2  0  0  0  0
  3 10  1  0  0  0  0
  4 11  2  0  0  0  0
  4 19  1  0  0  0  0
  5 12  1  0  0  0  0
  5 19  2  0  0  0  0
  6 21  1  0  0  0  0
  7 23  1  0  0  0  0
  8 13  2  0  0  0  0
  8 22  1  0  0  0  0
  9 25  1  0  0  0  0
 10 28  2  0  0  0  0
 11 26  1  0  0  0  0
 12 26  2  0  0  0  0
 13 27  1  0  0  0  0
 14 15  2  0  0  0  0
 14 29  1  0  0  0  0
 15 30  1  0  0  0  0
 16 24  1  0  0  0  0
 16 27  2  0  0  0  0
 17 25  2  0  0  0  0
 17 28  1  0  0  0  0
 18 30  2  0  0  0  0
 18 31  1  0  0  0  0
 19 32  1  0  0  0  0
 20 32  1  0  0  0  0
 20 33  2  0  0  0  0
 20 34  1  0  0  0  0
 21 23  2  0  0  0  0
 21 41  1  0  0  0  0
 22 24  2  0  0  0  0
 22 42  1  0  0  0  0
 23 50  1  0  0  0  0
 24 43  1  0  0  0  0
 25 70  1  0  0  0  0
 26 82  1  0  0  0  0
 27 83  1  0  0  0  0
 28 84  1  0  0  0  0
 29 31  2  0  0  0  0
 29 82  1  0  0  0  0
 30 86  1  0  0  0  0
 31 87  1  0  0  0  0
 32 64  2  0  0  0  0
 33 65  1  0  0  0  0
 33 68  1  0  0  0  0
 34 69  1  0  0  0  0
 34 75  2  0  0  0  0
 35 51  1  0  0  0  0
 35 71  1  0  0  0  0
 35 76  2  0  0  0  0
 36 61  1  0  0  0  0
 36 66  1  0  0  0  0
 36 77  2  0  0  0  0
 37 58  1  0  0  0  0
 37 72  1  0  0  0  0
 37 78  2  0  0  0  0
 38 62  1  0  0  0  0
 38 73  1  0  0  0  0
 38 79  2  0  0  0  0
 39 67  1  0  0  0  0
 39 80  2  0  0  0  0
 39 85  1  0  0  0  0
 40 70  1  0  0  0  0
 40 81  2  0  0  0  0
 40 83  1  0  0  0  0
 41 44  1  0  0  0  0
 42 51  1  0  0  0  0
 43 66  1  0  0  0  0
 44 46  1  0  0  0  0
 45 47  1  0  0  0  0
 45 48  1  0  0  0  0
 46 50  1  0  0  0  0
 47 52  1  0  0  0  0
 48 67  1  0  0  0  0
 49 52  1  0  0  0  0
 49 67  1  0  0  0  0
 50 71  1  0  0  0  0
 51 66  1  0  0  0  0
 52 65  1  0  0  0  0
 53 62  1  0  0  0  0
 54 63  1  0  0  0  0
 55 63  1  0  0  0  0
 56 63  1  0  0  0  0
 57 74  1  0  0  0  0
 58 84  1  0  0  0  0
 59 60  1  0  0  0  0
 59 72  1  0  0  0  0
 60 85  1  0  0  0  0
 61 63  1  0  0  0  0
 61 73  1  0  0  0  0
 62 74  1  0  0  0  0
 64 65  1  0  0  0  0
M  CHG  1  74   1
M  ISO  4  39 100  40 101  83 101  85 100
M  END
> <Batch ID>
0000

> <Smiles>
CNC(C)C(=O)NC(C(=O)N1Cc2cc([101O:1][101C:1](=O)Nc3cccc(OCC(=O)NCC[100O:0][100C:0](=O)N4CCCC(n5nc(-c6ccc(Oc7ccc(F)cc7F)cc6)c(C(N)=O)c5N)C4)c3)ccc2CC1C(=O)NC1CCCc2ccccc21)C(C)(C)C

> <Shape>
0.254

> <Color>
0.066

> <Negative vol penalty>
0.000

$$$$

  -OEChem-04042320113D

 85 93  0     1  0  0  0  0  0999 V2000
  -34.2857  -10.6169   19.4454 C   0  0  0  0  0  0  0  0  0  0  0  0
  -33.8725  -11.9442   19.3891 C   0  0  0  0  0  0  0  0  0  0  0  0
  -28.0650  -28.7531   21.1867 C   0  0  0  0  0  0  0  0  0  0  0  0
  -26.9780  -27.6178   19.3519 C   0  0  0  0  0  0  0  0  0  0  0  0
  -23.8681  -24.3763   18.5774 C   0  0  0  0  0  0  0  0  0  0  0  0
  -22.7390  -22.7962   20.0147 C   0  0  0  0  0  0  0  0  0  0  0  0
  -33.4148   -9.5998   19.0571 C   0  0  0  0  0  0  0  0  0  0  0  0
  -32.5884  -12.2551   18.9433 C   0  0  0  0  0  0  0  0  0  0  0  0
  -29.0085  -16.8141   20.9196 C   0  0  0  0  0  0  0  0  0  0  0  0
  -24.9362  -23.4895   18.4416 C   0  0  0  0  0  0  0  0  0  0  0  0
  -23.8070  -21.9094   19.8788 C   0  0  0  0  0  0  0  0  0  0  0  0
  -29.2528  -28.0809   20.8991 C   0  0  0  0  0  0  0  0  0  0  0  0
  -28.1659  -26.9456   19.0642 C   0  0  0  0  0  0  0  0  0  0  0  0
  -28.7460  -18.0868   20.4147 C   0  0  0  0  0  0  0  0  0  0  0  0
  -29.8853  -24.2973   20.2730 C   0  0  0  0  0  0  0  0  0  0  0  0
  -29.8095  -22.9284   20.0166 C   0  0  0  0  0  0  0  0  0  0  0  0
  -26.7625  -17.2418   19.3325 C   0  0  0  0  0  0  0  0  0  0  0  0
  -30.7367  -23.2893   17.8150 C   0  0  0  0  0  0  0  0  0  0  0  0
  -26.9275  -28.5216   20.4131 C   0  0  0  0  0  0  0  0  0  0  0  0
  -22.7695  -24.0297   19.3640 C   0  0  0  0  0  0  0  0  0  0  0  0
  -25.2776  -30.4547   20.1933 C   0  0  0  0  0  0  0  0  0  0  0  0
  -32.1160   -9.8978   18.6154 C   0  0  0  0  0  0  0  0  0  0  0  0
  -28.1545  -15.7415   20.6252 C   0  0  0  0  0  0  0  0  0  0  0  0
  -31.6997  -11.2411   18.5474 C   0  0  0  0  0  0  0  0  0  0  0  0
  -27.0151  -15.9570   19.8370 C   0  0  0  0  0  0  0  0  0  0  0  0
  -24.9056  -22.2561   19.0923 C   0  0  0  0  0  0  0  0  0  0  0  0
  -29.3032  -27.1771   19.8378 C   0  0  0  0  0  0  0  0  0  0  0  0
  -27.6244  -18.3003   19.6186 C   0  0  0  0  0  0  0  0  0  0  0  0
  -30.3868  -25.1623   19.3004 C   0  0  0  0  0  0  0  0  0  0  0  0
  -30.2352  -22.4243   18.7876 C   0  0  0  0  0  0  0  0  0  0  0  0
  -30.8125  -24.6583   18.0714 C   0  0  0  0  0  0  0  0  0  0  0  0
  -25.7001  -29.2153   20.7101 C   0  0  0  0  0  0  0  0  0  0  0  0
  -24.0555  -30.6732   20.7809 C   0  0  0  0  0  0  0  0  0  0  0  0
  -21.6560  -24.9543   19.5058 C   0  0  0  0  0  0  0  0  0  0  0  0
  -25.9313  -31.3302   19.2649 C   0  0  0  0  0  0  0  0  0  0  0  0
  -28.4805  -12.9639   19.1145 C   0  0  0  0  0  0  0  0  0  0  0  0
  -25.4480  -12.4831   20.1609 C   0  0  0  0  0  0  0  0  0  0  0  0
  -22.4967  -13.8372   21.2113 C   0  0  0  0  0  0  0  0  0  0  0  0
  -20.0208  -26.8578   23.0924 C   0  0  0  0  0  0  0  0  0  0  0  0
  -26.1319  -20.1049   19.5182 C   0  0  0  0  0  0  0  0  0  1  0  0
  -31.2265   -8.7676   18.1612 C   0  0  0  0  0  0  0  0  0  0  0  0
  -28.4371  -14.3804   21.1996 C   0  0  0  0  0  0  0  0  0  0  0  0
  -26.0558  -14.8432   19.5085 C   0  0  0  0  0  0  0  0  0  0  0  0
  -29.7540   -9.1560   18.0561 C   0  0  0  0  0  0  0  0  0  0  0  0
  -21.5547  -29.6817   24.7272 C   0  0  0  0  0  0  0  0  0  0  0  0
  -29.6039  -10.4881   17.3282 C   0  0  0  0  0  0  0  0  0  0  0  0
  -22.7761  -29.9670   23.8542 C   0  0  0  0  0  0  0  0  0  0  0  0
  -21.2483  -28.1887   24.7892 C   0  0  0  0  0  0  0  0  0  0  0  0
  -22.2933  -27.8382   22.5661 C   0  0  0  0  0  0  0  0  0  0  0  0
  -30.3060  -11.6168   18.0929 C   0  0  1  0  0  0  0  0  0  0  0  0
  -27.7796  -13.2512   20.4121 C   0  0  1  0  0  0  0  0  0  0  0  0
  -22.6162  -29.3384   22.4585 C   0  0  2  0  0  0  0  0  0  0  0  0
  -20.1900  -13.1931   21.9608 C   0  0  0  0  0  0  0  0  0  0  0  0
  -24.6789  -11.8830   17.2699 C   0  0  0  0  0  0  0  0  0  0  0  0
  -22.2798  -12.1875   17.9181 C   0  0  0  0  0  0  0  0  0  0  0  0
  -23.6315  -10.3701   18.9636 C   0  0  0  0  0  0  0  0  0  0  0  0
  -22.8822  -15.0923   23.8637 C   0  0  0  0  0  0  0  0  0  0  0  0
  -19.1945  -25.1836   19.9219 C   0  0  0  0  0  0  0  0  0  0  0  0
  -18.9688  -25.6111   21.3611 C   0  0  0  0  0  0  0  0  0  0  0  0
  -24.0704  -12.7730   19.6159 C   0  0  1  0  0  0  0  0  0  0  0  0
  -21.6089  -13.5184   22.4007 C   0  0  2  0  0  0  0  0  0  0  0  0
  -23.6841  -11.8242   18.4463 C   0  0  0  0  0  0  0  0  0  0  0  0
  -24.8181  -28.6838   21.5608 N   0  0  0  0  0  0  0  0  0  0  0  0
  -23.8293  -29.5936   21.5830 N   0  0  0  0  0  0  0  0  0  0  0  0
  -26.3788  -13.5291   20.0884 N   0  0  0  0  0  0  0  0  0  0  0  0
  -21.1413  -27.6148   23.4484 N   0  0  0  0  0  0  0  0  0  0  0  0
  -23.1632  -31.6816   20.6846 N   0  0  0  0  0  0  0  0  0  0  0  0
  -27.1824  -30.9529   18.7582 N   0  0  0  0  0  0  0  0  0  0  0  0
  -25.9884  -21.3581   18.9538 N   0  0  0  0  0  0  0  0  0  0  0  0
  -20.3999  -24.3995   19.7770 N   0  0  0  0  0  0  0  0  0  0  0  0
  -29.5025  -12.0398   19.2198 N   0  0  0  0  0  0  0  0  0  0  0  0
  -23.1607  -12.7182   20.7551 N   0  0  0  0  0  0  0  0  0  0  0  0
  -21.5572  -14.6789   23.3343 N   0  3  0  0  0  0  0  0  0  0  0  0
  -21.8301  -26.1781   19.3676 O   0  0  0  0  0  0  0  0  0  0  0  0
  -25.4286  -32.4227   18.9082 O   0  0  0  0  0  0  0  0  0  0  0  0
  -28.1198  -13.5369   18.0932 O   0  0  0  0  0  0  0  0  0  0  0  0
  -25.6872  -11.3719   20.6402 O   0  0  0  0  0  0  0  0  0  0  0  0
  -22.5888  -14.9653   20.7323 O   0  0  0  0  0  0  0  0  0  0  0  0
  -19.0759  -26.6233   23.8437 O   0  0  0  0  0  0  0  0  0  0  0  0
  -25.3453  -19.5203   20.2544 O   0  0  0  0  0  0  0  0  0  0  0  0
  -30.4622  -26.5211   19.5567 O   0  0  0  0  0  0  0  0  0  0  0  0
  -27.3662  -19.5414   19.1240 O   0  0  0  0  0  0  0  0  0  1  0  0
  -20.0814  -26.3969   21.8040 O   0  0  0  0  0  0  0  0  0  0  0  0
  -30.1637  -21.1095   18.5421 F   0  0  0  0  0  0  0  0  0  0  0  0
  -31.2963  -25.4843   17.1335 F   0  0  0  0  0  0  0  0  0  0  0  0
  1  2  1  0  0  0  0
  1  7  2  0  0  0  0
  2  8  2  0  0  0  0
  3 12  2  0  0  0  0
  3 19  1  0  0  0  0
  4 13  1  0  0  0  0
  4 19  2  0  0  0  0
  5 10  2  0  0  0  0
  5 20  1  0  0  0  0
  6 11  1  0  0  0  0
  6 20  2  0  0  0  0
  7 22  1  0  0  0  0
  8 24  1  0  0  0  0
  9 14  2  0  0  0  0
  9 23  1  0  0  0  0
 10 26  1  0  0  0  0
 11 26  2  0  0  0  0
 12 27  1  0  0  0  0
 13 27  2  0  0  0  0
 14 28  1  0  0  0  0
 15 16  2  0  0  0  0
 15 29  1  0  0  0  0
 16 30  1  0  0  0  0
 17 25  1  0  0  0  0
 17 28  2  0  0  0  0
 18 30  2  0  0  0  0
 18 31  1  0  0  0  0
 19 32  1  0  0  0  0
 20 34  1  0  0  0  0
 21 32  1  0  0  0  0
 21 33  2  0  0  0  0
 21 35  1  0  0  0  0
 22 24  2  0  0  0  0
 22 41  1  0  0  0  0
 23 25  2  0  0  0  0
 23 42  1  0  0  0  0
 24 50  1  0  0  0  0
 25 43  1  0  0  0  0
 26 69  1  0  0  0  0
 27 81  1  0  0  0  0
 28 82  1  0  0  0  0
 29 31  2  0  0  0  0
 29 81  1  0  0  0  0
 30 84  1  0  0  0  0
 31 85  1  0  0  0  0
 32 63  2  0  0  0  0
 33 64  1  0  0  0  0
 33 67  1  0  0  0  0
 34 70  1  0  0  0  0
 34 74  2  0  0  0  0
 35 68  1  0  0  0  0
 35 75  2  0  0  0  0
 36 51  1  0  0  0  0
 36 71  1  0  0  0  0
 36 76  2  0  0  0  0
 37 60  1  0  0  0  0
 37 65  1  0  0  0  0
 37 77  2  0  0  0  0
 38 61  1  0  0  0  0
 38 72  1  0  0  0  0
 38 78  2  0  0  0  0
 39 66  1  0  0  0  0
 39 79  2  0  0  0  0
 39 83  1  0  0  0  0
 40 69  1  0  0  0  0
 40 80  2  0  0  0  0
 40 82  1  0  0  0  0
 41 44  1  0  0  0  0
 42 51  1  0  0  0  0
 43 65  1  0  0  0  0
 44 46  1  0  0  0  0
 45 47  1  0  0  0  0
 45 48  1  0  0  0  0
 46 50  1  0  0  0  0
 47 52  1  0  0  0  0
 48 66  1  0  0  0  0
 49 52  1  0  0  0  0
 49 66  1  0  0  0  0
 50 71  1  0  0  0  0
 51 65  1  0  0  0  0
 52 64  1  0  0  0  0
 53 61  1  0  0  0  0
 54 62  1  0  0  0  0
 55 62  1  0  0  0  0
 56 62  1  0  0  0  0
 57 73  1  0  0  0  0
 58 59  1  0  0  0  0
 58 70  1  0  0  0  0
 59 83  1  0  0  0  0
 60 62  1  0  0  0  0
 60 72  1  0  0  0  0
 61 73  1  0  0  0  0
 63 64  1  0  0  0  0
M  CHG  1  73   1
M  ISO  4  39 100  40 101  82 101  83 100
M  END
> <Batch ID>
0000

> <Smiles>
CNC(C)C(=O)NC(C(=O)N1Cc2cc([101O:1][101C:1](=O)Nc3ccc(C(=O)NCC[100O:0][100C:0](=O)N4CCCC(n5nc(-c6ccc(Oc7ccc(F)cc7F)cc6)c(C(N)=O)c5N)C4)cc3)ccc2CC1C(=O)NC1CCCc2ccccc21)C(C)(C)C

> <Shape>
0.284

> <Color>
0.054

> <Negative vol penalty>
0.000

$$$$

  -OEChem-04042320113D

 83 90  0     1  0  0  0  0  0999 V2000
  -30.0228  -27.1371   15.2267 C   0  0  0  0  0  0  0  0  0  0  0  0
  -29.2336  -26.4765   16.1627 C   0  0  0  0  0  0  0  0  0  0  0  0
  -28.5476  -16.7015   20.3657 C   0  0  0  0  0  0  0  0  0  0  0  0
  -27.7939  -16.5869   22.6582 C   0  0  0  0  0  0  0  0  0  0  0  0
  -30.6461  -28.3374   15.5650 C   0  0  0  0  0  0  0  0  0  0  0  0
  -29.0681  -27.0153   17.4381 C   0  0  0  0  0  0  0  0  0  0  0  0
  -24.2525  -26.8718   18.9981 C   0  0  0  0  0  0  0  0  0  0  0  0
  -29.3737  -17.7773   20.6910 C   0  0  0  0  0  0  0  0  0  0  0  0
  -28.6201  -17.6627   22.9836 C   0  0  0  0  0  0  0  0  0  0  0  0
  -23.7690  -25.6485   19.4602 C   0  0  0  0  0  0  0  0  0  0  0  0
  -29.0444  -21.0994   21.2194 C   0  0  0  0  0  0  0  0  0  0  0  0
  -29.0505  -22.1951   20.3563 C   0  0  0  0  0  0  0  0  0  0  0  0
  -24.0962  -26.3848   21.7339 C   0  0  0  0  0  0  0  0  0  0  0  0
  -31.4160  -21.8828   19.9766 C   0  0  0  0  0  0  0  0  0  0  0  0
  -27.7576  -16.1064   21.3493 C   0  0  0  0  0  0  0  0  0  0  0  0
  -27.2331  -13.6274   21.0538 C   0  0  0  0  0  0  0  0  0  0  0  0
  -30.4804  -28.8962   16.8421 C   0  0  0  0  0  0  0  0  0  0  0  0
  -24.6723  -27.8584   19.9019 C   0  0  0  0  0  0  0  0  0  0  0  0
  -29.6910  -28.2236   17.7943 C   0  0  0  0  0  0  0  0  0  0  0  0
  -24.5822  -27.6208   21.2808 C   0  0  0  0  0  0  0  0  0  0  0  0
  -29.4100  -18.2578   22.0000 C   0  0  0  0  0  0  0  0  0  0  0  0
  -23.6936  -25.4037   20.8282 C   0  0  0  0  0  0  0  0  0  0  0  0
  -30.2241  -20.3954   21.4613 C   0  0  0  0  0  0  0  0  0  0  0  0
  -30.2363  -22.5868   19.7349 C   0  0  0  0  0  0  0  0  0  0  0  0
  -31.4099  -20.7871   20.8398 C   0  0  0  0  0  0  0  0  0  0  0  0
  -26.9036  -14.9955   21.0137 C   0  0  0  0  0  0  0  0  0  0  0  0
  -26.0887  -12.9864   20.6465 C   0  0  0  0  0  0  0  0  0  0  0  0
  -28.4637  -12.9927   21.4262 C   0  0  0  0  0  0  0  0  0  0  0  0
  -27.4261  -29.3308   20.4957 C   0  0  0  0  0  0  0  0  0  0  0  0
  -25.5992  -31.0958   22.5130 C   0  0  0  0  0  0  0  0  0  0  0  0
  -21.0940  -20.3502   23.6465 C   0  0  0  0  0  0  0  0  0  0  0  0
  -22.7762  -31.3221   24.4172 C   0  0  0  0  0  0  0  0  0  0  0  0
  -20.2991  -14.5085   20.7689 C   0  0  0  0  0  0  0  0  0  0  0  0
  -31.2124  -30.1717   17.1770 C   0  0  0  0  0  0  0  0  0  0  0  0
  -25.1663  -29.1829   19.3878 C   0  0  0  0  0  0  0  0  0  0  0  0
  -25.0012  -28.6547   22.2928 C   0  0  0  0  0  0  0  0  0  0  0  0
  -30.6831  -30.8672   18.4285 C   0  0  0  0  0  0  0  0  0  0  0  0
  -22.2179  -13.6159   17.9057 C   0  0  0  0  0  0  0  0  0  0  0  0
  -30.4961  -29.8610   19.5597 C   0  0  0  0  0  0  0  0  0  0  0  0
  -23.6661  -13.7448   18.3812 C   0  0  0  0  0  0  0  0  0  0  0  0
  -21.3241  -14.6903   18.5211 C   0  0  0  0  0  0  0  0  0  0  0  0
  -22.8202  -14.8961   20.4687 C   0  0  0  0  0  0  0  0  0  0  0  0
  -29.4673  -28.7891   19.1801 C   0  0  1  0  0  0  0  0  0  0  0  0
  -26.0485  -29.9213   20.3898 C   0  0  1  0  0  0  0  0  0  0  0  0
  -23.7487  -13.8000   19.9185 C   0  0  2  0  0  0  0  0  0  0  0  0
  -21.5751  -32.8724   25.9828 C   0  0  0  0  0  0  0  0  0  0  0  0
  -27.5917  -30.4078   24.7190 C   0  0  0  0  0  0  0  0  0  0  0  0
  -25.8864  -31.1505   26.3949 C   0  0  0  0  0  0  0  0  0  0  0  0
  -26.7936  -32.7778   24.7362 C   0  0  0  0  0  0  0  0  0  0  0  0
  -20.4080  -31.4613   22.6478 C   0  0  0  0  0  0  0  0  0  0  0  0
  -22.3935  -20.5184   22.8885 C   0  0  0  0  0  0  0  0  0  0  0  0
  -19.7616  -16.6048   24.1767 C   0  0  0  0  0  0  0  0  0  0  0  0
  -19.0665  -17.8940   24.6257 C   0  0  0  0  0  0  0  0  0  0  0  0
  -18.7751  -15.6538   23.4916 C   0  0  0  0  0  0  0  0  0  0  0  0
  -20.0195  -18.8585   25.3246 C   0  0  0  0  0  0  0  0  0  0  0  0
  -19.4227  -14.3340   23.0842 C   0  0  0  0  0  0  0  0  0  0  0  0
  -23.4363  -23.0697   20.4513 C   0  0  0  0  0  0  0  0  0  1  0  0
  -23.5523  -21.8357   21.3250 C   0  0  0  0  0  0  0  0  0  0  0  0
  -25.1911  -30.9822   23.9619 C   0  0  1  0  0  0  0  0  0  0  0  0
  -21.7294  -32.4145   24.5409 C   0  0  2  0  0  0  0  0  0  0  0  0
  -26.3595  -31.3092   24.9342 C   0  0  0  0  0  0  0  0  0  0  0  0
  -25.6482  -15.2119   20.6123 N   0  0  0  0  0  0  0  0  0  0  0  0
  -25.1788  -13.9712   20.3964 N   0  0  0  0  0  0  0  0  0  0  0  0
  -25.4833  -29.9315   21.7406 N   0  0  0  0  0  0  0  0  0  0  0  0
  -21.4477  -14.6888   19.9808 N   0  0  0  0  0  0  0  0  0  0  0  0
  -25.7821  -11.6822   20.4812 N   0  0  0  0  0  0  0  0  0  0  0  0
  -29.5396  -13.8002   21.8195 N   0  0  0  0  0  0  0  0  0  0  0  0
  -28.1236  -29.3122   19.3030 N   0  0  0  0  0  0  0  0  0  0  0  0
  -21.1296  -19.2474   24.4855 N   0  0  0  0  0  0  0  0  0  0  0  0
  -24.0209  -31.8381   24.1248 N   0  0  0  0  0  0  0  0  0  0  0  0
  -20.5055  -14.5138   22.1430 N   0  0  0  0  0  0  0  0  0  0  0  0
  -20.4076  -31.9221   24.0601 N   0  3  0  0  0  0  0  0  0  0  0  0
  -28.6101  -11.7473   21.3949 O   0  0  0  0  0  0  0  0  0  0  0  0
  -27.8272  -28.9235   21.5797 O   0  0  0  0  0  0  0  0  0  0  0  0
  -25.9992  -32.1797   22.0806 O   0  0  0  0  0  0  0  0  0  0  0  0
  -20.1431  -21.1157   23.5124 O   0  0  0  0  0  0  0  0  0  0  0  0
  -22.5164  -30.1304   24.5689 O   0  0  0  0  0  0  0  0  0  0  0  0
  -19.1738  -14.3489   20.2839 O   0  0  0  0  0  0  0  0  0  0  0  0
  -30.2162  -19.3074   22.3179 O   0  0  0  0  0  0  0  0  0  0  0  0
  -23.2227  -24.2103   21.2818 O   0  0  0  0  0  0  0  0  0  1  0  0
  -22.3388  -21.6612   22.0461 O   0  0  0  0  0  0  0  0  0  0  0  0
  -30.2418  -23.6380   18.9048 F   0  0  0  0  0  0  0  0  0  0  0  0
  -32.5461  -20.1139   21.0673 F   0  0  0  0  0  0  0  0  0  0  0  0
  1  2  1  0  0  0  0
  1  5  2  0  0  0  0
  2  6  2  0  0  0  0
  3  8  2  0  0  0  0
  3 15  1  0  0  0  0
  4  9  1  0  0  0  0
  4 15  2  0  0  0  0
  5 17  1  0  0  0  0
  6 19  1  0  0  0  0
  7 10  2  0  0  0  0
  7 18  1  0  0  0  0
  8 21  1  0  0  0  0
  9 21  2  0  0  0  0
 10 22  1  0  0  0  0
 11 12  2  0  0  0  0
 11 23  1  0  0  0  0
 12 24  1  0  0  0  0
 13 20  1  0  0  0  0
 13 22  2  0  0  0  0
 14 24  2  0  0  0  0
 14 25  1  0  0  0  0
 15 26  1  0  0  0  0
 16 26  1  0  0  0  0
 16 27  2  0  0  0  0
 16 28  1  0  0  0  0
 17 19  2  0  0  0  0
 17 34  1  0  0  0  0
 18 20  2  0  0  0  0
 18 35  1  0  0  0  0
 19 43  1  0  0  0  0
 20 36  1  0  0  0  0
 21 79  1  0  0  0  0
 22 80  1  0  0  0  0
 23 25  2  0  0  0  0
 23 79  1  0  0  0  0
 24 82  1  0  0  0  0
 25 83  1  0  0  0  0
 26 62  2  0  0  0  0
 27 63  1  0  0  0  0
 27 66  1  0  0  0  0
 28 67  1  0  0  0  0
 28 73  2  0  0  0  0
 29 44  1  0  0  0  0
 29 68  1  0  0  0  0
 29 74  2  0  0  0  0
 30 59  1  0  0  0  0
 30 64  1  0  0  0  0
 30 75  2  0  0  0  0
 31 51  1  0  0  0  0
 31 69  1  0  0  0  0
 31 76  2  0  0  0  0
 32 60  1  0  0  0  0
 32 70  1  0  0  0  0
 32 77  2  0  0  0  0
 33 65  1  0  0  0  0
 33 71  1  0  0  0  0
 33 78  2  0  0  0  0
 34 37  1  0  0  0  0
 35 44  1  0  0  0  0
 36 64  1  0  0  0  0
 37 39  1  0  0  0  0
 38 40  1  0  0  0  0
 38 41  1  0  0  0  0
 39 43  1  0  0  0  0
 40 45  1  0  0  0  0
 41 65  1  0  0  0  0
 42 45  1  0  0  0  0
 42 65  1  0  0  0  0
 43 68  1  0  0  0  0
 44 64  1  0  0  0  0
 45 63  1  0  0  0  0
 46 60  1  0  0  0  0
 47 61  1  0  0  0  0
 48 61  1  0  0  0  0
 49 61  1  0  0  0  0
 50 72  1  0  0  0  0
 51 81  1  0  0  0  0
 52 53  1  0  0  0  0
 52 54  1  0  0  0  0
 53 55  1  0  0  0  0
 54 56  1  0  0  0  0
 55 69  1  0  0  0  0
 56 71  1  0  0  0  0
 57 58  1  0  0  0  0
 57 80  1  0  0  0  0
 58 81  1  0  0  0  0
 59 61  1  0  0  0  0
 59 70  1  0  0  0  0
 60 72  1  0  0  0  0
 62 63  1  0  0  0  0
M  CHG  1  72   1
M  ISO  4  33 100  57 101  71 100  80 101
M  END
> <Batch ID>
0000

> <Smiles>
CNC(C)C(=O)NC(C(=O)N1Cc2cc([101O:1][101CH2:1]COCC(=O)NCCCCC[100NH:0][100C:0](=O)N3CCCC(n4nc(-c5ccc(Oc6ccc(F)cc6F)cc5)c(C(N)=O)c4N)C3)ccc2CC1C(=O)NC1CCCc2ccccc21)C(C)(C)C

> <Shape>
0.210

> <Color>
0.062

> <Negative vol penalty>
0.000

$$$$

  -OEChem-04042320113D

 77 84  0     1  0  0  0  0  0999 V2000
  -19.5798  -33.8859   21.1586 C   0  0  0  0  0  0  0  0  0  0  0  0
  -20.8814  -33.5004   20.8543 C   0  0  0  0  0  0  0  0  0  0  0  0
  -25.1581  -13.6956   19.1668 C   0  0  0  0  0  0  0  0  0  0  0  0
  -23.9567  -15.2552   20.5674 C   0  0  0  0  0  0  0  0  0  0  0  0
  -18.8611  -33.1993   22.1362 C   0  0  0  0  0  0  0  0  0  0  0  0
  -21.4655  -32.4286   21.5285 C   0  0  0  0  0  0  0  0  0  0  0  0
  -25.4229  -28.3547   19.2375 C   0  0  0  0  0  0  0  0  0  0  0  0
  -24.2221  -12.7057   19.4661 C   0  0  0  0  0  0  0  0  0  0  0  0
  -23.0207  -14.2653   20.8667 C   0  0  0  0  0  0  0  0  0  0  0  0
  -26.8123  -28.2583   19.3015 C   0  0  0  0  0  0  0  0  0  0  0  0
  -23.5613  -10.5939   22.0211 C   0  0  0  0  0  0  0  0  0  0  0  0
  -24.0418   -9.3242   22.3413 C   0  0  0  0  0  0  0  0  0  0  0  0
  -26.6152  -26.7443   21.1691 C   0  0  0  0  0  0  0  0  0  0  0  0
  -22.8304   -8.3938   20.4694 C   0  0  0  0  0  0  0  0  0  0  0  0
  -25.0255  -14.9703   19.7175 C   0  0  0  0  0  0  0  0  0  0  0  0
  -25.9461  -16.9136   18.3450 C   0  0  0  0  0  0  0  0  0  0  0  0
  -19.4332  -32.1124   22.8159 C   0  0  0  0  0  0  0  0  0  0  0  0
  -24.6181  -27.6540   20.1473 C   0  0  0  0  0  0  0  0  0  0  0  0
  -20.7542  -31.7276   22.5171 C   0  0  0  0  0  0  0  0  0  0  0  0
  -25.2158  -26.8315   21.1129 C   0  0  0  0  0  0  0  0  0  0  0  0
  -23.1534  -12.9906   20.3160 C   0  0  0  0  0  0  0  0  0  0  0  0
  -27.4087  -27.4553   20.2692 C   0  0  0  0  0  0  0  0  0  0  0  0
  -22.7152  -10.7636   20.9252 C   0  0  0  0  0  0  0  0  0  0  0  0
  -23.6764   -8.2242   21.5655 C   0  0  0  0  0  0  0  0  0  0  0  0
  -22.3498   -9.6635   20.1493 C   0  0  0  0  0  0  0  0  0  0  0  0
  -25.9924  -15.9931   19.4092 C   0  0  0  0  0  0  0  0  0  0  0  0
  -27.0875  -17.6638   18.4901 C   0  0  0  0  0  0  0  0  0  0  0  0
  -24.9597  -17.0760   17.3173 C   0  0  0  0  0  0  0  0  0  0  0  0
  -22.5156  -28.4822   22.3827 C   0  0  0  0  0  0  0  0  0  0  0  0
  -22.0372  -25.2792   22.5674 C   0  0  0  0  0  0  0  0  0  0  0  0
  -23.2587  -22.1333   22.0590 C   0  0  0  0  0  0  0  0  0  0  0  0
  -30.6707  -20.5036   21.6903 C   0  0  0  0  0  0  0  0  0  0  0  0
  -18.6340  -31.4308   23.8981 C   0  0  0  0  0  0  0  0  0  0  0  0
  -23.1202  -27.7476   20.0480 C   0  0  0  0  0  0  0  0  0  0  0  0
  -24.3960  -26.0428   22.1001 C   0  0  0  0  0  0  0  0  0  0  0  0
  -19.1931  -30.0690   24.3023 C   0  0  0  0  0  0  0  0  0  0  0  0
  -31.1214  -16.9790   21.4641 C   0  0  0  0  0  0  0  0  0  0  0  0
  -20.7025  -30.1510   24.5064 C   0  0  0  0  0  0  0  0  0  0  0  0
  -29.8214  -16.4841   20.8277 C   0  0  0  0  0  0  0  0  0  0  0  0
  -30.8742  -18.1448   22.4191 C   0  0  0  0  0  0  0  0  0  0  0  0
  -28.8298  -18.7814   21.1989 C   0  0  0  0  0  0  0  0  0  0  0  0
  -21.4136  -30.5543   23.2090 C   0  0  1  0  0  0  0  0  0  0  0  0
  -22.4117  -27.3939   21.3520 C   0  0  1  0  0  0  0  0  0  0  0  0
  -29.0351  -17.6427   20.1853 C   0  0  2  0  0  0  0  0  0  0  0  0
  -22.6514  -19.7149   22.3413 C   0  0  0  0  0  0  0  0  0  0  0  0
  -22.5607  -25.5001   25.5653 C   0  0  0  0  0  0  0  0  0  0  0  0
  -22.8826  -23.0178   25.6213 C   0  0  0  0  0  0  0  0  0  0  0  0
  -20.6799  -23.9731   24.9444 C   0  0  0  0  0  0  0  0  0  0  0  0
  -23.4701  -21.6210   19.1518 C   0  0  0  0  0  0  0  0  0  0  0  0
  -31.1350  -23.0473   19.6108 C   0  0  0  0  0  0  0  0  0  0  0  0
  -30.3287  -22.8254   20.8833 C   0  0  0  0  0  0  0  0  0  0  0  0
  -31.5718  -24.4960   19.4306 C   0  0  0  0  0  0  0  0  0  0  0  0
  -29.4857  -27.5098   19.1120 C   0  0  0  0  0  0  0  0  0  1  0  0
  -30.7571  -26.6864   19.1829 C   0  0  0  0  0  0  0  0  0  0  0  0
  -22.6462  -24.1515   23.3652 C   0  0  1  0  0  0  0  0  0  0  0  0
  -22.6476  -20.9097   21.4005 C   0  0  2  0  0  0  0  0  0  0  0  0
  -22.2081  -24.1769   24.8568 C   0  0  0  0  0  0  0  0  0  0  0  0
  -27.0772  -16.1430   20.1738 N   0  0  0  0  0  0  0  0  0  0  0  0
  -27.7233  -17.1662   19.5893 N   0  0  0  0  0  0  0  0  0  0  0  0
  -22.9355  -26.1723   21.9665 N   0  0  0  0  0  0  0  0  0  0  0  0
  -30.1257  -19.2103   21.7478 N   0  0  0  0  0  0  0  0  0  0  0  0
  -27.5992  -18.6938   17.7833 N   0  0  0  0  0  0  0  0  0  0  0  0
  -23.8493  -16.2207   17.3158 N   0  0  0  0  0  0  0  0  0  0  0  0
  -21.5063  -29.4233   22.3109 N   0  0  0  0  0  0  0  0  0  0  0  0
  -22.3008  -22.9209   22.6619 N   0  0  0  0  0  0  0  0  0  0  0  0
  -29.8995  -21.4525   21.0304 N   0  0  0  0  0  0  0  0  0  0  0  0
  -23.4124  -20.5450   20.1745 N   0  3  0  0  0  0  0  0  0  0  0  0
  -25.0682  -17.9427   16.4170 O   0  0  0  0  0  0  0  0  0  0  0  0
  -23.4419  -28.4682   23.1848 O   0  0  0  0  0  0  0  0  0  0  0  0
  -20.8098  -25.3603   22.4746 O   0  0  0  0  0  0  0  0  0  0  0  0
  -24.4656  -22.3652   22.0437 O   0  0  0  0  0  0  0  0  0  0  0  0
  -31.7661  -20.7901   22.1853 O   0  0  0  0  0  0  0  0  0  0  0  0
  -22.2397  -12.0249   20.6081 O   0  0  0  0  0  0  0  0  0  0  0  0
  -28.7646  -27.3600   20.3343 O   0  0  0  0  0  0  0  0  0  1  0  0
  -30.4144  -25.3163   19.3520 O   0  0  0  0  0  0  0  0  0  0  0  0
  -24.1391   -7.0051   21.8721 F   0  0  0  0  0  0  0  0  0  0  0  0
  -21.5383   -9.8205   19.0945 F   0  0  0  0  0  0  0  0  0  0  0  0
  1  2  1  0  0  0  0
  1  5  2  0  0  0  0
  2  6  2  0  0  0  0
  3  8  2  0  0  0  0
  3 15  1  0  0  0  0
  4  9  1  0  0  0  0
  4 15  2  0  0  0  0
  5 17  1  0  0  0  0
  6 19  1  0  0  0  0
  7 10  2  0  0  0  0
  7 18  1  0  0  0  0
  8 21  1  0  0  0  0
  9 21  2  0  0  0  0
 10 22  1  0  0  0  0
 11 12  2  0  0  0  0
 11 23  1  0  0  0  0
 12 24  1  0  0  0  0
 13 20  1  0  0  0  0
 13 22  2  0  0  0  0
 14 24  2  0  0  0  0
 14 25  1  0  0  0  0
 15 26  1  0  0  0  0
 16 26  1  0  0  0  0
 16 27  2  0  0  0  0
 16 28  1  0  0  0  0
 17 19  2  0  0  0  0
 17 33  1  0  0  0  0
 18 20  2  0  0  0  0
 18 34  1  0  0  0  0
 19 42  1  0  0  0  0
 20 35  1  0  0  0  0
 21 73  1  0  0  0  0
 22 74  1  0  0  0  0
 23 25  2  0  0  0  0
 23 73  1  0  0  0  0
 24 76  1  0  0  0  0
 25 77  1  0  0  0  0
 26 58  2  0  0  0  0
 27 59  1  0  0  0  0
 27 62  1  0  0  0  0
 28 63  1  0  0  0  0
 28 68  2  0  0  0  0
 29 43  1  0  0  0  0
 29 64  1  0  0  0  0
 29 69  2  0  0  0  0
 30 55  1  0  0  0  0
 30 60  1  0  0  0  0
 30 70  2  0  0  0  0
 31 56  1  0  0  0  0
 31 65  1  0  0  0  0
 31 71  2  0  0  0  0
 32 61  1  0  0  0  0
 32 66  1  0  0  0  0
 32 72  2  0  0  0  0
 33 36  1  0  0  0  0
 34 43  1  0  0  0  0
 35 60  1  0  0  0  0
 36 38  1  0  0  0  0
 37 39  1  0  0  0  0
 37 40  1  0  0  0  0
 38 42  1  0  0  0  0
 39 44  1  0  0  0  0
 40 61  1  0  0  0  0
 41 44  1  0  0  0  0
 41 61  1  0  0  0  0
 42 64  1  0  0  0  0
 43 60  1  0  0  0  0
 44 59  1  0  0  0  0
 45 56  1  0  0  0  0
 46 57  1  0  0  0  0
 47 57  1  0  0  0  0
 48 57  1  0  0  0  0
 49 67  1  0  0  0  0
 50 51  1  0  0  0  0
 50 52  1  0  0  0  0
 51 66  1  0  0  0  0
 52 75  1  0  0  0  0
 53 54  1  0  0  0  0
 53 74  1  0  0  0  0
 54 75  1  0  0  0  0
 55 57  1  0  0  0  0
 55 65  1  0  0  0  0
 56 67  1  0  0  0  0
 58 59  1  0  0  0  0
M  CHG  1  67   1
M  ISO  4  32 100  53 101  66 100  74 101
M  END
> <Batch ID>
0000

> <Smiles>
CNC(C)C(=O)NC(C(=O)N1Cc2cc([101O:1][101CH2:1]COCCC[100NH:0][100C:0](=O)N3CCCC(n4nc(-c5ccc(Oc6ccc(F)cc6F)cc5)c(C(N)=O)c4N)C3)ccc2CC1C(=O)NC1CCCc2ccccc21)C(C)(C)C

> <Shape>
0.216

> <Color>
0.099

> <Negative vol penalty>
0.000

$$$$

  -OEChem-04042320113D

 89 97  0     1  0  0  0  0  0999 V2000
  -17.0993  -27.2386   22.8482 C   0  0  0  0  0  0  0  0  0  0  0  0
  -18.0578  -27.3978   21.8525 C   0  0  0  0  0  0  0  0  0  0  0  0
  -26.4143  -13.2418   19.7782 C   0  0  0  0  0  0  0  0  0  0  0  0
  -24.2330  -13.6498   20.7334 C   0  0  0  0  0  0  0  0  0  0  0  0
  -17.3755  -27.6481   24.1520 C   0  0  0  0  0  0  0  0  0  0  0  0
  -19.2927  -27.9677   22.1599 C   0  0  0  0  0  0  0  0  0  0  0  0
  -24.7189  -26.5415   19.7046 C   0  0  0  0  0  0  0  0  0  0  0  0
  -26.4048  -11.9513   20.3076 C   0  0  0  0  0  0  0  0  0  0  0  0
  -24.2234  -12.3593   21.2628 C   0  0  0  0  0  0  0  0  0  0  0  0
  -25.4744  -27.1313   18.6922 C   0  0  0  0  0  0  0  0  0  0  0  0
  -23.6451   -9.2190   20.1560 C   0  0  0  0  0  0  0  0  0  0  0  0
  -22.4763   -8.4710   20.0151 C   0  0  0  0  0  0  0  0  0  0  0  0
  -26.7460  -28.3357   20.3510 C   0  0  0  0  0  0  0  0  0  0  0  0
  -22.2961   -8.2999   22.4183 C   0  0  0  0  0  0  0  0  0  0  0  0
  -25.3284  -14.0910   19.9912 C   0  0  0  0  0  0  0  0  0  0  0  0
  -24.8614  -15.8299   18.1840 C   0  0  0  0  0  0  0  0  0  0  0  0
  -18.6180  -28.2144   24.4776 C   0  0  0  0  0  0  0  0  0  0  0  0
  -24.9645  -26.8532   21.0496 C   0  0  0  0  0  0  0  0  0  0  0  0
  -19.5853  -28.3864   23.4690 C   0  0  0  0  0  0  0  0  0  0  0  0
  -25.9939  -27.7465   21.3788 C   0  0  0  0  0  0  0  0  0  0  0  0
  -25.3094  -11.5101   21.0498 C   0  0  0  0  0  0  0  0  0  0  0  0
  -26.4863  -28.0308   19.0151 C   0  0  0  0  0  0  0  0  0  0  0  0
  -24.1395   -9.5074   21.4281 C   0  0  0  0  0  0  0  0  0  0  0  0
  -21.8017   -8.0115   21.1462 C   0  0  0  0  0  0  0  0  0  0  0  0
  -23.4650   -9.0478   22.5592 C   0  0  0  0  0  0  0  0  0  0  0  0
  -25.3379  -15.4244   19.4451 C   0  0  0  0  0  0  0  0  0  0  0  0
  -25.0971  -17.1825   18.1467 C   0  0  0  0  0  0  0  0  0  0  0  0
  -24.2594  -15.0534   17.1398 C   0  0  0  0  0  0  0  0  0  0  0  0
  -23.2740  -28.1868   23.3879 C   0  0  0  0  0  0  0  0  0  0  0  0
  -25.8529  -27.3821   25.1835 C   0  0  0  0  0  0  0  0  0  0  0  0
  -32.0961  -27.4136   18.5297 C   0  0  0  0  0  0  0  0  0  0  0  0
  -29.1861  -26.6599   25.3065 C   0  0  0  0  0  0  0  0  0  0  0  0
  -28.1565  -21.5253   18.9168 C   0  0  0  0  0  0  0  0  0  0  0  0
  -18.8532  -28.6853   25.8909 C   0  0  0  0  0  0  0  0  0  0  0  0
  -24.1583  -26.1881   22.1313 C   0  0  0  0  0  0  0  0  0  0  0  0
  -26.3109  -28.0992   22.8083 C   0  0  0  0  0  0  0  0  0  0  0  0
  -20.3242  -28.9364   26.2125 C   0  0  0  0  0  0  0  0  0  0  0  0
  -26.4843  -20.3958   21.7891 C   0  0  0  0  0  0  0  0  0  0  0  0
  -20.9844  -29.7414   25.0976 C   0  0  0  0  0  0  0  0  0  0  0  0
  -25.9930  -19.0219   21.3336 C   0  0  0  0  0  0  0  0  0  0  0  0
  -28.6277  -25.0975   19.7911 C   0  0  0  0  0  0  0  0  0  0  0  0
  -30.3422  -23.7112   21.0354 C   0  0  0  0  0  0  0  0  0  0  0  0
  -27.9018  -20.6900   21.2953 C   0  0  0  0  0  0  0  0  0  0  0  0
  -28.4864  -23.9656   18.7746 C   0  0  0  0  0  0  0  0  0  0  0  0
  -30.1645  -22.6134   19.9891 C   0  0  0  0  0  0  0  0  0  0  0  0
  -27.5824  -19.1603   19.3784 C   0  0  0  0  0  0  0  0  0  0  0  0
  -20.9458  -28.9777   23.7684 C   0  0  1  0  0  0  0  0  0  0  0  0
  -24.1548  -26.9707   23.4408 C   0  0  1  0  0  0  0  0  0  0  0  0
  -26.1385  -18.8603   19.8099 C   0  0  1  0  0  0  0  0  0  0  0  0
  -29.9874  -25.0958   20.4907 C   0  0  0  0  0  0  0  0  0  0  0  0
  -31.3794  -25.9484   26.2966 C   0  0  0  0  0  0  0  0  0  0  0  0
  -25.9768  -30.2943   26.0856 C   0  0  0  0  0  0  0  0  0  0  0  0
  -28.3073  -29.8712   26.8967 C   0  0  0  0  0  0  0  0  0  0  0  0
  -26.3941  -28.6221   27.8978 C   0  0  0  0  0  0  0  0  0  0  0  0
  -28.6473  -23.8052   24.7416 C   0  0  0  0  0  0  0  0  0  0  0  0
  -31.0149  -26.9595   19.4870 C   0  0  0  0  0  0  0  0  0  0  0  0
  -33.0770  -29.4922   17.5742 C   0  0  0  0  0  0  0  0  0  0  0  0
  -32.4754  -29.6807   16.1936 C   0  0  0  0  0  0  0  0  0  0  0  0
  -26.5830  -28.8120   16.7709 C   0  0  0  0  0  0  0  0  0  1  0  0
  -27.1830  -30.0277   16.0917 C   0  0  0  0  0  0  0  0  0  0  0  0
  -30.6574  -30.6138   15.0331 C   0  0  0  0  0  0  0  0  0  0  0  0
  -29.1825  -30.9091   15.2268 C   0  0  0  0  0  0  0  0  0  0  0  0
  -27.1515  -28.0578   25.5526 C   0  0  1  0  0  0  0  0  0  0  0  0
  -29.9490  -25.5366   25.9852 C   0  0  2  0  0  0  0  0  0  0  0  0
  -26.9504  -29.2064   26.5810 C   0  0  0  0  0  0  0  0  0  0  0  0
  -25.8387  -16.4373   20.1572 N   0  0  0  0  0  0  0  0  0  0  0  0
  -25.6782  -17.4928   19.3409 N   0  0  0  0  0  0  0  0  0  0  0  0
  -25.4906  -27.4275   23.8298 N   0  0  0  0  0  0  0  0  0  0  0  0
  -28.0007  -20.4841   19.8441 N   0  0  0  0  0  0  0  0  0  0  0  0
  -28.8392  -22.6716   19.3578 N   0  0  0  0  0  0  0  0  0  0  0  0
  -24.8619  -18.1249   17.2091 N   0  0  0  0  0  0  0  0  0  0  0  0
  -24.0916  -13.6769   17.3428 N   0  0  0  0  0  0  0  0  0  0  0  0
  -21.9617  -27.9471   23.7480 N   0  0  0  0  0  0  0  0  0  0  0  0
  -32.1370  -28.7949   18.4214 N   0  0  0  0  0  0  0  0  0  0  0  0
  -28.0476  -26.9997   26.0062 N   0  0  0  0  0  0  0  0  0  0  0  0
  -29.9870  -24.3324   25.1080 N   0  3  0  0  0  0  0  0  0  0  0  0
  -23.8964  -15.5624   16.0523 O   0  0  0  0  0  0  0  0  0  0  0  0
  -23.7502  -29.2633   23.0471 O   0  0  0  0  0  0  0  0  0  0  0  0
  -25.1882  -26.8281   26.0626 O   0  0  0  0  0  0  0  0  0  0  0  0
  -32.8313  -26.6282   17.9374 O   0  0  0  0  0  0  0  0  0  0  0  0
  -29.5644  -27.1860   24.2621 O   0  0  0  0  0  0  0  0  0  0  0  0
  -27.7108  -21.4401   17.7656 O   0  0  0  0  0  0  0  0  0  0  0  0
  -25.2996  -10.2508   21.5663 O   0  0  0  0  0  0  0  0  0  0  0  0
  -27.2298  -28.6123   18.0221 O   0  0  0  0  0  0  0  0  0  1  0  0
  -31.0005  -25.5427   19.5922 O   0  0  0  0  0  0  0  0  0  0  0  0
  -31.2604  -30.4112   16.3036 O   0  0  0  0  0  0  0  0  0  0  0  0
  -28.5663  -29.7967   15.8643 O   0  0  0  0  0  0  0  0  0  0  0  0
  -20.6785   -7.2945   21.0107 F   0  0  0  0  0  0  0  0  0  0  0  0
  -23.9344   -9.3227   23.7839 F   0  0  0  0  0  0  0  0  0  0  0  0
  1  2  1  0  0  0  0
  1  5  2  0  0  0  0
  2  6  2  0  0  0  0
  3  8  2  0  0  0  0
  3 15  1  0  0  0  0
  4  9  1  0  0  0  0
  4 15  2  0  0  0  0
  5 17  1  0  0  0  0
  6 19  1  0  0  0  0
  7 10  2  0  0  0  0
  7 18  1  0  0  0  0
  8 21  1  0  0  0  0
  9 21  2  0  0  0  0
 10 22  1  0  0  0  0
 11 12  2  0  0  0  0
 11 23  1  0  0  0  0
 12 24  1  0  0  0  0
 13 20  1  0  0  0  0
 13 22  2  0  0  0  0
 14 24  2  0  0  0  0
 14 25  1  0  0  0  0
 15 26  1  0  0  0  0
 16 26  1  0  0  0  0
 16 27  2  0  0  0  0
 16 28  1  0  0  0  0
 17 19  2  0  0  0  0
 17 34  1  0  0  0  0
 18 20  2  0  0  0  0
 18 35  1  0  0  0  0
 19 47  1  0  0  0  0
 20 36  1  0  0  0  0
 21 83  1  0  0  0  0
 22 84  1  0  0  0  0
 23 25  2  0  0  0  0
 23 83  1  0  0  0  0
 24 88  1  0  0  0  0
 25 89  1  0  0  0  0
 26 66  2  0  0  0  0
 27 67  1  0  0  0  0
 27 71  1  0  0  0  0
 28 72  1  0  0  0  0
 28 77  2  0  0  0  0
 29 48  1  0  0  0  0
 29 73  1  0  0  0  0
 29 78  2  0  0  0  0
 30 63  1  0  0  0  0
 30 68  1  0  0  0  0
 30 79  2  0  0  0  0
 31 56  1  0  0  0  0
 31 74  1  0  0  0  0
 31 80  2  0  0  0  0
 32 64  1  0  0  0  0
 32 75  1  0  0  0  0
 32 81  2  0  0  0  0
 33 69  1  0  0  0  0
 33 70  1  0  0  0  0
 33 82  2  0  0  0  0
 34 37  1  0  0  0  0
 35 48  1  0  0  0  0
 36 68  1  0  0  0  0
 37 39  1  0  0  0  0
 38 40  1  0  0  0  0
 38 43  1  0  0  0  0
 39 47  1  0  0  0  0
 40 49  1  0  0  0  0
 41 44  1  0  0  0  0
 41 50  1  0  0  0  0
 42 45  1  0  0  0  0
 42 50  1  0  0  0  0
 43 69  1  0  0  0  0
 44 70  1  0  0  0  0
 45 70  1  0  0  0  0
 46 49  1  0  0  0  0
 46 69  1  0  0  0  0
 47 73  1  0  0  0  0
 48 68  1  0  0  0  0
 49 67  1  0  0  0  0
 50 85  1  0  0  0  0
 51 64  1  0  0  0  0
 52 65  1  0  0  0  0
 53 65  1  0  0  0  0
 54 65  1  0  0  0  0
 55 76  1  0  0  0  0
 56 85  1  0  0  0  0
 57 58  1  0  0  0  0
 57 74  1  0  0  0  0
 58 86  1  0  0  0  0
 59 60  1  0  0  0  0
 59 84  1  0  0  0  0
 60 87  1  0  0  0  0
 61 62  1  0  0  0  0
 61 86  1  0  0  0  0
 62 87  1  0  0  0  0
 63 65  1  0  0  0  0
 63 75  1  0  0  0  0
 64 76  1  0  0  0  0
 66 67  1  0  0  0  0
M  CHG  1  76   1
M  ISO  4  33 100  59 101  70 100  84 101
M  END
> <Batch ID>
0000

> <Smiles>
CNC(C)C(=O)NC(C(=O)N1Cc2cc([101O:1][101CH2:1]COCCOCCNC(=O)COC3CC[100N:0]([100C:0](=O)N4CCCC(n5nc(-c6ccc(Oc7ccc(F)cc7F)cc6)c(C(N)=O)c5N)C4)CC3)ccc2CC1C(=O)NC1CCCc2ccccc21)C(C)(C)C

> <Shape>
0.217

> <Color>
0.080

> <Negative vol penalty>
0.000

$$$$

  -OEChem-04042320113D

 95104  0     1  0  0  0  0  0999 V2000
  -24.1533  -32.7769   14.2167 C   0  0  0  0  0  0  0  0  0  0  0  0
  -24.9177  -31.8213   14.8786 C   0  0  0  0  0  0  0  0  0  0  0  0
  -20.6124  -19.1101   20.8643 C   0  0  0  0  0  0  0  0  0  0  0  0
  -22.7148  -19.5717   19.7671 C   0  0  0  0  0  0  0  0  0  0  0  0
  -30.9028  -18.1888   21.9795 C   0  0  0  0  0  0  0  0  0  0  0  0
  -23.7878  -33.9518   14.8723 C   0  0  0  0  0  0  0  0  0  0  0  0
  -25.3180  -32.0408   16.1962 C   0  0  0  0  0  0  0  0  0  0  0  0
  -24.6851  -27.9578   19.1243 C   0  0  0  0  0  0  0  0  0  0  0  0
  -29.7306  -11.9573   20.2448 C   0  0  0  0  0  0  0  0  0  0  0  0
  -29.7098  -13.7728   18.6509 C   0  0  0  0  0  0  0  0  0  0  0  0
  -28.3359  -11.9599   20.2660 C   0  0  0  0  0  0  0  0  0  0  0  0
  -28.3151  -13.7754   18.6720 C   0  0  0  0  0  0  0  0  0  0  0  0
  -20.6525  -20.3661   21.4696 C   0  0  0  0  0  0  0  0  0  0  0  0
  -22.7548  -20.8278   20.3723 C   0  0  0  0  0  0  0  0  0  0  0  0
  -30.5431  -19.5003   21.6692 C   0  0  0  0  0  0  0  0  0  0  0  0
  -25.6330  -26.9415   19.0132 C   0  0  0  0  0  0  0  0  0  0  0  0
  -23.5398  -22.1101   23.4005 C   0  0  0  0  0  0  0  0  0  0  0  0
  -24.7476  -22.5187   23.9662 C   0  0  0  0  0  0  0  0  0  0  0  0
  -30.8536  -17.6198   19.6320 C   0  0  0  0  0  0  0  0  0  0  0  0
  -26.7220  -27.7472   21.0093 C   0  0  0  0  0  0  0  0  0  0  0  0
  -24.8006  -24.4217   22.4786 C   0  0  0  0  0  0  0  0  0  0  0  0
  -21.6436  -18.7128   20.0131 C   0  0  0  0  0  0  0  0  0  0  0  0
  -31.0581  -17.2486   20.9609 C   0  0  0  0  0  0  0  0  0  0  0  0
  -21.0270  -17.0876   18.1459 C   0  0  0  0  0  0  0  0  0  0  0  0
  -24.1756  -34.1814   16.2018 C   0  0  0  0  0  0  0  0  0  0  0  0
  -24.7550  -28.8846   20.1744 C   0  0  0  0  0  0  0  0  0  0  0  0
  -24.9584  -33.2205   16.8697 C   0  0  0  0  0  0  0  0  0  0  0  0
  -25.7723  -28.7728   21.1329 C   0  0  0  0  0  0  0  0  0  0  0  0
  -30.4175  -12.8638   19.4373 C   0  0  0  0  0  0  0  0  0  0  0  0
  -27.6281  -12.8689   19.4796 C   0  0  0  0  0  0  0  0  0  0  0  0
  -21.7236  -21.2250   21.2236 C   0  0  0  0  0  0  0  0  0  0  0  0
  -26.6533  -26.8378   19.9541 C   0  0  0  0  0  0  0  0  0  0  0  0
  -22.9624  -22.8573   22.3738 C   0  0  0  0  0  0  0  0  0  0  0  0
  -30.3385  -19.8715   20.3403 C   0  0  0  0  0  0  0  0  0  0  0  0
  -25.3779  -23.6745   23.5053 C   0  0  0  0  0  0  0  0  0  0  0  0
  -30.4938  -18.9313   19.3216 C   0  0  0  0  0  0  0  0  0  0  0  0
  -23.5928  -24.0131   21.9129 C   0  0  0  0  0  0  0  0  0  0  0  0
  -21.6030  -17.4153   19.3880 C   0  0  0  0  0  0  0  0  0  0  0  0
  -21.2519  -15.7397   18.0080 C   0  0  0  0  0  0  0  0  0  0  0  0
  -31.4328  -15.8810   21.2841 C   0  0  0  0  0  0  0  0  0  0  0  0
  -20.3492  -17.9267   17.2013 C   0  0  0  0  0  0  0  0  0  0  0  0
  -25.1391  -32.0342   20.3644 C   0  0  0  0  0  0  0  0  0  0  0  0
  -24.5931  -31.5186   23.5201 C   0  0  0  0  0  0  0  0  0  0  0  0
  -24.6516  -29.3491   26.1538 C   0  0  0  0  0  0  0  0  0  0  0  0
  -25.3760  -12.0394   20.2452 C   0  0  0  0  0  0  0  0  0  0  0  0
  -23.7964  -35.4877   16.8533 C   0  0  0  0  0  0  0  0  0  0  0  0
  -23.7093  -29.9590   20.2952 C   0  0  0  0  0  0  0  0  0  0  0  0
  -25.8798  -29.7303   22.2905 C   0  0  0  0  0  0  0  0  0  0  0  0
  -23.9445  -35.4762   18.3726 C   0  0  0  0  0  0  0  0  0  0  0  0
  -21.8446  -11.7574   20.6012 C   0  0  0  0  0  0  0  0  0  0  0  0
  -25.2847  -34.8680   18.7736 C   0  0  0  0  0  0  0  0  0  0  0  0
  -21.3290  -13.1447   20.2116 C   0  0  0  0  0  0  0  0  0  0  0  0
  -23.1661  -11.8370   21.3634 C   0  0  0  0  0  0  0  0  0  0  0  0
  -23.7069  -13.9954   20.3061 C   0  0  0  0  0  0  0  0  0  0  0  0
  -25.3910  -33.4111   18.3073 C   0  0  1  0  0  0  0  0  0  0  0  0
  -24.1764  -31.1580   21.1147 C   0  0  1  0  0  0  0  0  0  0  0  0
  -22.4109  -13.9629   19.4797 C   0  0  2  0  0  0  0  0  0  0  0  0
  -24.1844  -29.2272   28.6164 C   0  0  0  0  0  0  0  0  0  0  0  0
  -27.1982  -33.0031   24.0853 C   0  0  0  0  0  0  0  0  0  0  0  0
  -27.1644  -32.0400   26.3961 C   0  0  0  0  0  0  0  0  0  0  0  0
  -25.3251  -33.5506   25.6493 C   0  0  0  0  0  0  0  0  0  0  0  0
  -22.5624  -27.2876   25.7733 C   0  0  0  0  0  0  0  0  0  0  0  0
  -31.9263  -12.8609   19.4145 C   0  0  0  0  0  0  0  0  0  0  0  0
  -32.5395  -13.7874   20.4617 C   0  0  0  0  0  0  0  0  0  0  0  0
  -27.8897  -25.3857   18.5333 C   0  0  0  0  0  0  0  0  0  1  0  0
  -30.8955  -22.1821   20.4225 C   0  0  0  0  0  0  0  0  0  0  0  0
  -29.3264  -24.9016   18.5038 C   0  0  0  0  0  0  0  0  0  0  0  0
  -30.8035  -23.3271   19.4324 C   0  0  0  0  0  0  0  0  0  0  0  0
  -25.4574  -31.2041   24.7172 C   0  0  1  0  0  0  0  0  0  0  0  0
  -23.6181  -29.0296   27.2189 C   0  0  2  0  0  0  0  0  0  0  0  0
  -26.2856  -32.4324   25.1892 C   0  0  0  0  0  0  0  0  0  0  0  0
  -22.1525  -16.3605   19.9958 N   0  0  0  0  0  0  0  0  0  0  0  0
  -21.9226  -15.3568   19.1322 N   0  0  0  0  0  0  0  0  0  0  0  0
  -24.8373  -30.7674   22.3617 N   0  0  0  0  0  0  0  0  0  0  0  0
  -24.1437  -12.6232   20.6079 N   0  0  0  0  0  0  0  0  0  0  0  0
  -20.9394  -14.8565   17.0361 N   0  0  0  0  0  0  0  0  0  0  0  0
  -20.2053  -19.2884   17.5001 N   0  0  0  0  0  0  0  0  0  0  0  0
  -26.2113  -12.8716   19.5007 N   0  0  0  0  0  0  0  0  0  0  0  0
  -32.1205  -15.1611   20.3003 N   0  0  0  0  0  0  0  0  0  0  0  0
  -24.6335  -32.5434   19.1835 N   0  0  0  0  0  0  0  0  0  0  0  0
  -24.5640  -30.6595   25.7339 N   0  0  0  0  0  0  0  0  0  0  0  0
  -23.1631  -27.6162   27.0917 N   0  3  0  0  0  0  0  0  0  0  0  0
  -31.1275  -15.3859   22.3836 O   0  0  0  0  0  0  0  0  0  0  0  0
  -19.8706  -17.4789   16.1318 O   0  0  0  0  0  0  0  0  0  0  0  0
  -26.2574  -32.2348   20.8237 O   0  0  0  0  0  0  0  0  0  0  0  0
  -23.7282  -32.3934   23.6117 O   0  0  0  0  0  0  0  0  0  0  0  0
  -25.4585  -28.5201   25.7388 O   0  0  0  0  0  0  0  0  0  0  0  0
  -25.6573  -10.8769   20.5477 O   0  0  0  0  0  0  0  0  0  0  0  0
  -21.7630  -22.4508   21.8138 O   0  0  0  0  0  0  0  0  0  0  0  0
  -27.5802  -25.8471   19.8477 O   0  0  0  0  0  0  0  0  0  1  0  0
  -29.9853  -21.1597   20.0358 O   0  0  0  0  0  0  0  0  0  0  0  0
  -29.4718  -23.8220   19.4186 O   0  0  0  0  0  0  0  0  0  0  0  0
  -26.5370  -24.0675   24.0496 F   0  0  0  0  0  0  0  0  0  0  0  0
  -30.2993  -19.2814   18.0427 F   0  0  0  0  0  0  0  0  0  0  0  0
  -23.0423  -24.7357   20.9277 F   0  0  0  0  0  0  0  0  0  0  0  0
  1  2  1  0  0  0  0
  1  6  2  0  0  0  0
  2  7  2  0  0  0  0
  3 13  2  0  0  0  0
  3 22  1  0  0  0  0
  4 14  1  0  0  0  0
  4 22  2  0  0  0  0
  5 15  2  0  0  0  0
  5 23  1  0  0  0  0
  6 25  1  0  0  0  0
  7 27  1  0  0  0  0
  8 16  2  0  0  0  0
  8 26  1  0  0  0  0
  9 11  2  0  0  0  0
  9 29  1  0  0  0  0
 10 12  1  0  0  0  0
 10 29  2  0  0  0  0
 11 30  1  0  0  0  0
 12 30  2  0  0  0  0
 13 31  1  0  0  0  0
 14 31  2  0  0  0  0
 15 34  1  0  0  0  0
 16 32  1  0  0  0  0
 17 18  2  0  0  0  0
 17 33  1  0  0  0  0
 18 35  1  0  0  0  0
 19 23  2  0  0  0  0
 19 36  1  0  0  0  0
 20 28  1  0  0  0  0
 20 32  2  0  0  0  0
 21 35  2  0  0  0  0
 21 37  1  0  0  0  0
 22 38  1  0  0  0  0
 23 40  1  0  0  0  0
 24 38  1  0  0  0  0
 24 39  2  0  0  0  0
 24 41  1  0  0  0  0
 25 27  2  0  0  0  0
 25 46  1  0  0  0  0
 26 28  2  0  0  0  0
 26 47  1  0  0  0  0
 27 55  1  0  0  0  0
 28 48  1  0  0  0  0
 29 63  1  0  0  0  0
 30 78  1  0  0  0  0
 31 89  1  0  0  0  0
 32 90  1  0  0  0  0
 33 37  2  0  0  0  0
 33 89  1  0  0  0  0
 34 36  2  0  0  0  0
 34 91  1  0  0  0  0
 35 93  1  0  0  0  0
 36 94  1  0  0  0  0
 37 95  1  0  0  0  0
 38 72  2  0  0  0  0
 39 73  1  0  0  0  0
 39 76  1  0  0  0  0
 40 79  1  0  0  0  0
 40 83  2  0  0  0  0
 41 77  1  0  0  0  0
 41 84  2  0  0  0  0
 42 56  1  0  0  0  0
 42 80  1  0  0  0  0
 42 85  2  0  0  0  0
 43 69  1  0  0  0  0
 43 74  1  0  0  0  0
 43 86  2  0  0  0  0
 44 70  1  0  0  0  0
 44 81  1  0  0  0  0
 44 87  2  0  0  0  0
 45 75  1  0  0  0  0
 45 78  1  0  0  0  0
 45 88  2  0  0  0  0
 46 49  1  0  0  0  0
 47 56  1  0  0  0  0
 48 74  1  0  0  0  0
 49 51  1  0  0  0  0
 50 52  1  0  0  0  0
 50 53  1  0  0  0  0
 51 55  1  0  0  0  0
 52 57  1  0  0  0  0
 53 75  1  0  0  0  0
 54 57  1  0  0  0  0
 54 75  1  0  0  0  0
 55 80  1  0  0  0  0
 56 74  1  0  0  0  0
 57 73  1  0  0  0  0
 58 70  1  0  0  0  0
 59 71  1  0  0  0  0
 60 71  1  0  0  0  0
 61 71  1  0  0  0  0
 62 82  1  0  0  0  0
 63 64  1  0  0  0  0
 64 79  1  0  0  0  0
 65 67  1  0  0  0  0
 65 90  1  0  0  0  0
 66 68  1  0  0  0  0
 66 91  1  0  0  0  0
 67 92  1  0  0  0  0
 68 92  1  0  0  0  0
 69 71  1  0  0  0  0
 69 81  1  0  0  0  0
 70 82  1  0  0  0  0
 72 73  1  0  0  0  0
M  CHG  1  82   1
M  ISO  4  45 100  65 101  78 100  90 101
M  END
> <Batch ID>
0000

> <Smiles>
CNC(C)C(=O)NC(C(=O)N1Cc2cc([101O:1][101CH2:1]COCCOc3ccc(C(=O)NCCc4ccc([100NH:0][100C:0](=O)N5CCCC(n6nc(-c7ccc(Oc8ccc(F)cc8F)cc7)c(C(N)=O)c6N)C5)cc4)cc3F)ccc2CC1C(=O)NC1CCCc2ccccc21)C(C)(C)C

> <Shape>
0.249

> <Color>
0.095

> <Negative vol penalty>
0.000

$$$$

  -OEChem-04042320113D

 88 96  0     1  0  0  0  0  0999 V2000
  -17.0296  -29.4275   24.5656 C   0  0  0  0  0  0  0  0  0  0  0  0
  -17.4268  -28.2659   23.9109 C   0  0  0  0  0  0  0  0  0  0  0  0
  -27.9257  -26.5654   14.4644 C   0  0  0  0  0  0  0  0  0  0  0  0
  -26.7193  -18.3077   19.0203 C   0  0  0  0  0  0  0  0  0  0  0  0
  -27.7678  -17.2876   20.9430 C   0  0  0  0  0  0  0  0  0  0  0  0
  -29.0519  -26.6243   15.2853 C   0  0  0  0  0  0  0  0  0  0  0  0
  -17.6405  -30.6427   24.2590 C   0  0  0  0  0  0  0  0  0  0  0  0
  -18.4345  -28.3192   22.9485 C   0  0  0  0  0  0  0  0  0  0  0  0
  -22.6457  -24.0273   21.7863 C   0  0  0  0  0  0  0  0  0  0  0  0
  -27.3187  -25.3377   14.2002 C   0  0  0  0  0  0  0  0  0  0  0  0
  -26.3906  -17.0442   18.5292 C   0  0  0  0  0  0  0  0  0  0  0  0
  -27.4391  -16.0241   20.4520 C   0  0  0  0  0  0  0  0  0  0  0  0
  -22.7238  -23.0278   20.8174 C   0  0  0  0  0  0  0  0  0  0  0  0
  -24.7097  -14.0355   20.3253 C   0  0  0  0  0  0  0  0  0  0  0  0
  -24.1758  -13.1115   21.2235 C   0  0  0  0  0  0  0  0  0  0  0  0
  -28.9641  -24.2276   15.5776 C   0  0  0  0  0  0  0  0  0  0  0  0
  -24.0816  -24.4735   19.4442 C   0  0  0  0  0  0  0  0  0  0  0  0
  -26.0237  -11.6179   20.7854 C   0  0  0  0  0  0  0  0  0  0  0  0
  -27.4079  -18.4294   20.2272 C   0  0  0  0  0  0  0  0  0  0  0  0
  -29.5711  -25.4554   15.8419 C   0  0  0  0  0  0  0  0  0  0  0  0
  -26.9733  -20.5436   21.5870 C   0  0  0  0  0  0  0  0  0  0  0  0
  -18.6629  -30.7092   23.2993 C   0  0  0  0  0  0  0  0  0  0  0  0
  -23.2770  -25.2634   21.5863 C   0  0  0  0  0  0  0  0  0  0  0  0
  -19.0587  -29.5366   22.6279 C   0  0  0  0  0  0  0  0  0  0  0  0
  -24.0122  -25.4861   20.4132 C   0  0  0  0  0  0  0  0  0  0  0  0
  -27.8379  -24.1688   14.7568 C   0  0  0  0  0  0  0  0  0  0  0  0
  -26.7505  -15.9024   19.2450 C   0  0  0  0  0  0  0  0  0  0  0  0
  -23.4394  -23.2519   19.6449 C   0  0  0  0  0  0  0  0  0  0  0  0
  -25.9005  -13.7507   19.6571 C   0  0  0  0  0  0  0  0  0  0  0  0
  -24.8328  -11.9027   21.4536 C   0  0  0  0  0  0  0  0  0  0  0  0
  -26.5575  -12.5420   19.8872 C   0  0  0  0  0  0  0  0  0  0  0  0
  -27.7483  -19.7343   20.7347 C   0  0  0  0  0  0  0  0  0  0  0  0
  -27.7331  -21.6727   21.7727 C   0  0  0  0  0  0  0  0  0  0  0  0
  -30.7703  -25.5180   16.7164 C   0  0  0  0  0  0  0  0  0  0  0  0
  -25.6822  -20.2968   22.1595 C   0  0  0  0  0  0  0  0  0  0  0  0
  -22.2879  -28.2750   21.3498 C   0  0  0  0  0  0  0  0  0  0  0  0
  -25.4693  -28.9069   21.3095 C   0  0  0  0  0  0  0  0  0  0  0  0
  -28.6348  -27.8014   20.6739 C   0  0  0  0  0  0  0  0  0  0  0  0
  -31.9505  -24.3490   18.5506 C   0  0  0  0  0  0  0  0  0  0  0  0
  -19.2609  -32.0535   22.9676 C   0  0  0  0  0  0  0  0  0  0  0  0
  -23.2056  -26.3215   22.6529 C   0  0  0  0  0  0  0  0  0  0  0  0
  -24.7248  -26.7884   20.1592 C   0  0  0  0  0  0  0  0  0  0  0  0
  -20.5797  -31.9619   22.2045 C   0  0  0  0  0  0  0  0  0  0  0  0
  -32.2934  -23.1471   21.8574 C   0  0  0  0  0  0  0  0  0  0  0  0
  -20.4675  -30.9557   21.0635 C   0  0  0  0  0  0  0  0  0  0  0  0
  -31.0875  -22.2198   22.0314 C   0  0  0  0  0  0  0  0  0  0  0  0
  -32.8811  -23.0556   20.4498 C   0  0  0  0  0  0  0  0  0  0  0  0
  -30.7176  -22.3217   19.5341 C   0  0  0  0  0  0  0  0  0  0  0  0
  -20.1653  -29.5497   21.5957 C   0  0  1  0  0  0  0  0  0  0  0  0
  -23.4578  -27.7276   22.1175 C   0  0  1  0  0  0  0  0  0  0  0  0
  -30.0469  -22.4293   20.9131 C   0  0  1  0  0  0  0  0  0  0  0  0
  -31.1427  -27.8412   20.5923 C   0  0  0  0  0  0  0  0  0  0  0  0
  -24.9989  -30.4706   18.7319 C   0  0  0  0  0  0  0  0  0  0  0  0
  -27.4651  -30.3817   18.3101 C   0  0  0  0  0  0  0  0  0  0  0  0
  -26.5887  -31.5507   20.3320 C   0  0  0  0  0  0  0  0  0  0  0  0
  -28.8571  -26.6887   23.4073 C   0  0  0  0  0  0  0  0  0  0  0  0
  -27.7492  -21.6938   15.0600 C   0  0  0  0  0  0  0  0  0  0  0  0
  -26.8983  -20.5418   14.5575 C   0  0  0  0  0  0  0  0  0  0  0  0
  -22.4115  -21.3813   18.5960 C   0  0  0  0  0  0  0  0  0  1  0  0
  -22.2907  -20.9041   17.1617 C   0  0  0  0  0  0  0  0  0  0  0  0
  -24.8332  -19.4956   14.9617 C   0  0  0  0  0  0  0  0  0  0  0  0
  -23.4226  -19.7427   15.4609 C   0  0  0  0  0  0  0  0  0  0  0  0
  -26.5222  -29.0252   20.2341 C   0  0  1  0  0  0  0  0  0  0  0  0
  -29.9138  -27.8866   21.4872 C   0  0  2  0  0  0  0  0  0  0  0  0
  -26.3788  -30.3331   19.4057 C   0  0  0  0  0  0  0  0  0  0  0  0
  -28.9110  -20.3011   20.4020 N   0  0  0  0  0  0  0  0  0  0  0  0
  -28.8723  -21.4787   21.0484 N   0  0  0  0  0  0  0  0  0  0  0  0
  -24.6201  -27.7941   21.2293 N   0  0  0  0  0  0  0  0  0  0  0  0
  -31.8343  -23.2749   19.4500 N   0  0  0  0  0  0  0  0  0  0  0  0
  -27.5310  -22.8026   22.4833 N   0  0  0  0  0  0  0  0  0  0  0  0
  -25.0414  -19.0856   21.8655 N   0  0  0  0  0  0  0  0  0  0  0  0
  -27.2435  -22.9670   14.4979 N   0  0  0  0  0  0  0  0  0  0  0  0
  -30.8790  -24.4991   17.6633 N   0  0  0  0  0  0  0  0  0  0  0  0
  -21.3651  -28.9434   22.1316 N   0  0  0  0  0  0  0  0  0  0  0  0
  -27.8094  -28.8813   20.9056 N   0  0  0  0  0  0  0  0  0  0  0  0
  -29.9917  -26.7522   22.4504 N   0  3  0  0  0  0  0  0  0  0  0  0
  -31.5945  -26.4107   16.5382 O   0  0  0  0  0  0  0  0  0  0  0  0
  -25.1065  -21.1329   22.8965 O   0  0  0  0  0  0  0  0  0  0  0  0
  -22.2276  -28.1048   20.1378 O   0  0  0  0  0  0  0  0  0  0  0  0
  -25.4073  -29.7662   22.1923 O   0  0  0  0  0  0  0  0  0  0  0  0
  -28.3939  -26.8718   19.9068 O   0  0  0  0  0  0  0  0  0  0  0  0
  -32.9071  -25.1302   18.5614 O   0  0  0  0  0  0  0  0  0  0  0  0
  -26.4297  -14.6694   18.7662 O   0  0  0  0  0  0  0  0  0  0  0  0
  -23.5167  -22.2783   18.6972 O   0  0  0  0  0  0  0  0  0  1  0  0
  -25.5584  -20.7188   14.9956 O   0  0  0  0  0  0  0  0  0  0  0  0
  -23.4806  -20.2137   16.8000 O   0  0  0  0  0  0  0  0  0  0  0  0
  -24.3208  -11.0162   22.3174 F   0  0  0  0  0  0  0  0  0  0  0  0
  -27.7025  -12.2633   19.2491 F   0  0  0  0  0  0  0  0  0  0  0  0
  1  2  1  0  0  0  0
  1  7  2  0  0  0  0
  2  8  2  0  0  0  0
  3  6  1  0  0  0  0
  3 10  2  0  0  0  0
  4 11  2  0  0  0  0
  4 19  1  0  0  0  0
  5 12  1  0  0  0  0
  5 19  2  0  0  0  0
  6 20  2  0  0  0  0
  7 22  1  0  0  0  0
  8 24  1  0  0  0  0
  9 13  2  0  0  0  0
  9 23  1  0  0  0  0
 10 26  1  0  0  0  0
 11 27  1  0  0  0  0
 12 27  2  0  0  0  0
 13 28  1  0  0  0  0
 14 15  2  0  0  0  0
 14 29  1  0  0  0  0
 15 30  1  0  0  0  0
 16 20  1  0  0  0  0
 16 26  2  0  0  0  0
 17 25  1  0  0  0  0
 17 28  2  0  0  0  0
 18 30  2  0  0  0  0
 18 31  1  0  0  0  0
 19 32  1  0  0  0  0
 20 34  1  0  0  0  0
 21 32  1  0  0  0  0
 21 33  2  0  0  0  0
 21 35  1  0  0  0  0
 22 24  2  0  0  0  0
 22 40  1  0  0  0  0
 23 25  2  0  0  0  0
 23 41  1  0  0  0  0
 24 49  1  0  0  0  0
 25 42  1  0  0  0  0
 26 72  1  0  0  0  0
 27 83  1  0  0  0  0
 28 84  1  0  0  0  0
 29 31  2  0  0  0  0
 29 83  1  0  0  0  0
 30 87  1  0  0  0  0
 31 88  1  0  0  0  0
 32 66  2  0  0  0  0
 33 67  1  0  0  0  0
 33 70  1  0  0  0  0
 34 73  1  0  0  0  0
 34 77  2  0  0  0  0
 35 71  1  0  0  0  0
 35 78  2  0  0  0  0
 36 50  1  0  0  0  0
 36 74  1  0  0  0  0
 36 79  2  0  0  0  0
 37 63  1  0  0  0  0
 37 68  1  0  0  0  0
 37 80  2  0  0  0  0
 38 64  1  0  0  0  0
 38 75  1  0  0  0  0
 38 81  2  0  0  0  0
 39 69  1  0  0  0  0
 39 73  1  0  0  0  0
 39 82  2  0  0  0  0
 40 43  1  0  0  0  0
 41 50  1  0  0  0  0
 42 68  1  0  0  0  0
 43 45  1  0  0  0  0
 44 46  1  0  0  0  0
 44 47  1  0  0  0  0
 45 49  1  0  0  0  0
 46 51  1  0  0  0  0
 47 69  1  0  0  0  0
 48 51  1  0  0  0  0
 48 69  1  0  0  0  0
 49 74  1  0  0  0  0
 50 68  1  0  0  0  0
 51 67  1  0  0  0  0
 52 64  1  0  0  0  0
 53 65  1  0  0  0  0
 54 65  1  0  0  0  0
 55 65  1  0  0  0  0
 56 76  1  0  0  0  0
 57 58  1  0  0  0  0
 57 72  1  0  0  0  0
 58 85  1  0  0  0  0
 59 60  1  0  0  0  0
 59 84  1  0  0  0  0
 60 86  1  0  0  0  0
 61 62  1  0  0  0  0
 61 85  1  0  0  0  0
 62 86  1  0  0  0  0
 63 65  1  0  0  0  0
 63 75  1  0  0  0  0
 64 76  1  0  0  0  0
 66 67  1  0  0  0  0
M  CHG  1  76   1
M  ISO  4  39 100  59 101  73 100  84 101
M  END
> <Batch ID>
0000

> <Smiles>
CNC(C)C(=O)NC(C(=O)N1Cc2cc([101O:1][101CH2:1]COCCOCCNc3cccc(C(=O)[100NH:0][100C:0](=O)N4CCCC(n5nc(-c6ccc(Oc7ccc(F)cc7F)cc6)c(C(N)=O)c5N)C4)c3)ccc2CC1C(=O)NC1CCCc2ccccc21)C(C)(C)C

> <Shape>
0.210

> <Color>
0.081

> <Negative vol penalty>
0.000

$$$$

  -OEChem-04042320113D

 84 91  0     1  0  0  0  0  0999 V2000
  -21.1850  -22.9909   22.2961 C   0  0  0  0  0  0  0  0  0  0  0  0
  -22.4623  -23.4314   21.9645 C   0  0  0  0  0  0  0  0  0  0  0  0
  -24.9895  -14.4440   23.7370 C   0  0  0  0  0  0  0  0  0  0  0  0
  -24.5560  -15.9753   21.9192 C   0  0  0  0  0  0  0  0  0  0  0  0
  -20.1256  -23.8962   22.3379 C   0  0  0  0  0  0  0  0  0  0  0  0
  -22.6806  -24.7776   21.6735 C   0  0  0  0  0  0  0  0  0  0  0  0
  -26.8292  -26.6052   23.9305 C   0  0  0  0  0  0  0  0  0  0  0  0
  -24.7425  -15.4643   24.6555 C   0  0  0  0  0  0  0  0  0  0  0  0
  -24.3090  -16.9956   22.8377 C   0  0  0  0  0  0  0  0  0  0  0  0
  -28.0589  -26.2888   23.3549 C   0  0  0  0  0  0  0  0  0  0  0  0
  -26.1171  -19.0981   24.7720 C   0  0  0  0  0  0  0  0  0  0  0  0
  -26.6922  -20.3447   24.5259 C   0  0  0  0  0  0  0  0  0  0  0  0
  -28.1211  -28.4613   22.3081 C   0  0  0  0  0  0  0  0  0  0  0  0
  -24.4938  -21.3438   24.4493 C   0  0  0  0  0  0  0  0  0  0  0  0
  -24.8963  -14.6995   22.3689 C   0  0  0  0  0  0  0  0  0  0  0  0
  -24.2169  -12.7421   20.8808 C   0  0  0  0  0  0  0  0  0  0  0  0
  -20.3328  -25.2559   22.0567 C   0  0  0  0  0  0  0  0  0  0  0  0
  -26.2300  -27.8500   23.6900 C   0  0  0  0  0  0  0  0  0  0  0  0
  -21.6226  -25.7018   21.7103 C   0  0  0  0  0  0  0  0  0  0  0  0
  -26.8849  -28.7920   22.8839 C   0  0  0  0  0  0  0  0  0  0  0  0
  -24.4022  -16.7401   24.2058 C   0  0  0  0  0  0  0  0  0  0  0  0
  -28.7038  -27.2158   22.5412 C   0  0  0  0  0  0  0  0  0  0  0  0
  -24.7303  -18.9742   24.8566 C   0  0  0  0  0  0  0  0  0  0  0  0
  -25.8806  -21.4676   24.3646 C   0  0  0  0  0  0  0  0  0  0  0  0
  -23.9186  -20.0971   24.6953 C   0  0  0  0  0  0  0  0  0  0  0  0
  -25.1519  -13.6461   21.4196 C   0  0  0  0  0  0  0  0  0  0  0  0
  -24.9540  -11.9489   20.0357 C   0  0  0  0  0  0  0  0  0  0  0  0
  -22.8082  -12.6294   21.1224 C   0  0  0  0  0  0  0  0  0  0  0  0
  -23.5193  -28.8105   22.3360 C   0  0  0  0  0  0  0  0  0  0  0  0
  -24.4815  -31.7242   23.3879 C   0  0  0  0  0  0  0  0  0  0  0  0
  -27.0518  -33.7558   24.3437 C   0  0  0  0  0  0  0  0  0  0  0  0
  -30.0883  -12.8102   17.0781 C   0  0  0  0  0  0  0  0  0  0  0  0
  -19.1476  -26.1885   22.0686 C   0  0  0  0  0  0  0  0  0  0  0  0
  -24.9158  -28.1861   24.3399 C   0  0  0  0  0  0  0  0  0  0  0  0
  -26.2935  -30.1500   22.6108 C   0  0  0  0  0  0  0  0  0  0  0  0
  -19.5345  -27.6645   22.1126 C   0  0  0  0  0  0  0  0  0  0  0  0
  -29.3755  -10.2270   19.4223 C   0  0  0  0  0  0  0  0  0  0  0  0
  -20.6344  -27.9586   21.0974 C   0  0  0  0  0  0  0  0  0  0  0  0
  -28.1278  -10.7287   20.1514 C   0  0  0  0  0  0  0  0  0  0  0  0
  -30.3274  -11.3709   19.0800 C   0  0  0  0  0  0  0  0  0  0  0  0
  -28.4663  -12.9863   19.0616 C   0  0  0  0  0  0  0  0  0  0  0  0
  -21.9041  -27.1585   21.4124 C   0  0  1  0  0  0  0  0  0  0  0  0
  -24.1536  -29.2887   23.6114 C   0  0  1  0  0  0  0  0  0  0  0  0
  -27.4499  -11.8759   19.3783 C   0  0  2  0  0  0  0  0  0  0  0  0
  -27.5318  -36.0957   25.1127 C   0  0  0  0  0  0  0  0  0  0  0  0
  -24.1330  -32.7326   20.5292 C   0  0  0  0  0  0  0  0  0  0  0  0
  -25.4984  -34.7389   21.1446 C   0  0  0  0  0  0  0  0  0  0  0  0
  -23.3282  -34.3083   22.2967 C   0  0  0  0  0  0  0  0  0  0  0  0
  -28.1439  -32.8072   26.9256 C   0  0  0  0  0  0  0  0  0  0  0  0
  -30.2516  -18.7728   16.8315 C   0  0  0  0  0  0  0  0  0  0  0  0
  -30.4332  -23.1568   18.7288 C   0  0  0  0  0  0  0  0  0  0  0  0
  -29.7105  -14.3103   15.1374 C   0  0  0  0  0  0  0  0  0  0  0  0
  -31.1444  -19.9925   16.9893 C   0  0  0  0  0  0  0  0  0  0  0  0
  -31.2336  -22.1477   17.9220 C   0  0  0  0  0  0  0  0  0  0  0  0
  -30.9359  -17.6631   16.0488 C   0  0  0  0  0  0  0  0  0  0  0  0
  -31.2051  -24.4477   18.9533 C   0  0  0  0  0  0  0  0  0  0  0  0
  -30.6748  -15.4802   15.2185 C   0  0  0  0  0  0  0  0  0  0  0  0
  -30.2052  -27.5154   20.7214 C   0  0  0  0  0  0  0  0  0  1  0  0
  -31.0991  -26.5851   19.9244 C   0  0  0  0  0  0  0  0  0  0  0  0
  -25.3209  -32.8426   22.8190 C   0  0  1  0  0  0  0  0  0  0  0  0
  -27.2198  -34.6709   25.5431 C   0  0  2  0  0  0  0  0  0  0  0  0
  -24.5806  -33.6293   21.7007 C   0  0  0  0  0  0  0  0  0  0  0  0
  -26.3885  -13.4465   20.9560 N   0  0  0  0  0  0  0  0  0  0  0  0
  -26.2357  -12.4079   20.1169 N   0  0  0  0  0  0  0  0  0  0  0  0
  -25.0039  -30.4290   23.2640 N   0  0  0  0  0  0  0  0  0  0  0  0
  -29.6228  -12.4249   18.3461 N   0  0  0  0  0  0  0  0  0  0  0  0
  -24.6242  -10.9104   19.2386 N   0  0  0  0  0  0  0  0  0  0  0  0
  -22.2106  -13.5247   22.0200 N   0  0  0  0  0  0  0  0  0  0  0  0
  -22.6275  -27.7689   22.5071 N   0  0  0  0  0  0  0  0  0  0  0  0
  -25.7325  -33.6619   23.9537 N   0  0  0  0  0  0  0  0  0  0  0  0
  -29.3592  -13.8115   16.4483 N   0  0  0  0  0  0  0  0  0  0  0  0
  -28.3308  -34.1883   26.4113 N   0  3  0  0  0  0  0  0  0  0  0  0
  -22.1033  -11.7502   20.5715 O   0  0  0  0  0  0  0  0  0  0  0  0
  -23.8158  -29.3478   21.2753 O   0  0  0  0  0  0  0  0  0  0  0  0
  -23.4054  -31.9907   23.9288 O   0  0  0  0  0  0  0  0  0  0  0  0
  -27.9968  -33.1844   23.8041 O   0  0  0  0  0  0  0  0  0  0  0  0
  -31.0771  -12.2960   16.5442 O   0  0  0  0  0  0  0  0  0  0  0  0
  -24.1609  -17.7359   25.1018 O   0  0  0  0  0  0  0  0  0  0  0  0
  -29.9039  -26.9092   21.9776 O   0  0  0  0  0  0  0  0  0  1  0  0
  -30.4477  -20.9781   17.7399 O   0  0  0  0  0  0  0  0  0  0  0  0
  -30.0697  -16.5411   15.9452 O   0  0  0  0  0  0  0  0  0  0  0  0
  -30.4094  -25.3626   19.6939 O   0  0  0  0  0  0  0  0  0  0  0  0
  -26.4331  -22.6650   24.1298 F   0  0  0  0  0  0  0  0  0  0  0  0
  -22.5858  -19.9845   24.7767 F   0  0  0  0  0  0  0  0  0  0  0  0
  1  2  1  0  0  0  0
  1  5  2  0  0  0  0
  2  6  2  0  0  0  0
  3  8  2  0  0  0  0
  3 15  1  0  0  0  0
  4  9  1  0  0  0  0
  4 15  2  0  0  0  0
  5 17  1  0  0  0  0
  6 19  1  0  0  0  0
  7 10  2  0  0  0  0
  7 18  1  0  0  0  0
  8 21  1  0  0  0  0
  9 21  2  0  0  0  0
 10 22  1  0  0  0  0
 11 12  2  0  0  0  0
 11 23  1  0  0  0  0
 12 24  1  0  0  0  0
 13 20  1  0  0  0  0
 13 22  2  0  0  0  0
 14 24  2  0  0  0  0
 14 25  1  0  0  0  0
 15 26  1  0  0  0  0
 16 26  1  0  0  0  0
 16 27  2  0  0  0  0
 16 28  1  0  0  0  0
 17 19  2  0  0  0  0
 17 33  1  0  0  0  0
 18 20  2  0  0  0  0
 18 34  1  0  0  0  0
 19 42  1  0  0  0  0
 20 35  1  0  0  0  0
 21 78  1  0  0  0  0
 22 79  1  0  0  0  0
 23 25  2  0  0  0  0
 23 78  1  0  0  0  0
 24 83  1  0  0  0  0
 25 84  1  0  0  0  0
 26 63  2  0  0  0  0
 27 64  1  0  0  0  0
 27 67  1  0  0  0  0
 28 68  1  0  0  0  0
 28 73  2  0  0  0  0
 29 43  1  0  0  0  0
 29 69  1  0  0  0  0
 29 74  2  0  0  0  0
 30 60  1  0  0  0  0
 30 65  1  0  0  0  0
 30 75  2  0  0  0  0
 31 61  1  0  0  0  0
 31 70  1  0  0  0  0
 31 76  2  0  0  0  0
 32 66  1  0  0  0  0
 32 71  1  0  0  0  0
 32 77  2  0  0  0  0
 33 36  1  0  0  0  0
 34 43  1  0  0  0  0
 35 65  1  0  0  0  0
 36 38  1  0  0  0  0
 37 39  1  0  0  0  0
 37 40  1  0  0  0  0
 38 42  1  0  0  0  0
 39 44  1  0  0  0  0
 40 66  1  0  0  0  0
 41 44  1  0  0  0  0
 41 66  1  0  0  0  0
 42 69  1  0  0  0  0
 43 65  1  0  0  0  0
 44 64  1  0  0  0  0
 45 61  1  0  0  0  0
 46 62  1  0  0  0  0
 47 62  1  0  0  0  0
 48 62  1  0  0  0  0
 49 72  1  0  0  0  0
 50 53  1  0  0  0  0
 50 55  1  0  0  0  0
 51 54  1  0  0  0  0
 51 56  1  0  0  0  0
 52 57  1  0  0  0  0
 52 71  1  0  0  0  0
 53 80  1  0  0  0  0
 54 80  1  0  0  0  0
 55 81  1  0  0  0  0
 56 82  1  0  0  0  0
 57 81  1  0  0  0  0
 58 59  1  0  0  0  0
 58 79  1  0  0  0  0
 59 82  1  0  0  0  0
 60 62  1  0  0  0  0
 60 70  1  0  0  0  0
 61 72  1  0  0  0  0
 63 64  1  0  0  0  0
M  CHG  1  72   1
M  ISO  4  32 100  58 101  71 100  79 101
M  END
> <Batch ID>
0000

> <Smiles>
CNC(C)C(=O)NC(C(=O)N1Cc2cc([101O:1][101CH2:1]COCCCOCCCOCC[100NH:0][100C:0](=O)N3CCCC(n4nc(-c5ccc(Oc6ccc(F)cc6F)cc5)c(C(N)=O)c4N)C3)ccc2CC1C(=O)NC1CCCc2ccccc21)C(C)(C)C

> <Shape>
0.229

> <Color>
0.088

> <Negative vol penalty>
0.000

$$$$

  -OEChem-04042320113D

 79 86  0     1  0  0  0  0  0999 V2000
  -24.1488  -21.5364   17.0982 C   0  0  0  0  0  0  0  0  0  0  0  0
  -25.2246  -20.6811   16.8822 C   0  0  0  0  0  0  0  0  0  0  0  0
  -27.9659  -23.3978   17.2597 C   0  0  0  0  0  0  0  0  0  0  0  0
  -29.4539  -24.6259   18.7138 C   0  0  0  0  0  0  0  0  0  0  0  0
  -23.4472  -21.4819   18.3019 C   0  0  0  0  0  0  0  0  0  0  0  0
  -25.6000  -19.7715   17.8701 C   0  0  0  0  0  0  0  0  0  0  0  0
  -28.3657  -13.2105   18.6580 C   0  0  0  0  0  0  0  0  0  0  0  0
  -27.1215  -24.5056   17.1879 C   0  0  0  0  0  0  0  0  0  0  0  0
  -28.6095  -25.7339   18.6420 C   0  0  0  0  0  0  0  0  0  0  0  0
  -29.3989  -12.5497   19.3211 C   0  0  0  0  0  0  0  0  0  0  0  0
  -25.6958  -26.7397   20.0310 C   0  0  0  0  0  0  0  0  0  0  0  0
  -25.3996  -27.4069   21.2196 C   0  0  0  0  0  0  0  0  0  0  0  0
  -28.0640  -12.4905   21.3295 C   0  0  0  0  0  0  0  0  0  0  0  0
  -26.3659  -29.4320   20.3237 C   0  0  0  0  0  0  0  0  0  0  0  0
  -29.1321  -23.4578   18.0227 C   0  0  0  0  0  0  0  0  0  0  0  0
  -31.0851  -22.0112   17.2476 C   0  0  0  0  0  0  0  0  0  0  0  0
  -23.8082  -20.5645   19.3012 C   0  0  0  0  0  0  0  0  0  0  0  0
  -27.1762  -13.5265   19.3300 C   0  0  0  0  0  0  0  0  0  0  0  0
  -24.9034  -19.7056   19.0888 C   0  0  0  0  0  0  0  0  0  0  0  0
  -27.0163  -13.1531   20.6720 C   0  0  0  0  0  0  0  0  0  0  0  0
  -27.4433  -25.6737   17.8791 C   0  0  0  0  0  0  0  0  0  0  0  0
  -29.2493  -12.1921   20.6578 C   0  0  0  0  0  0  0  0  0  0  0  0
  -26.3271  -27.4186   18.9888 C   0  0  0  0  0  0  0  0  0  0  0  0
  -25.7346  -28.7530   21.3659 C   0  0  0  0  0  0  0  0  0  0  0  0
  -26.6621  -28.7648   19.1351 C   0  0  0  0  0  0  0  0  0  0  0  0
  -30.0044  -22.3135   18.0977 C   0  0  0  0  0  0  0  0  0  0  0  0
  -31.5855  -20.8289   17.7355 C   0  0  0  0  0  0  0  0  0  0  0  0
  -31.5913  -22.7346   16.1179 C   0  0  0  0  0  0  0  0  0  0  0  0
  -25.6635  -16.2239   20.0648 C   0  0  0  0  0  0  0  0  0  0  0  0
  -23.3609  -14.1909   21.1077 C   0  0  0  0  0  0  0  0  0  0  0  0
  -22.5428  -11.0812   22.2511 C   0  0  0  0  0  0  0  0  0  0  0  0
  -31.4488  -18.4269   23.1270 C   0  0  0  0  0  0  0  0  0  0  0  0
  -23.0495  -20.5751   20.6047 C   0  0  0  0  0  0  0  0  0  0  0  0
  -26.0608  -14.2159   18.5930 C   0  0  0  0  0  0  0  0  0  0  0  0
  -25.7510  -13.4512   21.4328 C   0  0  0  0  0  0  0  0  0  0  0  0
  -23.2764  -19.3255   21.4516 C   0  0  0  0  0  0  0  0  0  0  0  0
  -30.2441  -16.8806   20.0848 C   0  0  0  0  0  0  0  0  0  0  0  0
  -24.7628  -18.9900   21.5206 C   0  0  0  0  0  0  0  0  0  0  0  0
  -30.1510  -18.0857   19.1472 C   0  0  0  0  0  0  0  0  0  0  0  0
  -29.8381  -17.2542   21.5074 C   0  0  0  0  0  0  0  0  0  0  0  0
  -30.5135  -19.5977   21.1529 C   0  0  0  0  0  0  0  0  0  0  0  0
  -25.3256  -18.6882   20.1264 C   0  0  1  0  0  0  0  0  0  0  0  0
  -25.0931  -14.9450   19.5201 C   0  0  1  0  0  0  0  0  0  0  0  0
  -30.9328  -19.2904   19.7038 C   0  0  2  0  0  0  0  0  0  0  0  0
  -20.5878   -9.7300   23.0570 C   0  0  0  0  0  0  0  0  0  0  0  0
  -23.4523  -15.6580   23.7815 C   0  0  0  0  0  0  0  0  0  0  0  0
  -22.2294  -13.7271   24.8035 C   0  0  0  0  0  0  0  0  0  0  0  0
  -21.1535  -15.0660   22.9944 C   0  0  0  0  0  0  0  0  0  0  0  0
  -22.8469   -9.1181   20.0574 C   0  0  0  0  0  0  0  0  0  0  0  0
  -32.3027  -17.1272   25.0605 C   0  0  0  0  0  0  0  0  0  0  0  0
  -32.1882  -15.7446   25.6773 C   0  0  0  0  0  0  0  0  0  0  0  0
  -31.5886  -11.8245   20.8775 C   0  0  0  0  0  0  0  0  0  1  0  0
  -32.5314  -11.6696   22.0552 C   0  0  0  0  0  0  0  0  0  0  0  0
  -32.5348  -13.4559   25.2720 C   0  0  0  0  0  0  0  0  0  0  0  0
  -32.9891  -12.4631   24.2193 C   0  0  0  0  0  0  0  0  0  0  0  0
  -23.0548  -13.5030   22.4161 C   0  0  1  0  0  0  0  0  0  0  0  0
  -21.4344  -10.1222   21.8561 C   0  0  2  0  0  0  0  0  0  0  0  0
  -22.4972  -14.4845   23.4854 C   0  0  0  0  0  0  0  0  0  0  0  0
  -29.8279  -21.3970   19.0531 N   0  0  0  0  0  0  0  0  0  0  0  0
  -30.8043  -20.5072   18.8063 N   0  0  0  0  0  0  0  0  0  0  0  0
  -24.6917  -14.1324   20.6703 N   0  0  0  0  0  0  0  0  0  0  0  0
  -30.6323  -18.3952   21.9843 N   0  0  0  0  0  0  0  0  0  0  0  0
  -32.6130  -20.0433   17.3488 N   0  0  0  0  0  0  0  0  0  0  0  0
  -30.9593  -23.9311   15.7528 N   0  0  0  0  0  0  0  0  0  0  0  0
  -24.9522  -17.3538   19.7087 N   0  0  0  0  0  0  0  0  0  0  0  0
  -22.1594  -12.3966   22.0959 N   0  0  0  0  0  0  0  0  0  0  0  0
  -31.5012  -17.2497   23.8632 N   0  0  0  0  0  0  0  0  0  0  0  0
  -22.0095   -8.8825   21.2616 N   0  3  0  0  0  0  0  0  0  0  0  0
  -32.5648  -22.3234   15.4420 O   0  0  0  0  0  0  0  0  0  0  0  0
  -26.6733  -16.1880   20.7581 O   0  0  0  0  0  0  0  0  0  0  0  0
  -22.4513  -14.7531   20.4927 O   0  0  0  0  0  0  0  0  0  0  0  0
  -23.6378  -10.7016   22.6602 O   0  0  0  0  0  0  0  0  0  0  0  0
  -32.0886  -19.4291   23.4636 O   0  0  0  0  0  0  0  0  0  0  0  0
  -26.6198  -26.7551   17.8091 O   0  0  0  0  0  0  0  0  0  0  0  0
  -30.2564  -11.5476   21.3076 O   0  0  0  0  0  0  0  0  0  1  0  0
  -32.6238  -14.7714   24.7383 O   0  0  0  0  0  0  0  0  0  0  0  0
  -32.1372  -12.5659   23.0870 O   0  0  0  0  0  0  0  0  0  0  0  0
  -25.4487  -29.3940   22.5068 F   0  0  0  0  0  0  0  0  0  0  0  0
  -27.2676  -29.4226   18.1369 F   0  0  0  0  0  0  0  0  0  0  0  0
  1  2  1  0  0  0  0
  1  5  2  0  0  0  0
  2  6  2  0  0  0  0
  3  8  2  0  0  0  0
  3 15  1  0  0  0  0
  4  9  1  0  0  0  0
  4 15  2  0  0  0  0
  5 17  1  0  0  0  0
  6 19  1  0  0  0  0
  7 10  2  0  0  0  0
  7 18  1  0  0  0  0
  8 21  1  0  0  0  0
  9 21  2  0  0  0  0
 10 22  1  0  0  0  0
 11 12  2  0  0  0  0
 11 23  1  0  0  0  0
 12 24  1  0  0  0  0
 13 20  1  0  0  0  0
 13 22  2  0  0  0  0
 14 24  2  0  0  0  0
 14 25  1  0  0  0  0
 15 26  1  0  0  0  0
 16 26  1  0  0  0  0
 16 27  2  0  0  0  0
 16 28  1  0  0  0  0
 17 19  2  0  0  0  0
 17 33  1  0  0  0  0
 18 20  2  0  0  0  0
 18 34  1  0  0  0  0
 19 42  1  0  0  0  0
 20 35  1  0  0  0  0
 21 74  1  0  0  0  0
 22 75  1  0  0  0  0
 23 25  2  0  0  0  0
 23 74  1  0  0  0  0
 24 78  1  0  0  0  0
 25 79  1  0  0  0  0
 26 59  2  0  0  0  0
 27 60  1  0  0  0  0
 27 63  1  0  0  0  0
 28 64  1  0  0  0  0
 28 69  2  0  0  0  0
 29 43  1  0  0  0  0
 29 65  1  0  0  0  0
 29 70  2  0  0  0  0
 30 56  1  0  0  0  0
 30 61  1  0  0  0  0
 30 71  2  0  0  0  0
 31 57  1  0  0  0  0
 31 66  1  0  0  0  0
 31 72  2  0  0  0  0
 32 62  1  0  0  0  0
 32 67  1  0  0  0  0
 32 73  2  0  0  0  0
 33 36  1  0  0  0  0
 34 43  1  0  0  0  0
 35 61  1  0  0  0  0
 36 38  1  0  0  0  0
 37 39  1  0  0  0  0
 37 40  1  0  0  0  0
 38 42  1  0  0  0  0
 39 44  1  0  0  0  0
 40 62  1  0  0  0  0
 41 44  1  0  0  0  0
 41 62  1  0  0  0  0
 42 65  1  0  0  0  0
 43 61  1  0  0  0  0
 44 60  1  0  0  0  0
 45 57  1  0  0  0  0
 46 58  1  0  0  0  0
 47 58  1  0  0  0  0
 48 58  1  0  0  0  0
 49 68  1  0  0  0  0
 50 51  1  0  0  0  0
 50 67  1  0  0  0  0
 51 76  1  0  0  0  0
 52 53  1  0  0  0  0
 52 75  1  0  0  0  0
 53 77  1  0  0  0  0
 54 55  1  0  0  0  0
 54 76  1  0  0  0  0
 55 77  1  0  0  0  0
 56 58  1  0  0  0  0
 56 66  1  0  0  0  0
 57 68  1  0  0  0  0
 59 60  1  0  0  0  0
M  CHG  1  68   1
M  ISO  4  32 100  52 101  67 100  75 101
M  END
> <Batch ID>
0000

> <Smiles>
CNC(C)C(=O)NC(C(=O)N1Cc2cc([101O:1][101CH2:1]COCCOCC[100NH:0][100C:0](=O)N3CCCC(n4nc(-c5ccc(Oc6ccc(F)cc6F)cc5)c(C(N)=O)c4N)C3)ccc2CC1C(=O)NC1CCCc2ccccc21)C(C)(C)C

> <Shape>
0.193

> <Color>
0.068

> <Negative vol penalty>
0.000

$$$$

  -OEChem-04042320113D

 76 83  0     1  0  0  0  0  0999 V2000
  -18.2471  -23.7548   20.5813 C   0  0  0  0  0  0  0  0  0  0  0  0
  -19.6060  -23.4958   20.7292 C   0  0  0  0  0  0  0  0  0  0  0  0
  -23.1324   -9.8187   19.9311 C   0  0  0  0  0  0  0  0  0  0  0  0
  -23.8839   -9.8704   22.2267 C   0  0  0  0  0  0  0  0  0  0  0  0
  -17.3769  -23.5374   21.6487 C   0  0  0  0  0  0  0  0  0  0  0  0
  -20.0956  -23.0202   21.9451 C   0  0  0  0  0  0  0  0  0  0  0  0
  -23.3732  -19.2044   21.3607 C   0  0  0  0  0  0  0  0  0  0  0  0
  -22.4117   -8.6536   20.1932 C   0  0  0  0  0  0  0  0  0  0  0  0
  -23.1631   -8.7052   22.4888 C   0  0  0  0  0  0  0  0  0  0  0  0
  -24.6718  -19.5339   20.9749 C   0  0  0  0  0  0  0  0  0  0  0  0
  -21.2306   -5.9446   23.8535 C   0  0  0  0  0  0  0  0  0  0  0  0
  -20.4713   -5.9000   25.0226 C   0  0  0  0  0  0  0  0  0  0  0  0
  -25.4000  -19.3197   23.2647 C   0  0  0  0  0  0  0  0  0  0  0  0
  -19.1894   -7.8017   24.2626 C   0  0  0  0  0  0  0  0  0  0  0  0
  -23.8685  -10.4271   20.9478 C   0  0  0  0  0  0  0  0  0  0  0  0
  -24.1584  -12.9571   20.7970 C   0  0  0  0  0  0  0  0  0  0  0  0
  -17.8548  -23.0497   22.8753 C   0  0  0  0  0  0  0  0  0  0  0  0
  -23.0756  -18.9403   22.7053 C   0  0  0  0  0  0  0  0  0  0  0  0
  -19.2312  -22.7974   23.0304 C   0  0  0  0  0  0  0  0  0  0  0  0
  -24.0974  -18.9846   23.6645 C   0  0  0  0  0  0  0  0  0  0  0  0
  -22.4270   -8.0969   21.4720 C   0  0  0  0  0  0  0  0  0  0  0  0
  -25.6849  -19.5945   21.9273 C   0  0  0  0  0  0  0  0  0  0  0  0
  -20.9694   -6.9177   22.8888 C   0  0  0  0  0  0  0  0  0  0  0  0
  -19.4507   -6.8285   25.2272 C   0  0  0  0  0  0  0  0  0  0  0  0
  -19.9488   -7.8462   23.0934 C   0  0  0  0  0  0  0  0  0  0  0  0
  -24.6137  -11.6303   20.6776 C   0  0  0  0  0  0  0  0  0  0  0  0
  -25.2360  -13.7244   20.4278 C   0  0  0  0  0  0  0  0  0  0  0  0
  -22.8760  -13.4516   21.2052 C   0  0  0  0  0  0  0  0  0  0  0  0
  -21.1855  -20.2705   24.8875 C   0  0  0  0  0  0  0  0  0  0  0  0
  -22.0975  -17.7172   26.6683 C   0  0  0  0  0  0  0  0  0  0  0  0
  -24.4090  -15.2786   27.2654 C   0  0  0  0  0  0  0  0  0  0  0  0
  -30.7194  -14.7705   20.7745 C   0  0  0  0  0  0  0  0  0  0  0  0
  -16.8829  -22.8752   24.0153 C   0  0  0  0  0  0  0  0  0  0  0  0
  -21.6751  -18.5601   23.1012 C   0  0  0  0  0  0  0  0  0  0  0  0
  -23.8340  -18.6898   25.1179 C   0  0  0  0  0  0  0  0  0  0  0  0
  -17.4264  -22.0143   25.1527 C   0  0  0  0  0  0  0  0  0  0  0  0
  -29.6095  -12.4488   18.2491 C   0  0  0  0  0  0  0  0  0  0  0  0
  -18.8454  -22.4414   25.5144 C   0  0  0  0  0  0  0  0  0  0  0  0
  -28.1867  -12.1087   18.6912 C   0  0  0  0  0  0  0  0  0  0  0  0
  -30.5256  -12.6838   19.4458 C   0  0  0  0  0  0  0  0  0  0  0  0
  -28.5975  -13.3934   20.8372 C   0  0  0  0  0  0  0  0  0  0  0  0
  -19.7968  -22.2572   24.3260 C   0  0  1  0  0  0  0  0  0  0  0  0
  -21.3817  -18.8136   24.5766 C   0  0  1  0  0  0  0  0  0  0  0  0
  -27.6379  -13.1761   19.6545 C   0  0  2  0  0  0  0  0  0  0  0  0
  -24.8981  -13.3641   28.8123 C   0  0  0  0  0  0  0  0  0  0  0  0
  -22.9338  -19.6896   28.8409 C   0  0  0  0  0  0  0  0  0  0  0  0
  -24.2502  -17.8473   29.9092 C   0  0  0  0  0  0  0  0  0  0  0  0
  -21.7746  -17.6398   29.6829 C   0  0  0  0  0  0  0  0  0  0  0  0
  -24.3668  -13.3221   25.0451 C   0  0  0  0  0  0  0  0  0  0  0  0
  -27.3539  -19.5507   20.2337 C   0  0  0  0  0  0  0  0  0  1  0  0
  -30.7493  -16.7464   22.0986 C   0  0  0  0  0  0  0  0  0  0  0  0
  -28.8458  -19.2787   20.2267 C   0  0  0  0  0  0  0  0  0  0  0  0
  -30.5140  -17.9005   21.1434 C   0  0  0  0  0  0  0  0  0  0  0  0
  -23.2291  -17.4309   27.6256 C   0  0  1  0  0  0  0  0  0  0  0  0
  -24.2613  -13.7856   27.4972 C   0  0  2  0  0  0  0  0  0  0  0  0
  -23.0518  -18.1594   28.9877 C   0  0  0  0  0  0  0  0  0  0  0  0
  -25.8817  -11.5555   20.2647 N   0  0  0  0  0  0  0  0  0  0  0  0
  -26.2324  -12.8449   20.1213 N   0  0  0  0  0  0  0  0  0  0  0  0
  -22.4474  -18.3291   25.4563 N   0  0  0  0  0  0  0  0  0  0  0  0
  -29.9576  -13.6734   20.3603 N   0  0  0  0  0  0  0  0  0  0  0  0
  -25.4191  -15.0590   20.3386 N   0  0  0  0  0  0  0  0  0  0  0  0
  -21.8820  -12.5260   21.5506 N   0  0  0  0  0  0  0  0  0  0  0  0
  -20.1580  -20.8635   24.1790 N   0  0  0  0  0  0  0  0  0  0  0  0
  -23.3164  -15.9784   27.7317 N   0  0  0  0  0  0  0  0  0  0  0  0
  -24.9120  -13.0232   26.3943 N   0  3  0  0  0  0  0  0  0  0  0  0
  -22.6141  -14.6777   21.2462 O   0  0  0  0  0  0  0  0  0  0  0  0
  -21.9116  -20.8158   25.7104 O   0  0  0  0  0  0  0  0  0  0  0  0
  -20.9465  -17.4029   26.9813 O   0  0  0  0  0  0  0  0  0  0  0  0
  -25.3968  -15.7746   26.7279 O   0  0  0  0  0  0  0  0  0  0  0  0
  -31.8774  -14.9834   20.4196 O   0  0  0  0  0  0  0  0  0  0  0  0
  -21.7237   -6.9601   21.7282 O   0  0  0  0  0  0  0  0  0  0  0  0
  -26.9531  -19.9165   21.5535 O   0  0  0  0  0  0  0  0  0  1  0  0
  -30.0368  -15.5966   21.6276 O   0  0  0  0  0  0  0  0  0  0  0  0
  -29.1255  -18.1997   21.1103 O   0  0  0  0  0  0  0  0  0  0  0  0
  -18.7206   -6.7847   26.3493 F   0  0  0  0  0  0  0  0  0  0  0  0
  -19.6924   -8.7827   22.1697 F   0  0  0  0  0  0  0  0  0  0  0  0
  1  2  1  0  0  0  0
  1  5  2  0  0  0  0
  2  6  2  0  0  0  0
  3  8  2  0  0  0  0
  3 15  1  0  0  0  0
  4  9  1  0  0  0  0
  4 15  2  0  0  0  0
  5 17  1  0  0  0  0
  6 19  1  0  0  0  0
  7 10  2  0  0  0  0
  7 18  1  0  0  0  0
  8 21  1  0  0  0  0
  9 21  2  0  0  0  0
 10 22  1  0  0  0  0
 11 12  2  0  0  0  0
 11 23  1  0  0  0  0
 12 24  1  0  0  0  0
 13 20  1  0  0  0  0
 13 22  2  0  0  0  0
 14 24  2  0  0  0  0
 14 25  1  0  0  0  0
 15 26  1  0  0  0  0
 16 26  1  0  0  0  0
 16 27  2  0  0  0  0
 16 28  1  0  0  0  0
 17 19  2  0  0  0  0
 17 33  1  0  0  0  0
 18 20  2  0  0  0  0
 18 34  1  0  0  0  0
 19 42  1  0  0  0  0
 20 35  1  0  0  0  0
 21 71  1  0  0  0  0
 22 72  1  0  0  0  0
 23 25  2  0  0  0  0
 23 71  1  0  0  0  0
 24 75  1  0  0  0  0
 25 76  1  0  0  0  0
 26 57  2  0  0  0  0
 27 58  1  0  0  0  0
 27 61  1  0  0  0  0
 28 62  1  0  0  0  0
 28 66  2  0  0  0  0
 29 43  1  0  0  0  0
 29 63  1  0  0  0  0
 29 67  2  0  0  0  0
 30 54  1  0  0  0  0
 30 59  1  0  0  0  0
 30 68  2  0  0  0  0
 31 55  1  0  0  0  0
 31 64  1  0  0  0  0
 31 69  2  0  0  0  0
 32 60  1  0  0  0  0
 32 70  2  0  0  0  0
 32 73  1  0  0  0  0
 33 36  1  0  0  0  0
 34 43  1  0  0  0  0
 35 59  1  0  0  0  0
 36 38  1  0  0  0  0
 37 39  1  0  0  0  0
 37 40  1  0  0  0  0
 38 42  1  0  0  0  0
 39 44  1  0  0  0  0
 40 60  1  0  0  0  0
 41 44  1  0  0  0  0
 41 60  1  0  0  0  0
 42 63  1  0  0  0  0
 43 59  1  0  0  0  0
 44 58  1  0  0  0  0
 45 55  1  0  0  0  0
 46 56  1  0  0  0  0
 47 56  1  0  0  0  0
 48 56  1  0  0  0  0
 49 65  1  0  0  0  0
 50 52  1  0  0  0  0
 50 72  1  0  0  0  0
 51 53  1  0  0  0  0
 51 73  1  0  0  0  0
 52 74  1  0  0  0  0
 53 74  1  0  0  0  0
 54 56  1  0  0  0  0
 54 64  1  0  0  0  0
 55 65  1  0  0  0  0
 57 58  1  0  0  0  0
M  CHG  1  65   1
M  ISO  4  32 100  50 101  72 101  73 100
M  END
> <Batch ID>
0000

> <Smiles>
CNC(C)C(=O)NC(C(=O)N1Cc2cc([101O:1][101CH2:1]COCC[100O:0][100C:0](=O)N3CCCC(n4nc(-c5ccc(Oc6ccc(F)cc6F)cc5)c(C(N)=O)c4N)C3)ccc2CC1C(=O)NC1CCCc2ccccc21)C(C)(C)C

> <Shape>
0.187

> <Color>
0.202

> <Negative vol penalty>
0.000

$$$$

  -OEChem-04042320113D

 80 88  0     1  0  0  0  0  0999 V2000
  -23.6037  -32.7327   26.6389 C   0  0  0  0  0  0  0  0  0  0  0  0
  -24.8776  -32.2842   26.3049 C   0  0  0  0  0  0  0  0  0  0  0  0
  -24.0384   -9.7255   21.7182 C   0  0  0  0  0  0  0  0  0  0  0  0
  -24.6425  -10.9968   23.6819 C   0  0  0  0  0  0  0  0  0  0  0  0
  -22.4822  -32.0179   26.2204 C   0  0  0  0  0  0  0  0  0  0  0  0
  -25.0306  -31.1199   25.5529 C   0  0  0  0  0  0  0  0  0  0  0  0
  -29.3094  -28.1866   20.6129 C   0  0  0  0  0  0  0  0  0  0  0  0
  -28.4287  -19.3882   20.5060 C   0  0  0  0  0  0  0  0  0  0  0  0
  -30.7877  -18.9562   20.2141 C   0  0  0  0  0  0  0  0  0  0  0  0
  -23.6100   -8.6752   22.5300 C   0  0  0  0  0  0  0  0  0  0  0  0
  -24.2141   -9.9465   24.4937 C   0  0  0  0  0  0  0  0  0  0  0  0
  -30.0416  -27.0241   20.3755 C   0  0  0  0  0  0  0  0  0  0  0  0
  -28.7132  -20.7096   20.8503 C   0  0  0  0  0  0  0  0  0  0  0  0
  -31.0723  -20.2777   20.5583 C   0  0  0  0  0  0  0  0  0  0  0  0
  -20.8982   -7.9212   24.4037 C   0  0  0  0  0  0  0  0  0  0  0  0
  -19.6779   -7.3201   24.0957 C   0  0  0  0  0  0  0  0  0  0  0  0
  -28.0298  -25.9145   19.6402 C   0  0  0  0  0  0  0  0  0  0  0  0
  -20.7990   -5.2023   23.7872 C   0  0  0  0  0  0  0  0  0  0  0  0
  -24.5547  -10.8863   22.2942 C   0  0  0  0  0  0  0  0  0  0  0  0
  -24.2291  -13.0552   20.9913 C   0  0  0  0  0  0  0  0  0  0  0  0
  -22.6213  -30.8496   25.4547 C   0  0  0  0  0  0  0  0  0  0  0  0
  -27.9277  -28.2185   20.3757 C   0  0  0  0  0  0  0  0  0  0  0  0
  -23.9099  -30.3881   25.1249 C   0  0  0  0  0  0  0  0  0  0  0  0
  -27.2828  -27.0794   19.8730 C   0  0  0  0  0  0  0  0  0  0  0  0
  -29.4659  -18.5115   20.1880 C   0  0  0  0  0  0  0  0  0  0  0  0
  -23.6979   -8.7857   23.9177 C   0  0  0  0  0  0  0  0  0  0  0  0
  -30.0350  -21.1544   20.8764 C   0  0  0  0  0  0  0  0  0  0  0  0
  -29.4013  -25.8869   19.8918 C   0  0  0  0  0  0  0  0  0  0  0  0
  -22.0690   -7.1629   24.4033 C   0  0  0  0  0  0  0  0  0  0  0  0
  -19.6282   -5.9606   23.7875 C   0  0  0  0  0  0  0  0  0  0  0  0
  -22.0194   -5.8035   24.0952 C   0  0  0  0  0  0  0  0  0  0  0  0
  -24.9979  -11.9714   21.4562 C   0  0  0  0  0  0  0  0  0  0  0  0
  -25.1050  -13.8005   20.2404 C   0  0  0  0  0  0  0  0  0  0  0  0
  -22.8468  -13.3610   21.2181 C   0  0  0  0  0  0  0  0  0  0  0  0
  -25.3524  -28.6868   22.1791 C   0  0  0  0  0  0  0  0  0  0  0  0
  -23.8160  -28.5983   19.3236 C   0  0  0  0  0  0  0  0  0  0  0  0
  -23.8009  -27.5601   16.0727 C   0  0  0  0  0  0  0  0  0  0  0  0
  -30.0881  -16.1705   19.4959 C   0  0  0  0  0  0  0  0  0  0  0  0
  -21.3810  -30.0848   25.0655 C   0  0  0  0  0  0  0  0  0  0  0  0
  -27.1569  -29.4884   20.6116 C   0  0  0  0  0  0  0  0  0  0  0  0
  -25.8050  -27.0680   19.5827 C   0  0  0  0  0  0  0  0  0  0  0  0
  -21.6176  -29.0659   23.9537 C   0  0  0  0  0  0  0  0  0  0  0  0
  -29.7771  -12.7363   18.6092 C   0  0  0  0  0  0  0  0  0  0  0  0
  -22.8728  -28.2471   24.2383 C   0  0  0  0  0  0  0  0  0  0  0  0
  -28.4427  -12.3203   19.2326 C   0  0  0  0  0  0  0  0  0  0  0  0
  -30.5327  -13.7256   19.4945 C   0  0  0  0  0  0  0  0  0  0  0  0
  -28.4296  -14.4937   20.5222 C   0  0  0  0  0  0  0  0  0  0  0  0
  -24.1161  -29.1431   24.2896 C   0  0  1  0  0  0  0  0  0  0  0  0
  -25.6647  -29.2513   20.8221 C   0  0  1  0  0  0  0  0  0  0  0  0
  -27.6025  -13.5476   19.6365 C   0  0  2  0  0  0  0  0  0  0  0  0
  -22.3923  -27.6068   13.9963 C   0  0  0  0  0  0  0  0  0  0  0  0
  -22.0062  -26.4448   20.5056 C   0  0  0  0  0  0  0  0  0  0  0  0
  -21.2844  -25.8720   18.1778 C   0  0  0  0  0  0  0  0  0  0  0  0
  -20.8257  -28.1437   19.1006 C   0  0  0  0  0  0  0  0  0  0  0  0
  -25.8720  -29.0381   14.5612 C   0  0  0  0  0  0  0  0  0  0  0  0
  -31.4746  -23.0311   20.6290 C   0  0  0  0  0  0  0  0  0  0  0  0
  -31.2605  -24.5247   20.4780 C   0  0  0  0  0  0  0  0  0  1  0  0
  -23.1936  -27.5139   18.4776 C   0  0  1  0  0  0  0  0  0  0  0  0
  -23.4968  -28.2975   14.7811 C   0  0  2  0  0  0  0  0  0  0  0  0
  -21.8550  -26.9929   19.0726 C   0  0  0  0  0  0  0  0  0  0  0  0
  -26.2647  -12.0199   21.0356 N   0  0  0  0  0  0  0  0  0  0  0  0
  -26.2986  -13.1431   20.2986 N   0  0  0  0  0  0  0  0  0  0  0  0
  -25.0938  -28.3320   19.8355 N   0  0  0  0  0  0  0  0  0  0  0  0
  -29.6758  -14.8640   19.8332 N   0  0  0  0  0  0  0  0  0  0  0  0
  -24.9629  -14.9473   19.5425 N   0  0  0  0  0  0  0  0  0  0  0  0
  -22.0914  -12.4891   22.0140 N   0  0  0  0  0  0  0  0  0  0  0  0
  -29.1770  -17.1691   19.8384 N   0  0  0  0  0  0  0  0  0  0  0  0
  -24.5408  -29.4954   22.9517 N   0  0  0  0  0  0  0  0  0  0  0  0
  -23.0753  -28.0638   17.1314 N   0  0  0  0  0  0  0  0  0  0  0  0
  -24.7133  -28.3622   13.9228 N   0  3  0  0  0  0  0  0  0  0  0  0
  -22.2936  -14.3687   20.7159 O   0  0  0  0  0  0  0  0  0  0  0  0
  -25.8125  -27.5975   22.5008 O   0  0  0  0  0  0  0  0  0  0  0  0
  -23.1943  -29.6461   19.5170 O   0  0  0  0  0  0  0  0  0  0  0  0
  -24.5992  -26.6277   16.1352 O   0  0  0  0  0  0  0  0  0  0  0  0
  -31.1575  -16.3850   18.9194 O   0  0  0  0  0  0  0  0  0  0  0  0
  -23.2797   -7.7611   24.7101 O   0  0  0  0  0  0  0  0  0  0  0  0
  -30.3146  -22.4523   21.2145 O   0  0  0  0  0  0  0  0  0  0  0  0
  -30.1134  -24.7508   19.6598 O   0  0  0  0  0  0  0  0  0  1  0  0
  -18.4560   -5.3831   23.4933 F   0  0  0  0  0  0  0  0  0  0  0  0
  -23.1406   -5.0696   24.0944 F   0  0  0  0  0  0  0  0  0  0  0  0
  1  2  1  0  0  0  0
  1  5  2  0  0  0  0
  2  6  2  0  0  0  0
  3 10  2  0  0  0  0
  3 19  1  0  0  0  0
  4 11  1  0  0  0  0
  4 19  2  0  0  0  0
  5 21  1  0  0  0  0
  6 23  1  0  0  0  0
  7 12  2  0  0  0  0
  7 22  1  0  0  0  0
  8 13  2  0  0  0  0
  8 25  1  0  0  0  0
  9 14  1  0  0  0  0
  9 25  2  0  0  0  0
 10 26  1  0  0  0  0
 11 26  2  0  0  0  0
 12 28  1  0  0  0  0
 13 27  1  0  0  0  0
 14 27  2  0  0  0  0
 15 16  2  0  0  0  0
 15 29  1  0  0  0  0
 16 30  1  0  0  0  0
 17 24  1  0  0  0  0
 17 28  2  0  0  0  0
 18 30  2  0  0  0  0
 18 31  1  0  0  0  0
 19 32  1  0  0  0  0
 20 32  1  0  0  0  0
 20 33  2  0  0  0  0
 20 34  1  0  0  0  0
 21 23  2  0  0  0  0
 21 39  1  0  0  0  0
 22 24  2  0  0  0  0
 22 40  1  0  0  0  0
 23 48  1  0  0  0  0
 24 41  1  0  0  0  0
 25 67  1  0  0  0  0
 26 76  1  0  0  0  0
 27 77  1  0  0  0  0
 28 78  1  0  0  0  0
 29 31  2  0  0  0  0
 29 76  1  0  0  0  0
 30 79  1  0  0  0  0
 31 80  1  0  0  0  0
 32 61  2  0  0  0  0
 33 62  1  0  0  0  0
 33 65  1  0  0  0  0
 34 66  1  0  0  0  0
 34 71  2  0  0  0  0
 35 49  1  0  0  0  0
 35 68  1  0  0  0  0
 35 72  2  0  0  0  0
 36 58  1  0  0  0  0
 36 63  1  0  0  0  0
 36 73  2  0  0  0  0
 37 59  1  0  0  0  0
 37 69  1  0  0  0  0
 37 74  2  0  0  0  0
 38 64  1  0  0  0  0
 38 67  1  0  0  0  0
 38 75  2  0  0  0  0
 39 42  1  0  0  0  0
 40 49  1  0  0  0  0
 41 63  1  0  0  0  0
 42 44  1  0  0  0  0
 43 45  1  0  0  0  0
 43 46  1  0  0  0  0
 44 48  1  0  0  0  0
 45 50  1  0  0  0  0
 46 64  1  0  0  0  0
 47 50  1  0  0  0  0
 47 64  1  0  0  0  0
 48 68  1  0  0  0  0
 49 63  1  0  0  0  0
 50 62  1  0  0  0  0
 51 59  1  0  0  0  0
 52 60  1  0  0  0  0
 53 60  1  0  0  0  0
 54 60  1  0  0  0  0
 55 70  1  0  0  0  0
 56 57  1  0  0  0  0
 56 77  1  0  0  0  0
 57 78  1  0  0  0  0
 58 60  1  0  0  0  0
 58 69  1  0  0  0  0
 59 70  1  0  0  0  0
 61 62  1  0  0  0  0
M  CHG  1  70   1
M  ISO  4  38 100  57 101  67 100  78 101
M  END
> <Batch ID>
0000

> <Smiles>
CNC(C)C(=O)NC(C(=O)N1Cc2cc([101O:1][101CH2:1]COc3ccc([100NH:0][100C:0](=O)N4CCCC(n5nc(-c6ccc(Oc7ccc(F)cc7F)cc6)c(C(N)=O)c5N)C4)cc3)ccc2CC1C(=O)NC1CCCc2ccccc21)C(C)(C)C

> <Shape>
0.290

> <Color>
0.124

> <Negative vol penalty>
0.000

$$$$

  -OEChem-04042320113D

 92100  0     1  0  0  0  0  0999 V2000
  -29.7874  -12.1192   20.2413 C   0  0  0  0  0  0  0  0  0  0  0  0
  -29.7886  -13.3382   20.9115 C   0  0  0  0  0  0  0  0  0  0  0  0
  -25.9433  -27.9583   19.9577 C   0  0  0  0  0  0  0  0  0  0  0  0
  -30.6184  -23.2676   20.1416 C   0  0  0  0  0  0  0  0  0  0  0  0
  -28.2712  -23.8315   20.2419 C   0  0  0  0  0  0  0  0  0  0  0  0
  -24.9431  -27.1460   20.4917 C   0  0  0  0  0  0  0  0  0  0  0  0
  -28.8948  -11.9025   19.1924 C   0  0  0  0  0  0  0  0  0  0  0  0
  -28.8977  -14.3418   20.5325 C   0  0  0  0  0  0  0  0  0  0  0  0
  -25.0715  -19.7395   23.2787 C   0  0  0  0  0  0  0  0  0  0  0  0
  -25.9532  -29.3255   20.2341 C   0  0  0  0  0  0  0  0  0  0  0  0
  -30.2900  -21.9141   20.0658 C   0  0  0  0  0  0  0  0  0  0  0  0
  -27.9428  -22.4779   20.1660 C   0  0  0  0  0  0  0  0  0  0  0  0
  -24.8407  -21.1014   23.0898 C   0  0  0  0  0  0  0  0  0  0  0  0
  -29.3317  -19.4615   22.1849 C   0  0  0  0  0  0  0  0  0  0  0  0
  -30.0515  -18.5749   22.9858 C   0  0  0  0  0  0  0  0  0  0  0  0
  -23.9624  -29.0680   21.5785 C   0  0  0  0  0  0  0  0  0  0  0  0
  -23.2899  -20.5861   21.3153 C   0  0  0  0  0  0  0  0  0  0  0  0
  -30.8000  -17.3996   21.0121 C   0  0  0  0  0  0  0  0  0  0  0  0
  -29.6090  -24.2263   20.2297 C   0  0  0  0  0  0  0  0  0  0  0  0
  -23.9526  -27.7008   21.3021 C   0  0  0  0  0  0  0  0  0  0  0  0
  -30.1166  -26.5202   19.2357 C   0  0  0  0  0  0  0  0  0  0  0  0
  -27.9859  -12.9004   18.8067 C   0  0  0  0  0  0  0  0  0  0  0  0
  -24.4205  -18.7895   22.4787 C   0  0  0  0  0  0  0  0  0  0  0  0
  -27.9930  -14.1388   19.4766 C   0  0  0  0  0  0  0  0  0  0  0  0
  -23.5123  -19.2127   21.4978 C   0  0  0  0  0  0  0  0  0  0  0  0
  -24.9627  -29.8803   21.0445 C   0  0  0  0  0  0  0  0  0  0  0  0
  -28.9523  -21.5193   20.0780 C   0  0  0  0  0  0  0  0  0  0  0  0
  -23.9519  -21.5250   22.1060 C   0  0  0  0  0  0  0  0  0  0  0  0
  -29.3460  -19.3171   20.7976 C   0  0  0  0  0  0  0  0  0  0  0  0
  -30.7856  -17.5440   22.3994 C   0  0  0  0  0  0  0  0  0  0  0  0
  -30.0801  -18.2862   20.2112 C   0  0  0  0  0  0  0  0  0  0  0  0
  -29.9475  -25.6246   20.3086 C   0  0  0  0  0  0  0  0  0  0  0  0
  -30.4288  -27.7169   19.8333 C   0  0  0  0  0  0  0  0  0  0  0  0
  -30.0018  -26.2910   17.8251 C   0  0  0  0  0  0  0  0  0  0  0  0
  -22.8883  -26.8357   21.8709 C   0  0  0  0  0  0  0  0  0  0  0  0
  -25.3696  -16.5655   20.4155 C   0  0  0  0  0  0  0  0  0  0  0  0
  -22.2225  -15.7791   20.4137 C   0  0  0  0  0  0  0  0  0  0  0  0
  -23.7984  -33.3592   20.4828 C   0  0  0  0  0  0  0  0  0  0  0  0
  -25.0533  -31.6354   22.8410 C   0  0  0  0  0  0  0  0  0  0  0  0
  -18.9934  -16.7497   20.9405 C   0  0  0  0  0  0  0  0  0  0  0  0
  -29.3002  -29.9813   25.2601 C   0  0  0  0  0  0  0  0  0  0  0  0
  -27.0722  -12.6370   17.6361 C   0  0  0  0  0  0  0  0  0  0  0  0
  -24.6602  -17.3232   22.7130 C   0  0  0  0  0  0  0  0  0  0  0  0
  -22.7726  -18.2322   20.6261 C   0  0  0  0  0  0  0  0  0  0  0  0
  -25.9055  -13.6169   17.5415 C   0  0  0  0  0  0  0  0  0  0  0  0
  -32.4937  -29.5173   23.7557 C   0  0  0  0  0  0  0  0  0  0  0  0
  -26.3953  -15.0496   17.7263 C   0  0  0  0  0  0  0  0  0  0  0  0
  -32.2185  -28.5479   22.6049 C   0  0  0  0  0  0  0  0  0  0  0  0
  -31.6343  -29.2011   24.9778 C   0  0  0  0  0  0  0  0  0  0  0  0
  -29.9104  -28.1537   23.5618 C   0  0  0  0  0  0  0  0  0  0  0  0
  -27.0250  -15.2431   19.1111 C   0  0  1  0  0  0  0  0  0  0  0  0
  -24.3318  -16.4623   21.4971 C   0  0  1  0  0  0  0  0  0  0  0  0
  -30.7132  -28.4670   22.2876 C   0  0  2  0  0  0  0  0  0  0  0  0
  -22.4833  -33.8500   19.9751 C   0  0  0  0  0  0  0  0  0  0  0  0
  -16.6359  -15.8981   20.8200 C   0  0  0  0  0  0  0  0  0  0  0  0
  -22.2905  -16.0281   17.3734 C   0  0  0  0  0  0  0  0  0  0  0  0
  -19.7884  -16.1134   17.3941 C   0  0  0  0  0  0  0  0  0  0  0  0
  -20.9723  -14.0838   18.2317 C   0  0  0  0  0  0  0  0  0  0  0  0
  -18.5622  -17.1934   23.8346 C   0  0  0  0  0  0  0  0  0  0  0  0
  -26.7206  -31.9717   24.6636 C   0  0  0  0  0  0  0  0  0  0  0  0
  -26.9202  -30.6669   25.4173 C   0  0  0  0  0  0  0  0  0  0  0  0
  -22.4355  -23.2314   21.4391 C   0  0  0  0  0  0  0  0  0  1  0  0
  -22.0967  -24.6130   21.9642 C   0  0  0  0  0  0  0  0  0  0  0  0
  -24.9731  -31.3423   21.3401 C   0  0  2  0  0  0  0  0  0  0  0  0
  -21.0154  -16.2018   19.6117 C   0  0  1  0  0  0  0  0  0  0  0  0
  -17.8569  -16.0953   21.7050 C   0  0  2  0  0  0  0  0  0  0  0  0
  -21.0319  -15.6256   18.1677 C   0  0  0  0  0  0  0  0  0  0  0  0
  -30.1367  -26.2029   21.4977 N   0  0  0  0  0  0  0  0  0  0  0  0
  -30.4280  -27.4747   21.1755 N   0  0  0  0  0  0  0  0  0  0  0  0
  -23.0456  -16.8097   20.8894 N   0  0  0  0  0  0  0  0  0  0  0  0
  -30.2178  -29.1402   24.6092 N   0  0  0  0  0  0  0  0  0  0  0  0
  -30.7011  -28.9421   19.3363 N   0  0  0  0  0  0  0  0  0  0  0  0
  -29.6740  -25.0023   17.3821 N   0  0  0  0  0  0  0  0  0  0  0  0
  -25.9961  -15.3696   20.1209 N   0  0  0  0  0  0  0  0  0  0  0  0
  -26.3646  -31.7543   23.2799 N   0  0  0  0  0  0  0  0  0  0  0  0
  -23.8007  -32.0233   20.8268 N   0  0  0  0  0  0  0  0  0  0  0  0
  -19.8480  -15.8144   20.3963 N   0  0  0  0  0  0  0  0  0  0  0  0
  -27.9789  -29.8645   24.8463 N   0  0  0  0  0  0  0  0  0  0  0  0
  -17.4625  -16.9383   22.8689 N   0  3  0  0  0  0  0  0  0  0  0  0
  -30.2004  -27.1980   16.9817 O   0  0  0  0  0  0  0  0  0  0  0  0
  -21.9934  -27.2577   22.5867 O   0  0  0  0  0  0  0  0  0  0  0  0
  -25.5849  -17.6496   19.8863 O   0  0  0  0  0  0  0  0  0  0  0  0
  -22.4237  -14.5792   20.6168 O   0  0  0  0  0  0  0  0  0  0  0  0
  -24.7448  -34.1341   20.5568 O   0  0  0  0  0  0  0  0  0  0  0  0
  -24.0596  -31.6995   23.5621 O   0  0  0  0  0  0  0  0  0  0  0  0
  -19.1092  -17.9686   20.8334 O   0  0  0  0  0  0  0  0  0  0  0  0
  -29.6345  -30.7811   26.1407 O   0  0  0  0  0  0  0  0  0  0  0  0
  -28.6315  -20.1986   20.0038 O   0  0  0  0  0  0  0  0  0  0  0  0
  -23.7252  -22.8538   21.9190 O   0  0  0  0  0  0  0  0  0  1  0  0
  -23.0594  -25.5424   21.4818 O   0  0  0  0  0  0  0  0  0  0  0  0
  -31.4781  -16.6936   23.1686 F   0  0  0  0  0  0  0  0  0  0  0  0
  -30.0986  -18.1432   18.8789 F   0  0  0  0  0  0  0  0  0  0  0  0
  1  2  1  0  0  0  0
  1  7  2  0  0  0  0
  2  8  2  0  0  0  0
  3  6  2  0  0  0  0
  3 10  1  0  0  0  0
  4 11  2  0  0  0  0
  4 19  1  0  0  0  0
  5 12  1  0  0  0  0
  5 19  2  0  0  0  0
  6 20  1  0  0  0  0
  7 22  1  0  0  0  0
  8 24  1  0  0  0  0
  9 13  2  0  0  0  0
  9 23  1  0  0  0  0
 10 26  2  0  0  0  0
 11 27  1  0  0  0  0
 12 27  2  0  0  0  0
 13 28  1  0  0  0  0
 14 15  2  0  0  0  0
 14 29  1  0  0  0  0
 15 30  1  0  0  0  0
 16 20  2  0  0  0  0
 16 26  1  0  0  0  0
 17 25  1  0  0  0  0
 17 28  2  0  0  0  0
 18 30  2  0  0  0  0
 18 31  1  0  0  0  0
 19 32  1  0  0  0  0
 20 35  1  0  0  0  0
 21 32  1  0  0  0  0
 21 33  2  0  0  0  0
 21 34  1  0  0  0  0
 22 24  2  0  0  0  0
 22 42  1  0  0  0  0
 23 25  2  0  0  0  0
 23 43  1  0  0  0  0
 24 51  1  0  0  0  0
 25 44  1  0  0  0  0
 26 64  1  0  0  0  0
 27 88  1  0  0  0  0
 28 89  1  0  0  0  0
 29 31  2  0  0  0  0
 29 88  1  0  0  0  0
 30 91  1  0  0  0  0
 31 92  1  0  0  0  0
 32 68  2  0  0  0  0
 33 69  1  0  0  0  0
 33 72  1  0  0  0  0
 34 73  1  0  0  0  0
 34 80  2  0  0  0  0
 35 81  2  0  0  0  0
 35 90  1  0  0  0  0
 36 52  1  0  0  0  0
 36 74  1  0  0  0  0
 36 82  2  0  0  0  0
 37 65  1  0  0  0  0
 37 70  1  0  0  0  0
 37 83  2  0  0  0  0
 38 54  1  0  0  0  0
 38 76  1  0  0  0  0
 38 84  2  0  0  0  0
 39 64  1  0  0  0  0
 39 75  1  0  0  0  0
 39 85  2  0  0  0  0
 40 66  1  0  0  0  0
 40 77  1  0  0  0  0
 40 86  2  0  0  0  0
 41 71  1  0  0  0  0
 41 78  1  0  0  0  0
 41 87  2  0  0  0  0
 42 45  1  0  0  0  0
 43 52  1  0  0  0  0
 44 70  1  0  0  0  0
 45 47  1  0  0  0  0
 46 48  1  0  0  0  0
 46 49  1  0  0  0  0
 47 51  1  0  0  0  0
 48 53  1  0  0  0  0
 49 71  1  0  0  0  0
 50 53  1  0  0  0  0
 50 71  1  0  0  0  0
 51 74  1  0  0  0  0
 52 70  1  0  0  0  0
 53 69  1  0  0  0  0
 55 66  1  0  0  0  0
 56 67  1  0  0  0  0
 57 67  1  0  0  0  0
 58 67  1  0  0  0  0
 59 79  1  0  0  0  0
 60 61  1  0  0  0  0
 60 75  1  0  0  0  0
 61 78  1  0  0  0  0
 62 63  1  0  0  0  0
 62 89  1  0  0  0  0
 63 90  1  0  0  0  0
 64 76  1  0  0  0  0
 65 67  1  0  0  0  0
 65 77  1  0  0  0  0
 66 79  1  0  0  0  0
 68 69  1  0  0  0  0
M  CHG  1  79   1
M  ISO  4  41 100  62 101  78 100  89 101
M  END
> <Batch ID>
0000

> <Smiles>
CNC(C)C(=O)NC(C(=O)N1Cc2cc([101O:1][101CH2:1]COC(=O)c3cccc(C(NC(C)=O)C(=O)NCC[100NH:0][100C:0](=O)N4CCCC(n5nc(-c6ccc(Oc7ccc(F)cc7F)cc6)c(C(N)=O)c5N)C4)c3)ccc2CC1C(=O)NC1CCCc2ccccc21)C(C)(C)C

> <Shape>
0.252

> <Color>
0.070

> <Negative vol penalty>
0.000

$$$$

  -OEChem-04042320113D

 86 95  0     1  0  0  0  0  0999 V2000
  -29.4377  -35.0134   24.8337 C   0  0  0  0  0  0  0  0  0  0  0  0
  -29.8679  -33.7378   25.1848 C   0  0  0  0  0  0  0  0  0  0  0  0
  -22.6832  -10.1902   20.1933 C   0  0  0  0  0  0  0  0  0  0  0  0
  -24.3035   -9.4999   21.8470 C   0  0  0  0  0  0  0  0  0  0  0  0
  -28.0736  -35.2918   24.7586 C   0  0  0  0  0  0  0  0  0  0  0  0
  -28.9341  -32.7401   25.4621 C   0  0  0  0  0  0  0  0  0  0  0  0
  -30.0946  -28.3280   23.2640 C   0  0  0  0  0  0  0  0  0  0  0  0
  -30.2118  -18.9883   23.3311 C   0  0  0  0  0  0  0  0  0  0  0  0
  -29.7311  -17.7693   22.8528 C   0  0  0  0  0  0  0  0  0  0  0  0
  -21.9564   -9.0210   20.4172 C   0  0  0  0  0  0  0  0  0  0  0  0
  -23.5767   -8.3306   22.0710 C   0  0  0  0  0  0  0  0  0  0  0  0
  -31.0869  -27.5572   23.8682 C   0  0  0  0  0  0  0  0  0  0  0  0
  -20.7973   -7.4122   23.7598 C   0  0  0  0  0  0  0  0  0  0  0  0
  -20.5844   -7.0268   25.0833 C   0  0  0  0  0  0  0  0  0  0  0  0
  -29.3884  -26.1800   24.8869 C   0  0  0  0  0  0  0  0  0  0  0  0
  -31.7985  -17.4258   21.6507 C   0  0  0  0  0  0  0  0  0  0  0  0
  -21.7426   -4.9483   24.6643 C   0  0  0  0  0  0  0  0  0  0  0  0
  -23.8568  -10.4297   20.9082 C   0  0  0  0  0  0  0  0  0  0  0  0
  -24.1626  -12.9616   20.8471 C   0  0  0  0  0  0  0  0  0  0  0  0
  -27.1226  -34.2943   25.0257 C   0  0  0  0  0  0  0  0  0  0  0  0
  -28.7393  -28.0368   23.4759 C   0  0  0  0  0  0  0  0  0  0  0  0
  -27.5560  -33.0057   25.3918 C   0  0  0  0  0  0  0  0  0  0  0  0
  -28.3809  -26.9471   24.2822 C   0  0  0  0  0  0  0  0  0  0  0  0
  -32.2792  -18.6448   22.1290 C   0  0  0  0  0  0  0  0  0  0  0  0
  -31.4858  -19.4260   22.9692 C   0  0  0  0  0  0  0  0  0  0  0  0
  -30.5245  -16.9881   22.0127 C   0  0  0  0  0  0  0  0  0  0  0  0
  -22.4032   -8.0911   21.3561 C   0  0  0  0  0  0  0  0  0  0  0  0
  -30.7338  -26.4848   24.6821 C   0  0  0  0  0  0  0  0  0  0  0  0
  -21.4828   -6.5657   22.8885 C   0  0  0  0  0  0  0  0  0  0  0  0
  -21.0570   -5.7949   25.5356 C   0  0  0  0  0  0  0  0  0  0  0  0
  -21.9555   -5.3338   23.3408 C   0  0  0  0  0  0  0  0  0  0  0  0
  -24.6083  -11.6371   20.6769 C   0  0  0  0  0  0  0  0  0  0  0  0
  -25.2431  -13.7348   20.4992 C   0  0  0  0  0  0  0  0  0  0  0  0
  -22.8861  -13.4493   21.2811 C   0  0  0  0  0  0  0  0  0  0  0  0
  -26.2850  -29.5937   24.7626 C   0  0  0  0  0  0  0  0  0  0  0  0
  -24.6031  -27.0353   23.6912 C   0  0  0  0  0  0  0  0  0  0  0  0
  -25.0493  -23.4573   23.5621 C   0  0  0  0  0  0  0  0  0  0  0  0
  -30.6945  -14.8534   20.6858 C   0  0  0  0  0  0  0  0  0  0  0  0
  -25.6590  -34.6553   24.9778 C   0  0  0  0  0  0  0  0  0  0  0  0
  -27.6814  -28.8615   22.7954 C   0  0  0  0  0  0  0  0  0  0  0  0
  -26.9404  -26.5804   24.5252 C   0  0  0  0  0  0  0  0  0  0  0  0
  -24.7340  -33.4422   24.9217 C   0  0  0  0  0  0  0  0  0  0  0  0
  -29.6079  -12.4806   18.2637 C   0  0  0  0  0  0  0  0  0  0  0  0
  -25.1551  -32.4017   25.9546 C   0  0  0  0  0  0  0  0  0  0  0  0
  -28.1737  -12.1586   18.6896 C   0  0  0  0  0  0  0  0  0  0  0  0
  -30.5229  -12.6939   19.4683 C   0  0  0  0  0  0  0  0  0  0  0  0
  -32.0533  -20.8099   24.9146 C   0  0  0  0  0  0  0  0  0  0  0  0
  -31.6995  -21.8787   22.6947 C   0  0  0  0  0  0  0  0  0  0  0  0
  -28.6096  -13.3584   20.8707 C   0  0  0  0  0  0  0  0  0  0  0  0
  -33.0713  -21.8856   25.2683 C   0  0  0  0  0  0  0  0  0  0  0  0
  -32.7150  -22.9554   23.0556 C   0  0  0  0  0  0  0  0  0  0  0  0
  -26.5736  -31.8902   25.6758 C   0  0  1  0  0  0  0  0  0  0  0  0
  -26.3270  -28.7899   23.4938 C   0  0  1  0  0  0  0  0  0  0  0  0
  -27.6362  -13.1993   19.6914 C   0  0  2  0  0  0  0  0  0  0  0  0
  -33.6467  -19.0904   21.7246 C   0  0  0  0  0  0  0  0  0  0  0  0
  -24.1104  -21.7522   21.9784 C   0  0  0  0  0  0  0  0  0  0  0  0
  -22.4147  -26.7131   25.7929 C   0  0  0  0  0  0  0  0  0  0  0  0
  -22.4274  -24.2530   25.3282 C   0  0  0  0  0  0  0  0  0  0  0  0
  -21.8130  -25.8587   23.5208 C   0  0  0  0  0  0  0  0  0  0  0  0
  -27.7436  -22.4485   22.8678 C   0  0  0  0  0  0  0  0  0  0  0  0
  -33.6074  -24.3013   24.9561 C   0  0  0  0  0  0  0  0  0  0  0  0
  -32.9442  -25.6128   24.5844 C   0  0  0  0  0  0  0  0  0  1  0  0
  -24.2243  -25.6899   24.2617 C   0  0  1  0  0  0  0  0  0  0  0  0
  -25.3115  -22.6183   22.3245 C   0  0  2  0  0  0  0  0  0  0  0  0
  -22.7437  -25.6420   24.7338 C   0  0  0  0  0  0  0  0  0  0  0  0
  -25.8733  -11.5691   20.2535 N   0  0  0  0  0  0  0  0  0  0  0  0
  -26.2317  -12.8606   20.1547 N   0  0  0  0  0  0  0  0  0  0  0  0
  -31.9516  -20.6522   23.4578 N   0  0  0  0  0  0  0  0  0  0  0  0
  -25.9426  -27.4208   23.8428 N   0  0  0  0  0  0  0  0  0  0  0  0
  -29.9518  -13.6957   20.3711 N   0  0  0  0  0  0  0  0  0  0  0  0
  -25.4345  -15.0705   20.4572 N   0  0  0  0  0  0  0  0  0  0  0  0
  -21.8880  -12.5181   21.5991 N   0  0  0  0  0  0  0  0  0  0  0  0
  -30.0363  -15.7495   21.5274 N   0  0  0  0  0  0  0  0  0  0  0  0
  -26.5620  -30.9362   24.5876 N   0  0  0  0  0  0  0  0  0  0  0  0
  -24.5576  -24.7043   23.2390 N   0  0  0  0  0  0  0  0  0  0  0  0
  -32.7163  -23.1618   24.5485 N   0  3  0  0  0  0  0  0  0  0  0  0
  -26.4862  -21.7274   22.5420 N   0  3  0  0  0  0  0  0  0  0  0  0
  -22.6327  -14.6747   21.3681 O   0  0  0  0  0  0  0  0  0  0  0  0
  -26.0194  -29.0375   25.8217 O   0  0  0  0  0  0  0  0  0  0  0  0
  -23.7439  -27.7158   23.1254 O   0  0  0  0  0  0  0  0  0  0  0  0
  -25.2562  -23.0462   24.7017 O   0  0  0  0  0  0  0  0  0  0  0  0
  -31.8198  -15.0491   20.2197 O   0  0  0  0  0  0  0  0  0  0  0  0
  -21.6941   -6.9501   21.5750 O   0  0  0  0  0  0  0  0  0  0  0  0
  -31.7003  -25.7312   25.2736 O   0  0  0  0  0  0  0  0  0  1  0  0
  -20.8538   -5.4255   26.8070 F   0  0  0  0  0  0  0  0  0  0  0  0
  -22.6158   -4.5167   22.5087 F   0  0  0  0  0  0  0  0  0  0  0  0
  1  2  1  0  0  0  0
  1  5  2  0  0  0  0
  2  6  2  0  0  0  0
  3 10  2  0  0  0  0
  3 18  1  0  0  0  0
  4 11  1  0  0  0  0
  4 18  2  0  0  0  0
  5 20  1  0  0  0  0
  6 22  1  0  0  0  0
  7 12  2  0  0  0  0
  7 21  1  0  0  0  0
  8  9  2  0  0  0  0
  8 25  1  0  0  0  0
  9 26  1  0  0  0  0
 10 27  1  0  0  0  0
 11 27  2  0  0  0  0
 12 28  1  0  0  0  0
 13 14  2  0  0  0  0
 13 29  1  0  0  0  0
 14 30  1  0  0  0  0
 15 23  1  0  0  0  0
 15 28  2  0  0  0  0
 16 24  1  0  0  0  0
 16 26  2  0  0  0  0
 17 30  2  0  0  0  0
 17 31  1  0  0  0  0
 18 32  1  0  0  0  0
 19 32  1  0  0  0  0
 19 33  2  0  0  0  0
 19 34  1  0  0  0  0
 20 22  2  0  0  0  0
 20 39  1  0  0  0  0
 21 23  2  0  0  0  0
 21 40  1  0  0  0  0
 22 52  1  0  0  0  0
 23 41  1  0  0  0  0
 24 25  2  0  0  0  0
 24 55  1  0  0  0  0
 25 68  1  0  0  0  0
 26 73  1  0  0  0  0
 27 83  1  0  0  0  0
 28 84  1  0  0  0  0
 29 31  2  0  0  0  0
 29 83  1  0  0  0  0
 30 85  1  0  0  0  0
 31 86  1  0  0  0  0
 32 66  2  0  0  0  0
 33 67  1  0  0  0  0
 33 71  1  0  0  0  0
 34 72  1  0  0  0  0
 34 78  2  0  0  0  0
 35 53  1  0  0  0  0
 35 74  1  0  0  0  0
 35 79  2  0  0  0  0
 36 63  1  0  0  0  0
 36 69  1  0  0  0  0
 36 80  2  0  0  0  0
 37 64  1  0  0  0  0
 37 75  1  0  0  0  0
 37 81  2  0  0  0  0
 38 70  1  0  0  0  0
 38 73  1  0  0  0  0
 38 82  2  0  0  0  0
 39 42  1  0  0  0  0
 40 53  1  0  0  0  0
 41 69  1  0  0  0  0
 42 44  1  0  0  0  0
 43 45  1  0  0  0  0
 43 46  1  0  0  0  0
 44 52  1  0  0  0  0
 45 54  1  0  0  0  0
 46 70  1  0  0  0  0
 47 50  1  0  0  0  0
 47 68  1  0  0  0  0
 48 51  1  0  0  0  0
 48 68  1  0  0  0  0
 49 54  1  0  0  0  0
 49 70  1  0  0  0  0
 50 76  1  0  0  0  0
 51 76  1  0  0  0  0
 52 74  1  0  0  0  0
 53 69  1  0  0  0  0
 54 67  1  0  0  0  0
 56 64  1  0  0  0  0
 57 65  1  0  0  0  0
 58 65  1  0  0  0  0
 59 65  1  0  0  0  0
 60 77  1  0  0  0  0
 61 62  1  0  0  0  0
 61 76  1  0  0  0  0
 62 84  1  0  0  0  0
 63 65  1  0  0  0  0
 63 75  1  0  0  0  0
 64 77  1  0  0  0  0
 66 67  1  0  0  0  0
M  CHG  2  76   1  77   1
M  ISO  4  38 100  62 101  73 100  84 101
M  END
> <Batch ID>
0000

> <Smiles>
CNC(C)C(=O)NC(C(=O)N1Cc2cc([101O:1][101CH2:1]CN3CCN(c4ccc([100NH:0][100C:0](=O)N5CCCC(n6nc(-c7ccc(Oc8ccc(F)cc8F)cc7)c(C(N)=O)c6N)C5)cc4C)CC3)ccc2CC1C(=O)NC1CCCc2ccccc21)C(C)(C)C

> <Shape>
0.266

> <Color>
0.198

> <Negative vol penalty>
0.000

$$$$

  -OEChem-04042320113D

 81 89  0     1  0  0  0  0  0999 V2000
  -29.1219  -36.4732   19.6452 C   0  0  0  0  0  0  0  0  0  0  0  0
  -29.3604  -35.1067   19.5387 C   0  0  0  0  0  0  0  0  0  0  0  0
  -26.9103  -12.4791   21.8854 C   0  0  0  0  0  0  0  0  0  0  0  0
  -26.1991  -14.2566   20.4118 C   0  0  0  0  0  0  0  0  0  0  0  0
  -29.8459  -23.6700   22.7773 C   0  0  0  0  0  0  0  0  0  0  0  0
  -28.2245  -36.9508   20.5993 C   0  0  0  0  0  0  0  0  0  0  0  0
  -28.7023  -34.2171   20.3872 C   0  0  0  0  0  0  0  0  0  0  0  0
  -26.7907  -28.5607   19.0242 C   0  0  0  0  0  0  0  0  0  0  0  0
  -30.3400  -22.3808   22.9758 C   0  0  0  0  0  0  0  0  0  0  0  0
  -25.5976  -12.0131   21.9570 C   0  0  0  0  0  0  0  0  0  0  0  0
  -24.8863  -13.7906   20.4833 C   0  0  0  0  0  0  0  0  0  0  0  0
  -27.3416  -27.3020   19.2608 C   0  0  0  0  0  0  0  0  0  0  0  0
  -22.4944  -10.1408   22.2394 C   0  0  0  0  0  0  0  0  0  0  0  0
  -22.2862   -8.7671   22.1163 C   0  0  0  0  0  0  0  0  0  0  0  0
  -28.9621  -23.0009   20.6306 C   0  0  0  0  0  0  0  0  0  0  0  0
  -25.9839  -27.0870   21.2431 C   0  0  0  0  0  0  0  0  0  0  0  0
  -23.2852   -8.8128   19.9170 C   0  0  0  0  0  0  0  0  0  0  0  0
  -27.2111  -13.6009   21.1129 C   0  0  0  0  0  0  0  0  0  0  0  0
  -29.1569  -23.9801   21.6048 C   0  0  0  0  0  0  0  0  0  0  0  0
  -29.5535  -13.7064   20.1082 C   0  0  0  0  0  0  0  0  0  0  0  0
  -27.5478  -36.0658   21.4535 C   0  0  0  0  0  0  0  0  0  0  0  0
  -25.8387  -29.0976   19.9028 C   0  0  0  0  0  0  0  0  0  0  0  0
  -27.7960  -34.6834   21.3546 C   0  0  0  0  0  0  0  0  0  0  0  0
  -25.4206  -28.3517   21.0141 C   0  0  0  0  0  0  0  0  0  0  0  0
  -30.1452  -21.4017   22.0016 C   0  0  0  0  0  0  0  0  0  0  0  0
  -24.5856  -12.6688   21.2559 C   0  0  0  0  0  0  0  0  0  0  0  0
  -26.9403  -26.5662   20.3719 C   0  0  0  0  0  0  0  0  0  0  0  0
  -23.0978  -10.8506   21.2012 C   0  0  0  0  0  0  0  0  0  0  0  0
  -29.4563  -21.7117   20.8290 C   0  0  0  0  0  0  0  0  0  0  0  0
  -22.6817   -8.1031   20.9552 C   0  0  0  0  0  0  0  0  0  0  0  0
  -23.4933  -10.1865   20.0401 C   0  0  0  0  0  0  0  0  0  0  0  0
  -28.5669  -14.0830   21.0390 C   0  0  0  0  0  0  0  0  0  0  0  0
  -30.6579  -14.4425   20.4618 C   0  0  0  0  0  0  0  0  0  0  0  0
  -29.4785  -12.7746   19.0212 C   0  0  0  0  0  0  0  0  0  0  0  0
  -28.6304  -25.3531   21.3936 C   0  0  0  0  0  0  0  0  0  1  0  0
  -25.7091  -31.6632   21.7748 C   0  0  0  0  0  0  0  0  0  0  0  0
  -22.6515  -30.6864   22.2427 C   0  0  0  0  0  0  0  0  0  0  0  0
  -20.3912  -28.1296   22.2197 C   0  0  0  0  0  0  0  0  0  0  0  0
  -31.3536  -19.6368   23.3325 C   0  0  0  0  0  0  0  0  0  0  0  0
  -26.6226  -36.6328   22.5009 C   0  0  0  0  0  0  0  0  0  0  0  0
  -25.2344  -30.4454   19.6190 C   0  0  0  0  0  0  0  0  0  0  0  0
  -24.3869  -28.8745   21.9767 C   0  0  0  0  0  0  0  0  0  0  0  0
  -25.6841  -35.5947   23.1108 C   0  0  0  0  0  0  0  0  0  0  0  0
  -32.7350  -16.4891   24.2607 C   0  0  0  0  0  0  0  0  0  0  0  0
  -26.4541  -34.3310   23.4808 C   0  0  0  0  0  0  0  0  0  0  0  0
  -31.9167  -15.4811   23.4505 C   0  0  0  0  0  0  0  0  0  0  0  0
  -31.8782  -17.6587   24.7421 C   0  0  0  0  0  0  0  0  0  0  0  0
  -30.2972  -17.3356   22.8806 C   0  0  0  0  0  0  0  0  0  0  0  0
  -27.0828  -33.6849   22.2403 C   0  0  1  0  0  0  0  0  0  0  0  0
  -24.6513  -31.1123   20.8610 C   0  0  1  0  0  0  0  0  0  0  0  0
  -31.1311  -16.1725   22.3190 C   0  0  2  0  0  0  0  0  0  0  0  0
  -17.9762  -27.6309   22.6850 C   0  0  0  0  0  0  0  0  0  0  0  0
  -23.2119  -30.7817   25.2405 C   0  0  0  0  0  0  0  0  0  0  0  0
  -21.1547  -29.4005   25.5984 C   0  0  0  0  0  0  0  0  0  0  0  0
  -20.9707  -31.6655   24.5696 C   0  0  0  0  0  0  0  0  0  0  0  0
  -19.9107  -27.2701   19.4287 C   0  0  0  0  0  0  0  0  0  0  0  0
  -28.0642  -19.9896   19.9617 C   0  0  0  0  0  0  0  0  0  0  0  0
  -21.9603  -29.7689   23.2222 C   0  0  1  0  0  0  0  0  0  0  0  0
  -18.9972  -28.0227   21.6282 C   0  0  2  0  0  0  0  0  0  0  0  0
  -21.8453  -30.3948   24.6408 C   0  0  0  0  0  0  0  0  0  0  0  0
  -29.0057  -14.9880   21.9179 N   0  0  0  0  0  0  0  0  0  0  0  0
  -30.2804  -15.1861   21.5410 N   0  0  0  0  0  0  0  0  0  0  0  0
  -23.8301  -30.2000   21.6596 N   0  0  0  0  0  0  0  0  0  0  0  0
  -31.1670  -18.2672   23.6157 N   0  0  0  0  0  0  0  0  0  0  0  0
  -31.9054  -14.5198   19.9517 N   0  0  0  0  0  0  0  0  0  0  0  0
  -28.2680  -12.1043   18.7981 N   0  0  0  0  0  0  0  0  0  0  0  0
  -30.6514  -20.0961   22.2187 N   0  0  0  0  0  0  0  0  0  0  0  0
  -26.0822  -32.9618   21.4850 N   0  0  0  0  0  0  0  0  0  0  0  0
  -20.6795  -29.4176   22.6184 N   0  0  0  0  0  0  0  0  0  0  0  0
  -18.9707  -26.9980   20.5464 N   0  3  0  0  0  0  0  0  0  0  0  0
  -30.4608  -12.5310   18.2800 O   0  0  0  0  0  0  0  0  0  0  0  0
  -29.1572  -26.3509   21.8624 O   0  0  0  0  0  0  0  0  0  0  0  0
  -26.1529  -30.9626   22.6770 O   0  0  0  0  0  0  0  0  0  0  0  0
  -22.1598  -31.7910   21.9984 O   0  0  0  0  0  0  0  0  0  0  0  0
  -21.1473  -27.1660   22.3214 O   0  0  0  0  0  0  0  0  0  0  0  0
  -32.1039  -20.3433   24.0106 O   0  0  0  0  0  0  0  0  0  0  0  0
  -23.3045  -12.2142   21.3253 O   0  0  0  0  0  0  0  0  0  0  0  0
  -27.4769  -25.3376   20.6055 O   0  0  0  0  0  0  0  0  0  1  0  0
  -29.2539  -20.7696   19.8650 O   0  0  0  0  0  0  0  0  0  0  0  0
  -22.4831   -6.7836   20.8377 F   0  0  0  0  0  0  0  0  0  0  0  0
  -24.0746  -10.8628   19.0398 F   0  0  0  0  0  0  0  0  0  0  0  0
  1  2  1  0  0  0  0
  1  6  2  0  0  0  0
  2  7  2  0  0  0  0
  3 10  2  0  0  0  0
  3 18  1  0  0  0  0
  4 11  1  0  0  0  0
  4 18  2  0  0  0  0
  5  9  2  0  0  0  0
  5 19  1  0  0  0  0
  6 21  1  0  0  0  0
  7 23  1  0  0  0  0
  8 12  2  0  0  0  0
  8 22  1  0  0  0  0
  9 25  1  0  0  0  0
 10 26  1  0  0  0  0
 11 26  2  0  0  0  0
 12 27  1  0  0  0  0
 13 14  2  0  0  0  0
 13 28  1  0  0  0  0
 14 30  1  0  0  0  0
 15 19  2  0  0  0  0
 15 29  1  0  0  0  0
 16 24  1  0  0  0  0
 16 27  2  0  0  0  0
 17 30  2  0  0  0  0
 17 31  1  0  0  0  0
 18 32  1  0  0  0  0
 19 35  1  0  0  0  0
 20 32  1  0  0  0  0
 20 33  2  0  0  0  0
 20 34  1  0  0  0  0
 21 23  2  0  0  0  0
 21 40  1  0  0  0  0
 22 24  2  0  0  0  0
 22 41  1  0  0  0  0
 23 49  1  0  0  0  0
 24 42  1  0  0  0  0
 25 29  2  0  0  0  0
 25 67  1  0  0  0  0
 26 77  1  0  0  0  0
 27 78  1  0  0  0  0
 28 31  2  0  0  0  0
 28 77  1  0  0  0  0
 29 79  1  0  0  0  0
 30 80  1  0  0  0  0
 31 81  1  0  0  0  0
 32 61  2  0  0  0  0
 33 62  1  0  0  0  0
 33 65  1  0  0  0  0
 34 66  1  0  0  0  0
 34 71  2  0  0  0  0
 35 72  2  0  0  0  0
 35 78  1  0  0  0  0
 36 50  1  0  0  0  0
 36 68  1  0  0  0  0
 36 73  2  0  0  0  0
 37 58  1  0  0  0  0
 37 63  1  0  0  0  0
 37 74  2  0  0  0  0
 38 59  1  0  0  0  0
 38 69  1  0  0  0  0
 38 75  2  0  0  0  0
 39 64  1  0  0  0  0
 39 67  1  0  0  0  0
 39 76  2  0  0  0  0
 40 43  1  0  0  0  0
 41 50  1  0  0  0  0
 42 63  1  0  0  0  0
 43 45  1  0  0  0  0
 44 46  1  0  0  0  0
 44 47  1  0  0  0  0
 45 49  1  0  0  0  0
 46 51  1  0  0  0  0
 47 64  1  0  0  0  0
 48 51  1  0  0  0  0
 48 64  1  0  0  0  0
 49 68  1  0  0  0  0
 50 63  1  0  0  0  0
 51 62  1  0  0  0  0
 52 59  1  0  0  0  0
 53 60  1  0  0  0  0
 54 60  1  0  0  0  0
 55 60  1  0  0  0  0
 56 70  1  0  0  0  0
 57 79  1  0  0  0  0
 58 60  1  0  0  0  0
 58 69  1  0  0  0  0
 59 70  1  0  0  0  0
 61 62  1  0  0  0  0
M  CHG  1  70   1
M  ISO  4  35 101  39 100  67 100  78 101
M  END
> <Batch ID>
0000

> <Smiles>
CNC(C)C(=O)NC(C(=O)N1Cc2cc([101O:1][101C:1](=O)c3ccc([100NH:0][100C:0](=O)N4CCCC(n5nc(-c6ccc(Oc7ccc(F)cc7F)cc6)c(C(N)=O)c5N)C4)c(OC)c3)ccc2CC1C(=O)NC1CCCc2ccccc21)C(C)(C)C

> <Shape>
0.322

> <Color>
0.104

> <Negative vol penalty>
0.000

$$$$

  -OEChem-04042320113D

 76 83  0     1  0  0  0  0  0999 V2000
  -16.1600  -22.7176   22.5581 C   0  0  0  0  0  0  0  0  0  0  0  0
  -17.4333  -22.6316   22.0043 C   0  0  0  0  0  0  0  0  0  0  0  0
  -23.0622   -9.9075   19.9658 C   0  0  0  0  0  0  0  0  0  0  0  0
  -23.8771   -9.8683   22.2399 C   0  0  0  0  0  0  0  0  0  0  0  0
  -15.9799  -22.5083   23.9248 C   0  0  0  0  0  0  0  0  0  0  0  0
  -18.5275  -22.3372   22.8170 C   0  0  0  0  0  0  0  0  0  0  0  0
  -23.4690  -19.0565   21.2924 C   0  0  0  0  0  0  0  0  0  0  0  0
  -22.3096   -8.7601   20.2158 C   0  0  0  0  0  0  0  0  0  0  0  0
  -23.1244   -8.7209   22.4899 C   0  0  0  0  0  0  0  0  0  0  0  0
  -24.7491  -19.4249   20.8811 C   0  0  0  0  0  0  0  0  0  0  0  0
  -21.1365   -5.9883   23.8314 C   0  0  0  0  0  0  0  0  0  0  0  0
  -20.4082   -5.9357   25.0198 C   0  0  0  0  0  0  0  0  0  0  0  0
  -25.5335  -19.2128   23.1524 C   0  0  0  0  0  0  0  0  0  0  0  0
  -19.1718   -7.9001   24.3490 C   0  0  0  0  0  0  0  0  0  0  0  0
  -23.8461  -10.4616   20.9779 C   0  0  0  0  0  0  0  0  0  0  0  0
  -24.2180  -12.9838   20.8890 C   0  0  0  0  0  0  0  0  0  0  0  0
  -17.0711  -22.2017   24.7530 C   0  0  0  0  0  0  0  0  0  0  0  0
  -23.2086  -18.7736   22.6410 C   0  0  0  0  0  0  0  0  0  0  0  0
  -18.3620  -22.1249   24.1962 C   0  0  0  0  0  0  0  0  0  0  0  0
  -24.2498  -18.8385   23.5779 C   0  0  0  0  0  0  0  0  0  0  0  0
  -22.3406   -8.1668   21.4778 C   0  0  0  0  0  0  0  0  0  0  0  0
  -25.7810  -19.5059   21.8115 C   0  0  0  0  0  0  0  0  0  0  0  0
  -20.8826   -6.9968   22.9018 C   0  0  0  0  0  0  0  0  0  0  0  0
  -19.4258   -6.8916   25.2786 C   0  0  0  0  0  0  0  0  0  0  0  0
  -19.9003   -7.9527   23.1606 C   0  0  0  0  0  0  0  0  0  0  0  0
  -24.6243  -11.6466   20.7202 C   0  0  0  0  0  0  0  0  0  0  0  0
  -25.3108  -13.7250   20.5111 C   0  0  0  0  0  0  0  0  0  0  0  0
  -22.9648  -13.5090   21.3467 C   0  0  0  0  0  0  0  0  0  0  0  0
  -21.3315  -20.0335   24.8754 C   0  0  0  0  0  0  0  0  0  0  0  0
  -22.3526  -17.4923   26.6138 C   0  0  0  0  0  0  0  0  0  0  0  0
  -24.7431  -15.1140   27.1391 C   0  0  0  0  0  0  0  0  0  0  0  0
  -30.8103  -14.6711   20.5822 C   0  0  0  0  0  0  0  0  0  0  0  0
  -16.8338  -22.0303   26.2325 C   0  0  0  0  0  0  0  0  0  0  0  0
  -21.8283  -18.3516   23.0642 C   0  0  0  0  0  0  0  0  0  0  0  0
  -24.0270  -18.5250   25.0341 C   0  0  0  0  0  0  0  0  0  0  0  0
  -17.9922  -21.3534   26.9608 C   0  0  0  0  0  0  0  0  0  0  0  0
  -29.5845  -12.3396   18.1868 C   0  0  0  0  0  0  0  0  0  0  0  0
  -19.3214  -21.9737   26.5420 C   0  0  0  0  0  0  0  0  0  0  0  0
  -28.1542  -12.0573   18.6499 C   0  0  0  0  0  0  0  0  0  0  0  0
  -30.5331  -12.5296   19.3684 C   0  0  0  0  0  0  0  0  0  0  0  0
  -28.6750  -13.2626   20.8120 C   0  0  0  0  0  0  0  0  0  0  0  0
  -19.5703  -21.7833   25.0409 C   0  0  1  0  0  0  0  0  0  0  0  0
  -21.5607  -18.5851   24.5479 C   0  0  1  0  0  0  0  0  0  0  0  0
  -27.6706  -13.1192   19.6558 C   0  0  2  0  0  0  0  0  0  0  0  0
  -25.3188  -13.2016   28.6585 C   0  0  0  0  0  0  0  0  0  0  0  0
  -23.1824  -19.4698   28.7844 C   0  0  0  0  0  0  0  0  0  0  0  0
  -24.5722  -17.6562   29.8078 C   0  0  0  0  0  0  0  0  0  0  0  0
  -22.0989  -17.3821   29.6341 C   0  0  0  0  0  0  0  0  0  0  0  0
  -24.7054  -13.1748   24.9037 C   0  0  0  0  0  0  0  0  0  0  0  0
  -30.9341  -16.8007   21.8505 C   0  0  0  0  0  0  0  0  0  0  0  0
  -30.6370  -17.9563   20.9116 C   0  0  0  0  0  0  0  0  0  0  0  0
  -27.4127  -19.5218   20.0814 C   0  0  0  0  0  0  0  0  0  1  0  0
  -28.9109  -19.2914   20.0394 C   0  0  0  0  0  0  0  0  0  0  0  0
  -23.5127  -17.2298   27.5436 C   0  0  1  0  0  0  0  0  0  0  0  0
  -24.6416  -13.6157   27.3614 C   0  0  2  0  0  0  0  0  0  0  0  0
  -23.3456  -17.9423   28.9154 C   0  0  0  0  0  0  0  0  0  0  0  0
  -25.8773  -11.5413   20.2699 N   0  0  0  0  0  0  0  0  0  0  0  0
  -26.2678  -12.8219   20.1525 N   0  0  0  0  0  0  0  0  0  0  0  0
  -22.6586  -18.1233   25.3997 N   0  0  0  0  0  0  0  0  0  0  0  0
  -30.0175  -13.5508   20.2834 N   0  0  0  0  0  0  0  0  0  0  0  0
  -25.5368  -15.0547   20.4538 N   0  0  0  0  0  0  0  0  0  0  0  0
  -21.9495  -12.6075   21.6942 N   0  0  0  0  0  0  0  0  0  0  0  0
  -20.0127  -20.4324   24.7692 N   0  0  0  0  0  0  0  0  0  0  0  0
  -23.6422  -15.7796   27.6353 N   0  0  0  0  0  0  0  0  0  0  0  0
  -30.2438  -15.5940   21.4529 N   0  0  0  0  0  0  0  0  0  0  0  0
  -25.2884  -12.8805   26.2380 N   0  3  0  0  0  0  0  0  0  0  0  0
  -22.7461  -14.7414   21.4289 O   0  0  0  0  0  0  0  0  0  0  0  0
  -22.2805  -20.7367   25.2018 O   0  0  0  0  0  0  0  0  0  0  0  0
  -21.2179  -17.1438   26.9493 O   0  0  0  0  0  0  0  0  0  0  0  0
  -25.7046  -15.6415   26.5844 O   0  0  0  0  0  0  0  0  0  0  0  0
  -31.9372  -14.8393   20.1039 O   0  0  0  0  0  0  0  0  0  0  0  0
  -21.6061   -7.0472   21.7221 O   0  0  0  0  0  0  0  0  0  0  0  0
  -27.0313  -19.8659   21.4128 O   0  0  0  0  0  0  0  0  0  1  0  0
  -29.2397  -18.2135   20.9073 O   0  0  0  0  0  0  0  0  0  0  0  0
  -18.7254   -6.8400   26.4191 F   0  0  0  0  0  0  0  0  0  0  0  0
  -19.6510   -8.9232   22.2708 F   0  0  0  0  0  0  0  0  0  0  0  0
  1  2  1  0  0  0  0
  1  5  2  0  0  0  0
  2  6  2  0  0  0  0
  3  8  2  0  0  0  0
  3 15  1  0  0  0  0
  4  9  1  0  0  0  0
  4 15  2  0  0  0  0
  5 17  1  0  0  0  0
  6 19  1  0  0  0  0
  7 10  2  0  0  0  0
  7 18  1  0  0  0  0
  8 21  1  0  0  0  0
  9 21  2  0  0  0  0
 10 22  1  0  0  0  0
 11 12  2  0  0  0  0
 11 23  1  0  0  0  0
 12 24  1  0  0  0  0
 13 20  1  0  0  0  0
 13 22  2  0  0  0  0
 14 24  2  0  0  0  0
 14 25  1  0  0  0  0
 15 26  1  0  0  0  0
 16 26  1  0  0  0  0
 16 27  2  0  0  0  0
 16 28  1  0  0  0  0
 17 19  2  0  0  0  0
 17 33  1  0  0  0  0
 18 20  2  0  0  0  0
 18 34  1  0  0  0  0
 19 42  1  0  0  0  0
 20 35  1  0  0  0  0
 21 72  1  0  0  0  0
 22 73  1  0  0  0  0
 23 25  2  0  0  0  0
 23 72  1  0  0  0  0
 24 75  1  0  0  0  0
 25 76  1  0  0  0  0
 26 57  2  0  0  0  0
 27 58  1  0  0  0  0
 27 61  1  0  0  0  0
 28 62  1  0  0  0  0
 28 67  2  0  0  0  0
 29 43  1  0  0  0  0
 29 63  1  0  0  0  0
 29 68  2  0  0  0  0
 30 54  1  0  0  0  0
 30 59  1  0  0  0  0
 30 69  2  0  0  0  0
 31 55  1  0  0  0  0
 31 64  1  0  0  0  0
 31 70  2  0  0  0  0
 32 60  1  0  0  0  0
 32 65  1  0  0  0  0
 32 71  2  0  0  0  0
 33 36  1  0  0  0  0
 34 43  1  0  0  0  0
 35 59  1  0  0  0  0
 36 38  1  0  0  0  0
 37 39  1  0  0  0  0
 37 40  1  0  0  0  0
 38 42  1  0  0  0  0
 39 44  1  0  0  0  0
 40 60  1  0  0  0  0
 41 44  1  0  0  0  0
 41 60  1  0  0  0  0
 42 63  1  0  0  0  0
 43 59  1  0  0  0  0
 44 58  1  0  0  0  0
 45 55  1  0  0  0  0
 46 56  1  0  0  0  0
 47 56  1  0  0  0  0
 48 56  1  0  0  0  0
 49 66  1  0  0  0  0
 50 51  1  0  0  0  0
 50 65  1  0  0  0  0
 51 74  1  0  0  0  0
 52 53  1  0  0  0  0
 52 73  1  0  0  0  0
 53 74  1  0  0  0  0
 54 56  1  0  0  0  0
 54 64  1  0  0  0  0
 55 66  1  0  0  0  0
 57 58  1  0  0  0  0
M  CHG  1  66   1
M  ISO  4  32 100  52 101  65 100  73 101
M  END
> <Batch ID>
0000

> <Smiles>
CNC(C)C(=O)NC(C(=O)N1Cc2cc([101O:1][101CH2:1]COCC[100NH:0][100C:0](=O)N3CCCC(n4nc(-c5ccc(Oc6ccc(F)cc6F)cc5)c(C(N)=O)c4N)C3)ccc2CC1C(=O)NC1CCCc2ccccc21)C(C)(C)C

> <Shape>
0.186

> <Color>
0.201

> <Negative vol penalty>
0.000

$$$$

  -OEChem-04042320113D

 94103  0     1  0  0  0  0  0999 V2000
  -22.8472   -8.5656   21.0843 C   0  0  0  0  0  0  0  0  0  0  0  0
  -26.4746  -32.6726   26.1975 C   0  0  0  0  0  0  0  0  0  0  0  0
  -23.0752   -8.8473   22.4280 C   0  0  0  0  0  0  0  0  0  0  0  0
  -27.4250  -31.6779   25.9910 C   0  0  0  0  0  0  0  0  0  0  0  0
  -21.2535  -23.0353   21.0093 C   0  0  0  0  0  0  0  0  0  0  0  0
  -22.4793  -22.5574   23.0357 C   0  0  0  0  0  0  0  0  0  0  0  0
  -23.0659   -9.5489   20.1204 C   0  0  0  0  0  0  0  0  0  0  0  0
  -25.3007  -32.6806   25.4452 C   0  0  0  0  0  0  0  0  0  0  0  0
  -23.5171  -10.1140   22.8085 C   0  0  0  0  0  0  0  0  0  0  0  0
  -27.2015  -30.6898   25.0327 C   0  0  0  0  0  0  0  0  0  0  0  0
  -30.7124  -26.5545   20.3542 C   0  0  0  0  0  0  0  0  0  0  0  0
  -20.4754  -23.9649   21.6992 C   0  0  0  0  0  0  0  0  0  0  0  0
  -21.7012  -23.4871   23.7256 C   0  0  0  0  0  0  0  0  0  0  0  0
  -30.8451  -25.2158   19.9878 C   0  0  0  0  0  0  0  0  0  0  0  0
  -18.4059  -26.7258   22.8437 C   0  0  0  0  0  0  0  0  0  0  0  0
  -18.1734  -27.9579   22.2325 C   0  0  0  0  0  0  0  0  0  0  0  0
  -28.8165  -25.3756   18.6922 C   0  0  0  0  0  0  0  0  0  0  0  0
  -20.5514  -28.3821   22.1830 C   0  0  0  0  0  0  0  0  0  0  0  0
  -22.2554  -22.3315   21.6776 C   0  0  0  0  0  0  0  0  0  0  0  0
  -24.2705  -21.6100   20.2895 C   0  0  0  0  0  0  0  0  0  0  0  0
  -23.5201  -10.8235   20.4912 C   0  0  0  0  0  0  0  0  0  0  0  0
  -25.0671  -31.6977   24.4705 C   0  0  0  0  0  0  0  0  0  0  0  0
  -29.6231  -27.3120   19.9004 C   0  0  0  0  0  0  0  0  0  0  0  0
  -23.7322  -11.1142   21.8485 C   0  0  0  0  0  0  0  0  0  0  0  0
  -26.0229  -30.6839   24.2677 C   0  0  0  0  0  0  0  0  0  0  0  0
  -28.6737  -26.7243   19.0522 C   0  0  0  0  0  0  0  0  0  0  0  0
  -20.6993  -24.1909   23.0573 C   0  0  0  0  0  0  0  0  0  0  0  0
  -29.8955  -24.6254   19.1591 C   0  0  0  0  0  0  0  0  0  0  0  0
  -19.7112  -26.3219   23.1247 C   0  0  0  0  0  0  0  0  0  0  0  0
  -19.2461  -28.7860   21.9021 C   0  0  0  0  0  0  0  0  0  0  0  0
  -20.7839  -27.1500   22.7943 C   0  0  0  0  0  0  0  0  0  0  0  0
  -23.0591  -21.3706   20.9656 C   0  0  0  0  0  0  0  0  0  0  0  0
  -24.6297  -20.3844   19.7842 C   0  0  0  0  0  0  0  0  0  0  0  0
  -25.0053  -22.8311   20.1324 C   0  0  0  0  0  0  0  0  0  0  0  0
  -27.2032  -28.8238   21.3012 C   0  0  0  0  0  0  0  0  0  0  0  0
  -26.0055  -12.8085   19.9057 C   0  0  0  0  0  0  0  0  0  0  0  0
  -26.6052  -29.8479   18.2819 C   0  0  0  0  0  0  0  0  0  0  0  0
  -28.3765  -17.8346   20.6217 C   0  0  0  0  0  0  0  0  0  0  0  0
  -26.9466  -29.3301   14.9260 C   0  0  0  0  0  0  0  0  0  0  0  0
  -29.3942  -22.4160   19.6781 C   0  0  0  0  0  0  0  0  0  1  0  0
  -24.1737  -14.8427   21.6769 C   0  0  0  0  0  0  0  0  0  0  0  0
  -23.7620  -31.7203   23.7150 C   0  0  0  0  0  0  0  0  0  0  0  0
  -23.7256  -11.8716   19.4264 C   0  0  0  0  0  0  0  0  0  0  0  0
  -29.5087  -28.7622   20.2829 C   0  0  0  0  0  0  0  0  0  0  0  0
  -24.2290  -12.4621   22.2960 C   0  0  0  0  0  0  0  0  0  0  0  0
  -27.4967  -27.4998   18.5214 C   0  0  0  0  0  0  0  0  0  0  0  0
  -23.7706  -30.8536   22.4584 C   0  0  0  0  0  0  0  0  0  0  0  0
  -22.2512  -16.1874   18.7592 C   0  0  0  0  0  0  0  0  0  0  0  0
  -24.3709  -29.4838   22.7588 C   0  0  0  0  0  0  0  0  0  0  0  0
  -22.3261  -17.6891   19.0309 C   0  0  0  0  0  0  0  0  0  0  0  0
  -22.3261  -15.3867   20.0538 C   0  0  0  0  0  0  0  0  0  0  0  0
  -23.6115  -17.1897   21.1586 C   0  0  0  0  0  0  0  0  0  0  0  0
  -25.8279  -29.6092   23.2202 C   0  0  1  0  0  0  0  0  0  0  0  0
  -28.0837  -29.2969   20.1793 C   0  0  1  0  0  0  0  0  0  0  0  0
  -24.5263  -13.0849   19.8963 C   0  0  1  0  0  0  0  0  0  0  0  0
  -23.5652  -18.0338   19.8745 C   0  0  2  0  0  0  0  0  0  0  0  0
  -26.3182  -30.3179   12.7064 C   0  0  0  0  0  0  0  0  0  0  0  0
  -23.7596  -28.8014   18.6245 C   0  0  0  0  0  0  0  0  0  0  0  0
  -23.4844  -28.9386   16.1398 C   0  0  0  0  0  0  0  0  0  0  0  0
  -23.9263  -31.0084   17.4602 C   0  0  0  0  0  0  0  0  0  0  0  0
  -29.7806  -29.7035   14.1592 C   0  0  0  0  0  0  0  0  0  0  0  0
  -29.0894  -18.7648   19.6634 C   0  0  0  0  0  0  0  0  0  0  0  0
  -29.6002  -21.0077   19.1825 C   0  0  0  0  0  0  0  0  0  0  0  0
  -28.8604  -14.1488   20.9776 C   0  0  0  0  0  0  0  0  0  0  0  0
  -28.2313  -13.8773   19.6127 C   0  0  0  0  0  0  0  0  0  0  0  0
  -28.5314  -15.5281   21.5446 C   0  0  0  0  0  0  0  0  0  0  0  0
  -25.7895  -29.3335   17.1204 C   0  0  1  0  0  0  0  0  0  0  0  0
  -27.3714  -30.2575   13.8018 C   0  0  2  0  0  0  0  0  0  0  0  0
  -24.2609  -29.5050   17.3476 C   0  0  0  0  0  0  0  0  0  0  0  0
  -22.6744  -20.0934   20.8977 N   0  0  0  0  0  0  0  0  0  0  0  0
  -23.6496  -19.5192   20.1729 N   0  0  0  0  0  0  0  0  0  0  0  0
  -27.4254  -28.9128   18.9289 N   0  0  0  0  0  0  0  0  0  0  0  0
  -24.1652  -13.4973   21.2604 N   0  0  0  0  0  0  0  0  0  0  0  0
  -23.4959  -15.7614   20.8590 N   0  0  0  0  0  0  0  0  0  0  0  0
  -25.6850  -19.9733   19.0496 N   0  0  0  0  0  0  0  0  0  0  0  0
  -24.4942  -23.9983   20.7160 N   0  0  0  0  0  0  0  0  0  0  0  0
  -26.6985  -29.8417   22.0877 N   0  0  0  0  0  0  0  0  0  0  0  0
  -26.7870  -13.9188   19.6492 N   0  0  0  0  0  0  0  0  0  0  0  0
  -29.0025  -16.5961   20.7061 N   0  0  0  0  0  0  0  0  0  0  0  0
  -26.2969  -30.0122   15.9329 N   0  0  0  0  0  0  0  0  0  0  0  0
  -28.6506  -29.7880   13.1984 N   0  3  0  0  0  0  0  0  0  0  0  0
  -26.0749  -22.8887   19.4796 O   0  0  0  0  0  0  0  0  0  0  0  0
  -26.9959  -27.6243   21.4419 O   0  0  0  0  0  0  0  0  0  0  0  0
  -26.4064  -11.6725   20.1306 O   0  0  0  0  0  0  0  0  0  0  0  0
  -26.5231  -31.0372   18.5988 O   0  0  0  0  0  0  0  0  0  0  0  0
  -27.3667  -18.1633   21.2384 O   0  0  0  0  0  0  0  0  0  0  0  0
  -27.1656  -28.1208   14.9106 O   0  0  0  0  0  0  0  0  0  0  0  0
  -28.7760  -22.7237   20.6883 O   0  0  0  0  0  0  0  0  0  0  0  0
  -24.7517  -15.1969   22.7120 O   0  0  0  0  0  0  0  0  0  0  0  0
  -19.9404  -25.0981   23.7308 O   0  0  0  0  0  0  0  0  0  0  0  0
  -30.0256  -23.2842   18.7910 O   0  0  0  0  0  0  0  0  0  1  0  0
  -28.9382  -20.1089   20.0678 O   0  0  0  0  0  0  0  0  0  0  0  0
  -19.0228  -29.9684   21.3137 F   0  0  0  0  0  0  0  0  0  0  0  0
  -22.0401  -26.7669   23.0606 F   0  0  0  0  0  0  0  0  0  0  0  0
  1  3  1  0  0  0  0
  1  7  2  0  0  0  0
  2  4  1  0  0  0  0
  2  8  2  0  0  0  0
  3  9  2  0  0  0  0
  4 10  2  0  0  0  0
  5 12  2  0  0  0  0
  5 19  1  0  0  0  0
  6 13  1  0  0  0  0
  6 19  2  0  0  0  0
  7 21  1  0  0  0  0
  8 22  1  0  0  0  0
  9 24  1  0  0  0  0
 10 25  1  0  0  0  0
 11 14  2  0  0  0  0
 11 23  1  0  0  0  0
 12 27  1  0  0  0  0
 13 27  2  0  0  0  0
 14 28  1  0  0  0  0
 15 16  2  0  0  0  0
 15 29  1  0  0  0  0
 16 30  1  0  0  0  0
 17 26  1  0  0  0  0
 17 28  2  0  0  0  0
 18 30  2  0  0  0  0
 18 31  1  0  0  0  0
 19 32  1  0  0  0  0
 20 32  1  0  0  0  0
 20 33  2  0  0  0  0
 20 34  1  0  0  0  0
 21 24  2  0  0  0  0
 21 43  1  0  0  0  0
 22 25  2  0  0  0  0
 22 42  1  0  0  0  0
 23 26  2  0  0  0  0
 23 44  1  0  0  0  0
 24 45  1  0  0  0  0
 25 53  1  0  0  0  0
 26 46  1  0  0  0  0
 27 90  1  0  0  0  0
 28 91  1  0  0  0  0
 29 31  2  0  0  0  0
 29 90  1  0  0  0  0
 30 93  1  0  0  0  0
 31 94  1  0  0  0  0
 32 70  2  0  0  0  0
 33 71  1  0  0  0  0
 33 75  1  0  0  0  0
 34 76  1  0  0  0  0
 34 82  2  0  0  0  0
 35 54  1  0  0  0  0
 35 77  1  0  0  0  0
 35 83  2  0  0  0  0
 36 55  1  0  0  0  0
 36 78  1  0  0  0  0
 36 84  2  0  0  0  0
 37 67  1  0  0  0  0
 37 72  1  0  0  0  0
 37 85  2  0  0  0  0
 38 62  1  0  0  0  0
 38 79  1  0  0  0  0
 38 86  2  0  0  0  0
 39 68  1  0  0  0  0
 39 80  1  0  0  0  0
 39 87  2  0  0  0  0
 40 63  1  0  0  0  0
 40 88  2  0  0  0  0
 40 91  1  0  0  0  0
 41 73  1  0  0  0  0
 41 74  1  0  0  0  0
 41 89  2  0  0  0  0
 42 47  1  0  0  0  0
 43 55  1  0  0  0  0
 44 54  1  0  0  0  0
 45 73  1  0  0  0  0
 46 72  1  0  0  0  0
 47 49  1  0  0  0  0
 48 50  1  0  0  0  0
 48 51  1  0  0  0  0
 49 53  1  0  0  0  0
 50 56  1  0  0  0  0
 51 74  1  0  0  0  0
 52 56  1  0  0  0  0
 52 74  1  0  0  0  0
 53 77  1  0  0  0  0
 54 72  1  0  0  0  0
 55 73  1  0  0  0  0
 56 71  1  0  0  0  0
 57 68  1  0  0  0  0
 58 69  1  0  0  0  0
 59 69  1  0  0  0  0
 60 69  1  0  0  0  0
 61 81  1  0  0  0  0
 62 92  1  0  0  0  0
 63 92  1  0  0  0  0
 64 65  1  0  0  0  0
 64 66  1  0  0  0  0
 65 78  1  0  0  0  0
 66 79  1  0  0  0  0
 67 69  1  0  0  0  0
 67 80  1  0  0  0  0
 68 81  1  0  0  0  0
 70 71  1  0  0  0  0
M  CHG  1  81   1
M  ISO  4  40 101  41 100  73 100  91 101
M  END
> <Batch ID>
0000

> <Smiles>
CNC(C)C(=O)NC(C(=O)N1Cc2cc([101O:1][101C:1](=O)COCC(=O)NCCCNC(=O)C3Cc4ccccc4C[100N:0]3[100C:0](=O)N3CCCC(n4nc(-c5ccc(Oc6ccc(F)cc6F)cc5)c(C(N)=O)c4N)C3)ccc2CC1C(=O)NC1CCCc2ccccc21)C(C)(C)C

> <Shape>
0.294

> <Color>
0.058

> <Negative vol penalty>
0.000

$$$$

  -OEChem-04042320113D

 99107  0     1  0  0  0  0  0999 V2000
  -29.8864  -23.7822   21.4178 C   0  0  0  0  0  0  0  0  0  0  0  0
  -30.1182  -22.6419   21.1231 C   0  0  0  0  0  0  0  0  0  0  0  0
  -16.6452  -27.7737   23.2940 C   0  0  0  0  0  0  0  0  0  0  0  0
  -17.7303  -26.9275   23.4983 C   0  0  0  0  0  0  0  0  0  0  0  0
  -28.7088  -16.7109   19.7087 C   0  0  0  0  0  0  0  0  0  0  0  0
  -30.0061  -17.1843   19.5125 C   0  0  0  0  0  0  0  0  0  0  0  0
  -23.4543  -13.0841   22.3062 C   0  0  0  0  0  0  0  0  0  0  0  0
  -24.4997  -14.8399   21.0173 C   0  0  0  0  0  0  0  0  0  0  0  0
  -16.8557  -29.0867   22.8751 C   0  0  0  0  0  0  0  0  0  0  0  0
  -19.0268  -27.3936   23.2828 C   0  0  0  0  0  0  0  0  0  0  0  0
  -22.2154  -26.0462   26.9790 C   0  0  0  0  0  0  0  0  0  0  0  0
  -27.6646  -17.6090   19.9299 C   0  0  0  0  0  0  0  0  0  0  0  0
  -30.2593  -18.5558   19.5377 C   0  0  0  0  0  0  0  0  0  0  0  0
  -24.3113  -12.1485   21.7269 C   0  0  0  0  0  0  0  0  0  0  0  0
  -25.3568  -13.9043   20.4380 C   0  0  0  0  0  0  0  0  0  0  0  0
  -22.6916  -24.7360   26.9630 C   0  0  0  0  0  0  0  0  0  0  0  0
  -28.1724  -12.2427   21.2937 C   0  0  0  0  0  0  0  0  0  0  0  0
  -29.5245  -12.5732   21.2037 C   0  0  0  0  0  0  0  0  0  0  0  0
  -24.7518  -25.5032   25.9701 C   0  0  0  0  0  0  0  0  0  0  0  0
  -29.4155  -12.3645   18.7992 C   0  0  0  0  0  0  0  0  0  0  0  0
  -23.5484  -14.4298   21.9514 C   0  0  0  0  0  0  0  0  0  0  0  0
  -22.8805  -16.1334   23.7288 C   0  0  0  0  0  0  0  0  0  0  0  0
  -18.1559  -29.5720   22.6636 C   0  0  0  0  0  0  0  0  0  0  0  0
  -23.0009  -27.0951   26.4798 C   0  0  0  0  0  0  0  0  0  0  0  0
  -19.2548  -28.7139   22.8593 C   0  0  0  0  0  0  0  0  0  0  0  0
  -24.2844  -26.8262   25.9832 C   0  0  0  0  0  0  0  0  0  0  0  0
  -27.9178  -18.9804   19.9550 C   0  0  0  0  0  0  0  0  0  0  0  0
  -25.2626  -12.5585   20.7928 C   0  0  0  0  0  0  0  0  0  0  0  0
  -23.9588  -24.4639   26.4558 C   0  0  0  0  0  0  0  0  0  0  0  0
  -29.2152  -19.4539   19.7589 C   0  0  0  0  0  0  0  0  0  0  0  0
  -27.4418  -11.9731   20.1365 C   0  0  0  0  0  0  0  0  0  0  0  0
  -30.1461  -12.6341   19.9565 C   0  0  0  0  0  0  0  0  0  0  0  0
  -28.0633  -12.0340   18.8892 C   0  0  0  0  0  0  0  0  0  0  0  0
  -22.6630  -15.3967   22.5491 C   0  0  0  0  0  0  0  0  0  0  0  0
  -21.7527  -16.9055   23.8643 C   0  0  0  0  0  0  0  0  0  0  0  0
  -24.0018  -16.1210   24.6223 C   0  0  0  0  0  0  0  0  0  0  0  0
  -22.6972  -29.1950   24.1129 C   0  0  0  0  0  0  0  0  0  0  0  0
  -25.4155  -30.4299   25.3811 C   0  0  0  0  0  0  0  0  0  0  0  0
  -25.6466  -20.7933   22.2461 C   0  0  0  0  0  0  0  0  0  0  0  0
  -28.2326  -29.9290   27.2412 C   0  0  0  0  0  0  0  0  0  0  0  0
  -17.9557  -20.2936   21.5436 C   0  0  0  0  0  0  0  0  0  0  0  0
  -18.3313  -30.9847   22.1653 C   0  0  0  0  0  0  0  0  0  0  0  0
  -22.4834  -28.5066   26.5288 C   0  0  0  0  0  0  0  0  0  0  0  0
  -25.1752  -27.9195   25.4543 C   0  0  0  0  0  0  0  0  0  0  0  0
  -19.7551  -31.5129   22.3205 C   0  0  0  0  0  0  0  0  0  0  0  0
  -17.3270  -16.7450   21.4374 C   0  0  0  0  0  0  0  0  0  0  0  0
  -20.7644  -30.4784   21.8328 C   0  0  0  0  0  0  0  0  0  0  0  0
  -18.6895  -16.1406   21.7750 C   0  0  0  0  0  0  0  0  0  0  0  0
  -17.4708  -18.0353   20.6368 C   0  0  0  0  0  0  0  0  0  0  0  0
  -19.6986  -18.4620   21.6427 C   0  0  0  0  0  0  0  0  0  0  0  0
  -20.6774  -29.1901   22.6600 C   0  0  1  0  0  0  0  0  0  0  0  0
  -23.1647  -29.4281   25.5218 C   0  0  1  0  0  0  0  0  0  0  0  0
  -19.5930  -17.1719   22.4742 C   0  0  2  0  0  0  0  0  0  0  0  0
  -30.2818  -31.1158   28.0714 C   0  0  0  0  0  0  0  0  0  0  0  0
  -26.6553  -30.2292   22.6004 C   0  0  0  0  0  0  0  0  0  0  0  0
  -28.9064  -30.5076   23.6601 C   0  0  0  0  0  0  0  0  0  0  0  0
  -27.2108  -32.3283   23.8412 C   0  0  0  0  0  0  0  0  0  0  0  0
  -27.4766  -29.4998   30.0703 C   0  0  0  0  0  0  0  0  0  0  0  0
  -30.4026  -21.2517   20.7657 C   0  0  0  0  0  0  0  0  0  0  0  0
  -25.1617  -20.3219   23.6005 C   0  0  0  0  0  0  0  0  0  0  0  0
  -23.4602  -22.1433   26.3067 C   0  0  0  0  0  0  0  0  0  1  0  0
  -18.5693  -22.4020   22.4586 C   0  0  0  0  0  0  0  0  0  0  0  0
  -24.0967  -20.9659   25.5939 C   0  0  0  0  0  0  0  0  0  0  0  0
  -19.8313  -23.2427   22.4450 C   0  0  0  0  0  0  0  0  0  0  0  0
  -21.6157  -23.9427   21.0854 C   0  0  0  0  0  0  0  0  0  0  0  0
  -22.2125  -23.8066   19.6978 C   0  0  0  0  0  0  0  0  0  0  0  0
  -23.0922  -22.2542   18.1685 C   0  0  0  0  0  0  0  0  0  0  0  0
  -23.8666  -20.9503   18.1516 C   0  0  0  0  0  0  0  0  0  0  0  0
  -25.6727  -19.8164   19.1390 C   0  0  0  0  0  0  0  0  0  0  0  0
  -26.7726  -19.9400   20.1967 C   0  0  1  0  0  0  0  0  0  0  0  0
  -26.8929  -30.2017   25.1711 C   0  0  1  0  0  0  0  0  0  0  0  0
  -28.8439  -30.7274   28.3784 C   0  0  2  0  0  0  0  0  0  0  0  0
  -27.3990  -30.7956   23.8263 C   0  0  0  0  0  0  0  0  0  0  0  0
  -21.4892  -15.6756   21.9760 N   0  0  0  0  0  0  0  0  0  0  0  0
  -20.9590  -16.5961   22.7992 N   0  0  0  0  0  0  0  0  0  0  0  0
  -24.6217  -29.2823   25.5178 N   0  0  0  0  0  0  0  0  0  0  0  0
  -18.3652  -18.9774   21.3084 N   0  0  0  0  0  0  0  0  0  0  0  0
  -21.3723  -17.8121   24.7894 N   0  0  0  0  0  0  0  0  0  0  0  0
  -25.0763  -15.2686   24.3341 N   0  0  0  0  0  0  0  0  0  0  0  0
  -21.3371  -29.3635   23.9363 N   0  0  0  0  0  0  0  0  0  0  0  0
  -26.2272  -19.7631   21.5230 N   0  0  0  0  0  0  0  0  0  0  0  0
  -27.5609  -30.7400   26.3511 N   0  0  0  0  0  0  0  0  0  0  0  0
  -28.8311  -29.9295   29.6370 N   0  3  0  0  0  0  0  0  0  0  0  0
  -24.0422  -16.8324   25.6547 O   0  0  0  0  0  0  0  0  0  0  0  0
  -23.5105  -28.8866   23.2497 O   0  0  0  0  0  0  0  0  0  0  0  0
  -24.9827  -31.5840   25.4295 O   0  0  0  0  0  0  0  0  0  0  0  0
  -25.5246  -21.9541   21.8642 O   0  0  0  0  0  0  0  0  0  0  0  0
  -28.3432  -28.7084   27.1496 O   0  0  0  0  0  0  0  0  0  0  0  0
  -16.8593  -20.7465   21.2196 O   0  0  0  0  0  0  0  0  0  0  0  0
  -26.0993  -11.6459   20.2274 O   0  0  0  0  0  0  0  0  0  0  0  0
  -29.4797  -20.7902   19.7812 O   0  0  0  0  0  0  0  0  0  0  0  0
  -24.4257  -23.1858   26.4384 O   0  0  0  0  0  0  0  0  0  1  0  0
  -18.9120  -21.0393   22.1806 O   0  0  0  0  0  0  0  0  0  0  0  0
  -24.5590  -21.3902   24.3174 O   0  0  0  0  0  0  0  0  0  0  0  0
  -20.4237  -23.1696   21.1557 O   0  0  0  0  0  0  0  0  0  0  0  0
  -22.5270  -22.4416   19.4603 O   0  0  0  0  0  0  0  0  0  0  0  0
  -24.9105  -21.0189   19.1121 O   0  0  0  0  0  0  0  0  0  0  0  0
  -31.4442  -12.9530   19.8701 F   0  0  0  0  0  0  0  0  0  0  0  0
  -27.3663  -11.7772   17.7739 F   0  0  0  0  0  0  0  0  0  0  0  0
  1  2  3  0  0  0  0
  2 59  1  0  0  0  0
  3  4  1  0  0  0  0
  3  9  2  0  0  0  0
  4 10  2  0  0  0  0
  5  6  1  0  0  0  0
  5 12  2  0  0  0  0
  6 13  2  0  0  0  0
  7 14  2  0  0  0  0
  7 21  1  0  0  0  0
  8 15  1  0  0  0  0
  8 21  2  0  0  0  0
  9 23  1  0  0  0  0
 10 25  1  0  0  0  0
 11 16  2  0  0  0  0
 11 24  1  0  0  0  0
 12 27  1  0  0  0  0
 13 30  1  0  0  0  0
 14 28  1  0  0  0  0
 15 28  2  0  0  0  0
 16 29  1  0  0  0  0
 17 18  2  0  0  0  0
 17 31  1  0  0  0  0
 18 32  1  0  0  0  0
 19 26  1  0  0  0  0
 19 29  2  0  0  0  0
 20 32  2  0  0  0  0
 20 33  1  0  0  0  0
 21 34  1  0  0  0  0
 22 34  1  0  0  0  0
 22 35  2  0  0  0  0
 22 36  1  0  0  0  0
 23 25  2  0  0  0  0
 23 42  1  0  0  0  0
 24 26  2  0  0  0  0
 24 43  1  0  0  0  0
 25 51  1  0  0  0  0
 26 44  1  0  0  0  0
 27 30  2  0  0  0  0
 27 70  1  0  0  0  0
 28 90  1  0  0  0  0
 29 92  1  0  0  0  0
 30 91  1  0  0  0  0
 31 33  2  0  0  0  0
 31 90  1  0  0  0  0
 32 98  1  0  0  0  0
 33 99  1  0  0  0  0
 34 74  2  0  0  0  0
 35 75  1  0  0  0  0
 35 78  1  0  0  0  0
 36 79  1  0  0  0  0
 36 84  2  0  0  0  0
 37 52  1  0  0  0  0
 37 80  1  0  0  0  0
 37 85  2  0  0  0  0
 38 71  1  0  0  0  0
 38 76  1  0  0  0  0
 38 86  2  0  0  0  0
 39 60  1  0  0  0  0
 39 81  1  0  0  0  0
 39 87  2  0  0  0  0
 40 72  1  0  0  0  0
 40 82  1  0  0  0  0
 40 88  2  0  0  0  0
 41 77  1  0  0  0  0
 41 89  2  0  0  0  0
 41 93  1  0  0  0  0
 42 45  1  0  0  0  0
 43 52  1  0  0  0  0
 44 76  1  0  0  0  0
 45 47  1  0  0  0  0
 46 48  1  0  0  0  0
 46 49  1  0  0  0  0
 47 51  1  0  0  0  0
 48 53  1  0  0  0  0
 49 77  1  0  0  0  0
 50 53  1  0  0  0  0
 50 77  1  0  0  0  0
 51 80  1  0  0  0  0
 52 76  1  0  0  0  0
 53 75  1  0  0  0  0
 54 72  1  0  0  0  0
 55 73  1  0  0  0  0
 56 73  1  0  0  0  0
 57 73  1  0  0  0  0
 58 83  1  0  0  0  0
 59 91  1  0  0  0  0
 60 94  1  0  0  0  0
 61 63  1  0  0  0  0
 61 92  1  0  0  0  0
 62 64  1  0  0  0  0
 62 93  1  0  0  0  0
 63 94  1  0  0  0  0
 64 95  1  0  0  0  0
 65 66  1  0  0  0  0
 65 95  1  0  0  0  0
 66 96  1  0  0  0  0
 67 68  1  0  0  0  0
 67 96  1  0  0  0  0
 68 97  1  0  0  0  0
 69 70  1  0  0  0  0
 69 97  1  0  0  0  0
 70 81  1  0  0  0  0
 71 73  1  0  0  0  0
 71 82  1  0  0  0  0
 72 83  1  0  0  0  0
 74 75  1  0  0  0  0
M  CHG  1  83   1
M  ISO  4  41 100  61 101  92 101  93 100
M  END
> <Batch ID>
0000

> <Smiles>
C#CCOc1ccccc1C(COCCOCCOCC[100O:0][100C:0](=O)N1CCCC(n2nc(-c3ccc(Oc4ccc(F)cc4F)cc3)c(C(N)=O)c2N)C1)NC(=O)COC[101CH2:1][101O:1]c1ccc2c(c1)CN(C(=O)C(NC(=O)C(C)NC)C(C)(C)C)C(C(=O)NC1CCCc3ccccc31)C2

> <Shape>
0.216

> <Color>
0.068

> <Negative vol penalty>
0.000

$$$$

  -OEChem-04042320113D

 88 95  0     1  0  0  0  0  0999 V2000
  -21.0214  -15.2918   22.9218 C   0  0  0  0  0  0  0  0  0  0  0  0
  -22.2046  -15.9775   23.1771 C   0  0  0  0  0  0  0  0  0  0  0  0
  -23.4018   -9.6828   19.9338 C   0  0  0  0  0  0  0  0  0  0  0  0
  -23.3268  -10.1052   22.3114 C   0  0  0  0  0  0  0  0  0  0  0  0
  -19.8932  -15.9875   22.4893 C   0  0  0  0  0  0  0  0  0  0  0  0
  -22.2605  -17.3594   22.9991 C   0  0  0  0  0  0  0  0  0  0  0  0
  -25.4904  -21.3704   26.3136 C   0  0  0  0  0  0  0  0  0  0  0  0
  -22.6254   -8.5380   20.1127 C   0  0  0  0  0  0  0  0  0  0  0  0
  -22.5504   -8.9604   22.4903 C   0  0  0  0  0  0  0  0  0  0  0  0
  -26.7229  -21.9863   26.1004 C   0  0  0  0  0  0  0  0  0  0  0  0
  -23.0383   -5.6184   22.6450 C   0  0  0  0  0  0  0  0  0  0  0  0
  -23.3766   -4.7633   23.6938 C   0  0  0  0  0  0  0  0  0  0  0  0
  -25.5947  -23.9178   25.1972 C   0  0  0  0  0  0  0  0  0  0  0  0
  -21.1910   -5.0946   24.6689 C   0  0  0  0  0  0  0  0  0  0  0  0
  -23.7526  -10.4665   21.0332 C   0  0  0  0  0  0  0  0  0  0  0  0
  -24.0973  -12.9571   20.6024 C   0  0  0  0  0  0  0  0  0  0  0  0
  -19.9326  -17.3799   22.3152 C   0  0  0  0  0  0  0  0  0  0  0  0
  -24.2993  -22.0203   25.9595 C   0  0  0  0  0  0  0  0  0  0  0  0
  -21.1322  -18.0743   22.5627 C   0  0  0  0  0  0  0  0  0  0  0  0
  -24.3482  -23.3090   25.4093 C   0  0  0  0  0  0  0  0  0  0  0  0
  -22.1996   -8.1767   21.3909 C   0  0  0  0  0  0  0  0  0  0  0  0
  -26.7753  -23.2590   25.5395 C   0  0  0  0  0  0  0  0  0  0  0  0
  -21.7764   -6.2117   22.6082 C   0  0  0  0  0  0  0  0  0  0  0  0
  -22.4529   -4.5014   24.7057 C   0  0  0  0  0  0  0  0  0  0  0  0
  -20.8528   -5.9498   23.6201 C   0  0  0  0  0  0  0  0  0  0  0  0
  -24.5551  -11.6489   20.8491 C   0  0  0  0  0  0  0  0  0  0  0  0
  -25.2425  -13.7092   20.5058 C   0  0  0  0  0  0  0  0  0  0  0  0
  -22.7566  -13.4486   20.4724 C   0  0  0  0  0  0  0  0  0  0  0  0
  -21.9318  -21.4138   23.9270 C   0  0  0  0  0  0  0  0  0  0  0  0
  -20.5912  -24.0195   25.3182 C   0  0  0  0  0  0  0  0  0  0  0  0
  -21.0306  -26.9320   27.0419 C   0  0  0  0  0  0  0  0  0  0  0  0
  -30.2883  -15.0388   22.5192 C   0  0  0  0  0  0  0  0  0  0  0  0
  -18.7011  -18.0823   21.8007 C   0  0  0  0  0  0  0  0  0  0  0  0
  -22.9766  -21.3532   26.2206 C   0  0  0  0  0  0  0  0  0  0  0  0
  -23.0974  -24.0576   25.0305 C   0  0  0  0  0  0  0  0  0  0  0  0
  -18.7365  -19.5958   21.9967 C   0  0  0  0  0  0  0  0  0  0  0  0
  -30.0859  -12.3235   20.1557 C   0  0  0  0  0  0  0  0  0  0  0  0
  -20.0854  -20.1591   21.5609 C   0  0  0  0  0  0  0  0  0  0  0  0
  -28.5949  -11.9890   20.1379 C   0  0  0  0  0  0  0  0  0  0  0  0
  -30.5416  -12.7727   21.5403 C   0  0  0  0  0  0  0  0  0  0  0  0
  -28.2607  -13.5925   22.0721 C   0  0  0  0  0  0  0  0  0  0  0  0
  -21.2252  -19.5765   22.4052 C   0  0  1  0  0  0  0  0  0  0  0  0
  -21.8503  -21.8974   25.3473 C   0  0  1  0  0  0  0  0  0  0  0  0
  -27.7595  -13.1609   20.6832 C   0  0  2  0  0  0  0  0  0  0  0  0
  -19.7504  -28.8644   28.0032 C   0  0  0  0  0  0  0  0  0  0  0  0
  -20.2530  -25.1850   22.5187 C   0  0  0  0  0  0  0  0  0  0  0  0
  -19.8760  -27.4246   23.5723 C   0  0  0  0  0  0  0  0  0  0  0  0
  -18.3027  -25.5466   24.0419 C   0  0  0  0  0  0  0  0  0  0  0  0
  -21.9404  -26.3176   29.7903 C   0  0  0  0  0  0  0  0  0  0  0  0
  -29.0923  -23.0127   25.0635 C   0  0  0  0  0  0  0  0  0  1  0  0
  -29.8817  -17.1874   23.4554 C   0  0  0  0  0  0  0  0  0  0  0  0
  -30.0769  -23.7513   24.1777 C   0  0  0  0  0  0  0  0  0  0  0  0
  -28.7268  -18.0693   23.8891 C   0  0  0  0  0  0  0  0  0  0  0  0
  -30.3048  -24.8216   22.0979 C   0  0  0  0  0  0  0  0  0  0  0  0
  -26.7670  -19.1191   23.1274 C   0  0  0  0  0  0  0  0  0  0  0  0
  -29.5633  -25.1699   20.8217 C   0  0  0  0  0  0  0  0  0  0  0  0
  -25.9069  -19.3426   21.8986 C   0  0  0  0  0  0  0  0  0  0  0  0
  -28.4333  -24.2357   18.9851 C   0  0  0  0  0  0  0  0  0  0  0  0
  -25.9220  -20.2341   19.7242 C   0  0  0  0  0  0  0  0  0  0  0  0
  -28.0259  -22.9209   18.3483 C   0  0  0  0  0  0  0  0  0  0  0  0
  -26.7916  -20.9545   18.7120 C   0  0  0  0  0  0  0  0  0  0  0  0
  -20.6190  -25.5056   25.0543 C   0  0  1  0  0  0  0  0  0  0  0  0
  -20.3383  -27.4880   28.2731 C   0  0  2  0  0  0  0  0  0  0  0  0
  -19.7865  -25.9008   23.8020 C   0  0  0  0  0  0  0  0  0  0  0  0
  -25.8873  -11.5709   20.9054 N   0  0  0  0  0  0  0  0  0  0  0  0
  -26.2764  -12.8395   20.6928 N   0  0  0  0  0  0  0  0  0  0  0  0
  -21.8288  -23.3607   25.2995 N   0  0  0  0  0  0  0  0  0  0  0  0
  -29.7041  -13.8598   22.0457 N   0  0  0  0  0  0  0  0  0  0  0  0
  -25.4559  -15.0229   20.2799 N   0  0  0  0  0  0  0  0  0  0  0  0
  -21.6968  -12.5403   20.5996 N   0  0  0  0  0  0  0  0  0  0  0  0
  -21.2743  -20.2196   23.7007 N   0  0  0  0  0  0  0  0  0  0  0  0
  -20.1822  -26.1477   26.2893 N   0  0  0  0  0  0  0  0  0  0  0  0
  -21.3035  -27.6025   29.4028 N   0  3  0  0  0  0  0  0  0  0  0  0
  -22.5065  -14.6544   20.2337 O   0  0  0  0  0  0  0  0  0  0  0  0
  -22.5445  -22.0758   23.0976 O   0  0  0  0  0  0  0  0  0  0  0  0
  -19.5120  -23.4648   25.5401 O   0  0  0  0  0  0  0  0  0  0  0  0
  -22.2054  -27.1725   26.7726 O   0  0  0  0  0  0  0  0  0  0  0  0
  -31.4996  -15.2487   22.5481 O   0  0  0  0  0  0  0  0  0  0  0  0
  -21.4418   -7.0598   21.5658 O   0  0  0  0  0  0  0  0  0  0  0  0
  -27.9770  -23.8621   25.3297 O   0  0  0  0  0  0  0  0  0  1  0  0
  -29.3628  -15.9501   22.9539 O   0  0  0  0  0  0  0  0  0  0  0  0
  -29.4259  -24.1237   22.9691 O   0  0  0  0  0  0  0  0  0  0  0  0
  -27.8719  -18.2946   22.7769 O   0  0  0  0  0  0  0  0  0  0  0  0
  -29.1363  -23.9688   20.1905 O   0  0  0  0  0  0  0  0  0  0  0  0
  -26.6810  -19.9980   20.9038 O   0  0  0  0  0  0  0  0  0  0  0  0
  -27.2043  -22.1994   19.2581 O   0  0  0  0  0  0  0  0  0  0  0  0
  -22.7774   -3.6790   25.7120 F   0  0  0  0  0  0  0  0  0  0  0  0
  -19.6385   -6.5159   23.5894 F   0  0  0  0  0  0  0  0  0  0  0  0
  1  2  1  0  0  0  0
  1  5  2  0  0  0  0
  2  6  2  0  0  0  0
  3  8  2  0  0  0  0
  3 15  1  0  0  0  0
  4  9  1  0  0  0  0
  4 15  2  0  0  0  0
  5 17  1  0  0  0  0
  6 19  1  0  0  0  0
  7 10  2  0  0  0  0
  7 18  1  0  0  0  0
  8 21  1  0  0  0  0
  9 21  2  0  0  0  0
 10 22  1  0  0  0  0
 11 12  2  0  0  0  0
 11 23  1  0  0  0  0
 12 24  1  0  0  0  0
 13 20  1  0  0  0  0
 13 22  2  0  0  0  0
 14 24  2  0  0  0  0
 14 25  1  0  0  0  0
 15 26  1  0  0  0  0
 16 26  1  0  0  0  0
 16 27  2  0  0  0  0
 16 28  1  0  0  0  0
 17 19  2  0  0  0  0
 17 33  1  0  0  0  0
 18 20  2  0  0  0  0
 18 34  1  0  0  0  0
 19 42  1  0  0  0  0
 20 35  1  0  0  0  0
 21 79  1  0  0  0  0
 22 80  1  0  0  0  0
 23 25  2  0  0  0  0
 23 79  1  0  0  0  0
 24 87  1  0  0  0  0
 25 88  1  0  0  0  0
 26 65  2  0  0  0  0
 27 66  1  0  0  0  0
 27 69  1  0  0  0  0
 28 70  1  0  0  0  0
 28 74  2  0  0  0  0
 29 43  1  0  0  0  0
 29 71  1  0  0  0  0
 29 75  2  0  0  0  0
 30 62  1  0  0  0  0
 30 67  1  0  0  0  0
 30 76  2  0  0  0  0
 31 63  1  0  0  0  0
 31 72  1  0  0  0  0
 31 77  2  0  0  0  0
 32 68  1  0  0  0  0
 32 78  2  0  0  0  0
 32 81  1  0  0  0  0
 33 36  1  0  0  0  0
 34 43  1  0  0  0  0
 35 67  1  0  0  0  0
 36 38  1  0  0  0  0
 37 39  1  0  0  0  0
 37 40  1  0  0  0  0
 38 42  1  0  0  0  0
 39 44  1  0  0  0  0
 40 68  1  0  0  0  0
 41 44  1  0  0  0  0
 41 68  1  0  0  0  0
 42 71  1  0  0  0  0
 43 67  1  0  0  0  0
 44 66  1  0  0  0  0
 45 63  1  0  0  0  0
 46 64  1  0  0  0  0
 47 64  1  0  0  0  0
 48 64  1  0  0  0  0
 49 73  1  0  0  0  0
 50 52  1  0  0  0  0
 50 80  1  0  0  0  0
 51 53  1  0  0  0  0
 51 81  1  0  0  0  0
 52 82  1  0  0  0  0
 53 83  1  0  0  0  0
 54 56  1  0  0  0  0
 54 82  1  0  0  0  0
 55 57  1  0  0  0  0
 55 83  1  0  0  0  0
 56 84  1  0  0  0  0
 57 85  1  0  0  0  0
 58 60  1  0  0  0  0
 58 84  1  0  0  0  0
 59 61  1  0  0  0  0
 59 85  1  0  0  0  0
 60 86  1  0  0  0  0
 61 86  1  0  0  0  0
 62 64  1  0  0  0  0
 62 72  1  0  0  0  0
 63 73  1  0  0  0  0
 65 66  1  0  0  0  0
M  CHG  1  73   1
M  ISO  4  32 100  50 101  80 101  81 100
M  END
> <Batch ID>
0000

> <Smiles>
CNC(C)C(=O)NC(C(=O)N1Cc2cc([101O:1][101CH2:1]COCCOCCOCCOCCOCC[100O:0][100C:0](=O)N3CCCC(n4nc(-c5ccc(Oc6ccc(F)cc6F)cc5)c(C(N)=O)c4N)C3)ccc2CC1C(=O)NC1CCCc2ccccc21)C(C)(C)C

> <Shape>
0.176

> <Color>
0.153

> <Negative vol penalty>
0.000

$$$$

  -OEChem-04042320113D

 89 96  0     1  0  0  0  0  0999 V2000
  -20.3725  -17.7290   19.8653 C   0  0  0  0  0  0  0  0  0  0  0  0
  -21.6004  -18.3014   20.1813 C   0  0  0  0  0  0  0  0  0  0  0  0
  -23.5791  -23.0284   24.3102 C   0  0  0  0  0  0  0  0  0  0  0  0
  -23.7677  -22.8602   21.9074 C   0  0  0  0  0  0  0  0  0  0  0  0
  -20.1724  -16.3622   20.0548 C   0  0  0  0  0  0  0  0  0  0  0  0
  -22.6287  -17.5075   20.6881 C   0  0  0  0  0  0  0  0  0  0  0  0
  -27.0938  -18.4879   18.5093 C   0  0  0  0  0  0  0  0  0  0  0  0
  -23.9030  -21.6770   24.4302 C   0  0  0  0  0  0  0  0  0  0  0  0
  -24.0917  -21.5088   22.0274 C   0  0  0  0  0  0  0  0  0  0  0  0
  -27.7736  -19.6280   18.9356 C   0  0  0  0  0  0  0  0  0  0  0  0
  -22.3433  -18.7005   24.0671 C   0  0  0  0  0  0  0  0  0  0  0  0
  -21.5777  -17.9263   24.9389 C   0  0  0  0  0  0  0  0  0  0  0  0
  -29.1775  -18.2584   20.3400 C   0  0  0  0  0  0  0  0  0  0  0  0
  -23.5598  -17.4091   26.2200 C   0  0  0  0  0  0  0  0  0  0  0  0
  -23.5114  -23.6200   23.0487 C   0  0  0  0  0  0  0  0  0  0  0  0
  -24.0664  -26.1065   22.9174 C   0  0  0  0  0  0  0  0  0  0  0  0
  -21.2019  -15.5495   20.5550 C   0  0  0  0  0  0  0  0  0  0  0  0
  -27.4441  -17.2235   19.0043 C   0  0  0  0  0  0  0  0  0  0  0  0
  -22.4418  -16.1289   20.8857 C   0  0  0  0  0  0  0  0  0  0  0  0
  -28.5023  -17.1035   19.9165 C   0  0  0  0  0  0  0  0  0  0  0  0
  -24.1593  -20.9172   23.2888 C   0  0  0  0  0  0  0  0  0  0  0  0
  -28.8137  -19.5137   19.8533 C   0  0  0  0  0  0  0  0  0  0  0  0
  -23.7171  -18.8289   24.2716 C   0  0  0  0  0  0  0  0  0  0  0  0
  -22.1859  -17.2806   26.0154 C   0  0  0  0  0  0  0  0  0  0  0  0
  -24.3253  -18.1833   25.3481 C   0  0  0  0  0  0  0  0  0  0  0  0
  -23.1763  -25.0158   22.9241 C   0  0  0  0  0  0  0  0  0  0  0  0
  -23.2584  -27.2082   22.7760 C   0  0  0  0  0  0  0  0  0  0  0  0
  -25.4957  -26.1223   23.0289 C   0  0  0  0  0  0  0  0  0  0  0  0
  -25.9479  -14.9798   20.6867 C   0  0  0  0  0  0  0  0  0  0  0  0
  -28.6511  -13.2860   20.0984 C   0  0  0  0  0  0  0  0  0  0  0  0
  -26.3372  -27.9291   19.4848 C   0  0  0  0  0  0  0  0  0  0  0  0
  -31.9786  -13.3112   19.3407 C   0  0  0  0  0  0  0  0  0  0  0  0
  -17.8043  -27.9910   20.4328 C   0  0  0  0  0  0  0  0  0  0  0  0
  -20.9232  -14.0856   20.7873 C   0  0  0  0  0  0  0  0  0  0  0  0
  -26.7186  -16.0005   18.5141 C   0  0  0  0  0  0  0  0  0  0  0  0
  -28.9306  -15.7669   20.4627 C   0  0  0  0  0  0  0  0  0  0  0  0
  -22.1852  -13.2478   20.9763 C   0  0  0  0  0  0  0  0  0  0  0  0
  -18.8393  -28.7607   23.7514 C   0  0  0  0  0  0  0  0  0  0  0  0
  -23.1393  -13.9320   21.9501 C   0  0  0  0  0  0  0  0  0  0  0  0
  -20.1484  -27.9866   23.9151 C   0  0  0  0  0  0  0  0  0  0  0  0
  -17.8272  -27.9863   22.9099 C   0  0  0  0  0  0  0  0  0  0  0  0
  -19.6346  -26.7698   21.7577 C   0  0  0  0  0  0  0  0  0  0  0  0
  -23.5897  -15.2964   21.4143 C   0  0  1  0  0  0  0  0  0  0  0  0
  -26.8213  -14.8197   19.4746 C   0  0  1  0  0  0  0  0  0  0  0  0
  -20.7069  -27.5348   22.5522 C   0  0  2  0  0  0  0  0  0  0  0  0
  -33.9245  -11.7725   18.9626 C   0  0  0  0  0  0  0  0  0  0  0  0
  -28.8649  -12.8212   23.1064 C   0  0  0  0  0  0  0  0  0  0  0  0
  -31.2477  -12.1350   22.7606 C   0  0  0  0  0  0  0  0  0  0  0  0
  -29.4081  -10.8251   21.7012 C   0  0  0  0  0  0  0  0  0  0  0  0
  -32.3452  -14.2685   16.5643 C   0  0  0  0  0  0  0  0  0  0  0  0
  -27.8486  -27.9858   19.5490 C   0  0  0  0  0  0  0  0  0  0  0  0
  -24.3443  -29.4147   19.6175 C   0  0  0  0  0  0  0  0  0  0  0  0
  -17.9246  -27.9170   17.9550 C   0  0  0  0  0  0  0  0  0  0  0  0
  -23.8953  -29.6939   18.1949 C   0  0  0  0  0  0  0  0  0  0  0  0
  -18.5047  -29.2246   17.4464 C   0  0  0  0  0  0  0  0  0  0  0  0
  -29.0579  -21.8761   19.7293 C   0  0  0  0  0  0  0  0  0  1  0  0
  -29.7457  -26.6084   19.7121 C   0  0  0  0  0  0  0  0  0  0  0  0
  -29.9182  -22.9818   20.3097 C   0  0  0  0  0  0  0  0  0  0  0  0
  -30.2561  -25.3074   20.3011 C   0  0  0  0  0  0  0  0  0  0  0  0
  -22.0166  -30.1497   16.8586 C   0  0  0  0  0  0  0  0  0  0  0  0
  -20.5101  -30.3194   16.8963 C   0  0  0  0  0  0  0  0  0  0  0  0
  -29.9790  -13.1156   20.7960 C   0  0  1  0  0  0  0  0  0  0  0  0
  -32.7832  -12.5381   18.3115 C   0  0  2  0  0  0  0  0  0  0  0  0
  -29.8658  -12.2498   22.0824 C   0  0  0  0  0  0  0  0  0  0  0  0
  -21.9006  -25.3906   22.7972 N   0  0  0  0  0  0  0  0  0  0  0  0
  -21.9832  -26.7291   22.7096 N   0  0  0  0  0  0  0  0  0  0  0  0
  -28.1863  -14.6013   19.9578 N   0  0  0  0  0  0  0  0  0  0  0  0
  -18.4188  -27.5887   21.6301 N   0  0  0  0  0  0  0  0  0  0  0  0
  -23.5215  -28.5302   22.7034 N   0  0  0  0  0  0  0  0  0  0  0  0
  -26.1686  -24.9007   23.1680 N   0  0  0  0  0  0  0  0  0  0  0  0
  -24.6052  -15.1297   20.3967 N   0  0  0  0  0  0  0  0  0  0  0  0
  -25.7707  -29.1847   19.6393 N   0  0  0  0  0  0  0  0  0  0  0  0
  -30.8997  -12.5839   19.7969 N   0  0  0  0  0  0  0  0  0  0  0  0
  -18.4333  -27.5768   19.2651 N   0  0  0  0  0  0  0  0  0  0  0  0
  -33.3584  -13.4678   17.2987 N   0  3  0  0  0  0  0  0  0  0  0  0
  -26.1553  -27.1892   23.0224 O   0  0  0  0  0  0  0  0  0  0  0  0
  -26.4545  -14.9667   21.8025 O   0  0  0  0  0  0  0  0  0  0  0  0
  -28.0519  -12.2894   19.6869 O   0  0  0  0  0  0  0  0  0  0  0  0
  -25.7186  -26.8820   19.3147 O   0  0  0  0  0  0  0  0  0  0  0  0
  -32.2794  -14.4454   19.7063 O   0  0  0  0  0  0  0  0  0  0  0  0
  -16.7746  -28.6735   20.4064 O   0  0  0  0  0  0  0  0  0  0  0  0
  -24.4757  -19.5986   23.4056 O   0  0  0  0  0  0  0  0  0  0  0  0
  -29.4785  -20.6250   20.2716 O   0  0  0  0  0  0  0  0  0  1  0  0
  -28.3752  -26.7683   20.0579 O   0  0  0  0  0  0  0  0  0  0  0  0
  -22.4864  -29.8844   18.1731 O   0  0  0  0  0  0  0  0  0  0  0  0
  -19.9191  -29.1150   17.3693 O   0  0  0  0  0  0  0  0  0  0  0  0
  -29.4821  -24.2316   19.7891 O   0  0  0  0  0  0  0  0  0  0  0  0
  -21.4504  -16.5384   26.8534 F   0  0  0  0  0  0  0  0  0  0  0  0
  -25.6445  -18.3039   25.5504 F   0  0  0  0  0  0  0  0  0  0  0  0
  1  2  1  0  0  0  0
  1  5  2  0  0  0  0
  2  6  2  0  0  0  0
  3  8  2  0  0  0  0
  3 15  1  0  0  0  0
  4  9  1  0  0  0  0
  4 15  2  0  0  0  0
  5 17  1  0  0  0  0
  6 19  1  0  0  0  0
  7 10  2  0  0  0  0
  7 18  1  0  0  0  0
  8 21  1  0  0  0  0
  9 21  2  0  0  0  0
 10 22  1  0  0  0  0
 11 12  2  0  0  0  0
 11 23  1  0  0  0  0
 12 24  1  0  0  0  0
 13 20  1  0  0  0  0
 13 22  2  0  0  0  0
 14 24  2  0  0  0  0
 14 25  1  0  0  0  0
 15 26  1  0  0  0  0
 16 26  1  0  0  0  0
 16 27  2  0  0  0  0
 16 28  1  0  0  0  0
 17 19  2  0  0  0  0
 17 34  1  0  0  0  0
 18 20  2  0  0  0  0
 18 35  1  0  0  0  0
 19 43  1  0  0  0  0
 20 36  1  0  0  0  0
 21 82  1  0  0  0  0
 22 83  1  0  0  0  0
 23 25  2  0  0  0  0
 23 82  1  0  0  0  0
 24 88  1  0  0  0  0
 25 89  1  0  0  0  0
 26 65  2  0  0  0  0
 27 66  1  0  0  0  0
 27 69  1  0  0  0  0
 28 70  1  0  0  0  0
 28 76  2  0  0  0  0
 29 44  1  0  0  0  0
 29 71  1  0  0  0  0
 29 77  2  0  0  0  0
 30 62  1  0  0  0  0
 30 67  1  0  0  0  0
 30 78  2  0  0  0  0
 31 51  1  0  0  0  0
 31 72  1  0  0  0  0
 31 79  2  0  0  0  0
 32 63  1  0  0  0  0
 32 73  1  0  0  0  0
 32 80  2  0  0  0  0
 33 68  1  0  0  0  0
 33 74  1  0  0  0  0
 33 81  2  0  0  0  0
 34 37  1  0  0  0  0
 35 44  1  0  0  0  0
 36 67  1  0  0  0  0
 37 39  1  0  0  0  0
 38 40  1  0  0  0  0
 38 41  1  0  0  0  0
 39 43  1  0  0  0  0
 40 45  1  0  0  0  0
 41 68  1  0  0  0  0
 42 45  1  0  0  0  0
 42 68  1  0  0  0  0
 43 71  1  0  0  0  0
 44 67  1  0  0  0  0
 45 66  1  0  0  0  0
 46 63  1  0  0  0  0
 47 64  1  0  0  0  0
 48 64  1  0  0  0  0
 49 64  1  0  0  0  0
 50 75  1  0  0  0  0
 51 84  1  0  0  0  0
 52 54  1  0  0  0  0
 52 72  1  0  0  0  0
 53 55  1  0  0  0  0
 53 74  1  0  0  0  0
 54 85  1  0  0  0  0
 55 86  1  0  0  0  0
 56 58  1  0  0  0  0
 56 83  1  0  0  0  0
 57 59  1  0  0  0  0
 57 84  1  0  0  0  0
 58 87  1  0  0  0  0
 59 87  1  0  0  0  0
 60 61  1  0  0  0  0
 60 85  1  0  0  0  0
 61 86  1  0  0  0  0
 62 64  1  0  0  0  0
 62 73  1  0  0  0  0
 63 75  1  0  0  0  0
 65 66  1  0  0  0  0
M  CHG  1  75   1
M  ISO  4  33 100  56 101  74 100  83 101
M  END
> <Batch ID>
0000

> <Smiles>
CNC(C)C(=O)NC(C(=O)N1Cc2cc([101O:1][101CH2:1]COCCOCC(=O)NCCOCCOCC[100NH:0][100C:0](=O)N3CCCC(n4nc(-c5ccc(Oc6ccc(F)cc6F)cc5)c(C(N)=O)c4N)C3)ccc2CC1C(=O)NC1CCCc2ccccc21)C(C)(C)C

> <Shape>
0.220

> <Color>
0.089

> <Negative vol penalty>
0.000

$$$$

  -OEChem-04042320113D

 78 86  0     1  0  0  0  0  0999 V2000
  -26.7739  -32.6995   28.1675 C   0  0  0  0  0  0  0  0  0  0  0  0
  -27.2042  -31.6974   27.3039 C   0  0  0  0  0  0  0  0  0  0  0  0
  -27.9925  -22.3141   16.9447 C   0  0  0  0  0  0  0  0  0  0  0  0
  -26.5064  -12.7174   21.6170 C   0  0  0  0  0  0  0  0  0  0  0  0
  -26.0125  -13.7464   19.4877 C   0  0  0  0  0  0  0  0  0  0  0  0
  -25.4236  -33.0436   28.2165 C   0  0  0  0  0  0  0  0  0  0  0  0
  -26.2843  -31.0379   26.4894 C   0  0  0  0  0  0  0  0  0  0  0  0
  -27.2352  -28.9309   20.8182 C   0  0  0  0  0  0  0  0  0  0  0  0
  -27.8815  -23.5924   17.4918 C   0  0  0  0  0  0  0  0  0  0  0  0
  -28.5263  -21.2739   17.7054 C   0  0  0  0  0  0  0  0  0  0  0  0
  -25.2502  -12.1112   21.6155 C   0  0  0  0  0  0  0  0  0  0  0  0
  -24.7563  -13.1402   19.4860 C   0  0  0  0  0  0  0  0  0  0  0  0
  -27.5382  -27.6615   20.3277 C   0  0  0  0  0  0  0  0  0  0  0  0
  -23.7752   -9.4401   20.1584 C   0  0  0  0  0  0  0  0  0  0  0  0
  -23.7052   -8.0929   20.5128 C   0  0  0  0  0  0  0  0  0  0  0  0
  -25.1982  -27.2824   19.8806 C   0  0  0  0  0  0  0  0  0  0  0  0
  -28.8381  -22.7902   19.5602 C   0  0  0  0  0  0  0  0  0  0  0  0
  -22.2435   -8.6529   22.3531 C   0  0  0  0  0  0  0  0  0  0  0  0
  -26.8875  -13.5351   20.5531 C   0  0  0  0  0  0  0  0  0  0  0  0
  -29.3811  -13.6417   20.0253 C   0  0  0  0  0  0  0  0  0  0  0  0
  -24.4882  -32.3946   27.3953 C   0  0  0  0  0  0  0  0  0  0  0  0
  -25.9080  -29.3822   20.8538 C   0  0  0  0  0  0  0  0  0  0  0  0
  -24.9201  -31.3726   26.5285 C   0  0  0  0  0  0  0  0  0  0  0  0
  -24.8813  -28.5589   20.3697 C   0  0  0  0  0  0  0  0  0  0  0  0
  -28.3043  -23.8305   18.7995 C   0  0  0  0  0  0  0  0  0  0  0  0
  -28.9491  -21.5119   19.0131 C   0  0  0  0  0  0  0  0  0  0  0  0
  -24.3751  -12.3225   20.5500 C   0  0  0  0  0  0  0  0  0  0  0  0
  -26.5193  -26.8359   19.8615 C   0  0  0  0  0  0  0  0  0  0  0  0
  -23.0795  -10.3938   20.9015 C   0  0  0  0  0  0  0  0  0  0  0  0
  -22.9393   -7.6992   21.6101 C   0  0  0  0  0  0  0  0  0  0  0  0
  -22.3136  -10.0001   21.9988 C   0  0  0  0  0  0  0  0  0  0  0  0
  -28.1848  -14.1621   20.5545 C   0  0  0  0  0  0  0  0  0  0  0  0
  -30.3189  -14.6133   20.2763 C   0  0  0  0  0  0  0  0  0  0  0  0
  -29.6229  -12.3918   19.3657 C   0  0  0  0  0  0  0  0  0  0  0  0
  -23.8999  -30.2656   23.1541 C   0  0  0  0  0  0  0  0  0  0  0  0
  -21.9913  -31.0484   20.6508 C   0  0  0  0  0  0  0  0  0  0  0  0
  -21.1684  -30.5681   17.3737 C   0  0  0  0  0  0  0  0  0  0  0  0
  -29.9572  -20.5208   21.0983 C   0  0  0  0  0  0  0  0  0  0  0  0
  -23.0321  -32.7683   27.5176 C   0  0  0  0  0  0  0  0  0  0  0  0
  -25.6007  -30.7644   21.3612 C   0  0  0  0  0  0  0  0  0  0  0  0
  -23.4424  -29.0040   20.3674 C   0  0  0  0  0  0  0  0  0  0  0  0
  -22.1777  -32.2795   26.3509 C   0  0  0  0  0  0  0  0  0  0  0  0
  -31.3281  -18.1363   23.3592 C   0  0  0  0  0  0  0  0  0  0  0  0
  -22.4919  -30.8209   26.0335 C   0  0  0  0  0  0  0  0  0  0  0  0
  -30.7915  -16.7986   22.8447 C   0  0  0  0  0  0  0  0  0  0  0  0
  -30.2992  -19.2555   23.2095 C   0  0  0  0  0  0  0  0  0  0  0  0
  -29.2062  -18.0732   21.3449 C   0  0  0  0  0  0  0  0  0  0  0  0
  -23.9563  -30.6512   25.6115 C   0  0  1  0  0  0  0  0  0  0  0  0
  -24.1568  -30.9225   21.8274 C   0  0  1  0  0  0  0  0  0  0  0  0
  -30.2305  -16.9288   21.4151 C   0  0  2  0  0  0  0  0  0  0  0  0
  -19.5398  -31.3237   15.6205 C   0  0  0  0  0  0  0  0  0  0  0  0
  -19.8198  -29.3285   21.9301 C   0  0  0  0  0  0  0  0  0  0  0  0
  -18.6126  -29.3443   19.7367 C   0  0  0  0  0  0  0  0  0  0  0  0
  -19.0056  -31.4839   20.9576 C   0  0  0  0  0  0  0  0  0  0  0  0
  -23.3324  -31.6255   15.6538 C   0  0  0  0  0  0  0  0  0  0  0  0
  -28.1847  -25.2057   19.3875 C   0  0  0  0  0  0  0  0  0  1  0  0
  -20.9499  -30.3236   19.8328 C   0  0  1  0  0  0  0  0  0  0  0  0
  -20.9071  -31.5505   16.2463 C   0  0  2  0  0  0  0  0  0  0  0  0
  -19.6238  -30.1106   20.6160 C   0  0  0  0  0  0  0  0  0  0  0  0
  -28.3453  -15.3704   21.1006 N   0  0  0  0  0  0  0  0  0  0  0  0
  -29.6533  -15.6173   20.9160 N   0  0  0  0  0  0  0  0  0  0  0  0
  -23.1921  -30.3615   20.8793 N   0  0  0  0  0  0  0  0  0  0  0  0
  -29.8156  -19.3219   21.8287 N   0  0  0  0  0  0  0  0  0  0  0  0
  -31.6396  -14.6981   20.0102 N   0  0  0  0  0  0  0  0  0  0  0  0
  -28.5477  -11.5102   19.1899 N   0  0  0  0  0  0  0  0  0  0  0  0
  -29.4906  -20.4548   19.7858 N   0  0  0  0  0  0  0  0  0  0  0  0
  -24.1410  -31.0823   24.2423 N   0  0  0  0  0  0  0  0  0  0  0  0
  -20.7987  -31.0848   18.5974 N   0  0  0  0  0  0  0  0  0  0  0  0
  -21.9408  -31.4053   15.1827 N   0  3  0  0  0  0  0  0  0  0  0  0
  -30.7622  -12.0595   18.9593 O   0  0  0  0  0  0  0  0  0  0  0  0
  -23.5105  -29.1042   23.1878 O   0  0  0  0  0  0  0  0  0  0  0  0
  -21.7511  -32.1850   21.0655 O   0  0  0  0  0  0  0  0  0  0  0  0
  -21.6488  -29.4523   17.1870 O   0  0  0  0  0  0  0  0  0  0  0  0
  -30.4803  -21.5233   21.5915 O   0  0  0  0  0  0  0  0  0  0  0  0
  -23.1494  -11.7309   20.5480 O   0  0  0  0  0  0  0  0  0  0  0  0
  -26.8122  -25.5962   19.3828 O   0  0  0  0  0  0  0  0  0  1  0  0
  -22.8709   -6.4052   21.9493 F   0  0  0  0  0  0  0  0  0  0  0  0
  -21.6420  -10.9116   22.7158 F   0  0  0  0  0  0  0  0  0  0  0  0
  1  2  1  0  0  0  0
  1  6  2  0  0  0  0
  2  7  2  0  0  0  0
  3  9  2  0  0  0  0
  3 10  1  0  0  0  0
  4 11  2  0  0  0  0
  4 19  1  0  0  0  0
  5 12  1  0  0  0  0
  5 19  2  0  0  0  0
  6 21  1  0  0  0  0
  7 23  1  0  0  0  0
  8 13  2  0  0  0  0
  8 22  1  0  0  0  0
  9 25  1  0  0  0  0
 10 26  2  0  0  0  0
 11 27  1  0  0  0  0
 12 27  2  0  0  0  0
 13 28  1  0  0  0  0
 14 15  2  0  0  0  0
 14 29  1  0  0  0  0
 15 30  1  0  0  0  0
 16 24  1  0  0  0  0
 16 28  2  0  0  0  0
 17 25  2  0  0  0  0
 17 26  1  0  0  0  0
 18 30  2  0  0  0  0
 18 31  1  0  0  0  0
 19 32  1  0  0  0  0
 20 32  1  0  0  0  0
 20 33  2  0  0  0  0
 20 34  1  0  0  0  0
 21 23  2  0  0  0  0
 21 39  1  0  0  0  0
 22 24  2  0  0  0  0
 22 40  1  0  0  0  0
 23 48  1  0  0  0  0
 24 41  1  0  0  0  0
 25 56  1  0  0  0  0
 26 66  1  0  0  0  0
 27 75  1  0  0  0  0
 28 76  1  0  0  0  0
 29 31  2  0  0  0  0
 29 75  1  0  0  0  0
 30 77  1  0  0  0  0
 31 78  1  0  0  0  0
 32 60  2  0  0  0  0
 33 61  1  0  0  0  0
 33 64  1  0  0  0  0
 34 65  1  0  0  0  0
 34 70  2  0  0  0  0
 35 49  1  0  0  0  0
 35 67  1  0  0  0  0
 35 71  2  0  0  0  0
 36 57  1  0  0  0  0
 36 62  1  0  0  0  0
 36 72  2  0  0  0  0
 37 58  1  0  0  0  0
 37 68  1  0  0  0  0
 37 73  2  0  0  0  0
 38 63  1  0  0  0  0
 38 66  1  0  0  0  0
 38 74  2  0  0  0  0
 39 42  1  0  0  0  0
 40 49  1  0  0  0  0
 41 62  1  0  0  0  0
 42 44  1  0  0  0  0
 43 45  1  0  0  0  0
 43 46  1  0  0  0  0
 44 48  1  0  0  0  0
 45 50  1  0  0  0  0
 46 63  1  0  0  0  0
 47 50  1  0  0  0  0
 47 63  1  0  0  0  0
 48 67  1  0  0  0  0
 49 62  1  0  0  0  0
 50 61  1  0  0  0  0
 51 58  1  0  0  0  0
 52 59  1  0  0  0  0
 53 59  1  0  0  0  0
 54 59  1  0  0  0  0
 55 69  1  0  0  0  0
 56 76  1  0  0  0  0
 57 59  1  0  0  0  0
 57 68  1  0  0  0  0
 58 69  1  0  0  0  0
 60 61  1  0  0  0  0
M  CHG  1  69   1
M  ISO  4  38 100  56 101  66 100  76 101
M  END
> <Batch ID>
0000

> <Smiles>
CNC(C)C(=O)NC(C(=O)N1Cc2cc([101O:1][101CH2:1]c3cccc([100NH:0][100C:0](=O)N4CCCC(n5nc(-c6ccc(Oc7ccc(F)cc7F)cc6)c(C(N)=O)c5N)C4)c3)ccc2CC1C(=O)NC1CCCc2ccccc21)C(C)(C)C

> <Shape>
0.294

> <Color>
0.112

> <Negative vol penalty>
0.000

$$$$

  -OEChem-04042320113D

 73 80  0     1  0  0  0  0  0999 V2000
  -28.7485  -11.4171   19.9091 C   0  0  0  0  0  0  0  0  0  0  0  0
  -28.8789  -12.6951   19.3752 C   0  0  0  0  0  0  0  0  0  0  0  0
  -26.0858  -28.8294   20.5380 C   0  0  0  0  0  0  0  0  0  0  0  0
  -25.4611  -26.4979   20.6438 C   0  0  0  0  0  0  0  0  0  0  0  0
  -27.5209  -10.9983   20.4202 C   0  0  0  0  0  0  0  0  0  0  0  0
  -27.7813  -13.5548   19.3512 C   0  0  0  0  0  0  0  0  0  0  0  0
  -28.9569  -18.2489   20.8439 C   0  0  0  0  0  0  0  0  0  0  0  0
  -24.7576  -29.1739   20.2878 C   0  0  0  0  0  0  0  0  0  0  0  0
  -24.1328  -26.8425   20.3936 C   0  0  0  0  0  0  0  0  0  0  0  0
  -29.6081  -19.0662   19.9210 C   0  0  0  0  0  0  0  0  0  0  0  0
  -20.5182  -27.1399   20.1408 C   0  0  0  0  0  0  0  0  0  0  0  0
  -19.5325  -26.5338   20.9197 C   0  0  0  0  0  0  0  0  0  0  0  0
  -27.5138  -20.1500   19.4123 C   0  0  0  0  0  0  0  0  0  0  0  0
  -20.5249  -27.4777   22.9100 C   0  0  0  0  0  0  0  0  0  0  0  0
  -26.4376  -27.4913   20.7160 C   0  0  0  0  0  0  0  0  0  0  0  0
  -28.4375  -27.0233   22.2289 C   0  0  0  0  0  0  0  0  0  0  0  0
  -26.4101  -11.8567   20.4113 C   0  0  0  0  0  0  0  0  0  0  0  0
  -27.5751  -18.3688   21.0504 C   0  0  0  0  0  0  0  0  0  0  0  0
  -26.5372  -13.1466   19.8615 C   0  0  0  0  0  0  0  0  0  0  0  0
  -26.8480  -19.3347   20.3402 C   0  0  0  0  0  0  0  0  0  0  0  0
  -23.7811  -28.1805   20.2156 C   0  0  0  0  0  0  0  0  0  0  0  0
  -28.8860  -20.0149   19.2029 C   0  0  0  0  0  0  0  0  0  0  0  0
  -21.5073  -27.9147   20.7465 C   0  0  0  0  0  0  0  0  0  0  0  0
  -19.5358  -26.7028   22.3043 C   0  0  0  0  0  0  0  0  0  0  0  0
  -21.5107  -28.0837   22.1311 C   0  0  0  0  0  0  0  0  0  0  0  0
  -27.8096  -27.1347   20.9739 C   0  0  0  0  0  0  0  0  0  0  0  0
  -29.7299  -26.6628   21.9355 C   0  0  0  0  0  0  0  0  0  0  0  0
  -27.9004  -27.2272   23.5426 C   0  0  0  0  0  0  0  0  0  0  0  0
  -25.0756  -16.4409   20.6764 C   0  0  0  0  0  0  0  0  0  0  0  0
  -23.4735  -18.8854   22.0836 C   0  0  0  0  0  0  0  0  0  0  0  0
  -23.3199  -22.2195   22.7957 C   0  0  0  0  0  0  0  0  0  0  0  0
  -32.0912  -23.8931   17.1467 C   0  0  0  0  0  0  0  0  0  0  0  0
  -25.0913  -11.3427   20.9321 C   0  0  0  0  0  0  0  0  0  0  0  0
  -26.8922  -17.4978   22.0689 C   0  0  0  0  0  0  0  0  0  0  0  0
  -25.3663  -19.5172   20.5397 C   0  0  0  0  0  0  0  0  0  0  0  0
  -24.0744  -12.4467   21.2103 C   0  0  0  0  0  0  0  0  0  0  0  0
  -33.0648  -27.0723   18.5411 C   0  0  0  0  0  0  0  0  0  0  0  0
  -24.0208  -13.4292   20.0447 C   0  0  0  0  0  0  0  0  0  0  0  0
  -31.8641  -27.4545   19.4058 C   0  0  0  0  0  0  0  0  0  0  0  0
  -32.6340  -26.3100   17.2921 C   0  0  0  0  0  0  0  0  0  0  0  0
  -30.6054  -25.4729   18.4501 C   0  0  0  0  0  0  0  0  0  0  0  0
  -25.3761  -14.1169   19.8402 C   0  0  1  0  0  0  0  0  0  0  0  0
  -25.3929  -17.3562   21.8250 C   0  0  1  0  0  0  0  0  0  0  0  0
  -31.0048  -26.2206   19.7339 C   0  0  2  0  0  0  0  0  0  0  0  0
  -21.8714  -23.9273   23.9282 C   0  0  0  0  0  0  0  0  0  0  0  0
  -21.5571  -18.8303   19.7100 C   0  0  0  0  0  0  0  0  0  0  0  0
  -20.7485  -21.0973   20.3994 C   0  0  0  0  0  0  0  0  0  0  0  0
  -20.4561  -19.1513   21.9324 C   0  0  0  0  0  0  0  0  0  0  0  0
  -25.4469  -22.9073   24.7352 C   0  0  0  0  0  0  0  0  0  0  0  0
  -30.9245  -20.6254   18.1407 C   0  0  0  0  0  0  0  0  0  1  0  0
  -31.4404  -21.6054   17.1049 C   0  0  0  0  0  0  0  0  0  0  0  0
  -22.7647  -20.1236   21.5902 C   0  0  1  0  0  0  0  0  0  0  0  0
  -23.0348  -22.9612   24.0891 C   0  0  2  0  0  0  0  0  0  0  0  0
  -21.4092  -19.7961   20.9026 C   0  0  0  0  0  0  0  0  0  0  0  0
  -28.6353  -26.8669   19.9587 N   0  0  0  0  0  0  0  0  0  0  0  0
  -29.7952  -26.5837   20.5755 N   0  0  0  0  0  0  0  0  0  0  0  0
  -24.7428  -18.6375   21.5422 N   0  0  0  0  0  0  0  0  0  0  0  0
  -31.7879  -25.1677   17.6353 N   0  0  0  0  0  0  0  0  0  0  0  0
  -30.8056  -26.4090   22.7107 N   0  0  0  0  0  0  0  0  0  0  0  0
  -26.5533  -27.5944   23.6640 N   0  0  0  0  0  0  0  0  0  0  0  0
  -25.5682  -15.1586   20.8262 N   0  0  0  0  0  0  0  0  0  0  0  0
  -22.6517  -21.0147   22.7398 N   0  0  0  0  0  0  0  0  0  0  0  0
  -24.2336  -23.7363   24.5169 N   0  3  0  0  0  0  0  0  0  0  0  0
  -28.5988  -27.1040   24.5772 O   0  0  0  0  0  0  0  0  0  0  0  0
  -24.4303  -16.8662   19.7254 O   0  0  0  0  0  0  0  0  0  0  0  0
  -22.9243  -18.1686   22.9240 O   0  0  0  0  0  0  0  0  0  0  0  0
  -24.0585  -22.6661   21.9207 O   0  0  0  0  0  0  0  0  0  0  0  0
  -33.0510  -23.6395   16.4210 O   0  0  0  0  0  0  0  0  0  0  0  0
  -22.4848  -28.5164   19.9718 O   0  0  0  0  0  0  0  0  0  0  0  0
  -29.5190  -20.8135   18.3010 O   0  0  0  0  0  0  0  0  0  1  0  0
  -31.1991  -22.9408   17.5633 O   0  0  0  0  0  0  0  0  0  0  0  0
  -18.5883  -26.1220   23.0520 F   0  0  0  0  0  0  0  0  0  0  0  0
  -22.4577  -28.8279   22.7186 F   0  0  0  0  0  0  0  0  0  0  0  0
  1  2  1  0  0  0  0
  1  5  2  0  0  0  0
  2  6  2  0  0  0  0
  3  8  2  0  0  0  0
  3 15  1  0  0  0  0
  4  9  1  0  0  0  0
  4 15  2  0  0  0  0
  5 17  1  0  0  0  0
  6 19  1  0  0  0  0
  7 10  2  0  0  0  0
  7 18  1  0  0  0  0
  8 21  1  0  0  0  0
  9 21  2  0  0  0  0
 10 22  1  0  0  0  0
 11 12  2  0  0  0  0
 11 23  1  0  0  0  0
 12 24  1  0  0  0  0
 13 20  1  0  0  0  0
 13 22  2  0  0  0  0
 14 24  2  0  0  0  0
 14 25  1  0  0  0  0
 15 26  1  0  0  0  0
 16 26  1  0  0  0  0
 16 27  2  0  0  0  0
 16 28  1  0  0  0  0
 17 19  2  0  0  0  0
 17 33  1  0  0  0  0
 18 20  2  0  0  0  0
 18 34  1  0  0  0  0
 19 42  1  0  0  0  0
 20 35  1  0  0  0  0
 21 69  1  0  0  0  0
 22 70  1  0  0  0  0
 23 25  2  0  0  0  0
 23 69  1  0  0  0  0
 24 72  1  0  0  0  0
 25 73  1  0  0  0  0
 26 55  2  0  0  0  0
 27 56  1  0  0  0  0
 27 59  1  0  0  0  0
 28 60  1  0  0  0  0
 28 64  2  0  0  0  0
 29 43  1  0  0  0  0
 29 61  1  0  0  0  0
 29 65  2  0  0  0  0
 30 52  1  0  0  0  0
 30 57  1  0  0  0  0
 30 66  2  0  0  0  0
 31 53  1  0  0  0  0
 31 62  1  0  0  0  0
 31 67  2  0  0  0  0
 32 58  1  0  0  0  0
 32 68  2  0  0  0  0
 32 71  1  0  0  0  0
 33 36  1  0  0  0  0
 34 43  1  0  0  0  0
 35 57  1  0  0  0  0
 36 38  1  0  0  0  0
 37 39  1  0  0  0  0
 37 40  1  0  0  0  0
 38 42  1  0  0  0  0
 39 44  1  0  0  0  0
 40 58  1  0  0  0  0
 41 44  1  0  0  0  0
 41 58  1  0  0  0  0
 42 61  1  0  0  0  0
 43 57  1  0  0  0  0
 44 56  1  0  0  0  0
 45 53  1  0  0  0  0
 46 54  1  0  0  0  0
 47 54  1  0  0  0  0
 48 54  1  0  0  0  0
 49 63  1  0  0  0  0
 50 51  1  0  0  0  0
 50 70  1  0  0  0  0
 51 71  1  0  0  0  0
 52 54  1  0  0  0  0
 52 62  1  0  0  0  0
 53 63  1  0  0  0  0
 55 56  1  0  0  0  0
M  CHG  1  63   1
M  ISO  4  32 100  50 101  70 101  71 100
M  END
> <Batch ID>
0000

> <Smiles>
CNC(C)C(=O)NC(C(=O)N1Cc2cc([101O:1][101CH2:1]C[100O:0][100C:0](=O)N3CCCC(n4nc(-c5ccc(Oc6ccc(F)cc6F)cc5)c(C(N)=O)c4N)C3)ccc2CC1C(=O)NC1CCCc2ccccc21)C(C)(C)C

> <Shape>
0.224

> <Color>
0.066

> <Negative vol penalty>
0.000

$$$$

  -OEChem-04042320113D

 84 92  0     1  0  0  0  0  0999 V2000
  -25.9875  -37.3445   20.1010 C   0  0  0  0  0  0  0  0  0  0  0  0
  -26.4226  -36.0430   20.3297 C   0  0  0  0  0  0  0  0  0  0  0  0
  -23.6056   -8.8356   20.2354 C   0  0  0  0  0  0  0  0  0  0  0  0
  -23.0399  -10.7750   21.5604 C   0  0  0  0  0  0  0  0  0  0  0  0
  -24.9196  -37.8602   20.8342 C   0  0  0  0  0  0  0  0  0  0  0  0
  -25.7907  -35.2568   21.2925 C   0  0  0  0  0  0  0  0  0  0  0  0
  -24.8769  -30.5499   19.6631 C   0  0  0  0  0  0  0  0  0  0  0  0
  -28.7332  -18.0330   18.4387 C   0  0  0  0  0  0  0  0  0  0  0  0
  -30.7511  -17.8764   19.7580 C   0  0  0  0  0  0  0  0  0  0  0  0
  -22.6833   -8.0753   20.9543 C   0  0  0  0  0  0  0  0  0  0  0  0
  -22.1175  -10.0147   22.2794 C   0  0  0  0  0  0  0  0  0  0  0  0
  -25.9504  -29.6604   19.6517 C   0  0  0  0  0  0  0  0  0  0  0  0
  -28.8790  -19.4189   18.3800 C   0  0  0  0  0  0  0  0  0  0  0  0
  -30.8970  -19.2624   19.6993 C   0  0  0  0  0  0  0  0  0  0  0  0
  -22.5291   -6.5341   23.9585 C   0  0  0  0  0  0  0  0  0  0  0  0
  -22.9286   -5.2690   24.3891 C   0  0  0  0  0  0  0  0  0  0  0  0
  -25.1682  -28.6994   21.7215 C   0  0  0  0  0  0  0  0  0  0  0  0
  -21.1375   -4.2690   23.1127 C   0  0  0  0  0  0  0  0  0  0  0  0
  -23.7840  -10.1854   20.5385 C   0  0  0  0  0  0  0  0  0  0  0  0
  -24.4999  -11.7064   18.6197 C   0  0  0  0  0  0  0  0  0  0  0  0
  -24.2681  -37.0767   21.7998 C   0  0  0  0  0  0  0  0  0  0  0  0
  -23.9455  -30.5281   20.7112 C   0  0  0  0  0  0  0  0  0  0  0  0
  -24.7140  -35.7630   22.0403 C   0  0  0  0  0  0  0  0  0  0  0  0
  -24.0824  -29.5880   21.7425 C   0  0  0  0  0  0  0  0  0  0  0  0
  -29.6692  -17.2617   19.1277 C   0  0  0  0  0  0  0  0  0  0  0  0
  -21.9392   -8.6649   21.9763 C   0  0  0  0  0  0  0  0  0  0  0  0
  -29.9609  -20.0337   19.0103 C   0  0  0  0  0  0  0  0  0  0  0  0
  -26.0978  -28.7369   20.6825 C   0  0  0  0  0  0  0  0  0  0  0  0
  -21.4338   -6.6667   23.1051 C   0  0  0  0  0  0  0  0  0  0  0  0
  -22.2328   -4.1364   23.9662 C   0  0  0  0  0  0  0  0  0  0  0  0
  -20.7380   -5.5342   22.6822 C   0  0  0  0  0  0  0  0  0  0  0  0
  -24.7370  -10.9712   19.7966 C   0  0  0  0  0  0  0  0  0  0  0  0
  -25.7153  -12.2695   18.3159 C   0  0  0  0  0  0  0  0  0  0  0  0
  -23.2893  -11.8661   17.8683 C   0  0  0  0  0  0  0  0  0  0  0  0
  -23.0249  -32.6016   22.9376 C   0  0  0  0  0  0  0  0  0  0  0  0
  -20.8186  -30.3173   23.5984 C   0  0  0  0  0  0  0  0  0  0  0  0
  -19.9238  -27.0269   23.4586 C   0  0  0  0  0  0  0  0  0  0  0  0
  -26.8828  -26.6528   20.0138 C   0  0  0  0  0  0  0  0  0  1  0  0
  -30.3595  -14.9426   19.8288 C   0  0  0  0  0  0  0  0  0  0  0  0
  -23.1488  -37.6936   22.6005 C   0  0  0  0  0  0  0  0  0  0  0  0
  -22.7782  -31.4765   20.6950 C   0  0  0  0  0  0  0  0  0  0  0  0
  -23.0985  -29.5100   22.8802 C   0  0  0  0  0  0  0  0  0  0  0  0
  -22.2920  -36.6689   23.3396 C   0  0  0  0  0  0  0  0  0  0  0  0
  -30.3181  -11.4058   20.2369 C   0  0  0  0  0  0  0  0  0  0  0  0
  -23.1750  -35.6524   24.0565 C   0  0  0  0  0  0  0  0  0  0  0  0
  -28.8429  -11.0379   20.0619 C   0  0  0  0  0  0  0  0  0  0  0  0
  -30.4879  -12.7372   20.9666 C   0  0  0  0  0  0  0  0  0  0  0  0
  -28.2685  -13.4945   20.2115 C   0  0  0  0  0  0  0  0  0  0  0  0
  -24.0382  -34.8708   23.0588 C   0  0  1  0  0  0  0  0  0  0  0  0
  -22.1768  -31.7075   22.0779 C   0  0  1  0  0  0  0  0  0  0  0  0
  -28.0459  -12.1928   19.4243 C   0  0  2  0  0  0  0  0  0  0  0  0
  -18.0785  -25.4577   24.1142 C   0  0  0  0  0  0  0  0  0  0  0  0
  -21.7676  -30.4161   26.4966 C   0  0  0  0  0  0  0  0  0  0  0  0
  -20.6048  -28.2321   26.8788 C   0  0  0  0  0  0  0  0  0  0  0  0
  -19.2884  -30.2447   26.2159 C   0  0  0  0  0  0  0  0  0  0  0  0
  -19.4116  -26.2683   20.6441 C   0  0  0  0  0  0  0  0  0  0  0  0
  -28.1133  -25.7726   20.0690 C   0  0  0  0  0  0  0  0  0  0  0  0
  -27.8906  -24.3917   19.4532 C   0  0  0  0  0  0  0  0  0  0  0  0
  -29.1451  -23.5188   19.5080 C   0  0  0  0  0  0  0  0  0  0  0  0
  -28.9119  -22.1625   18.8567 C   0  0  0  0  0  0  0  0  0  0  0  0
  -20.7665  -29.1120   24.5059 C   0  0  1  0  0  0  0  0  0  0  0  0
  -18.6383  -26.3505   23.0177 C   0  0  2  0  0  0  0  0  0  0  0  0
  -20.6266  -29.5037   26.0040 C   0  0  0  0  0  0  0  0  0  0  0  0
  -26.0035  -11.0574   20.2121 N   0  0  0  0  0  0  0  0  0  0  0  0
  -26.5731  -11.8533   19.2912 N   0  0  0  0  0  0  0  0  0  0  0  0
  -21.9775  -30.4627   22.8227 N   0  0  0  0  0  0  0  0  0  0  0  0
  -29.7080  -13.7847   20.3038 N   0  0  0  0  0  0  0  0  0  0  0  0
  -26.1232  -13.0750   17.3124 N   0  0  0  0  0  0  0  0  0  0  0  0
  -22.1317  -11.2183   18.3207 N   0  0  0  0  0  0  0  0  0  0  0  0
  -29.5211  -15.8538   19.1874 N   0  0  0  0  0  0  0  0  0  0  0  0
  -23.2500  -33.8533   22.3971 N   0  0  0  0  0  0  0  0  0  0  0  0
  -19.6853  -28.2703   24.0049 N   0  0  0  0  0  0  0  0  0  0  0  0
  -18.8815  -25.5136   21.8088 N   0  3  0  0  0  0  0  0  0  0  0  0
  -23.2396  -12.5492   16.8174 O   0  0  0  0  0  0  0  0  0  0  0  0
  -23.4428  -32.1870   24.0124 O   0  0  0  0  0  0  0  0  0  0  0  0
  -19.8631  -31.0971   23.5732 O   0  0  0  0  0  0  0  0  0  0  0  0
  -21.0286  -26.5030   23.3345 O   0  0  0  0  0  0  0  0  0  0  0  0
  -25.8156  -26.3457   19.4998 O   0  0  0  0  0  0  0  0  0  0  0  0
  -31.5764  -15.1008   19.9559 O   0  0  0  0  0  0  0  0  0  0  0  0
  -21.0389   -7.9234   22.6778 O   0  0  0  0  0  0  0  0  0  0  0  0
  -27.1451  -27.8680   20.6742 O   0  0  0  0  0  0  0  0  0  1  0  0
  -30.1043  -21.3957   18.9527 O   0  0  0  0  0  0  0  0  0  0  0  0
  -22.6175   -2.9215   24.3786 F   0  0  0  0  0  0  0  0  0  0  0  0
  -19.6857   -5.6552   21.8613 F   0  0  0  0  0  0  0  0  0  0  0  0
  1  2  1  0  0  0  0
  1  5  2  0  0  0  0
  2  6  2  0  0  0  0
  3 10  2  0  0  0  0
  3 19  1  0  0  0  0
  4 11  1  0  0  0  0
  4 19  2  0  0  0  0
  5 21  1  0  0  0  0
  6 23  1  0  0  0  0
  7 12  2  0  0  0  0
  7 22  1  0  0  0  0
  8 13  2  0  0  0  0
  8 25  1  0  0  0  0
  9 14  1  0  0  0  0
  9 25  2  0  0  0  0
 10 26  1  0  0  0  0
 11 26  2  0  0  0  0
 12 28  1  0  0  0  0
 13 27  1  0  0  0  0
 14 27  2  0  0  0  0
 15 16  2  0  0  0  0
 15 29  1  0  0  0  0
 16 30  1  0  0  0  0
 17 24  1  0  0  0  0
 17 28  2  0  0  0  0
 18 30  2  0  0  0  0
 18 31  1  0  0  0  0
 19 32  1  0  0  0  0
 20 32  1  0  0  0  0
 20 33  2  0  0  0  0
 20 34  1  0  0  0  0
 21 23  2  0  0  0  0
 21 40  1  0  0  0  0
 22 24  2  0  0  0  0
 22 41  1  0  0  0  0
 23 49  1  0  0  0  0
 24 42  1  0  0  0  0
 25 70  1  0  0  0  0
 26 80  1  0  0  0  0
 27 82  1  0  0  0  0
 28 81  1  0  0  0  0
 29 31  2  0  0  0  0
 29 80  1  0  0  0  0
 30 83  1  0  0  0  0
 31 84  1  0  0  0  0
 32 64  2  0  0  0  0
 33 65  1  0  0  0  0
 33 68  1  0  0  0  0
 34 69  1  0  0  0  0
 34 74  2  0  0  0  0
 35 50  1  0  0  0  0
 35 71  1  0  0  0  0
 35 75  2  0  0  0  0
 36 61  1  0  0  0  0
 36 66  1  0  0  0  0
 36 76  2  0  0  0  0
 37 62  1  0  0  0  0
 37 72  1  0  0  0  0
 37 77  2  0  0  0  0
 38 57  1  0  0  0  0
 38 78  2  0  0  0  0
 38 81  1  0  0  0  0
 39 67  1  0  0  0  0
 39 70  1  0  0  0  0
 39 79  2  0  0  0  0
 40 43  1  0  0  0  0
 41 50  1  0  0  0  0
 42 66  1  0  0  0  0
 43 45  1  0  0  0  0
 44 46  1  0  0  0  0
 44 47  1  0  0  0  0
 45 49  1  0  0  0  0
 46 51  1  0  0  0  0
 47 67  1  0  0  0  0
 48 51  1  0  0  0  0
 48 67  1  0  0  0  0
 49 71  1  0  0  0  0
 50 66  1  0  0  0  0
 51 65  1  0  0  0  0
 52 62  1  0  0  0  0
 53 63  1  0  0  0  0
 54 63  1  0  0  0  0
 55 63  1  0  0  0  0
 56 73  1  0  0  0  0
 57 58  1  0  0  0  0
 58 59  1  0  0  0  0
 59 60  1  0  0  0  0
 60 82  1  0  0  0  0
 61 63  1  0  0  0  0
 61 72  1  0  0  0  0
 62 73  1  0  0  0  0
 64 65  1  0  0  0  0
M  CHG  1  73   1
M  ISO  4  38 101  39 100  70 100  81 101
M  END
> <Batch ID>
0000

> <Smiles>
CNC(C)C(=O)NC(C(=O)N1Cc2cc([101O:1][101C:1](=O)CCCCOc3ccc([100NH:0][100C:0](=O)N4CCCC(n5nc(-c6ccc(Oc7ccc(F)cc7F)cc6)c(C(N)=O)c5N)C4)cc3)ccc2CC1C(=O)NC1CCCc2ccccc21)C(C)(C)C

> <Shape>
0.311

> <Color>
0.113

> <Negative vol penalty>
0.000

$$$$

  -OEChem-04042320113D

 82 89  0     1  0  0  0  0  0999 V2000
  -32.1465  -13.7135   21.4347 C   0  0  0  0  0  0  0  0  0  0  0  0
  -31.4367  -14.9100   21.4328 C   0  0  0  0  0  0  0  0  0  0  0  0
  -28.9743  -26.3807   20.6244 C   0  0  0  0  0  0  0  0  0  0  0  0
  -27.0125  -25.0317   20.2136 C   0  0  0  0  0  0  0  0  0  0  0  0
  -31.5565  -12.5535   20.9346 C   0  0  0  0  0  0  0  0  0  0  0  0
  -30.1368  -14.9474   20.9296 C   0  0  0  0  0  0  0  0  0  0  0  0
  -26.9756  -17.5530   23.9066 C   0  0  0  0  0  0  0  0  0  0  0  0
  -29.6997  -25.2308   20.9360 C   0  0  0  0  0  0  0  0  0  0  0  0
  -27.7380  -23.8818   20.5251 C   0  0  0  0  0  0  0  0  0  0  0  0
  -27.0354  -18.9441   23.8356 C   0  0  0  0  0  0  0  0  0  0  0  0
  -29.1696  -20.5569   20.8625 C   0  0  0  0  0  0  0  0  0  0  0  0
  -29.0288  -19.4528   20.0219 C   0  0  0  0  0  0  0  0  0  0  0  0
  -25.0967  -18.9482   22.4002 C   0  0  0  0  0  0  0  0  0  0  0  0
  -29.8475  -20.7627   18.1642 C   0  0  0  0  0  0  0  0  0  0  0  0
  -27.6306  -26.2812   20.2633 C   0  0  0  0  0  0  0  0  0  0  0  0
  -26.7352  -28.0655   18.6752 C   0  0  0  0  0  0  0  0  0  0  0  0
  -30.2451  -12.5746   20.4339 C   0  0  0  0  0  0  0  0  0  0  0  0
  -25.9808  -16.8472   23.2149 C   0  0  0  0  0  0  0  0  0  0  0  0
  -29.5291  -13.7869   20.4211 C   0  0  0  0  0  0  0  0  0  0  0  0
  -25.0249  -17.5483   22.4660 C   0  0  0  0  0  0  0  0  0  0  0  0
  -29.0816  -23.9814   20.8863 C   0  0  0  0  0  0  0  0  0  0  0  0
  -26.0976  -19.6418   23.0800 C   0  0  0  0  0  0  0  0  0  0  0  0
  -29.6493  -21.7640   20.3540 C   0  0  0  0  0  0  0  0  0  0  0  0
  -29.3678  -19.5557   18.6727 C   0  0  0  0  0  0  0  0  0  0  0  0
  -29.9883  -21.8669   19.0048 C   0  0  0  0  0  0  0  0  0  0  0  0
  -26.8806  -27.4687   19.9419 C   0  0  0  0  0  0  0  0  0  0  0  0
  -25.9351  -29.1589   18.9007 C   0  0  0  0  0  0  0  0  0  0  0  0
  -27.2751  -27.6672   17.4081 C   0  0  0  0  0  0  0  0  0  0  0  0
  -25.9738  -14.6746   20.8947 C   0  0  0  0  0  0  0  0  0  0  0  0
  -22.7899  -14.5955   21.5102 C   0  0  0  0  0  0  0  0  0  0  0  0
  -20.0370  -16.1913   22.7438 C   0  0  0  0  0  0  0  0  0  0  0  0
  -21.8864  -30.4485   23.1191 C   0  0  0  0  0  0  0  0  0  0  0  0
  -29.6666  -11.3055   19.8603 C   0  0  0  0  0  0  0  0  0  0  0  0
  -25.9138  -15.3484   23.3233 C   0  0  0  0  0  0  0  0  0  0  0  0
  -23.9247  -16.8389   21.7213 C   0  0  0  0  0  0  0  0  0  0  0  0
  -28.1502  -11.3500   19.6898 C   0  0  0  0  0  0  0  0  0  0  0  0
  -24.7964  -32.3288   22.2987 C   0  0  0  0  0  0  0  0  0  0  0  0
  -27.7249  -12.6603   19.0350 C   0  0  0  0  0  0  0  0  0  0  0  0
  -25.6474  -31.3502   21.4873 C   0  0  0  0  0  0  0  0  0  0  0  0
  -24.0456  -31.6234   23.4259 C   0  0  0  0  0  0  0  0  0  0  0  0
  -24.0810  -29.4921   22.1889 C   0  0  0  0  0  0  0  0  0  0  0  0
  -28.1080  -13.8624   19.9065 C   0  0  1  0  0  0  0  0  0  0  0  0
  -25.1676  -14.6981   22.1624 C   0  0  1  0  0  0  0  0  0  0  0  0
  -24.8136  -30.1477   21.0058 C   0  0  2  0  0  0  0  0  0  0  0  0
  -17.5681  -15.8884   23.0759 C   0  0  0  0  0  0  0  0  0  0  0  0
  -22.3295  -15.1090   18.5380 C   0  0  0  0  0  0  0  0  0  0  0  0
  -19.9673  -15.7344   19.0832 C   0  0  0  0  0  0  0  0  0  0  0  0
  -20.7856  -13.4261   19.5573 C   0  0  0  0  0  0  0  0  0  0  0  0
  -20.2838  -16.4435   25.6822 C   0  0  0  0  0  0  0  0  0  0  0  0
  -19.8018  -29.1627   22.7186 C   0  0  0  0  0  0  0  0  0  0  0  0
  -19.4491  -28.3845   23.9736 C   0  0  0  0  0  0  0  0  0  0  0  0
  -26.6857  -21.6880   24.1398 C   0  0  0  0  0  0  0  0  0  1  0  0
  -26.0302  -23.0515   24.2427 C   0  0  0  0  0  0  0  0  0  0  0  0
  -19.7525  -26.3315   25.0764 C   0  0  0  0  0  0  0  0  0  0  0  0
  -20.4048  -24.9683   24.9492 C   0  0  0  0  0  0  0  0  0  0  0  0
  -23.9621  -24.1314   24.5248 C   0  0  0  0  0  0  0  0  0  0  0  0
  -22.4746  -23.8861   24.6900 C   0  0  0  0  0  0  0  0  0  0  0  0
  -21.5831  -15.3443   20.9984 C   0  0  1  0  0  0  0  0  0  0  0  0
  -18.9479  -15.7308   23.6958 C   0  0  2  0  0  0  0  0  0  0  0  0
  -21.1881  -14.9170   19.5566 C   0  0  0  0  0  0  0  0  0  0  0  0
  -26.2255  -28.1283   20.9010 N   0  0  0  0  0  0  0  0  0  0  0  0
  -25.6609  -29.1511   20.2367 N   0  0  0  0  0  0  0  0  0  0  0  0
  -23.9052  -15.3727   21.8532 N   0  0  0  0  0  0  0  0  0  0  0  0
  -23.2734  -30.4940   22.9023 N   0  0  0  0  0  0  0  0  0  0  0  0
  -25.4466  -30.1168   18.0844 N   0  0  0  0  0  0  0  0  0  0  0  0
  -28.0768  -26.5188   17.3547 N   0  0  0  0  0  0  0  0  0  0  0  0
  -27.1781  -14.0063   21.0061 N   0  0  0  0  0  0  0  0  0  0  0  0
  -20.5304  -15.1481   21.9892 N   0  0  0  0  0  0  0  0  0  0  0  0
  -21.2296  -29.3471   22.5840 N   0  0  0  0  0  0  0  0  0  0  0  0
  -18.9908  -16.5259   24.9555 N   0  3  0  0  0  0  0  0  0  0  0  0
  -27.0666  -28.3197   16.3573 O   0  0  0  0  0  0  0  0  0  0  0  0
  -25.5349  -15.2209   19.8894 O   0  0  0  0  0  0  0  0  0  0  0  0
  -22.7421  -13.3668   21.6090 O   0  0  0  0  0  0  0  0  0  0  0  0
  -20.4099  -17.3603   22.6737 O   0  0  0  0  0  0  0  0  0  0  0  0
  -21.2775  -31.3273   23.7388 O   0  0  0  0  0  0  0  0  0  0  0  0
  -29.7893  -22.8591   21.1900 O   0  0  0  0  0  0  0  0  0  0  0  0
  -26.1541  -20.9995   23.0085 O   0  0  0  0  0  0  0  0  0  1  0  0
  -20.0550  -27.1006   23.9186 O   0  0  0  0  0  0  0  0  0  0  0  0
  -24.6294  -22.8813   24.4219 O   0  0  0  0  0  0  0  0  0  0  0  0
  -21.8089  -25.1371   24.8135 O   0  0  0  0  0  0  0  0  0  0  0  0
  -29.2339  -18.4949   17.8659 F   0  0  0  0  0  0  0  0  0  0  0  0
  -30.4508  -23.0235   18.5108 F   0  0  0  0  0  0  0  0  0  0  0  0
  1  2  1  0  0  0  0
  1  5  2  0  0  0  0
  2  6  2  0  0  0  0
  3  8  2  0  0  0  0
  3 15  1  0  0  0  0
  4  9  1  0  0  0  0
  4 15  2  0  0  0  0
  5 17  1  0  0  0  0
  6 19  1  0  0  0  0
  7 10  2  0  0  0  0
  7 18  1  0  0  0  0
  8 21  1  0  0  0  0
  9 21  2  0  0  0  0
 10 22  1  0  0  0  0
 11 12  2  0  0  0  0
 11 23  1  0  0  0  0
 12 24  1  0  0  0  0
 13 20  1  0  0  0  0
 13 22  2  0  0  0  0
 14 24  2  0  0  0  0
 14 25  1  0  0  0  0
 15 26  1  0  0  0  0
 16 26  1  0  0  0  0
 16 27  2  0  0  0  0
 16 28  1  0  0  0  0
 17 19  2  0  0  0  0
 17 33  1  0  0  0  0
 18 20  2  0  0  0  0
 18 34  1  0  0  0  0
 19 42  1  0  0  0  0
 20 35  1  0  0  0  0
 21 76  1  0  0  0  0
 22 77  1  0  0  0  0
 23 25  2  0  0  0  0
 23 76  1  0  0  0  0
 24 81  1  0  0  0  0
 25 82  1  0  0  0  0
 26 61  2  0  0  0  0
 27 62  1  0  0  0  0
 27 65  1  0  0  0  0
 28 66  1  0  0  0  0
 28 71  2  0  0  0  0
 29 43  1  0  0  0  0
 29 67  1  0  0  0  0
 29 72  2  0  0  0  0
 30 58  1  0  0  0  0
 30 63  1  0  0  0  0
 30 73  2  0  0  0  0
 31 59  1  0  0  0  0
 31 68  1  0  0  0  0
 31 74  2  0  0  0  0
 32 64  1  0  0  0  0
 32 69  1  0  0  0  0
 32 75  2  0  0  0  0
 33 36  1  0  0  0  0
 34 43  1  0  0  0  0
 35 63  1  0  0  0  0
 36 38  1  0  0  0  0
 37 39  1  0  0  0  0
 37 40  1  0  0  0  0
 38 42  1  0  0  0  0
 39 44  1  0  0  0  0
 40 64  1  0  0  0  0
 41 44  1  0  0  0  0
 41 64  1  0  0  0  0
 42 67  1  0  0  0  0
 43 63  1  0  0  0  0
 44 62  1  0  0  0  0
 45 59  1  0  0  0  0
 46 60  1  0  0  0  0
 47 60  1  0  0  0  0
 48 60  1  0  0  0  0
 49 70  1  0  0  0  0
 50 51  1  0  0  0  0
 50 69  1  0  0  0  0
 51 78  1  0  0  0  0
 52 53  1  0  0  0  0
 52 77  1  0  0  0  0
 53 79  1  0  0  0  0
 54 55  1  0  0  0  0
 54 78  1  0  0  0  0
 55 80  1  0  0  0  0
 56 57  1  0  0  0  0
 56 79  1  0  0  0  0
 57 80  1  0  0  0  0
 58 60  1  0  0  0  0
 58 68  1  0  0  0  0
 59 70  1  0  0  0  0
 61 62  1  0  0  0  0
M  CHG  1  70   1
M  ISO  4  32 100  52 101  69 100  77 101
M  END
> <Batch ID>
0000

> <Smiles>
CNC(C)C(=O)NC(C(=O)N1Cc2cc([101O:1][101CH2:1]COCCOCCOCC[100NH:0][100C:0](=O)N3CCCC(n4nc(-c5ccc(Oc6ccc(F)cc6F)cc5)c(C(N)=O)c4N)C3)ccc2CC1C(=O)NC1CCCc2ccccc21)C(C)(C)C

> <Shape>
0.233

> <Color>
0.068

> <Negative vol penalty>
0.000

$$$$

  -OEChem-04042320113D

 82 90  0     1  0  0  0  0  0999 V2000
  -21.2813  -26.8413   17.9245 C   0  0  0  0  0  0  0  0  0  0  0  0
  -21.7700  -25.5534   17.7302 C   0  0  0  0  0  0  0  0  0  0  0  0
  -25.7432  -11.7017   20.6827 C   0  0  0  0  0  0  0  0  0  0  0  0
  -27.4179  -23.3981   20.7110 C   0  0  0  0  0  0  0  0  0  0  0  0
  -28.6818  -23.2915   18.6548 C   0  0  0  0  0  0  0  0  0  0  0  0
  -24.7917  -12.6940   20.9185 C   0  0  0  0  0  0  0  0  0  0  0  0
  -21.2738  -27.3974   19.2031 C   0  0  0  0  0  0  0  0  0  0  0  0
  -22.2527  -24.8211   18.8143 C   0  0  0  0  0  0  0  0  0  0  0  0
  -21.8207  -18.7703   19.6550 C   0  0  0  0  0  0  0  0  0  0  0  0
  -26.7596  -11.9171   19.7520 C   0  0  0  0  0  0  0  0  0  0  0  0
  -27.5419  -24.7874   20.7153 C   0  0  0  0  0  0  0  0  0  0  0  0
  -28.8058  -24.6808   18.6589 C   0  0  0  0  0  0  0  0  0  0  0  0
  -22.7178  -17.7262   19.4340 C   0  0  0  0  0  0  0  0  0  0  0  0
  -26.0974  -27.4219   19.1643 C   0  0  0  0  0  0  0  0  0  0  0  0
  -24.9574  -28.1736   19.4490 C   0  0  0  0  0  0  0  0  0  0  0  0
  -25.8730  -14.1172   19.2930 C   0  0  0  0  0  0  0  0  0  0  0  0
  -23.3848  -17.8171   21.7505 C   0  0  0  0  0  0  0  0  0  0  0  0
  -26.0740  -29.1434   21.3595 C   0  0  0  0  0  0  0  0  0  0  0  0
  -27.9879  -22.6501   19.6808 C   0  0  0  0  0  0  0  0  0  0  0  0
  -24.8566  -13.9017   20.2237 C   0  0  0  0  0  0  0  0  0  0  0  0
  -26.8343  -20.4543   19.0846 C   0  0  0  0  0  0  0  0  0  0  0  0
  -21.7477  -26.6680   20.3049 C   0  0  0  0  0  0  0  0  0  0  0  0
  -21.7066  -19.3539   20.9250 C   0  0  0  0  0  0  0  0  0  0  0  0
  -22.2528  -25.3685   20.1086 C   0  0  0  0  0  0  0  0  0  0  0  0
  -22.4837  -18.8667   21.9856 C   0  0  0  0  0  0  0  0  0  0  0  0
  -28.2359  -25.4288   19.6892 C   0  0  0  0  0  0  0  0  0  0  0  0
  -26.8245  -13.1249   19.0571 C   0  0  0  0  0  0  0  0  0  0  0  0
  -23.5021  -17.2513   20.4811 C   0  0  0  0  0  0  0  0  0  0  0  0
  -27.2256  -27.5308   19.9773 C   0  0  0  0  0  0  0  0  0  0  0  0
  -24.9457  -29.0344   20.5465 C   0  0  0  0  0  0  0  0  0  0  0  0
  -27.2139  -28.3916   21.0748 C   0  0  0  0  0  0  0  0  0  0  0  0
  -27.8606  -21.2149   19.6762 C   0  0  0  0  0  0  0  0  0  0  0  0
  -27.1712  -19.1512   19.3582 C   0  0  0  0  0  0  0  0  0  0  0  0
  -25.6797  -20.8871   18.3530 C   0  0  0  0  0  0  0  0  0  0  0  0
  -23.8437  -14.9590   20.4747 C   0  0  0  0  0  0  0  0  0  1  0  0
  -22.1977  -22.2625   22.1093 C   0  0  0  0  0  0  0  0  0  0  0  0
  -20.9522  -20.9519   24.8025 C   0  0  0  0  0  0  0  0  0  0  0  0
  -20.3266  -18.1418   26.6352 C   0  0  0  0  0  0  0  0  0  0  0  0
  -30.9594  -15.0641   19.6586 C   0  0  0  0  0  0  0  0  0  0  0  0
  -21.7633  -27.3288   21.6605 C   0  0  0  0  0  0  0  0  0  0  0  0
  -20.7149  -20.4616   21.1533 C   0  0  0  0  0  0  0  0  0  0  0  0
  -22.3844  -19.4454   23.3726 C   0  0  0  0  0  0  0  0  0  0  0  0
  -21.9457  -26.3467   22.8148 C   0  0  0  0  0  0  0  0  0  0  0  0
  -30.6774  -17.2396   22.4629 C   0  0  0  0  0  0  0  0  0  0  0  0
  -23.0762  -25.3689   22.5103 C   0  0  0  0  0  0  0  0  0  0  0  0
  -29.8405  -18.4073   21.9373 C   0  0  0  0  0  0  0  0  0  0  0  0
  -31.6264  -16.6999   21.3952 C   0  0  0  0  0  0  0  0  0  0  0  0
  -30.1435  -17.4986   19.5961 C   0  0  0  0  0  0  0  0  0  0  0  0
  -22.7620  -24.5334   21.2634 C   0  0  1  0  0  0  0  0  0  0  0  0
  -21.0519  -21.3248   22.3652 C   0  0  1  0  0  0  0  0  0  0  0  0
  -29.1313  -18.0405   20.6199 C   0  0  2  0  0  0  0  0  0  0  0  0
  -19.3287  -17.3912   28.8119 C   0  0  0  0  0  0  0  0  0  0  0  0
  -23.4428  -21.9201   26.2754 C   0  0  0  0  0  0  0  0  0  0  0  0
  -22.8581  -20.3611   28.1451 C   0  0  0  0  0  0  0  0  0  0  0  0
  -21.3038  -22.2151   27.5372 C   0  0  0  0  0  0  0  0  0  0  0  0
  -18.2697  -16.5143   25.2643 C   0  0  0  0  0  0  0  0  0  0  0  0
  -30.1935  -13.5402   17.8557 C   0  0  0  0  0  0  0  0  0  0  0  0
  -29.0606  -12.6774   18.3822 C   0  0  0  0  0  0  0  0  0  0  0  0
  -21.5180  -20.2219   25.9967 C   0  0  1  0  0  0  0  0  0  0  0  0
  -19.0712  -17.6553   27.3366 C   0  0  2  0  0  0  0  0  0  0  0  0
  -22.2842  -21.1697   26.9621 C   0  0  0  0  0  0  0  0  0  0  0  0
  -28.7805  -20.4580   20.2803 N   0  0  0  0  0  0  0  0  0  0  0  0
  -28.3334  -19.2082   20.0698 N   0  0  0  0  0  0  0  0  0  0  0  0
  -21.4048  -20.5310   23.5440 N   0  0  0  0  0  0  0  0  0  0  0  0
  -30.8909  -16.3697   20.1721 N   0  0  0  0  0  0  0  0  0  0  0  0
  -26.5837  -17.9737   19.0574 N   0  0  0  0  0  0  0  0  0  0  0  0
  -25.4856  -22.2621   18.1633 N   0  0  0  0  0  0  0  0  0  0  0  0
  -21.8193  -23.4829   21.5833 N   0  0  0  0  0  0  0  0  0  0  0  0
  -20.3985  -19.5186   26.6133 N   0  0  0  0  0  0  0  0  0  0  0  0
  -30.2277  -14.8343   18.4999 N   0  0  0  0  0  0  0  0  0  0  0  0
  -18.5844  -16.3933   26.7111 N   0  3  0  0  0  0  0  0  0  0  0  0
  -24.8361  -20.0792   17.8956 O   0  0  0  0  0  0  0  0  0  0  0  0
  -22.6953  -14.7177   20.8155 O   0  0  0  0  0  0  0  0  0  0  0  0
  -23.3404  -21.9057   22.3712 O   0  0  0  0  0  0  0  0  0  0  0  0
  -20.1332  -21.8571   24.9795 O   0  0  0  0  0  0  0  0  0  0  0  0
  -21.1619  -17.3768   26.1581 O   0  0  0  0  0  0  0  0  0  0  0  0
  -31.6191  -14.1681   20.1961 O   0  0  0  0  0  0  0  0  0  0  0  0
  -28.3569  -26.7845   19.6929 O   0  0  0  0  0  0  0  0  0  0  0  0
  -24.3790  -16.2327   20.2680 O   0  0  0  0  0  0  0  0  0  1  0  0
  -27.8162  -13.3354   18.1490 O   0  0  0  0  0  0  0  0  0  0  0  0
  -23.8515  -29.7573   20.8189 F   0  0  0  0  0  0  0  0  0  0  0  0
  -28.2952  -28.5014   21.8587 F   0  0  0  0  0  0  0  0  0  0  0  0
  1  2  1  0  0  0  0
  1  7  2  0  0  0  0
  2  8  2  0  0  0  0
  3  6  2  0  0  0  0
  3 10  1  0  0  0  0
  4 11  2  0  0  0  0
  4 19  1  0  0  0  0
  5 12  1  0  0  0  0
  5 19  2  0  0  0  0
  6 20  1  0  0  0  0
  7 22  1  0  0  0  0
  8 24  1  0  0  0  0
  9 13  2  0  0  0  0
  9 23  1  0  0  0  0
 10 27  2  0  0  0  0
 11 26  1  0  0  0  0
 12 26  2  0  0  0  0
 13 28  1  0  0  0  0
 14 15  2  0  0  0  0
 14 29  1  0  0  0  0
 15 30  1  0  0  0  0
 16 20  2  0  0  0  0
 16 27  1  0  0  0  0
 17 25  1  0  0  0  0
 17 28  2  0  0  0  0
 18 30  2  0  0  0  0
 18 31  1  0  0  0  0
 19 32  1  0  0  0  0
 20 35  1  0  0  0  0
 21 32  1  0  0  0  0
 21 33  2  0  0  0  0
 21 34  1  0  0  0  0
 22 24  2  0  0  0  0
 22 40  1  0  0  0  0
 23 25  2  0  0  0  0
 23 41  1  0  0  0  0
 24 49  1  0  0  0  0
 25 42  1  0  0  0  0
 26 78  1  0  0  0  0
 27 80  1  0  0  0  0
 28 79  1  0  0  0  0
 29 31  2  0  0  0  0
 29 78  1  0  0  0  0
 30 81  1  0  0  0  0
 31 82  1  0  0  0  0
 32 62  2  0  0  0  0
 33 63  1  0  0  0  0
 33 66  1  0  0  0  0
 34 67  1  0  0  0  0
 34 72  2  0  0  0  0
 35 73  2  0  0  0  0
 35 79  1  0  0  0  0
 36 50  1  0  0  0  0
 36 68  1  0  0  0  0
 36 74  2  0  0  0  0
 37 59  1  0  0  0  0
 37 64  1  0  0  0  0
 37 75  2  0  0  0  0
 38 60  1  0  0  0  0
 38 69  1  0  0  0  0
 38 76  2  0  0  0  0
 39 65  1  0  0  0  0
 39 70  1  0  0  0  0
 39 77  2  0  0  0  0
 40 43  1  0  0  0  0
 41 50  1  0  0  0  0
 42 64  1  0  0  0  0
 43 45  1  0  0  0  0
 44 46  1  0  0  0  0
 44 47  1  0  0  0  0
 45 49  1  0  0  0  0
 46 51  1  0  0  0  0
 47 65  1  0  0  0  0
 48 51  1  0  0  0  0
 48 65  1  0  0  0  0
 49 68  1  0  0  0  0
 50 64  1  0  0  0  0
 51 63  1  0  0  0  0
 52 60  1  0  0  0  0
 53 61  1  0  0  0  0
 54 61  1  0  0  0  0
 55 61  1  0  0  0  0
 56 71  1  0  0  0  0
 57 58  1  0  0  0  0
 57 70  1  0  0  0  0
 58 80  1  0  0  0  0
 59 61  1  0  0  0  0
 59 69  1  0  0  0  0
 60 71  1  0  0  0  0
 62 63  1  0  0  0  0
M  CHG  1  71   1
M  ISO  4  35 101  39 100  70 100  79 101
M  END
> <Batch ID>
0000

> <Smiles>
CNC(C)C(=O)NC(C(=O)N1Cc2cc([101O:1][101C:1](=O)c3cccc(OCC[100NH:0][100C:0](=O)N4CCCC(n5nc(-c6ccc(Oc7ccc(F)cc7F)cc6)c(C(N)=O)c5N)C4)c3)ccc2CC1C(=O)NC1CCCc2ccccc21)C(C)(C)C

> <Shape>
0.198

> <Color>
0.090

> <Negative vol penalty>
0.000

$$$$

  -OEChem-04042320113D

 99108  0     1  0  0  0  0  0999 V2000
  -20.6477  -33.5893   15.4288 C   0  0  0  0  0  0  0  0  0  0  0  0
  -21.6021  -32.5805   15.5117 C   0  0  0  0  0  0  0  0  0  0  0  0
  -29.5985  -21.9821   19.9622 C   0  0  0  0  0  0  0  0  0  0  0  0
  -29.8976  -19.9244   18.6665 C   0  0  0  0  0  0  0  0  0  0  0  0
  -25.2700   -9.5205   22.7195 C   0  0  0  0  0  0  0  0  0  0  0  0
  -25.1958  -11.6343   23.8872 C   0  0  0  0  0  0  0  0  0  0  0  0
  -29.0388  -22.6543   21.0491 C   0  0  0  0  0  0  0  0  0  0  0  0
  -20.6578  -34.6344   16.3515 C   0  0  0  0  0  0  0  0  0  0  0  0
  -22.5679  -32.6168   16.5170 C   0  0  0  0  0  0  0  0  0  0  0  0
  -25.0240  -27.8269   19.4376 C   0  0  0  0  0  0  0  0  0  0  0  0
  -29.6328  -18.5679   18.4760 C   0  0  0  0  0  0  0  0  0  0  0  0
  -25.4301   -8.8548   23.9347 C   0  0  0  0  0  0  0  0  0  0  0  0
  -25.3559  -10.9686   25.1025 C   0  0  0  0  0  0  0  0  0  0  0  0
  -26.2227  -27.1365   19.2639 C   0  0  0  0  0  0  0  0  0  0  0  0
  -23.4761   -7.8736   26.5139 C   0  0  0  0  0  0  0  0  0  0  0  0
  -22.7087   -6.7295   26.7323 C   0  0  0  0  0  0  0  0  0  0  0  0
  -28.2517  -18.5584   20.4560 C   0  0  0  0  0  0  0  0  0  0  0  0
  -27.2393  -28.4792   20.9910 C   0  0  0  0  0  0  0  0  0  0  0  0
  -24.7261   -5.4235   26.9803 C   0  0  0  0  0  0  0  0  0  0  0  0
  -29.3427  -20.6169   19.7550 C   0  0  0  0  0  0  0  0  0  0  0  0
  -28.5074  -19.9236   20.6632 C   0  0  0  0  0  0  0  0  0  0  0  0
  -25.1528  -10.9103   22.6958 C   0  0  0  0  0  0  0  0  0  0  0  0
  -28.2174  -21.9727   21.9421 C   0  0  0  0  0  0  0  0  0  0  0  0
  -23.7765  -11.9124   20.7960 C   0  0  0  0  0  0  0  0  0  0  0  0
  -21.6182  -34.6785   17.3744 C   0  0  0  0  0  0  0  0  0  0  0  0
  -24.9269  -28.8578   20.3832 C   0  0  0  0  0  0  0  0  0  0  0  0
  -22.5916  -33.6643   17.4535 C   0  0  0  0  0  0  0  0  0  0  0  0
  -26.0375  -29.1795   21.1765 C   0  0  0  0  0  0  0  0  0  0  0  0
  -27.9525  -20.6162   21.7517 C   0  0  0  0  0  0  0  0  0  0  0  0
  -28.8114  -17.8862   19.3691 C   0  0  0  0  0  0  0  0  0  0  0  0
  -25.4731   -9.5788   25.1262 C   0  0  0  0  0  0  0  0  0  0  0  0
  -27.3314  -27.4645   20.0387 C   0  0  0  0  0  0  0  0  0  0  0  0
  -24.8686   -7.7926   26.5285 C   0  0  0  0  0  0  0  0  0  0  0  0
  -23.3336   -5.5045   26.9656 C   0  0  0  0  0  0  0  0  0  0  0  0
  -25.4936   -6.5676   26.7618 C   0  0  0  0  0  0  0  0  0  0  0  0
  -24.9880  -11.5986   21.4407 C   0  0  0  0  0  0  0  0  0  0  0  0
  -24.1571  -12.5615   19.6470 C   0  0  0  0  0  0  0  0  0  0  0  0
  -27.6390  -22.7221   23.0871 C   0  0  0  0  0  0  0  0  0  0  0  0
  -22.4277  -11.6415   21.1998 C   0  0  0  0  0  0  0  0  0  0  0  0
  -24.3186  -31.9748   20.2491 C   0  0  0  0  0  0  0  0  0  0  0  0
  -24.3563  -31.7254   23.4831 C   0  0  0  0  0  0  0  0  0  0  0  0
  -25.4200  -30.0274   26.2458 C   0  0  0  0  0  0  0  0  0  0  0  0
  -29.0201  -15.6931   18.1473 C   0  0  0  0  0  0  0  0  0  0  0  0
  -21.6181  -35.8534   18.3201 C   0  0  0  0  0  0  0  0  0  0  0  0
  -23.6190  -29.5750   20.5770 C   0  0  0  0  0  0  0  0  0  0  0  0
  -25.9794  -30.2644   22.2196 C   0  0  0  0  0  0  0  0  0  0  0  0
  -22.4455  -35.6200   19.5815 C   0  0  0  0  0  0  0  0  0  0  0  0
  -27.7578  -12.8007   16.4986 C   0  0  0  0  0  0  0  0  0  0  0  0
  -23.8020  -35.0194   19.2266 C   0  0  0  0  0  0  0  0  0  0  0  0
  -26.7894  -12.1961   17.5178 C   0  0  0  0  0  0  0  0  0  0  0  0
  -28.9866  -13.4068   17.1741 C   0  0  0  0  0  0  0  0  0  0  0  0
  -27.7271  -13.7683   19.2603 C   0  0  0  0  0  0  0  0  0  0  0  0
  -23.6401  -33.6556   18.5446 C   0  0  1  0  0  0  0  0  0  0  0  0
  -23.7815  -30.9531   21.2110 C   0  0  1  0  0  0  0  0  0  0  0  0
  -26.4427  -13.2031   18.6320 C   0  0  2  0  0  0  0  0  0  0  0  0
  -27.0617  -19.9188   22.7378 C   0  0  0  0  0  0  0  0  0  0  0  0
  -25.3223  -30.0856   28.7526 C   0  0  0  0  0  0  0  0  0  0  0  0
  -26.4092  -33.9826   23.5083 C   0  0  0  0  0  0  0  0  0  0  0  0
  -26.9658  -33.3562   25.8676 C   0  0  0  0  0  0  0  0  0  0  0  0
  -24.6667  -34.1372   25.2956 C   0  0  0  0  0  0  0  0  0  0  0  0
  -24.0573  -27.4031   26.3693 C   0  0  0  0  0  0  0  0  0  0  0  0
  -26.2145  -24.6391   23.7592 C   0  0  0  0  0  0  0  0  0  0  0  0
  -27.1426  -25.7921   24.0951 C   0  0  0  0  0  0  0  0  0  0  0  0
  -28.7775  -26.2818   18.5670 C   0  0  0  0  0  0  0  0  0  1  0  0
  -30.2785  -26.2516   18.3530 C   0  0  0  0  0  0  0  0  0  0  0  0
  -29.2609  -26.3270   24.9610 C   0  0  0  0  0  0  0  0  0  0  0  0
  -30.6609  -25.7541   25.0693 C   0  0  0  0  0  0  0  0  0  0  0  0
  -32.2792  -25.3247   19.1660 C   0  0  0  0  0  0  0  0  0  0  0  0
  -32.8514  -24.4147   20.2357 C   0  0  0  0  0  0  0  0  0  0  0  0
  -32.3244  -24.6038   23.8724 C   0  0  0  0  0  0  0  0  0  0  0  0
  -32.6360  -23.9656   22.5324 C   0  0  0  0  0  0  0  0  0  0  0  0
  -25.4162  -31.8400   24.5520 C   0  0  1  0  0  0  0  0  0  0  0  0
  -24.6796  -29.5509   27.4823 C   0  0  2  0  0  0  0  0  0  0  0  0
  -25.8665  -33.3098   24.7849 C   0  0  0  0  0  0  0  0  0  0  0  0
  -26.0581  -12.0139   20.7578 N   0  0  0  0  0  0  0  0  0  0  0  0
  -25.5203  -12.5953   19.6721 N   0  0  0  0  0  0  0  0  0  0  0  0
  -24.6802  -30.9410   22.3670 N   0  0  0  0  0  0  0  0  0  0  0  0
  -28.5810  -14.3539   18.2150 N   0  0  0  0  0  0  0  0  0  0  0  0
  -23.4553  -13.1008   18.6276 N   0  0  0  0  0  0  0  0  0  0  0  0
  -22.2152  -10.9653   22.4089 N   0  0  0  0  0  0  0  0  0  0  0  0
  -28.5443  -16.5085   19.1735 N   0  0  0  0  0  0  0  0  0  0  0  0
  -26.8446  -23.7770   22.7333 N   0  0  0  0  0  0  0  0  0  0  0  0
  -23.3433  -32.6326   19.5243 N   0  0  0  0  0  0  0  0  0  0  0  0
  -24.8727  -31.1864   25.7376 N   0  0  0  0  0  0  0  0  0  0  0  0
  -24.6814  -28.0619   27.5456 N   0  3  0  0  0  0  0  0  0  0  0  0
  -27.9154  -22.3751   24.2324 O   0  0  0  0  0  0  0  0  0  0  0  0
  -21.4406  -11.9743   20.5008 O   0  0  0  0  0  0  0  0  0  0  0  0
  -25.5284  -32.1542   20.1715 O   0  0  0  0  0  0  0  0  0  0  0  0
  -23.2780  -32.3045   23.6363 O   0  0  0  0  0  0  0  0  0  0  0  0
  -26.3895  -29.4330   25.7796 O   0  0  0  0  0  0  0  0  0  0  0  0
  -29.7415  -16.0939   17.2303 O   0  0  0  0  0  0  0  0  0  0  0  0
  -25.6291   -8.9295   26.3122 O   0  0  0  0  0  0  0  0  0  0  0  0
  -28.5028  -26.7926   19.8708 O   0  0  0  0  0  0  0  0  0  1  0  0
  -28.3557  -25.2809   24.6297 O   0  0  0  0  0  0  0  0  0  0  0  0
  -30.8683  -25.3911   19.3200 O   0  0  0  0  0  0  0  0  0  0  0  0
  -31.0158  -25.1597   23.8286 O   0  0  0  0  0  0  0  0  0  0  0  0
  -32.5461  -24.9542   21.5160 O   0  0  0  0  0  0  0  0  0  0  0  0
  -22.5965   -4.4062   27.1769 F   0  0  0  0  0  0  0  0  0  0  0  0
  -26.8309   -6.4839   26.7782 F   0  0  0  0  0  0  0  0  0  0  0  0
  1  2  1  0  0  0  0
  1  8  2  0  0  0  0
  2  9  2  0  0  0  0
  3  7  2  0  0  0  0
  3 20  1  0  0  0  0
  4 11  2  0  0  0  0
  4 20  1  0  0  0  0
  5 12  2  0  0  0  0
  5 22  1  0  0  0  0
  6 13  1  0  0  0  0
  6 22  2  0  0  0  0
  7 23  1  0  0  0  0
  8 25  1  0  0  0  0
  9 27  1  0  0  0  0
 10 14  2  0  0  0  0
 10 26  1  0  0  0  0
 11 30  1  0  0  0  0
 12 31  1  0  0  0  0
 13 31  2  0  0  0  0
 14 32  1  0  0  0  0
 15 16  2  0  0  0  0
 15 33  1  0  0  0  0
 16 34  1  0  0  0  0
 17 21  1  0  0  0  0
 17 30  2  0  0  0  0
 18 28  1  0  0  0  0
 18 32  2  0  0  0  0
 19 34  2  0  0  0  0
 19 35  1  0  0  0  0
 20 21  2  0  0  0  0
 21 29  1  0  0  0  0
 22 36  1  0  0  0  0
 23 29  2  0  0  0  0
 23 38  1  0  0  0  0
 24 36  1  0  0  0  0
 24 37  2  0  0  0  0
 24 39  1  0  0  0  0
 25 27  2  0  0  0  0
 25 44  1  0  0  0  0
 26 28  2  0  0  0  0
 26 45  1  0  0  0  0
 27 53  1  0  0  0  0
 28 46  1  0  0  0  0
 29 56  1  0  0  0  0
 30 81  1  0  0  0  0
 31 92  1  0  0  0  0
 32 93  1  0  0  0  0
 33 35  2  0  0  0  0
 33 92  1  0  0  0  0
 34 98  1  0  0  0  0
 35 99  1  0  0  0  0
 36 75  2  0  0  0  0
 37 76  1  0  0  0  0
 37 79  1  0  0  0  0
 38 82  1  0  0  0  0
 38 86  2  0  0  0  0
 39 80  1  0  0  0  0
 39 87  2  0  0  0  0
 40 54  1  0  0  0  0
 40 83  1  0  0  0  0
 40 88  2  0  0  0  0
 41 72  1  0  0  0  0
 41 77  1  0  0  0  0
 41 89  2  0  0  0  0
 42 73  1  0  0  0  0
 42 84  1  0  0  0  0
 42 90  2  0  0  0  0
 43 78  1  0  0  0  0
 43 81  1  0  0  0  0
 43 91  2  0  0  0  0
 44 47  1  0  0  0  0
 45 54  1  0  0  0  0
 46 77  1  0  0  0  0
 47 49  1  0  0  0  0
 48 50  1  0  0  0  0
 48 51  1  0  0  0  0
 49 53  1  0  0  0  0
 50 55  1  0  0  0  0
 51 78  1  0  0  0  0
 52 55  1  0  0  0  0
 52 78  1  0  0  0  0
 53 83  1  0  0  0  0
 54 77  1  0  0  0  0
 55 76  1  0  0  0  0
 57 73  1  0  0  0  0
 58 74  1  0  0  0  0
 59 74  1  0  0  0  0
 60 74  1  0  0  0  0
 61 85  1  0  0  0  0
 62 63  1  0  0  0  0
 62 82  1  0  0  0  0
 63 94  1  0  0  0  0
 64 65  1  0  0  0  0
 64 93  1  0  0  0  0
 65 95  1  0  0  0  0
 66 67  1  0  0  0  0
 66 94  1  0  0  0  0
 67 96  1  0  0  0  0
 68 69  1  0  0  0  0
 68 95  1  0  0  0  0
 69 97  1  0  0  0  0
 70 71  1  0  0  0  0
 70 96  1  0  0  0  0
 71 97  1  0  0  0  0
 72 74  1  0  0  0  0
 72 84  1  0  0  0  0
 73 85  1  0  0  0  0
 75 76  1  0  0  0  0
M  CHG  1  85   1
M  ISO  4  43 100  64 101  81 100  93 101
M  END
> <Batch ID>
0000

> <Smiles>
CNC(C)C(=O)NC(C(=O)N1Cc2cc([101O:1][101CH2:1]COCCOCCOCCOCCNC(=O)c3ccc4ccc([100NH:0][100C:0](=O)N5CCCC(n6nc(-c7ccc(Oc8ccc(F)cc8F)cc7)c(C(N)=O)c6N)C5)cc4c3C)ccc2CC1C(=O)NC1CCCc2ccccc21)C(C)(C)C

> <Shape>
0.252

> <Color>
0.114

> <Negative vol penalty>
0.000

$$$$

  -OEChem-04042320113D

 95102  0     1  0  0  0  0  0999 V2000
  -28.8608  -24.8779   16.3071 C   0  0  0  0  0  0  0  0  0  0  0  0
  -27.6815  -24.8959   17.0449 C   0  0  0  0  0  0  0  0  0  0  0  0
  -25.5276  -16.7700   23.8617 C   0  0  0  0  0  0  0  0  0  0  0  0
  -27.0211  -18.0814   22.4882 C   0  0  0  0  0  0  0  0  0  0  0  0
  -29.9971  -25.5218   16.7952 C   0  0  0  0  0  0  0  0  0  0  0  0
  -27.6381  -25.5570   18.2719 C   0  0  0  0  0  0  0  0  0  0  0  0
  -23.4744  -28.3895   18.8063 C   0  0  0  0  0  0  0  0  0  0  0  0
  -25.1673  -16.0128   22.7470 C   0  0  0  0  0  0  0  0  0  0  0  0
  -26.6609  -17.3242   21.3735 C   0  0  0  0  0  0  0  0  0  0  0  0
  -22.2909  -27.7272   19.1295 C   0  0  0  0  0  0  0  0  0  0  0  0
  -24.1250  -13.5011   20.3346 C   0  0  0  0  0  0  0  0  0  0  0  0
  -24.0645  -12.1156   20.4838 C   0  0  0  0  0  0  0  0  0  0  0  0
  -22.5724  -28.3639   21.4392 C   0  0  0  0  0  0  0  0  0  0  0  0
  -26.4030  -12.0787   21.0898 C   0  0  0  0  0  0  0  0  0  0  0  0
  -26.4545  -17.8043   23.7323 C   0  0  0  0  0  0  0  0  0  0  0  0
  -27.8792  -18.3302   25.7820 C   0  0  0  0  0  0  0  0  0  0  0  0
  -29.9648  -26.1993   18.0243 C   0  0  0  0  0  0  0  0  0  0  0  0
  -24.2227  -29.0358   19.8007 C   0  0  0  0  0  0  0  0  0  0  0  0
  -28.7754  -26.2094   18.7776 C   0  0  0  0  0  0  0  0  0  0  0  0
  -23.7637  -29.0359   21.1256 C   0  0  0  0  0  0  0  0  0  0  0  0
  -25.7340  -16.2899   21.5030 C   0  0  0  0  0  0  0  0  0  0  0  0
  -21.8412  -27.7118   20.4465 C   0  0  0  0  0  0  0  0  0  0  0  0
  -25.3246  -14.1755   20.5629 C   0  0  0  0  0  0  0  0  0  0  0  0
  -25.2034  -11.4044   20.8614 C   0  0  0  0  0  0  0  0  0  0  0  0
  -26.4635  -13.4642   20.9405 C   0  0  0  0  0  0  0  0  0  0  0  0
  -26.8266  -18.5872   24.8832 C   0  0  0  0  0  0  0  0  0  0  0  0
  -27.8136  -19.3580   26.6906 C   0  0  0  0  0  0  0  0  0  0  0  0
  -28.8312  -17.2581   25.7944 C   0  0  0  0  0  0  0  0  0  0  0  0
  -27.1532  -28.6912   20.9826 C   0  0  0  0  0  0  0  0  0  0  0  0
  -26.3864  -31.3819   22.6241 C   0  0  0  0  0  0  0  0  0  0  0  0
  -30.4807  -23.6027   25.3014 C   0  0  0  0  0  0  0  0  0  0  0  0
  -24.5482  -21.5462   21.5172 C   0  0  0  0  0  0  0  0  0  0  0  0
  -23.9498  -33.3938   23.9133 C   0  0  0  0  0  0  0  0  0  0  0  0
  -26.5694  -25.0354   26.7883 C   0  0  0  0  0  0  0  0  0  0  0  0
  -31.2315  -26.8406   18.5331 C   0  0  0  0  0  0  0  0  0  0  0  0
  -25.4833  -29.7685   19.4312 C   0  0  0  0  0  0  0  0  0  0  0  0
  -24.5197  -29.7319   22.2267 C   0  0  0  0  0  0  0  0  0  0  0  0
  -30.9974  -27.8368   19.6658 C   0  0  0  0  0  0  0  0  0  0  0  0
  -24.3280  -22.5451   28.1204 C   0  0  0  0  0  0  0  0  0  0  0  0
  -30.0549  -27.2463   20.7098 C   0  0  0  0  0  0  0  0  0  0  0  0
  -24.8218  -21.2517   27.4733 C   0  0  0  0  0  0  0  0  0  0  0  0
  -24.4918  -23.7371   27.1829 C   0  0  0  0  0  0  0  0  0  0  0  0
  -26.3900  -22.6270   26.0333 C   0  0  0  0  0  0  0  0  0  0  0  0
  -28.6818  -26.9370   20.1012 C   0  0  1  0  0  0  0  0  0  0  0  0
  -26.4328  -29.9562   20.6105 C   0  0  1  0  0  0  0  0  0  0  0  0
  -26.2649  -21.4065   26.9614 C   0  0  2  0  0  0  0  0  0  0  0  0
  -23.6317  -35.5024   25.2362 C   0  0  0  0  0  0  0  0  0  0  0  0
  -27.1564  -29.8950   25.1748 C   0  0  0  0  0  0  0  0  0  0  0  0
  -25.9461  -31.6538   26.4825 C   0  0  0  0  0  0  0  0  0  0  0  0
  -27.9168  -32.2758   25.0853 C   0  0  0  0  0  0  0  0  0  0  0  0
  -22.4822  -34.6990   21.6993 C   0  0  0  0  0  0  0  0  0  0  0  0
  -31.0154  -23.0177   24.0091 C   0  0  0  0  0  0  0  0  0  0  0  0
  -23.6917  -20.8092   20.4999 C   0  0  0  0  0  0  0  0  0  0  0  0
  -29.9671  -22.1994   23.2572 C   0  0  0  0  0  0  0  0  0  0  0  0
  -28.7673  -23.0447   22.8199 C   0  0  0  0  0  0  0  0  0  0  0  0
  -27.7508  -22.2047   22.0455 C   0  0  0  0  0  0  0  0  0  0  0  0
  -26.5375  -23.0341   21.6422 C   0  0  0  0  0  0  0  0  0  0  0  0
  -30.0933  -25.7704   26.4594 C   0  0  0  0  0  0  0  0  0  0  0  0
  -22.5516  -20.0297   21.1370 C   0  0  0  0  0  0  0  0  0  0  0  0
  -28.6263  -26.1438   26.3424 C   0  0  0  0  0  0  0  0  0  0  0  0
  -19.9865  -26.4242   19.6996 C   0  0  0  0  0  0  0  0  0  1  0  0
  -18.7342  -25.7716   20.2523 C   0  0  0  0  0  0  0  0  0  0  0  0
  -20.6003  -20.2447   22.4289 C   0  0  0  0  0  0  0  0  0  0  0  0
  -19.7274  -21.2508   23.1539 C   0  0  0  0  0  0  0  0  0  0  0  0
  -17.9652  -24.1862   21.8072 C   0  0  0  0  0  0  0  0  0  0  0  0
  -18.4227  -23.1812   22.8467 C   0  0  0  0  0  0  0  0  0  0  0  0
  -25.7368  -31.6736   23.9553 C   0  0  1  0  0  0  0  0  0  0  0  0
  -23.7439  -34.8963   23.8459 C   0  0  2  0  0  0  0  0  0  0  0  0
  -26.6756  -31.3597   25.1543 C   0  0  0  0  0  0  0  0  0  0  0  0
  -26.1423  -19.6917   25.1929 N   0  0  0  0  0  0  0  0  0  0  0  0
  -26.7663  -20.1377   26.2965 N   0  0  0  0  0  0  0  0  0  0  0  0
  -25.7497  -30.4291   21.8164 N   0  0  0  0  0  0  0  0  0  0  0  0
  -25.8631  -23.8330   26.6841 N   0  0  0  0  0  0  0  0  0  0  0  0
  -28.5501  -19.6619   27.7804 N   0  0  0  0  0  0  0  0  0  0  0  0
  -28.7565  -16.2866   24.7869 N   0  0  0  0  0  0  0  0  0  0  0  0
  -27.9072  -28.1511   19.9583 N   0  0  0  0  0  0  0  0  0  0  0  0
  -25.5776  -22.2462   20.9042 N   0  0  0  0  0  0  0  0  0  0  0  0
  -30.5394  -24.9857   25.3312 N   0  0  0  0  0  0  0  0  0  0  0  0
  -25.2876  -33.0603   23.8952 N   0  0  0  0  0  0  0  0  0  0  0  0
  -22.4984  -35.2152   23.0922 N   0  3  0  0  0  0  0  0  0  0  0  0
  -29.7114  -17.1555   26.6822 O   0  0  0  0  0  0  0  0  0  0  0  0
  -27.0351  -28.2396   22.1157 O   0  0  0  0  0  0  0  0  0  0  0  0
  -27.4168  -31.9828   22.3095 O   0  0  0  0  0  0  0  0  0  0  0  0
  -30.0543  -22.8855   26.2038 O   0  0  0  0  0  0  0  0  0  0  0  0
  -24.3370  -21.5145   22.7265 O   0  0  0  0  0  0  0  0  0  0  0  0
  -23.0172  -32.5960   23.9795 O   0  0  0  0  0  0  0  0  0  0  0  0
  -26.1156  -26.0645   27.2856 O   0  0  0  0  0  0  0  0  0  0  0  0
  -25.3828  -15.5511   20.4151 O   0  0  0  0  0  0  0  0  0  0  0  0
  -20.6867  -27.0655   20.7648 O   0  0  0  0  0  0  0  0  0  1  0  0
  -27.8359  -24.9512   26.2737 O   0  0  0  0  0  0  0  0  0  0  0  0
  -21.6856  -20.9292   21.8149 O   0  0  0  0  0  0  0  0  0  0  0  0
  -19.1037  -24.8303   21.2526 O   0  0  0  0  0  0  0  0  0  0  0  0
  -19.2502  -22.2089   22.2196 O   0  0  0  0  0  0  0  0  0  0  0  0
  -25.1447  -10.0741   21.0062 F   0  0  0  0  0  0  0  0  0  0  0  0
  -27.6184  -14.1067   21.1624 F   0  0  0  0  0  0  0  0  0  0  0  0
  1  2  1  0  0  0  0
  1  5  2  0  0  0  0
  2  6  2  0  0  0  0
  3  8  2  0  0  0  0
  3 15  1  0  0  0  0
  4  9  1  0  0  0  0
  4 15  2  0  0  0  0
  5 17  1  0  0  0  0
  6 19  1  0  0  0  0
  7 10  2  0  0  0  0
  7 18  1  0  0  0  0
  8 21  1  0  0  0  0
  9 21  2  0  0  0  0
 10 22  1  0  0  0  0
 11 12  2  0  0  0  0
 11 23  1  0  0  0  0
 12 24  1  0  0  0  0
 13 20  1  0  0  0  0
 13 22  2  0  0  0  0
 14 24  2  0  0  0  0
 14 25  1  0  0  0  0
 15 26  1  0  0  0  0
 16 26  1  0  0  0  0
 16 27  2  0  0  0  0
 16 28  1  0  0  0  0
 17 19  2  0  0  0  0
 17 35  1  0  0  0  0
 18 20  2  0  0  0  0
 18 36  1  0  0  0  0
 19 44  1  0  0  0  0
 20 37  1  0  0  0  0
 21 88  1  0  0  0  0
 22 89  1  0  0  0  0
 23 25  2  0  0  0  0
 23 88  1  0  0  0  0
 24 94  1  0  0  0  0
 25 95  1  0  0  0  0
 26 70  2  0  0  0  0
 27 71  1  0  0  0  0
 27 74  1  0  0  0  0
 28 75  1  0  0  0  0
 28 81  2  0  0  0  0
 29 45  1  0  0  0  0
 29 76  1  0  0  0  0
 29 82  2  0  0  0  0
 30 67  1  0  0  0  0
 30 72  1  0  0  0  0
 30 83  2  0  0  0  0
 31 52  1  0  0  0  0
 31 78  1  0  0  0  0
 31 84  2  0  0  0  0
 32 53  1  0  0  0  0
 32 77  1  0  0  0  0
 32 85  2  0  0  0  0
 33 68  1  0  0  0  0
 33 79  1  0  0  0  0
 33 86  2  0  0  0  0
 34 73  1  0  0  0  0
 34 87  2  0  0  0  0
 34 90  1  0  0  0  0
 35 38  1  0  0  0  0
 36 45  1  0  0  0  0
 37 72  1  0  0  0  0
 38 40  1  0  0  0  0
 39 41  1  0  0  0  0
 39 42  1  0  0  0  0
 40 44  1  0  0  0  0
 41 46  1  0  0  0  0
 42 73  1  0  0  0  0
 43 46  1  0  0  0  0
 43 73  1  0  0  0  0
 44 76  1  0  0  0  0
 45 72  1  0  0  0  0
 46 71  1  0  0  0  0
 47 68  1  0  0  0  0
 48 69  1  0  0  0  0
 49 69  1  0  0  0  0
 50 69  1  0  0  0  0
 51 80  1  0  0  0  0
 52 54  1  0  0  0  0
 53 59  1  0  0  0  0
 54 55  1  0  0  0  0
 55 56  1  0  0  0  0
 56 57  1  0  0  0  0
 57 77  1  0  0  0  0
 58 60  1  0  0  0  0
 58 78  1  0  0  0  0
 59 91  1  0  0  0  0
 60 90  1  0  0  0  0
 61 62  1  0  0  0  0
 61 89  1  0  0  0  0
 62 92  1  0  0  0  0
 63 64  1  0  0  0  0
 63 91  1  0  0  0  0
 64 93  1  0  0  0  0
 65 66  1  0  0  0  0
 65 92  1  0  0  0  0
 66 93  1  0  0  0  0
 67 69  1  0  0  0  0
 67 79  1  0  0  0  0
 68 80  1  0  0  0  0
 70 71  1  0  0  0  0
M  CHG  1  80   1
M  ISO  4  34 100  61 101  89 101  90 100
M  END
> <Batch ID>
0000

> <Smiles>
CNC(C)C(=O)NC(C(=O)N1Cc2cc([101O:1][101CH2:1]COCCOCCOCCC(=O)NCCCCCC(=O)NCC[100O:0][100C:0](=O)N3CCCC(n4nc(-c5ccc(Oc6ccc(F)cc6F)cc5)c(C(N)=O)c4N)C3)ccc2CC1C(=O)NC1CCCc2ccccc21)C(C)(C)C

> <Shape>
0.212

> <Color>
0.081

> <Negative vol penalty>
0.000

$$$$

  -OEChem-04042320113D

 85 92  0     1  0  0  0  0  0999 V2000
  -20.2839  -15.4226   20.3642 C   0  0  0  0  0  0  0  0  0  0  0  0
  -21.0127  -16.3668   21.0804 C   0  0  0  0  0  0  0  0  0  0  0  0
  -25.4663  -28.6994   20.6051 C   0  0  0  0  0  0  0  0  0  0  0  0
  -25.1094  -26.6987   19.2986 C   0  0  0  0  0  0  0  0  0  0  0  0
  -20.8988  -14.2464   19.9372 C   0  0  0  0  0  0  0  0  0  0  0  0
  -22.3566  -16.1347   21.3708 C   0  0  0  0  0  0  0  0  0  0  0  0
  -25.2550  -20.2026   20.5365 C   0  0  0  0  0  0  0  0  0  0  0  0
  -26.8344  -28.4300   20.6439 C   0  0  0  0  0  0  0  0  0  0  0  0
  -26.4775  -26.4294   19.3373 C   0  0  0  0  0  0  0  0  0  0  0  0
  -25.2287  -21.2113   21.4986 C   0  0  0  0  0  0  0  0  0  0  0  0
  -28.7014  -25.1389   21.5327 C   0  0  0  0  0  0  0  0  0  0  0  0
  -29.0967  -23.8313   21.8143 C   0  0  0  0  0  0  0  0  0  0  0  0
  -27.3001  -20.3822   22.4157 C   0  0  0  0  0  0  0  0  0  0  0  0
  -30.2244  -23.7127   19.6809 C   0  0  0  0  0  0  0  0  0  0  0  0
  -24.6038  -27.8337   19.9325 C   0  0  0  0  0  0  0  0  0  0  0  0
  -22.4992  -28.8655   18.9259 C   0  0  0  0  0  0  0  0  0  0  0  0
  -22.2535  -14.0042   20.2142 C   0  0  0  0  0  0  0  0  0  0  0  0
  -26.3002  -19.2680   20.5135 C   0  0  0  0  0  0  0  0  0  0  0  0
  -22.9899  -14.9536   20.9482 C   0  0  0  0  0  0  0  0  0  0  0  0
  -27.3387  -19.3642   21.4507 C   0  0  0  0  0  0  0  0  0  0  0  0
  -27.3400  -27.2951   20.0100 C   0  0  0  0  0  0  0  0  0  0  0  0
  -26.2499  -21.2995   22.4402 C   0  0  0  0  0  0  0  0  0  0  0  0
  -29.0675  -25.7335   20.3251 C   0  0  0  0  0  0  0  0  0  0  0  0
  -29.8583  -23.1182   20.8885 C   0  0  0  0  0  0  0  0  0  0  0  0
  -29.8290  -25.0204   19.3993 C   0  0  0  0  0  0  0  0  0  0  0  0
  -23.1905  -28.1110   19.8927 C   0  0  0  0  0  0  0  0  0  0  0  0
  -21.1887  -28.8306   19.3357 C   0  0  0  0  0  0  0  0  0  0  0  0
  -22.9970  -29.5377   17.7614 C   0  0  0  0  0  0  0  0  0  0  0  0
  -26.4967  -16.1139   20.8551 C   0  0  0  0  0  0  0  0  0  0  0  0
  -29.6017  -16.6125   20.0596 C   0  0  0  0  0  0  0  0  0  0  0  0
  -32.2480  -18.7631   19.9225 C   0  0  0  0  0  0  0  0  0  0  0  0
  -18.0637  -24.9701   22.6796 C   0  0  0  0  0  0  0  0  0  0  0  0
  -22.8622  -12.6968   19.7727 C   0  0  0  0  0  0  0  0  0  0  0  0
  -26.3278  -18.2021   19.4526 C   0  0  0  0  0  0  0  0  0  0  0  0
  -28.4939  -18.3978   21.4563 C   0  0  0  0  0  0  0  0  0  0  0  0
  -24.3885  -12.6965   19.7975 C   0  0  0  0  0  0  0  0  0  0  0  0
  -18.5080  -28.4513   23.2804 C   0  0  0  0  0  0  0  0  0  0  0  0
  -24.9013  -13.2900   21.1057 C   0  0  0  0  0  0  0  0  0  0  0  0
  -19.6960  -28.8269   22.3930 C   0  0  0  0  0  0  0  0  0  0  0  0
  -18.6675  -27.0539   23.8753 C   0  0  0  0  0  0  0  0  0  0  0  0
  -20.1129  -26.3626   22.0028 C   0  0  0  0  0  0  0  0  0  0  0  0
  -24.4563  -14.7492   21.2614 C   0  0  1  0  0  0  0  0  0  0  0  0
  -27.1733  -16.9934   19.8420 C   0  0  1  0  0  0  0  0  0  0  0  0
  -19.9712  -27.7412   21.3352 C   0  0  2  0  0  0  0  0  0  0  0  0
  -34.5512  -19.5884   19.3643 C   0  0  0  0  0  0  0  0  0  0  0  0
  -30.3645  -15.1012   22.5981 C   0  0  0  0  0  0  0  0  0  0  0  0
  -32.6722  -16.0485   22.3852 C   0  0  0  0  0  0  0  0  0  0  0  0
  -31.7676  -14.5594   20.6000 C   0  0  0  0  0  0  0  0  0  0  0  0
  -31.3756  -19.7591   17.2756 C   0  0  0  0  0  0  0  0  0  0  0  0
  -17.5800  -22.9140   21.3767 C   0  0  0  0  0  0  0  0  0  0  0  0
  -18.0731  -21.7062   22.1531 C   0  0  0  0  0  0  0  0  0  0  0  0
  -24.9448  -22.7505   23.7994 C   0  0  0  0  0  0  0  0  0  1  0  0
  -25.0354  -23.2221   25.2377 C   0  0  0  0  0  0  0  0  0  0  0  0
  -18.4635  -20.8767   24.3170 C   0  0  0  0  0  0  0  0  0  0  0  0
  -18.3955  -21.2390   25.7881 C   0  0  0  0  0  0  0  0  0  0  0  0
  -23.7783  -24.1190   27.0092 C   0  0  0  0  0  0  0  0  0  0  0  0
  -22.3924  -24.5977   27.3967 C   0  0  0  0  0  0  0  0  0  0  0  0
  -19.2164  -22.7398   27.3994 C   0  0  0  0  0  0  0  0  0  0  0  0
  -20.1525  -23.9160   27.5996 C   0  0  0  0  0  0  0  0  0  0  0  0
  -30.8672  -16.9110   20.8266 C   0  0  1  0  0  0  0  0  0  0  0  0
  -33.2283  -19.0842   18.8088 C   0  0  2  0  0  0  0  0  0  0  0  0
  -31.3952  -15.6722   21.6038 C   0  0  0  0  0  0  0  0  0  0  0  0
  -22.3858  -27.6320   20.8450 N   0  0  0  0  0  0  0  0  0  0  0  0
  -21.1753  -28.0867   20.4787 N   0  0  0  0  0  0  0  0  0  0  0  0
  -28.4726  -17.3695   20.4029 N   0  0  0  0  0  0  0  0  0  0  0  0
  -18.9245  -26.0712   22.8198 N   0  0  0  0  0  0  0  0  0  0  0  0
  -20.0581  -29.3641   18.8263 N   0  0  0  0  0  0  0  0  0  0  0  0
  -24.3701  -29.4722   17.4880 N   0  0  0  0  0  0  0  0  0  0  0  0
  -25.2749  -15.6174   20.4426 N   0  0  0  0  0  0  0  0  0  0  0  0
  -31.8124  -17.4564   19.8584 N   0  0  0  0  0  0  0  0  0  0  0  0
  -18.3753  -24.0902   21.6503 N   0  0  0  0  0  0  0  0  0  0  0  0
  -32.6662  -20.1317   17.9100 N   0  3  0  0  0  0  0  0  0  0  0  0
  -22.2490  -30.1912   16.9953 O   0  0  0  0  0  0  0  0  0  0  0  0
  -27.0434  -15.9003   21.9308 O   0  0  0  0  0  0  0  0  0  0  0  0
  -29.6163  -15.7447   19.1830 O   0  0  0  0  0  0  0  0  0  0  0  0
  -31.9059  -19.5877   20.7671 O   0  0  0  0  0  0  0  0  0  0  0  0
  -17.0867  -24.7877   23.4138 O   0  0  0  0  0  0  0  0  0  0  0  0
  -28.6749  -27.0321   20.0473 O   0  0  0  0  0  0  0  0  0  0  0  0
  -26.2263  -22.2827   23.3807 O   0  0  0  0  0  0  0  0  0  1  0  0
  -18.0102  -21.9823   23.5454 O   0  0  0  0  0  0  0  0  0  0  0  0
  -23.7522  -23.6642   25.6634 O   0  0  0  0  0  0  0  0  0  0  0  0
  -19.2409  -22.3548   26.0303 O   0  0  0  0  0  0  0  0  0  0  0  0
  -21.4721  -23.5232   27.2489 O   0  0  0  0  0  0  0  0  0  0  0  0
  -30.2392  -21.8630   21.1597 F   0  0  0  0  0  0  0  0  0  0  0  0
  -30.1848  -25.5867   18.2380 F   0  0  0  0  0  0  0  0  0  0  0  0
  1  2  1  0  0  0  0
  1  5  2  0  0  0  0
  2  6  2  0  0  0  0
  3  8  2  0  0  0  0
  3 15  1  0  0  0  0
  4  9  1  0  0  0  0
  4 15  2  0  0  0  0
  5 17  1  0  0  0  0
  6 19  1  0  0  0  0
  7 10  2  0  0  0  0
  7 18  1  0  0  0  0
  8 21  1  0  0  0  0
  9 21  2  0  0  0  0
 10 22  1  0  0  0  0
 11 12  2  0  0  0  0
 11 23  1  0  0  0  0
 12 24  1  0  0  0  0
 13 20  1  0  0  0  0
 13 22  2  0  0  0  0
 14 24  2  0  0  0  0
 14 25  1  0  0  0  0
 15 26  1  0  0  0  0
 16 26  1  0  0  0  0
 16 27  2  0  0  0  0
 16 28  1  0  0  0  0
 17 19  2  0  0  0  0
 17 33  1  0  0  0  0
 18 20  2  0  0  0  0
 18 34  1  0  0  0  0
 19 42  1  0  0  0  0
 20 35  1  0  0  0  0
 21 78  1  0  0  0  0
 22 79  1  0  0  0  0
 23 25  2  0  0  0  0
 23 78  1  0  0  0  0
 24 84  1  0  0  0  0
 25 85  1  0  0  0  0
 26 63  2  0  0  0  0
 27 64  1  0  0  0  0
 27 67  1  0  0  0  0
 28 68  1  0  0  0  0
 28 73  2  0  0  0  0
 29 43  1  0  0  0  0
 29 69  1  0  0  0  0
 29 74  2  0  0  0  0
 30 60  1  0  0  0  0
 30 65  1  0  0  0  0
 30 75  2  0  0  0  0
 31 61  1  0  0  0  0
 31 70  1  0  0  0  0
 31 76  2  0  0  0  0
 32 66  1  0  0  0  0
 32 71  1  0  0  0  0
 32 77  2  0  0  0  0
 33 36  1  0  0  0  0
 34 43  1  0  0  0  0
 35 65  1  0  0  0  0
 36 38  1  0  0  0  0
 37 39  1  0  0  0  0
 37 40  1  0  0  0  0
 38 42  1  0  0  0  0
 39 44  1  0  0  0  0
 40 66  1  0  0  0  0
 41 44  1  0  0  0  0
 41 66  1  0  0  0  0
 42 69  1  0  0  0  0
 43 65  1  0  0  0  0
 44 64  1  0  0  0  0
 45 61  1  0  0  0  0
 46 62  1  0  0  0  0
 47 62  1  0  0  0  0
 48 62  1  0  0  0  0
 49 72  1  0  0  0  0
 50 51  1  0  0  0  0
 50 71  1  0  0  0  0
 51 80  1  0  0  0  0
 52 53  1  0  0  0  0
 52 79  1  0  0  0  0
 53 81  1  0  0  0  0
 54 55  1  0  0  0  0
 54 80  1  0  0  0  0
 55 82  1  0  0  0  0
 56 57  1  0  0  0  0
 56 81  1  0  0  0  0
 57 83  1  0  0  0  0
 58 59  1  0  0  0  0
 58 82  1  0  0  0  0
 59 83  1  0  0  0  0
 60 62  1  0  0  0  0
 60 70  1  0  0  0  0
 61 72  1  0  0  0  0
 63 64  1  0  0  0  0
M  CHG  1  72   1
M  ISO  4  32 100  52 101  71 100  79 101
M  END
> <Batch ID>
0000

> <Smiles>
CNC(C)C(=O)NC(C(=O)N1Cc2cc([101O:1][101CH2:1]COCCOCCOCCOCC[100NH:0][100C:0](=O)N3CCCC(n4nc(-c5ccc(Oc6ccc(F)cc6F)cc5)c(C(N)=O)c4N)C3)ccc2CC1C(=O)NC1CCCc2ccccc21)C(C)(C)C

> <Shape>
0.200

> <Color>
0.061

> <Negative vol penalty>
0.000

$$$$

  -OEChem-04042320113D

 80 88  0     1  0  0  0  0  0999 V2000
  -22.2333  -26.3707   33.7578 C   0  0  0  0  0  0  0  0  0  0  0  0
  -23.2395  -26.1682   32.8186 C   0  0  0  0  0  0  0  0  0  0  0  0
  -32.3993  -18.4906   21.9838 C   0  0  0  0  0  0  0  0  0  0  0  0
  -23.0002   -9.8942   19.9808 C   0  0  0  0  0  0  0  0  0  0  0  0
  -23.7250   -9.9449   22.2849 C   0  0  0  0  0  0  0  0  0  0  0  0
  -21.7190  -25.2888   34.4710 C   0  0  0  0  0  0  0  0  0  0  0  0
  -23.7326  -24.8836   32.5929 C   0  0  0  0  0  0  0  0  0  0  0  0
  -25.6648  -22.5656   27.2637 C   0  0  0  0  0  0  0  0  0  0  0  0
  -31.8886  -17.2653   21.5559 C   0  0  0  0  0  0  0  0  0  0  0  0
  -31.6171  -19.3356   22.7712 C   0  0  0  0  0  0  0  0  0  0  0  0
  -22.2334   -8.7599   20.2469 C   0  0  0  0  0  0  0  0  0  0  0  0
  -22.9581   -8.8105   22.5511 C   0  0  0  0  0  0  0  0  0  0  0  0
  -26.9372  -22.4044   26.7173 C   0  0  0  0  0  0  0  0  0  0  0  0
  -23.2018   -5.4716   22.0789 C   0  0  0  0  0  0  0  0  0  0  0  0
  -23.7890   -4.4542   22.8311 C   0  0  0  0  0  0  0  0  0  0  0  0
  -26.9856  -20.1289   27.5164 C   0  0  0  0  0  0  0  0  0  0  0  0
  -29.8134  -17.7297   22.7025 C   0  0  0  0  0  0  0  0  0  0  0  0
  -22.0649   -4.6973   24.5060 C   0  0  0  0  0  0  0  0  0  0  0  0
  -23.7461  -10.4867   20.9998 C   0  0  0  0  0  0  0  0  0  0  0  0
  -24.1320  -13.0022   20.8240 C   0  0  0  0  0  0  0  0  0  0  0  0
  -22.1993  -23.9889   34.2470 C   0  0  0  0  0  0  0  0  0  0  0  0
  -25.0466  -21.5113   27.9512 C   0  0  0  0  0  0  0  0  0  0  0  0
  -23.2252  -23.7834   33.3047 C   0  0  0  0  0  0  0  0  0  0  0  0
  -25.7042  -20.2784   28.0685 C   0  0  0  0  0  0  0  0  0  0  0  0
  -30.5957  -16.8848   21.9152 C   0  0  0  0  0  0  0  0  0  0  0  0
  -22.2123   -8.2180   21.5320 C   0  0  0  0  0  0  0  0  0  0  0  0
  -27.5990  -21.1869   26.8460 C   0  0  0  0  0  0  0  0  0  0  0  0
  -30.3241  -18.9551   23.1305 C   0  0  0  0  0  0  0  0  0  0  0  0
  -22.0462   -6.1019   22.5404 C   0  0  0  0  0  0  0  0  0  0  0  0
  -23.2205   -4.0670   24.0446 C   0  0  0  0  0  0  0  0  0  0  0  0
  -21.4777   -5.7148   23.7539 C   0  0  0  0  0  0  0  0  0  0  0  0
  -24.5388  -11.6581   20.7254 C   0  0  0  0  0  0  0  0  0  0  0  0
  -25.2419  -13.7246   20.4599 C   0  0  0  0  0  0  0  0  0  0  0  0
  -22.8640  -13.5489   21.2104 C   0  0  0  0  0  0  0  0  0  0  0  0
  -24.0228  -21.0691   30.9278 C   0  0  0  0  0  0  0  0  0  0  0  0
  -22.8760  -18.2916   29.7062 C   0  0  0  0  0  0  0  0  0  0  0  0
  -23.0835  -15.8808   27.2996 C   0  0  0  0  0  0  0  0  0  0  0  0
  -30.7216  -14.6845   20.6949 C   0  0  0  0  0  0  0  0  0  0  0  0
  -21.6454  -22.8573   35.0761 C   0  0  0  0  0  0  0  0  0  0  0  0
  -23.6627  -21.6928   28.5118 C   0  0  0  0  0  0  0  0  0  0  0  0
  -25.0757  -19.1089   28.7795 C   0  0  0  0  0  0  0  0  0  0  0  0
  -21.9608  -21.4756   34.5090 C   0  0  0  0  0  0  0  0  0  0  0  0
  -29.6032  -12.2320   18.3686 C   0  0  0  0  0  0  0  0  0  0  0  0
  -23.4305  -21.3847   34.1109 C   0  0  0  0  0  0  0  0  0  0  0  0
  -28.1524  -11.9746   18.7824 C   0  0  0  0  0  0  0  0  0  0  0  0
  -30.5035  -12.4751   19.5785 C   0  0  0  0  0  0  0  0  0  0  0  0
  -28.5881  -13.2643   20.9118 C   0  0  0  0  0  0  0  0  0  0  0  0
  -23.7688  -22.4014   33.0139 C   0  0  1  0  0  0  0  0  0  0  0  0
  -23.3407  -20.7142   29.6370 C   0  0  1  0  0  0  0  0  0  0  0  0
  -27.6306  -13.0782   19.7234 C   0  0  2  0  0  0  0  0  0  0  0  0
  -22.0369  -13.7146   26.5858 C   0  0  0  0  0  0  0  0  0  0  0  0
  -24.3587  -16.8408   31.9437 C   0  0  0  0  0  0  0  0  0  0  0  0
  -24.0780  -14.7126   30.6552 C   0  0  0  0  0  0  0  0  0  0  0  0
  -22.0704  -15.9539   31.4624 C   0  0  0  0  0  0  0  0  0  0  0  0
  -22.2342  -17.0136   24.7006 C   0  0  0  0  0  0  0  0  0  0  0  0
  -29.1520  -21.7897   25.1487 C   0  0  0  0  0  0  0  0  0  1  0  0
  -30.1444  -21.0173   24.3014 C   0  0  0  0  0  0  0  0  0  0  0  0
  -23.4178  -16.8924   29.5400 C   0  0  1  0  0  0  0  0  0  0  0  0
  -22.0213  -15.2277   26.4338 C   0  0  2  0  0  0  0  0  0  0  0  0
  -23.4941  -16.1224   30.8885 C   0  0  0  0  0  0  0  0  0  0  0  0
  -25.8082  -11.5314   20.3294 N   0  0  0  0  0  0  0  0  0  0  0  0
  -26.2084  -12.8051   20.1760 N   0  0  0  0  0  0  0  0  0  0  0  0
  -23.7239  -19.3378   29.3159 N   0  0  0  0  0  0  0  0  0  0  0  0
  -29.9486  -13.5361   20.4218 N   0  0  0  0  0  0  0  0  0  0  0  0
  -25.4757  -15.0502   20.3579 N   0  0  0  0  0  0  0  0  0  0  0  0
  -21.8320  -12.6649   21.5536 N   0  0  0  0  0  0  0  0  0  0  0  0
  -30.0774  -15.6397   21.4804 N   0  0  0  0  0  0  0  0  0  0  0  0
  -23.2989  -21.9324   31.7279 N   0  0  0  0  0  0  0  0  0  0  0  0
  -22.5836  -16.2489   28.5308 N   0  0  0  0  0  0  0  0  0  0  0  0
  -22.2477  -15.5582   24.9984 N   0  3  0  0  0  0  0  0  0  0  0  0
  -22.6476  -14.7842   21.2342 O   0  0  0  0  0  0  0  0  0  0  0  0
  -25.1238  -20.5937   31.1800 O   0  0  0  0  0  0  0  0  0  0  0  0
  -21.7394  -18.4502   30.1587 O   0  0  0  0  0  0  0  0  0  0  0  0
  -24.2419  -16.0445   26.9228 O   0  0  0  0  0  0  0  0  0  0  0  0
  -31.8603  -14.8232   20.2411 O   0  0  0  0  0  0  0  0  0  0  0  0
  -21.4640   -7.1113   21.7921 O   0  0  0  0  0  0  0  0  0  0  0  0
  -28.8414  -21.0270   26.3142 O   0  0  0  0  0  0  0  0  0  1  0  0
  -29.5556  -19.7850   23.9037 O   0  0  0  0  0  0  0  0  0  0  0  0
  -23.7836   -3.0890   24.7660 F   0  0  0  0  0  0  0  0  0  0  0  0
  -20.3669   -6.3159   24.2017 F   0  0  0  0  0  0  0  0  0  0  0  0
  1  2  1  0  0  0  0
  1  6  2  0  0  0  0
  2  7  2  0  0  0  0
  3  9  1  0  0  0  0
  3 10  2  0  0  0  0
  4 11  2  0  0  0  0
  4 19  1  0  0  0  0
  5 12  1  0  0  0  0
  5 19  2  0  0  0  0
  6 21  1  0  0  0  0
  7 23  1  0  0  0  0
  8 13  2  0  0  0  0
  8 22  1  0  0  0  0
  9 25  2  0  0  0  0
 10 28  1  0  0  0  0
 11 26  1  0  0  0  0
 12 26  2  0  0  0  0
 13 27  1  0  0  0  0
 14 15  2  0  0  0  0
 14 29  1  0  0  0  0
 15 30  1  0  0  0  0
 16 24  1  0  0  0  0
 16 27  2  0  0  0  0
 17 25  1  0  0  0  0
 17 28  2  0  0  0  0
 18 30  2  0  0  0  0
 18 31  1  0  0  0  0
 19 32  1  0  0  0  0
 20 32  1  0  0  0  0
 20 33  2  0  0  0  0
 20 34  1  0  0  0  0
 21 23  2  0  0  0  0
 21 39  1  0  0  0  0
 22 24  2  0  0  0  0
 22 40  1  0  0  0  0
 23 48  1  0  0  0  0
 24 41  1  0  0  0  0
 25 67  1  0  0  0  0
 26 76  1  0  0  0  0
 27 77  1  0  0  0  0
 28 78  1  0  0  0  0
 29 31  2  0  0  0  0
 29 76  1  0  0  0  0
 30 79  1  0  0  0  0
 31 80  1  0  0  0  0
 32 61  2  0  0  0  0
 33 62  1  0  0  0  0
 33 65  1  0  0  0  0
 34 66  1  0  0  0  0
 34 71  2  0  0  0  0
 35 49  1  0  0  0  0
 35 68  1  0  0  0  0
 35 72  2  0  0  0  0
 36 58  1  0  0  0  0
 36 63  1  0  0  0  0
 36 73  2  0  0  0  0
 37 59  1  0  0  0  0
 37 69  1  0  0  0  0
 37 74  2  0  0  0  0
 38 64  1  0  0  0  0
 38 67  1  0  0  0  0
 38 75  2  0  0  0  0
 39 42  1  0  0  0  0
 40 49  1  0  0  0  0
 41 63  1  0  0  0  0
 42 44  1  0  0  0  0
 43 45  1  0  0  0  0
 43 46  1  0  0  0  0
 44 48  1  0  0  0  0
 45 50  1  0  0  0  0
 46 64  1  0  0  0  0
 47 50  1  0  0  0  0
 47 64  1  0  0  0  0
 48 68  1  0  0  0  0
 49 63  1  0  0  0  0
 50 62  1  0  0  0  0
 51 59  1  0  0  0  0
 52 60  1  0  0  0  0
 53 60  1  0  0  0  0
 54 60  1  0  0  0  0
 55 70  1  0  0  0  0
 56 57  1  0  0  0  0
 56 77  1  0  0  0  0
 57 78  1  0  0  0  0
 58 60  1  0  0  0  0
 58 69  1  0  0  0  0
 59 70  1  0  0  0  0
 61 62  1  0  0  0  0
M  CHG  1  70   1
M  ISO  4  38 100  56 101  67 100  77 101
M  END
> <Batch ID>
0000

> <Smiles>
CNC(C)C(=O)NC(C(=O)N1Cc2cc([101O:1][101CH2:1]COc3cccc([100NH:0][100C:0](=O)N4CCCC(n5nc(-c6ccc(Oc7ccc(F)cc7F)cc6)c(C(N)=O)c5N)C4)c3)ccc2CC1C(=O)NC1CCCc2ccccc21)C(C)(C)C

> <Shape>
0.177

> <Color>
0.202

> <Negative vol penalty>
0.000

$$$$

  -OEChem-04042320113D

 85 93  0     1  0  0  0  0  0999 V2000
  -25.3346  -35.3064   21.2808 C   0  0  0  0  0  0  0  0  0  0  0  0
  -25.9747  -34.0712   21.2775 C   0  0  0  0  0  0  0  0  0  0  0  0
  -22.1109  -10.6683   23.1128 C   0  0  0  0  0  0  0  0  0  0  0  0
  -23.6036  -10.7320   21.2142 C   0  0  0  0  0  0  0  0  0  0  0  0
  -27.2012  -21.7292   19.3831 C   0  0  0  0  0  0  0  0  0  0  0  0
  -28.7079  -20.3557   20.6795 C   0  0  0  0  0  0  0  0  0  0  0  0
  -24.1155  -35.4567   21.9404 C   0  0  0  0  0  0  0  0  0  0  0  0
  -25.3965  -32.9858   21.9348 C   0  0  0  0  0  0  0  0  0  0  0  0
  -25.5537  -28.7386   19.1813 C   0  0  0  0  0  0  0  0  0  0  0  0
  -26.1206  -20.9744   19.8393 C   0  0  0  0  0  0  0  0  0  0  0  0
  -27.6272  -19.6010   21.1358 C   0  0  0  0  0  0  0  0  0  0  0  0
  -21.7391   -9.3666   22.7768 C   0  0  0  0  0  0  0  0  0  0  0  0
  -23.2318   -9.4303   20.8782 C   0  0  0  0  0  0  0  0  0  0  0  0
  -26.7676  -28.0546   19.1347 C   0  0  0  0  0  0  0  0  0  0  0  0
  -20.6665   -5.8964   22.6267 C   0  0  0  0  0  0  0  0  0  0  0  0
  -20.5986   -4.9556   23.6543 C   0  0  0  0  0  0  0  0  0  0  0  0
  -25.9527  -26.5076   20.7967 C   0  0  0  0  0  0  0  0  0  0  0  0
  -22.9406   -5.3081   24.1318 C   0  0  0  0  0  0  0  0  0  0  0  0
  -23.0431  -11.3510   22.3315 C   0  0  0  0  0  0  0  0  0  0  0  0
  -28.4949  -21.4198   19.8031 C   0  0  0  0  0  0  0  0  0  0  0  0
  -24.4838  -13.0877   23.5213 C   0  0  0  0  0  0  0  0  0  0  0  0
  -23.5173  -34.3701   22.5979 C   0  0  0  0  0  0  0  0  0  0  0  0
  -24.5324  -28.3181   20.0453 C   0  0  0  0  0  0  0  0  0  0  0  0
  -24.1689  -33.1220   22.6050 C   0  0  0  0  0  0  0  0  0  0  0  0
  -24.7258  -27.1865   20.8504 C   0  0  0  0  0  0  0  0  0  0  0  0
  -26.3335  -19.9104   20.7157 C   0  0  0  0  0  0  0  0  0  0  0  0
  -22.2995   -8.7475   21.6596 C   0  0  0  0  0  0  0  0  0  0  0  0
  -26.9683  -26.9406   19.9446 C   0  0  0  0  0  0  0  0  0  0  0  0
  -21.8715   -6.5429   22.3516 C   0  0  0  0  0  0  0  0  0  0  0  0
  -21.7356   -4.6615   24.4069 C   0  0  0  0  0  0  0  0  0  0  0  0
  -23.0085   -6.2488   23.1041 C   0  0  0  0  0  0  0  0  0  0  0  0
  -23.4272  -12.6959   22.6777 C   0  0  0  0  0  0  0  0  0  0  0  0
  -24.4301  -14.4602   23.5241 C   0  0  0  0  0  0  0  0  0  0  0  0
  -29.6459  -22.2235   19.3170 C   0  0  0  0  0  0  0  0  0  0  0  0
  -25.4294  -12.2831   24.2383 C   0  0  0  0  0  0  0  0  0  0  0  0
  -23.0044  -29.6166   22.5117 C   0  0  0  0  0  0  0  0  0  0  0  0
  -21.1988  -26.9295   22.3074 C   0  0  0  0  0  0  0  0  0  0  0  0
  -20.9483  -23.6765   21.3064 C   0  0  0  0  0  0  0  0  0  0  0  0
  -23.8889  -19.3190   20.8592 C   0  0  0  0  0  0  0  0  0  0  0  0
  -22.2219  -34.5929   23.3374 C   0  0  0  0  0  0  0  0  0  0  0  0
  -23.2190  -29.0509   20.0642 C   0  0  0  0  0  0  0  0  0  0  0  0
  -23.6538  -26.6823   21.7804 C   0  0  0  0  0  0  0  0  0  0  0  0
  -21.4929  -33.2995   23.6922 C   0  0  0  0  0  0  0  0  0  0  0  0
  -20.8919  -17.6218   21.7615 C   0  0  0  0  0  0  0  0  0  0  0  0
  -22.4638  -32.2862   24.2901 C   0  0  0  0  0  0  0  0  0  0  0  0
  -21.3712  -16.2212   22.1497 C   0  0  0  0  0  0  0  0  0  0  0  0
  -21.6914  -18.1906   20.5905 C   0  0  0  0  0  0  0  0  0  0  0  0
  -23.6281  -16.7777   21.1579 C   0  0  0  0  0  0  0  0  0  0  0  0
  -23.5614  -31.9147   23.2857 C   0  0  1  0  0  0  0  0  0  0  0  0
  -22.4363  -28.8412   21.3568 C   0  0  1  0  0  0  0  0  0  0  0  0
  -22.8956  -16.1896   22.3749 C   0  0  2  0  0  0  0  0  0  0  0  0
  -19.3637  -21.7306   21.3105 C   0  0  0  0  0  0  0  0  0  0  0  0
  -21.7872  -26.4598   25.2643 C   0  0  0  0  0  0  0  0  0  0  0  0
  -21.0129  -24.0970   24.9714 C   0  0  0  0  0  0  0  0  0  0  0  0
  -19.4288  -25.9841   24.5815 C   0  0  0  0  0  0  0  0  0  0  0  0
  -20.8992  -23.5611   18.3495 C   0  0  0  0  0  0  0  0  0  0  0  0
  -31.9344  -23.0298   19.8353 C   0  0  0  0  0  0  0  0  0  0  0  0
  -31.8005  -24.4388   20.3835 C   0  0  0  0  0  0  0  0  0  0  0  0
  -29.3167  -27.0315   19.5803 C   0  0  0  0  0  0  0  0  0  1  0  0
  -30.5198  -26.4052   20.2586 C   0  0  0  0  0  0  0  0  0  0  0  0
  -21.2704  -25.5454   22.9057 C   0  0  1  0  0  0  0  0  0  0  0  0
  -19.8666  -22.9397   20.5373 C   0  0  2  0  0  0  0  0  0  0  0  0
  -20.8959  -25.5320   24.4147 C   0  0  0  0  0  0  0  0  0  0  0  0
  -22.7515  -13.7354   22.1807 N   0  0  0  0  0  0  0  0  0  0  0  0
  -23.3850  -14.7940   22.7138 N   0  0  0  0  0  0  0  0  0  0  0  0
  -22.3894  -27.4365   21.7675 N   0  0  0  0  0  0  0  0  0  0  0  0
  -23.1264  -18.1320   20.8769 N   0  0  0  0  0  0  0  0  0  0  0  0
  -25.1753  -15.4020   24.1407 N   0  0  0  0  0  0  0  0  0  0  0  0
  -25.3426  -10.8889   24.1242 N   0  0  0  0  0  0  0  0  0  0  0  0
  -25.2350  -19.1444   21.1787 N   0  0  0  0  0  0  0  0  0  0  0  0
  -30.7185  -22.2513   20.1642 N   0  0  0  0  0  0  0  0  0  0  0  0
  -23.0527  -30.9818   22.3033 N   0  0  0  0  0  0  0  0  0  0  0  0
  -20.4254  -24.6964   22.0729 N   0  0  0  0  0  0  0  0  0  0  0  0
  -20.3923  -22.4720   19.2235 N   0  3  0  0  0  0  0  0  0  0  0  0
  -29.5585  -22.8058   18.2391 O   0  0  0  0  0  0  0  0  0  0  0  0
  -26.3146  -12.7851   24.9718 O   0  0  0  0  0  0  0  0  0  0  0  0
  -23.3704  -29.0206   23.5179 O   0  0  0  0  0  0  0  0  0  0  0  0
  -20.1245  -27.5356   22.3122 O   0  0  0  0  0  0  0  0  0  0  0  0
  -22.1378  -23.3749   21.2372 O   0  0  0  0  0  0  0  0  0  0  0  0
  -23.3793  -20.4140   20.6076 O   0  0  0  0  0  0  0  0  0  0  0  0
  -21.9371   -7.4772   21.3315 O   0  0  0  0  0  0  0  0  0  0  0  0
  -28.1525  -26.2714   19.9015 O   0  0  0  0  0  0  0  0  0  1  0  0
  -30.6868  -25.0779   19.7754 O   0  0  0  0  0  0  0  0  0  0  0  0
  -21.6699   -3.7592   25.3946 F   0  0  0  0  0  0  0  0  0  0  0  0
  -24.1686   -6.8676   22.8452 F   0  0  0  0  0  0  0  0  0  0  0  0
  1  2  1  0  0  0  0
  1  7  2  0  0  0  0
  2  8  2  0  0  0  0
  3 12  2  0  0  0  0
  3 19  1  0  0  0  0
  4 13  1  0  0  0  0
  4 19  2  0  0  0  0
  5 10  2  0  0  0  0
  5 20  1  0  0  0  0
  6 11  1  0  0  0  0
  6 20  2  0  0  0  0
  7 22  1  0  0  0  0
  8 24  1  0  0  0  0
  9 14  2  0  0  0  0
  9 23  1  0  0  0  0
 10 26  1  0  0  0  0
 11 26  2  0  0  0  0
 12 27  1  0  0  0  0
 13 27  2  0  0  0  0
 14 28  1  0  0  0  0
 15 16  2  0  0  0  0
 15 29  1  0  0  0  0
 16 30  1  0  0  0  0
 17 25  1  0  0  0  0
 17 28  2  0  0  0  0
 18 30  2  0  0  0  0
 18 31  1  0  0  0  0
 19 32  1  0  0  0  0
 20 34  1  0  0  0  0
 21 32  1  0  0  0  0
 21 33  2  0  0  0  0
 21 35  1  0  0  0  0
 22 24  2  0  0  0  0
 22 40  1  0  0  0  0
 23 25  2  0  0  0  0
 23 41  1  0  0  0  0
 24 49  1  0  0  0  0
 25 42  1  0  0  0  0
 26 70  1  0  0  0  0
 27 81  1  0  0  0  0
 28 82  1  0  0  0  0
 29 31  2  0  0  0  0
 29 81  1  0  0  0  0
 30 84  1  0  0  0  0
 31 85  1  0  0  0  0
 32 64  2  0  0  0  0
 33 65  1  0  0  0  0
 33 68  1  0  0  0  0
 34 71  1  0  0  0  0
 34 75  2  0  0  0  0
 35 69  1  0  0  0  0
 35 76  2  0  0  0  0
 36 50  1  0  0  0  0
 36 72  1  0  0  0  0
 36 77  2  0  0  0  0
 37 61  1  0  0  0  0
 37 66  1  0  0  0  0
 37 78  2  0  0  0  0
 38 62  1  0  0  0  0
 38 73  1  0  0  0  0
 38 79  2  0  0  0  0
 39 67  1  0  0  0  0
 39 70  1  0  0  0  0
 39 80  2  0  0  0  0
 40 43  1  0  0  0  0
 41 50  1  0  0  0  0
 42 66  1  0  0  0  0
 43 45  1  0  0  0  0
 44 46  1  0  0  0  0
 44 47  1  0  0  0  0
 45 49  1  0  0  0  0
 46 51  1  0  0  0  0
 47 67  1  0  0  0  0
 48 51  1  0  0  0  0
 48 67  1  0  0  0  0
 49 72  1  0  0  0  0
 50 66  1  0  0  0  0
 51 65  1  0  0  0  0
 52 62  1  0  0  0  0
 53 63  1  0  0  0  0
 54 63  1  0  0  0  0
 55 63  1  0  0  0  0
 56 74  1  0  0  0  0
 57 58  1  0  0  0  0
 57 71  1  0  0  0  0
 58 83  1  0  0  0  0
 59 60  1  0  0  0  0
 59 82  1  0  0  0  0
 60 83  1  0  0  0  0
 61 63  1  0  0  0  0
 61 73  1  0  0  0  0
 62 74  1  0  0  0  0
 64 65  1  0  0  0  0
M  CHG  1  74   1
M  ISO  4  39 100  59 101  70 100  82 101
M  END
> <Batch ID>
0000

> <Smiles>
CNC(C)C(=O)NC(C(=O)N1Cc2cc([101O:1][101CH2:1]COCCNC(=O)c3ccc([100NH:0][100C:0](=O)N4CCCC(n5nc(-c6ccc(Oc7ccc(F)cc7F)cc6)c(C(N)=O)c5N)C4)cc3)ccc2CC1C(=O)NC1CCCc2ccccc21)C(C)(C)C

> <Shape>
0.224

> <Color>
0.102

> <Negative vol penalty>
0.000

$$$$

  -OEChem-04042320113D

 85 94  0     1  0  0  0  0  0999 V2000
  -16.9182  -26.1725   22.4554 C   0  0  0  0  0  0  0  0  0  0  0  0
  -17.9944  -25.3923   22.8657 C   0  0  0  0  0  0  0  0  0  0  0  0
  -23.0534   -9.8818   19.9067 C   0  0  0  0  0  0  0  0  0  0  0  0
  -23.8568   -9.7972   22.1837 C   0  0  0  0  0  0  0  0  0  0  0  0
  -31.3195  -19.0585   20.7791 C   0  0  0  0  0  0  0  0  0  0  0  0
  -16.9616  -26.8259   21.2245 C   0  0  0  0  0  0  0  0  0  0  0  0
  -19.1143  -25.2642   22.0449 C   0  0  0  0  0  0  0  0  0  0  0  0
  -24.9488  -24.7442   23.8323 C   0  0  0  0  0  0  0  0  0  0  0  0
  -31.1489  -17.6754   20.7200 C   0  0  0  0  0  0  0  0  0  0  0  0
  -22.3131   -8.7200   20.1247 C   0  0  0  0  0  0  0  0  0  0  0  0
  -23.1164   -8.6354   22.4017 C   0  0  0  0  0  0  0  0  0  0  0  0
  -25.7888  -23.6419   23.9833 C   0  0  0  0  0  0  0  0  0  0  0  0
  -19.8993   -7.8157   23.0334 C   0  0  0  0  0  0  0  0  0  0  0  0
  -19.1647   -7.7296   24.2160 C   0  0  0  0  0  0  0  0  0  0  0  0
  -26.6889  -24.0334   21.7797 C   0  0  0  0  0  0  0  0  0  0  0  0
  -29.5526  -17.7949   22.5296 C   0  0  0  0  0  0  0  0  0  0  0  0
  -20.4176   -5.7638   24.8511 C   0  0  0  0  0  0  0  0  0  0  0  0
  -23.8254  -10.4204   20.9362 C   0  0  0  0  0  0  0  0  0  0  0  0
  -30.6067  -19.8098   21.7135 C   0  0  0  0  0  0  0  0  0  0  0  0
  -24.1679  -12.9482   20.9101 C   0  0  0  0  0  0  0  0  0  0  0  0
  -18.0866  -26.7136   20.3924 C   0  0  0  0  0  0  0  0  0  0  0  0
  -24.9648  -25.4943   22.6475 C   0  0  0  0  0  0  0  0  0  0  0  0
  -19.1723  -25.9157   20.8011 C   0  0  0  0  0  0  0  0  0  0  0  0
  -25.8499  -25.1464   21.6172 C   0  0  0  0  0  0  0  0  0  0  0  0
  -30.2655  -17.0436   21.5952 C   0  0  0  0  0  0  0  0  0  0  0  0
  -22.3445   -8.0968   21.3722 C   0  0  0  0  0  0  0  0  0  0  0  0
  -26.6570  -23.2845   22.9559 C   0  0  0  0  0  0  0  0  0  0  0  0
  -20.8930   -6.8758   22.7596 C   0  0  0  0  0  0  0  0  0  0  0  0
  -29.7232  -19.1780   22.5887 C   0  0  0  0  0  0  0  0  0  0  0  0
  -19.4239   -6.7037   25.1249 C   0  0  0  0  0  0  0  0  0  0  0  0
  -21.1521   -5.8499   23.6684 C   0  0  0  0  0  0  0  0  0  0  0  0
  -24.5908  -11.6203   20.7114 C   0  0  0  0  0  0  0  0  0  0  0  0
  -25.2539  -13.7110   20.5562 C   0  0  0  0  0  0  0  0  0  0  0  0
  -30.7972  -21.2605   21.7626 C   0  0  0  0  0  0  0  0  0  0  0  0
  -22.9062  -13.4475   21.3734 C   0  0  0  0  0  0  0  0  0  0  0  0
  -22.8356  -26.1539   20.3814 C   0  0  0  0  0  0  0  0  0  0  0  0
  -25.1842  -28.1058   19.2875 C   0  0  0  0  0  0  0  0  0  0  0  0
  -28.5144  -28.8405   19.1570 C   0  0  0  0  0  0  0  0  0  0  0  0
  -30.7236  -14.7464   20.6682 C   0  0  0  0  0  0  0  0  0  0  0  0
  -18.0679  -27.4004   19.0498 C   0  0  0  0  0  0  0  0  0  0  0  0
  -24.0714  -26.6966   22.5108 C   0  0  0  0  0  0  0  0  0  0  0  0
  -25.9202  -25.9310   20.3334 C   0  0  0  0  0  0  0  0  0  0  0  0
  -19.4470  -27.5158   18.4055 C   0  0  0  0  0  0  0  0  0  0  0  0
  -29.5615  -12.4292   18.2275 C   0  0  0  0  0  0  0  0  0  0  0  0
  -20.1889  -26.1856   18.4904 C   0  0  0  0  0  0  0  0  0  0  0  0
  -28.1299  -12.1214   18.6724 C   0  0  0  0  0  0  0  0  0  0  0  0
  -30.4995  -12.6096   19.4196 C   0  0  0  0  0  0  0  0  0  0  0  0
  -31.2391  -23.4052   21.0878 C   0  0  0  0  0  0  0  0  0  0  0  0
  -28.6201  -13.2794   20.8647 C   0  0  0  0  0  0  0  0  0  0  0  0
  -30.9249  -23.3958   22.5838 C   0  0  0  0  0  0  0  0  0  0  0  0
  -20.4151  -25.7723   19.9497 C   0  0  1  0  0  0  0  0  0  0  0  0
  -23.8049  -27.0809   21.0586 C   0  0  1  0  0  0  0  0  0  0  0  0
  -27.6248  -13.1536   19.6996 C   0  0  2  0  0  0  0  0  0  0  0  0
  -30.1333  -30.4743   18.1535 C   0  0  0  0  0  0  0  0  0  0  0  0
  -24.9113  -26.7133   16.5863 C   0  0  0  0  0  0  0  0  0  0  0  0
  -27.1257  -27.6861   15.9395 C   0  0  0  0  0  0  0  0  0  0  0  0
  -25.2064  -29.1933   16.4564 C   0  0  0  0  0  0  0  0  0  0  0  0
  -29.4223  -29.7550   21.8213 C   0  0  0  0  0  0  0  0  0  0  0  0
  -27.0116  -21.1428   23.9271 C   0  0  0  0  0  0  0  0  0  1  0  0
  -27.5976  -19.8363   23.4280 C   0  0  0  0  0  0  0  0  0  0  0  0
  -26.3481  -27.9503   18.3388 C   0  0  1  0  0  0  0  0  0  0  0  0
  -29.2671  -30.1432   19.3588 C   0  0  2  0  0  0  0  0  0  0  0  0
  -25.8954  -27.8696   16.8536 C   0  0  0  0  0  0  0  0  0  0  0  0
  -25.8474  -11.5406   20.2656 N   0  0  0  0  0  0  0  0  0  0  0  0
  -26.2234  -12.8281   20.1812 N   0  0  0  0  0  0  0  0  0  0  0  0
  -31.1146  -21.9962   20.7041 N   0  0  0  0  0  0  0  0  0  0  0  0
  -25.0223  -27.0944   20.2450 N   0  0  0  0  0  0  0  0  0  0  0  0
  -29.9586  -13.6050   20.3478 N   0  0  0  0  0  0  0  0  0  0  0  0
  -30.6734  -21.9808   22.8708 N   0  3  0  0  0  0  0  0  0  0  0  0
  -25.4645  -15.0443   20.5322 N   0  0  0  0  0  0  0  0  0  0  0  0
  -21.8998  -12.5261   21.6934 N   0  0  0  0  0  0  0  0  0  0  0  0
  -30.0931  -15.6384   21.5349 N   0  0  0  0  0  0  0  0  0  0  0  0
  -21.5115  -26.5228   20.5233 N   0  0  0  0  0  0  0  0  0  0  0  0
  -27.2594  -29.0527   18.6266 N   0  0  0  0  0  0  0  0  0  0  0  0
  -30.1463  -30.0530   20.5588 N   0  3  0  0  0  0  0  0  0  0  0  0
  -22.6726  -14.6750   21.4841 O   0  0  0  0  0  0  0  0  0  0  0  0
  -23.2578  -25.1771   19.7737 O   0  0  0  0  0  0  0  0  0  0  0  0
  -24.4500  -29.0920   19.1875 O   0  0  0  0  0  0  0  0  0  0  0  0
  -28.9933  -27.7441   19.4381 O   0  0  0  0  0  0  0  0  0  0  0  0
  -31.8438  -14.9330   20.1862 O   0  0  0  0  0  0  0  0  0  0  0  0
  -21.6220   -6.9632   21.5854 O   0  0  0  0  0  0  0  0  0  0  0  0
  -27.4775  -22.2086   23.1004 O   0  0  0  0  0  0  0  0  0  1  0  0
  -29.0160  -19.9008   23.5132 O   0  0  0  0  0  0  0  0  0  0  0  0
  -18.7194   -6.6220   26.2612 F   0  0  0  0  0  0  0  0  0  0  0  0
  -22.1063   -4.9448   23.4114 F   0  0  0  0  0  0  0  0  0  0  0  0
  1  2  1  0  0  0  0
  1  6  2  0  0  0  0
  2  7  2  0  0  0  0
  3 10  2  0  0  0  0
  3 18  1  0  0  0  0
  4 11  1  0  0  0  0
  4 18  2  0  0  0  0
  5  9  2  0  0  0  0
  5 19  1  0  0  0  0
  6 21  1  0  0  0  0
  7 23  1  0  0  0  0
  8 12  2  0  0  0  0
  8 22  1  0  0  0  0
  9 25  1  0  0  0  0
 10 26  1  0  0  0  0
 11 26  2  0  0  0  0
 12 27  1  0  0  0  0
 13 14  2  0  0  0  0
 13 28  1  0  0  0  0
 14 30  1  0  0  0  0
 15 24  1  0  0  0  0
 15 27  2  0  0  0  0
 16 25  2  0  0  0  0
 16 29  1  0  0  0  0
 17 30  2  0  0  0  0
 17 31  1  0  0  0  0
 18 32  1  0  0  0  0
 19 29  2  0  0  0  0
 19 34  1  0  0  0  0
 20 32  1  0  0  0  0
 20 33  2  0  0  0  0
 20 35  1  0  0  0  0
 21 23  2  0  0  0  0
 21 40  1  0  0  0  0
 22 24  2  0  0  0  0
 22 41  1  0  0  0  0
 23 51  1  0  0  0  0
 24 42  1  0  0  0  0
 25 72  1  0  0  0  0
 26 81  1  0  0  0  0
 27 82  1  0  0  0  0
 28 31  2  0  0  0  0
 28 81  1  0  0  0  0
 29 83  1  0  0  0  0
 30 84  1  0  0  0  0
 31 85  1  0  0  0  0
 32 64  2  0  0  0  0
 33 65  1  0  0  0  0
 33 70  1  0  0  0  0
 34 66  1  0  0  0  0
 34 69  2  0  0  0  0
 35 71  1  0  0  0  0
 35 76  2  0  0  0  0
 36 52  1  0  0  0  0
 36 73  1  0  0  0  0
 36 77  2  0  0  0  0
 37 61  1  0  0  0  0
 37 67  1  0  0  0  0
 37 78  2  0  0  0  0
 38 62  1  0  0  0  0
 38 74  1  0  0  0  0
 38 79  2  0  0  0  0
 39 68  1  0  0  0  0
 39 72  1  0  0  0  0
 39 80  2  0  0  0  0
 40 43  1  0  0  0  0
 41 52  1  0  0  0  0
 42 67  1  0  0  0  0
 43 45  1  0  0  0  0
 44 46  1  0  0  0  0
 44 47  1  0  0  0  0
 45 51  1  0  0  0  0
 46 53  1  0  0  0  0
 47 68  1  0  0  0  0
 48 50  1  0  0  0  0
 48 66  1  0  0  0  0
 49 53  1  0  0  0  0
 49 68  1  0  0  0  0
 50 69  1  0  0  0  0
 51 73  1  0  0  0  0
 52 67  1  0  0  0  0
 53 65  1  0  0  0  0
 54 62  1  0  0  0  0
 55 63  1  0  0  0  0
 56 63  1  0  0  0  0
 57 63  1  0  0  0  0
 58 75  1  0  0  0  0
 59 60  1  0  0  0  0
 59 82  1  0  0  0  0
 60 83  1  0  0  0  0
 61 63  1  0  0  0  0
 61 74  1  0  0  0  0
 62 75  1  0  0  0  0
 64 65  1  0  0  0  0
M  CHG  2  69   1  75   1
M  ISO  4  39 100  59 101  72 100  82 101
M  END
> <Batch ID>
0000

> <Smiles>
CNC(C)C(=O)NC(C(=O)N1Cc2cc([101O:1][101CH2:1]COc3cc([100NH:0][100C:0](=O)N4CCCC(n5nc(-c6ccc(Oc7ccc(F)cc7F)cc6)c(C(N)=O)c5N)C4)ccc3C3=NCCN3)ccc2CC1C(=O)NC1CCCc2ccccc21)C(C)(C)C

> <Shape>
0.255

> <Color>
0.183

> <Negative vol penalty>
0.000

$$$$

  -OEChem-04042320113D

 90 98  0     1  0  0  0  0  0999 V2000
  -28.2949  -19.9265   18.6754 C   0  0  0  0  0  0  0  0  0  0  0  0
  -20.7915  -21.3117   21.4158 C   0  0  0  0  0  0  0  0  0  0  0  0
  -22.1650  -21.2524   21.6288 C   0  0  0  0  0  0  0  0  0  0  0  0
  -29.4526  -20.4102   19.2847 C   0  0  0  0  0  0  0  0  0  0  0  0
  -27.6321  -18.8235   19.2139 C   0  0  0  0  0  0  0  0  0  0  0  0
  -23.0731   -9.8704   19.9413 C   0  0  0  0  0  0  0  0  0  0  0  0
  -23.8383   -9.8741   22.2329 C   0  0  0  0  0  0  0  0  0  0  0  0
  -20.2964  -21.6241   20.1504 C   0  0  0  0  0  0  0  0  0  0  0  0
  -23.0442  -21.5043   20.5762 C   0  0  0  0  0  0  0  0  0  0  0  0
  -26.8661  -24.5420   21.9218 C   0  0  0  0  0  0  0  0  0  0  0  0
  -29.9476  -19.7910   20.4324 C   0  0  0  0  0  0  0  0  0  0  0  0
  -28.1271  -18.2043   20.3616 C   0  0  0  0  0  0  0  0  0  0  0  0
  -22.3299   -8.7168   20.1913 C   0  0  0  0  0  0  0  0  0  0  0  0
  -23.0951   -8.7205   22.4830 C   0  0  0  0  0  0  0  0  0  0  0  0
  -27.9099  -23.9690   22.6469 C   0  0  0  0  0  0  0  0  0  0  0  0
  -21.1135   -5.9813   23.8202 C   0  0  0  0  0  0  0  0  0  0  0  0
  -20.3600   -5.9359   24.9931 C   0  0  0  0  0  0  0  0  0  0  0  0
  -29.2239  -23.8237   20.6292 C   0  0  0  0  0  0  0  0  0  0  0  0
  -19.1136   -7.8741   24.2673 C   0  0  0  0  0  0  0  0  0  0  0  0
  -23.8274  -10.4490   20.9621 C   0  0  0  0  0  0  0  0  0  0  0  0
  -24.1687  -12.9744   20.8450 C   0  0  0  0  0  0  0  0  0  0  0  0
  -21.1700  -21.8894   19.0841 C   0  0  0  0  0  0  0  0  0  0  0  0
  -26.9894  -24.7505   20.5406 C   0  0  0  0  0  0  0  0  0  0  0  0
  -22.5603  -21.8191   19.2951 C   0  0  0  0  0  0  0  0  0  0  0  0
  -28.1812  -24.4019   19.8892 C   0  0  0  0  0  0  0  0  0  0  0  0
  -29.2849  -18.6881   20.9709 C   0  0  0  0  0  0  0  0  0  0  0  0
  -22.3409   -8.1419   21.4621 C   0  0  0  0  0  0  0  0  0  0  0  0
  -29.0879  -23.6071   22.0002 C   0  0  0  0  0  0  0  0  0  0  0  0
  -20.8672   -6.9731   22.8708 C   0  0  0  0  0  0  0  0  0  0  0  0
  -19.3600   -6.8823   25.2166 C   0  0  0  0  0  0  0  0  0  0  0  0
  -19.8672   -7.9195   23.0944 C   0  0  0  0  0  0  0  0  0  0  0  0
  -24.5957  -11.6403   20.7043 C   0  0  0  0  0  0  0  0  0  0  0  0
  -25.2599  -13.7245   20.4803 C   0  0  0  0  0  0  0  0  0  0  0  0
  -22.8991  -13.4895   21.2676 C   0  0  0  0  0  0  0  0  0  0  0  0
  -25.4571  -23.6887   17.9660 C   0  0  0  0  0  0  0  0  0  0  0  0
  -27.3625  -25.8193   16.4325 C   0  0  0  0  0  0  0  0  0  0  0  0
  -31.6551  -16.5694   23.1257 C   0  0  0  0  0  0  0  0  0  0  0  0
  -30.2546  -27.6311   16.4149 C   0  0  0  0  0  0  0  0  0  0  0  0
  -30.7440  -14.7438   20.6573 C   0  0  0  0  0  0  0  0  0  0  0  0
  -20.5876  -22.1763   17.7228 C   0  0  0  0  0  0  0  0  0  0  0  0
  -25.8644  -25.3942   19.7774 C   0  0  0  0  0  0  0  0  0  0  0  0
  -28.3715  -24.6234   18.4117 C   0  0  0  0  0  0  0  0  0  0  0  0
  -21.5878  -22.7975   16.7511 C   0  0  0  0  0  0  0  0  0  0  0  0
  -29.6010  -12.3627   18.2697 C   0  0  0  0  0  0  0  0  0  0  0  0
  -22.9112  -22.0400   16.7903 C   0  0  0  0  0  0  0  0  0  0  0  0
  -28.1646  -12.0682   18.7056 C   0  0  0  0  0  0  0  0  0  0  0  0
  -30.5209  -12.5818   19.4688 C   0  0  0  0  0  0  0  0  0  0  0  0
  -28.6224  -13.3107   20.8609 C   0  0  0  0  0  0  0  0  0  0  0  0
  -23.5460  -22.1103   18.1844 C   0  0  1  0  0  0  0  0  0  0  0  0
  -25.9036  -25.0878   18.2834 C   0  0  1  0  0  0  0  0  0  0  0  0
  -27.6455  -13.1377   19.6853 C   0  0  2  0  0  0  0  0  0  0  0  0
  -31.5542  -29.2535   15.0091 C   0  0  0  0  0  0  0  0  0  0  0  0
  -28.2362  -23.5351   14.6080 C   0  0  0  0  0  0  0  0  0  0  0  0
  -30.1740  -24.9461   13.8854 C   0  0  0  0  0  0  0  0  0  0  0  0
  -27.8418  -25.7108   13.4397 C   0  0  0  0  0  0  0  0  0  0  0  0
  -30.1104  -29.7294   18.4970 C   0  0  0  0  0  0  0  0  0  0  0  0
  -29.8200  -18.0175   22.2125 C   0  0  0  0  0  0  0  0  0  0  0  0
  -33.7611  -17.2416   24.2642 C   0  0  0  0  0  0  0  0  0  0  0  0
  -33.3902  -18.2480   25.3381 C   0  0  0  0  0  0  0  0  0  0  0  0
  -31.4331  -23.2887   22.2342 C   0  0  0  0  0  0  0  0  0  1  0  0
  -32.3884  -23.2720   23.4117 C   0  0  0  0  0  0  0  0  0  0  0  0
  -33.1138  -20.5416   25.7691 C   0  0  0  0  0  0  0  0  0  0  0  0
  -33.2229  -21.9180   25.1417 C   0  0  0  0  0  0  0  0  0  0  0  0
  -28.7344  -25.7681   15.8045 C   0  0  1  0  0  0  0  0  0  0  0  0
  -30.8125  -16.8925   21.8972 C   0  0  2  0  0  0  0  0  0  0  0  0
  -30.5244  -29.0949   16.1169 C   0  0  2  0  0  0  0  0  0  0  0  0
  -28.7426  -24.9839   14.4619 C   0  0  0  0  0  0  0  0  0  0  0  0
  -25.8596  -11.5452   20.2830 N   0  0  0  0  0  0  0  0  0  0  0  0
  -26.2361  -12.8290   20.1556 N   0  0  0  0  0  0  0  0  0  0  0  0
  -27.2403  -25.2502   17.7080 N   0  0  0  0  0  0  0  0  0  0  0  0
  -29.9723  -13.6090   20.3576 N   0  0  0  0  0  0  0  0  0  0  0  0
  -25.4700  -15.0561   20.4087 N   0  0  0  0  0  0  0  0  0  0  0  0
  -21.8881  -12.5797   21.6059 N   0  0  0  0  0  0  0  0  0  0  0  0
  -24.1742  -23.3979   18.3893 N   0  0  0  0  0  0  0  0  0  0  0  0
  -32.7937  -17.3286   23.1465 N   0  0  0  0  0  0  0  0  0  0  0  0
  -29.1834  -27.1516   15.6912 N   0  0  0  0  0  0  0  0  0  0  0  0
  -30.1467  -15.6713   21.5021 N   0  0  0  0  0  0  0  0  0  0  0  0
  -31.0341  -29.7861   17.3349 N   0  3  0  0  0  0  0  0  0  0  0  0
  -22.6629  -14.7200   21.3273 O   0  0  0  0  0  0  0  0  0  0  0  0
  -26.2194  -22.9296   17.3792 O   0  0  0  0  0  0  0  0  0  0  0  0
  -26.4352  -26.3513   15.8171 O   0  0  0  0  0  0  0  0  0  0  0  0
  -31.3068  -15.7616   23.9844 O   0  0  0  0  0  0  0  0  0  0  0  0
  -30.9292  -26.9773   17.2073 O   0  0  0  0  0  0  0  0  0  0  0  0
  -31.8788  -14.9200   20.2013 O   0  0  0  0  0  0  0  0  0  0  0  0
  -21.6156   -7.0163   21.7065 O   0  0  0  0  0  0  0  0  0  0  0  0
  -30.1081  -23.0470   22.7055 O   0  0  0  0  0  0  0  0  0  1  0  0
  -33.4542  -19.5602   24.7973 O   0  0  0  0  0  0  0  0  0  0  0  0
  -32.3438  -21.9908   24.0280 O   0  0  0  0  0  0  0  0  0  0  0  0
  -18.6354   -6.8377   26.3423 F   0  0  0  0  0  0  0  0  0  0  0  0
  -19.6250   -8.8740   22.1855 F   0  0  0  0  0  0  0  0  0  0  0  0
  1  4  1  0  0  0  0
  1  5  2  0  0  0  0
  2  3  1  0  0  0  0
  2  8  2  0  0  0  0
  3  9  2  0  0  0  0
  4 11  2  0  0  0  0
  5 12  1  0  0  0  0
  6 13  2  0  0  0  0
  6 20  1  0  0  0  0
  7 14  1  0  0  0  0
  7 20  2  0  0  0  0
  8 22  1  0  0  0  0
  9 24  1  0  0  0  0
 10 15  2  0  0  0  0
 10 23  1  0  0  0  0
 11 26  1  0  0  0  0
 12 26  2  0  0  0  0
 13 27  1  0  0  0  0
 14 27  2  0  0  0  0
 15 28  1  0  0  0  0
 16 17  2  0  0  0  0
 16 29  1  0  0  0  0
 17 30  1  0  0  0  0
 18 25  1  0  0  0  0
 18 28  2  0  0  0  0
 19 30  2  0  0  0  0
 19 31  1  0  0  0  0
 20 32  1  0  0  0  0
 21 32  1  0  0  0  0
 21 33  2  0  0  0  0
 21 34  1  0  0  0  0
 22 24  2  0  0  0  0
 22 40  1  0  0  0  0
 23 25  2  0  0  0  0
 23 41  1  0  0  0  0
 24 49  1  0  0  0  0
 25 42  1  0  0  0  0
 26 57  1  0  0  0  0
 27 85  1  0  0  0  0
 28 86  1  0  0  0  0
 29 31  2  0  0  0  0
 29 85  1  0  0  0  0
 30 89  1  0  0  0  0
 31 90  1  0  0  0  0
 32 68  2  0  0  0  0
 33 69  1  0  0  0  0
 33 72  1  0  0  0  0
 34 73  1  0  0  0  0
 34 79  2  0  0  0  0
 35 50  1  0  0  0  0
 35 74  1  0  0  0  0
 35 80  2  0  0  0  0
 36 64  1  0  0  0  0
 36 70  1  0  0  0  0
 36 81  2  0  0  0  0
 37 65  1  0  0  0  0
 37 75  1  0  0  0  0
 37 82  2  0  0  0  0
 38 66  1  0  0  0  0
 38 76  1  0  0  0  0
 38 83  2  0  0  0  0
 39 71  1  0  0  0  0
 39 77  1  0  0  0  0
 39 84  2  0  0  0  0
 40 43  1  0  0  0  0
 41 50  1  0  0  0  0
 42 70  1  0  0  0  0
 43 45  1  0  0  0  0
 44 46  1  0  0  0  0
 44 47  1  0  0  0  0
 45 49  1  0  0  0  0
 46 51  1  0  0  0  0
 47 71  1  0  0  0  0
 48 51  1  0  0  0  0
 48 71  1  0  0  0  0
 49 74  1  0  0  0  0
 50 70  1  0  0  0  0
 51 69  1  0  0  0  0
 52 66  1  0  0  0  0
 53 67  1  0  0  0  0
 54 67  1  0  0  0  0
 55 67  1  0  0  0  0
 56 78  1  0  0  0  0
 57 65  1  0  0  0  0
 58 59  1  0  0  0  0
 58 75  1  0  0  0  0
 59 87  1  0  0  0  0
 60 61  1  0  0  0  0
 60 86  1  0  0  0  0
 61 88  1  0  0  0  0
 62 63  1  0  0  0  0
 62 87  1  0  0  0  0
 63 88  1  0  0  0  0
 64 67  1  0  0  0  0
 64 76  1  0  0  0  0
 65 77  1  0  0  0  0
 66 78  1  0  0  0  0
 68 69  1  0  0  0  0
M  CHG  1  78   1
M  ISO  4  39 100  60 101  77 100  86 101
M  END
> <Batch ID>
0000

> <Smiles>
CNC(C)C(=O)NC(C(=O)N1Cc2cc([101O:1][101CH2:1]COCCOCCNC(=O)C(Cc3ccccc3)[100NH:0][100C:0](=O)N3CCCC(n4nc(-c5ccc(Oc6ccc(F)cc6F)cc5)c(C(N)=O)c4N)C3)ccc2CC1C(=O)NC1CCCc2ccccc21)C(C)(C)C

> <Shape>
0.220

> <Color>
0.184

> <Negative vol penalty>
0.000

$$$$

  -OEChem-04042320113D

 78 86  0     1  0  0  0  0  0999 V2000
  -26.7222  -33.4805   27.6362 C   0  0  0  0  0  0  0  0  0  0  0  0
  -27.1734  -32.3851   26.9068 C   0  0  0  0  0  0  0  0  0  0  0  0
  -27.2004  -11.2304   21.4422 C   0  0  0  0  0  0  0  0  0  0  0  0
  -25.7106  -12.0017   19.7036 C   0  0  0  0  0  0  0  0  0  0  0  0
  -25.3650  -33.7994   27.6450 C   0  0  0  0  0  0  0  0  0  0  0  0
  -26.2674  -31.6074   26.1865 C   0  0  0  0  0  0  0  0  0  0  0  0
  -27.2604  -28.8113   20.8292 C   0  0  0  0  0  0  0  0  0  0  0  0
  -26.2023  -10.3819   21.9210 C   0  0  0  0  0  0  0  0  0  0  0  0
  -24.7125  -11.1531   20.1824 C   0  0  0  0  0  0  0  0  0  0  0  0
  -27.5901  -27.4961   20.5045 C   0  0  0  0  0  0  0  0  0  0  0  0
  -24.8794   -7.3803   21.1004 C   0  0  0  0  0  0  0  0  0  0  0  0
  -25.2402   -6.0719   21.4223 C   0  0  0  0  0  0  0  0  0  0  0  0
  -25.2585  -27.0137   20.1170 C   0  0  0  0  0  0  0  0  0  0  0  0
  -24.5276   -6.4362   23.7019 C   0  0  0  0  0  0  0  0  0  0  0  0
  -26.9545  -12.0404   20.3335 C   0  0  0  0  0  0  0  0  0  0  0  0
  -28.9616  -12.6200   18.8695 C   0  0  0  0  0  0  0  0  0  0  0  0
  -24.4432  -33.0310   26.9167 C   0  0  0  0  0  0  0  0  0  0  0  0
  -25.9239  -29.2353   20.8108 C   0  0  0  0  0  0  0  0  0  0  0  0
  -24.8964  -31.9156   26.1866 C   0  0  0  0  0  0  0  0  0  0  0  0
  -24.9147  -28.3354   20.4394 C   0  0  0  0  0  0  0  0  0  0  0  0
  -24.9583  -10.3432   21.2911 C   0  0  0  0  0  0  0  0  0  0  0  0
  -26.5888  -26.5963   20.1511 C   0  0  0  0  0  0  0  0  0  0  0  0
  -24.3427   -8.2166   22.0793 C   0  0  0  0  0  0  0  0  0  0  0  0
  -25.0643   -5.5999   22.7230 C   0  0  0  0  0  0  0  0  0  0  0  0
  -24.1668   -7.7446   23.3800 C   0  0  0  0  0  0  0  0  0  0  0  0
  -27.9850  -12.9176   19.8387 C   0  0  0  0  0  0  0  0  0  0  0  0
  -29.6940  -13.7762   18.7537 C   0  0  0  0  0  0  0  0  0  0  0  0
  -29.1867  -11.4069   18.1391 C   0  0  0  0  0  0  0  0  0  0  0  0
  -23.8985  -30.3639   22.9852 C   0  0  0  0  0  0  0  0  0  0  0  0
  -21.9726  -30.7790   20.4082 C   0  0  0  0  0  0  0  0  0  0  0  0
  -21.1587  -29.8653   17.2224 C   0  0  0  0  0  0  0  0  0  0  0  0
  -28.5046  -19.3754   19.5834 C   0  0  0  0  0  0  0  0  0  0  0  0
  -26.9192  -24.4026   20.9167 C   0  0  0  0  0  0  0  0  0  1  0  0
  -22.9796  -33.3866   26.9947 C   0  0  0  0  0  0  0  0  0  0  0  0
  -25.5875  -30.6644   21.1378 C   0  0  0  0  0  0  0  0  0  0  0  0
  -23.4667  -28.7462   20.3846 C   0  0  0  0  0  0  0  0  0  0  0  0
  -22.1352  -32.7344   25.9029 C   0  0  0  0  0  0  0  0  0  0  0  0
  -31.0571  -17.6193   21.2445 C   0  0  0  0  0  0  0  0  0  0  0  0
  -22.4802  -31.2541   25.7741 C   0  0  0  0  0  0  0  0  0  0  0  0
  -30.6514  -16.1701   20.9779 C   0  0  0  0  0  0  0  0  0  0  0  0
  -29.8485  -18.5061   21.5493 C   0  0  0  0  0  0  0  0  0  0  0  0
  -28.5289  -21.1435   21.4008 C   0  0  0  0  0  0  0  0  0  0  0  0
  -28.6719  -21.7820   19.0220 C   0  0  0  0  0  0  0  0  0  0  0  0
  -27.3015  -22.0398   21.5642 C   0  0  0  0  0  0  0  0  0  0  0  0
  -27.4326  -22.6576   19.1619 C   0  0  0  0  0  0  0  0  0  0  0  0
  -28.3789  -16.9947   20.2550 C   0  0  0  0  0  0  0  0  0  0  0  0
  -23.9478  -31.0626   25.3727 C   0  0  1  0  0  0  0  0  0  0  0  0
  -24.1407  -30.8506   21.5844 C   0  0  1  0  0  0  0  0  0  0  0  0
  -29.5669  -16.0916   19.8888 C   0  0  2  0  0  0  0  0  0  0  0  0
  -19.5136  -30.3555   15.3919 C   0  0  0  0  0  0  0  0  0  0  0  0
  -19.8387  -29.1920   21.9043 C   0  0  0  0  0  0  0  0  0  0  0  0
  -18.6305  -28.9011   19.7308 C   0  0  0  0  0  0  0  0  0  0  0  0
  -18.9784  -31.1873   20.6661 C   0  0  0  0  0  0  0  0  0  0  0  0
  -23.2990  -30.7387   15.3743 C   0  0  0  0  0  0  0  0  0  0  0  0
  -20.9465  -29.9335   19.6932 C   0  0  1  0  0  0  0  0  0  0  0  0
  -20.8761  -30.6894   15.9792 C   0  0  2  0  0  0  0  0  0  0  0  0
  -19.6255  -29.7949   20.5014 C   0  0  0  0  0  0  0  0  0  0  0  0
  -28.0851  -14.1650   20.3055 N   0  0  0  0  0  0  0  0  0  0  0  0
  -29.1335  -14.6614   19.6268 N   0  0  0  0  0  0  0  0  0  0  0  0
  -23.1878  -30.1525   20.7191 N   0  0  0  0  0  0  0  0  0  0  0  0
  -28.8238  -18.3673   20.5051 N   0  0  0  0  0  0  0  0  0  0  0  0
  -28.6701  -20.7019   20.0073 N   0  0  0  0  0  0  0  0  0  0  0  0
  -27.2513  -23.0934   20.5509 N   0  0  0  0  0  0  0  0  0  0  0  0
  -30.7563  -14.1117   17.9913 N   0  0  0  0  0  0  0  0  0  0  0  0
  -28.3414  -10.3152   18.3802 N   0  0  0  0  0  0  0  0  0  0  0  0
  -24.1226  -31.3183   23.9590 N   0  0  0  0  0  0  0  0  0  0  0  0
  -20.7786  -30.5268   18.3710 N   0  0  0  0  0  0  0  0  0  0  0  0
  -21.9122  -30.4307   14.9397 N   0  3  0  0  0  0  0  0  0  0  0  0
  -30.1203  -11.2891   17.3096 O   0  0  0  0  0  0  0  0  0  0  0  0
  -23.5339  -29.2085   23.1688 O   0  0  0  0  0  0  0  0  0  0  0  0
  -21.7084  -31.9541   20.6746 O   0  0  0  0  0  0  0  0  0  0  0  0
  -21.6626  -28.7452   17.1787 O   0  0  0  0  0  0  0  0  0  0  0  0
  -28.0936  -19.1056   18.4478 O   0  0  0  0  0  0  0  0  0  0  0  0
  -26.6554  -24.7538   22.0661 O   0  0  0  0  0  0  0  0  0  0  0  0
  -23.9842   -9.5151   21.7580 O   0  0  0  0  0  0  0  0  0  0  0  0
  -26.9166  -25.2762   19.8256 O   0  0  0  0  0  0  0  0  0  1  0  0
  -25.4094   -4.3430   23.0316 F   0  0  0  0  0  0  0  0  0  0  0  0
  -23.6505   -8.5430   24.3244 F   0  0  0  0  0  0  0  0  0  0  0  0
  1  2  1  0  0  0  0
  1  5  2  0  0  0  0
  2  6  2  0  0  0  0
  3  8  2  0  0  0  0
  3 15  1  0  0  0  0
  4  9  1  0  0  0  0
  4 15  2  0  0  0  0
  5 17  1  0  0  0  0
  6 19  1  0  0  0  0
  7 10  2  0  0  0  0
  7 18  1  0  0  0  0
  8 21  1  0  0  0  0
  9 21  2  0  0  0  0
 10 22  1  0  0  0  0
 11 12  2  0  0  0  0
 11 23  1  0  0  0  0
 12 24  1  0  0  0  0
 13 20  1  0  0  0  0
 13 22  2  0  0  0  0
 14 24  2  0  0  0  0
 14 25  1  0  0  0  0
 15 26  1  0  0  0  0
 16 26  1  0  0  0  0
 16 27  2  0  0  0  0
 16 28  1  0  0  0  0
 17 19  2  0  0  0  0
 17 34  1  0  0  0  0
 18 20  2  0  0  0  0
 18 35  1  0  0  0  0
 19 47  1  0  0  0  0
 20 36  1  0  0  0  0
 21 75  1  0  0  0  0
 22 76  1  0  0  0  0
 23 25  2  0  0  0  0
 23 75  1  0  0  0  0
 24 77  1  0  0  0  0
 25 78  1  0  0  0  0
 26 58  2  0  0  0  0
 27 59  1  0  0  0  0
 27 64  1  0  0  0  0
 28 65  1  0  0  0  0
 28 69  2  0  0  0  0
 29 48  1  0  0  0  0
 29 66  1  0  0  0  0
 29 70  2  0  0  0  0
 30 55  1  0  0  0  0
 30 60  1  0  0  0  0
 30 71  2  0  0  0  0
 31 56  1  0  0  0  0
 31 67  1  0  0  0  0
 31 72  2  0  0  0  0
 32 61  1  0  0  0  0
 32 62  1  0  0  0  0
 32 73  2  0  0  0  0
 33 63  1  0  0  0  0
 33 74  2  0  0  0  0
 33 76  1  0  0  0  0
 34 37  1  0  0  0  0
 35 48  1  0  0  0  0
 36 60  1  0  0  0  0
 37 39  1  0  0  0  0
 38 40  1  0  0  0  0
 38 41  1  0  0  0  0
 39 47  1  0  0  0  0
 40 49  1  0  0  0  0
 41 61  1  0  0  0  0
 42 44  1  0  0  0  0
 42 62  1  0  0  0  0
 43 45  1  0  0  0  0
 43 62  1  0  0  0  0
 44 63  1  0  0  0  0
 45 63  1  0  0  0  0
 46 49  1  0  0  0  0
 46 61  1  0  0  0  0
 47 66  1  0  0  0  0
 48 60  1  0  0  0  0
 49 59  1  0  0  0  0
 50 56  1  0  0  0  0
 51 57  1  0  0  0  0
 52 57  1  0  0  0  0
 53 57  1  0  0  0  0
 54 68  1  0  0  0  0
 55 57  1  0  0  0  0
 55 67  1  0  0  0  0
 56 68  1  0  0  0  0
 58 59  1  0  0  0  0
M  CHG  1  68   1
M  ISO  4  32 100  33 101  62 100  76 101
M  END
> <Batch ID>
0000

> <Smiles>
CNC(C)C(=O)NC(C(=O)N1Cc2cc([101O:1][101C:1](=O)N3CC[100N:0]([100C:0](=O)N4CCCC(n5nc(-c6ccc(Oc7ccc(F)cc7F)cc6)c(C(N)=O)c5N)C4)CC3)ccc2CC1C(=O)NC1CCCc2ccccc21)C(C)(C)C

> <Shape>
0.271

> <Color>
0.058

> <Negative vol penalty>
0.000

$$$$

  -OEChem-04042320113D

 79 86  0     1  0  0  0  0  0999 V2000
  -24.1488  -21.5364   17.0982 C   0  0  0  0  0  0  0  0  0  0  0  0
  -25.2246  -20.6811   16.8822 C   0  0  0  0  0  0  0  0  0  0  0  0
  -27.9659  -23.3978   17.2597 C   0  0  0  0  0  0  0  0  0  0  0  0
  -29.4539  -24.6259   18.7138 C   0  0  0  0  0  0  0  0  0  0  0  0
  -23.4472  -21.4819   18.3019 C   0  0  0  0  0  0  0  0  0  0  0  0
  -25.6000  -19.7715   17.8701 C   0  0  0  0  0  0  0  0  0  0  0  0
  -28.3657  -13.2105   18.6580 C   0  0  0  0  0  0  0  0  0  0  0  0
  -27.1215  -24.5056   17.1879 C   0  0  0  0  0  0  0  0  0  0  0  0
  -28.6095  -25.7339   18.6420 C   0  0  0  0  0  0  0  0  0  0  0  0
  -29.3989  -12.5497   19.3211 C   0  0  0  0  0  0  0  0  0  0  0  0
  -25.6958  -26.7397   20.0310 C   0  0  0  0  0  0  0  0  0  0  0  0
  -25.3996  -27.4069   21.2196 C   0  0  0  0  0  0  0  0  0  0  0  0
  -28.0640  -12.4905   21.3295 C   0  0  0  0  0  0  0  0  0  0  0  0
  -26.3659  -29.4320   20.3237 C   0  0  0  0  0  0  0  0  0  0  0  0
  -29.1321  -23.4578   18.0227 C   0  0  0  0  0  0  0  0  0  0  0  0
  -31.0851  -22.0112   17.2476 C   0  0  0  0  0  0  0  0  0  0  0  0
  -23.8082  -20.5645   19.3012 C   0  0  0  0  0  0  0  0  0  0  0  0
  -27.1762  -13.5265   19.3300 C   0  0  0  0  0  0  0  0  0  0  0  0
  -24.9034  -19.7056   19.0888 C   0  0  0  0  0  0  0  0  0  0  0  0
  -27.0163  -13.1531   20.6720 C   0  0  0  0  0  0  0  0  0  0  0  0
  -27.4433  -25.6737   17.8791 C   0  0  0  0  0  0  0  0  0  0  0  0
  -29.2493  -12.1921   20.6578 C   0  0  0  0  0  0  0  0  0  0  0  0
  -26.3271  -27.4186   18.9888 C   0  0  0  0  0  0  0  0  0  0  0  0
  -25.7346  -28.7530   21.3659 C   0  0  0  0  0  0  0  0  0  0  0  0
  -26.6621  -28.7648   19.1351 C   0  0  0  0  0  0  0  0  0  0  0  0
  -30.0044  -22.3135   18.0977 C   0  0  0  0  0  0  0  0  0  0  0  0
  -31.5855  -20.8289   17.7355 C   0  0  0  0  0  0  0  0  0  0  0  0
  -31.5913  -22.7346   16.1179 C   0  0  0  0  0  0  0  0  0  0  0  0
  -25.6635  -16.2239   20.0648 C   0  0  0  0  0  0  0  0  0  0  0  0
  -23.3609  -14.1909   21.1077 C   0  0  0  0  0  0  0  0  0  0  0  0
  -22.5428  -11.0812   22.2511 C   0  0  0  0  0  0  0  0  0  0  0  0
  -31.4488  -18.4269   23.1270 C   0  0  0  0  0  0  0  0  0  0  0  0
  -23.0495  -20.5751   20.6047 C   0  0  0  0  0  0  0  0  0  0  0  0
  -26.0608  -14.2159   18.5930 C   0  0  0  0  0  0  0  0  0  0  0  0
  -25.7510  -13.4512   21.4328 C   0  0  0  0  0  0  0  0  0  0  0  0
  -23.2764  -19.3255   21.4516 C   0  0  0  0  0  0  0  0  0  0  0  0
  -30.2441  -16.8806   20.0848 C   0  0  0  0  0  0  0  0  0  0  0  0
  -24.7628  -18.9900   21.5206 C   0  0  0  0  0  0  0  0  0  0  0  0
  -30.1510  -18.0857   19.1472 C   0  0  0  0  0  0  0  0  0  0  0  0
  -29.8381  -17.2542   21.5074 C   0  0  0  0  0  0  0  0  0  0  0  0
  -30.5135  -19.5977   21.1529 C   0  0  0  0  0  0  0  0  0  0  0  0
  -25.3256  -18.6882   20.1264 C   0  0  1  0  0  0  0  0  0  0  0  0
  -25.0931  -14.9450   19.5201 C   0  0  1  0  0  0  0  0  0  0  0  0
  -30.9328  -19.2904   19.7038 C   0  0  2  0  0  0  0  0  0  0  0  0
  -20.5878   -9.7300   23.0570 C   0  0  0  0  0  0  0  0  0  0  0  0
  -23.4523  -15.6580   23.7815 C   0  0  0  0  0  0  0  0  0  0  0  0
  -22.2294  -13.7271   24.8035 C   0  0  0  0  0  0  0  0  0  0  0  0
  -21.1535  -15.0660   22.9944 C   0  0  0  0  0  0  0  0  0  0  0  0
  -22.8469   -9.1181   20.0574 C   0  0  0  0  0  0  0  0  0  0  0  0
  -32.3027  -17.1272   25.0605 C   0  0  0  0  0  0  0  0  0  0  0  0
  -32.1882  -15.7446   25.6773 C   0  0  0  0  0  0  0  0  0  0  0  0
  -31.5886  -11.8245   20.8775 C   0  0  0  0  0  0  0  0  0  1  0  0
  -32.5314  -11.6696   22.0552 C   0  0  0  0  0  0  0  0  0  0  0  0
  -32.5348  -13.4559   25.2720 C   0  0  0  0  0  0  0  0  0  0  0  0
  -32.9891  -12.4631   24.2193 C   0  0  0  0  0  0  0  0  0  0  0  0
  -23.0548  -13.5030   22.4161 C   0  0  1  0  0  0  0  0  0  0  0  0
  -21.4344  -10.1222   21.8561 C   0  0  2  0  0  0  0  0  0  0  0  0
  -22.4972  -14.4845   23.4854 C   0  0  0  0  0  0  0  0  0  0  0  0
  -29.8279  -21.3970   19.0531 N   0  0  0  0  0  0  0  0  0  0  0  0
  -30.8043  -20.5072   18.8063 N   0  0  0  0  0  0  0  0  0  0  0  0
  -24.6917  -14.1324   20.6703 N   0  0  0  0  0  0  0  0  0  0  0  0
  -30.6323  -18.3952   21.9843 N   0  0  0  0  0  0  0  0  0  0  0  0
  -32.6130  -20.0433   17.3488 N   0  0  0  0  0  0  0  0  0  0  0  0
  -30.9593  -23.9311   15.7528 N   0  0  0  0  0  0  0  0  0  0  0  0
  -24.9522  -17.3538   19.7087 N   0  0  0  0  0  0  0  0  0  0  0  0
  -22.1594  -12.3966   22.0959 N   0  0  0  0  0  0  0  0  0  0  0  0
  -31.5012  -17.2497   23.8632 N   0  0  0  0  0  0  0  0  0  0  0  0
  -22.0095   -8.8825   21.2616 N   0  3  0  0  0  0  0  0  0  0  0  0
  -32.5648  -22.3234   15.4420 O   0  0  0  0  0  0  0  0  0  0  0  0
  -26.6733  -16.1880   20.7581 O   0  0  0  0  0  0  0  0  0  0  0  0
  -22.4513  -14.7531   20.4927 O   0  0  0  0  0  0  0  0  0  0  0  0
  -23.6378  -10.7016   22.6602 O   0  0  0  0  0  0  0  0  0  0  0  0
  -32.0886  -19.4291   23.4636 O   0  0  0  0  0  0  0  0  0  0  0  0
  -26.6198  -26.7551   17.8091 O   0  0  0  0  0  0  0  0  0  0  0  0
  -30.2564  -11.5476   21.3076 O   0  0  0  0  0  0  0  0  0  1  0  0
  -32.6238  -14.7714   24.7383 O   0  0  0  0  0  0  0  0  0  0  0  0
  -32.1372  -12.5659   23.0870 O   0  0  0  0  0  0  0  0  0  0  0  0
  -25.4487  -29.3940   22.5068 F   0  0  0  0  0  0  0  0  0  0  0  0
  -27.2676  -29.4226   18.1369 F   0  0  0  0  0  0  0  0  0  0  0  0
  1  2  1  0  0  0  0
  1  5  2  0  0  0  0
  2  6  2  0  0  0  0
  3  8  2  0  0  0  0
  3 15  1  0  0  0  0
  4  9  1  0  0  0  0
  4 15  2  0  0  0  0
  5 17  1  0  0  0  0
  6 19  1  0  0  0  0
  7 10  2  0  0  0  0
  7 18  1  0  0  0  0
  8 21  1  0  0  0  0
  9 21  2  0  0  0  0
 10 22  1  0  0  0  0
 11 12  2  0  0  0  0
 11 23  1  0  0  0  0
 12 24  1  0  0  0  0
 13 20  1  0  0  0  0
 13 22  2  0  0  0  0
 14 24  2  0  0  0  0
 14 25  1  0  0  0  0
 15 26  1  0  0  0  0
 16 26  1  0  0  0  0
 16 27  2  0  0  0  0
 16 28  1  0  0  0  0
 17 19  2  0  0  0  0
 17 33  1  0  0  0  0
 18 20  2  0  0  0  0
 18 34  1  0  0  0  0
 19 42  1  0  0  0  0
 20 35  1  0  0  0  0
 21 74  1  0  0  0  0
 22 75  1  0  0  0  0
 23 25  2  0  0  0  0
 23 74  1  0  0  0  0
 24 78  1  0  0  0  0
 25 79  1  0  0  0  0
 26 59  2  0  0  0  0
 27 60  1  0  0  0  0
 27 63  1  0  0  0  0
 28 64  1  0  0  0  0
 28 69  2  0  0  0  0
 29 43  1  0  0  0  0
 29 65  1  0  0  0  0
 29 70  2  0  0  0  0
 30 56  1  0  0  0  0
 30 61  1  0  0  0  0
 30 71  2  0  0  0  0
 31 57  1  0  0  0  0
 31 66  1  0  0  0  0
 31 72  2  0  0  0  0
 32 62  1  0  0  0  0
 32 67  1  0  0  0  0
 32 73  2  0  0  0  0
 33 36  1  0  0  0  0
 34 43  1  0  0  0  0
 35 61  1  0  0  0  0
 36 38  1  0  0  0  0
 37 39  1  0  0  0  0
 37 40  1  0  0  0  0
 38 42  1  0  0  0  0
 39 44  1  0  0  0  0
 40 62  1  0  0  0  0
 41 44  1  0  0  0  0
 41 62  1  0  0  0  0
 42 65  1  0  0  0  0
 43 61  1  0  0  0  0
 44 60  1  0  0  0  0
 45 57  1  0  0  0  0
 46 58  1  0  0  0  0
 47 58  1  0  0  0  0
 48 58  1  0  0  0  0
 49 68  1  0  0  0  0
 50 51  1  0  0  0  0
 50 67  1  0  0  0  0
 51 76  1  0  0  0  0
 52 53  1  0  0  0  0
 52 75  1  0  0  0  0
 53 77  1  0  0  0  0
 54 55  1  0  0  0  0
 54 76  1  0  0  0  0
 55 77  1  0  0  0  0
 56 58  1  0  0  0  0
 56 66  1  0  0  0  0
 57 68  1  0  0  0  0
 59 60  1  0  0  0  0
M  CHG  1  68   1
M  ISO  4  32 100  52 101  67 100  75 101
M  END
> <Batch ID>
0000

> <Smiles>
CNC(C)C(=O)NC(C(=O)N1Cc2cc([101O:1][101CH2:1]COCCOCC[100NH:0][100C:0](=O)N3CCCC(n4nc(-c5ccc(Oc6ccc(F)cc6F)cc5)c(C(N)=O)c4N)C3)ccc2CC1C(=O)NC1CCCc2ccccc21)C(C)(C)C

> <Shape>
0.193

> <Color>
0.068

> <Negative vol penalty>
0.000

$$$$

  -OEChem-04042320113D

 79 87  0     1  0  0  0  0  0999 V2000
  -26.2557  -33.1308   18.4077 C   0  0  0  0  0  0  0  0  0  0  0  0
  -26.8579  -31.9800   18.9060 C   0  0  0  0  0  0  0  0  0  0  0  0
  -23.1007   -9.8373   19.9341 C   0  0  0  0  0  0  0  0  0  0  0  0
  -23.8695   -9.8462   22.2244 C   0  0  0  0  0  0  0  0  0  0  0  0
  -25.3740  -33.0446   17.3311 C   0  0  0  0  0  0  0  0  0  0  0  0
  -26.5779  -30.7420   18.3287 C   0  0  0  0  0  0  0  0  0  0  0  0
  -30.4333  -26.0292   17.6725 C   0  0  0  0  0  0  0  0  0  0  0  0
  -29.1411  -18.7571   21.0185 C   0  0  0  0  0  0  0  0  0  0  0  0
  -31.3554  -18.5679   20.0707 C   0  0  0  0  0  0  0  0  0  0  0  0
  -28.8580  -19.8089   20.1472 C   0  0  0  0  0  0  0  0  0  0  0  0
  -31.0723  -19.6197   19.1994 C   0  0  0  0  0  0  0  0  0  0  0  0
  -22.3825   -8.6671   20.1797 C   0  0  0  0  0  0  0  0  0  0  0  0
  -23.1512   -8.6760   22.4701 C   0  0  0  0  0  0  0  0  0  0  0  0
  -30.6269  -24.8652   18.4152 C   0  0  0  0  0  0  0  0  0  0  0  0
  -19.9432   -7.8061   23.0802 C   0  0  0  0  0  0  0  0  0  0  0  0
  -19.1920   -7.7429   24.2538 C   0  0  0  0  0  0  0  0  0  0  0  0
  -29.1880  -23.6642   16.8965 C   0  0  0  0  0  0  0  0  0  0  0  0
  -20.4772   -5.8277   24.9732 C   0  0  0  0  0  0  0  0  0  0  0  0
  -23.8443  -10.4268   20.9564 C   0  0  0  0  0  0  0  0  0  0  0  0
  -24.1320  -12.9594   20.8509 C   0  0  0  0  0  0  0  0  0  0  0  0
  -25.0904  -31.8062   16.7341 C   0  0  0  0  0  0  0  0  0  0  0  0
  -29.6055  -26.0219   16.5406 C   0  0  0  0  0  0  0  0  0  0  0  0
  -25.6905  -30.6389   17.2439 C   0  0  0  0  0  0  0  0  0  0  0  0
  -28.9876  -24.8287   16.1397 C   0  0  0  0  0  0  0  0  0  0  0  0
  -30.3898  -18.1366   20.9803 C   0  0  0  0  0  0  0  0  0  0  0  0
  -29.8236  -20.2402   19.2377 C   0  0  0  0  0  0  0  0  0  0  0  0
  -22.4077   -8.0864   21.4477 C   0  0  0  0  0  0  0  0  0  0  0  0
  -30.0019  -23.6832   18.0289 C   0  0  0  0  0  0  0  0  0  0  0  0
  -20.9613   -6.8801   22.8531 C   0  0  0  0  0  0  0  0  0  0  0  0
  -19.4590   -6.7537   25.2003 C   0  0  0  0  0  0  0  0  0  0  0  0
  -21.2283   -5.8909   23.7996 C   0  0  0  0  0  0  0  0  0  0  0  0
  -24.5869  -11.6354   20.7032 C   0  0  0  0  0  0  0  0  0  0  0  0
  -25.2065  -13.7341   20.4881 C   0  0  0  0  0  0  0  0  0  0  0  0
  -22.8525  -13.4455   21.2780 C   0  0  0  0  0  0  0  0  0  0  0  0
  -26.9174  -27.5054   15.7179 C   0  0  0  0  0  0  0  0  0  0  0  0
  -27.4575  -26.0678   12.8607 C   0  0  0  0  0  0  0  0  0  0  0  0
  -28.9270  -23.5185   11.1320 C   0  0  0  0  0  0  0  0  0  0  0  0
  -30.6681  -14.8682   20.6614 C   0  0  0  0  0  0  0  0  0  0  0  0
  -24.0943  -31.7568   15.6028 C   0  0  0  0  0  0  0  0  0  0  0  0
  -29.4283  -27.2796   15.7349 C   0  0  0  0  0  0  0  0  0  0  0  0
  -28.1054  -24.7632   14.9207 C   0  0  0  0  0  0  0  0  0  0  0  0
  -24.1397  -30.4546   14.8075 C   0  0  0  0  0  0  0  0  0  0  0  0
  -29.5717  -12.4749   18.2642 C   0  0  0  0  0  0  0  0  0  0  0  0
  -24.1751  -29.2550   15.7492 C   0  0  0  0  0  0  0  0  0  0  0  0
  -28.1426  -12.1480   18.7009 C   0  0  0  0  0  0  0  0  0  0  0  0
  -30.4888  -12.7077   19.4629 C   0  0  0  0  0  0  0  0  0  0  0  0
  -28.5776  -13.3896   20.8614 C   0  0  0  0  0  0  0  0  0  0  0  0
  -25.4311  -29.2809   16.6286 C   0  0  1  0  0  0  0  0  0  0  0  0
  -28.1542  -27.2771   14.8958 C   0  0  1  0  0  0  0  0  0  0  0  0
  -27.6026  -13.2017   19.6865 C   0  0  2  0  0  0  0  0  0  0  0  0
  -29.1577  -22.5866    8.8134 C   0  0  0  0  0  0  0  0  0  0  0  0
  -24.6287  -24.9379   13.0360 C   0  0  0  0  0  0  0  0  0  0  0  0
  -25.2453  -23.3033   11.2426 C   0  0  0  0  0  0  0  0  0  0  0  0
  -25.2883  -25.7512   10.7649 C   0  0  0  0  0  0  0  0  0  0  0  0
  -31.8638  -23.8847   11.1519 C   0  0  0  0  0  0  0  0  0  0  0  0
  -30.6933  -17.0120   21.9115 C   0  0  0  0  0  0  0  0  0  0  0  0
  -29.5177  -21.3705   18.2996 C   0  0  0  0  0  0  0  0  0  1  0  0
  -27.0774  -24.7449   12.2408 C   0  0  1  0  0  0  0  0  0  0  0  0
  -29.7581  -23.5105    9.8616 C   0  0  2  0  0  0  0  0  0  0  0  0
  -25.5749  -24.6857   11.8452 C   0  0  0  0  0  0  0  0  0  0  0  0
  -25.8518  -11.5690   20.2794 N   0  0  0  0  0  0  0  0  0  0  0  0
  -26.2008  -12.8611   20.1576 N   0  0  0  0  0  0  0  0  0  0  0  0
  -27.9582  -26.0208   14.1695 N   0  0  0  0  0  0  0  0  0  0  0  0
  -29.9201  -13.7188   20.3574 N   0  0  0  0  0  0  0  0  0  0  0  0
  -25.3883  -15.0702   20.4226 N   0  0  0  0  0  0  0  0  0  0  0  0
  -21.8615  -12.5130   21.6135 N   0  0  0  0  0  0  0  0  0  0  0  0
  -26.5846  -28.8373   15.8756 N   0  0  0  0  0  0  0  0  0  0  0  0
  -27.9970  -24.5365   11.1275 N   0  0  0  0  0  0  0  0  0  0  0  0
  -30.0528  -15.7789   21.5116 N   0  0  0  0  0  0  0  0  0  0  0  0
  -31.1456  -23.0516   10.1533 N   0  3  0  0  0  0  0  0  0  0  0  0
  -22.5905  -14.6704   21.3440 O   0  0  0  0  0  0  0  0  0  0  0  0
  -26.3092  -26.5444   16.1741 O   0  0  0  0  0  0  0  0  0  0  0  0
  -27.3221  -27.1040   12.2052 O   0  0  0  0  0  0  0  0  0  0  0  0
  -29.0845  -22.7010   12.0361 O   0  0  0  0  0  0  0  0  0  0  0  0
  -31.7982  -15.0706   20.2045 O   0  0  0  0  0  0  0  0  0  0  0  0
  -21.7068   -6.9447   21.6878 O   0  0  0  0  0  0  0  0  0  0  0  0
  -30.1886  -22.5458   18.7524 O   0  0  0  0  0  0  0  0  0  1  0  0
  -18.7385   -6.6940   26.3279 F   0  0  0  0  0  0  0  0  0  0  0  0
  -22.2060   -4.9993   23.5875 F   0  0  0  0  0  0  0  0  0  0  0  0
  1  2  1  0  0  0  0
  1  5  2  0  0  0  0
  2  6  2  0  0  0  0
  3 12  2  0  0  0  0
  3 19  1  0  0  0  0
  4 13  1  0  0  0  0
  4 19  2  0  0  0  0
  5 21  1  0  0  0  0
  6 23  1  0  0  0  0
  7 14  2  0  0  0  0
  7 22  1  0  0  0  0
  8 10  2  0  0  0  0
  8 25  1  0  0  0  0
  9 11  1  0  0  0  0
  9 25  2  0  0  0  0
 10 26  1  0  0  0  0
 11 26  2  0  0  0  0
 12 27  1  0  0  0  0
 13 27  2  0  0  0  0
 14 28  1  0  0  0  0
 15 16  2  0  0  0  0
 15 29  1  0  0  0  0
 16 30  1  0  0  0  0
 17 24  1  0  0  0  0
 17 28  2  0  0  0  0
 18 30  2  0  0  0  0
 18 31  1  0  0  0  0
 19 32  1  0  0  0  0
 20 32  1  0  0  0  0
 20 33  2  0  0  0  0
 20 34  1  0  0  0  0
 21 23  2  0  0  0  0
 21 39  1  0  0  0  0
 22 24  2  0  0  0  0
 22 40  1  0  0  0  0
 23 48  1  0  0  0  0
 24 41  1  0  0  0  0
 25 56  1  0  0  0  0
 26 57  1  0  0  0  0
 27 76  1  0  0  0  0
 28 77  1  0  0  0  0
 29 31  2  0  0  0  0
 29 76  1  0  0  0  0
 30 78  1  0  0  0  0
 31 79  1  0  0  0  0
 32 61  2  0  0  0  0
 33 62  1  0  0  0  0
 33 65  1  0  0  0  0
 34 66  1  0  0  0  0
 34 71  2  0  0  0  0
 35 49  1  0  0  0  0
 35 67  1  0  0  0  0
 35 72  2  0  0  0  0
 36 58  1  0  0  0  0
 36 63  1  0  0  0  0
 36 73  2  0  0  0  0
 37 59  1  0  0  0  0
 37 68  1  0  0  0  0
 37 74  2  0  0  0  0
 38 64  1  0  0  0  0
 38 69  1  0  0  0  0
 38 75  2  0  0  0  0
 39 42  1  0  0  0  0
 40 49  1  0  0  0  0
 41 63  1  0  0  0  0
 42 44  1  0  0  0  0
 43 45  1  0  0  0  0
 43 46  1  0  0  0  0
 44 48  1  0  0  0  0
 45 50  1  0  0  0  0
 46 64  1  0  0  0  0
 47 50  1  0  0  0  0
 47 64  1  0  0  0  0
 48 67  1  0  0  0  0
 49 63  1  0  0  0  0
 50 62  1  0  0  0  0
 51 59  1  0  0  0  0
 52 60  1  0  0  0  0
 53 60  1  0  0  0  0
 54 60  1  0  0  0  0
 55 70  1  0  0  0  0
 56 69  1  0  0  0  0
 57 77  1  0  0  0  0
 58 60  1  0  0  0  0
 58 68  1  0  0  0  0
 59 70  1  0  0  0  0
 61 62  1  0  0  0  0
M  CHG  1  70   1
M  ISO  4  38 100  57 101  69 100  77 101
M  END
> <Batch ID>
0000

> <Smiles>
CNC(C)C(=O)NC(C(=O)N1Cc2cc([101O:1][101CH2:1]c3ccc(C[100NH:0][100C:0](=O)N4CCCC(n5nc(-c6ccc(Oc7ccc(F)cc7F)cc6)c(C(N)=O)c5N)C4)cc3)ccc2CC1C(=O)NC1CCCc2ccccc21)C(C)(C)C

> <Shape>
0.232

> <Color>
0.203

> <Negative vol penalty>
0.000

$$$$

  -OEChem-04042320113D

 85 92  0     1  0  0  0  0  0999 V2000
  -16.8467  -29.2467   24.3276 C   0  0  0  0  0  0  0  0  0  0  0  0
  -17.4666  -28.2758   23.5475 C   0  0  0  0  0  0  0  0  0  0  0  0
  -26.0913  -12.3154   21.8791 C   0  0  0  0  0  0  0  0  0  0  0  0
  -25.5103  -13.4764   19.8416 C   0  0  0  0  0  0  0  0  0  0  0  0
  -17.2908  -30.5673   24.2779 C   0  0  0  0  0  0  0  0  0  0  0  0
  -18.5304  -28.6252   22.7164 C   0  0  0  0  0  0  0  0  0  0  0  0
  -22.3737  -25.3395   22.9947 C   0  0  0  0  0  0  0  0  0  0  0  0
  -25.6155  -11.1224   21.3351 C   0  0  0  0  0  0  0  0  0  0  0  0
  -25.0345  -12.2834   19.2975 C   0  0  0  0  0  0  0  0  0  0  0  0
  -22.2358  -24.1381   22.3008 C   0  0  0  0  0  0  0  0  0  0  0  0
  -24.2230   -7.8411   20.6155 C   0  0  0  0  0  0  0  0  0  0  0  0
  -23.4190   -7.0345   21.4208 C   0  0  0  0  0  0  0  0  0  0  0  0
  -23.6023  -25.0177   20.5181 C   0  0  0  0  0  0  0  0  0  0  0  0
  -21.8169   -8.8318   21.6215 C   0  0  0  0  0  0  0  0  0  0  0  0
  -26.0387  -13.4924   21.1324 C   0  0  0  0  0  0  0  0  0  0  0  0
  -27.8390  -15.2352   21.6111 C   0  0  0  0  0  0  0  0  0  0  0  0
  -18.3669  -30.9314   23.4531 C   0  0  0  0  0  0  0  0  0  0  0  0
  -23.1192  -26.3947   22.4495 C   0  0  0  0  0  0  0  0  0  0  0  0
  -18.9885  -29.9523   22.6547 C   0  0  0  0  0  0  0  0  0  0  0  0
  -23.7503  -26.2306   21.2082 C   0  0  0  0  0  0  0  0  0  0  0  0
  -25.0871  -11.1064   20.0443 C   0  0  0  0  0  0  0  0  0  0  0  0
  -22.8477  -23.9781   21.0611 C   0  0  0  0  0  0  0  0  0  0  0  0
  -23.8240   -9.1431   20.3132 C   0  0  0  0  0  0  0  0  0  0  0  0
  -22.2160   -7.5298   21.9238 C   0  0  0  0  0  0  0  0  0  0  0  0
  -22.6209   -9.6384   20.8162 C   0  0  0  0  0  0  0  0  0  0  0  0
  -26.5295  -14.7252   21.6941 C   0  0  0  0  0  0  0  0  0  0  0  0
  -27.7896  -16.4221   22.3005 C   0  0  0  0  0  0  0  0  0  0  0  0
  -28.9966  -14.6853   20.9681 C   0  0  0  0  0  0  0  0  0  0  0  0
  -22.4647  -29.3709   21.5454 C   0  0  0  0  0  0  0  0  0  0  0  0
  -25.6765  -29.5336   21.1211 C   0  0  0  0  0  0  0  0  0  0  0  0
  -28.6111  -27.8865   20.5538 C   0  0  0  0  0  0  0  0  0  0  0  0
  -25.1630  -21.2453   23.3585 C   0  0  0  0  0  0  0  0  0  0  0  0
  -18.7809  -32.3805   23.3974 C   0  0  0  0  0  0  0  0  0  0  0  0
  -23.2805  -27.6747   23.2228 C   0  0  0  0  0  0  0  0  0  0  0  0
  -24.5783  -27.3255   20.5886 C   0  0  0  0  0  0  0  0  0  0  0  0
  -20.1568  -32.5973   22.7726 C   0  0  0  0  0  0  0  0  0  0  0  0
  -24.2143  -18.3567   25.2965 C   0  0  0  0  0  0  0  0  0  0  0  0
  -20.2914  -31.7907   21.4849 C   0  0  0  0  0  0  0  0  0  0  0  0
  -24.8070  -17.1946   24.5006 C   0  0  0  0  0  0  0  0  0  0  0  0
  -23.7466  -19.4818   24.3789 C   0  0  0  0  0  0  0  0  0  0  0  0
  -25.4088  -18.8266   22.6571 C   0  0  0  0  0  0  0  0  0  0  0  0
  -20.1615  -30.2876   21.7593 C   0  0  1  0  0  0  0  0  0  0  0  0
  -23.6366  -28.8660   22.3387 C   0  0  1  0  0  0  0  0  0  0  0  0
  -25.9165  -17.6835   23.5527 C   0  0  2  0  0  0  0  0  0  0  0  0
  -31.0647  -28.2920   20.2179 C   0  0  0  0  0  0  0  0  0  0  0  0
  -25.1264  -30.4920   18.2770 C   0  0  0  0  0  0  0  0  0  0  0  0
  -27.5092  -29.9690   17.7143 C   0  0  0  0  0  0  0  0  0  0  0  0
  -26.9865  -31.6921   19.4408 C   0  0  0  0  0  0  0  0  0  0  0  0
  -29.3200  -26.2933   22.9451 C   0  0  0  0  0  0  0  0  0  0  0  0
  -21.5084  -22.0712   20.5855 C   0  0  0  0  0  0  0  0  0  1  0  0
  -26.5956  -22.8170   22.2927 C   0  0  0  0  0  0  0  0  0  0  0  0
  -21.1863  -21.2892   19.3268 C   0  0  0  0  0  0  0  0  0  0  0  0
  -27.7146  -22.8665   21.2704 C   0  0  0  0  0  0  0  0  0  0  0  0
  -21.9954  -19.6145   17.8903 C   0  0  0  0  0  0  0  0  0  0  0  0
  -28.2951  -21.9687   19.1777 C   0  0  0  0  0  0  0  0  0  0  0  0
  -23.1653  -18.6803   17.6489 C   0  0  0  0  0  0  0  0  0  0  0  0
  -27.7166  -21.4350   17.8813 C   0  0  0  0  0  0  0  0  0  0  0  0
  -25.4772  -18.6260   17.2306 C   0  0  0  0  0  0  0  0  0  0  0  0
  -26.6952  -19.5037   17.0156 C   0  0  0  0  0  0  0  0  0  0  0  0
  -26.6196  -29.2488   19.9772 C   0  0  1  0  0  0  0  0  0  0  0  0
  -29.9684  -27.9858   21.2264 C   0  0  2  0  0  0  0  0  0  0  0  0
  -26.5433  -30.3303   18.8629 C   0  0  0  0  0  0  0  0  0  0  0  0
  -25.7082  -15.5227   22.3822 N   0  0  0  0  0  0  0  0  0  0  0  0
  -26.5037  -16.5458   22.7379 N   0  0  0  0  0  0  0  0  0  0  0  0
  -24.7010  -28.5606   21.3806 N   0  0  0  0  0  0  0  0  0  0  0  0
  -24.8109  -19.8963   23.4656 N   0  0  0  0  0  0  0  0  0  0  0  0
  -28.7211  -17.3615   22.5693 N   0  0  0  0  0  0  0  0  0  0  0  0
  -28.8722  -13.4571   20.3046 N   0  0  0  0  0  0  0  0  0  0  0  0
  -21.3908  -29.7679   22.3191 N   0  0  0  0  0  0  0  0  0  0  0  0
  -27.9439  -29.0931   20.5691 N   0  0  0  0  0  0  0  0  0  0  0  0
  -30.3029  -26.7044   21.9097 N   0  3  0  0  0  0  0  0  0  0  0  0
  -30.1123  -15.2580   20.9956 O   0  0  0  0  0  0  0  0  0  0  0  0
  -22.5305  -29.3997   20.3221 O   0  0  0  0  0  0  0  0  0  0  0  0
  -25.8053  -30.5777   21.7654 O   0  0  0  0  0  0  0  0  0  0  0  0
  -28.1869  -26.8437   20.0605 O   0  0  0  0  0  0  0  0  0  0  0  0
  -24.6306  -22.1530   23.9949 O   0  0  0  0  0  0  0  0  0  0  0  0
  -24.6229   -9.9425   19.5130 O   0  0  0  0  0  0  0  0  0  0  0  0
  -22.7141  -22.8067   20.3814 O   0  0  0  0  0  0  0  0  0  1  0  0
  -26.1754  -21.4580   22.4607 O   0  0  0  0  0  0  0  0  0  0  0  0
  -22.2450  -20.3767   19.0630 O   0  0  0  0  0  0  0  0  0  0  0  0
  -27.2302  -22.3764   20.0280 O   0  0  0  0  0  0  0  0  0  0  0  0
  -24.3451  -19.4526   17.4617 O   0  0  0  0  0  0  0  0  0  0  0  0
  -26.8931  -20.3134   18.1683 O   0  0  0  0  0  0  0  0  0  0  0  0
  -21.4433   -6.7545   22.6959 F   0  0  0  0  0  0  0  0  0  0  0  0
  -22.2318  -10.8880   20.5284 F   0  0  0  0  0  0  0  0  0  0  0  0
  1  2  1  0  0  0  0
  1  5  2  0  0  0  0
  2  6  2  0  0  0  0
  3  8  2  0  0  0  0
  3 15  1  0  0  0  0
  4  9  1  0  0  0  0
  4 15  2  0  0  0  0
  5 17  1  0  0  0  0
  6 19  1  0  0  0  0
  7 10  2  0  0  0  0
  7 18  1  0  0  0  0
  8 21  1  0  0  0  0
  9 21  2  0  0  0  0
 10 22  1  0  0  0  0
 11 12  2  0  0  0  0
 11 23  1  0  0  0  0
 12 24  1  0  0  0  0
 13 20  1  0  0  0  0
 13 22  2  0  0  0  0
 14 24  2  0  0  0  0
 14 25  1  0  0  0  0
 15 26  1  0  0  0  0
 16 26  1  0  0  0  0
 16 27  2  0  0  0  0
 16 28  1  0  0  0  0
 17 19  2  0  0  0  0
 17 33  1  0  0  0  0
 18 20  2  0  0  0  0
 18 34  1  0  0  0  0
 19 42  1  0  0  0  0
 20 35  1  0  0  0  0
 21 77  1  0  0  0  0
 22 78  1  0  0  0  0
 23 25  2  0  0  0  0
 23 77  1  0  0  0  0
 24 84  1  0  0  0  0
 25 85  1  0  0  0  0
 26 63  2  0  0  0  0
 27 64  1  0  0  0  0
 27 67  1  0  0  0  0
 28 68  1  0  0  0  0
 28 72  2  0  0  0  0
 29 43  1  0  0  0  0
 29 69  1  0  0  0  0
 29 73  2  0  0  0  0
 30 60  1  0  0  0  0
 30 65  1  0  0  0  0
 30 74  2  0  0  0  0
 31 61  1  0  0  0  0
 31 70  1  0  0  0  0
 31 75  2  0  0  0  0
 32 66  1  0  0  0  0
 32 76  2  0  0  0  0
 32 79  1  0  0  0  0
 33 36  1  0  0  0  0
 34 43  1  0  0  0  0
 35 65  1  0  0  0  0
 36 38  1  0  0  0  0
 37 39  1  0  0  0  0
 37 40  1  0  0  0  0
 38 42  1  0  0  0  0
 39 44  1  0  0  0  0
 40 66  1  0  0  0  0
 41 44  1  0  0  0  0
 41 66  1  0  0  0  0
 42 69  1  0  0  0  0
 43 65  1  0  0  0  0
 44 64  1  0  0  0  0
 45 61  1  0  0  0  0
 46 62  1  0  0  0  0
 47 62  1  0  0  0  0
 48 62  1  0  0  0  0
 49 71  1  0  0  0  0
 50 52  1  0  0  0  0
 50 78  1  0  0  0  0
 51 53  1  0  0  0  0
 51 79  1  0  0  0  0
 52 80  1  0  0  0  0
 53 81  1  0  0  0  0
 54 56  1  0  0  0  0
 54 80  1  0  0  0  0
 55 57  1  0  0  0  0
 55 81  1  0  0  0  0
 56 82  1  0  0  0  0
 57 83  1  0  0  0  0
 58 59  1  0  0  0  0
 58 82  1  0  0  0  0
 59 83  1  0  0  0  0
 60 62  1  0  0  0  0
 60 70  1  0  0  0  0
 61 71  1  0  0  0  0
 63 64  1  0  0  0  0
M  CHG  1  71   1
M  ISO  4  32 100  50 101  78 101  79 100
M  END
> <Batch ID>
0000

> <Smiles>
CNC(C)C(=O)NC(C(=O)N1Cc2cc([101O:1][101CH2:1]COCCOCCOCCOCC[100O:0][100C:0](=O)N3CCCC(n4nc(-c5ccc(Oc6ccc(F)cc6F)cc5)c(C(N)=O)c4N)C3)ccc2CC1C(=O)NC1CCCc2ccccc21)C(C)(C)C

> <Shape>
0.216

> <Color>
0.077

> <Negative vol penalty>
0.000

$$$$

  -OEChem-04042320113D

100107  0     1  0  0  0  0  0999 V2000
  -30.1681  -15.8648   20.5590 C   0  0  0  0  0  0  0  0  0  0  0  0
  -21.3160   -5.6613   19.6842 C   0  0  0  0  0  0  0  0  0  0  0  0
  -22.3034   -6.3392   18.9764 C   0  0  0  0  0  0  0  0  0  0  0  0
  -24.5354  -31.9221   24.1894 C   0  0  0  0  0  0  0  0  0  0  0  0
  -26.3472  -30.3281   24.0731 C   0  0  0  0  0  0  0  0  0  0  0  0
  -20.3924   -6.3748   20.4469 C   0  0  0  0  0  0  0  0  0  0  0  0
  -22.3671   -7.7311   19.0301 C   0  0  0  0  0  0  0  0  0  0  0  0
  -27.4175  -11.1929   18.9101 C   0  0  0  0  0  0  0  0  0  0  0  0
  -25.2744  -32.6968   25.0834 C   0  0  0  0  0  0  0  0  0  0  0  0
  -27.0862  -31.1028   24.9672 C   0  0  0  0  0  0  0  0  0  0  0  0
  -28.0515  -11.8917   17.8837 C   0  0  0  0  0  0  0  0  0  0  0  0
  -27.8183  -34.9196   24.9408 C   0  0  0  0  0  0  0  0  0  0  0  0
  -27.8546  -36.2977   24.7280 C   0  0  0  0  0  0  0  0  0  0  0  0
  -26.9066  -13.9058   18.5560 C   0  0  0  0  0  0  0  0  0  0  0  0
  -26.8659  -36.6594   26.9026 C   0  0  0  0  0  0  0  0  0  0  0  0
  -25.0718  -30.7377   23.6843 C   0  0  0  0  0  0  0  0  0  0  0  0
  -24.3026  -30.0319   21.3567 C   0  0  0  0  0  0  0  0  0  0  0  0
  -20.4506   -7.7756   20.5177 C   0  0  0  0  0  0  0  0  0  0  0  0
  -26.5135  -11.8439   19.7617 C   0  0  0  0  0  0  0  0  0  0  0  0
  -21.4425   -8.4641   19.7934 C   0  0  0  0  0  0  0  0  0  0  0  0
  -26.2644  -13.2136   19.5940 C   0  0  0  0  0  0  0  0  0  0  0  0
  -26.5498  -32.2872   25.4723 C   0  0  0  0  0  0  0  0  0  0  0  0
  -27.7939  -13.2477   17.7047 C   0  0  0  0  0  0  0  0  0  0  0  0
  -27.3058  -34.4114   26.1344 C   0  0  0  0  0  0  0  0  0  0  0  0
  -27.3784  -37.1676   25.7089 C   0  0  0  0  0  0  0  0  0  0  0  0
  -26.8297  -35.2813   27.1153 C   0  0  0  0  0  0  0  0  0  0  0  0
  -24.3087  -29.9366   22.7612 C   0  0  0  0  0  0  0  0  0  0  0  0
  -23.4220  -29.0593   20.9504 C   0  0  0  0  0  0  0  0  0  0  0  0
  -25.0282  -30.9200   20.4962 C   0  0  0  0  0  0  0  0  0  0  0  0
  -23.4197  -11.5227   20.4166 C   0  0  0  0  0  0  0  0  0  0  0  0
  -24.0640  -13.7613   22.6740 C   0  0  0  0  0  0  0  0  0  0  0  0
  -26.0620  -16.3179   23.7316 C   0  0  0  0  0  0  0  0  0  0  0  0
  -29.8581  -18.1843   19.9951 C   0  0  0  0  0  0  0  0  0  0  0  0
  -21.5533  -23.9491   23.4494 C   0  0  0  0  0  0  0  0  0  0  0  0
  -19.4014   -8.5063   21.3176 C   0  0  0  0  0  0  0  0  0  0  0  0
  -25.8582  -11.0820   20.8808 C   0  0  0  0  0  0  0  0  0  0  0  0
  -25.3178  -13.9635   20.4940 C   0  0  0  0  0  0  0  0  0  0  0  0
  -19.7676   -9.9567   21.6214 C   0  0  0  0  0  0  0  0  0  0  0  0
  -19.5304  -26.6869   22.4060 C   0  0  0  0  0  0  0  0  0  0  0  0
  -20.2862  -10.6506   20.3658 C   0  0  0  0  0  0  0  0  0  0  0  0
  -20.5251  -27.8389   22.2520 C   0  0  0  0  0  0  0  0  0  0  0  0
  -19.8924  -25.7822   23.5817 C   0  0  0  0  0  0  0  0  0  0  0  0
  -22.2677  -26.4158   23.4082 C   0  0  0  0  0  0  0  0  0  0  0  0
  -21.5594   -9.9719   19.8464 C   0  0  1  0  0  0  0  0  0  0  0  0
  -24.5650  -11.7289   21.3671 C   0  0  1  0  0  0  0  0  0  0  0  0
  -21.9761  -27.3238   22.2012 C   0  0  2  0  0  0  0  0  0  0  0  0
  -26.3149  -17.9786   25.5959 C   0  0  0  0  0  0  0  0  0  0  0  0
  -21.7769  -15.4122   21.5105 C   0  0  0  0  0  0  0  0  0  0  0  0
  -22.6746  -17.3972   22.7442 C   0  0  0  0  0  0  0  0  0  0  0  0
  -21.8864  -15.3967   24.0090 C   0  0  0  0  0  0  0  0  0  0  0  0
  -28.7144  -15.2428   24.4850 C   0  0  0  0  0  0  0  0  0  0  0  0
  -29.8233  -24.0685   22.3494 C   0  0  0  0  0  0  0  0  0  0  0  0
  -30.7473  -19.2623   18.0657 C   0  0  0  0  0  0  0  0  0  0  0  0
  -28.4891  -19.5606   21.5730 C   0  0  0  0  0  0  0  0  0  0  0  0
  -23.3328  -22.2261   23.2943 C   0  0  0  0  0  0  0  0  0  0  0  0
  -28.6839  -23.2329   21.7897 C   0  0  0  0  0  0  0  0  0  0  0  0
  -30.2426  -23.6046   23.7356 C   0  0  0  0  0  0  0  0  0  0  0  0
  -31.6219  -18.8904   16.8824 C   0  0  0  0  0  0  0  0  0  0  0  0
  -27.9901  -20.9920   21.6482 C   0  0  0  0  0  0  0  0  0  0  0  0
  -23.6190  -21.6811   24.6821 C   0  0  0  0  0  0  0  0  0  0  0  0
  -29.3102  -13.1982   15.8732 C   0  0  0  0  0  0  0  0  0  1  0  0
  -29.8950  -14.1311   14.8305 C   0  0  0  0  0  0  0  0  0  0  0  0
  -29.5017  -23.2978   25.9446 C   0  0  0  0  0  0  0  0  0  0  0  0
  -31.9159  -17.1683   15.3107 C   0  0  0  0  0  0  0  0  0  0  0  0
  -24.9521  -21.9771   26.5947 C   0  0  0  0  0  0  0  0  0  0  0  0
  -28.3049  -23.4696   26.8601 C   0  0  0  0  0  0  0  0  0  0  0  0
  -31.1854  -16.0756   14.5540 C   0  0  0  0  0  0  0  0  0  0  0  0
  -26.0690  -22.8202   27.1792 C   0  0  0  0  0  0  0  0  0  0  0  0
  -24.0555  -15.2703   22.7162 C   0  0  1  0  0  0  0  0  0  0  0  0
  -26.7051  -16.6035   25.0767 C   0  0  2  0  0  0  0  0  0  0  0  0
  -22.6148  -15.8548   22.7266 C   0  0  0  0  0  0  0  0  0  0  0  0
  -30.6257  -14.8316   20.2957 N   0  0  0  0  0  0  0  0  0  0  0  0
  -23.4962  -28.9793   23.2166 N   0  0  0  0  0  0  0  0  0  0  0  0
  -30.5578  -18.0818   18.9131 N   0  0  0  0  0  0  0  0  0  0  0  0
  -22.9714  -28.4641   22.0918 N   0  0  0  0  0  0  0  0  0  0  0  0
  -24.6969  -13.1731   21.5698 N   0  0  0  0  0  0  0  0  0  0  0  0
  -21.2804  -25.3268   23.4726 N   0  0  0  0  0  0  0  0  0  0  0  0
  -22.9967  -28.6638   19.7317 N   0  0  0  0  0  0  0  0  0  0  0  0
  -25.8905  -31.8587   21.0789 N   0  0  0  0  0  0  0  0  0  0  0  0
  -29.6346  -17.0558   20.8735 N   0  0  0  0  0  0  0  0  0  0  0  0
  -22.7021  -10.3638   20.6433 N   0  0  0  0  0  0  0  0  0  0  0  0
  -24.8631  -15.6509   23.8700 N   0  0  0  0  0  0  0  0  0  0  0  0
  -29.2805  -19.3854   20.3764 N   0  0  0  0  0  0  0  0  0  0  0  0
  -22.8945  -23.6034   23.3376 N   0  0  0  0  0  0  0  0  0  0  0  0
  -28.1900  -16.5480   24.9631 N   0  3  0  0  0  0  0  0  0  0  0  0
  -24.9028  -30.8932   19.2484 O   0  0  0  0  0  0  0  0  0  0  0  0
  -23.2022  -12.3543   19.5431 O   0  0  0  0  0  0  0  0  0  0  0  0
  -23.5350  -13.1277   23.5907 O   0  0  0  0  0  0  0  0  0  0  0  0
  -26.5703  -16.6563   22.6650 O   0  0  0  0  0  0  0  0  0  0  0  0
  -20.6670  -23.0908   23.5174 O   0  0  0  0  0  0  0  0  0  0  0  0
  -27.2713  -33.0431   26.3445 O   0  0  0  0  0  0  0  0  0  0  0  0
  -28.4109  -13.9321   16.7032 O   0  0  0  0  0  0  0  0  0  1  0  0
  -29.1012  -21.8765   21.7175 O   0  0  0  0  0  0  0  0  0  0  0  0
  -29.1487  -23.7228   24.6352 O   0  0  0  0  0  0  0  0  0  0  0  0
  -30.9864  -17.8656   16.1311 O   0  0  0  0  0  0  0  0  0  0  0  0
  -24.6476  -22.4510   25.2886 O   0  0  0  0  0  0  0  0  0  0  0  0
  -30.6139  -15.1686   15.4863 O   0  0  0  0  0  0  0  0  0  0  0  0
  -27.2215  -22.6967   26.3577 O   0  0  0  0  0  0  0  0  0  0  0  0
  -27.4147  -38.4909   25.5051 F   0  0  0  0  0  0  0  0  0  0  0  0
  -26.3372  -34.7991   28.2646 F   0  0  0  0  0  0  0  0  0  0  0  0
  1 72  3  0  0  0  0
  1 80  1  0  0  0  0
  2  3  1  0  0  0  0
  2  6  2  0  0  0  0
  3  7  2  0  0  0  0
  4  9  2  0  0  0  0
  4 16  1  0  0  0  0
  5 10  1  0  0  0  0
  5 16  2  0  0  0  0
  6 18  1  0  0  0  0
  7 20  1  0  0  0  0
  8 11  2  0  0  0  0
  8 19  1  0  0  0  0
  9 22  1  0  0  0  0
 10 22  2  0  0  0  0
 11 23  1  0  0  0  0
 12 13  2  0  0  0  0
 12 24  1  0  0  0  0
 13 25  1  0  0  0  0
 14 21  1  0  0  0  0
 14 23  2  0  0  0  0
 15 25  2  0  0  0  0
 15 26  1  0  0  0  0
 16 27  1  0  0  0  0
 17 27  1  0  0  0  0
 17 28  2  0  0  0  0
 17 29  1  0  0  0  0
 18 20  2  0  0  0  0
 18 35  1  0  0  0  0
 19 21  2  0  0  0  0
 19 36  1  0  0  0  0
 20 44  1  0  0  0  0
 21 37  1  0  0  0  0
 22 91  1  0  0  0  0
 23 92  1  0  0  0  0
 24 26  2  0  0  0  0
 24 91  1  0  0  0  0
 25 99  1  0  0  0  0
 26100  1  0  0  0  0
 27 73  2  0  0  0  0
 28 75  1  0  0  0  0
 28 78  1  0  0  0  0
 29 79  1  0  0  0  0
 29 86  2  0  0  0  0
 30 45  1  0  0  0  0
 30 81  1  0  0  0  0
 30 87  2  0  0  0  0
 31 69  1  0  0  0  0
 31 76  1  0  0  0  0
 31 88  2  0  0  0  0
 32 70  1  0  0  0  0
 32 82  1  0  0  0  0
 32 89  2  0  0  0  0
 33 74  2  0  0  0  0
 33 80  1  0  0  0  0
 33 83  1  0  0  0  0
 34 77  1  0  0  0  0
 34 84  1  0  0  0  0
 34 90  2  0  0  0  0
 35 38  1  0  0  0  0
 36 45  1  0  0  0  0
 37 76  1  0  0  0  0
 38 40  1  0  0  0  0
 39 41  1  0  0  0  0
 39 42  1  0  0  0  0
 40 44  1  0  0  0  0
 41 46  1  0  0  0  0
 42 77  1  0  0  0  0
 43 46  1  0  0  0  0
 43 77  1  0  0  0  0
 44 81  1  0  0  0  0
 45 76  1  0  0  0  0
 46 75  1  0  0  0  0
 47 70  1  0  0  0  0
 48 71  1  0  0  0  0
 49 71  1  0  0  0  0
 50 71  1  0  0  0  0
 51 85  1  0  0  0  0
 52 56  1  0  0  0  0
 52 57  1  0  0  0  0
 53 58  1  0  0  0  0
 53 74  1  0  0  0  0
 54 59  1  0  0  0  0
 54 83  1  0  0  0  0
 55 60  1  0  0  0  0
 55 84  1  0  0  0  0
 56 93  1  0  0  0  0
 57 94  1  0  0  0  0
 58 95  1  0  0  0  0
 59 93  1  0  0  0  0
 60 96  1  0  0  0  0
 61 62  1  0  0  0  0
 61 92  1  0  0  0  0
 62 97  1  0  0  0  0
 63 66  1  0  0  0  0
 63 94  1  0  0  0  0
 64 67  1  0  0  0  0
 64 95  1  0  0  0  0
 65 68  1  0  0  0  0
 65 96  1  0  0  0  0
 66 98  1  0  0  0  0
 67 97  1  0  0  0  0
 68 98  1  0  0  0  0
 69 71  1  0  0  0  0
 69 82  1  0  0  0  0
 70 85  1  0  0  0  0
 73 75  1  0  0  0  0
M  CHG  1  85   1
M  ISO  4  34 100  61 101  84 100  92 101
M  END
> <Batch ID>
0000

> <Smiles>
CNC(C)C(=O)NC(C(=O)N1Cc2cc([101O:1][101CH2:1]COCCOCCNC(=NCCOCCCOCCOCCOCC[100NH:0][100C:0](=O)N3CCCC(n4nc(-c5ccc(Oc6ccc(F)cc6F)cc5)c(C(N)=O)c4N)C3)NC#N)ccc2CC1C(=O)NC1CCCc2ccccc21)C(C)(C)C

> <Shape>
0.260

> <Color>
0.036

> <Negative vol penalty>
0.000

$$$$

  -OEChem-04042320113D

 87 95  0     1  0  0  0  0  0999 V2000
  -27.6099  -25.1473   16.2779 C   0  0  0  0  0  0  0  0  0  0  0  0
  -26.4511  -25.3486   17.0210 C   0  0  0  0  0  0  0  0  0  0  0  0
  -16.1355  -24.2366   22.4220 C   0  0  0  0  0  0  0  0  0  0  0  0
  -26.9674  -12.7766   20.4652 C   0  0  0  0  0  0  0  0  0  0  0  0
  -24.6636  -13.3771   20.0543 C   0  0  0  0  0  0  0  0  0  0  0  0
  -16.9852  -23.1352   22.5248 C   0  0  0  0  0  0  0  0  0  0  0  0
  -28.8396  -25.5750   16.7768 C   0  0  0  0  0  0  0  0  0  0  0  0
  -26.5215  -25.9767   18.2639 C   0  0  0  0  0  0  0  0  0  0  0  0
  -22.9040  -29.4657   18.8850 C   0  0  0  0  0  0  0  0  0  0  0  0
  -16.6488  -25.4821   22.0600 C   0  0  0  0  0  0  0  0  0  0  0  0
  -26.5476  -11.7047   21.2527 C   0  0  0  0  0  0  0  0  0  0  0  0
  -24.2437  -12.3051   20.8419 C   0  0  0  0  0  0  0  0  0  0  0  0
  -21.6246  -29.0078   19.1969 C   0  0  0  0  0  0  0  0  0  0  0  0
  -22.5614   -9.5119   22.4500 C   0  0  0  0  0  0  0  0  0  0  0  0
  -21.5244   -8.7159   21.9637 C   0  0  0  0  0  0  0  0  0  0  0  0
  -18.8615  -24.5248   21.9037 C   0  0  0  0  0  0  0  0  0  0  0  0
  -22.0109  -29.5295   21.5203 C   0  0  0  0  0  0  0  0  0  0  0  0
  -22.8582   -8.1616   20.0269 C   0  0  0  0  0  0  0  0  0  0  0  0
  -26.0254  -13.6129   19.8660 C   0  0  0  0  0  0  0  0  0  0  0  0
  -18.3482  -23.2793   22.2657 C   0  0  0  0  0  0  0  0  0  0  0  0
  -26.7034  -14.7130   17.6665 C   0  0  0  0  0  0  0  0  0  0  0  0
  -28.9238  -26.2174   18.0222 C   0  0  0  0  0  0  0  0  0  0  0  0
  -23.7519  -29.9496   19.8917 C   0  0  0  0  0  0  0  0  0  0  0  0
  -27.7536  -26.4122   18.7805 C   0  0  0  0  0  0  0  0  0  0  0  0
  -23.2996  -29.9953   21.2182 C   0  0  0  0  0  0  0  0  0  0  0  0
  -18.0118  -25.6262   21.8009 C   0  0  0  0  0  0  0  0  0  0  0  0
  -25.1858  -11.4689   21.4411 C   0  0  0  0  0  0  0  0  0  0  0  0
  -21.1789  -29.0370   20.5151 C   0  0  0  0  0  0  0  0  0  0  0  0
  -23.7468   -9.6328   21.7248 C   0  0  0  0  0  0  0  0  0  0  0  0
  -21.6727   -8.0407   20.7521 C   0  0  0  0  0  0  0  0  0  0  0  0
  -23.8952   -8.9576   20.5133 C   0  0  0  0  0  0  0  0  0  0  0  0
  -26.4584  -14.7207   19.0528 C   0  0  0  0  0  0  0  0  0  0  0  0
  -27.0891  -15.9994   17.3788 C   0  0  0  0  0  0  0  0  0  0  0  0
  -19.2329  -22.1302   22.3732 C   0  0  0  0  0  0  0  0  0  0  0  0
  -26.5922  -13.6390   16.7232 C   0  0  0  0  0  0  0  0  0  0  0  0
  -26.5802  -29.0794   21.0525 C   0  0  0  0  0  0  0  0  0  0  0  0
  -26.2852  -31.8201   22.7625 C   0  0  0  0  0  0  0  0  0  0  0  0
  -24.2288  -34.1866   24.1108 C   0  0  0  0  0  0  0  0  0  0  0  0
  -26.0456  -21.2606   20.0400 C   0  0  0  0  0  0  0  0  0  0  0  0
  -19.8419  -27.2167   21.1424 C   0  0  0  0  0  0  0  0  0  1  0  0
  -30.2816  -26.6197   18.5411 C   0  0  0  0  0  0  0  0  0  0  0  0
  -25.1193  -30.4647   19.5350 C   0  0  0  0  0  0  0  0  0  0  0  0
  -24.1636  -30.5241   22.3328 C   0  0  0  0  0  0  0  0  0  0  0  0
  -30.2214  -27.6128   19.6989 C   0  0  0  0  0  0  0  0  0  0  0  0
  -29.2196  -19.8003   19.3550 C   0  0  0  0  0  0  0  0  0  0  0  0
  -29.1917  -27.1666   20.7321 C   0  0  0  0  0  0  0  0  0  0  0  0
  -28.8940  -18.3322   19.0748 C   0  0  0  0  0  0  0  0  0  0  0  0
  -28.3239  -20.3783   20.4484 C   0  0  0  0  0  0  0  0  0  0  0  0
  -26.5514  -18.7448   19.9353 C   0  0  0  0  0  0  0  0  0  0  0  0
  -27.7859  -27.1119   20.1220 C   0  0  1  0  0  0  0  0  0  0  0  0
  -26.0868  -30.4579   20.7144 C   0  0  1  0  0  0  0  0  0  0  0  0
  -27.3911  -18.1336   18.8006 C   0  0  2  0  0  0  0  0  0  0  0  0
  -24.2763  -36.2851   25.4861 C   0  0  0  0  0  0  0  0  0  0  0  0
  -26.7893  -30.1605   25.2728 C   0  0  0  0  0  0  0  0  0  0  0  0
  -25.8979  -32.0675   26.6282 C   0  0  0  0  0  0  0  0  0  0  0  0
  -27.9460  -32.3776   25.2382 C   0  0  0  0  0  0  0  0  0  0  0  0
  -23.0063  -35.7781   21.9356 C   0  0  0  0  0  0  0  0  0  0  0  0
  -22.2771  -21.0616   21.4731 C   0  0  0  0  0  0  0  0  0  0  0  0
  -23.0092  -22.2869   20.9127 C   0  0  0  0  0  0  0  0  0  0  0  0
  -21.5790  -21.3551   22.7980 C   0  0  0  0  0  0  0  0  0  0  0  0
  -23.7166  -21.9924   19.5934 C   0  0  0  0  0  0  0  0  0  0  0  0
  -25.6950  -32.1855   24.1031 C   0  0  1  0  0  0  0  0  0  0  0  0
  -24.2832  -35.7034   24.0810 C   0  0  2  0  0  0  0  0  0  0  0  0
  -26.5662  -31.6860   25.2901 C   0  0  0  0  0  0  0  0  0  0  0  0
  -26.6708  -15.9171   19.6073 N   0  0  0  0  0  0  0  0  0  0  0  0
  -27.0534  -16.6732   18.5642 N   0  0  0  0  0  0  0  0  0  0  0  0
  -25.4948  -31.0106   21.9344 N   0  0  0  0  0  0  0  0  0  0  0  0
  -26.9118  -20.1583   20.1269 N   0  0  0  0  0  0  0  0  0  0  0  0
  -27.4520  -16.6087   16.2302 N   0  0  0  0  0  0  0  0  0  0  0  0
  -26.1825  -12.3817   17.1874 N   0  0  0  0  0  0  0  0  0  0  0  0
  -18.5316  -26.8882   21.4338 N   0  0  0  0  0  0  0  0  0  0  0  0
  -20.5742  -22.3873   22.6801 N   0  0  0  0  0  0  0  0  0  0  0  0
  -27.2306  -28.4438   20.0121 N   0  0  0  0  0  0  0  0  0  0  0  0
  -25.4898  -33.6297   24.0788 N   0  0  0  0  0  0  0  0  0  0  0  0
  -24.7251  -20.9646   19.7247 N   0  0  0  0  0  0  0  0  0  0  0  0
  -23.1106  -36.2493   23.3406 N   0  3  0  0  0  0  0  0  0  0  0  0
  -18.8011  -20.9803   22.1767 O   0  0  0  0  0  0  0  0  0  0  0  0
  -26.8643  -13.7858   15.5075 O   0  0  0  0  0  0  0  0  0  0  0  0
  -26.3865  -28.6267   22.1746 O   0  0  0  0  0  0  0  0  0  0  0  0
  -27.4031  -32.2434   22.4583 O   0  0  0  0  0  0  0  0  0  0  0  0
  -23.1735  -33.5588   24.1614 O   0  0  0  0  0  0  0  0  0  0  0  0
  -26.4222  -22.4230   20.2242 O   0  0  0  0  0  0  0  0  0  0  0  0
  -20.8182  -26.4756   21.1445 O   0  0  0  0  0  0  0  0  0  0  0  0
  -24.7758  -10.4228   22.2093 O   0  0  0  0  0  0  0  0  0  0  0  0
  -19.9308  -28.5901   20.8224 O   0  0  0  0  0  0  0  0  0  1  0  0
  -20.6774   -7.2751   20.2860 F   0  0  0  0  0  0  0  0  0  0  0  0
  -25.0321   -9.0689   19.8127 F   0  0  0  0  0  0  0  0  0  0  0  0
  1  2  1  0  0  0  0
  1  7  2  0  0  0  0
  2  8  2  0  0  0  0
  3  6  1  0  0  0  0
  3 10  2  0  0  0  0
  4 11  2  0  0  0  0
  4 19  1  0  0  0  0
  5 12  1  0  0  0  0
  5 19  2  0  0  0  0
  6 20  2  0  0  0  0
  7 22  1  0  0  0  0
  8 24  1  0  0  0  0
  9 13  2  0  0  0  0
  9 23  1  0  0  0  0
 10 26  1  0  0  0  0
 11 27  1  0  0  0  0
 12 27  2  0  0  0  0
 13 28  1  0  0  0  0
 14 15  2  0  0  0  0
 14 29  1  0  0  0  0
 15 30  1  0  0  0  0
 16 20  1  0  0  0  0
 16 26  2  0  0  0  0
 17 25  1  0  0  0  0
 17 28  2  0  0  0  0
 18 30  2  0  0  0  0
 18 31  1  0  0  0  0
 19 32  1  0  0  0  0
 20 34  1  0  0  0  0
 21 32  1  0  0  0  0
 21 33  2  0  0  0  0
 21 35  1  0  0  0  0
 22 24  2  0  0  0  0
 22 41  1  0  0  0  0
 23 25  2  0  0  0  0
 23 42  1  0  0  0  0
 24 50  1  0  0  0  0
 25 43  1  0  0  0  0
 26 71  1  0  0  0  0
 27 84  1  0  0  0  0
 28 85  1  0  0  0  0
 29 31  2  0  0  0  0
 29 84  1  0  0  0  0
 30 86  1  0  0  0  0
 31 87  1  0  0  0  0
 32 65  2  0  0  0  0
 33 66  1  0  0  0  0
 33 69  1  0  0  0  0
 34 72  1  0  0  0  0
 34 77  2  0  0  0  0
 35 70  1  0  0  0  0
 35 78  2  0  0  0  0
 36 51  1  0  0  0  0
 36 73  1  0  0  0  0
 36 79  2  0  0  0  0
 37 62  1  0  0  0  0
 37 67  1  0  0  0  0
 37 80  2  0  0  0  0
 38 63  1  0  0  0  0
 38 74  1  0  0  0  0
 38 81  2  0  0  0  0
 39 68  1  0  0  0  0
 39 75  1  0  0  0  0
 39 82  2  0  0  0  0
 40 71  1  0  0  0  0
 40 83  2  0  0  0  0
 40 85  1  0  0  0  0
 41 44  1  0  0  0  0
 42 51  1  0  0  0  0
 43 67  1  0  0  0  0
 44 46  1  0  0  0  0
 45 47  1  0  0  0  0
 45 48  1  0  0  0  0
 46 50  1  0  0  0  0
 47 52  1  0  0  0  0
 48 68  1  0  0  0  0
 49 52  1  0  0  0  0
 49 68  1  0  0  0  0
 50 73  1  0  0  0  0
 51 67  1  0  0  0  0
 52 66  1  0  0  0  0
 53 63  1  0  0  0  0
 54 64  1  0  0  0  0
 55 64  1  0  0  0  0
 56 64  1  0  0  0  0
 57 76  1  0  0  0  0
 58 59  1  0  0  0  0
 58 60  1  0  0  0  0
 59 61  1  0  0  0  0
 60 72  1  0  0  0  0
 61 75  1  0  0  0  0
 62 64  1  0  0  0  0
 62 74  1  0  0  0  0
 63 76  1  0  0  0  0
 65 66  1  0  0  0  0
M  CHG  1  76   1
M  ISO  4  39 100  40 101  75 100  85 101
M  END
> <Batch ID>
0000

> <Smiles>
CNC(C)C(=O)NC(C(=O)N1Cc2cc([101O:1][101C:1](=O)Nc3cccc(C(=O)NCCCC[100NH:0][100C:0](=O)N4CCCC(n5nc(-c6ccc(Oc7ccc(F)cc7F)cc6)c(C(N)=O)c5N)C4)c3)ccc2CC1C(=O)NC1CCCc2ccccc21)C(C)(C)C

> <Shape>
0.309

> <Color>
0.085

> <Negative vol penalty>
0.000

$$$$

  -OEChem-04042320113D

 87 95  0     1  0  0  0  0  0999 V2000
  -18.0936  -32.0384   25.3551 C   0  0  0  0  0  0  0  0  0  0  0  0
  -19.4683  -32.0217   25.5686 C   0  0  0  0  0  0  0  0  0  0  0  0
  -26.4906  -23.6403   28.6816 C   0  0  0  0  0  0  0  0  0  0  0  0
  -25.7106  -14.7940   19.4352 C   0  0  0  0  0  0  0  0  0  0  0  0
  -23.9654  -14.6474   21.0995 C   0  0  0  0  0  0  0  0  0  0  0  0
  -27.6135  -24.4444   28.4863 C   0  0  0  0  0  0  0  0  0  0  0  0
  -17.5030  -31.0681   24.5467 C   0  0  0  0  0  0  0  0  0  0  0  0
  -20.2530  -31.0339   24.9745 C   0  0  0  0  0  0  0  0  0  0  0  0
  -25.9805  -31.6391   22.8923 C   0  0  0  0  0  0  0  0  0  0  0  0
  -25.5656  -23.4719   27.6512 C   0  0  0  0  0  0  0  0  0  0  0  0
  -26.0403  -13.4580   19.6633 C   0  0  0  0  0  0  0  0  0  0  0  0
  -24.2950  -13.3114   21.3275 C   0  0  0  0  0  0  0  0  0  0  0  0
  -27.2189  -31.3195   23.4472 C   0  0  0  0  0  0  0  0  0  0  0  0
  -23.7484  -10.3245   19.8441 C   0  0  0  0  0  0  0  0  0  0  0  0
  -22.7020   -9.4066   19.9337 C   0  0  0  0  0  0  0  0  0  0  0  0
  -26.8861  -24.9120   26.2303 C   0  0  0  0  0  0  0  0  0  0  0  0
  -27.2025  -29.2201   22.2591 C   0  0  0  0  0  0  0  0  0  0  0  0
  -23.3904   -8.8409   22.1794 C   0  0  0  0  0  0  0  0  0  0  0  0
  -24.6732  -15.3887   20.1534 C   0  0  0  0  0  0  0  0  0  0  0  0
  -27.8112  -25.0803   27.2606 C   0  0  0  0  0  0  0  0  0  0  0  0
  -23.4023  -17.2685   18.9875 C   0  0  0  0  0  0  0  0  0  0  0  0
  -18.2822  -30.0736   23.9346 C   0  0  0  0  0  0  0  0  0  0  0  0
  -25.3376  -30.7454   22.0238 C   0  0  0  0  0  0  0  0  0  0  0  0
  -19.6721  -30.0486   24.1582 C   0  0  0  0  0  0  0  0  0  0  0  0
  -25.9572  -29.5319   21.6926 C   0  0  0  0  0  0  0  0  0  0  0  0
  -25.7633  -24.1078   26.4256 C   0  0  0  0  0  0  0  0  0  0  0  0
  -25.3325  -12.7167   20.6094 C   0  0  0  0  0  0  0  0  0  0  0  0
  -27.8288  -30.1086   23.1329 C   0  0  0  0  0  0  0  0  0  0  0  0
  -24.6159  -10.5006   20.9221 C   0  0  0  0  0  0  0  0  0  0  0  0
  -22.5230   -8.6648   21.1013 C   0  0  0  0  0  0  0  0  0  0  0  0
  -24.4369   -9.7589   22.0898 C   0  0  0  0  0  0  0  0  0  0  0  0
  -24.3325  -16.7690   19.9187 C   0  0  0  0  0  0  0  0  0  0  0  0
  -23.4466  -18.6310   19.1552 C   0  0  0  0  0  0  0  0  0  0  0  0
  -29.0076  -25.9363   27.0528 C   0  0  0  0  0  0  0  0  0  0  0  0
  -22.5724  -16.5639   18.0545 C   0  0  0  0  0  0  0  0  0  0  0  0
  -22.5914  -29.1458   22.0809 C   0  0  0  0  0  0  0  0  0  0  0  0
  -23.4546  -28.3278   19.0629 C   0  0  0  0  0  0  0  0  0  0  0  0
  -25.9552  -27.8981   16.7805 C   0  0  0  0  0  0  0  0  0  0  0  0
  -24.9045  -21.9778   23.7951 C   0  0  0  0  0  0  0  0  0  0  0  0
  -17.5926  -29.0178   23.1073 C   0  0  0  0  0  0  0  0  0  0  0  0
  -24.0144  -31.1167   21.4127 C   0  0  0  0  0  0  0  0  0  0  0  0
  -25.3181  -28.5467   20.7495 C   0  0  0  0  0  0  0  0  0  0  0  0
  -18.5439  -28.2279   22.2121 C   0  0  0  0  0  0  0  0  0  0  0  0
  -26.4037  -22.1438   20.5054 C   0  0  0  0  0  0  0  0  0  0  0  0
  -19.7780  -27.7936   22.9965 C   0  0  0  0  0  0  0  0  0  0  0  0
  -25.9456  -20.8180   19.8951 C   0  0  0  0  0  0  0  0  0  0  0  0
  -26.7285  -21.9870   21.9879 C   0  0  0  0  0  0  0  0  0  0  0  0
  -25.1577  -20.0996   22.1979 C   0  0  0  0  0  0  0  0  0  0  0  0
  -20.5602  -29.0080   23.5112 C   0  0  1  0  0  0  0  0  0  0  0  0
  -23.2122  -29.9068   20.9437 C   0  0  1  0  0  0  0  0  0  0  0  0
  -24.7925  -20.1968   20.7055 C   0  0  2  0  0  0  0  0  0  0  0  0
  -26.3556  -27.1854   14.4080 C   0  0  0  0  0  0  0  0  0  0  0  0
  -23.1246  -25.0035   23.6675 C   0  0  0  0  0  0  0  0  0  0  0  0
  -23.3663  -25.9691   25.9542 C   0  0  0  0  0  0  0  0  0  0  0  0
  -23.0633  -25.4128   19.8750 C   0  0  0  0  0  0  0  0  0  0  0  0
  -24.3597  -24.7444   17.8401 C   0  0  0  0  0  0  0  0  0  0  0  0
  -22.2089  -25.9842   17.5951 C   0  0  0  0  0  0  0  0  0  0  0  0
  -27.0867  -30.5353   16.0571 C   0  0  0  0  0  0  0  0  0  0  0  0
  -30.2684  -28.2746   25.0646 C   0  0  0  0  0  0  0  0  0  0  0  0
  -30.6137  -26.8264   25.3843 C   0  0  0  0  0  0  0  0  0  0  0  0
  -29.3139  -28.4098   23.8844 C   0  0  0  0  0  0  0  0  0  1  0  0
  -24.7741  -23.9279   25.3238 C   0  0  1  0  0  0  0  0  0  0  0  0
  -24.2529  -27.2045   18.4466 C   0  0  1  0  0  0  0  0  0  0  0  0
  -26.0946  -28.3579   15.3405 C   0  0  2  0  0  0  0  0  0  0  0  0
  -24.1089  -25.2507   24.8198 C   0  0  0  0  0  0  0  0  0  0  0  0
  -23.4826  -25.8540   18.4585 C   0  0  0  0  0  0  0  0  0  0  0  0
  -24.9245  -17.7355   20.6254 N   0  0  0  0  0  0  0  0  0  0  0  0
  -24.3650  -18.8560   20.1380 N   0  0  0  0  0  0  0  0  0  0  0  0
  -24.0214  -28.9526   20.1827 N   0  0  0  0  0  0  0  0  0  0  0  0
  -25.5836  -21.4083   22.7052 N   0  0  0  0  0  0  0  0  0  0  0  0
  -22.7891  -19.6466   18.5562 N   0  0  0  0  0  0  0  0  0  0  0  0
  -22.6518  -15.1652   18.0135 N   0  0  0  0  0  0  0  0  0  0  0  0
  -29.4560  -26.0544   25.7420 N   0  0  0  0  0  0  0  0  0  0  0  0
  -21.3370  -29.5987   22.4426 N   0  0  0  0  0  0  0  0  0  0  0  0
  -24.6389  -27.6605   17.1156 N   0  0  0  0  0  0  0  0  0  0  0  0
  -25.3746  -23.2150   24.2184 N   0  0  0  0  0  0  0  0  0  0  0  0
  -27.2241  -29.3215   15.2116 N   0  3  0  0  0  0  0  0  0  0  0  0
  -29.5413  -26.4673   28.0232 O   0  0  0  0  0  0  0  0  0  0  0  0
  -21.7959  -17.1580   17.2688 O   0  0  0  0  0  0  0  0  0  0  0  0
  -23.2044  -28.2155   22.5913 O   0  0  0  0  0  0  0  0  0  0  0  0
  -22.3713  -28.6440   18.5646 O   0  0  0  0  0  0  0  0  0  0  0  0
  -26.9180  -27.7596   17.5317 O   0  0  0  0  0  0  0  0  0  0  0  0
  -23.9460  -21.4268   24.3472 O   0  0  0  0  0  0  0  0  0  0  0  0
  -25.6538  -11.4129   20.8320 O   0  0  0  0  0  0  0  0  0  0  0  0
  -29.0373  -29.7938   23.6736 O   0  0  0  0  0  0  0  0  0  1  0  0
  -21.5172   -7.7845   21.1877 F   0  0  0  0  0  0  0  0  0  0  0  0
  -25.2663   -9.9245   23.1292 F   0  0  0  0  0  0  0  0  0  0  0  0
  1  2  1  0  0  0  0
  1  7  2  0  0  0  0
  2  8  2  0  0  0  0
  3  6  2  0  0  0  0
  3 10  1  0  0  0  0
  4 11  2  0  0  0  0
  4 19  1  0  0  0  0
  5 12  1  0  0  0  0
  5 19  2  0  0  0  0
  6 20  1  0  0  0  0
  7 22  1  0  0  0  0
  8 24  1  0  0  0  0
  9 13  2  0  0  0  0
  9 23  1  0  0  0  0
 10 26  2  0  0  0  0
 11 27  1  0  0  0  0
 12 27  2  0  0  0  0
 13 28  1  0  0  0  0
 14 15  2  0  0  0  0
 14 29  1  0  0  0  0
 15 30  1  0  0  0  0
 16 20  2  0  0  0  0
 16 26  1  0  0  0  0
 17 25  1  0  0  0  0
 17 28  2  0  0  0  0
 18 30  2  0  0  0  0
 18 31  1  0  0  0  0
 19 32  1  0  0  0  0
 20 34  1  0  0  0  0
 21 32  1  0  0  0  0
 21 33  2  0  0  0  0
 21 35  1  0  0  0  0
 22 24  2  0  0  0  0
 22 40  1  0  0  0  0
 23 25  2  0  0  0  0
 23 41  1  0  0  0  0
 24 49  1  0  0  0  0
 25 42  1  0  0  0  0
 26 62  1  0  0  0  0
 27 84  1  0  0  0  0
 28 85  1  0  0  0  0
 29 31  2  0  0  0  0
 29 84  1  0  0  0  0
 30 86  1  0  0  0  0
 31 87  1  0  0  0  0
 32 67  2  0  0  0  0
 33 68  1  0  0  0  0
 33 71  1  0  0  0  0
 34 73  1  0  0  0  0
 34 78  2  0  0  0  0
 35 72  1  0  0  0  0
 35 79  2  0  0  0  0
 36 50  1  0  0  0  0
 36 74  1  0  0  0  0
 36 80  2  0  0  0  0
 37 63  1  0  0  0  0
 37 69  1  0  0  0  0
 37 81  2  0  0  0  0
 38 64  1  0  0  0  0
 38 75  1  0  0  0  0
 38 82  2  0  0  0  0
 39 70  1  0  0  0  0
 39 76  1  0  0  0  0
 39 83  2  0  0  0  0
 40 43  1  0  0  0  0
 41 50  1  0  0  0  0
 42 69  1  0  0  0  0
 43 45  1  0  0  0  0
 44 46  1  0  0  0  0
 44 47  1  0  0  0  0
 45 49  1  0  0  0  0
 46 51  1  0  0  0  0
 47 70  1  0  0  0  0
 48 51  1  0  0  0  0
 48 70  1  0  0  0  0
 49 74  1  0  0  0  0
 50 69  1  0  0  0  0
 51 68  1  0  0  0  0
 52 64  1  0  0  0  0
 53 65  1  0  0  0  0
 54 65  1  0  0  0  0
 55 66  1  0  0  0  0
 56 66  1  0  0  0  0
 57 66  1  0  0  0  0
 58 77  1  0  0  0  0
 59 60  1  0  0  0  0
 59 61  1  0  0  0  0
 60 73  1  0  0  0  0
 61 85  1  0  0  0  0
 62 65  1  0  0  0  0
 62 76  1  0  0  0  0
 63 66  1  0  0  0  0
 63 75  1  0  0  0  0
 64 77  1  0  0  0  0
 67 68  1  0  0  0  0
M  CHG  1  77   1
M  ISO  4  39 100  61 101  76 100  85 101
M  END
> <Batch ID>
0000

> <Smiles>
CNC(C)C(=O)NC(C(=O)N1Cc2cc([101O:1][101CH2:1]CCNC(=O)c3cccc(C([100NH:0][100C:0](=O)N4CCCC(n5nc(-c6ccc(Oc7ccc(F)cc7F)cc6)c(C(N)=O)c5N)C4)C(C)C)c3)ccc2CC1C(=O)NC1CCCc2ccccc21)C(C)(C)C

> <Shape>
0.198

> <Color>
0.078

> <Negative vol penalty>
0.000

$$$$

  -OEChem-04042320113D

 88 95  0     1  0  0  0  0  0999 V2000
  -31.2996  -26.0107   17.6181 C   0  0  0  0  0  0  0  0  0  0  0  0
  -29.9248  -25.8155   17.7035 C   0  0  0  0  0  0  0  0  0  0  0  0
  -20.9270  -17.0791   21.9159 C   0  0  0  0  0  0  0  0  0  0  0  0
  -21.3543  -19.2082   20.8568 C   0  0  0  0  0  0  0  0  0  0  0  0
  -31.9817  -26.6255   18.6672 C   0  0  0  0  0  0  0  0  0  0  0  0
  -29.2315  -26.2339   18.8387 C   0  0  0  0  0  0  0  0  0  0  0  0
  -23.5322  -28.4644   19.0581 C   0  0  0  0  0  0  0  0  0  0  0  0
  -19.9987  -17.6861   22.7616 C   0  0  0  0  0  0  0  0  0  0  0  0
  -20.4259  -19.8152   21.7025 C   0  0  0  0  0  0  0  0  0  0  0  0
  -22.3066  -27.8775   19.3699 C   0  0  0  0  0  0  0  0  0  0  0  0
  -20.0453  -19.5770   25.5629 C   0  0  0  0  0  0  0  0  0  0  0  0
  -20.0941  -19.2508   26.9181 C   0  0  0  0  0  0  0  0  0  0  0  0
  -22.5101  -28.6717   21.6386 C   0  0  0  0  0  0  0  0  0  0  0  0
  -17.8299  -18.4165   26.7988 C   0  0  0  0  0  0  0  0  0  0  0  0
  -21.6049  -17.8402   20.9635 C   0  0  0  0  0  0  0  0  0  0  0  0
  -22.3171  -16.6369   18.8298 C   0  0  0  0  0  0  0  0  0  0  0  0
  -31.2950  -27.0604   19.8117 C   0  0  0  0  0  0  0  0  0  0  0  0
  -24.2623  -29.1512   20.0387 C   0  0  0  0  0  0  0  0  0  0  0  0
  -29.9054  -26.8539   19.9047 C   0  0  0  0  0  0  0  0  0  0  0  0
  -23.7435  -29.2687   21.3360 C   0  0  0  0  0  0  0  0  0  0  0  0
  -19.7481  -19.0542   22.6550 C   0  0  0  0  0  0  0  0  0  0  0  0
  -21.7967  -27.9786   20.6610 C   0  0  0  0  0  0  0  0  0  0  0  0
  -18.8888  -19.3230   24.8255 C   0  0  0  0  0  0  0  0  0  0  0  0
  -18.9864  -18.6705   27.5361 C   0  0  0  0  0  0  0  0  0  0  0  0
  -17.7811  -18.7428   25.4435 C   0  0  0  0  0  0  0  0  0  0  0  0
  -22.5644  -17.2138   20.0899 C   0  0  0  0  0  0  0  0  0  0  0  0
  -23.5448  -16.1839   18.4127 C   0  0  0  0  0  0  0  0  0  0  0  0
  -21.0876  -16.5208   18.1015 C   0  0  0  0  0  0  0  0  0  0  0  0
  -27.1171  -28.7744   21.3847 C   0  0  0  0  0  0  0  0  0  0  0  0
  -26.3974  -31.6090   22.7880 C   0  0  0  0  0  0  0  0  0  0  0  0
  -23.9969  -33.8102   23.8075 C   0  0  0  0  0  0  0  0  0  0  0  0
  -29.1544  -17.8124   19.7289 C   0  0  0  0  0  0  0  0  0  0  0  0
  -32.0826  -27.6772   20.9403 C   0  0  0  0  0  0  0  0  0  0  0  0
  -25.5701  -29.8017   19.6796 C   0  0  0  0  0  0  0  0  0  0  0  0
  -24.4786  -30.0127   22.4198 C   0  0  0  0  0  0  0  0  0  0  0  0
  -31.2166  -28.4293   21.9476 C   0  0  0  0  0  0  0  0  0  0  0  0
  -27.7185  -14.5770   20.1124 C   0  0  0  0  0  0  0  0  0  0  0  0
  -29.9978  -27.5960   22.3309 C   0  0  0  0  0  0  0  0  0  0  0  0
  -26.2125  -14.8338   20.0364 C   0  0  0  0  0  0  0  0  0  0  0  0
  -28.4486  -15.7093   20.8313 C   0  0  0  0  0  0  0  0  0  0  0  0
  -26.6821  -17.3131   20.2138 C   0  0  0  0  0  0  0  0  0  0  0  0
  -29.1144  -27.3163   21.1091 C   0  0  1  0  0  0  0  0  0  0  0  0
  -26.4720  -30.0369   20.8873 C   0  0  1  0  0  0  0  0  0  0  0  0
  -25.9099  -16.2251   19.4481 C   0  0  2  0  0  0  0  0  0  0  0  0
  -23.7135  -36.0226   24.9575 C   0  0  0  0  0  0  0  0  0  0  0  0
  -26.9821  -30.2850   25.4741 C   0  0  0  0  0  0  0  0  0  0  0  0
  -25.7933  -32.1847   26.5904 C   0  0  0  0  0  0  0  0  0  0  0  0
  -27.8519  -32.6191   25.2502 C   0  0  0  0  0  0  0  0  0  0  0  0
  -22.6924  -35.0069   21.4358 C   0  0  0  0  0  0  0  0  0  0  0  0
  -29.7034  -19.9562   18.6055 C   0  0  0  0  0  0  0  0  0  0  0  0
  -30.1904  -20.9509   19.6440 C   0  0  0  0  0  0  0  0  0  0  0  0
  -20.2352  -26.2351   20.2391 C   0  0  0  0  0  0  0  0  0  1  0  0
  -19.3630  -25.3580   21.1163 C   0  0  0  0  0  0  0  0  0  0  0  0
  -29.4919  -22.6363   21.1253 C   0  0  0  0  0  0  0  0  0  0  0  0
  -28.2762  -23.4059   21.6046 C   0  0  0  0  0  0  0  0  0  0  0  0
  -19.3119  -24.1908   23.1554 C   0  0  0  0  0  0  0  0  0  0  0  0
  -20.1391  -23.8405   24.3772 C   0  0  0  0  0  0  0  0  0  0  0  0
  -26.1710  -23.1620   22.6202 C   0  0  0  0  0  0  0  0  0  0  0  0
  -25.1983  -22.1366   23.1702 C   0  0  0  0  0  0  0  0  0  0  0  0
  -22.1137  -22.7723   25.0719 C   0  0  0  0  0  0  0  0  0  0  0  0
  -23.3175  -21.9968   24.5721 C   0  0  0  0  0  0  0  0  0  0  0  0
  -25.7011  -32.0253   24.0612 C   0  0  1  0  0  0  0  0  0  0  0  0
  -23.8620  -35.3108   23.6218 C   0  0  2  0  0  0  0  0  0  0  0  0
  -26.5689  -31.7628   25.3243 C   0  0  0  0  0  0  0  0  0  0  0  0
  -23.8483  -17.1357   20.4497 N   0  0  0  0  0  0  0  0  0  0  0  0
  -24.4188  -16.5043   19.4095 N   0  0  0  0  0  0  0  0  0  0  0  0
  -25.7563  -30.6259   22.0209 N   0  0  0  0  0  0  0  0  0  0  0  0
  -28.1200  -17.0012   20.2238 N   0  0  0  0  0  0  0  0  0  0  0  0
  -23.9513  -15.5467   17.2941 N   0  0  0  0  0  0  0  0  0  0  0  0
  -19.9193  -17.0401   18.6757 N   0  0  0  0  0  0  0  0  0  0  0  0
  -28.3244  -28.4831   20.7788 N   0  0  0  0  0  0  0  0  0  0  0  0
  -25.3178  -33.4211   23.8791 N   0  0  0  0  0  0  0  0  0  0  0  0
  -28.7556  -19.0174   19.1634 N   0  0  0  0  0  0  0  0  0  0  0  0
  -22.6680  -35.6241   22.7869 N   0  3  0  0  0  0  0  0  0  0  0  0
  -21.0238  -15.9583   16.9821 O   0  0  0  0  0  0  0  0  0  0  0  0
  -26.5615  -28.1142   22.2548 O   0  0  0  0  0  0  0  0  0  0  0  0
  -27.4670  -32.1417   22.4817 O   0  0  0  0  0  0  0  0  0  0  0  0
  -23.0275  -33.0588   23.8853 O   0  0  0  0  0  0  0  0  0  0  0  0
  -30.3446  -17.4846   19.7819 O   0  0  0  0  0  0  0  0  0  0  0  0
  -18.8421  -19.6468   23.4799 O   0  0  0  0  0  0  0  0  0  0  0  0
  -20.6010  -27.4061   20.9681 O   0  0  0  0  0  0  0  0  0  1  0  0
  -29.0847  -21.6883   20.1461 O   0  0  0  0  0  0  0  0  0  0  0  0
  -20.0840  -25.0152   22.2936 O   0  0  0  0  0  0  0  0  0  0  0  0
  -27.3359  -22.4928   22.1528 O   0  0  0  0  0  0  0  0  0  0  0  0
  -21.2985  -23.1275   23.9638 O   0  0  0  0  0  0  0  0  0  0  0  0
  -24.0435  -22.8069   23.6555 O   0  0  0  0  0  0  0  0  0  0  0  0
  -19.0340  -18.3559   28.8372 F   0  0  0  0  0  0  0  0  0  0  0  0
  -16.6676  -18.4953   24.7401 F   0  0  0  0  0  0  0  0  0  0  0  0
  1  2  1  0  0  0  0
  1  5  2  0  0  0  0
  2  6  2  0  0  0  0
  3  8  2  0  0  0  0
  3 15  1  0  0  0  0
  4  9  1  0  0  0  0
  4 15  2  0  0  0  0
  5 17  1  0  0  0  0
  6 19  1  0  0  0  0
  7 10  2  0  0  0  0
  7 18  1  0  0  0  0
  8 21  1  0  0  0  0
  9 21  2  0  0  0  0
 10 22  1  0  0  0  0
 11 12  2  0  0  0  0
 11 23  1  0  0  0  0
 12 24  1  0  0  0  0
 13 20  1  0  0  0  0
 13 22  2  0  0  0  0
 14 24  2  0  0  0  0
 14 25  1  0  0  0  0
 15 26  1  0  0  0  0
 16 26  1  0  0  0  0
 16 27  2  0  0  0  0
 16 28  1  0  0  0  0
 17 19  2  0  0  0  0
 17 33  1  0  0  0  0
 18 20  2  0  0  0  0
 18 34  1  0  0  0  0
 19 42  1  0  0  0  0
 20 35  1  0  0  0  0
 21 80  1  0  0  0  0
 22 81  1  0  0  0  0
 23 25  2  0  0  0  0
 23 80  1  0  0  0  0
 24 87  1  0  0  0  0
 25 88  1  0  0  0  0
 26 65  2  0  0  0  0
 27 66  1  0  0  0  0
 27 69  1  0  0  0  0
 28 70  1  0  0  0  0
 28 75  2  0  0  0  0
 29 43  1  0  0  0  0
 29 71  1  0  0  0  0
 29 76  2  0  0  0  0
 30 62  1  0  0  0  0
 30 67  1  0  0  0  0
 30 77  2  0  0  0  0
 31 63  1  0  0  0  0
 31 72  1  0  0  0  0
 31 78  2  0  0  0  0
 32 68  1  0  0  0  0
 32 73  1  0  0  0  0
 32 79  2  0  0  0  0
 33 36  1  0  0  0  0
 34 43  1  0  0  0  0
 35 67  1  0  0  0  0
 36 38  1  0  0  0  0
 37 39  1  0  0  0  0
 37 40  1  0  0  0  0
 38 42  1  0  0  0  0
 39 44  1  0  0  0  0
 40 68  1  0  0  0  0
 41 44  1  0  0  0  0
 41 68  1  0  0  0  0
 42 71  1  0  0  0  0
 43 67  1  0  0  0  0
 44 66  1  0  0  0  0
 45 63  1  0  0  0  0
 46 64  1  0  0  0  0
 47 64  1  0  0  0  0
 48 64  1  0  0  0  0
 49 74  1  0  0  0  0
 50 51  1  0  0  0  0
 50 73  1  0  0  0  0
 51 82  1  0  0  0  0
 52 53  1  0  0  0  0
 52 81  1  0  0  0  0
 53 83  1  0  0  0  0
 54 55  1  0  0  0  0
 54 82  1  0  0  0  0
 55 84  1  0  0  0  0
 56 57  1  0  0  0  0
 56 83  1  0  0  0  0
 57 85  1  0  0  0  0
 58 59  1  0  0  0  0
 58 84  1  0  0  0  0
 59 86  1  0  0  0  0
 60 61  1  0  0  0  0
 60 85  1  0  0  0  0
 61 86  1  0  0  0  0
 62 64  1  0  0  0  0
 62 72  1  0  0  0  0
 63 74  1  0  0  0  0
 65 66  1  0  0  0  0
M  CHG  1  74   1
M  ISO  4  32 100  52 101  73 100  81 101
M  END
> <Batch ID>
0000

> <Smiles>
CNC(C)C(=O)NC(C(=O)N1Cc2cc([101O:1][101CH2:1]COCCOCCOCCOCCOCC[100NH:0][100C:0](=O)N3CCCC(n4nc(-c5ccc(Oc6ccc(F)cc6F)cc5)c(C(N)=O)c4N)C3)ccc2CC1C(=O)NC1CCCc2ccccc21)C(C)(C)C

> <Shape>
0.241

> <Color>
0.070

> <Negative vol penalty>
0.000

$$$$

  -OEChem-04042320113D

 87 94  0     1  0  0  0  0  0999 V2000
  -18.6796   -9.0272   21.3107 C   0  0  0  0  0  0  0  0  0  0  0  0
  -18.5266  -10.3453   20.8927 C   0  0  0  0  0  0  0  0  0  0  0  0
  -23.6595  -30.3552   21.2513 C   0  0  0  0  0  0  0  0  0  0  0  0
  -23.0623  -28.2084   22.1849 C   0  0  0  0  0  0  0  0  0  0  0  0
  -19.7005   -8.6929   22.1994 C   0  0  0  0  0  0  0  0  0  0  0  0
  -19.3940  -11.3301   21.3641 C   0  0  0  0  0  0  0  0  0  0  0  0
  -22.5409  -17.4362   19.3319 C   0  0  0  0  0  0  0  0  0  0  0  0
  -22.6085  -30.9508   21.9485 C   0  0  0  0  0  0  0  0  0  0  0  0
  -22.0112  -28.8040   22.8822 C   0  0  0  0  0  0  0  0  0  0  0  0
  -22.7103  -18.7535   19.7558 C   0  0  0  0  0  0  0  0  0  0  0  0
  -18.8790  -29.8895   22.2174 C   0  0  0  0  0  0  0  0  0  0  0  0
  -17.6423  -29.2446   22.2005 C   0  0  0  0  0  0  0  0  0  0  0  0
  -24.4867  -18.0456   21.2264 C   0  0  0  0  0  0  0  0  0  0  0  0
  -17.7102  -29.0513   24.6078 C   0  0  0  0  0  0  0  0  0  0  0  0
  -23.8864  -28.9839   21.3695 C   0  0  0  0  0  0  0  0  0  0  0  0
  -26.2958  -28.1926   21.0934 C   0  0  0  0  0  0  0  0  0  0  0  0
  -20.5868   -9.6724   22.6744 C   0  0  0  0  0  0  0  0  0  0  0  0
  -23.3372  -16.4103   19.8611 C   0  0  0  0  0  0  0  0  0  0  0  0
  -20.4269  -11.0089   22.2611 C   0  0  0  0  0  0  0  0  0  0  0  0
  -24.3271  -16.7165   20.8057 C   0  0  0  0  0  0  0  0  0  0  0  0
  -21.7843  -30.1753   22.7640 C   0  0  0  0  0  0  0  0  0  0  0  0
  -23.6813  -19.0580   20.7052 C   0  0  0  0  0  0  0  0  0  0  0  0
  -19.5314  -30.1152   23.4295 C   0  0  0  0  0  0  0  0  0  0  0  0
  -17.0579  -28.8256   23.3956 C   0  0  0  0  0  0  0  0  0  0  0  0
  -18.9469  -29.6961   24.6247 C   0  0  0  0  0  0  0  0  0  0  0  0
  -24.9716  -28.3680   20.6490 C   0  0  0  0  0  0  0  0  0  0  0  0
  -26.9276  -27.5620   20.0496 C   0  0  0  0  0  0  0  0  0  0  0  0
  -26.9006  -28.5663   22.3385 C   0  0  0  0  0  0  0  0  0  0  0  0
  -22.7718  -13.7725   21.5423 C   0  0  0  0  0  0  0  0  0  0  0  0
  -25.9388  -13.2576   21.0653 C   0  0  0  0  0  0  0  0  0  0  0  0
  -28.5129  -21.9328   20.0578 C   0  0  0  0  0  0  0  0  0  0  0  0
  -29.0197  -14.5680   20.4040 C   0  0  0  0  0  0  0  0  0  0  0  0
  -24.9552  -24.0887   15.5890 C   0  0  0  0  0  0  0  0  0  0  0  0
  -21.6457   -9.2715   23.6707 C   0  0  0  0  0  0  0  0  0  0  0  0
  -23.1600  -14.9983   19.3737 C   0  0  0  0  0  0  0  0  0  0  0  0
  -25.2215  -15.6546   21.3897 C   0  0  0  0  0  0  0  0  0  0  0  0
  -22.7546  -10.3082   23.8314 C   0  0  0  0  0  0  0  0  0  0  0  0
  -26.7729  -27.1352   15.2868 C   0  0  0  0  0  0  0  0  0  0  0  0
  -22.1614  -11.7058   23.9791 C   0  0  0  0  0  0  0  0  0  0  0  0
  -26.6368  -27.7808   16.6669 C   0  0  0  0  0  0  0  0  0  0  0  0
  -25.4982  -26.3992   14.8799 C   0  0  0  0  0  0  0  0  0  0  0  0
  -24.8791  -26.0544   17.2403 C   0  0  0  0  0  0  0  0  0  0  0  0
  -21.3632  -12.1010   22.7309 C   0  0  1  0  0  0  0  0  0  0  0  0
  -23.6798  -13.9564   20.3594 C   0  0  1  0  0  0  0  0  0  0  0  0
  -26.1591  -26.7612   17.7182 C   0  0  2  0  0  0  0  0  0  0  0  0
  -31.4219  -13.9032   20.1122 C   0  0  0  0  0  0  0  0  0  0  0  0
  -26.2132  -12.9318   24.0867 C   0  0  0  0  0  0  0  0  0  0  0  0
  -28.6859  -13.2224   23.8233 C   0  0  0  0  0  0  0  0  0  0  0  0
  -27.5357  -11.2941   22.7364 C   0  0  0  0  0  0  0  0  0  0  0  0
  -29.0810  -15.5745   17.6216 C   0  0  0  0  0  0  0  0  0  0  0  0
  -28.0376  -20.5217   19.7532 C   0  0  0  0  0  0  0  0  0  0  0  0
  -27.4676  -20.3551   18.3454 C   0  0  0  0  0  0  0  0  0  0  0  0
  -26.2146  -21.2075   18.1192 C   0  0  0  0  0  0  0  0  0  0  0  0
  -25.6810  -21.0391   16.6932 C   0  0  0  0  0  0  0  0  0  0  0  0
  -24.3986  -21.8296   16.4527 C   0  0  0  0  0  0  0  0  0  0  0  0
  -28.7935  -23.5026   21.9656 C   0  0  0  0  0  0  0  0  0  0  0  0
  -27.6278  -24.4737   21.9239 C   0  0  0  0  0  0  0  0  0  0  0  0
  -22.6955  -21.1840   21.1107 C   0  0  0  0  0  0  0  0  0  1  0  0
  -22.8314  -22.2239   22.2060 C   0  0  0  0  0  0  0  0  0  0  0  0
  -25.4150  -24.8073   22.6415 C   0  0  0  0  0  0  0  0  0  0  0  0
  -24.1614  -24.0122   22.9517 C   0  0  0  0  0  0  0  0  0  0  0  0
  -27.2041  -13.6207   21.8043 C   0  0  1  0  0  0  0  0  0  0  0  0
  -30.0959  -14.1613   19.4136 C   0  0  2  0  0  0  0  0  0  0  0  0
  -27.3917  -12.7872   23.1033 C   0  0  0  0  0  0  0  0  0  0  0  0
  -24.7727  -27.8877   19.4187 N   0  0  0  0  0  0  0  0  0  0  0  0
  -25.9804  -27.4044   19.0810 N   0  0  0  0  0  0  0  0  0  0  0  0
  -25.0052  -14.2882   20.8860 N   0  0  0  0  0  0  0  0  0  0  0  0
  -25.1000  -25.4464   15.9188 N   0  0  0  0  0  0  0  0  0  0  0  0
  -28.1955  -27.1325   19.8750 N   0  0  0  0  0  0  0  0  0  0  0  0
  -26.1078  -29.2063   23.3010 N   0  0  0  0  0  0  0  0  0  0  0  0
  -22.2570  -12.4959   21.6634 N   0  0  0  0  0  0  0  0  0  0  0  0
  -28.3774  -22.2023   21.3922 N   0  0  0  0  0  0  0  0  0  0  0  0
  -28.2925  -13.4818   20.8427 N   0  0  0  0  0  0  0  0  0  0  0  0
  -24.5814  -23.2524   16.6339 N   0  0  0  0  0  0  0  0  0  0  0  0
  -30.2997  -15.2348   18.4003 N   0  3  0  0  0  0  0  0  0  0  0  0
  -28.1124  -28.3542   22.5837 O   0  0  0  0  0  0  0  0  0  0  0  0
  -22.5555  -14.7185   22.2907 O   0  0  0  0  0  0  0  0  0  0  0  0
  -25.7875  -12.1039   20.6559 O   0  0  0  0  0  0  0  0  0  0  0  0
  -28.9710  -22.6883   19.2049 O   0  0  0  0  0  0  0  0  0  0  0  0
  -28.8444  -15.7323   20.7563 O   0  0  0  0  0  0  0  0  0  0  0  0
  -25.1502  -23.6531   14.4492 O   0  0  0  0  0  0  0  0  0  0  0  0
  -20.7588  -30.7562   23.4447 O   0  0  0  0  0  0  0  0  0  0  0  0
  -23.8483  -20.3429   21.1212 O   0  0  0  0  0  0  0  0  0  1  0  0
  -26.5351  -23.9307   22.6518 O   0  0  0  0  0  0  0  0  0  0  0  0
  -23.9844  -23.0174   21.9528 O   0  0  0  0  0  0  0  0  0  0  0  0
  -15.8695  -28.2077   23.3794 F   0  0  0  0  0  0  0  0  0  0  0  0
  -19.5683  -29.9112   25.7923 F   0  0  0  0  0  0  0  0  0  0  0  0
  1  2  1  0  0  0  0
  1  5  2  0  0  0  0
  2  6  2  0  0  0  0
  3  8  2  0  0  0  0
  3 15  1  0  0  0  0
  4  9  1  0  0  0  0
  4 15  2  0  0  0  0
  5 17  1  0  0  0  0
  6 19  1  0  0  0  0
  7 10  2  0  0  0  0
  7 18  1  0  0  0  0
  8 21  1  0  0  0  0
  9 21  2  0  0  0  0
 10 22  1  0  0  0  0
 11 12  2  0  0  0  0
 11 23  1  0  0  0  0
 12 24  1  0  0  0  0
 13 20  1  0  0  0  0
 13 22  2  0  0  0  0
 14 24  2  0  0  0  0
 14 25  1  0  0  0  0
 15 26  1  0  0  0  0
 16 26  1  0  0  0  0
 16 27  2  0  0  0  0
 16 28  1  0  0  0  0
 17 19  2  0  0  0  0
 17 34  1  0  0  0  0
 18 20  2  0  0  0  0
 18 35  1  0  0  0  0
 19 43  1  0  0  0  0
 20 36  1  0  0  0  0
 21 82  1  0  0  0  0
 22 83  1  0  0  0  0
 23 25  2  0  0  0  0
 23 82  1  0  0  0  0
 24 86  1  0  0  0  0
 25 87  1  0  0  0  0
 26 65  2  0  0  0  0
 27 66  1  0  0  0  0
 27 69  1  0  0  0  0
 28 70  1  0  0  0  0
 28 76  2  0  0  0  0
 29 44  1  0  0  0  0
 29 71  1  0  0  0  0
 29 77  2  0  0  0  0
 30 62  1  0  0  0  0
 30 67  1  0  0  0  0
 30 78  2  0  0  0  0
 31 51  1  0  0  0  0
 31 72  1  0  0  0  0
 31 79  2  0  0  0  0
 32 63  1  0  0  0  0
 32 73  1  0  0  0  0
 32 80  2  0  0  0  0
 33 68  1  0  0  0  0
 33 74  1  0  0  0  0
 33 81  2  0  0  0  0
 34 37  1  0  0  0  0
 35 44  1  0  0  0  0
 36 67  1  0  0  0  0
 37 39  1  0  0  0  0
 38 40  1  0  0  0  0
 38 41  1  0  0  0  0
 39 43  1  0  0  0  0
 40 45  1  0  0  0  0
 41 68  1  0  0  0  0
 42 45  1  0  0  0  0
 42 68  1  0  0  0  0
 43 71  1  0  0  0  0
 44 67  1  0  0  0  0
 45 66  1  0  0  0  0
 46 63  1  0  0  0  0
 47 64  1  0  0  0  0
 48 64  1  0  0  0  0
 49 64  1  0  0  0  0
 50 75  1  0  0  0  0
 51 52  1  0  0  0  0
 52 53  1  0  0  0  0
 53 54  1  0  0  0  0
 54 55  1  0  0  0  0
 55 74  1  0  0  0  0
 56 57  1  0  0  0  0
 56 72  1  0  0  0  0
 57 84  1  0  0  0  0
 58 59  1  0  0  0  0
 58 83  1  0  0  0  0
 59 85  1  0  0  0  0
 60 61  1  0  0  0  0
 60 84  1  0  0  0  0
 61 85  1  0  0  0  0
 62 64  1  0  0  0  0
 62 73  1  0  0  0  0
 63 75  1  0  0  0  0
 65 66  1  0  0  0  0
M  CHG  1  75   1
M  ISO  4  33 100  58 101  74 100  83 101
M  END
> <Batch ID>
0000

> <Smiles>
CNC(C)C(=O)NC(C(=O)N1Cc2cc([101O:1][101CH2:1]COCCOCCNC(=O)CCCCC[100NH:0][100C:0](=O)N3CCCC(n4nc(-c5ccc(Oc6ccc(F)cc6F)cc5)c(C(N)=O)c4N)C3)ccc2CC1C(=O)NC1CCCc2ccccc21)C(C)(C)C

> <Shape>
0.212

> <Color>
0.093

> <Negative vol penalty>
0.000

$$$$

  -OEChem-04042320113D

 85 92  0     1  0  0  0  0  0999 V2000
  -23.2949  -35.9080   24.5529 C   0  0  0  0  0  0  0  0  0  0  0  0
  -24.3060  -35.0956   24.0498 C   0  0  0  0  0  0  0  0  0  0  0  0
  -26.0312   -7.8260   21.4664 C   0  0  0  0  0  0  0  0  0  0  0  0
  -23.8382   -8.8192   21.6698 C   0  0  0  0  0  0  0  0  0  0  0  0
  -22.1133  -35.3373   25.0243 C   0  0  0  0  0  0  0  0  0  0  0  0
  -24.1365  -33.7119   24.0189 C   0  0  0  0  0  0  0  0  0  0  0  0
  -26.2479  -29.8385   19.7710 C   0  0  0  0  0  0  0  0  0  0  0  0
  -25.6774   -6.8532   22.4013 C   0  0  0  0  0  0  0  0  0  0  0  0
  -23.4844   -7.8464   22.6047 C   0  0  0  0  0  0  0  0  0  0  0  0
  -27.3685  -29.0099   19.7312 C   0  0  0  0  0  0  0  0  0  0  0  0
  -22.5081   -4.6111   22.5826 C   0  0  0  0  0  0  0  0  0  0  0  0
  -21.2591   -4.0058   22.4446 C   0  0  0  0  0  0  0  0  0  0  0  0
  -26.0190  -27.1588   20.4872 C   0  0  0  0  0  0  0  0  0  0  0  0
  -20.6299   -4.8044   24.6363 C   0  0  0  0  0  0  0  0  0  0  0  0
  -25.1116   -8.8090   21.1006 C   0  0  0  0  0  0  0  0  0  0  0  0
  -25.3174   -9.7492   18.7381 C   0  0  0  0  0  0  0  0  0  0  0  0
  -21.9254  -33.9466   24.9902 C   0  0  0  0  0  0  0  0  0  0  0  0
  -25.0047  -29.3352   20.1803 C   0  0  0  0  0  0  0  0  0  0  0  0
  -22.9519  -33.1220   24.4915 C   0  0  0  0  0  0  0  0  0  0  0  0
  -24.8837  -27.9825   20.5288 C   0  0  0  0  0  0  0  0  0  0  0  0
  -24.4040   -6.8634   22.9705 C   0  0  0  0  0  0  0  0  0  0  0  0
  -27.2547  -27.6705   20.0921 C   0  0  0  0  0  0  0  0  0  0  0  0
  -22.8181   -5.3131   23.7475 C   0  0  0  0  0  0  0  0  0  0  0  0
  -20.3200   -4.1024   23.4714 C   0  0  0  0  0  0  0  0  0  0  0  0
  -21.8790   -5.4097   24.7743 C   0  0  0  0  0  0  0  0  0  0  0  0
  -25.4767   -9.8145   20.1353 C   0  0  0  0  0  0  0  0  0  0  0  0
  -25.8152  -10.9443   18.2795 C   0  0  0  0  0  0  0  0  0  0  0  0
  -24.7683   -8.7019   17.9273 C   0  0  0  0  0  0  0  0  0  0  0  0
  -23.0058  -29.9665   22.5697 C   0  0  0  0  0  0  0  0  0  0  0  0
  -21.0906  -27.8669   21.0057 C   0  0  0  0  0  0  0  0  0  0  0  0
  -23.8769  -17.9307   19.5848 C   0  0  0  0  0  0  0  0  0  0  0  0
  -20.8293  -25.2427   18.8396 C   0  0  0  0  0  0  0  0  0  0  0  0
  -26.4526  -16.3346   20.8073 C   0  0  0  0  0  0  0  0  0  0  0  0
  -20.6502  -33.3723   25.5546 C   0  0  0  0  0  0  0  0  0  0  0  0
  -23.7999  -30.2356   20.1921 C   0  0  0  0  0  0  0  0  0  0  0  0
  -23.5672  -27.3883   20.9560 C   0  0  0  0  0  0  0  0  0  0  0  0
  -20.3985  -31.9247   25.1406 C   0  0  0  0  0  0  0  0  0  0  0  0
  -29.0169  -14.3301   19.3642 C   0  0  0  0  0  0  0  0  0  0  0  0
  -21.6655  -31.0926   25.3116 C   0  0  0  0  0  0  0  0  0  0  0  0
  -28.3860  -12.9396   19.2721 C   0  0  0  0  0  0  0  0  0  0  0  0
  -28.5739  -15.0684   20.6253 C   0  0  0  0  0  0  0  0  0  0  0  0
  -26.4825  -13.7680   20.7174 C   0  0  0  0  0  0  0  0  0  0  0  0
  -22.7956  -31.6185   24.4184 C   0  0  1  0  0  0  0  0  0  0  0  0
  -22.6929  -29.7403   21.1176 C   0  0  1  0  0  0  0  0  0  0  0  0
  -26.8555  -13.0065   19.4340 C   0  0  2  0  0  0  0  0  0  0  0  0
  -19.1363  -23.7191   17.7860 C   0  0  0  0  0  0  0  0  0  0  0  0
  -20.8468  -26.3278   23.6290 C   0  0  0  0  0  0  0  0  0  0  0  0
  -19.9744  -24.3779   22.3231 C   0  0  0  0  0  0  0  0  0  0  0  0
  -18.7152  -26.5313   22.3369 C   0  0  0  0  0  0  0  0  0  0  0  0
  -21.5412  -26.1468   16.1129 C   0  0  0  0  0  0  0  0  0  0  0  0
  -24.2476  -17.4612   20.9754 C   0  0  0  0  0  0  0  0  0  0  0  0
  -24.5270  -20.4418   17.4955 C   0  0  0  0  0  0  0  0  0  0  0  0
  -28.6090  -22.8910   17.0388 C   0  0  0  0  0  0  0  0  0  0  0  0
  -23.3335  -20.0198   18.3422 C   0  0  0  0  0  0  0  0  0  0  0  0
  -25.4933  -21.3493   18.2472 C   0  0  0  0  0  0  0  0  0  0  0  0
  -27.4994  -22.5522   18.0206 C   0  0  0  0  0  0  0  0  0  0  0  0
  -29.6665  -23.7886   17.6619 C   0  0  0  0  0  0  0  0  0  0  0  0
  -29.3503  -27.1657   19.0873 C   0  0  0  0  0  0  0  0  0  1  0  0
  -30.0373  -25.8821   18.6633 C   0  0  0  0  0  0  0  0  0  0  0  0
  -20.8843  -26.3721   21.0478 C   0  0  1  0  0  0  0  0  0  0  0  0
  -19.9254  -25.0112   17.6421 C   0  0  2  0  0  0  0  0  0  0  0  0
  -20.1305  -25.9136   22.3280 C   0  0  0  0  0  0  0  0  0  0  0  0
  -26.0325  -10.9604   20.5379 N   0  0  0  0  0  0  0  0  0  0  0  0
  -26.2268  -11.6261   19.3868 N   0  0  0  0  0  0  0  0  0  0  0  0
  -22.4197  -28.3107   20.9574 N   0  0  0  0  0  0  0  0  0  0  0  0
  -27.1123  -15.0977   20.7181 N   0  0  0  0  0  0  0  0  0  0  0  0
  -25.9367  -11.4680   17.0412 N   0  0  0  0  0  0  0  0  0  0  0  0
  -24.3023   -7.5415   18.5603 N   0  0  0  0  0  0  0  0  0  0  0  0
  -22.5955  -31.1960   23.0487 N   0  0  0  0  0  0  0  0  0  0  0  0
  -23.7243  -19.3130   19.5313 N   0  0  0  0  0  0  0  0  0  0  0  0
  -20.2150  -26.0171   19.8010 N   0  0  0  0  0  0  0  0  0  0  0  0
  -25.0666  -16.2729   20.8853 N   0  0  0  0  0  0  0  0  0  0  0  0
  -20.7324  -24.9323   16.3917 N   0  3  0  0  0  0  0  0  0  0  0  0
  -24.7083   -8.7856   16.6772 O   0  0  0  0  0  0  0  0  0  0  0  0
  -23.5758  -29.0899   23.2086 O   0  0  0  0  0  0  0  0  0  0  0  0
  -20.1084  -28.6132   21.0082 O   0  0  0  0  0  0  0  0  0  0  0  0
  -23.6991  -17.1658   18.6403 O   0  0  0  0  0  0  0  0  0  0  0  0
  -21.9651  -24.7796   18.9162 O   0  0  0  0  0  0  0  0  0  0  0  0
  -27.0538  -17.4142   20.8113 O   0  0  0  0  0  0  0  0  0  0  0  0
  -24.0583   -5.9141   23.8826 O   0  0  0  0  0  0  0  0  0  0  0  0
  -28.3470  -26.8597   20.0548 O   0  0  0  0  0  0  0  0  0  1  0  0
  -26.5597  -21.7028   17.3767 O   0  0  0  0  0  0  0  0  0  0  0  0
  -29.0770  -25.0138   18.0742 O   0  0  0  0  0  0  0  0  0  0  0  0
  -19.1200   -3.5224   23.3381 F   0  0  0  0  0  0  0  0  0  0  0  0
  -22.1706   -6.0837   25.8952 F   0  0  0  0  0  0  0  0  0  0  0  0
  1  2  1  0  0  0  0
  1  5  2  0  0  0  0
  2  6  2  0  0  0  0
  3  8  2  0  0  0  0
  3 15  1  0  0  0  0
  4  9  1  0  0  0  0
  4 15  2  0  0  0  0
  5 17  1  0  0  0  0
  6 19  1  0  0  0  0
  7 10  2  0  0  0  0
  7 18  1  0  0  0  0
  8 21  1  0  0  0  0
  9 21  2  0  0  0  0
 10 22  1  0  0  0  0
 11 12  2  0  0  0  0
 11 23  1  0  0  0  0
 12 24  1  0  0  0  0
 13 20  1  0  0  0  0
 13 22  2  0  0  0  0
 14 24  2  0  0  0  0
 14 25  1  0  0  0  0
 15 26  1  0  0  0  0
 16 26  1  0  0  0  0
 16 27  2  0  0  0  0
 16 28  1  0  0  0  0
 17 19  2  0  0  0  0
 17 34  1  0  0  0  0
 18 20  2  0  0  0  0
 18 35  1  0  0  0  0
 19 43  1  0  0  0  0
 20 36  1  0  0  0  0
 21 80  1  0  0  0  0
 22 81  1  0  0  0  0
 23 25  2  0  0  0  0
 23 80  1  0  0  0  0
 24 84  1  0  0  0  0
 25 85  1  0  0  0  0
 26 63  2  0  0  0  0
 27 64  1  0  0  0  0
 27 67  1  0  0  0  0
 28 68  1  0  0  0  0
 28 74  2  0  0  0  0
 29 44  1  0  0  0  0
 29 69  1  0  0  0  0
 29 75  2  0  0  0  0
 30 60  1  0  0  0  0
 30 65  1  0  0  0  0
 30 76  2  0  0  0  0
 31 51  1  0  0  0  0
 31 70  1  0  0  0  0
 31 77  2  0  0  0  0
 32 61  1  0  0  0  0
 32 71  1  0  0  0  0
 32 78  2  0  0  0  0
 33 66  1  0  0  0  0
 33 72  1  0  0  0  0
 33 79  2  0  0  0  0
 34 37  1  0  0  0  0
 35 44  1  0  0  0  0
 36 65  1  0  0  0  0
 37 39  1  0  0  0  0
 38 40  1  0  0  0  0
 38 41  1  0  0  0  0
 39 43  1  0  0  0  0
 40 45  1  0  0  0  0
 41 66  1  0  0  0  0
 42 45  1  0  0  0  0
 42 66  1  0  0  0  0
 43 69  1  0  0  0  0
 44 65  1  0  0  0  0
 45 64  1  0  0  0  0
 46 61  1  0  0  0  0
 47 62  1  0  0  0  0
 48 62  1  0  0  0  0
 49 62  1  0  0  0  0
 50 73  1  0  0  0  0
 51 72  1  0  0  0  0
 52 54  1  0  0  0  0
 52 55  1  0  0  0  0
 53 56  1  0  0  0  0
 53 57  1  0  0  0  0
 54 70  1  0  0  0  0
 55 82  1  0  0  0  0
 56 82  1  0  0  0  0
 57 83  1  0  0  0  0
 58 59  1  0  0  0  0
 58 81  1  0  0  0  0
 59 83  1  0  0  0  0
 60 62  1  0  0  0  0
 60 71  1  0  0  0  0
 61 73  1  0  0  0  0
 63 64  1  0  0  0  0
M  CHG  1  73   1
M  ISO  4  33 100  58 101  72 100  81 101
M  END
> <Batch ID>
0000

> <Smiles>
CNC(C)C(=O)NC(C(=O)N1Cc2cc([101O:1][101CH2:1]COCCCOCCCNC(=O)C[100NH:0][100C:0](=O)N3CCCC(n4nc(-c5ccc(Oc6ccc(F)cc6F)cc5)c(C(N)=O)c4N)C3)ccc2CC1C(=O)NC1CCCc2ccccc21)C(C)(C)C

> <Shape>
0.235

> <Color>
0.086

> <Negative vol penalty>
0.000

$$$$

  -OEChem-04042320113D

 91 99  0     1  0  0  0  0  0999 V2000
  -31.5778  -31.8507   25.4603 C   0  0  0  0  0  0  0  0  0  0  0  0
  -31.1008  -30.5507   25.3254 C   0  0  0  0  0  0  0  0  0  0  0  0
  -30.3861  -19.7305   18.8490 C   0  0  0  0  0  0  0  0  0  0  0  0
  -29.0486  -19.9326   20.8509 C   0  0  0  0  0  0  0  0  0  0  0  0
  -30.7986  -32.9255   25.0343 C   0  0  0  0  0  0  0  0  0  0  0  0
  -29.8439  -30.3250   24.7654 C   0  0  0  0  0  0  0  0  0  0  0  0
  -26.2908  -25.5700   20.7552 C   0  0  0  0  0  0  0  0  0  0  0  0
  -24.7779  -13.6582   23.7762 C   0  0  0  0  0  0  0  0  0  0  0  0
  -24.0442  -11.9974   22.1824 C   0  0  0  0  0  0  0  0  0  0  0  0
  -30.0340  -21.0295   18.4827 C   0  0  0  0  0  0  0  0  0  0  0  0
  -28.6966  -21.2316   20.4845 C   0  0  0  0  0  0  0  0  0  0  0  0
  -25.1147  -24.8214   20.7610 C   0  0  0  0  0  0  0  0  0  0  0  0
  -23.5614  -13.5493   24.4499 C   0  0  0  0  0  0  0  0  0  0  0  0
  -22.8276  -11.8884   22.8560 C   0  0  0  0  0  0  0  0  0  0  0  0
  -30.9367  -24.1818   19.3083 C   0  0  0  0  0  0  0  0  0  0  0  0
  -31.9499  -25.0227   18.8482 C   0  0  0  0  0  0  0  0  0  0  0  0
  -23.8901  -26.7505   19.9877 C   0  0  0  0  0  0  0  0  0  0  0  0
  -30.7925  -25.2647   16.7413 C   0  0  0  0  0  0  0  0  0  0  0  0
  -29.8934  -19.1820   20.0331 C   0  0  0  0  0  0  0  0  0  0  0  0
  -31.3611  -17.4457   21.1901 C   0  0  0  0  0  0  0  0  0  0  0  0
  -29.5356  -32.7123   24.4599 C   0  0  0  0  0  0  0  0  0  0  0  0
  -26.2735  -26.9198   20.3754 C   0  0  0  0  0  0  0  0  0  0  0  0
  -29.0465  -31.3982   24.3326 C   0  0  0  0  0  0  0  0  0  0  0  0
  -25.0678  -27.5134   19.9755 C   0  0  0  0  0  0  0  0  0  0  0  0
  -25.0193  -12.8823   22.6424 C   0  0  0  0  0  0  0  0  0  0  0  0
  -29.1893  -21.7801   19.3004 C   0  0  0  0  0  0  0  0  0  0  0  0
  -22.5863  -12.6644   23.9898 C   0  0  0  0  0  0  0  0  0  0  0  0
  -23.9136  -25.4123   20.3799 C   0  0  0  0  0  0  0  0  0  0  0  0
  -29.8513  -23.8822   18.4848 C   0  0  0  0  0  0  0  0  0  0  0  0
  -31.8779  -25.5642   17.5648 C   0  0  0  0  0  0  0  0  0  0  0  0
  -29.7792  -24.4237   17.2014 C   0  0  0  0  0  0  0  0  0  0  0  0
  -30.2562  -17.8400   20.4119 C   0  0  0  0  0  0  0  0  0  0  0  0
  -31.2599  -16.0778   21.2616 C   0  0  0  0  0  0  0  0  0  0  0  0
  -32.3870  -18.2444   21.7944 C   0  0  0  0  0  0  0  0  0  0  0  0
  -26.9628  -29.6656   21.8207 C   0  0  0  0  0  0  0  0  0  0  0  0
  -26.4553  -30.8998   18.8641 C   0  0  0  0  0  0  0  0  0  0  0  0
  -24.9687  -30.5833   15.8086 C   0  0  0  0  0  0  0  0  0  0  0  0
  -26.6547  -12.2962   20.8181 C   0  0  0  0  0  0  0  0  0  0  0  0
  -28.7098  -33.9085   24.0576 C   0  0  0  0  0  0  0  0  0  0  0  0
  -27.5553  -27.7063   20.3490 C   0  0  0  0  0  0  0  0  0  0  0  0
  -24.9991  -28.9535   19.5398 C   0  0  0  0  0  0  0  0  0  0  0  0
  -27.5468  -33.5622   23.1314 C   0  0  0  0  0  0  0  0  0  0  0  0
  -29.5972  -12.3126   18.8135 C   0  0  0  0  0  0  0  0  0  0  0  0
  -26.7904  -32.3459   23.6562 C   0  0  0  0  0  0  0  0  0  0  0  0
  -30.2039  -13.6938   19.0714 C   0  0  0  0  0  0  0  0  0  0  0  0
  -28.0708  -12.3615   18.7771 C   0  0  0  0  0  0  0  0  0  0  0  0
  -28.0484  -14.3692   20.2047 C   0  0  0  0  0  0  0  0  0  0  0  0
  -27.6986  -31.1113   23.7074 C   0  0  1  0  0  0  0  0  0  0  0  0
  -27.3337  -29.2132   20.4368 C   0  0  1  0  0  0  0  0  0  0  0  0
  -29.5818  -14.3593   20.3146 C   0  0  2  0  0  0  0  0  0  0  0  0
  -24.7063  -31.7701   13.6131 C   0  0  0  0  0  0  0  0  0  0  0  0
  -24.4700  -32.8293   20.1471 C   0  0  0  0  0  0  0  0  0  0  0  0
  -23.5665  -33.3093   17.8620 C   0  0  0  0  0  0  0  0  0  0  0  0
  -25.9405  -33.8528   18.4022 C   0  0  0  0  0  0  0  0  0  0  0  0
  -26.2417  -28.3622   14.3237 C   0  0  0  0  0  0  0  0  0  0  0  0
  -21.2111  -23.4083   21.7236 C   0  0  0  0  0  0  0  0  0  0  0  0
  -21.0632  -22.3000   22.7602 C   0  0  0  0  0  0  0  0  0  0  0  0
  -18.1990  -19.6942   25.5702 C   0  0  0  0  0  0  0  0  0  0  0  0
  -18.7618  -18.4068   24.9783 C   0  0  0  0  0  0  0  0  0  0  0  0
  -19.4026  -13.6897   25.3519 C   0  0  0  0  0  0  0  0  0  0  0  0
  -22.6685  -23.6283   21.3405 C   0  0  0  0  0  0  0  0  0  1  0  0
  -19.6113  -22.1086   23.1753 C   0  0  0  0  0  0  0  0  0  0  0  0
  -18.2042  -20.8288   24.5555 C   0  0  0  0  0  0  0  0  0  0  0  0
  -18.7170  -17.2614   25.9796 C   0  0  0  0  0  0  0  0  0  0  0  0
  -20.9218  -13.7198   25.3207 C   0  0  0  0  0  0  0  0  0  0  0  0
  -18.8224  -14.9145   26.0415 C   0  0  0  0  0  0  0  0  0  0  0  0
  -25.2555  -31.4354   18.1207 C   0  0  1  0  0  0  0  0  0  0  0  0
  -25.5131  -30.7501   14.4014 C   0  0  2  0  0  0  0  0  0  0  0  0
  -24.8088  -32.8301   18.6430 C   0  0  0  0  0  0  0  0  0  0  0  0
  -29.5083  -16.8062   20.0171 N   0  0  0  0  0  0  0  0  0  0  0  0
  -30.1443  -15.7487   20.5493 N   0  0  0  0  0  0  0  0  0  0  0  0
  -26.2781  -29.6825   19.5369 N   0  0  0  0  0  0  0  0  0  0  0  0
  -27.5523  -13.0010   19.9884 N   0  0  0  0  0  0  0  0  0  0  0  0
  -32.0174  -15.1364   21.8636 N   0  0  0  0  0  0  0  0  0  0  0  0
  -32.3401  -19.6345   21.6218 N   0  0  0  0  0  0  0  0  0  0  0  0
  -26.2551  -12.9929   21.9580 N   0  0  0  0  0  0  0  0  0  0  0  0
  -27.8633  -30.5497   22.3838 N   0  0  0  0  0  0  0  0  0  0  0  0
  -25.6086  -31.4124   16.7054 N   0  0  0  0  0  0  0  0  0  0  0  0
  -25.4696  -29.4513   13.6719 N   0  3  0  0  0  0  0  0  0  0  0  0
  -33.3269  -17.7390   22.4537 O   0  0  0  0  0  0  0  0  0  0  0  0
  -25.9350  -29.2450   22.3388 O   0  0  0  0  0  0  0  0  0  0  0  0
  -27.5128  -31.5345   18.8426 O   0  0  0  0  0  0  0  0  0  0  0  0
  -24.0634  -29.7989   16.0840 O   0  0  0  0  0  0  0  0  0  0  0  0
  -26.2902  -11.1480   20.5521 O   0  0  0  0  0  0  0  0  0  0  0  0
  -28.8457  -23.0478   18.9433 O   0  0  0  0  0  0  0  0  0  0  0  0
  -21.3907  -12.5573   24.6518 O   0  0  0  0  0  0  0  0  0  0  0  0
  -22.7641  -24.6841   20.3853 O   0  0  0  0  0  0  0  0  0  1  0  0
  -19.5403  -21.0563   24.1275 O   0  0  0  0  0  0  0  0  0  0  0  0
  -19.2396  -16.0923   25.3641 O   0  0  0  0  0  0  0  0  0  0  0  0
  -32.8502  -26.3730   17.1237 F   0  0  0  0  0  0  0  0  0  0  0  0
  -28.7384  -24.1405   16.4062 F   0  0  0  0  0  0  0  0  0  0  0  0
  1  2  1  0  0  0  0
  1  5  2  0  0  0  0
  2  6  2  0  0  0  0
  3 10  2  0  0  0  0
  3 19  1  0  0  0  0
  4 11  1  0  0  0  0
  4 19  2  0  0  0  0
  5 21  1  0  0  0  0
  6 23  1  0  0  0  0
  7 12  2  0  0  0  0
  7 22  1  0  0  0  0
  8 13  2  0  0  0  0
  8 25  1  0  0  0  0
  9 14  1  0  0  0  0
  9 25  2  0  0  0  0
 10 26  1  0  0  0  0
 11 26  2  0  0  0  0
 12 28  1  0  0  0  0
 13 27  1  0  0  0  0
 14 27  2  0  0  0  0
 15 16  2  0  0  0  0
 15 29  1  0  0  0  0
 16 30  1  0  0  0  0
 17 24  1  0  0  0  0
 17 28  2  0  0  0  0
 18 30  2  0  0  0  0
 18 31  1  0  0  0  0
 19 32  1  0  0  0  0
 20 32  1  0  0  0  0
 20 33  2  0  0  0  0
 20 34  1  0  0  0  0
 21 23  2  0  0  0  0
 21 39  1  0  0  0  0
 22 24  2  0  0  0  0
 22 40  1  0  0  0  0
 23 48  1  0  0  0  0
 24 41  1  0  0  0  0
 25 76  1  0  0  0  0
 26 85  1  0  0  0  0
 27 86  1  0  0  0  0
 28 87  1  0  0  0  0
 29 31  2  0  0  0  0
 29 85  1  0  0  0  0
 30 90  1  0  0  0  0
 31 91  1  0  0  0  0
 32 70  2  0  0  0  0
 33 71  1  0  0  0  0
 33 74  1  0  0  0  0
 34 75  1  0  0  0  0
 34 80  2  0  0  0  0
 35 49  1  0  0  0  0
 35 77  1  0  0  0  0
 35 81  2  0  0  0  0
 36 67  1  0  0  0  0
 36 72  1  0  0  0  0
 36 82  2  0  0  0  0
 37 68  1  0  0  0  0
 37 78  1  0  0  0  0
 37 83  2  0  0  0  0
 38 73  1  0  0  0  0
 38 76  1  0  0  0  0
 38 84  2  0  0  0  0
 39 42  1  0  0  0  0
 40 49  1  0  0  0  0
 41 72  1  0  0  0  0
 42 44  1  0  0  0  0
 43 45  1  0  0  0  0
 43 46  1  0  0  0  0
 44 48  1  0  0  0  0
 45 50  1  0  0  0  0
 46 73  1  0  0  0  0
 47 50  1  0  0  0  0
 47 73  1  0  0  0  0
 48 77  1  0  0  0  0
 49 72  1  0  0  0  0
 50 71  1  0  0  0  0
 51 68  1  0  0  0  0
 52 69  1  0  0  0  0
 53 69  1  0  0  0  0
 54 69  1  0  0  0  0
 55 79  1  0  0  0  0
 56 57  1  0  0  0  0
 56 61  1  0  0  0  0
 57 62  1  0  0  0  0
 58 59  1  0  0  0  0
 58 63  1  0  0  0  0
 59 64  1  0  0  0  0
 60 65  1  0  0  0  0
 60 66  1  0  0  0  0
 61 87  1  0  0  0  0
 62 88  1  0  0  0  0
 63 88  1  0  0  0  0
 64 89  1  0  0  0  0
 65 86  1  0  0  0  0
 66 89  1  0  0  0  0
 67 69  1  0  0  0  0
 67 78  1  0  0  0  0
 68 79  1  0  0  0  0
 70 71  1  0  0  0  0
M  CHG  1  79   1
M  ISO  4  38 100  61 101  76 100  87 101
M  END
> <Batch ID>
0000

> <Smiles>
CNC(C)C(=O)NC(C(=O)N1Cc2cc([101O:1][101CH2:1]CCCOCCCCOCCCOc3ccc([100NH:0][100C:0](=O)N4CCCC(n5nc(-c6ccc(Oc7ccc(F)cc7F)cc6)c(C(N)=O)c5N)C4)cc3)ccc2CC1C(=O)NC1CCCc2ccccc21)C(C)(C)C

> <Shape>
0.210

> <Color>
0.066

> <Negative vol penalty>
0.000

$$$$

  -OEChem-04042320113D

 85 93  0     1  0  0  0  0  0999 V2000
  -18.9584  -29.1793   23.0065 C   0  0  0  0  0  0  0  0  0  0  0  0
  -19.9175  -28.5022   23.7530 C   0  0  0  0  0  0  0  0  0  0  0  0
  -26.8336  -13.1287   25.2405 C   0  0  0  0  0  0  0  0  0  0  0  0
  -28.4299  -23.4150   21.7172 C   0  0  0  0  0  0  0  0  0  0  0  0
  -29.7512  -23.0516   19.7275 C   0  0  0  0  0  0  0  0  0  0  0  0
  -18.2507  -28.5082   22.0102 C   0  0  0  0  0  0  0  0  0  0  0  0
  -20.1686  -27.1533   23.5043 C   0  0  0  0  0  0  0  0  0  0  0  0
  -25.4875  -22.3557   23.5943 C   0  0  0  0  0  0  0  0  0  0  0  0
  -26.0954  -12.4520   24.2696 C   0  0  0  0  0  0  0  0  0  0  0  0
  -26.4928  -14.4351   25.5911 C   0  0  0  0  0  0  0  0  0  0  0  0
  -28.2180  -24.7395   21.3347 C   0  0  0  0  0  0  0  0  0  0  0  0
  -29.5393  -24.3762   19.3449 C   0  0  0  0  0  0  0  0  0  0  0  0
  -25.7954  -21.0986   24.1127 C   0  0  0  0  0  0  0  0  0  0  0  0
  -26.2388  -26.4207   19.1694 C   0  0  0  0  0  0  0  0  0  0  0  0
  -24.9433  -26.9268   19.2752 C   0  0  0  0  0  0  0  0  0  0  0  0
  -24.5677  -20.0624   22.3131 C   0  0  0  0  0  0  0  0  0  0  0  0
  -24.6756  -14.3881   23.9997 C   0  0  0  0  0  0  0  0  0  0  0  0
  -25.7307  -28.6224   20.8055 C   0  0  0  0  0  0  0  0  0  0  0  0
  -29.1965  -22.5710   20.9136 C   0  0  0  0  0  0  0  0  0  0  0  0
  -30.0392  -20.7474   22.4859 C   0  0  0  0  0  0  0  0  0  0  0  0
  -18.5000  -27.1529   21.7426 C   0  0  0  0  0  0  0  0  0  0  0  0
  -24.7068  -22.4760   22.4356 C   0  0  0  0  0  0  0  0  0  0  0  0
  -19.4625  -26.4631   22.5044 C   0  0  0  0  0  0  0  0  0  0  0  0
  -24.2534  -21.3221   21.7806 C   0  0  0  0  0  0  0  0  0  0  0  0
  -25.0164  -13.0817   23.6492 C   0  0  0  0  0  0  0  0  0  0  0  0
  -28.7727  -25.2201   20.1486 C   0  0  0  0  0  0  0  0  0  0  0  0
  -25.3331  -19.9518   23.4737 C   0  0  0  0  0  0  0  0  0  0  0  0
  -25.4138  -15.0647   24.9707 C   0  0  0  0  0  0  0  0  0  0  0  0
  -27.2802  -27.0155   19.8816 C   0  0  0  0  0  0  0  0  0  0  0  0
  -24.6892  -28.0276   20.0933 C   0  0  0  0  0  0  0  0  0  0  0  0
  -27.0262  -28.1164   20.6997 C   0  0  0  0  0  0  0  0  0  0  0  0
  -29.4162  -21.2028   21.3085 C   0  0  0  0  0  0  0  0  0  0  0  0
  -29.9995  -19.3780   22.3878 C   0  0  0  0  0  0  0  0  0  0  0  0
  -30.6033  -21.4954   23.5713 C   0  0  0  0  0  0  0  0  0  0  0  0
  -21.8883  -23.7785   21.7551 C   0  0  0  0  0  0  0  0  0  0  0  0
  -22.6993  -22.9965   18.7132 C   0  0  0  0  0  0  0  0  0  0  0  0
  -25.2023  -12.7979   20.3612 C   0  0  0  0  0  0  0  0  0  0  0  0
  -24.5282  -21.0161   16.6204 C   0  0  0  0  0  0  0  0  0  0  0  0
  -26.3347  -15.7446   19.5203 C   0  0  0  0  0  0  0  0  0  0  0  0
  -17.6764  -26.4577   20.6876 C   0  0  0  0  0  0  0  0  0  0  0  0
  -24.4059  -23.8386   21.8741 C   0  0  0  0  0  0  0  0  0  0  0  0
  -23.4289  -21.3966   20.5224 C   0  0  0  0  0  0  0  0  0  0  0  0
  -18.2669  -25.1251   20.2339 C   0  0  0  0  0  0  0  0  0  0  0  0
  -29.9327  -15.8563   19.1474 C   0  0  0  0  0  0  0  0  0  0  0  0
  -18.6916  -24.2915   21.4387 C   0  0  0  0  0  0  0  0  0  0  0  0
  -30.2621  -17.2101   19.7788 C   0  0  0  0  0  0  0  0  0  0  0  0
  -28.6226  -15.9141   18.3673 C   0  0  0  0  0  0  0  0  0  0  0  0
  -27.7802  -17.7393   19.7932 C   0  0  0  0  0  0  0  0  0  0  0  0
  -19.7809  -25.0061   22.2476 C   0  0  1  0  0  0  0  0  0  0  0  0
  -23.1717  -23.8561   20.9775 C   0  0  1  0  0  0  0  0  0  0  0  0
  -29.0822  -17.7404   20.6147 C   0  0  2  0  0  0  0  0  0  0  0  0
  -24.9517  -20.5868   14.1844 C   0  0  0  0  0  0  0  0  0  0  0  0
  -20.0249  -21.5422   18.5070 C   0  0  0  0  0  0  0  0  0  0  0  0
  -20.8986  -20.3693   16.4750 C   0  0  0  0  0  0  0  0  0  0  0  0
  -20.6594  -22.8523   16.4734 C   0  0  0  0  0  0  0  0  0  0  0  0
  -27.3959  -21.7004   16.8793 C   0  0  0  0  0  0  0  0  0  0  0  0
  -24.2276  -12.3582   22.6107 C   0  0  0  0  0  0  0  0  0  0  0  0
  -24.9983  -13.6865   19.1527 C   0  0  0  0  0  0  0  0  0  0  0  0
  -25.8079  -18.6268   25.3907 C   0  0  0  0  0  0  0  0  0  1  0  0
  -26.1377  -17.1913   25.7514 C   0  0  0  0  0  0  0  0  0  0  0  0
  -22.5052  -21.7857   17.8326 C   0  0  1  0  0  0  0  0  0  0  0  0
  -25.3979  -21.3501   15.4218 C   0  0  2  0  0  0  0  0  0  0  0  0
  -21.0359  -21.6357   17.3468 C   0  0  0  0  0  0  0  0  0  0  0  0
  -29.0106  -20.2038   20.5202 N   0  0  0  0  0  0  0  0  0  0  0  0
  -29.3797  -19.1070   21.2035 N   0  0  0  0  0  0  0  0  0  0  0  0
  -23.1559  -22.7518   20.0160 N   0  0  0  0  0  0  0  0  0  0  0  0
  -27.5366  -16.4091   19.2251 N   0  0  0  0  0  0  0  0  0  0  0  0
  -30.4349  -18.3913   23.1998 N   0  0  0  0  0  0  0  0  0  0  0  0
  -29.7756  -21.8343   24.6504 N   0  0  0  0  0  0  0  0  0  0  0  0
  -21.0646  -24.8760   21.5921 N   0  0  0  0  0  0  0  0  0  0  0  0
  -24.2440  -13.0360   21.3392 N   0  0  0  0  0  0  0  0  0  0  0  0
  -23.4817  -21.9038   16.7552 N   0  0  0  0  0  0  0  0  0  0  0  0
  -26.1790  -14.4930   18.9373 N   0  0  0  0  0  0  0  0  0  0  0  0
  -26.8200  -21.0027   15.7009 N   0  3  0  0  0  0  0  0  0  0  0  0
  -31.8014  -21.8667   23.5763 O   0  0  0  0  0  0  0  0  0  0  0  0
  -21.6615  -22.7951   22.4501 O   0  0  0  0  0  0  0  0  0  0  0  0
  -22.4616  -24.1187   18.2593 O   0  0  0  0  0  0  0  0  0  0  0  0
  -26.1297  -11.9987   20.4612 O   0  0  0  0  0  0  0  0  0  0  0  0
  -24.7524  -20.0610   17.3606 O   0  0  0  0  0  0  0  0  0  0  0  0
  -25.4661  -16.2288   20.2539 O   0  0  0  0  0  0  0  0  0  0  0  0
  -28.5660  -26.5124   19.7749 O   0  0  0  0  0  0  0  0  0  0  0  0
  -25.6316  -18.7236   23.9779 O   0  0  0  0  0  0  0  0  0  1  0  0
  -25.0786  -16.3477   25.3156 O   0  0  0  0  0  0  0  0  0  0  0  0
  -23.4454  -28.5144   20.1937 F   0  0  0  0  0  0  0  0  0  0  0  0
  -28.0229  -28.6927   21.3855 F   0  0  0  0  0  0  0  0  0  0  0  0
  1  2  1  0  0  0  0
  1  6  2  0  0  0  0
  2  7  2  0  0  0  0
  3  9  1  0  0  0  0
  3 10  2  0  0  0  0
  4 11  2  0  0  0  0
  4 19  1  0  0  0  0
  5 12  1  0  0  0  0
  5 19  2  0  0  0  0
  6 21  1  0  0  0  0
  7 23  1  0  0  0  0
  8 13  2  0  0  0  0
  8 22  1  0  0  0  0
  9 25  2  0  0  0  0
 10 28  1  0  0  0  0
 11 26  1  0  0  0  0
 12 26  2  0  0  0  0
 13 27  1  0  0  0  0
 14 15  2  0  0  0  0
 14 29  1  0  0  0  0
 15 30  1  0  0  0  0
 16 24  1  0  0  0  0
 16 27  2  0  0  0  0
 17 25  1  0  0  0  0
 17 28  2  0  0  0  0
 18 30  2  0  0  0  0
 18 31  1  0  0  0  0
 19 32  1  0  0  0  0
 20 32  1  0  0  0  0
 20 33  2  0  0  0  0
 20 34  1  0  0  0  0
 21 23  2  0  0  0  0
 21 40  1  0  0  0  0
 22 24  2  0  0  0  0
 22 41  1  0  0  0  0
 23 49  1  0  0  0  0
 24 42  1  0  0  0  0
 25 57  1  0  0  0  0
 26 81  1  0  0  0  0
 27 82  1  0  0  0  0
 28 83  1  0  0  0  0
 29 31  2  0  0  0  0
 29 81  1  0  0  0  0
 30 84  1  0  0  0  0
 31 85  1  0  0  0  0
 32 64  2  0  0  0  0
 33 65  1  0  0  0  0
 33 68  1  0  0  0  0
 34 69  1  0  0  0  0
 34 75  2  0  0  0  0
 35 50  1  0  0  0  0
 35 70  1  0  0  0  0
 35 76  2  0  0  0  0
 36 61  1  0  0  0  0
 36 66  1  0  0  0  0
 36 77  2  0  0  0  0
 37 58  1  0  0  0  0
 37 71  1  0  0  0  0
 37 78  2  0  0  0  0
 38 62  1  0  0  0  0
 38 72  1  0  0  0  0
 38 79  2  0  0  0  0
 39 67  1  0  0  0  0
 39 73  1  0  0  0  0
 39 80  2  0  0  0  0
 40 43  1  0  0  0  0
 41 50  1  0  0  0  0
 42 66  1  0  0  0  0
 43 45  1  0  0  0  0
 44 46  1  0  0  0  0
 44 47  1  0  0  0  0
 45 49  1  0  0  0  0
 46 51  1  0  0  0  0
 47 67  1  0  0  0  0
 48 51  1  0  0  0  0
 48 67  1  0  0  0  0
 49 70  1  0  0  0  0
 50 66  1  0  0  0  0
 51 65  1  0  0  0  0
 52 62  1  0  0  0  0
 53 63  1  0  0  0  0
 54 63  1  0  0  0  0
 55 63  1  0  0  0  0
 56 74  1  0  0  0  0
 57 71  1  0  0  0  0
 58 73  1  0  0  0  0
 59 60  1  0  0  0  0
 59 82  1  0  0  0  0
 60 83  1  0  0  0  0
 61 63  1  0  0  0  0
 61 72  1  0  0  0  0
 62 74  1  0  0  0  0
 64 65  1  0  0  0  0
M  CHG  1  74   1
M  ISO  4  39 100  59 101  73 100  82 101
M  END
> <Batch ID>
0000

> <Smiles>
CNC(C)C(=O)NC(C(=O)N1Cc2cc([101O:1][101CH2:1]COc3cccc(CNC(=O)C[100NH:0][100C:0](=O)N4CCCC(n5nc(-c6ccc(Oc7ccc(F)cc7F)cc6)c(C(N)=O)c5N)C4)c3)ccc2CC1C(=O)NC1CCCc2ccccc21)C(C)(C)C

> <Shape>
0.182

> <Color>
0.080

> <Negative vol penalty>
0.000

$$$$

  -OEChem-04042320113D

 83 91  0     1  0  0  0  0  0999 V2000
  -31.1898  -31.9877   24.7464 C   0  0  0  0  0  0  0  0  0  0  0  0
  -30.6563  -30.8940   24.0721 C   0  0  0  0  0  0  0  0  0  0  0  0
  -26.3831  -12.4900   21.6737 C   0  0  0  0  0  0  0  0  0  0  0  0
  -25.8214  -13.5379   19.5705 C   0  0  0  0  0  0  0  0  0  0  0  0
  -30.3658  -32.7871   25.5375 C   0  0  0  0  0  0  0  0  0  0  0  0
  -29.2986  -30.5985   24.1894 C   0  0  0  0  0  0  0  0  0  0  0  0
  -27.1593  -29.4917   19.7349 C   0  0  0  0  0  0  0  0  0  0  0  0
  -25.1691  -11.8034   21.6559 C   0  0  0  0  0  0  0  0  0  0  0  0
  -24.6073  -12.8513   19.5527 C   0  0  0  0  0  0  0  0  0  0  0  0
  -27.3850  -28.2160   19.2196 C   0  0  0  0  0  0  0  0  0  0  0  0
  -23.8701   -9.0794   20.1310 C   0  0  0  0  0  0  0  0  0  0  0  0
  -23.8883   -7.7220   20.4513 C   0  0  0  0  0  0  0  0  0  0  0  0
  -27.0453  -23.5329   17.8240 C   0  0  0  0  0  0  0  0  0  0  0  0
  -27.8376  -21.2559   17.9801 C   0  0  0  0  0  0  0  0  0  0  0  0
  -28.0529  -22.7422   19.8726 C   0  0  0  0  0  0  0  0  0  0  0  0
  -25.2174  -27.5177   20.0152 C   0  0  0  0  0  0  0  0  0  0  0  0
  -22.3948   -8.1391   22.3040 C   0  0  0  0  0  0  0  0  0  0  0  0
  -26.7092  -13.3573   20.6311 C   0  0  0  0  0  0  0  0  0  0  0  0
  -27.2376  -22.2785   17.2452 C   0  0  0  0  0  0  0  0  0  0  0  0
  -27.4530  -23.7648   19.1377 C   0  0  0  0  0  0  0  0  0  0  0  0
  -29.1901  -13.6395   20.1080 C   0  0  0  0  0  0  0  0  0  0  0  0
  -28.9954  -32.5070   25.6569 C   0  0  0  0  0  0  0  0  0  0  0  0
  -25.9634  -29.7874   20.4049 C   0  0  0  0  0  0  0  0  0  0  0  0
  -28.4558  -31.3942   24.9840 C   0  0  0  0  0  0  0  0  0  0  0  0
  -24.9779  -28.7986   20.5358 C   0  0  0  0  0  0  0  0  0  0  0  0
  -28.2453  -21.4878   19.2938 C   0  0  0  0  0  0  0  0  0  0  0  0
  -24.2812  -11.9840   20.5954 C   0  0  0  0  0  0  0  0  0  0  0  0
  -26.4152  -27.2280   19.3622 C   0  0  0  0  0  0  0  0  0  0  0  0
  -23.1143   -9.9668   20.8973 C   0  0  0  0  0  0  0  0  0  0  0  0
  -23.1507   -7.2518   21.5378 C   0  0  0  0  0  0  0  0  0  0  0  0
  -22.3766   -9.4965   21.9837 C   0  0  0  0  0  0  0  0  0  0  0  0
  -27.9629  -14.0673   20.6492 C   0  0  0  0  0  0  0  0  0  0  0  0
  -30.0628  -14.6635   20.3842 C   0  0  0  0  0  0  0  0  0  0  0  0
  -26.8124  -22.0371   15.8755 C   0  0  0  0  0  0  0  0  0  0  0  0
  -29.5123  -12.4250   19.4174 C   0  0  0  0  0  0  0  0  0  0  0  0
  -27.2482  -25.1009   19.7539 C   0  0  0  0  0  0  0  0  0  1  0  0
  -25.2122  -30.7035   23.3545 C   0  0  0  0  0  0  0  0  0  0  0  0
  -22.2314  -30.9527   22.0995 C   0  0  0  0  0  0  0  0  0  0  0  0
  -20.0108  -29.9888   19.6940 C   0  0  0  0  0  0  0  0  0  0  0  0
  -29.3175  -20.5123   21.3541 C   0  0  0  0  0  0  0  0  0  0  0  0
  -28.1537  -33.3720   26.5614 C   0  0  0  0  0  0  0  0  0  0  0  0
  -25.7242  -31.1758   20.9315 C   0  0  0  0  0  0  0  0  0  0  0  0
  -23.6687  -29.0707   21.2289 C   0  0  0  0  0  0  0  0  0  0  0  0
  -26.6528  -33.2113   26.3339 C   0  0  0  0  0  0  0  0  0  0  0  0
  -30.8429  -18.1661   23.5555 C   0  0  0  0  0  0  0  0  0  0  0  0
  -26.2809  -31.7344   26.2488 C   0  0  0  0  0  0  0  0  0  0  0  0
  -30.3941  -16.8097   23.0071 C   0  0  0  0  0  0  0  0  0  0  0  0
  -29.7431  -19.2193   23.4331 C   0  0  0  0  0  0  0  0  0  0  0  0
  -28.7279  -18.0155   21.5385 C   0  0  0  0  0  0  0  0  0  0  0  0
  -26.9830  -31.0559   25.0664 C   0  0  1  0  0  0  0  0  0  0  0  0
  -24.6839  -31.2209   22.0465 C   0  0  1  0  0  0  0  0  0  0  0  0
  -29.8246  -16.9389   21.5807 C   0  0  2  0  0  0  0  0  0  0  0  0
  -17.6390  -30.3340   18.9505 C   0  0  0  0  0  0  0  0  0  0  0  0
  -21.2612  -29.1601   24.3700 C   0  0  0  0  0  0  0  0  0  0  0  0
  -19.1567  -28.7715   23.0708 C   0  0  0  0  0  0  0  0  0  0  0  0
  -19.7441  -31.0737   23.8307 C   0  0  0  0  0  0  0  0  0  0  0  0
  -25.2031  -22.6777   14.0632 C   0  0  0  0  0  0  0  0  0  0  0  0
  -20.8668  -31.0742   17.0771 C   0  0  0  0  0  0  0  0  0  0  0  0
  -21.0554  -30.0189   21.9439 C   0  0  1  0  0  0  0  0  0  0  0  0
  -19.0817  -30.7912   18.8011 C   0  0  2  0  0  0  0  0  0  0  0  0
  -20.3297  -29.7500   23.2924 C   0  0  0  0  0  0  0  0  0  0  0  0
  -28.0447  -15.2694   21.2257 N   0  0  0  0  0  0  0  0  0  0  0  0
  -29.3338  -15.6056   21.0484 N   0  0  0  0  0  0  0  0  0  0  0  0
  -23.4845  -30.4419   21.7323 N   0  0  0  0  0  0  0  0  0  0  0  0
  -29.2551  -19.2888   22.0540 N   0  0  0  0  0  0  0  0  0  0  0  0
  -31.3749  -14.8409   20.1213 N   0  0  0  0  0  0  0  0  0  0  0  0
  -28.4967  -11.4798   19.2186 N   0  0  0  0  0  0  0  0  0  0  0  0
  -28.8552  -20.4491   20.0400 N   0  0  0  0  0  0  0  0  0  0  0  0
  -25.7537  -22.8149   15.3925 N   0  0  0  0  0  0  0  0  0  0  0  0
  -26.3169  -31.3873   23.8251 N   0  0  0  0  0  0  0  0  0  0  0  0
  -20.2040  -30.6030   20.9133 N   0  0  0  0  0  0  0  0  0  0  0  0
  -19.4773  -30.6393   17.3723 N   0  3  0  0  0  0  0  0  0  0  0  0
  -27.3646  -21.1596   15.1884 O   0  0  0  0  0  0  0  0  0  0  0  0
  -30.6704  -12.1779   19.0037 O   0  0  0  0  0  0  0  0  0  0  0  0
  -27.5825  -25.3680   20.8985 O   0  0  0  0  0  0  0  0  0  0  0  0
  -24.6578  -29.7550   23.8973 O   0  0  0  0  0  0  0  0  0  0  0  0
  -22.0441  -32.0955   22.5242 O   0  0  0  0  0  0  0  0  0  0  0  0
  -20.5118  -28.9217   19.3462 O   0  0  0  0  0  0  0  0  0  0  0  0
  -29.7746  -21.5341   21.8729 O   0  0  0  0  0  0  0  0  0  0  0  0
  -23.0966  -11.3140   20.5776 O   0  0  0  0  0  0  0  0  0  0  0  0
  -26.6333  -25.9818   18.8608 O   0  0  0  0  0  0  0  0  0  1  0  0
  -23.1670   -5.9480   21.8442 F   0  0  0  0  0  0  0  0  0  0  0  0
  -21.6477  -10.3440   22.7229 F   0  0  0  0  0  0  0  0  0  0  0  0
  1  2  1  0  0  0  0
  1  5  2  0  0  0  0
  2  6  2  0  0  0  0
  3  8  2  0  0  0  0
  3 18  1  0  0  0  0
  4  9  1  0  0  0  0
  4 18  2  0  0  0  0
  5 22  1  0  0  0  0
  6 24  1  0  0  0  0
  7 10  2  0  0  0  0
  7 23  1  0  0  0  0
  8 27  1  0  0  0  0
  9 27  2  0  0  0  0
 10 28  1  0  0  0  0
 11 12  2  0  0  0  0
 11 29  1  0  0  0  0
 12 30  1  0  0  0  0
 13 19  2  0  0  0  0
 13 20  1  0  0  0  0
 14 19  1  0  0  0  0
 14 26  2  0  0  0  0
 15 20  2  0  0  0  0
 15 26  1  0  0  0  0
 16 25  1  0  0  0  0
 16 28  2  0  0  0  0
 17 30  2  0  0  0  0
 17 31  1  0  0  0  0
 18 32  1  0  0  0  0
 19 34  1  0  0  0  0
 20 36  1  0  0  0  0
 21 32  1  0  0  0  0
 21 33  2  0  0  0  0
 21 35  1  0  0  0  0
 22 24  2  0  0  0  0
 22 41  1  0  0  0  0
 23 25  2  0  0  0  0
 23 42  1  0  0  0  0
 24 50  1  0  0  0  0
 25 43  1  0  0  0  0
 26 68  1  0  0  0  0
 27 80  1  0  0  0  0
 28 81  1  0  0  0  0
 29 31  2  0  0  0  0
 29 80  1  0  0  0  0
 30 82  1  0  0  0  0
 31 83  1  0  0  0  0
 32 62  2  0  0  0  0
 33 63  1  0  0  0  0
 33 66  1  0  0  0  0
 34 69  1  0  0  0  0
 34 73  2  0  0  0  0
 35 67  1  0  0  0  0
 35 74  2  0  0  0  0
 36 75  2  0  0  0  0
 36 81  1  0  0  0  0
 37 51  1  0  0  0  0
 37 70  1  0  0  0  0
 37 76  2  0  0  0  0
 38 59  1  0  0  0  0
 38 64  1  0  0  0  0
 38 77  2  0  0  0  0
 39 60  1  0  0  0  0
 39 71  1  0  0  0  0
 39 78  2  0  0  0  0
 40 65  1  0  0  0  0
 40 68  1  0  0  0  0
 40 79  2  0  0  0  0
 41 44  1  0  0  0  0
 42 51  1  0  0  0  0
 43 64  1  0  0  0  0
 44 46  1  0  0  0  0
 45 47  1  0  0  0  0
 45 48  1  0  0  0  0
 46 50  1  0  0  0  0
 47 52  1  0  0  0  0
 48 65  1  0  0  0  0
 49 52  1  0  0  0  0
 49 65  1  0  0  0  0
 50 70  1  0  0  0  0
 51 64  1  0  0  0  0
 52 63  1  0  0  0  0
 53 60  1  0  0  0  0
 54 61  1  0  0  0  0
 55 61  1  0  0  0  0
 56 61  1  0  0  0  0
 57 69  1  0  0  0  0
 58 72  1  0  0  0  0
 59 61  1  0  0  0  0
 59 71  1  0  0  0  0
 60 72  1  0  0  0  0
 62 63  1  0  0  0  0
M  CHG  1  72   1
M  ISO  4  36 101  40 100  68 100  81 101
M  END
> <Batch ID>
0000

> <Smiles>
CNC(=O)c1cc([100NH:0][100C:0](=O)N2CCCC(n3nc(-c4ccc(Oc5ccc(F)cc5F)cc4)c(C(N)=O)c3N)C2)cc([101C:1](=O)[101O:1]c2ccc3c(c2)CN(C(=O)C(NC(=O)C(C)NC)C(C)(C)C)C(C(=O)NC2CCCc4ccccc42)C3)c1

> <Shape>
0.315

> <Color>
0.086

> <Negative vol penalty>
0.000

$$$$

  -OEChem-04042320113D

 79 86  0     1  0  0  0  0  0999 V2000
  -24.1488  -21.5364   17.0982 C   0  0  0  0  0  0  0  0  0  0  0  0
  -25.2246  -20.6811   16.8822 C   0  0  0  0  0  0  0  0  0  0  0  0
  -27.9659  -23.3978   17.2597 C   0  0  0  0  0  0  0  0  0  0  0  0
  -29.4539  -24.6259   18.7138 C   0  0  0  0  0  0  0  0  0  0  0  0
  -23.4472  -21.4819   18.3019 C   0  0  0  0  0  0  0  0  0  0  0  0
  -25.6000  -19.7715   17.8701 C   0  0  0  0  0  0  0  0  0  0  0  0
  -28.3657  -13.2105   18.6580 C   0  0  0  0  0  0  0  0  0  0  0  0
  -27.1215  -24.5056   17.1879 C   0  0  0  0  0  0  0  0  0  0  0  0
  -28.6095  -25.7339   18.6420 C   0  0  0  0  0  0  0  0  0  0  0  0
  -29.3989  -12.5497   19.3211 C   0  0  0  0  0  0  0  0  0  0  0  0
  -25.6958  -26.7397   20.0310 C   0  0  0  0  0  0  0  0  0  0  0  0
  -25.3996  -27.4069   21.2196 C   0  0  0  0  0  0  0  0  0  0  0  0
  -28.0640  -12.4905   21.3295 C   0  0  0  0  0  0  0  0  0  0  0  0
  -26.3659  -29.4320   20.3237 C   0  0  0  0  0  0  0  0  0  0  0  0
  -29.1321  -23.4578   18.0227 C   0  0  0  0  0  0  0  0  0  0  0  0
  -31.0851  -22.0112   17.2476 C   0  0  0  0  0  0  0  0  0  0  0  0
  -23.8082  -20.5645   19.3012 C   0  0  0  0  0  0  0  0  0  0  0  0
  -27.1762  -13.5265   19.3300 C   0  0  0  0  0  0  0  0  0  0  0  0
  -24.9034  -19.7056   19.0888 C   0  0  0  0  0  0  0  0  0  0  0  0
  -27.0163  -13.1531   20.6720 C   0  0  0  0  0  0  0  0  0  0  0  0
  -27.4433  -25.6737   17.8791 C   0  0  0  0  0  0  0  0  0  0  0  0
  -29.2493  -12.1921   20.6578 C   0  0  0  0  0  0  0  0  0  0  0  0
  -26.3271  -27.4186   18.9888 C   0  0  0  0  0  0  0  0  0  0  0  0
  -25.7346  -28.7530   21.3659 C   0  0  0  0  0  0  0  0  0  0  0  0
  -26.6621  -28.7648   19.1351 C   0  0  0  0  0  0  0  0  0  0  0  0
  -30.0044  -22.3135   18.0977 C   0  0  0  0  0  0  0  0  0  0  0  0
  -31.5855  -20.8289   17.7355 C   0  0  0  0  0  0  0  0  0  0  0  0
  -31.5913  -22.7346   16.1179 C   0  0  0  0  0  0  0  0  0  0  0  0
  -25.6635  -16.2239   20.0648 C   0  0  0  0  0  0  0  0  0  0  0  0
  -23.3609  -14.1909   21.1077 C   0  0  0  0  0  0  0  0  0  0  0  0
  -22.5428  -11.0812   22.2511 C   0  0  0  0  0  0  0  0  0  0  0  0
  -31.4488  -18.4269   23.1270 C   0  0  0  0  0  0  0  0  0  0  0  0
  -23.0495  -20.5751   20.6047 C   0  0  0  0  0  0  0  0  0  0  0  0
  -26.0608  -14.2159   18.5930 C   0  0  0  0  0  0  0  0  0  0  0  0
  -25.7510  -13.4512   21.4328 C   0  0  0  0  0  0  0  0  0  0  0  0
  -23.2764  -19.3255   21.4516 C   0  0  0  0  0  0  0  0  0  0  0  0
  -30.2441  -16.8806   20.0848 C   0  0  0  0  0  0  0  0  0  0  0  0
  -24.7628  -18.9900   21.5206 C   0  0  0  0  0  0  0  0  0  0  0  0
  -30.1510  -18.0857   19.1472 C   0  0  0  0  0  0  0  0  0  0  0  0
  -29.8381  -17.2542   21.5074 C   0  0  0  0  0  0  0  0  0  0  0  0
  -30.5135  -19.5977   21.1529 C   0  0  0  0  0  0  0  0  0  0  0  0
  -25.3256  -18.6882   20.1264 C   0  0  1  0  0  0  0  0  0  0  0  0
  -25.0931  -14.9450   19.5201 C   0  0  1  0  0  0  0  0  0  0  0  0
  -30.9328  -19.2904   19.7038 C   0  0  2  0  0  0  0  0  0  0  0  0
  -20.5878   -9.7300   23.0570 C   0  0  0  0  0  0  0  0  0  0  0  0
  -23.4523  -15.6580   23.7815 C   0  0  0  0  0  0  0  0  0  0  0  0
  -22.2294  -13.7271   24.8035 C   0  0  0  0  0  0  0  0  0  0  0  0
  -21.1535  -15.0660   22.9944 C   0  0  0  0  0  0  0  0  0  0  0  0
  -22.8469   -9.1181   20.0574 C   0  0  0  0  0  0  0  0  0  0  0  0
  -32.3027  -17.1272   25.0605 C   0  0  0  0  0  0  0  0  0  0  0  0
  -32.1882  -15.7446   25.6773 C   0  0  0  0  0  0  0  0  0  0  0  0
  -31.5886  -11.8245   20.8775 C   0  0  0  0  0  0  0  0  0  1  0  0
  -32.5314  -11.6696   22.0552 C   0  0  0  0  0  0  0  0  0  0  0  0
  -32.5348  -13.4559   25.2720 C   0  0  0  0  0  0  0  0  0  0  0  0
  -32.9891  -12.4631   24.2193 C   0  0  0  0  0  0  0  0  0  0  0  0
  -23.0548  -13.5030   22.4161 C   0  0  1  0  0  0  0  0  0  0  0  0
  -21.4344  -10.1222   21.8561 C   0  0  2  0  0  0  0  0  0  0  0  0
  -22.4972  -14.4845   23.4854 C   0  0  0  0  0  0  0  0  0  0  0  0
  -29.8279  -21.3970   19.0531 N   0  0  0  0  0  0  0  0  0  0  0  0
  -30.8043  -20.5072   18.8063 N   0  0  0  0  0  0  0  0  0  0  0  0
  -24.6917  -14.1324   20.6703 N   0  0  0  0  0  0  0  0  0  0  0  0
  -30.6323  -18.3952   21.9843 N   0  0  0  0  0  0  0  0  0  0  0  0
  -32.6130  -20.0433   17.3488 N   0  0  0  0  0  0  0  0  0  0  0  0
  -30.9593  -23.9311   15.7528 N   0  0  0  0  0  0  0  0  0  0  0  0
  -24.9522  -17.3538   19.7087 N   0  0  0  0  0  0  0  0  0  0  0  0
  -22.1594  -12.3966   22.0959 N   0  0  0  0  0  0  0  0  0  0  0  0
  -31.5012  -17.2497   23.8632 N   0  0  0  0  0  0  0  0  0  0  0  0
  -22.0095   -8.8825   21.2616 N   0  3  0  0  0  0  0  0  0  0  0  0
  -32.5648  -22.3234   15.4420 O   0  0  0  0  0  0  0  0  0  0  0  0
  -26.6733  -16.1880   20.7581 O   0  0  0  0  0  0  0  0  0  0  0  0
  -22.4513  -14.7531   20.4927 O   0  0  0  0  0  0  0  0  0  0  0  0
  -23.6378  -10.7016   22.6602 O   0  0  0  0  0  0  0  0  0  0  0  0
  -32.0886  -19.4291   23.4636 O   0  0  0  0  0  0  0  0  0  0  0  0
  -26.6198  -26.7551   17.8091 O   0  0  0  0  0  0  0  0  0  0  0  0
  -30.2564  -11.5476   21.3076 O   0  0  0  0  0  0  0  0  0  1  0  0
  -32.6238  -14.7714   24.7383 O   0  0  0  0  0  0  0  0  0  0  0  0
  -32.1372  -12.5659   23.0870 O   0  0  0  0  0  0  0  0  0  0  0  0
  -25.4487  -29.3940   22.5068 F   0  0  0  0  0  0  0  0  0  0  0  0
  -27.2676  -29.4226   18.1369 F   0  0  0  0  0  0  0  0  0  0  0  0
  1  2  1  0  0  0  0
  1  5  2  0  0  0  0
  2  6  2  0  0  0  0
  3  8  2  0  0  0  0
  3 15  1  0  0  0  0
  4  9  1  0  0  0  0
  4 15  2  0  0  0  0
  5 17  1  0  0  0  0
  6 19  1  0  0  0  0
  7 10  2  0  0  0  0
  7 18  1  0  0  0  0
  8 21  1  0  0  0  0
  9 21  2  0  0  0  0
 10 22  1  0  0  0  0
 11 12  2  0  0  0  0
 11 23  1  0  0  0  0
 12 24  1  0  0  0  0
 13 20  1  0  0  0  0
 13 22  2  0  0  0  0
 14 24  2  0  0  0  0
 14 25  1  0  0  0  0
 15 26  1  0  0  0  0
 16 26  1  0  0  0  0
 16 27  2  0  0  0  0
 16 28  1  0  0  0  0
 17 19  2  0  0  0  0
 17 33  1  0  0  0  0
 18 20  2  0  0  0  0
 18 34  1  0  0  0  0
 19 42  1  0  0  0  0
 20 35  1  0  0  0  0
 21 74  1  0  0  0  0
 22 75  1  0  0  0  0
 23 25  2  0  0  0  0
 23 74  1  0  0  0  0
 24 78  1  0  0  0  0
 25 79  1  0  0  0  0
 26 59  2  0  0  0  0
 27 60  1  0  0  0  0
 27 63  1  0  0  0  0
 28 64  1  0  0  0  0
 28 69  2  0  0  0  0
 29 43  1  0  0  0  0
 29 65  1  0  0  0  0
 29 70  2  0  0  0  0
 30 56  1  0  0  0  0
 30 61  1  0  0  0  0
 30 71  2  0  0  0  0
 31 57  1  0  0  0  0
 31 66  1  0  0  0  0
 31 72  2  0  0  0  0
 32 62  1  0  0  0  0
 32 67  1  0  0  0  0
 32 73  2  0  0  0  0
 33 36  1  0  0  0  0
 34 43  1  0  0  0  0
 35 61  1  0  0  0  0
 36 38  1  0  0  0  0
 37 39  1  0  0  0  0
 37 40  1  0  0  0  0
 38 42  1  0  0  0  0
 39 44  1  0  0  0  0
 40 62  1  0  0  0  0
 41 44  1  0  0  0  0
 41 62  1  0  0  0  0
 42 65  1  0  0  0  0
 43 61  1  0  0  0  0
 44 60  1  0  0  0  0
 45 57  1  0  0  0  0
 46 58  1  0  0  0  0
 47 58  1  0  0  0  0
 48 58  1  0  0  0  0
 49 68  1  0  0  0  0
 50 51  1  0  0  0  0
 50 67  1  0  0  0  0
 51 76  1  0  0  0  0
 52 53  1  0  0  0  0
 52 75  1  0  0  0  0
 53 77  1  0  0  0  0
 54 55  1  0  0  0  0
 54 76  1  0  0  0  0
 55 77  1  0  0  0  0
 56 58  1  0  0  0  0
 56 66  1  0  0  0  0
 57 68  1  0  0  0  0
 59 60  1  0  0  0  0
M  CHG  1  68   1
M  ISO  4  32 100  52 101  67 100  75 101
M  END
> <Batch ID>
0000

> <Smiles>
CNC(C)C(=O)NC(C(=O)N1Cc2cc([101O:1][101CH2:1]COCCOCC[100NH:0][100C:0](=O)N3CCCC(n4nc(-c5ccc(Oc6ccc(F)cc6F)cc5)c(C(N)=O)c4N)C3)ccc2CC1C(=O)NC1CCCc2ccccc21)C(C)(C)C

> <Shape>
0.193

> <Color>
0.068

> <Negative vol penalty>
0.000

$$$$

  -OEChem-04042320113D

103111  0     1  0  0  0  0  0999 V2000
  -19.2591  -29.4951   26.2460 C   0  0  0  0  0  0  0  0  0  0  0  0
  -20.5357  -28.9517   26.1441 C   0  0  0  0  0  0  0  0  0  0  0  0
  -33.1593  -22.7961   18.8502 C   0  0  0  0  0  0  0  0  0  0  0  0
  -22.7944  -10.6256   22.1948 C   0  0  0  0  0  0  0  0  0  0  0  0
  -22.8510  -10.0257   19.8552 C   0  0  0  0  0  0  0  0  0  0  0  0
  -32.7347  -22.7836   17.5216 C   0  0  0  0  0  0  0  0  0  0  0  0
  -18.3725  -29.3950   25.1746 C   0  0  0  0  0  0  0  0  0  0  0  0
  -20.9261  -28.3069   24.9709 C   0  0  0  0  0  0  0  0  0  0  0  0
  -26.5206  -28.2654   22.4797 C   0  0  0  0  0  0  0  0  0  0  0  0
  -32.6353  -23.7330   19.7411 C   0  0  0  0  0  0  0  0  0  0  0  0
  -22.2804   -9.3667   22.5052 C   0  0  0  0  0  0  0  0  0  0  0  0
  -22.3371   -8.7666   20.1656 C   0  0  0  0  0  0  0  0  0  0  0  0
  -27.5583  -27.3352   22.5197 C   0  0  0  0  0  0  0  0  0  0  0  0
  -23.4568   -6.2187   22.8783 C   0  0  0  0  0  0  0  0  0  0  0  0
  -24.0105   -5.5425   23.9654 C   0  0  0  0  0  0  0  0  0  0  0  0
  -31.2625  -24.6450   17.9745 C   0  0  0  0  0  0  0  0  0  0  0  0
  -26.8126  -26.4218   20.4152 C   0  0  0  0  0  0  0  0  0  0  0  0
  -21.8484   -5.5043   25.0429 C   0  0  0  0  0  0  0  0  0  0  0  0
  -23.0796  -10.9552   20.8697 C   0  0  0  0  0  0  0  0  0  0  0  0
  -31.7864  -23.7081   17.0838 C   0  0  0  0  0  0  0  0  0  0  0  0
  -24.9660  -12.6290   20.4853 C   0  0  0  0  0  0  0  0  0  0  0  0
  -18.7556  -28.7571   23.9842 C   0  0  0  0  0  0  0  0  0  0  0  0
  -25.6130  -28.2737   21.4107 C   0  0  0  0  0  0  0  0  0  0  0  0
  -20.0434  -28.1970   23.8831 C   0  0  0  0  0  0  0  0  0  0  0  0
  -25.7658  -27.3548   20.3627 C   0  0  0  0  0  0  0  0  0  0  0  0
  -22.0518   -8.4371   21.4906 C   0  0  0  0  0  0  0  0  0  0  0  0
  -31.6870  -24.6574   19.3032 C   0  0  0  0  0  0  0  0  0  0  0  0
  -27.7027  -26.4113   21.4888 C   0  0  0  0  0  0  0  0  0  0  0  0
  -22.0989   -6.5378   22.8736 C   0  0  0  0  0  0  0  0  0  0  0  0
  -23.2063   -5.1853   25.0477 C   0  0  0  0  0  0  0  0  0  0  0  0
  -21.2947   -6.1806   23.9558 C   0  0  0  0  0  0  0  0  0  0  0  0
  -23.6100  -12.2557   20.5484 C   0  0  0  0  0  0  0  0  0  0  0  0
  -24.9405  -13.9588   20.1428 C   0  0  0  0  0  0  0  0  0  0  0  0
  -31.3433  -23.6953   15.6985 C   0  0  0  0  0  0  0  0  0  0  0  0
  -26.1433  -11.8438   20.7156 C   0  0  0  0  0  0  0  0  0  0  0  0
  -22.4775  -27.8360   21.1267 C   0  0  0  0  0  0  0  0  0  0  0  0
  -23.0308  -28.6906   18.0468 C   0  0  0  0  0  0  0  0  0  0  0  0
  -25.2437  -28.9325   15.4601 C   0  0  0  0  0  0  0  0  0  0  0  0
  -22.8800  -18.0405   16.9217 C   0  0  0  0  0  0  0  0  0  0  0  0
  -17.7464  -28.6321   22.8704 C   0  0  0  0  0  0  0  0  0  0  0  0
  -24.5150  -29.3009   21.3691 C   0  0  0  0  0  0  0  0  0  0  0  0
  -24.8303  -27.3351   19.1825 C   0  0  0  0  0  0  0  0  0  0  0  0
  -18.3664  -28.2618   21.5255 C   0  0  0  0  0  0  0  0  0  0  0  0
  -21.1169  -17.2529   19.9665 C   0  0  0  0  0  0  0  0  0  0  0  0
  -19.3565  -27.1136   21.6922 C   0  0  0  0  0  0  0  0  0  0  0  0
  -21.6934  -15.8934   20.3598 C   0  0  0  0  0  0  0  0  0  0  0  0
  -21.0318  -17.4068   18.4514 C   0  0  0  0  0  0  0  0  0  0  0  0
  -22.9174  -15.8239   18.1414 C   0  0  0  0  0  0  0  0  0  0  0  0
  -20.5123  -27.5117   22.6180 C   0  0  1  0  0  0  0  0  0  0  0  0
  -23.3416  -28.8857   20.4870 C   0  0  1  0  0  0  0  0  0  0  0  0
  -23.0433  -15.6438   19.6640 C   0  0  2  0  0  0  0  0  0  0  0  0
  -25.3939  -29.6338   13.0552 C   0  0  0  0  0  0  0  0  0  0  0  0
  -21.6211  -26.1169   17.2107 C   0  0  0  0  0  0  0  0  0  0  0  0
  -22.6206  -26.3920   14.9318 C   0  0  0  0  0  0  0  0  0  0  0  0
  -21.0526  -28.1166   15.8206 C   0  0  0  0  0  0  0  0  0  0  0  0
  -27.2458  -31.0237   16.0743 C   0  0  0  0  0  0  0  0  0  0  0  0
  -29.4673  -24.2164   14.1195 C   0  0  0  0  0  0  0  0  0  0  0  0
  -28.0714  -24.8068   14.2010 C   0  0  0  0  0  0  0  0  0  0  0  0
  -31.0915  -25.1879   21.5437 C   0  0  0  0  0  0  0  0  0  0  0  0
  -29.9149  -25.8924   22.1909 C   0  0  0  0  0  0  0  0  0  1  0  0
  -24.7256  -18.5053   15.4948 C   0  0  0  0  0  0  0  0  0  0  0  0
  -26.0367  -17.8880   15.0479 C   0  0  0  0  0  0  0  0  0  0  0  0
  -25.9389  -24.4996   15.1394 C   0  0  0  0  0  0  0  0  0  0  0  0
  -25.1178  -23.5726   16.0148 C   0  0  0  0  0  0  0  0  0  0  0  0
  -28.1058  -17.0891   15.8246 C   0  0  0  0  0  0  0  0  0  0  0  0
  -28.9450  -16.9019   17.0739 C   0  0  0  0  0  0  0  0  0  0  0  0
  -24.9975  -22.6257   18.1623 C   0  0  0  0  0  0  0  0  0  0  0  0
  -25.7062  -22.5537   19.5011 C   0  0  0  0  0  0  0  0  0  0  0  0
  -29.9610  -18.0546   18.8521 C   0  0  0  0  0  0  0  0  0  0  0  0
  -30.1927  -19.4376   19.4294 C   0  0  0  0  0  0  0  0  0  0  0  0
  -27.7239  -21.9320   20.5332 C   0  0  0  0  0  0  0  0  0  0  0  0
  -29.0939  -21.3388   20.2667 C   0  0  0  0  0  0  0  0  0  0  0  0
  -23.3861  -27.9512   16.7795 C   0  0  1  0  0  0  0  0  0  0  0  0
  -25.5546  -30.0695   14.5034 C   0  0  2  0  0  0  0  0  0  0  0  0
  -22.1868  -27.1430   16.2087 C   0  0  0  0  0  0  0  0  0  0  0  0
  -22.7834  -13.2668   20.2685 N   0  0  0  0  0  0  0  0  0  0  0  0
  -23.6222  -14.2885   20.0264 N   0  0  0  0  0  0  0  0  0  0  0  0
  -23.7688  -28.3553   19.1908 N   0  0  0  0  0  0  0  0  0  0  0  0
  -22.3195  -17.1253   17.8181 N   0  0  0  0  0  0  0  0  0  0  0  0
  -25.9173  -14.8666   19.9329 N   0  0  0  0  0  0  0  0  0  0  0  0
  -25.9893  -10.4936   21.0589 N   0  0  0  0  0  0  0  0  0  0  0  0
  -30.0581  -24.1848   15.4381 N   0  0  0  0  0  0  0  0  0  0  0  0
  -21.4611  -28.3459   21.9119 N   0  0  0  0  0  0  0  0  0  0  0  0
  -23.9248  -28.9494   15.8619 N   0  0  0  0  0  0  0  0  0  0  0  0
  -26.9539  -30.5432   14.6992 N   0  3  0  0  0  0  0  0  0  0  0  0
  -32.0812  -23.2458   14.8039 O   0  0  0  0  0  0  0  0  0  0  0  0
  -27.2972  -12.3292   20.6359 O   0  0  0  0  0  0  0  0  0  0  0  0
  -22.7144  -26.6513   20.9218 O   0  0  0  0  0  0  0  0  0  0  0  0
  -22.1363  -29.5396   18.0210 O   0  0  0  0  0  0  0  0  0  0  0  0
  -26.0856  -28.1095   15.8124 O   0  0  0  0  0  0  0  0  0  0  0  0
  -22.3594  -19.1092   16.6065 O   0  0  0  0  0  0  0  0  0  0  0  0
  -21.5505   -7.2084   21.7932 O   0  0  0  0  0  0  0  0  0  0  0  0
  -31.1722  -25.5776   20.1779 O   0  0  0  0  0  0  0  0  0  0  0  0
  -28.7144  -25.5018   21.5257 O   0  0  0  0  0  0  0  0  0  1  0  0
  -24.0847  -17.6218   16.4222 O   0  0  0  0  0  0  0  0  0  0  0  0
  -27.2595  -23.9865   15.0316 O   0  0  0  0  0  0  0  0  0  0  0  0
  -26.8583  -17.6690   16.1862 O   0  0  0  0  0  0  0  0  0  0  0  0
  -25.7271  -23.4846   17.2971 O   0  0  0  0  0  0  0  0  0  0  0  0
  -29.1757  -18.1700   17.6717 O   0  0  0  0  0  0  0  0  0  0  0  0
  -27.0114  -22.0224   19.3074 O   0  0  0  0  0  0  0  0  0  0  0  0
  -28.9368  -20.0348   19.7205 O   0  0  0  0  0  0  0  0  0  0  0  0
  -23.7378   -4.5346   26.0909 F   0  0  0  0  0  0  0  0  0  0  0  0
  -19.9893   -6.4833   23.9564 F   0  0  0  0  0  0  0  0  0  0  0  0
  1  2  1  0  0  0  0
  1  7  2  0  0  0  0
  2  8  2  0  0  0  0
  3  6  1  0  0  0  0
  3 10  2  0  0  0  0
  4 11  2  0  0  0  0
  4 19  1  0  0  0  0
  5 12  1  0  0  0  0
  5 19  2  0  0  0  0
  6 20  2  0  0  0  0
  7 22  1  0  0  0  0
  8 24  1  0  0  0  0
  9 13  2  0  0  0  0
  9 23  1  0  0  0  0
 10 27  1  0  0  0  0
 11 26  1  0  0  0  0
 12 26  2  0  0  0  0
 13 28  1  0  0  0  0
 14 15  2  0  0  0  0
 14 29  1  0  0  0  0
 15 30  1  0  0  0  0
 16 20  1  0  0  0  0
 16 27  2  0  0  0  0
 17 25  1  0  0  0  0
 17 28  2  0  0  0  0
 18 30  2  0  0  0  0
 18 31  1  0  0  0  0
 19 32  1  0  0  0  0
 20 34  1  0  0  0  0
 21 32  1  0  0  0  0
 21 33  2  0  0  0  0
 21 35  1  0  0  0  0
 22 24  2  0  0  0  0
 22 40  1  0  0  0  0
 23 25  2  0  0  0  0
 23 41  1  0  0  0  0
 24 49  1  0  0  0  0
 25 42  1  0  0  0  0
 26 92  1  0  0  0  0
 27 93  1  0  0  0  0
 28 94  1  0  0  0  0
 29 31  2  0  0  0  0
 29 92  1  0  0  0  0
 30102  1  0  0  0  0
 31103  1  0  0  0  0
 32 76  2  0  0  0  0
 33 77  1  0  0  0  0
 33 80  1  0  0  0  0
 34 82  1  0  0  0  0
 34 86  2  0  0  0  0
 35 81  1  0  0  0  0
 35 87  2  0  0  0  0
 36 50  1  0  0  0  0
 36 83  1  0  0  0  0
 36 88  2  0  0  0  0
 37 73  1  0  0  0  0
 37 78  1  0  0  0  0
 37 89  2  0  0  0  0
 38 74  1  0  0  0  0
 38 84  1  0  0  0  0
 38 90  2  0  0  0  0
 39 79  1  0  0  0  0
 39 91  2  0  0  0  0
 39 95  1  0  0  0  0
 40 43  1  0  0  0  0
 41 50  1  0  0  0  0
 42 78  1  0  0  0  0
 43 45  1  0  0  0  0
 44 46  1  0  0  0  0
 44 47  1  0  0  0  0
 45 49  1  0  0  0  0
 46 51  1  0  0  0  0
 47 79  1  0  0  0  0
 48 51  1  0  0  0  0
 48 79  1  0  0  0  0
 49 83  1  0  0  0  0
 50 78  1  0  0  0  0
 51 77  1  0  0  0  0
 52 74  1  0  0  0  0
 53 75  1  0  0  0  0
 54 75  1  0  0  0  0
 55 75  1  0  0  0  0
 56 85  1  0  0  0  0
 57 58  1  0  0  0  0
 57 82  1  0  0  0  0
 58 96  1  0  0  0  0
 59 60  1  0  0  0  0
 59 93  1  0  0  0  0
 60 94  1  0  0  0  0
 61 62  1  0  0  0  0
 61 95  1  0  0  0  0
 62 97  1  0  0  0  0
 63 64  1  0  0  0  0
 63 96  1  0  0  0  0
 64 98  1  0  0  0  0
 65 66  1  0  0  0  0
 65 97  1  0  0  0  0
 66 99  1  0  0  0  0
 67 68  1  0  0  0  0
 67 98  1  0  0  0  0
 68100  1  0  0  0  0
 69 70  1  0  0  0  0
 69 99  1  0  0  0  0
 70101  1  0  0  0  0
 71 72  1  0  0  0  0
 71100  1  0  0  0  0
 72101  1  0  0  0  0
 73 75  1  0  0  0  0
 73 84  1  0  0  0  0
 74 85  1  0  0  0  0
 76 77  1  0  0  0  0
M  CHG  1  85   1
M  ISO  4  39 100  60 101  94 101  95 100
M  END
> <Batch ID>
0000

> <Smiles>
CNC(C)C(=O)NC(C(=O)N1Cc2cc([101O:1][101CH2:1]COc3cccc(C(=O)NCCOCCOCCOCCOCCOCCOCC[100O:0][100C:0](=O)N4CCCC(n5nc(-c6ccc(Oc7ccc(F)cc7F)cc6)c(C(N)=O)c5N)C4)c3)ccc2CC1C(=O)NC1CCCc2ccccc21)C(C)(C)C

> <Shape>
0.234

> <Color>
0.097

> <Negative vol penalty>
0.000

$$$$

  -OEChem-04042320113D

 73 80  0     1  0  0  0  0  0999 V2000
  -28.7807  -11.4027   19.8413 C   0  0  0  0  0  0  0  0  0  0  0  0
  -28.8747  -12.6791   19.2960 C   0  0  0  0  0  0  0  0  0  0  0  0
  -25.9114  -28.9143   20.8188 C   0  0  0  0  0  0  0  0  0  0  0  0
  -25.2447  -26.5922   20.8056 C   0  0  0  0  0  0  0  0  0  0  0  0
  -27.5741  -10.9659   20.3863 C   0  0  0  0  0  0  0  0  0  0  0  0
  -27.7616  -13.5191   19.2943 C   0  0  0  0  0  0  0  0  0  0  0  0
  -28.8908  -18.2435   20.7261 C   0  0  0  0  0  0  0  0  0  0  0  0
  -24.5811  -29.2972   20.6476 C   0  0  0  0  0  0  0  0  0  0  0  0
  -23.9144  -26.9751   20.6344 C   0  0  0  0  0  0  0  0  0  0  0  0
  -29.5037  -19.0657   19.7816 C   0  0  0  0  0  0  0  0  0  0  0  0
  -20.2991  -27.3512   20.5553 C   0  0  0  0  0  0  0  0  0  0  0  0
  -19.3346  -26.7145   21.3363 C   0  0  0  0  0  0  0  0  0  0  0  0
  -27.3782  -20.1087   19.3193 C   0  0  0  0  0  0  0  0  0  0  0  0
  -20.4277  -27.5133   23.3374 C   0  0  0  0  0  0  0  0  0  0  0  0
  -26.2432  -27.5618   20.8978 C   0  0  0  0  0  0  0  0  0  0  0  0
  -28.2943  -26.9641   22.2918 C   0  0  0  0  0  0  0  0  0  0  0  0
  -26.4483  -11.8044   20.4000 C   0  0  0  0  0  0  0  0  0  0  0  0
  -27.5128  -18.3403   20.9669 C   0  0  0  0  0  0  0  0  0  0  0  0
  -26.5384  -13.0925   19.8388 C   0  0  0  0  0  0  0  0  0  0  0  0
  -26.7507  -19.2883   20.2692 C   0  0  0  0  0  0  0  0  0  0  0  0
  -23.5826  -28.3276   20.5554 C   0  0  0  0  0  0  0  0  0  0  0  0
  -28.7469  -19.9965   19.0760 C   0  0  0  0  0  0  0  0  0  0  0  0
  -21.3280  -28.0688   21.1653 C   0  0  0  0  0  0  0  0  0  0  0  0
  -19.3988  -26.7956   22.7274 C   0  0  0  0  0  0  0  0  0  0  0  0
  -21.3923  -28.1499   22.5564 C   0  0  0  0  0  0  0  0  0  0  0  0
  -27.6173  -27.1656   21.0741 C   0  0  0  0  0  0  0  0  0  0  0  0
  -29.5659  -26.6003   21.9215 C   0  0  0  0  0  0  0  0  0  0  0  0
  -27.8165  -27.0941   23.6374 C   0  0  0  0  0  0  0  0  0  0  0  0
  -25.0394  -16.3661   20.6693 C   0  0  0  0  0  0  0  0  0  0  0  0
  -23.4301  -18.7916   22.1009 C   0  0  0  0  0  0  0  0  0  0  0  0
  -23.2352  -22.1273   22.7949 C   0  0  0  0  0  0  0  0  0  0  0  0
  -31.8053  -24.0606   16.9833 C   0  0  0  0  0  0  0  0  0  0  0  0
  -25.1525  -11.2708   20.9575 C   0  0  0  0  0  0  0  0  0  0  0  0
  -26.8716  -17.4645   22.0082 C   0  0  0  0  0  0  0  0  0  0  0  0
  -25.2716  -19.4460   20.5052 C   0  0  0  0  0  0  0  0  0  0  0  0
  -24.1234  -12.3586   21.2544 C   0  0  0  0  0  0  0  0  0  0  0  0
  -32.7528  -27.1859   18.4013 C   0  0  0  0  0  0  0  0  0  0  0  0
  -24.0228  -13.3319   20.0842 C   0  0  0  0  0  0  0  0  0  0  0  0
  -31.6052  -27.5169   19.3570 C   0  0  0  0  0  0  0  0  0  0  0  0
  -32.2517  -26.4924   17.1365 C   0  0  0  0  0  0  0  0  0  0  0  0
  -30.2768  -25.6255   18.3290 C   0  0  0  0  0  0  0  0  0  0  0  0
  -25.3600  -14.0420   19.8407 C   0  0  1  0  0  0  0  0  0  0  0  0
  -25.3693  -17.2948   21.8034 C   0  0  1  0  0  0  0  0  0  0  0  0
  -30.7390  -26.2758   19.6442 C   0  0  2  0  0  0  0  0  0  0  0  0
  -21.7856  -23.8170   23.9528 C   0  0  0  0  0  0  0  0  0  0  0  0
  -21.4554  -18.6861   19.7772 C   0  0  0  0  0  0  0  0  0  0  0  0
  -20.6243  -20.9432   20.4723 C   0  0  0  0  0  0  0  0  0  0  0  0
  -20.4056  -19.0030   22.0249 C   0  0  0  0  0  0  0  0  0  0  0  0
  -25.3980  -22.8660   24.6752 C   0  0  0  0  0  0  0  0  0  0  0  0
  -31.2354  -21.6456   16.9357 C   0  0  0  0  0  0  0  0  0  0  0  0
  -30.7465  -20.6355   17.9583 C   0  0  0  0  0  0  0  0  0  1  0  0
  -22.6870  -20.0136   21.6176 C   0  0  1  0  0  0  0  0  0  0  0  0
  -22.9697  -22.8728   24.0904 C   0  0  2  0  0  0  0  0  0  0  0  0
  -21.3206  -19.6574   20.9669 C   0  0  0  0  0  0  0  0  0  0  0  0
  -28.3944  -26.9480   20.0099 N   0  0  0  0  0  0  0  0  0  0  0  0
  -29.5730  -26.6061   20.5576 N   0  0  0  0  0  0  0  0  0  0  0  0
  -24.6895  -18.5623   21.5289 N   0  0  0  0  0  0  0  0  0  0  0  0
  -31.4385  -25.3228   17.4784 N   0  0  0  0  0  0  0  0  0  0  0  0
  -30.6675  -26.2792   22.6327 N   0  0  0  0  0  0  0  0  0  0  0  0
  -26.4833  -27.4765   23.8389 N   0  0  0  0  0  0  0  0  0  0  0  0
  -25.5584  -15.0937   20.8148 N   0  0  0  0  0  0  0  0  0  0  0  0
  -22.5873  -20.9105   22.7639 N   0  0  0  0  0  0  0  0  0  0  0  0
  -30.9843  -23.0048   17.3602 N   0  0  0  0  0  0  0  0  0  0  0  0
  -24.1650  -23.6719   24.4825 N   0  3  0  0  0  0  0  0  0  0  0  0
  -28.5547  -26.8935   24.6315 O   0  0  0  0  0  0  0  0  0  0  0  0
  -24.3627  -16.7733   19.7323 O   0  0  0  0  0  0  0  0  0  0  0  0
  -22.9152  -18.0710   22.9596 O   0  0  0  0  0  0  0  0  0  0  0  0
  -23.9432  -22.5808   21.8985 O   0  0  0  0  0  0  0  0  0  0  0  0
  -32.7944  -23.8864   16.2633 O   0  0  0  0  0  0  0  0  0  0  0  0
  -22.2844  -28.7009   20.3885 O   0  0  0  0  0  0  0  0  0  0  0  0
  -29.3424  -20.7999   18.1530 O   0  0  0  0  0  0  0  0  0  1  0  0
  -18.4716  -26.1855   23.4772 F   0  0  0  0  0  0  0  0  0  0  0  0
  -22.3777  -28.8388   23.1481 F   0  0  0  0  0  0  0  0  0  0  0  0
  1  2  1  0  0  0  0
  1  5  2  0  0  0  0
  2  6  2  0  0  0  0
  3  8  2  0  0  0  0
  3 15  1  0  0  0  0
  4  9  1  0  0  0  0
  4 15  2  0  0  0  0
  5 17  1  0  0  0  0
  6 19  1  0  0  0  0
  7 10  2  0  0  0  0
  7 18  1  0  0  0  0
  8 21  1  0  0  0  0
  9 21  2  0  0  0  0
 10 22  1  0  0  0  0
 11 12  2  0  0  0  0
 11 23  1  0  0  0  0
 12 24  1  0  0  0  0
 13 20  1  0  0  0  0
 13 22  2  0  0  0  0
 14 24  2  0  0  0  0
 14 25  1  0  0  0  0
 15 26  1  0  0  0  0
 16 26  1  0  0  0  0
 16 27  2  0  0  0  0
 16 28  1  0  0  0  0
 17 19  2  0  0  0  0
 17 33  1  0  0  0  0
 18 20  2  0  0  0  0
 18 34  1  0  0  0  0
 19 42  1  0  0  0  0
 20 35  1  0  0  0  0
 21 70  1  0  0  0  0
 22 71  1  0  0  0  0
 23 25  2  0  0  0  0
 23 70  1  0  0  0  0
 24 72  1  0  0  0  0
 25 73  1  0  0  0  0
 26 55  2  0  0  0  0
 27 56  1  0  0  0  0
 27 59  1  0  0  0  0
 28 60  1  0  0  0  0
 28 65  2  0  0  0  0
 29 43  1  0  0  0  0
 29 61  1  0  0  0  0
 29 66  2  0  0  0  0
 30 52  1  0  0  0  0
 30 57  1  0  0  0  0
 30 67  2  0  0  0  0
 31 53  1  0  0  0  0
 31 62  1  0  0  0  0
 31 68  2  0  0  0  0
 32 58  1  0  0  0  0
 32 63  1  0  0  0  0
 32 69  2  0  0  0  0
 33 36  1  0  0  0  0
 34 43  1  0  0  0  0
 35 57  1  0  0  0  0
 36 38  1  0  0  0  0
 37 39  1  0  0  0  0
 37 40  1  0  0  0  0
 38 42  1  0  0  0  0
 39 44  1  0  0  0  0
 40 58  1  0  0  0  0
 41 44  1  0  0  0  0
 41 58  1  0  0  0  0
 42 61  1  0  0  0  0
 43 57  1  0  0  0  0
 44 56  1  0  0  0  0
 45 53  1  0  0  0  0
 46 54  1  0  0  0  0
 47 54  1  0  0  0  0
 48 54  1  0  0  0  0
 49 64  1  0  0  0  0
 50 51  1  0  0  0  0
 50 63  1  0  0  0  0
 51 71  1  0  0  0  0
 52 54  1  0  0  0  0
 52 62  1  0  0  0  0
 53 64  1  0  0  0  0
 55 56  1  0  0  0  0
M  CHG  1  64   1
M  ISO  4  32 100  51 101  63 100  71 101
M  END
> <Batch ID>
0000

> <Smiles>
CNC(C)C(=O)NC(C(=O)N1Cc2cc([101O:1][101CH2:1]C[100NH:0][100C:0](=O)N3CCCC(n4nc(-c5ccc(Oc6ccc(F)cc6F)cc5)c(C(N)=O)c4N)C3)ccc2CC1C(=O)NC1CCCc2ccccc21)C(C)(C)C

> <Shape>
0.226

> <Color>
0.066

> <Negative vol penalty>
0.000

$$$$

  -OEChem-04042320113D

 87 94  0     1  0  0  0  0  0999 V2000
  -24.9309  -28.4946   20.5569 C   0  0  0  0  0  0  0  0  0  0  0  0
  -24.7567  -27.3024   19.8614 C   0  0  0  0  0  0  0  0  0  0  0  0
  -23.5309  -24.6260   23.0189 C   0  0  0  0  0  0  0  0  0  0  0  0
  -21.3456  -23.7257   23.5199 C   0  0  0  0  0  0  0  0  0  0  0  0
  -26.2143  -28.9227   20.8935 C   0  0  0  0  0  0  0  0  0  0  0  0
  -25.8660  -26.5382   19.5010 C   0  0  0  0  0  0  0  0  0  0  0  0
  -25.2083  -21.6028   20.4253 C   0  0  0  0  0  0  0  0  0  0  0  0
  -22.9380  -25.6714   22.3110 C   0  0  0  0  0  0  0  0  0  0  0  0
  -20.7526  -24.7712   22.8121 C   0  0  0  0  0  0  0  0  0  0  0  0
  -24.4283  -20.8840   19.5205 C   0  0  0  0  0  0  0  0  0  0  0  0
  -18.6509  -27.4024   21.4418 C   0  0  0  0  0  0  0  0  0  0  0  0
  -17.5552  -28.0406   22.0229 C   0  0  0  0  0  0  0  0  0  0  0  0
  -26.4311  -20.0426   18.4716 C   0  0  0  0  0  0  0  0  0  0  0  0
  -18.9235  -28.6696   23.9121 C   0  0  0  0  0  0  0  0  0  0  0  0
  -22.7347  -23.6531   23.6233 C   0  0  0  0  0  0  0  0  0  0  0  0
  -23.6703  -22.5488   25.7240 C   0  0  0  0  0  0  0  0  0  0  0  0
  -27.3393  -28.1586   20.5456 C   0  0  0  0  0  0  0  0  0  0  0  0
  -26.6079  -21.5555   20.3531 C   0  0  0  0  0  0  0  0  0  0  0  0
  -27.1658  -26.9572   19.8322 C   0  0  0  0  0  0  0  0  0  0  0  0
  -27.2266  -20.7597   19.3783 C   0  0  0  0  0  0  0  0  0  0  0  0
  -21.5489  -25.7441   22.2077 C   0  0  0  0  0  0  0  0  0  0  0  0
  -25.0397  -20.1060   18.5417 C   0  0  0  0  0  0  0  0  0  0  0  0
  -19.8829  -27.3977   22.0958 C   0  0  0  0  0  0  0  0  0  0  0  0
  -17.6915  -28.6743   23.2580 C   0  0  0  0  0  0  0  0  0  0  0  0
  -20.0192  -28.0313   23.3310 C   0  0  0  0  0  0  0  0  0  0  0  0
  -23.3466  -22.5725   24.3541 C   0  0  0  0  0  0  0  0  0  0  0  0
  -24.2260  -21.3088   25.9240 C   0  0  0  0  0  0  0  0  0  0  0  0
  -23.4850  -23.5574   26.7260 C   0  0  0  0  0  0  0  0  0  0  0  0
  -28.9010  -23.6950   19.8353 C   0  0  0  0  0  0  0  0  0  0  0  0
  -30.8505  -21.1948   20.5213 C   0  0  0  0  0  0  0  0  0  0  0  0
  -23.1416  -15.8385   18.7634 C   0  0  0  0  0  0  0  0  0  0  0  0
  -21.8017  -13.3490   22.6698 C   0  0  0  0  0  0  0  0  0  0  0  0
  -31.2854  -17.8126   20.6584 C   0  0  0  0  0  0  0  0  0  0  0  0
  -24.2125  -15.7844   25.1325 C   0  0  0  0  0  0  0  0  0  0  0  0
  -28.7098  -28.6859   20.8899 C   0  0  0  0  0  0  0  0  0  0  0  0
  -27.4351  -22.3155   21.3533 C   0  0  0  0  0  0  0  0  0  0  0  0
  -28.7255  -20.6590   19.2711 C   0  0  0  0  0  0  0  0  0  0  0  0
  -29.8090  -27.6305   20.7991 C   0  0  0  0  0  0  0  0  0  0  0  0
  -25.7134  -17.7933   22.6050 C   0  0  0  0  0  0  0  0  0  0  0  0
  -29.6804  -26.8358   19.5035 C   0  0  0  0  0  0  0  0  0  0  0  0
  -25.2532  -19.2121   22.9442 C   0  0  0  0  0  0  0  0  0  0  0  0
  -24.6245  -16.7625   22.8942 C   0  0  0  0  0  0  0  0  0  0  0  0
  -23.6171  -18.2259   24.6022 C   0  0  0  0  0  0  0  0  0  0  0  0
  -28.3428  -26.0882   19.4454 C   0  0  1  0  0  0  0  0  0  0  0  0
  -28.8516  -22.6007   20.8637 C   0  0  1  0  0  0  0  0  0  0  0  0
  -24.7011  -19.2944   24.3800 C   0  0  2  0  0  0  0  0  0  0  0  0
  -32.9989  -16.0681   21.2221 C   0  0  0  0  0  0  0  0  0  0  0  0
  -32.2695  -21.7369   17.8750 C   0  0  0  0  0  0  0  0  0  0  0  0
  -33.2950  -19.4588   18.0382 C   0  0  0  0  0  0  0  0  0  0  0  0
  -33.7910  -21.1755   19.7787 C   0  0  0  0  0  0  0  0  0  0  0  0
  -29.6044  -16.6945   22.8224 C   0  0  0  0  0  0  0  0  0  0  0  0
  -22.1216  -15.7391   19.8776 C   0  0  0  0  0  0  0  0  0  0  0  0
  -21.4658  -14.5281   21.7819 C   0  0  0  0  0  0  0  0  0  0  0  0
  -23.7051  -17.2388   16.7842 C   0  0  0  0  0  0  0  0  0  0  0  0
  -20.9718  -12.1607   24.6935 C   0  0  0  0  0  0  0  0  0  0  0  0
  -23.7529  -14.9528   27.4252 C   0  0  0  0  0  0  0  0  0  0  0  0
  -24.8314  -18.1892   17.1495 C   0  0  0  0  0  0  0  0  0  1  0  0
  -21.1036  -12.7776   26.0739 C   0  0  0  0  0  0  0  0  0  0  0  0
  -22.4667  -14.1461   27.4126 C   0  0  0  0  0  0  0  0  0  0  0  0
  -31.5050  -20.0974   19.7172 C   0  0  1  0  0  0  0  0  0  0  0  0
  -31.8469  -16.9125   21.7442 C   0  0  2  0  0  0  0  0  0  0  0  0
  -32.6868  -20.6204   18.8528 C   0  0  0  0  0  0  0  0  0  0  0  0
  -23.6700  -21.4378   23.7281 N   0  0  0  0  0  0  0  0  0  0  0  0
  -24.2027  -20.6894   24.7091 N   0  0  0  0  0  0  0  0  0  0  0  0
  -29.4910  -21.4257   20.2680 N   0  0  0  0  0  0  0  0  0  0  0  0
  -24.1451  -16.8928   24.2723 N   0  0  0  0  0  0  0  0  0  0  0  0
  -24.7275  -20.6987   27.0189 N   0  0  0  0  0  0  0  0  0  0  0  0
  -22.8986  -24.7734   26.3496 N   0  0  0  0  0  0  0  0  0  0  0  0
  -28.3903  -24.9021   20.2732 N   0  0  0  0  0  0  0  0  0  0  0  0
  -22.8875  -16.9155   17.9231 N   0  0  0  0  0  0  0  0  0  0  0  0
  -20.8863  -13.2074   23.7010 N   0  0  0  0  0  0  0  0  0  0  0  0
  -31.8765  -19.0583   20.6714 N   0  0  0  0  0  0  0  0  0  0  0  0
  -23.7432  -15.9953   26.4232 N   0  0  0  0  0  0  0  0  0  0  0  0
  -30.7883  -15.9974   22.2572 N   0  3  0  0  0  0  0  0  0  0  0  0
  -23.8443  -23.3915   27.9164 O   0  0  0  0  0  0  0  0  0  0  0  0
  -29.3691  -23.4619   18.7271 O   0  0  0  0  0  0  0  0  0  0  0  0
  -31.5191  -21.8191   21.3488 O   0  0  0  0  0  0  0  0  0  0  0  0
  -24.0725  -15.0467   18.6428 O   0  0  0  0  0  0  0  0  0  0  0  0
  -22.7739  -12.6251   22.4727 O   0  0  0  0  0  0  0  0  0  0  0  0
  -30.4126  -17.4461   19.8746 O   0  0  0  0  0  0  0  0  0  0  0  0
  -24.6627  -14.6896   24.7781 O   0  0  0  0  0  0  0  0  0  0  0  0
  -20.9700  -26.7643   21.5172 O   0  0  0  0  0  0  0  0  0  0  0  0
  -24.2807  -19.4039   17.6568 O   0  0  0  0  0  0  0  0  0  1  0  0
  -22.4112  -14.6458   20.7226 O   0  0  0  0  0  0  0  0  0  0  0  0
  -22.2983  -13.5463   26.1355 O   0  0  0  0  0  0  0  0  0  0  0  0
  -16.6396  -29.2885   23.8152 F   0  0  0  0  0  0  0  0  0  0  0  0
  -21.2006  -28.0311   23.9636 F   0  0  0  0  0  0  0  0  0  0  0  0
  1  2  1  0  0  0  0
  1  5  2  0  0  0  0
  2  6  2  0  0  0  0
  3  8  2  0  0  0  0
  3 15  1  0  0  0  0
  4  9  1  0  0  0  0
  4 15  2  0  0  0  0
  5 17  1  0  0  0  0
  6 19  1  0  0  0  0
  7 10  2  0  0  0  0
  7 18  1  0  0  0  0
  8 21  1  0  0  0  0
  9 21  2  0  0  0  0
 10 22  1  0  0  0  0
 11 12  2  0  0  0  0
 11 23  1  0  0  0  0
 12 24  1  0  0  0  0
 13 20  1  0  0  0  0
 13 22  2  0  0  0  0
 14 24  2  0  0  0  0
 14 25  1  0  0  0  0
 15 26  1  0  0  0  0
 16 26  1  0  0  0  0
 16 27  2  0  0  0  0
 16 28  1  0  0  0  0
 17 19  2  0  0  0  0
 17 35  1  0  0  0  0
 18 20  2  0  0  0  0
 18 36  1  0  0  0  0
 19 44  1  0  0  0  0
 20 37  1  0  0  0  0
 21 82  1  0  0  0  0
 22 83  1  0  0  0  0
 23 25  2  0  0  0  0
 23 82  1  0  0  0  0
 24 86  1  0  0  0  0
 25 87  1  0  0  0  0
 26 63  2  0  0  0  0
 27 64  1  0  0  0  0
 27 67  1  0  0  0  0
 28 68  1  0  0  0  0
 28 75  2  0  0  0  0
 29 45  1  0  0  0  0
 29 69  1  0  0  0  0
 29 76  2  0  0  0  0
 30 60  1  0  0  0  0
 30 65  1  0  0  0  0
 30 77  2  0  0  0  0
 31 52  1  0  0  0  0
 31 70  1  0  0  0  0
 31 78  2  0  0  0  0
 32 53  1  0  0  0  0
 32 71  1  0  0  0  0
 32 79  2  0  0  0  0
 33 61  1  0  0  0  0
 33 72  1  0  0  0  0
 33 80  2  0  0  0  0
 34 66  1  0  0  0  0
 34 73  1  0  0  0  0
 34 81  2  0  0  0  0
 35 38  1  0  0  0  0
 36 45  1  0  0  0  0
 37 65  1  0  0  0  0
 38 40  1  0  0  0  0
 39 41  1  0  0  0  0
 39 42  1  0  0  0  0
 40 44  1  0  0  0  0
 41 46  1  0  0  0  0
 42 66  1  0  0  0  0
 43 46  1  0  0  0  0
 43 66  1  0  0  0  0
 44 69  1  0  0  0  0
 45 65  1  0  0  0  0
 46 64  1  0  0  0  0
 47 61  1  0  0  0  0
 48 62  1  0  0  0  0
 49 62  1  0  0  0  0
 50 62  1  0  0  0  0
 51 74  1  0  0  0  0
 52 84  1  0  0  0  0
 53 84  1  0  0  0  0
 54 57  1  0  0  0  0
 54 70  1  0  0  0  0
 55 58  1  0  0  0  0
 55 71  1  0  0  0  0
 56 59  1  0  0  0  0
 56 73  1  0  0  0  0
 57 83  1  0  0  0  0
 58 85  1  0  0  0  0
 59 85  1  0  0  0  0
 60 62  1  0  0  0  0
 60 72  1  0  0  0  0
 61 74  1  0  0  0  0
 63 64  1  0  0  0  0
M  CHG  1  74   1
M  ISO  4  34 100  57 101  73 100  83 101
M  END
> <Batch ID>
0000

> <Smiles>
CNC(C)C(=O)NC(C(=O)N1Cc2cc([101O:1][101CH2:1]CNC(=O)COCC(=O)NCCOCC[100NH:0][100C:0](=O)N3CCCC(n4nc(-c5ccc(Oc6ccc(F)cc6F)cc5)c(C(N)=O)c4N)C3)ccc2CC1C(=O)NC1CCCc2ccccc21)C(C)(C)C

> <Shape>
0.192

> <Color>
0.073

> <Negative vol penalty>
0.000

$$$$

  -OEChem-04042320113D

 82 90  0     1  0  0  0  0  0999 V2000
  -31.5700  -29.3725   14.1332 C   0  0  0  0  0  0  0  0  0  0  0  0
  -30.9651  -28.3806   14.8984 C   0  0  0  0  0  0  0  0  0  0  0  0
  -23.3193  -11.3270   16.6464 C   0  0  0  0  0  0  0  0  0  0  0  0
  -22.9594   -9.9740   18.6154 C   0  0  0  0  0  0  0  0  0  0  0  0
  -29.7590  -19.8285   19.6749 C   0  0  0  0  0  0  0  0  0  0  0  0
  -27.9099  -18.3073   19.9968 C   0  0  0  0  0  0  0  0  0  0  0  0
  -31.8582  -30.6121   14.7026 C   0  0  0  0  0  0  0  0  0  0  0  0
  -30.6490  -28.6274   16.2339 C   0  0  0  0  0  0  0  0  0  0  0  0
  -26.0123  -27.0053   17.4647 C   0  0  0  0  0  0  0  0  0  0  0  0
  -28.8632  -20.8895   19.5426 C   0  0  0  0  0  0  0  0  0  0  0  0
  -27.0140  -19.3682   19.8644 C   0  0  0  0  0  0  0  0  0  0  0  0
  -22.5127  -10.4633   15.9055 C   0  0  0  0  0  0  0  0  0  0  0  0
  -22.1527   -9.1103   17.8745 C   0  0  0  0  0  0  0  0  0  0  0  0
  -25.8543  -25.6381   17.6875 C   0  0  0  0  0  0  0  0  0  0  0  0
  -18.9814   -9.0526   16.7083 C   0  0  0  0  0  0  0  0  0  0  0  0
  -17.7759   -8.6446   17.2792 C   0  0  0  0  0  0  0  0  0  0  0  0
  -25.9497  -26.0210   20.0673 C   0  0  0  0  0  0  0  0  0  0  0  0
  -18.4983   -6.3423   17.1591 C   0  0  0  0  0  0  0  0  0  0  0  0
  -23.5427  -11.0823   18.0014 C   0  0  0  0  0  0  0  0  0  0  0  0
  -29.2824  -18.5374   19.9020 C   0  0  0  0  0  0  0  0  0  0  0  0
  -23.9684  -13.1178   19.4790 C   0  0  0  0  0  0  0  0  0  0  0  0
  -31.5367  -30.8775   16.0431 C   0  0  0  0  0  0  0  0  0  0  0  0
  -26.1513  -27.8908   18.5432 C   0  0  0  0  0  0  0  0  0  0  0  0
  -30.9344  -29.8712   16.8222 C   0  0  0  0  0  0  0  0  0  0  0  0
  -26.1067  -27.3992   19.8556 C   0  0  0  0  0  0  0  0  0  0  0  0
  -27.4907  -20.6593   19.6373 C   0  0  0  0  0  0  0  0  0  0  0  0
  -21.9294   -9.3550   16.5195 C   0  0  0  0  0  0  0  0  0  0  0  0
  -25.8259  -25.1454   18.9888 C   0  0  0  0  0  0  0  0  0  0  0  0
  -19.9454   -8.1054   16.3628 C   0  0  0  0  0  0  0  0  0  0  0  0
  -17.5343   -7.2895   17.5046 C   0  0  0  0  0  0  0  0  0  0  0  0
  -19.7038   -6.7503   16.5882 C   0  0  0  0  0  0  0  0  0  0  0  0
  -24.3763  -11.9738   18.7672 C   0  0  0  0  0  0  0  0  0  0  0  0
  -25.1260  -13.6103   20.0300 C   0  0  0  0  0  0  0  0  0  0  0  0
  -30.2364  -17.4074   20.0428 C   0  0  0  0  0  0  0  0  0  0  0  0
  -22.6599  -13.6846   19.6287 C   0  0  0  0  0  0  0  0  0  0  0  0
  -28.4242  -29.8800   19.5336 C   0  0  0  0  0  0  0  0  0  0  0  0
  -26.1768  -30.7454   21.7068 C   0  0  0  0  0  0  0  0  0  0  0  0
  -23.3652  -29.9157   23.4542 C   0  0  0  0  0  0  0  0  0  0  0  0
  -30.4873  -14.9694   19.7015 C   0  0  0  0  0  0  0  0  0  0  0  0
  -26.8719  -23.0677   19.2776 C   0  0  0  0  0  0  0  0  0  1  0  0
  -31.9106  -32.2165   16.6279 C   0  0  0  0  0  0  0  0  0  0  0  0
  -26.2942  -29.3660   18.2867 C   0  0  0  0  0  0  0  0  0  0  0  0
  -26.2313  -28.3105   21.0484 C   0  0  0  0  0  0  0  0  0  0  0  0
  -31.2029  -32.5250   17.9448 C   0  0  0  0  0  0  0  0  0  0  0  0
  -29.7521  -11.5729   20.3501 C   0  0  0  0  0  0  0  0  0  0  0  0
  -31.2662  -31.3213   18.8796 C   0  0  0  0  0  0  0  0  0  0  0  0
  -28.2519  -11.4670   20.0630 C   0  0  0  0  0  0  0  0  0  0  0  0
  -30.4525  -12.5128   19.3698 C   0  0  0  0  0  0  0  0  0  0  0  0
  -28.3575  -13.7387   18.9619 C   0  0  0  0  0  0  0  0  0  0  0  0
  -30.5537  -30.1092   18.2674 C   0  0  1  0  0  0  0  0  0  0  0  0
  -26.9425  -30.1142   19.4474 C   0  0  1  0  0  0  0  0  0  0  0  0
  -27.5950  -12.8585   19.9654 C   0  0  1  0  0  0  0  0  0  0  0  0
  -21.7839  -30.8137   25.1835 C   0  0  0  0  0  0  0  0  0  0  0  0
  -28.2491  -30.2033   23.8797 C   0  0  0  0  0  0  0  0  0  0  0  0
  -26.3873  -30.1864   25.5536 C   0  0  0  0  0  0  0  0  0  0  0  0
  -26.8669  -32.2552   24.2450 C   0  0  0  0  0  0  0  0  0  0  0  0
  -21.0654  -29.7641   21.5976 C   0  0  0  0  0  0  0  0  0  0  0  0
  -25.7921  -30.2796   23.0902 C   0  0  1  0  0  0  0  0  0  0  0  0
  -22.0707  -30.6704   23.6969 C   0  0  2  0  0  0  0  0  0  0  0  0
  -26.8234  -30.7134   24.1698 C   0  0  0  0  0  0  0  0  0  0  0  0
  -25.6905  -11.7527   18.8561 N   0  0  0  0  0  0  0  0  0  0  0  0
  -26.1185  -12.7645   19.6301 N   0  0  0  0  0  0  0  0  0  0  0  0
  -26.3754  -29.7440   20.7457 N   0  0  0  0  0  0  0  0  0  0  0  0
  -29.7760  -13.8109   19.3434 N   0  0  0  0  0  0  0  0  0  0  0  0
  -25.3818  -14.6801   20.8127 N   0  0  0  0  0  0  0  0  0  0  0  0
  -21.5813  -13.0518   18.9959 N   0  0  0  0  0  0  0  0  0  0  0  0
  -26.5838  -21.7351   19.5032 N   0  0  0  0  0  0  0  0  0  0  0  0
  -29.7411  -16.1530   19.6856 N   0  0  0  0  0  0  0  0  0  0  0  0
  -29.1190  -30.2476   18.3972 N   0  0  0  0  0  0  0  0  0  0  0  0
  -24.4388  -30.7713   23.3249 N   0  0  0  0  0  0  0  0  0  0  0  0
  -20.9271  -29.9541   23.0645 N   0  3  0  0  0  0  0  0  0  0  0  0
  -31.3838  -17.6364   20.4155 O   0  0  0  0  0  0  0  0  0  0  0  0
  -22.4558  -14.7307   20.2902 O   0  0  0  0  0  0  0  0  0  0  0  0
  -28.9019  -29.4024   20.5561 O   0  0  0  0  0  0  0  0  0  0  0  0
  -26.2897  -31.9536   21.4851 O   0  0  0  0  0  0  0  0  0  0  0  0
  -23.4194  -28.6895   23.3897 O   0  0  0  0  0  0  0  0  0  0  0  0
  -31.6740  -14.9470   20.0429 O   0  0  0  0  0  0  0  0  0  0  0  0
  -27.9761  -23.5839   19.1483 O   0  0  0  0  0  0  0  0  0  0  0  0
  -21.1420   -8.5121   15.7969 O   0  0  0  0  0  0  0  0  0  0  0  0
  -25.6724  -23.8113   19.2091 O   0  0  0  0  0  0  0  0  0  1  0  0
  -16.3773   -6.8979   18.0542 F   0  0  0  0  0  0  0  0  0  0  0  0
  -20.6265   -5.8358   16.2594 F   0  0  0  0  0  0  0  0  0  0  0  0
  1  2  1  0  0  0  0
  1  7  2  0  0  0  0
  2  8  2  0  0  0  0
  3 12  2  0  0  0  0
  3 19  1  0  0  0  0
  4 13  1  0  0  0  0
  4 19  2  0  0  0  0
  5 10  2  0  0  0  0
  5 20  1  0  0  0  0
  6 11  1  0  0  0  0
  6 20  2  0  0  0  0
  7 22  1  0  0  0  0
  8 24  1  0  0  0  0
  9 14  2  0  0  0  0
  9 23  1  0  0  0  0
 10 26  1  0  0  0  0
 11 26  2  0  0  0  0
 12 27  1  0  0  0  0
 13 27  2  0  0  0  0
 14 28  1  0  0  0  0
 15 16  2  0  0  0  0
 15 29  1  0  0  0  0
 16 30  1  0  0  0  0
 17 25  1  0  0  0  0
 17 28  2  0  0  0  0
 18 30  2  0  0  0  0
 18 31  1  0  0  0  0
 19 32  1  0  0  0  0
 20 34  1  0  0  0  0
 21 32  1  0  0  0  0
 21 33  2  0  0  0  0
 21 35  1  0  0  0  0
 22 24  2  0  0  0  0
 22 41  1  0  0  0  0
 23 25  2  0  0  0  0
 23 42  1  0  0  0  0
 24 50  1  0  0  0  0
 25 43  1  0  0  0  0
 26 67  1  0  0  0  0
 27 79  1  0  0  0  0
 28 80  1  0  0  0  0
 29 31  2  0  0  0  0
 29 79  1  0  0  0  0
 30 81  1  0  0  0  0
 31 82  1  0  0  0  0
 32 61  2  0  0  0  0
 33 62  1  0  0  0  0
 33 65  1  0  0  0  0
 34 68  1  0  0  0  0
 34 72  2  0  0  0  0
 35 66  1  0  0  0  0
 35 73  2  0  0  0  0
 36 51  1  0  0  0  0
 36 69  1  0  0  0  0
 36 74  2  0  0  0  0
 37 58  1  0  0  0  0
 37 63  1  0  0  0  0
 37 75  2  0  0  0  0
 38 59  1  0  0  0  0
 38 70  1  0  0  0  0
 38 76  2  0  0  0  0
 39 64  1  0  0  0  0
 39 68  1  0  0  0  0
 39 77  2  0  0  0  0
 40 67  1  0  0  0  0
 40 78  2  0  0  0  0
 40 80  1  0  0  0  0
 41 44  1  0  0  0  0
 42 51  1  0  0  0  0
 43 63  1  0  0  0  0
 44 46  1  0  0  0  0
 45 47  1  0  0  0  0
 45 48  1  0  0  0  0
 46 50  1  0  0  0  0
 47 52  1  0  0  0  0
 48 64  1  0  0  0  0
 49 52  1  0  0  0  0
 49 64  1  0  0  0  0
 50 69  1  0  0  0  0
 51 63  1  0  0  0  0
 52 62  1  0  0  0  0
 53 59  1  0  0  0  0
 54 60  1  0  0  0  0
 55 60  1  0  0  0  0
 56 60  1  0  0  0  0
 57 71  1  0  0  0  0
 58 60  1  0  0  0  0
 58 70  1  0  0  0  0
 59 71  1  0  0  0  0
 61 62  1  0  0  0  0
M  CHG  1  71   1
M  ISO  4  39 100  40 101  68 100  80 101
M  END
> <Batch ID>
0000

> <Smiles>
CNC(C)C(=O)NC(C(=O)N1Cc2cc([101O:1][101C:1](=O)Nc3ccc(C(=O)[100NH:0][100C:0](=O)N4CCCC(n5nc(-c6ccc(Oc7ccc(F)cc7F)cc6)c(C(N)=O)c5N)C4)cc3)ccc2CC1C(=O)NC1CCCc2ccccc21)C(C)(C)C

> <Shape>
0.218

> <Color>
0.140

> <Negative vol penalty>
0.000

$$$$

  -OEChem-04042320113D

 86 94  0     1  0  0  0  0  0999 V2000
  -31.9287  -29.5453   16.4880 C   0  0  0  0  0  0  0  0  0  0  0  0
  -31.4880  -28.5554   17.3605 C   0  0  0  0  0  0  0  0  0  0  0  0
  -28.5163  -12.5609   18.7886 C   0  0  0  0  0  0  0  0  0  0  0  0
  -28.6041  -13.4728   21.0242 C   0  0  0  0  0  0  0  0  0  0  0  0
  -31.4761  -30.8557   16.6363 C   0  0  0  0  0  0  0  0  0  0  0  0
  -30.5951  -28.8756   18.3826 C   0  0  0  0  0  0  0  0  0  0  0  0
  -26.8348  -25.5098   18.8025 C   0  0  0  0  0  0  0  0  0  0  0  0
  -26.1524  -18.9661   23.7026 C   0  0  0  0  0  0  0  0  0  0  0  0
  -24.1642  -20.2325   23.1732 C   0  0  0  0  0  0  0  0  0  0  0  0
  -29.2164  -13.6681   18.3095 C   0  0  0  0  0  0  0  0  0  0  0  0
  -29.3043  -14.5800   20.5451 C   0  0  0  0  0  0  0  0  0  0  0  0
  -27.1260  -24.3065   19.4437 C   0  0  0  0  0  0  0  0  0  0  0  0
  -28.6016  -17.4578   18.9156 C   0  0  0  0  0  0  0  0  0  0  0  0
  -28.2028  -18.7186   19.3595 C   0  0  0  0  0  0  0  0  0  0  0  0
  -25.3674  -17.9899   24.3159 C   0  0  0  0  0  0  0  0  0  0  0  0
  -23.3791  -19.2562   23.7865 C   0  0  0  0  0  0  0  0  0  0  0  0
  -26.1066  -25.1430   21.4636 C   0  0  0  0  0  0  0  0  0  0  0  0
  -30.3993  -19.0830   20.2975 C   0  0  0  0  0  0  0  0  0  0  0  0
  -28.2100  -12.4633   20.1460 C   0  0  0  0  0  0  0  0  0  0  0  0
  -28.0288  -10.1100   21.1139 C   0  0  0  0  0  0  0  0  0  0  0  0
  -30.5697  -31.1902   17.6547 C   0  0  0  0  0  0  0  0  0  0  0  0
  -26.1859  -26.5445   19.4915 C   0  0  0  0  0  0  0  0  0  0  0  0
  -30.1309  -30.1920   18.5455 C   0  0  0  0  0  0  0  0  0  0  0  0
  -25.8060  -26.3575   20.8282 C   0  0  0  0  0  0  0  0  0  0  0  0
  -25.5509  -20.0875   23.1313 C   0  0  0  0  0  0  0  0  0  0  0  0
  -29.6104  -14.6776   19.1877 C   0  0  0  0  0  0  0  0  0  0  0  0
  -26.7645  -24.1240   20.7752 C   0  0  0  0  0  0  0  0  0  0  0  0
  -29.8992  -17.0096   19.1627 C   0  0  0  0  0  0  0  0  0  0  0  0
  -29.1017  -19.5312   20.0505 C   0  0  0  0  0  0  0  0  0  0  0  0
  -30.7981  -17.8222   19.8536 C   0  0  0  0  0  0  0  0  0  0  0  0
  -23.9807  -18.1349   24.3578 C   0  0  0  0  0  0  0  0  0  0  0  0
  -27.4863  -11.3201   20.6415 C   0  0  0  0  0  0  0  0  0  0  0  0
  -26.9348   -9.3573   21.4649 C   0  0  0  0  0  0  0  0  0  0  0  0
  -29.3989   -9.7029   21.2257 C   0  0  0  0  0  0  0  0  0  0  0  0
  -26.9415  -29.5274   20.2887 C   0  0  0  0  0  0  0  0  0  0  0  0
  -23.8665  -29.6175   21.3177 C   0  0  0  0  0  0  0  0  0  0  0  0
  -21.1268  -27.9031   22.4137 C   0  0  0  0  0  0  0  0  0  0  0  0
  -21.3523  -10.9543   23.0347 C   0  0  0  0  0  0  0  0  0  0  0  0
  -25.9291  -22.2430   21.8971 C   0  0  0  0  0  0  0  0  0  1  0  0
  -30.1452  -32.6296   17.8048 C   0  0  0  0  0  0  0  0  0  0  0  0
  -25.8551  -27.8265   18.7777 C   0  0  0  0  0  0  0  0  0  0  0  0
  -25.0895  -27.4297   21.6063 C   0  0  0  0  0  0  0  0  0  0  0  0
  -28.9094  -32.8119   18.6822 C   0  0  0  0  0  0  0  0  0  0  0  0
  -22.3269   -8.7015   20.3938 C   0  0  0  0  0  0  0  0  0  0  0  0
  -29.0383  -31.9930   19.9626 C   0  0  0  0  0  0  0  0  0  0  0  0
  -23.8014   -9.0388   20.1760 C   0  0  0  0  0  0  0  0  0  0  0  0
  -21.5211   -9.9386   20.7770 C   0  0  0  0  0  0  0  0  0  0  0  0
  -23.5373  -11.0003   21.7594 C   0  0  0  0  0  0  0  0  0  0  0  0
  -29.1433  -30.4951   19.6513 C   0  0  1  0  0  0  0  0  0  0  0  0
  -25.6502  -29.0031   19.7269 C   0  0  1  0  0  0  0  0  0  0  0  0
  -24.3867   -9.7699   21.3973 C   0  0  2  0  0  0  0  0  0  0  0  0
  -18.7744  -28.2530   23.2145 C   0  0  0  0  0  0  0  0  0  0  0  0
  -24.9288  -30.5662   24.0161 C   0  0  0  0  0  0  0  0  0  0  0  0
  -22.7074  -29.9877   25.0155 C   0  0  0  0  0  0  0  0  0  0  0  0
  -22.8578  -31.7344   23.2410 C   0  0  0  0  0  0  0  0  0  0  0  0
  -20.0074  -26.3129   20.1827 C   0  0  0  0  0  0  0  0  0  0  0  0
  -21.3515  -11.9649   25.1881 C   0  0  0  0  0  0  0  0  0  0  0  0
  -22.2959  -12.6632   26.1474 C   0  0  0  0  0  0  0  0  0  0  0  0
  -23.6921  -14.5383   26.3868 C   0  0  0  0  0  0  0  0  0  0  0  0
  -24.2738  -15.7431   25.6642 C   0  0  0  0  0  0  0  0  0  0  0  0
  -23.1642  -29.3037   22.6167 C   0  0  1  0  0  0  0  0  0  0  0  0
  -19.6646  -27.9781   22.0125 C   0  0  2  0  0  0  0  0  0  0  0  0
  -23.4298  -30.3783   23.7085 C   0  0  0  0  0  0  0  0  0  0  0  0
  -26.1516  -11.3393   20.6866 N   0  0  0  0  0  0  0  0  0  0  0  0
  -25.8461  -10.1319   21.1915 N   0  0  0  0  0  0  0  0  0  0  0  0
  -24.7939  -28.6676   20.8664 N   0  0  0  0  0  0  0  0  0  0  0  0
  -22.1247  -10.6313   21.9147 N   0  0  0  0  0  0  0  0  0  0  0  0
  -26.8077   -8.1149   21.9774 N   0  0  0  0  0  0  0  0  0  0  0  0
  -30.3974  -10.5990   20.8202 N   0  0  0  0  0  0  0  0  0  0  0  0
  -26.3464  -21.0767   22.5097 N   0  0  0  0  0  0  0  0  0  0  0  0
  -27.8405  -29.9532   19.3296 N   0  0  0  0  0  0  0  0  0  0  0  0
  -21.7548  -29.1239   22.2856 N   0  0  0  0  0  0  0  0  0  0  0  0
  -19.2316  -26.6949   21.3906 N   0  3  0  0  0  0  0  0  0  0  0  0
  -29.7275   -8.5716   21.6567 O   0  0  0  0  0  0  0  0  0  0  0  0
  -27.1091  -29.5456   21.5025 O   0  0  0  0  0  0  0  0  0  0  0  0
  -23.5968  -30.6632   20.7216 O   0  0  0  0  0  0  0  0  0  0  0  0
  -21.6576  -26.8661   22.8053 O   0  0  0  0  0  0  0  0  0  0  0  0
  -20.1559  -10.6942   23.1496 O   0  0  0  0  0  0  0  0  0  0  0  0
  -24.7811  -22.6532   21.7703 O   0  0  0  0  0  0  0  0  0  0  0  0
  -30.2939  -15.7580   18.7206 O   0  0  0  0  0  0  0  0  0  0  0  0
  -27.0481  -22.9508   21.4036 O   0  0  0  0  0  0  0  0  0  1  0  0
  -22.0720  -11.5990   24.0056 O   0  0  0  0  0  0  0  0  0  0  0  0
  -22.7979  -13.8405   25.5299 O   0  0  0  0  0  0  0  0  0  0  0  0
  -28.7190  -20.7425   20.4754 F   0  0  0  0  0  0  0  0  0  0  0  0
  -32.0464  -17.3976   20.0929 F   0  0  0  0  0  0  0  0  0  0  0  0
  -22.9779  -16.8875   25.1414 S   0  0  0  0  0  0  0  0  0  0  0  0
  1  2  1  0  0  0  0
  1  5  2  0  0  0  0
  2  6  2  0  0  0  0
  3 10  2  0  0  0  0
  3 19  1  0  0  0  0
  4 11  1  0  0  0  0
  4 19  2  0  0  0  0
  5 21  1  0  0  0  0
  6 23  1  0  0  0  0
  7 12  2  0  0  0  0
  7 22  1  0  0  0  0
  8 15  2  0  0  0  0
  8 25  1  0  0  0  0
  9 16  1  0  0  0  0
  9 25  2  0  0  0  0
 10 26  1  0  0  0  0
 11 26  2  0  0  0  0
 12 27  1  0  0  0  0
 13 14  2  0  0  0  0
 13 28  1  0  0  0  0
 14 29  1  0  0  0  0
 15 31  1  0  0  0  0
 16 31  2  0  0  0  0
 17 24  1  0  0  0  0
 17 27  2  0  0  0  0
 18 29  2  0  0  0  0
 18 30  1  0  0  0  0
 19 32  1  0  0  0  0
 20 32  1  0  0  0  0
 20 33  2  0  0  0  0
 20 34  1  0  0  0  0
 21 23  2  0  0  0  0
 21 40  1  0  0  0  0
 22 24  2  0  0  0  0
 22 41  1  0  0  0  0
 23 49  1  0  0  0  0
 24 42  1  0  0  0  0
 25 70  1  0  0  0  0
 26 80  1  0  0  0  0
 27 81  1  0  0  0  0
 28 30  2  0  0  0  0
 28 80  1  0  0  0  0
 29 84  1  0  0  0  0
 30 85  1  0  0  0  0
 31 86  1  0  0  0  0
 32 64  2  0  0  0  0
 33 65  1  0  0  0  0
 33 68  1  0  0  0  0
 34 69  1  0  0  0  0
 34 74  2  0  0  0  0
 35 50  1  0  0  0  0
 35 71  1  0  0  0  0
 35 75  2  0  0  0  0
 36 61  1  0  0  0  0
 36 66  1  0  0  0  0
 36 76  2  0  0  0  0
 37 62  1  0  0  0  0
 37 72  1  0  0  0  0
 37 77  2  0  0  0  0
 38 67  1  0  0  0  0
 38 78  2  0  0  0  0
 38 82  1  0  0  0  0
 39 70  1  0  0  0  0
 39 79  2  0  0  0  0
 39 81  1  0  0  0  0
 40 43  1  0  0  0  0
 41 50  1  0  0  0  0
 42 66  1  0  0  0  0
 43 45  1  0  0  0  0
 44 46  1  0  0  0  0
 44 47  1  0  0  0  0
 45 49  1  0  0  0  0
 46 51  1  0  0  0  0
 47 67  1  0  0  0  0
 48 51  1  0  0  0  0
 48 67  1  0  0  0  0
 49 71  1  0  0  0  0
 50 66  1  0  0  0  0
 51 65  1  0  0  0  0
 52 62  1  0  0  0  0
 53 63  1  0  0  0  0
 54 63  1  0  0  0  0
 55 63  1  0  0  0  0
 56 73  1  0  0  0  0
 57 58  1  0  0  0  0
 57 82  1  0  0  0  0
 58 83  1  0  0  0  0
 59 60  1  0  0  0  0
 59 83  1  0  0  0  0
 60 86  1  0  0  0  0
 61 63  1  0  0  0  0
 61 72  1  0  0  0  0
 62 73  1  0  0  0  0
 64 65  1  0  0  0  0
M  CHG  1  73   1
M  ISO  4  38 100  39 101  81 101  82 100
M  END
> <Batch ID>
0000

> <Smiles>
CNC(C)C(=O)NC(C(=O)N1Cc2cc([101O:1][101C:1](=O)Nc3ccc(SCCOCC[100O:0][100C:0](=O)N4CCCC(n5nc(-c6ccc(Oc7ccc(F)cc7F)cc6)c(C(N)=O)c5N)C4)cc3)ccc2CC1C(=O)NC1CCCc2ccccc21)C(C)(C)C

> <Shape>
0.227

> <Color>
0.066

> <Negative vol penalty>
0.000

$$$$

  -OEChem-04042320113D

105113  0     1  0  0  0  0  0999 V2000
  -30.2318  -30.4163   25.8419 C   0  0  0  0  0  0  0  0  0  0  0  0
  -29.7360  -29.4858   24.9343 C   0  0  0  0  0  0  0  0  0  0  0  0
  -30.5264  -16.6868   20.1626 C   0  0  0  0  0  0  0  0  0  0  0  0
  -30.9880  -15.5675   22.2534 C   0  0  0  0  0  0  0  0  0  0  0  0
  -27.9097  -19.1345   20.7878 C   0  0  0  0  0  0  0  0  0  0  0  0
  -25.7828  -20.2732   20.9163 C   0  0  0  0  0  0  0  0  0  0  0  0
  -28.4212  -20.1769   20.0150 C   0  0  0  0  0  0  0  0  0  0  0  0
  -26.2943  -21.3157   20.1435 C   0  0  0  0  0  0  0  0  0  0  0  0
  -29.3512  -31.1784   26.6084 C   0  0  0  0  0  0  0  0  0  0  0  0
  -28.3591  -29.3160   24.7935 C   0  0  0  0  0  0  0  0  0  0  0  0
  -26.9193  -29.0563   19.9454 C   0  0  0  0  0  0  0  0  0  0  0  0
  -31.2429  -17.8004   20.6006 C   0  0  0  0  0  0  0  0  0  0  0  0
  -31.7045  -16.6812   22.6914 C   0  0  0  0  0  0  0  0  0  0  0  0
  -27.1287  -27.8476   19.2829 C   0  0  0  0  0  0  0  0  0  0  0  0
  -30.7329  -20.4438   22.6443 C   0  0  0  0  0  0  0  0  0  0  0  0
  -30.1673  -21.7013   22.4336 C   0  0  0  0  0  0  0  0  0  0  0  0
  -24.8107  -27.2695   19.6174 C   0  0  0  0  0  0  0  0  0  0  0  0
  -32.0791  -22.3378   21.1004 C   0  0  0  0  0  0  0  0  0  0  0  0
  -30.3989  -15.5703   20.9890 C   0  0  0  0  0  0  0  0  0  0  0  0
  -26.5905  -19.1826   21.2384 C   0  0  0  0  0  0  0  0  0  0  0  0
  -27.6135  -21.2676   19.6929 C   0  0  0  0  0  0  0  0  0  0  0  0
  -30.1597  -13.3092   19.8324 C   0  0  0  0  0  0  0  0  0  0  0  0
  -27.9627  -31.0248   26.4700 C   0  0  0  0  0  0  0  0  0  0  0  0
  -25.6545  -29.3764   20.4593 C   0  0  0  0  0  0  0  0  0  0  0  0
  -27.4591  -30.0759   25.5599 C   0  0  0  0  0  0  0  0  0  0  0  0
  -24.5872  -28.4840   20.2838 C   0  0  0  0  0  0  0  0  0  0  0  0
  -31.8320  -17.7977   21.8649 C   0  0  0  0  0  0  0  0  0  0  0  0
  -26.0751  -26.9527   19.1213 C   0  0  0  0  0  0  0  0  0  0  0  0
  -31.9716  -20.1333   22.0831 C   0  0  0  0  0  0  0  0  0  0  0  0
  -30.8404  -22.6483   21.6617 C   0  0  0  0  0  0  0  0  0  0  0  0
  -32.6447  -21.0803   21.3112 C   0  0  0  0  0  0  0  0  0  0  0  0
  -29.6583  -14.4197   20.5373 C   0  0  0  0  0  0  0  0  0  0  0  0
  -29.0657  -12.5008   19.6421 C   0  0  0  0  0  0  0  0  0  0  0  0
  -26.0575  -18.0960   22.0444 C   0  0  0  0  0  0  0  0  0  0  0  0
  -28.1589  -22.3788   18.8713 C   0  0  0  0  0  0  0  0  0  0  0  0
  -31.4950  -13.0329   19.3892 C   0  0  0  0  0  0  0  0  0  0  0  0
  -24.4917  -29.9486   23.3618 C   0  0  0  0  0  0  0  0  0  0  0  0
  -21.7926  -30.6691   21.7133 C   0  0  0  0  0  0  0  0  0  0  0  0
  -22.5149  -15.7700   23.9869 C   0  0  0  0  0  0  0  0  0  0  0  0
  -19.9396  -30.2760   18.8745 C   0  0  0  0  0  0  0  0  0  0  0  0
  -23.8915  -11.8814   22.5908 C   0  0  0  0  0  0  0  0  0  0  0  0
  -27.0507  -31.8377   27.3544 C   0  0  0  0  0  0  0  0  0  0  0  0
  -25.4385  -30.6960   21.1480 C   0  0  0  0  0  0  0  0  0  0  0  0
  -23.2053  -28.7893   20.7991 C   0  0  0  0  0  0  0  0  0  0  0  0
  -25.6014  -31.8628   26.8755 C   0  0  0  0  0  0  0  0  0  0  0  0
  -24.3106  -12.6901   19.1488 C   0  0  0  0  0  0  0  0  0  0  0  0
  -25.1356  -30.4571   26.5097 C   0  0  0  0  0  0  0  0  0  0  0  0
  -25.7739  -13.1249   19.0508 C   0  0  0  0  0  0  0  0  0  0  0  0
  -23.6766  -13.1349   20.4650 C   0  0  0  0  0  0  0  0  0  0  0  0
  -25.8753  -13.1602   21.5781 C   0  0  0  0  0  0  0  0  0  0  0  0
  -25.9717  -29.8804   25.3608 C   0  0  1  0  0  0  0  0  0  0  0  0
  -24.2324  -30.6922   22.0822 C   0  0  1  0  0  0  0  0  0  0  0  0
  -26.5736  -12.6859   20.2921 C   0  0  2  0  0  0  0  0  0  0  0  0
  -17.7605  -30.9589   17.8341 C   0  0  0  0  0  0  0  0  0  0  0  0
  -20.3187  -28.6882   23.5060 C   0  0  0  0  0  0  0  0  0  0  0  0
  -18.4386  -28.6978   21.8527 C   0  0  0  0  0  0  0  0  0  0  0  0
  -19.0668  -30.8017   23.0365 C   0  0  0  0  0  0  0  0  0  0  0  0
  -21.3047  -31.6194   16.6182 C   0  0  0  0  0  0  0  0  0  0  0  0
  -23.2211  -16.7854   23.1066 C   0  0  0  0  0  0  0  0  0  0  0  0
  -23.7129  -11.4771   25.8794 C   0  0  0  0  0  0  0  0  0  0  0  0
  -24.3991  -17.4465   23.8090 C   0  0  0  0  0  0  0  0  0  0  0  0
  -24.2663  -10.6610   24.7190 C   0  0  0  0  0  0  0  0  0  0  0  0
  -27.6101  -24.1833   17.2593 C   0  0  0  0  0  0  0  0  0  0  0  0
  -20.6044  -14.1762   23.9381 C   0  0  0  0  0  0  0  0  0  0  0  0
  -24.7492  -12.4083   26.4967 C   0  0  0  0  0  0  0  0  0  0  0  0
  -27.5936  -25.5145   17.9891 C   0  0  0  0  0  0  0  0  0  1  0  0
  -19.4401  -14.8477   24.6432 C   0  0  0  0  0  0  0  0  0  0  0  0
  -25.0586  -14.0264   28.1726 C   0  0  0  0  0  0  0  0  0  0  0  0
  -18.9344  -15.9842   26.6370 C   0  0  0  0  0  0  0  0  0  0  0  0
  -24.3453  -14.7888   29.2725 C   0  0  0  0  0  0  0  0  0  0  0  0
  -19.5279  -16.8689   27.7163 C   0  0  0  0  0  0  0  0  0  0  0  0
  -22.5750  -16.2765   29.6918 C   0  0  0  0  0  0  0  0  0  0  0  0
  -21.4714  -17.0721   29.0218 C   0  0  0  0  0  0  0  0  0  0  0  0
  -20.5906  -29.8897   21.2370 C   0  0  1  0  0  0  0  0  0  0  0  0
  -19.2388  -31.2838   17.9814 C   0  0  2  0  0  0  0  0  0  0  0  0
  -19.6300  -29.5125   22.3999 C   0  0  0  0  0  0  0  0  0  0  0  0
  -28.3478  -14.3286   20.7785 N   0  0  0  0  0  0  0  0  0  0  0  0
  -28.0164  -13.1511   20.2218 N   0  0  0  0  0  0  0  0  0  0  0  0
  -23.0460  -30.0895   21.4710 N   0  0  0  0  0  0  0  0  0  0  0  0
  -24.4829  -12.6855   21.6025 N   0  0  0  0  0  0  0  0  0  0  0  0
  -28.9086  -11.3043   19.0371 N   0  0  0  0  0  0  0  0  0  0  0  0
  -32.4990  -13.9701   19.6684 N   0  0  0  0  0  0  0  0  0  0  0  0
  -25.0168  -18.4100   22.9264 N   0  0  0  0  0  0  0  0  0  0  0  0
  -27.2338  -23.0954   18.1225 N   0  0  0  0  0  0  0  0  0  0  0  0
  -25.5513  -30.4455   24.0965 N   0  0  0  0  0  0  0  0  0  0  0  0
  -21.4459  -15.1800   23.3285 N   0  0  0  0  0  0  0  0  0  0  0  0
  -19.9723  -30.6935   20.1882 N   0  0  0  0  0  0  0  0  0  0  0  0
  -24.7275  -11.4941   23.6309 N   0  0  0  0  0  0  0  0  0  0  0  0
  -19.8558  -31.2910   16.6249 N   0  3  0  0  0  0  0  0  0  0  0  0
  -26.5335  -16.9503   21.9540 O   0  0  0  0  0  0  0  0  0  0  0  0
  -29.3685  -22.5916   18.8771 O   0  0  0  0  0  0  0  0  0  0  0  0
  -31.7859  -11.9937   18.7497 O   0  0  0  0  0  0  0  0  0  0  0  0
  -23.7821  -28.9954   23.6612 O   0  0  0  0  0  0  0  0  0  0  0  0
  -21.6258  -31.7556   22.2731 O   0  0  0  0  0  0  0  0  0  0  0  0
  -22.8658  -15.5174   25.1362 O   0  0  0  0  0  0  0  0  0  0  0  0
  -20.4076  -29.2219   18.4499 O   0  0  0  0  0  0  0  0  0  0  0  0
  -22.7077  -11.5299   22.5465 O   0  0  0  0  0  0  0  0  0  0  0  0
  -32.5315  -18.8842   22.2926 O   0  0  0  0  0  0  0  0  0  0  0  0
  -26.2770  -25.7719   18.4756 O   0  0  0  0  0  0  0  0  0  1  0  0
  -24.1386  -13.1357   27.5533 O   0  0  0  0  0  0  0  0  0  0  0  0
  -19.9361  -15.6952   25.6715 O   0  0  0  0  0  0  0  0  0  0  0  0
  -23.2818  -15.5387   28.7022 O   0  0  0  0  0  0  0  0  0  0  0  0
  -20.5987  -16.1768   28.3470 O   0  0  0  0  0  0  0  0  0  0  0  0
  -30.2964  -23.8553   21.4581 F   0  0  0  0  0  0  0  0  0  0  0  0
  -33.8344  -20.7873   20.7684 F   0  0  0  0  0  0  0  0  0  0  0  0
  1  2  1  0  0  0  0
  1  9  2  0  0  0  0
  2 10  2  0  0  0  0
  3 12  2  0  0  0  0
  3 19  1  0  0  0  0
  4 13  1  0  0  0  0
  4 19  2  0  0  0  0
  5  7  2  0  0  0  0
  5 20  1  0  0  0  0
  6  8  1  0  0  0  0
  6 20  2  0  0  0  0
  7 21  1  0  0  0  0
  8 21  2  0  0  0  0
  9 23  1  0  0  0  0
 10 25  1  0  0  0  0
 11 14  2  0  0  0  0
 11 24  1  0  0  0  0
 12 27  1  0  0  0  0
 13 27  2  0  0  0  0
 14 28  1  0  0  0  0
 15 16  2  0  0  0  0
 15 29  1  0  0  0  0
 16 30  1  0  0  0  0
 17 26  1  0  0  0  0
 17 28  2  0  0  0  0
 18 30  2  0  0  0  0
 18 31  1  0  0  0  0
 19 32  1  0  0  0  0
 20 34  1  0  0  0  0
 21 35  1  0  0  0  0
 22 32  1  0  0  0  0
 22 33  2  0  0  0  0
 22 36  1  0  0  0  0
 23 25  2  0  0  0  0
 23 42  1  0  0  0  0
 24 26  2  0  0  0  0
 24 43  1  0  0  0  0
 25 51  1  0  0  0  0
 26 44  1  0  0  0  0
 27 98  1  0  0  0  0
 28 99  1  0  0  0  0
 29 31  2  0  0  0  0
 29 98  1  0  0  0  0
 30104  1  0  0  0  0
 31105  1  0  0  0  0
 32 77  2  0  0  0  0
 33 78  1  0  0  0  0
 33 81  1  0  0  0  0
 34 83  1  0  0  0  0
 34 90  2  0  0  0  0
 35 84  1  0  0  0  0
 35 91  2  0  0  0  0
 36 82  1  0  0  0  0
 36 92  2  0  0  0  0
 37 52  1  0  0  0  0
 37 85  1  0  0  0  0
 37 93  2  0  0  0  0
 38 74  1  0  0  0  0
 38 79  1  0  0  0  0
 38 94  2  0  0  0  0
 39 59  1  0  0  0  0
 39 86  1  0  0  0  0
 39 95  2  0  0  0  0
 40 75  1  0  0  0  0
 40 87  1  0  0  0  0
 40 96  2  0  0  0  0
 41 80  1  0  0  0  0
 41 88  1  0  0  0  0
 41 97  2  0  0  0  0
 42 45  1  0  0  0  0
 43 52  1  0  0  0  0
 44 79  1  0  0  0  0
 45 47  1  0  0  0  0
 46 48  1  0  0  0  0
 46 49  1  0  0  0  0
 47 51  1  0  0  0  0
 48 53  1  0  0  0  0
 49 80  1  0  0  0  0
 50 53  1  0  0  0  0
 50 80  1  0  0  0  0
 51 85  1  0  0  0  0
 52 79  1  0  0  0  0
 53 78  1  0  0  0  0
 54 75  1  0  0  0  0
 55 76  1  0  0  0  0
 56 76  1  0  0  0  0
 57 76  1  0  0  0  0
 58 89  1  0  0  0  0
 59 61  1  0  0  0  0
 60 62  1  0  0  0  0
 60 65  1  0  0  0  0
 61 83  1  0  0  0  0
 62 88  1  0  0  0  0
 63 66  1  0  0  0  0
 63 84  1  0  0  0  0
 64 67  1  0  0  0  0
 64 86  1  0  0  0  0
 65100  1  0  0  0  0
 66 99  1  0  0  0  0
 67101  1  0  0  0  0
 68 70  1  0  0  0  0
 68100  1  0  0  0  0
 69 71  1  0  0  0  0
 69101  1  0  0  0  0
 70102  1  0  0  0  0
 71103  1  0  0  0  0
 72 73  1  0  0  0  0
 72102  1  0  0  0  0
 73103  1  0  0  0  0
 74 76  1  0  0  0  0
 74 87  1  0  0  0  0
 75 89  1  0  0  0  0
 77 78  1  0  0  0  0
M  CHG  1  89   1
M  ISO  4  41 100  66 101  88 100  99 101
M  END
> <Batch ID>
0000

> <Smiles>
CNC(C)C(=O)NC(C(=O)N1Cc2cc([101O:1][101CH2:1]CNC(=O)c3ccc(C(=O)NCCC(=O)NCCOCCOCCOCCOCCC[100NH:0][100C:0](=O)N4CCCC(n5nc(-c6ccc(Oc7ccc(F)cc7F)cc6)c(C(N)=O)c5N)C4)cc3)ccc2CC1C(=O)NC1CCCc2ccccc21)C(C)(C)C

> <Shape>
0.266

> <Color>
0.072

> <Negative vol penalty>
0.000

$$$$

  -OEChem-04042320113D

 88 96  0     1  0  0  0  0  0999 V2000
  -17.2152  -26.3606   22.1033 C   0  0  0  0  0  0  0  0  0  0  0  0
  -18.4952  -25.9119   21.7937 C   0  0  0  0  0  0  0  0  0  0  0  0
  -21.6248  -14.5213   19.6622 C   0  0  0  0  0  0  0  0  0  0  0  0
  -22.1384  -13.7436   21.8912 C   0  0  0  0  0  0  0  0  0  0  0  0
  -17.0369  -27.6278   22.6567 C   0  0  0  0  0  0  0  0  0  0  0  0
  -19.5975  -26.7307   22.0364 C   0  0  0  0  0  0  0  0  0  0  0  0
  -23.4315  -24.2341   24.2072 C   0  0  0  0  0  0  0  0  0  0  0  0
  -20.3898  -13.8757   19.7215 C   0  0  0  0  0  0  0  0  0  0  0  0
  -20.9033  -13.0980   21.9505 C   0  0  0  0  0  0  0  0  0  0  0  0
  -24.2180  -23.4323   23.3812 C   0  0  0  0  0  0  0  0  0  0  0  0
  -16.9513  -12.7336   19.4256 C   0  0  0  0  0  0  0  0  0  0  0  0
  -15.8308  -13.4352   18.9809 C   0  0  0  0  0  0  0  0  0  0  0  0
  -28.9208  -20.5284   22.1596 C   0  0  0  0  0  0  0  0  0  0  0  0
  -25.8873  -25.1715   23.2927 C   0  0  0  0  0  0  0  0  0  0  0  0
  -16.2301  -15.1327   20.6530 C   0  0  0  0  0  0  0  0  0  0  0  0
  -27.7948  -21.5211   20.4813 C   0  0  0  0  0  0  0  0  0  0  0  0
  -22.4991  -14.4552   20.7471 C   0  0  0  0  0  0  0  0  0  0  0  0
  -27.9153  -21.4781   21.8528 C   0  0  0  0  0  0  0  0  0  0  0  0
  -24.0647  -16.4415   21.0804 C   0  0  0  0  0  0  0  0  0  0  0  0
  -18.1384  -28.4587   22.9153 C   0  0  0  0  0  0  0  0  0  0  0  0
  -23.8627  -25.5170   24.5739 C   0  0  0  0  0  0  0  0  0  0  0  0
  -19.4336  -28.0108   22.5926 C   0  0  0  0  0  0  0  0  0  0  0  0
  -25.1056  -25.9866   24.1255 C   0  0  0  0  0  0  0  0  0  0  0  0
  -20.0290  -13.1641   20.8656 C   0  0  0  0  0  0  0  0  0  0  0  0
  -25.4448  -23.9021   22.9215 C   0  0  0  0  0  0  0  0  0  0  0  0
  -17.7112  -13.2315   20.4841 C   0  0  0  0  0  0  0  0  0  0  0  0
  -15.4702  -14.6347   19.5946 C   0  0  0  0  0  0  0  0  0  0  0  0
  -17.3506  -14.4311   21.0978 C   0  0  0  0  0  0  0  0  0  0  0  0
  -23.7753  -15.1214   20.6862 C   0  0  0  0  0  0  0  0  0  0  0  0
  -29.3843  -20.0201   20.9662 C   0  0  0  0  0  0  0  0  0  0  0  0
  -25.4059  -16.5901   20.8241 C   0  0  0  0  0  0  0  0  0  0  0  0
  -23.1987  -17.4438   21.6292 C   0  0  0  0  0  0  0  0  0  0  0  0
  -27.1127  -22.2976   22.7968 C   0  0  0  0  0  0  0  0  0  1  0  0
  -30.4020  -19.0323   20.7754 C   0  0  0  0  0  0  0  0  0  0  0  0
  -22.7645  -28.4661   24.1257 C   0  0  0  0  0  0  0  0  0  0  0  0
  -25.2112  -29.2591   26.1023 C   0  0  0  0  0  0  0  0  0  0  0  0
  -28.2604  -28.4531   27.4059 C   0  0  0  0  0  0  0  0  0  0  0  0
  -30.6395  -14.6614   21.0117 C   0  0  0  0  0  0  0  0  0  0  0  0
  -17.8918  -29.8391   23.4707 C   0  0  0  0  0  0  0  0  0  0  0  0
  -23.0147  -26.3591   25.4873 C   0  0  0  0  0  0  0  0  0  0  0  0
  -25.6233  -27.3486   24.5069 C   0  0  0  0  0  0  0  0  0  0  0  0
  -19.1440  -30.4975   24.0442 C   0  0  0  0  0  0  0  0  0  0  0  0
  -28.6167  -13.6332   18.2680 C   0  0  0  0  0  0  0  0  0  0  0  0
  -20.3180  -30.3395   23.0831 C   0  0  0  0  0  0  0  0  0  0  0  0
  -27.2008  -14.0319   18.6878 C   0  0  0  0  0  0  0  0  0  0  0  0
  -29.4427  -13.1486   19.4575 C   0  0  0  0  0  0  0  0  0  0  0  0
  -28.0774  -14.4812   21.0177 C   0  0  0  0  0  0  0  0  0  0  0  0
  -20.6564  -28.8599   22.8642 C   0  0  1  0  0  0  0  0  0  0  0  0
  -23.3189  -27.8501   25.3790 C   0  0  1  0  0  0  0  0  0  0  0  0
  -27.2239  -15.0296   19.8614 C   0  0  2  0  0  0  0  0  0  0  0  0
  -30.0257  -29.3155   28.9672 C   0  0  0  0  0  0  0  0  0  0  0  0
  -26.1286  -31.2377   23.9683 C   0  0  0  0  0  0  0  0  0  0  0  0
  -28.3441  -31.3549   25.1287 C   0  0  0  0  0  0  0  0  0  0  0  0
  -26.2765  -32.0909   26.3145 C   0  0  0  0  0  0  0  0  0  0  0  0
  -27.9725  -26.1211   29.2054 C   0  0  0  0  0  0  0  0  0  0  0  0
  -27.7636  -17.4240   14.7980 C   0  0  0  0  0  0  0  0  0  0  0  0
  -28.1903  -19.1098   18.0437 C   0  0  0  0  0  0  0  0  0  0  0  0
  -28.8707  -20.3857   18.5386 C   0  0  0  0  0  0  0  0  0  0  0  0
  -32.0799  -17.5107   21.8940 C   0  0  0  0  0  0  0  0  0  0  0  0
  -31.6929  -16.2320   22.6188 C   0  0  0  0  0  0  0  0  0  0  0  0
  -28.3327  -18.8923   16.5424 C   0  0  0  0  0  0  0  0  0  0  0  0
  -26.6635  -29.6250   25.9123 C   0  0  1  0  0  0  0  0  0  0  0  0
  -28.7784  -28.4557   28.8329 C   0  0  2  0  0  0  0  0  0  0  0  0
  -26.8428  -31.0522   25.3220 C   0  0  0  0  0  0  0  0  0  0  0  0
  -24.8464  -14.4773   20.2152 N   0  0  0  0  0  0  0  0  0  0  0  0
  -28.6929  -20.6309   19.9529 N   0  0  0  0  0  0  0  0  0  0  0  0
  -25.8219  -15.3966   20.3117 N   0  0  0  0  0  0  0  0  0  0  0  0
  -24.7547  -28.1368   25.3968 N   0  0  0  0  0  0  0  0  0  0  0  0
  -29.4250  -14.1410   20.5350 N   0  0  0  0  0  0  0  0  0  0  0  0
  -26.2581  -17.6240   20.9893 N   0  0  0  0  0  0  0  0  0  0  0  0
  -21.8486  -17.1243   21.8279 N   0  0  0  0  0  0  0  0  0  0  0  0
  -31.0232  -18.4962   21.9226 N   0  0  0  0  0  0  0  0  0  0  0  0
  -21.3950  -28.3378   23.9939 N   0  0  0  0  0  0  0  0  0  0  0  0
  -27.3066  -29.4287   27.2070 N   0  0  0  0  0  0  0  0  0  0  0  0
  -30.5328  -15.6015   22.0293 N   0  0  0  0  0  0  0  0  0  0  0  0
  -29.1145  -27.0695   29.2645 N   0  3  0  0  0  0  0  0  0  0  0  0
  -23.6064  -18.5942   21.9189 O   0  0  0  0  0  0  0  0  0  0  0  0
  -27.2407  -22.2374   24.0105 O   0  0  0  0  0  0  0  0  0  0  0  0
  -30.7505  -18.6650   19.6262 O   0  0  0  0  0  0  0  0  0  0  0  0
  -23.5230  -29.0182   23.3372 O   0  0  0  0  0  0  0  0  0  0  0  0
  -24.5096  -29.9398   26.8547 O   0  0  0  0  0  0  0  0  0  0  0  0
  -28.6644  -27.6668   26.5521 O   0  0  0  0  0  0  0  0  0  0  0  0
  -31.7372  -14.3180   20.5600 O   0  0  0  0  0  0  0  0  0  0  0  0
  -18.8239  -12.5342   20.9239 O   0  0  0  0  0  0  0  0  0  0  0  0
  -26.2142  -23.1218   22.1146 O   0  0  0  0  0  0  0  0  0  1  0  0
  -27.6867  -17.6744   16.1946 O   0  0  0  0  0  0  0  0  0  0  0  0
  -14.3950  -15.3092   19.1665 F   0  0  0  0  0  0  0  0  0  0  0  0
  -18.0775  -14.9151   22.1143 F   0  0  0  0  0  0  0  0  0  0  0  0
  1  2  1  0  0  0  0
  1  5  2  0  0  0  0
  2  6  2  0  0  0  0
  3  8  2  0  0  0  0
  3 17  1  0  0  0  0
  4  9  1  0  0  0  0
  4 17  2  0  0  0  0
  5 20  1  0  0  0  0
  6 22  1  0  0  0  0
  7 10  2  0  0  0  0
  7 21  1  0  0  0  0
  8 24  1  0  0  0  0
  9 24  2  0  0  0  0
 10 25  1  0  0  0  0
 11 12  2  0  0  0  0
 11 26  1  0  0  0  0
 12 27  1  0  0  0  0
 13 18  1  0  0  0  0
 13 30  2  0  0  0  0
 14 23  1  0  0  0  0
 14 25  2  0  0  0  0
 15 27  2  0  0  0  0
 15 28  1  0  0  0  0
 16 18  2  0  0  0  0
 16 66  1  0  0  0  0
 17 29  1  0  0  0  0
 18 33  1  0  0  0  0
 19 29  1  0  0  0  0
 19 31  2  0  0  0  0
 19 32  1  0  0  0  0
 20 22  2  0  0  0  0
 20 39  1  0  0  0  0
 21 23  2  0  0  0  0
 21 40  1  0  0  0  0
 22 48  1  0  0  0  0
 23 41  1  0  0  0  0
 24 84  1  0  0  0  0
 25 85  1  0  0  0  0
 26 28  2  0  0  0  0
 26 84  1  0  0  0  0
 27 87  1  0  0  0  0
 28 88  1  0  0  0  0
 29 65  2  0  0  0  0
 30 34  1  0  0  0  0
 30 66  1  0  0  0  0
 31 67  1  0  0  0  0
 31 70  1  0  0  0  0
 32 71  1  0  0  0  0
 32 77  2  0  0  0  0
 33 78  2  0  0  0  0
 33 85  1  0  0  0  0
 34 72  1  0  0  0  0
 34 79  2  0  0  0  0
 35 49  1  0  0  0  0
 35 73  1  0  0  0  0
 35 80  2  0  0  0  0
 36 62  1  0  0  0  0
 36 68  1  0  0  0  0
 36 81  2  0  0  0  0
 37 63  1  0  0  0  0
 37 74  1  0  0  0  0
 37 82  2  0  0  0  0
 38 69  1  0  0  0  0
 38 75  1  0  0  0  0
 38 83  2  0  0  0  0
 39 42  1  0  0  0  0
 40 49  1  0  0  0  0
 41 68  1  0  0  0  0
 42 44  1  0  0  0  0
 43 45  1  0  0  0  0
 43 46  1  0  0  0  0
 44 48  1  0  0  0  0
 45 50  1  0  0  0  0
 46 69  1  0  0  0  0
 47 50  1  0  0  0  0
 47 69  1  0  0  0  0
 48 73  1  0  0  0  0
 49 68  1  0  0  0  0
 50 67  1  0  0  0  0
 51 63  1  0  0  0  0
 52 64  1  0  0  0  0
 53 64  1  0  0  0  0
 54 64  1  0  0  0  0
 55 76  1  0  0  0  0
 56 86  1  0  0  0  0
 57 58  1  0  0  0  0
 57 61  1  0  0  0  0
 58 66  1  0  0  0  0
 59 60  1  0  0  0  0
 59 72  1  0  0  0  0
 60 75  1  0  0  0  0
 61 86  1  0  0  0  0
 62 64  1  0  0  0  0
 62 74  1  0  0  0  0
 63 76  1  0  0  0  0
 65 67  1  0  0  0  0
M  CHG  1  76   1
M  ISO  4  33 101  38 100  75 100  85 101
M  END
> <Batch ID>
0000

> <Smiles>
CNC(C)C(=O)NC(C(=O)N1Cc2cc([101O:1][101C:1](=O)c3cc(C(=O)NCC[100NH:0][100C:0](=O)N4CCCC(n5nc(-c6ccc(Oc7ccc(F)cc7F)cc6)c(C(N)=O)c5N)C4)n(CCCOC)c3)ccc2CC1C(=O)NC1CCCc2ccccc21)C(C)(C)C

> <Shape>
0.230

> <Color>
0.071

> <Negative vol penalty>
0.000

$$$$

  -OEChem-04042320113D

 91 98  0     1  0  0  0  0  0999 V2000
  -28.6922  -30.2579   16.6752 C   0  0  0  0  0  0  0  0  0  0  0  0
  -29.2497  -29.2613   17.4699 C   0  0  0  0  0  0  0  0  0  0  0  0
  -23.0682   -9.8734   19.9425 C   0  0  0  0  0  0  0  0  0  0  0  0
  -23.8472   -9.8671   22.2294 C   0  0  0  0  0  0  0  0  0  0  0  0
  -27.5280  -30.9057   17.0860 C   0  0  0  0  0  0  0  0  0  0  0  0
  -28.6438  -28.9128   18.6765 C   0  0  0  0  0  0  0  0  0  0  0  0
  -28.3927  -23.3356   21.1940 C   0  0  0  0  0  0  0  0  0  0  0  0
  -22.3234   -8.7210   20.1930 C   0  0  0  0  0  0  0  0  0  0  0  0
  -23.1024   -8.7147   22.4800 C   0  0  0  0  0  0  0  0  0  0  0  0
  -29.1498  -22.7215   22.1907 C   0  0  0  0  0  0  0  0  0  0  0  0
  -19.8772   -7.9224   23.1056 C   0  0  0  0  0  0  0  0  0  0  0  0
  -19.1300   -7.8787   24.2825 C   0  0  0  0  0  0  0  0  0  0  0  0
  -27.4850  -23.3352   23.8250 C   0  0  0  0  0  0  0  0  0  0  0  0
  -20.3723   -5.9343   24.9990 C   0  0  0  0  0  0  0  0  0  0  0  0
  -23.8302  -10.4464   20.9607 C   0  0  0  0  0  0  0  0  0  0  0  0
  -24.1778  -12.9712   20.8503 C   0  0  0  0  0  0  0  0  0  0  0  0
  -26.9021  -30.5582   18.2936 C   0  0  0  0  0  0  0  0  0  0  0  0
  -27.1794  -23.9647   21.5077 C   0  0  0  0  0  0  0  0  0  0  0  0
  -27.4708  -29.5575   19.1045 C   0  0  0  0  0  0  0  0  0  0  0  0
  -26.7132  -23.9544   22.8301 C   0  0  0  0  0  0  0  0  0  0  0  0
  -22.3404   -8.1417   21.4617 C   0  0  0  0  0  0  0  0  0  0  0  0
  -28.6974  -22.7237   23.5069 C   0  0  0  0  0  0  0  0  0  0  0  0
  -20.8720   -6.9721   22.8752 C   0  0  0  0  0  0  0  0  0  0  0  0
  -19.3775   -6.8847   25.2293 C   0  0  0  0  0  0  0  0  0  0  0  0
  -21.1195   -5.9781   23.8220 C   0  0  0  0  0  0  0  0  0  0  0  0
  -24.6003  -11.6365   20.7024 C   0  0  0  0  0  0  0  0  0  0  0  0
  -25.2689  -13.7196   20.4816 C   0  0  0  0  0  0  0  0  0  0  0  0
  -22.9122  -13.4883   21.2823 C   0  0  0  0  0  0  0  0  0  0  0  0
  -26.0785  -26.9401   21.3097 C   0  0  0  0  0  0  0  0  0  0  0  0
  -23.2923  -25.5554   22.2276 C   0  0  0  0  0  0  0  0  0  0  0  0
  -21.7251  -22.9589   23.7924 C   0  0  0  0  0  0  0  0  0  0  0  0
  -30.7567  -14.7233   20.6290 C   0  0  0  0  0  0  0  0  0  0  0  0
  -25.6714  -31.3193   18.7187 C   0  0  0  0  0  0  0  0  0  0  0  0
  -26.3615  -24.5995   20.4166 C   0  0  0  0  0  0  0  0  0  0  0  0
  -25.4074  -24.5983   23.2156 C   0  0  0  0  0  0  0  0  0  0  0  0
  -24.8833  -30.6312   19.8303 C   0  0  0  0  0  0  0  0  0  0  0  0
  -29.5928  -12.3536   18.2402 C   0  0  0  0  0  0  0  0  0  0  0  0
  -25.8214  -30.1615   20.9376 C   0  0  0  0  0  0  0  0  0  0  0  0
  -28.1583  -12.0615   18.6837 C   0  0  0  0  0  0  0  0  0  0  0  0
  -30.5205  -12.5661   19.4344 C   0  0  0  0  0  0  0  0  0  0  0  0
  -28.6324  -13.2953   20.8405 C   0  0  0  0  0  0  0  0  0  0  0  0
  -26.8292  -29.1342   20.4080 C   0  0  1  0  0  0  0  0  0  0  0  0
  -25.3919  -25.6571   20.9350 C   0  0  1  0  0  0  0  0  0  0  0  0
  -27.6480  -13.1291   19.6702 C   0  0  2  0  0  0  0  0  0  0  0  0
  -19.8265  -21.5222   24.5851 C   0  0  0  0  0  0  0  0  0  0  0  0
  -23.1645  -27.6023   24.4868 C   0  0  0  0  0  0  0  0  0  0  0  0
  -21.4440  -26.1635   25.5994 C   0  0  0  0  0  0  0  0  0  0  0  0
  -20.9776  -27.1558   23.3587 C   0  0  0  0  0  0  0  0  0  0  0  0
  -21.7264  -21.3756   21.2920 C   0  0  0  0  0  0  0  0  0  0  0  0
  -30.8386  -16.8675   21.8759 C   0  0  0  0  0  0  0  0  0  0  0  0
  -27.4654  -16.9307   26.5596 C   0  0  0  0  0  0  0  0  0  0  0  0
  -25.4805  -18.2628   25.8354 C   0  0  0  0  0  0  0  0  0  0  0  0
  -30.5448  -18.0098   20.9199 C   0  0  0  0  0  0  0  0  0  0  0  0
  -28.9638  -16.8119   26.3621 C   0  0  0  0  0  0  0  0  0  0  0  0
  -25.0869  -19.4593   24.9919 C   0  0  0  0  0  0  0  0  0  0  0  0
  -30.8506  -22.1052   24.3051 C   0  0  0  0  0  0  0  0  0  1  0  0
  -31.4867  -21.3957   25.4848 C   0  0  0  0  0  0  0  0  0  0  0  0
  -28.8193  -19.3175   20.0061 C   0  0  0  0  0  0  0  0  0  0  0  0
  -31.0091  -17.9352   26.6404 C   0  0  0  0  0  0  0  0  0  0  0  0
  -25.0699  -20.3125   22.8023 C   0  0  0  0  0  0  0  0  0  0  0  0
  -27.3154  -19.5129   19.9997 C   0  0  0  0  0  0  0  0  0  0  0  0
  -31.5735  -19.3427   26.6252 C   0  0  0  0  0  0  0  0  0  0  0  0
  -25.4724  -20.0018   21.3735 C   0  0  0  0  0  0  0  0  0  0  0  0
  -22.6334  -25.2549   23.5522 C   0  0  1  0  0  0  0  0  0  0  0  0
  -20.5502  -22.0928   23.3754 C   0  0  2  0  0  0  0  0  0  0  0  0
  -22.0805  -26.5336   24.2426 C   0  0  0  0  0  0  0  0  0  0  0  0
  -25.8614  -11.5394   20.2731 N   0  0  0  0  0  0  0  0  0  0  0  0
  -26.2406  -12.8226   20.1479 N   0  0  0  0  0  0  0  0  0  0  0  0
  -24.6468  -25.2114   22.1141 N   0  0  0  0  0  0  0  0  0  0  0  0
  -29.9802  -13.5916   20.3300 N   0  0  0  0  0  0  0  0  0  0  0  0
  -25.4822  -15.0509   20.4133 N   0  0  0  0  0  0  0  0  0  0  0  0
  -21.9007  -12.5802   21.6236 N   0  0  0  0  0  0  0  0  0  0  0  0
  -26.2021  -27.8376   20.2664 N   0  0  0  0  0  0  0  0  0  0  0  0
  -21.6237  -24.2366   23.2840 N   0  0  0  0  0  0  0  0  0  0  0  0
  -30.1671  -15.6495   21.4806 N   0  0  0  0  0  0  0  0  0  0  0  0
  -21.0173  -20.9587   22.5290 N   0  3  0  0  0  0  0  0  0  0  0  0
  -26.9522  -18.0625   25.7473 N   0  3  0  0  0  0  0  0  0  0  0  0
  -22.6798  -14.7193   21.3477 O   0  0  0  0  0  0  0  0  0  0  0  0
  -26.4660  -27.1041   22.4607 O   0  0  0  0  0  0  0  0  0  0  0  0
  -22.6279  -26.0697   21.3245 O   0  0  0  0  0  0  0  0  0  0  0  0
  -22.6395  -22.5445   24.5015 O   0  0  0  0  0  0  0  0  0  0  0  0
  -31.8893  -14.8980   20.1668 O   0  0  0  0  0  0  0  0  0  0  0  0
  -21.6135   -7.0173   21.7066 O   0  0  0  0  0  0  0  0  0  0  0  0
  -29.4347  -22.1255   24.4818 O   0  0  0  0  0  0  0  0  0  1  0  0
  -29.1452  -18.2524   20.8907 O   0  0  0  0  0  0  0  0  0  0  0  0
  -29.5982  -18.0026   26.8074 O   0  0  0  0  0  0  0  0  0  0  0  0
  -25.4220  -19.2141   23.6324 O   0  0  0  0  0  0  0  0  0  0  0  0
  -31.0082  -20.0571   25.5350 O   0  0  0  0  0  0  0  0  0  0  0  0
  -26.8806  -19.8081   21.3196 O   0  0  0  0  0  0  0  0  0  0  0  0
  -18.6609   -6.8437   26.3602 F   0  0  0  0  0  0  0  0  0  0  0  0
  -22.0747   -5.0630   23.6068 F   0  0  0  0  0  0  0  0  0  0  0  0
  1  2  1  0  0  0  0
  1  5  2  0  0  0  0
  2  6  2  0  0  0  0
  3  8  2  0  0  0  0
  3 15  1  0  0  0  0
  4  9  1  0  0  0  0
  4 15  2  0  0  0  0
  5 17  1  0  0  0  0
  6 19  1  0  0  0  0
  7 10  2  0  0  0  0
  7 18  1  0  0  0  0
  8 21  1  0  0  0  0
  9 21  2  0  0  0  0
 10 22  1  0  0  0  0
 11 12  2  0  0  0  0
 11 23  1  0  0  0  0
 12 24  1  0  0  0  0
 13 20  1  0  0  0  0
 13 22  2  0  0  0  0
 14 24  2  0  0  0  0
 14 25  1  0  0  0  0
 15 26  1  0  0  0  0
 16 26  1  0  0  0  0
 16 27  2  0  0  0  0
 16 28  1  0  0  0  0
 17 19  2  0  0  0  0
 17 33  1  0  0  0  0
 18 20  2  0  0  0  0
 18 34  1  0  0  0  0
 19 42  1  0  0  0  0
 20 35  1  0  0  0  0
 21 83  1  0  0  0  0
 22 84  1  0  0  0  0
 23 25  2  0  0  0  0
 23 83  1  0  0  0  0
 24 90  1  0  0  0  0
 25 91  1  0  0  0  0
 26 67  2  0  0  0  0
 27 68  1  0  0  0  0
 27 71  1  0  0  0  0
 28 72  1  0  0  0  0
 28 78  2  0  0  0  0
 29 43  1  0  0  0  0
 29 73  1  0  0  0  0
 29 79  2  0  0  0  0
 30 64  1  0  0  0  0
 30 69  1  0  0  0  0
 30 80  2  0  0  0  0
 31 65  1  0  0  0  0
 31 74  1  0  0  0  0
 31 81  2  0  0  0  0
 32 70  1  0  0  0  0
 32 75  1  0  0  0  0
 32 82  2  0  0  0  0
 33 36  1  0  0  0  0
 34 43  1  0  0  0  0
 35 69  1  0  0  0  0
 36 38  1  0  0  0  0
 37 39  1  0  0  0  0
 37 40  1  0  0  0  0
 38 42  1  0  0  0  0
 39 44  1  0  0  0  0
 40 70  1  0  0  0  0
 41 44  1  0  0  0  0
 41 70  1  0  0  0  0
 42 73  1  0  0  0  0
 43 69  1  0  0  0  0
 44 68  1  0  0  0  0
 45 65  1  0  0  0  0
 46 66  1  0  0  0  0
 47 66  1  0  0  0  0
 48 66  1  0  0  0  0
 49 76  1  0  0  0  0
 50 53  1  0  0  0  0
 50 75  1  0  0  0  0
 51 54  1  0  0  0  0
 51 77  1  0  0  0  0
 52 55  1  0  0  0  0
 52 77  1  0  0  0  0
 53 85  1  0  0  0  0
 54 86  1  0  0  0  0
 55 87  1  0  0  0  0
 56 57  1  0  0  0  0
 56 84  1  0  0  0  0
 57 88  1  0  0  0  0
 58 61  1  0  0  0  0
 58 85  1  0  0  0  0
 59 62  1  0  0  0  0
 59 86  1  0  0  0  0
 60 63  1  0  0  0  0
 60 87  1  0  0  0  0
 61 89  1  0  0  0  0
 62 88  1  0  0  0  0
 63 89  1  0  0  0  0
 64 66  1  0  0  0  0
 64 74  1  0  0  0  0
 65 76  1  0  0  0  0
 67 68  1  0  0  0  0
M  CHG  2  76   1  77   1
M  ISO  4  32 100  56 101  75 100  84 101
M  END
> <Batch ID>
0000

> <Smiles>
CNC(C)C(=O)NC(C(=O)N1Cc2cc([101O:1][101CH2:1]COCCOCCNCCOCCOCCOCC[100NH:0][100C:0](=O)N3CCCC(n4nc(-c5ccc(Oc6ccc(F)cc6F)cc5)c(C(N)=O)c4N)C3)ccc2CC1C(=O)NC1CCCc2ccccc21)C(C)(C)C

> <Shape>
0.239

> <Color>
0.179

> <Negative vol penalty>
0.000

$$$$

  -OEChem-04042320113D

 87 95  0     1  0  0  0  0  0999 V2000
  -28.2862  -24.6317   16.5179 C   0  0  0  0  0  0  0  0  0  0  0  0
  -27.0997  -24.7848   17.2280 C   0  0  0  0  0  0  0  0  0  0  0  0
  -22.9481  -22.3423   20.8025 C   0  0  0  0  0  0  0  0  0  0  0  0
  -29.6909  -18.4068   22.1264 C   0  0  0  0  0  0  0  0  0  0  0  0
  -27.6594  -17.8581   20.9395 C   0  0  0  0  0  0  0  0  0  0  0  0
  -22.9265  -21.2357   21.6513 C   0  0  0  0  0  0  0  0  0  0  0  0
  -29.4734  -25.1590   17.0244 C   0  0  0  0  0  0  0  0  0  0  0  0
  -27.0999  -25.4644   18.4456 C   0  0  0  0  0  0  0  0  0  0  0  0
  -23.2489  -28.7280   18.8494 C   0  0  0  0  0  0  0  0  0  0  0  0
  -21.7521  -22.8788   20.3254 C   0  0  0  0  0  0  0  0  0  0  0  0
  -30.3605  -17.3855   21.4526 C   0  0  0  0  0  0  0  0  0  0  0  0
  -28.3290  -16.8368   20.2655 C   0  0  0  0  0  0  0  0  0  0  0  0
  -21.9952  -28.1991   19.1531 C   0  0  0  0  0  0  0  0  0  0  0  0
  -29.4107  -13.8522   18.4958 C   0  0  0  0  0  0  0  0  0  0  0  0
  -28.7685  -12.6190   18.3847 C   0  0  0  0  0  0  0  0  0  0  0  0
  -20.5130  -21.2018   21.5458 C   0  0  0  0  0  0  0  0  0  0  0  0
  -22.2922  -28.8357   21.4609 C   0  0  0  0  0  0  0  0  0  0  0  0
  -28.6962  -12.4397   20.7929 C   0  0  0  0  0  0  0  0  0  0  0  0
  -28.3403  -18.6431   21.8700 C   0  0  0  0  0  0  0  0  0  0  0  0
  -21.7090  -20.6654   22.0229 C   0  0  0  0  0  0  0  0  0  0  0  0
  -27.5199  -21.0406   22.1641 C   0  0  0  0  0  0  0  0  0  0  0  0
  -29.4864  -25.8538   18.2441 C   0  0  0  0  0  0  0  0  0  0  0  0
  -24.0396  -29.3060   19.8530 C   0  0  0  0  0  0  0  0  0  0  0  0
  -28.2886  -26.0003   18.9695 C   0  0  0  0  0  0  0  0  0  0  0  0
  -23.5545  -29.3736   21.1668 C   0  0  0  0  0  0  0  0  0  0  0  0
  -20.5346  -22.3085   20.6970 C   0  0  0  0  0  0  0  0  0  0  0  0
  -29.6796  -16.6005   20.5221 C   0  0  0  0  0  0  0  0  0  0  0  0
  -21.5179  -28.2503   20.4595 C   0  0  0  0  0  0  0  0  0  0  0  0
  -29.6958  -14.3792   19.7555 C   0  0  0  0  0  0  0  0  0  0  0  0
  -28.4112  -11.9128   19.5332 C   0  0  0  0  0  0  0  0  0  0  0  0
  -29.3385  -13.6729   20.9040 C   0  0  0  0  0  0  0  0  0  0  0  0
  -27.6479  -19.6976   22.5662 C   0  0  0  0  0  0  0  0  0  0  0  0
  -26.7785  -21.6280   23.1599 C   0  0  0  0  0  0  0  0  0  0  0  0
  -21.6869  -19.5120   22.9084 C   0  0  0  0  0  0  0  0  0  0  0  0
  -28.0259  -21.6984   20.9949 C   0  0  0  0  0  0  0  0  0  0  0  0
  -26.8908  -28.6711   21.1065 C   0  0  0  0  0  0  0  0  0  0  0  0
  -26.3777  -31.4510   22.6973 C   0  0  0  0  0  0  0  0  0  0  0  0
  -24.1404  -33.7273   23.9054 C   0  0  0  0  0  0  0  0  0  0  0  0
  -22.8918  -19.3009   27.1170 C   0  0  0  0  0  0  0  0  0  0  0  0
  -30.8025  -26.3651   18.7743 C   0  0  0  0  0  0  0  0  0  0  0  0
  -25.3784  -29.8961   19.5040 C   0  0  0  0  0  0  0  0  0  0  0  0
  -24.3558  -30.0017   22.2767 C   0  0  0  0  0  0  0  0  0  0  0  0
  -30.6506  -27.3967   19.8892 C   0  0  0  0  0  0  0  0  0  0  0  0
  -25.8168  -21.2863   27.8257 C   0  0  0  0  0  0  0  0  0  0  0  0
  -29.6285  -26.9241   20.9182 C   0  0  0  0  0  0  0  0  0  0  0  0
  -26.6235  -21.1906   26.5312 C   0  0  0  0  0  0  0  0  0  0  0  0
  -25.0585  -19.9934   28.1086 C   0  0  0  0  0  0  0  0  0  0  0  0
  -24.9724  -19.4632   25.6861 C   0  0  0  0  0  0  0  0  0  0  0  0
  -28.2439  -26.7527   20.2818 C   0  0  1  0  0  0  0  0  0  0  0  0
  -26.3166  -29.9995   20.7026 C   0  0  1  0  0  0  0  0  0  0  0  0
  -25.7299  -20.7604   25.3543 C   0  0  2  0  0  0  0  0  0  0  0  0
  -24.0186  -35.8766   25.1951 C   0  0  0  0  0  0  0  0  0  0  0  0
  -26.9304  -29.9281   25.2828 C   0  0  0  0  0  0  0  0  0  0  0  0
  -25.8850  -31.8235   26.5408 C   0  0  0  0  0  0  0  0  0  0  0  0
  -27.9403  -32.2138   25.1822 C   0  0  0  0  0  0  0  0  0  0  0  0
  -22.8676  -35.1480   21.6425 C   0  0  0  0  0  0  0  0  0  0  0  0
  -19.2467  -22.8860   20.1831 C   0  0  0  0  0  0  0  0  0  0  0  0
  -20.3803  -18.2549   24.6398 C   0  0  0  0  0  0  0  0  0  0  0  0
  -18.6785  -23.9694   21.0951 C   0  0  0  0  0  0  0  0  0  0  0  0
  -20.8912  -18.6284   26.0198 C   0  0  0  0  0  0  0  0  0  0  0  0
  -20.1144  -27.2122   22.0746 C   0  0  0  0  0  0  0  0  0  1  0  0
  -19.1003  -26.0857   22.0257 C   0  0  0  0  0  0  0  0  0  0  0  0
  -25.7339  -31.8288   24.0094 C   0  0  1  0  0  0  0  0  0  0  0  0
  -24.0962  -35.2420   23.8152 C   0  0  2  0  0  0  0  0  0  0  0  0
  -26.6079  -31.4349   25.2335 C   0  0  0  0  0  0  0  0  0  0  0  0
  -27.0369  -19.4464   23.7271 N   0  0  0  0  0  0  0  0  0  0  0  0
  -26.5179  -20.6397   24.0630 N   0  0  0  0  0  0  0  0  0  0  0  0
  -25.6614  -30.5592   21.8865 N   0  0  0  0  0  0  0  0  0  0  0  0
  -24.2503  -19.5918   26.9579 N   0  0  0  0  0  0  0  0  0  0  0  0
  -26.3305  -22.8883   23.3425 N   0  0  0  0  0  0  0  0  0  0  0  0
  -28.7680  -20.9466   20.0738 N   0  0  0  0  0  0  0  0  0  0  0  0
  -20.5428  -19.3371   23.6957 N   0  0  0  0  0  0  0  0  0  0  0  0
  -27.6054  -28.0396   20.1064 N   0  0  0  0  0  0  0  0  0  0  0  0
  -25.4354  -33.2542   23.9222 N   0  0  0  0  0  0  0  0  0  0  0  0
  -22.9082  -35.6797   23.0291 N   0  3  0  0  0  0  0  0  0  0  0  0
  -22.6603  -18.7397   22.9636 O   0  0  0  0  0  0  0  0  0  0  0  0
  -27.8399  -22.9204   20.7817 O   0  0  0  0  0  0  0  0  0  0  0  0
  -26.7010  -28.2508   22.2418 O   0  0  0  0  0  0  0  0  0  0  0  0
  -27.4725  -31.9352   22.3993 O   0  0  0  0  0  0  0  0  0  0  0  0
  -23.1274  -33.0335   23.9596 O   0  0  0  0  0  0  0  0  0  0  0  0
  -22.2923  -19.3564   28.1892 O   0  0  0  0  0  0  0  0  0  0  0  0
  -30.3327  -15.6040   19.8641 O   0  0  0  0  0  0  0  0  0  0  0  0
  -20.2948  -27.7341   20.7588 O   0  0  0  0  0  0  0  0  0  1  0  0
  -22.2864  -18.9427   25.9417 O   0  0  0  0  0  0  0  0  0  0  0  0
  -19.5942  -25.0522   21.1824 O   0  0  0  0  0  0  0  0  0  0  0  0
  -27.7931  -10.7293   19.4264 F   0  0  0  0  0  0  0  0  0  0  0  0
  -29.6086  -14.1746   22.1169 F   0  0  0  0  0  0  0  0  0  0  0  0
  1  2  1  0  0  0  0
  1  7  2  0  0  0  0
  2  8  2  0  0  0  0
  3  6  1  0  0  0  0
  3 10  2  0  0  0  0
  4 11  2  0  0  0  0
  4 19  1  0  0  0  0
  5 12  1  0  0  0  0
  5 19  2  0  0  0  0
  6 20  2  0  0  0  0
  7 22  1  0  0  0  0
  8 24  1  0  0  0  0
  9 13  2  0  0  0  0
  9 23  1  0  0  0  0
 10 26  1  0  0  0  0
 11 27  1  0  0  0  0
 12 27  2  0  0  0  0
 13 28  1  0  0  0  0
 14 15  2  0  0  0  0
 14 29  1  0  0  0  0
 15 30  1  0  0  0  0
 16 20  1  0  0  0  0
 16 26  2  0  0  0  0
 17 25  1  0  0  0  0
 17 28  2  0  0  0  0
 18 30  2  0  0  0  0
 18 31  1  0  0  0  0
 19 32  1  0  0  0  0
 20 34  1  0  0  0  0
 21 32  1  0  0  0  0
 21 33  2  0  0  0  0
 21 35  1  0  0  0  0
 22 24  2  0  0  0  0
 22 40  1  0  0  0  0
 23 25  2  0  0  0  0
 23 41  1  0  0  0  0
 24 49  1  0  0  0  0
 25 42  1  0  0  0  0
 26 57  1  0  0  0  0
 27 82  1  0  0  0  0
 28 83  1  0  0  0  0
 29 31  2  0  0  0  0
 29 82  1  0  0  0  0
 30 86  1  0  0  0  0
 31 87  1  0  0  0  0
 32 66  2  0  0  0  0
 33 67  1  0  0  0  0
 33 70  1  0  0  0  0
 34 72  1  0  0  0  0
 34 76  2  0  0  0  0
 35 71  1  0  0  0  0
 35 77  2  0  0  0  0
 36 50  1  0  0  0  0
 36 73  1  0  0  0  0
 36 78  2  0  0  0  0
 37 63  1  0  0  0  0
 37 68  1  0  0  0  0
 37 79  2  0  0  0  0
 38 64  1  0  0  0  0
 38 74  1  0  0  0  0
 38 80  2  0  0  0  0
 39 69  1  0  0  0  0
 39 81  2  0  0  0  0
 39 84  1  0  0  0  0
 40 43  1  0  0  0  0
 41 50  1  0  0  0  0
 42 68  1  0  0  0  0
 43 45  1  0  0  0  0
 44 46  1  0  0  0  0
 44 47  1  0  0  0  0
 45 49  1  0  0  0  0
 46 51  1  0  0  0  0
 47 69  1  0  0  0  0
 48 51  1  0  0  0  0
 48 69  1  0  0  0  0
 49 73  1  0  0  0  0
 50 68  1  0  0  0  0
 51 67  1  0  0  0  0
 52 64  1  0  0  0  0
 53 65  1  0  0  0  0
 54 65  1  0  0  0  0
 55 65  1  0  0  0  0
 56 75  1  0  0  0  0
 57 59  1  0  0  0  0
 58 60  1  0  0  0  0
 58 72  1  0  0  0  0
 59 85  1  0  0  0  0
 60 84  1  0  0  0  0
 61 62  1  0  0  0  0
 61 83  1  0  0  0  0
 62 85  1  0  0  0  0
 63 65  1  0  0  0  0
 63 74  1  0  0  0  0
 64 75  1  0  0  0  0
 66 67  1  0  0  0  0
M  CHG  1  75   1
M  ISO  4  39 100  61 101  83 101  84 100
M  END
> <Batch ID>
0000

> <Smiles>
CNC(C)C(=O)NC(C(=O)N1Cc2cc([101O:1][101CH2:1]COCCc3cccc(C(=O)NCC[100O:0][100C:0](=O)N4CCCC(n5nc(-c6ccc(Oc7ccc(F)cc7F)cc6)c(C(N)=O)c5N)C4)c3)ccc2CC1C(=O)NC1CCCc2ccccc21)C(C)(C)C

> <Shape>
0.283

> <Color>
0.071

> <Negative vol penalty>
0.000

$$$$

  -OEChem-04042320113D

 87 95  0     1  0  0  0  0  0999 V2000
  -25.3817  -29.7023   20.2532 C   0  0  0  0  0  0  0  0  0  0  0  0
  -25.0358  -28.4889   19.6672 C   0  0  0  0  0  0  0  0  0  0  0  0
  -28.5289  -12.7676   21.3165 C   0  0  0  0  0  0  0  0  0  0  0  0
  -27.7879  -13.2976   19.0789 C   0  0  0  0  0  0  0  0  0  0  0  0
  -26.7217  -30.0003   20.4975 C   0  0  0  0  0  0  0  0  0  0  0  0
  -26.0299  -27.5732   19.3241 C   0  0  0  0  0  0  0  0  0  0  0  0
  -24.8607  -22.8368   20.6824 C   0  0  0  0  0  0  0  0  0  0  0  0
  -17.5572  -13.0210   17.3100 C   0  0  0  0  0  0  0  0  0  0  0  0
  -17.6762  -13.3543   19.6999 C   0  0  0  0  0  0  0  0  0  0  0  0
  -17.9878  -11.7042   17.4722 C   0  0  0  0  0  0  0  0  0  0  0  0
  -18.1068  -12.0375   19.8622 C   0  0  0  0  0  0  0  0  0  0  0  0
  -29.8333  -13.1173   20.9675 C   0  0  0  0  0  0  0  0  0  0  0  0
  -29.0922  -13.6474   18.7298 C   0  0  0  0  0  0  0  0  0  0  0  0
  -23.9571  -22.1476   19.8748 C   0  0  0  0  0  0  0  0  0  0  0  0
  -31.9566  -12.0607   17.8881 C   0  0  0  0  0  0  0  0  0  0  0  0
  -32.4503  -11.5899   16.6715 C   0  0  0  0  0  0  0  0  0  0  0  0
  -25.7925  -20.9963   18.8141 C   0  0  0  0  0  0  0  0  0  0  0  0
  -32.7852  -13.8640   15.9275 C   0  0  0  0  0  0  0  0  0  0  0  0
  -27.5062  -12.8576   20.3723 C   0  0  0  0  0  0  0  0  0  0  0  0
  -25.1643  -13.3404   21.2612 C   0  0  0  0  0  0  0  0  0  0  0  0
  -27.7319  -29.0837   20.1661 C   0  0  0  0  0  0  0  0  0  0  0  0
  -26.2399  -22.6187   20.5541 C   0  0  0  0  0  0  0  0  0  0  0  0
  -27.3847  -27.8598   19.5630 C   0  0  0  0  0  0  0  0  0  0  0  0
  -26.7113  -21.6822   19.6229 C   0  0  0  0  0  0  0  0  0  0  0  0
  -17.4014  -13.8461   18.4239 C   0  0  0  0  0  0  0  0  0  0  0  0
  -18.2626  -11.2125   18.7483 C   0  0  0  0  0  0  0  0  0  0  0  0
  -30.1149  -13.5573   19.6741 C   0  0  0  0  0  0  0  0  0  0  0  0
  -24.4230  -21.2293   18.9385 C   0  0  0  0  0  0  0  0  0  0  0  0
  -31.8772  -13.4331   18.1245 C   0  0  0  0  0  0  0  0  0  0  0  0
  -32.8646  -12.4915   15.6912 C   0  0  0  0  0  0  0  0  0  0  0  0
  -32.2915  -14.3347   17.1441 C   0  0  0  0  0  0  0  0  0  0  0  0
  -26.1587  -12.4959   20.7321 C   0  0  0  0  0  0  0  0  0  0  0  0
  -24.0731  -12.5232   21.4281 C   0  0  0  0  0  0  0  0  0  0  0  0
  -25.2219  -14.7384   21.5738 C   0  0  0  0  0  0  0  0  0  0  0  0
  -28.7326  -24.4252   19.7621 C   0  0  0  0  0  0  0  0  0  0  0  0
  -30.4162  -21.7724   20.5685 C   0  0  0  0  0  0  0  0  0  0  0  0
  -18.8681  -16.8049   18.5572 C   0  0  0  0  0  0  0  0  0  0  0  0
  -30.4675  -18.3834   20.9671 C   0  0  0  0  0  0  0  0  0  0  0  0
  -22.6180  -19.7674   18.8572 C   0  0  0  0  0  0  0  0  0  1  0  0
  -20.6950   -8.5604   19.3869 C   0  0  0  0  0  0  0  0  0  0  0  0
  -29.1699  -29.4701   20.4059 C   0  0  0  0  0  0  0  0  0  0  0  0
  -27.2001  -23.3506   21.4511 C   0  0  0  0  0  0  0  0  0  0  0  0
  -28.1812  -21.3968   19.4600 C   0  0  0  0  0  0  0  0  0  0  0  0
  -30.1347  -28.2882   20.3558 C   0  0  0  0  0  0  0  0  0  0  0  0
  -23.6386   -7.4982   21.1775 C   0  0  0  0  0  0  0  0  0  0  0  0
  -29.8481  -27.4164   19.1374 C   0  0  0  0  0  0  0  0  0  0  0  0
  -24.4909   -8.7657   21.2276 C   0  0  0  0  0  0  0  0  0  0  0  0
  -22.8390   -7.4132   19.8814 C   0  0  0  0  0  0  0  0  0  0  0  0
  -22.8313   -9.8858   19.6734 C   0  0  0  0  0  0  0  0  0  0  0  0
  -28.4324  -26.8301   19.1993 C   0  0  1  0  0  0  0  0  0  0  0  0
  -28.6122  -23.4273   20.8790 C   0  0  1  0  0  0  0  0  0  0  0  0
  -23.6321  -10.0187   20.9802 C   0  0  2  0  0  0  0  0  0  0  0  0
  -31.9972  -16.4972   21.5993 C   0  0  0  0  0  0  0  0  0  0  0  0
  -31.7470  -21.9362   17.8277 C   0  0  0  0  0  0  0  0  0  0  0  0
  -32.5120  -19.5722   18.1351 C   0  0  0  0  0  0  0  0  0  0  0  0
  -33.2921  -21.3476   19.7041 C   0  0  0  0  0  0  0  0  0  0  0  0
  -28.7854  -17.6429   23.2869 C   0  0  0  0  0  0  0  0  0  0  0  0
  -16.9379  -15.2635   18.2502 C   0  0  0  0  0  0  0  0  0  0  0  0
  -18.7214   -9.8039   18.9210 C   0  0  0  0  0  0  0  0  0  0  0  0
  -19.8595  -17.6177   17.7522 C   0  0  0  0  0  0  0  0  0  0  0  0
  -21.7004  -19.0725   17.8843 C   0  0  0  0  0  0  0  0  0  0  0  0
  -30.8975  -20.5463   19.8309 C   0  0  1  0  0  0  0  0  0  0  0  0
  -30.9784  -17.5098   22.0986 C   0  0  2  0  0  0  0  0  0  0  0  0
  -32.0845  -20.8572   18.8759 C   0  0  0  0  0  0  0  0  0  0  0  0
  -25.7366  -11.2387   20.5735 N   0  0  0  0  0  0  0  0  0  0  0  0
  -24.4650  -11.2870   21.0056 N   0  0  0  0  0  0  0  0  0  0  0  0
  -29.0807  -22.1423   20.3559 N   0  0  0  0  0  0  0  0  0  0  0  0
  -22.0652   -8.6335   19.6564 N   0  0  0  0  0  0  0  0  0  0  0  0
  -22.8261  -12.7486   21.8937 N   0  0  0  0  0  0  0  0  0  0  0  0
  -26.4205  -15.4264   21.3406 N   0  0  0  0  0  0  0  0  0  0  0  0
  -28.3873  -25.7144   20.1199 N   0  0  0  0  0  0  0  0  0  0  0  0
  -17.9863  -16.1164   17.7389 N   0  0  0  0  0  0  0  0  0  0  0  0
  -31.1972  -19.5475   20.8511 N   0  0  0  0  0  0  0  0  0  0  0  0
  -29.8504  -16.7690   22.7310 N   0  3  0  0  0  0  0  0  0  0  0  0
  -24.2446  -15.3556   22.0613 O   0  0  0  0  0  0  0  0  0  0  0  0
  -29.1121  -24.0532   18.6579 O   0  0  0  0  0  0  0  0  0  0  0  0
  -31.1945  -22.3753   21.3118 O   0  0  0  0  0  0  0  0  0  0  0  0
  -18.8719  -16.7796   19.7850 O   0  0  0  0  0  0  0  0  0  0  0  0
  -29.5185  -18.0632   20.2548 O   0  0  0  0  0  0  0  0  0  0  0  0
  -22.5643  -19.6604   20.0751 O   0  0  0  0  0  0  0  0  0  0  0  0
  -20.0571   -7.5112   19.3198 O   0  0  0  0  0  0  0  0  0  0  0  0
  -31.3876  -13.8989   19.3332 O   0  0  0  0  0  0  0  0  0  0  0  0
  -23.5432  -20.5556   18.1486 O   0  0  0  0  0  0  0  0  0  1  0  0
  -20.1258   -9.7925   19.2022 O   0  0  0  0  0  0  0  0  0  0  0  0
  -20.7626  -18.3048   18.6123 O   0  0  0  0  0  0  0  0  0  0  0  0
  -33.3400  -12.0393   14.5234 F   0  0  0  0  0  0  0  0  0  0  0  0
  -32.2186  -15.6543   17.3658 F   0  0  0  0  0  0  0  0  0  0  0  0
  1  2  1  0  0  0  0
  1  5  2  0  0  0  0
  2  6  2  0  0  0  0
  3 12  2  0  0  0  0
  3 19  1  0  0  0  0
  4 13  1  0  0  0  0
  4 19  2  0  0  0  0
  5 21  1  0  0  0  0
  6 23  1  0  0  0  0
  7 14  2  0  0  0  0
  7 22  1  0  0  0  0
  8 10  2  0  0  0  0
  8 25  1  0  0  0  0
  9 11  1  0  0  0  0
  9 25  2  0  0  0  0
 10 26  1  0  0  0  0
 11 26  2  0  0  0  0
 12 27  1  0  0  0  0
 13 27  2  0  0  0  0
 14 28  1  0  0  0  0
 15 16  2  0  0  0  0
 15 29  1  0  0  0  0
 16 30  1  0  0  0  0
 17 24  1  0  0  0  0
 17 28  2  0  0  0  0
 18 30  2  0  0  0  0
 18 31  1  0  0  0  0
 19 32  1  0  0  0  0
 20 32  1  0  0  0  0
 20 33  2  0  0  0  0
 20 34  1  0  0  0  0
 21 23  2  0  0  0  0
 21 41  1  0  0  0  0
 22 24  2  0  0  0  0
 22 42  1  0  0  0  0
 23 50  1  0  0  0  0
 24 43  1  0  0  0  0
 25 58  1  0  0  0  0
 26 59  1  0  0  0  0
 27 82  1  0  0  0  0
 28 83  1  0  0  0  0
 29 31  2  0  0  0  0
 29 82  1  0  0  0  0
 30 86  1  0  0  0  0
 31 87  1  0  0  0  0
 32 65  2  0  0  0  0
 33 66  1  0  0  0  0
 33 69  1  0  0  0  0
 34 70  1  0  0  0  0
 34 75  2  0  0  0  0
 35 51  1  0  0  0  0
 35 71  1  0  0  0  0
 35 76  2  0  0  0  0
 36 62  1  0  0  0  0
 36 67  1  0  0  0  0
 36 77  2  0  0  0  0
 37 60  1  0  0  0  0
 37 72  1  0  0  0  0
 37 78  2  0  0  0  0
 38 63  1  0  0  0  0
 38 73  1  0  0  0  0
 38 79  2  0  0  0  0
 39 61  1  0  0  0  0
 39 80  2  0  0  0  0
 39 83  1  0  0  0  0
 40 68  1  0  0  0  0
 40 81  2  0  0  0  0
 40 84  1  0  0  0  0
 41 44  1  0  0  0  0
 42 51  1  0  0  0  0
 43 67  1  0  0  0  0
 44 46  1  0  0  0  0
 45 47  1  0  0  0  0
 45 48  1  0  0  0  0
 46 50  1  0  0  0  0
 47 52  1  0  0  0  0
 48 68  1  0  0  0  0
 49 52  1  0  0  0  0
 49 68  1  0  0  0  0
 50 71  1  0  0  0  0
 51 67  1  0  0  0  0
 52 66  1  0  0  0  0
 53 63  1  0  0  0  0
 54 64  1  0  0  0  0
 55 64  1  0  0  0  0
 56 64  1  0  0  0  0
 57 74  1  0  0  0  0
 58 72  1  0  0  0  0
 59 84  1  0  0  0  0
 60 85  1  0  0  0  0
 61 85  1  0  0  0  0
 62 64  1  0  0  0  0
 62 73  1  0  0  0  0
 63 74  1  0  0  0  0
 65 66  1  0  0  0  0
M  CHG  1  74   1
M  ISO  4  39 101  40 100  83 101  84 100
M  END
> <Batch ID>
0000

> <Smiles>
CNC(C)C(=O)NC(C(=O)N1Cc2cc([101O:1][101C:1](=O)COCC(=O)NCc3ccc(C[100O:0][100C:0](=O)N4CCCC(n5nc(-c6ccc(Oc7ccc(F)cc7F)cc6)c(C(N)=O)c5N)C4)cc3)ccc2CC1C(=O)NC1CCCc2ccccc21)C(C)(C)C

> <Shape>
0.229

> <Color>
0.097

> <Negative vol penalty>
0.000

$$$$

  -OEChem-04042320113D

 85 92  0     1  0  0  0  0  0999 V2000
  -20.2839  -15.4226   20.3642 C   0  0  0  0  0  0  0  0  0  0  0  0
  -21.0127  -16.3668   21.0804 C   0  0  0  0  0  0  0  0  0  0  0  0
  -25.4663  -28.6994   20.6051 C   0  0  0  0  0  0  0  0  0  0  0  0
  -25.1094  -26.6987   19.2986 C   0  0  0  0  0  0  0  0  0  0  0  0
  -20.8988  -14.2464   19.9372 C   0  0  0  0  0  0  0  0  0  0  0  0
  -22.3566  -16.1347   21.3708 C   0  0  0  0  0  0  0  0  0  0  0  0
  -25.2550  -20.2026   20.5365 C   0  0  0  0  0  0  0  0  0  0  0  0
  -26.8344  -28.4300   20.6439 C   0  0  0  0  0  0  0  0  0  0  0  0
  -26.4775  -26.4294   19.3373 C   0  0  0  0  0  0  0  0  0  0  0  0
  -25.2287  -21.2113   21.4986 C   0  0  0  0  0  0  0  0  0  0  0  0
  -28.7014  -25.1389   21.5327 C   0  0  0  0  0  0  0  0  0  0  0  0
  -29.0967  -23.8313   21.8143 C   0  0  0  0  0  0  0  0  0  0  0  0
  -27.3001  -20.3822   22.4157 C   0  0  0  0  0  0  0  0  0  0  0  0
  -30.2244  -23.7127   19.6809 C   0  0  0  0  0  0  0  0  0  0  0  0
  -24.6038  -27.8337   19.9325 C   0  0  0  0  0  0  0  0  0  0  0  0
  -22.4992  -28.8655   18.9259 C   0  0  0  0  0  0  0  0  0  0  0  0
  -22.2535  -14.0042   20.2142 C   0  0  0  0  0  0  0  0  0  0  0  0
  -26.3002  -19.2680   20.5135 C   0  0  0  0  0  0  0  0  0  0  0  0
  -22.9899  -14.9536   20.9482 C   0  0  0  0  0  0  0  0  0  0  0  0
  -27.3387  -19.3642   21.4507 C   0  0  0  0  0  0  0  0  0  0  0  0
  -27.3400  -27.2951   20.0100 C   0  0  0  0  0  0  0  0  0  0  0  0
  -26.2499  -21.2995   22.4402 C   0  0  0  0  0  0  0  0  0  0  0  0
  -29.0675  -25.7335   20.3251 C   0  0  0  0  0  0  0  0  0  0  0  0
  -29.8583  -23.1182   20.8885 C   0  0  0  0  0  0  0  0  0  0  0  0
  -29.8290  -25.0204   19.3993 C   0  0  0  0  0  0  0  0  0  0  0  0
  -23.1905  -28.1110   19.8927 C   0  0  0  0  0  0  0  0  0  0  0  0
  -21.1887  -28.8306   19.3357 C   0  0  0  0  0  0  0  0  0  0  0  0
  -22.9970  -29.5377   17.7614 C   0  0  0  0  0  0  0  0  0  0  0  0
  -26.4967  -16.1139   20.8551 C   0  0  0  0  0  0  0  0  0  0  0  0
  -29.6017  -16.6125   20.0596 C   0  0  0  0  0  0  0  0  0  0  0  0
  -32.2480  -18.7631   19.9225 C   0  0  0  0  0  0  0  0  0  0  0  0
  -18.0637  -24.9701   22.6796 C   0  0  0  0  0  0  0  0  0  0  0  0
  -22.8622  -12.6968   19.7727 C   0  0  0  0  0  0  0  0  0  0  0  0
  -26.3278  -18.2021   19.4526 C   0  0  0  0  0  0  0  0  0  0  0  0
  -28.4939  -18.3978   21.4563 C   0  0  0  0  0  0  0  0  0  0  0  0
  -24.3885  -12.6965   19.7975 C   0  0  0  0  0  0  0  0  0  0  0  0
  -18.5080  -28.4513   23.2804 C   0  0  0  0  0  0  0  0  0  0  0  0
  -24.9013  -13.2900   21.1057 C   0  0  0  0  0  0  0  0  0  0  0  0
  -19.6960  -28.8269   22.3930 C   0  0  0  0  0  0  0  0  0  0  0  0
  -18.6675  -27.0539   23.8753 C   0  0  0  0  0  0  0  0  0  0  0  0
  -20.1129  -26.3626   22.0028 C   0  0  0  0  0  0  0  0  0  0  0  0
  -24.4563  -14.7492   21.2614 C   0  0  1  0  0  0  0  0  0  0  0  0
  -27.1733  -16.9934   19.8420 C   0  0  1  0  0  0  0  0  0  0  0  0
  -19.9712  -27.7412   21.3352 C   0  0  2  0  0  0  0  0  0  0  0  0
  -34.5512  -19.5884   19.3643 C   0  0  0  0  0  0  0  0  0  0  0  0
  -30.3645  -15.1012   22.5981 C   0  0  0  0  0  0  0  0  0  0  0  0
  -32.6722  -16.0485   22.3852 C   0  0  0  0  0  0  0  0  0  0  0  0
  -31.7676  -14.5594   20.6000 C   0  0  0  0  0  0  0  0  0  0  0  0
  -31.3756  -19.7591   17.2756 C   0  0  0  0  0  0  0  0  0  0  0  0
  -17.5800  -22.9140   21.3767 C   0  0  0  0  0  0  0  0  0  0  0  0
  -18.0731  -21.7062   22.1531 C   0  0  0  0  0  0  0  0  0  0  0  0
  -24.9448  -22.7505   23.7994 C   0  0  0  0  0  0  0  0  0  1  0  0
  -25.0354  -23.2221   25.2377 C   0  0  0  0  0  0  0  0  0  0  0  0
  -18.4635  -20.8767   24.3170 C   0  0  0  0  0  0  0  0  0  0  0  0
  -18.3955  -21.2390   25.7881 C   0  0  0  0  0  0  0  0  0  0  0  0
  -23.7783  -24.1190   27.0092 C   0  0  0  0  0  0  0  0  0  0  0  0
  -22.3924  -24.5977   27.3967 C   0  0  0  0  0  0  0  0  0  0  0  0
  -19.2164  -22.7398   27.3994 C   0  0  0  0  0  0  0  0  0  0  0  0
  -20.1525  -23.9160   27.5996 C   0  0  0  0  0  0  0  0  0  0  0  0
  -30.8672  -16.9110   20.8266 C   0  0  1  0  0  0  0  0  0  0  0  0
  -33.2283  -19.0842   18.8088 C   0  0  2  0  0  0  0  0  0  0  0  0
  -31.3952  -15.6722   21.6038 C   0  0  0  0  0  0  0  0  0  0  0  0
  -22.3858  -27.6320   20.8450 N   0  0  0  0  0  0  0  0  0  0  0  0
  -21.1753  -28.0867   20.4787 N   0  0  0  0  0  0  0  0  0  0  0  0
  -28.4726  -17.3695   20.4029 N   0  0  0  0  0  0  0  0  0  0  0  0
  -18.9245  -26.0712   22.8198 N   0  0  0  0  0  0  0  0  0  0  0  0
  -20.0581  -29.3641   18.8263 N   0  0  0  0  0  0  0  0  0  0  0  0
  -24.3701  -29.4722   17.4880 N   0  0  0  0  0  0  0  0  0  0  0  0
  -25.2749  -15.6174   20.4426 N   0  0  0  0  0  0  0  0  0  0  0  0
  -31.8124  -17.4564   19.8584 N   0  0  0  0  0  0  0  0  0  0  0  0
  -18.3753  -24.0902   21.6503 N   0  0  0  0  0  0  0  0  0  0  0  0
  -32.6662  -20.1317   17.9100 N   0  3  0  0  0  0  0  0  0  0  0  0
  -22.2490  -30.1912   16.9953 O   0  0  0  0  0  0  0  0  0  0  0  0
  -27.0434  -15.9003   21.9308 O   0  0  0  0  0  0  0  0  0  0  0  0
  -29.6163  -15.7447   19.1830 O   0  0  0  0  0  0  0  0  0  0  0  0
  -31.9059  -19.5877   20.7671 O   0  0  0  0  0  0  0  0  0  0  0  0
  -17.0867  -24.7877   23.4138 O   0  0  0  0  0  0  0  0  0  0  0  0
  -28.6749  -27.0321   20.0473 O   0  0  0  0  0  0  0  0  0  0  0  0
  -26.2263  -22.2827   23.3807 O   0  0  0  0  0  0  0  0  0  1  0  0
  -18.0102  -21.9823   23.5454 O   0  0  0  0  0  0  0  0  0  0  0  0
  -23.7522  -23.6642   25.6634 O   0  0  0  0  0  0  0  0  0  0  0  0
  -19.2409  -22.3548   26.0303 O   0  0  0  0  0  0  0  0  0  0  0  0
  -21.4721  -23.5232   27.2489 O   0  0  0  0  0  0  0  0  0  0  0  0
  -30.2392  -21.8630   21.1597 F   0  0  0  0  0  0  0  0  0  0  0  0
  -30.1848  -25.5867   18.2380 F   0  0  0  0  0  0  0  0  0  0  0  0
  1  2  1  0  0  0  0
  1  5  2  0  0  0  0
  2  6  2  0  0  0  0
  3  8  2  0  0  0  0
  3 15  1  0  0  0  0
  4  9  1  0  0  0  0
  4 15  2  0  0  0  0
  5 17  1  0  0  0  0
  6 19  1  0  0  0  0
  7 10  2  0  0  0  0
  7 18  1  0  0  0  0
  8 21  1  0  0  0  0
  9 21  2  0  0  0  0
 10 22  1  0  0  0  0
 11 12  2  0  0  0  0
 11 23  1  0  0  0  0
 12 24  1  0  0  0  0
 13 20  1  0  0  0  0
 13 22  2  0  0  0  0
 14 24  2  0  0  0  0
 14 25  1  0  0  0  0
 15 26  1  0  0  0  0
 16 26  1  0  0  0  0
 16 27  2  0  0  0  0
 16 28  1  0  0  0  0
 17 19  2  0  0  0  0
 17 33  1  0  0  0  0
 18 20  2  0  0  0  0
 18 34  1  0  0  0  0
 19 42  1  0  0  0  0
 20 35  1  0  0  0  0
 21 78  1  0  0  0  0
 22 79  1  0  0  0  0
 23 25  2  0  0  0  0
 23 78  1  0  0  0  0
 24 84  1  0  0  0  0
 25 85  1  0  0  0  0
 26 63  2  0  0  0  0
 27 64  1  0  0  0  0
 27 67  1  0  0  0  0
 28 68  1  0  0  0  0
 28 73  2  0  0  0  0
 29 43  1  0  0  0  0
 29 69  1  0  0  0  0
 29 74  2  0  0  0  0
 30 60  1  0  0  0  0
 30 65  1  0  0  0  0
 30 75  2  0  0  0  0
 31 61  1  0  0  0  0
 31 70  1  0  0  0  0
 31 76  2  0  0  0  0
 32 66  1  0  0  0  0
 32 71  1  0  0  0  0
 32 77  2  0  0  0  0
 33 36  1  0  0  0  0
 34 43  1  0  0  0  0
 35 65  1  0  0  0  0
 36 38  1  0  0  0  0
 37 39  1  0  0  0  0
 37 40  1  0  0  0  0
 38 42  1  0  0  0  0
 39 44  1  0  0  0  0
 40 66  1  0  0  0  0
 41 44  1  0  0  0  0
 41 66  1  0  0  0  0
 42 69  1  0  0  0  0
 43 65  1  0  0  0  0
 44 64  1  0  0  0  0
 45 61  1  0  0  0  0
 46 62  1  0  0  0  0
 47 62  1  0  0  0  0
 48 62  1  0  0  0  0
 49 72  1  0  0  0  0
 50 51  1  0  0  0  0
 50 71  1  0  0  0  0
 51 80  1  0  0  0  0
 52 53  1  0  0  0  0
 52 79  1  0  0  0  0
 53 81  1  0  0  0  0
 54 55  1  0  0  0  0
 54 80  1  0  0  0  0
 55 82  1  0  0  0  0
 56 57  1  0  0  0  0
 56 81  1  0  0  0  0
 57 83  1  0  0  0  0
 58 59  1  0  0  0  0
 58 82  1  0  0  0  0
 59 83  1  0  0  0  0
 60 62  1  0  0  0  0
 60 70  1  0  0  0  0
 61 72  1  0  0  0  0
 63 64  1  0  0  0  0
M  CHG  1  72   1
M  ISO  4  32 100  52 101  71 100  79 101
M  END
> <Batch ID>
0000

> <Smiles>
CNC(C)C(=O)NC(C(=O)N1Cc2cc([101O:1][101CH2:1]COCCOCCOCCOCC[100NH:0][100C:0](=O)N3CCCC(n4nc(-c5ccc(Oc6ccc(F)cc6F)cc5)c(C(N)=O)c4N)C3)ccc2CC1C(=O)NC1CCCc2ccccc21)C(C)(C)C

> <Shape>
0.200

> <Color>
0.061

> <Negative vol penalty>
0.000

$$$$

  -OEChem-04042320113D

 81 89  0     1  0  0  0  0  0999 V2000
  -28.0356  -33.4520   26.5303 C   0  0  0  0  0  0  0  0  0  0  0  0
  -28.0777  -32.2322   25.8626 C   0  0  0  0  0  0  0  0  0  0  0  0
  -28.7971  -21.2089   15.4952 C   0  0  0  0  0  0  0  0  0  0  0  0
  -26.5304  -12.5171   21.4498 C   0  0  0  0  0  0  0  0  0  0  0  0
  -26.2027  -13.2345   19.1662 C   0  0  0  0  0  0  0  0  0  0  0  0
  -26.8101  -34.0718   26.7709 C   0  0  0  0  0  0  0  0  0  0  0  0
  -26.8940  -31.6310   25.4360 C   0  0  0  0  0  0  0  0  0  0  0  0
  -27.2189  -29.8381   20.7111 C   0  0  0  0  0  0  0  0  0  0  0  0
  -29.2308  -20.2709   16.4320 C   0  0  0  0  0  0  0  0  0  0  0  0
  -28.7338  -22.5595   15.8383 C   0  0  0  0  0  0  0  0  0  0  0  0
  -25.2430  -11.9805   21.4660 C   0  0  0  0  0  0  0  0  0  0  0  0
  -24.9153  -12.6978   19.1823 C   0  0  0  0  0  0  0  0  0  0  0  0
  -27.8888  -28.6283   20.5338 C   0  0  0  0  0  0  0  0  0  0  0  0
  -23.6909   -9.1956   20.3398 C   0  0  0  0  0  0  0  0  0  0  0  0
  -23.5259   -7.9228   20.8860 C   0  0  0  0  0  0  0  0  0  0  0  0
  -25.7711  -27.4778   20.4299 C   0  0  0  0  0  0  0  0  0  0  0  0
  -29.5380  -22.0340   18.0551 C   0  0  0  0  0  0  0  0  0  0  0  0
  -22.0094   -8.8269   22.5352 C   0  0  0  0  0  0  0  0  0  0  0  0
  -27.0102  -13.1442   20.2999 C   0  0  0  0  0  0  0  0  0  0  0  0
  -29.5289  -13.0461   19.9068 C   0  0  0  0  0  0  0  0  0  0  0  0
  -25.6116  -33.4826   26.3385 C   0  0  0  0  0  0  0  0  0  0  0  0
  -25.8180  -29.8754   20.7601 C   0  0  0  0  0  0  0  0  0  0  0  0
  -25.6512  -32.2429   25.6722 C   0  0  0  0  0  0  0  0  0  0  0  0
  -25.0857  -28.6897   20.6053 C   0  0  0  0  0  0  0  0  0  0  0  0
  -29.6013  -20.6835   17.7120 C   0  0  0  0  0  0  0  0  0  0  0  0
  -24.4355  -12.0708   20.3322 C   0  0  0  0  0  0  0  0  0  0  0  0
  -27.1650  -27.4475   20.3961 C   0  0  0  0  0  0  0  0  0  0  0  0
  -29.1042  -22.9720   17.1182 C   0  0  0  0  0  0  0  0  0  0  0  0
  -23.0151  -10.2842   20.8914 C   0  0  0  0  0  0  0  0  0  0  0  0
  -22.6852   -7.7384   21.9836 C   0  0  0  0  0  0  0  0  0  0  0  0
  -22.1744  -10.0998   21.9890 C   0  0  0  0  0  0  0  0  0  0  0  0
  -28.3398  -13.6992   20.2828 C   0  0  0  0  0  0  0  0  0  0  0  0
  -30.5074  -13.9970   20.0642 C   0  0  0  0  0  0  0  0  0  0  0  0
  -29.7308  -11.7003   19.4556 C   0  0  0  0  0  0  0  0  0  0  0  0
  -23.6718  -30.7295   22.9437 C   0  0  0  0  0  0  0  0  0  0  0  0
  -21.5764  -30.2083   20.5230 C   0  0  0  0  0  0  0  0  0  0  0  0
  -20.8896  -28.6335   17.5742 C   0  0  0  0  0  0  0  0  0  0  0  0
  -28.0606  -25.9318   18.8787 C   0  0  0  0  0  0  0  0  0  1  0  0
  -30.4459  -19.9714   19.9760 C   0  0  0  0  0  0  0  0  0  0  0  0
  -24.3076  -34.1673   26.6632 C   0  0  0  0  0  0  0  0  0  0  0  0
  -25.1097  -31.1920   20.9252 C   0  0  0  0  0  0  0  0  0  0  0  0
  -23.5799  -28.6786   20.6304 C   0  0  0  0  0  0  0  0  0  0  0  0
  -23.1267  -33.6466   25.8480 C   0  0  0  0  0  0  0  0  0  0  0  0
  -31.5636  -17.8926   22.6418 C   0  0  0  0  0  0  0  0  0  0  0  0
  -23.1203  -32.1214   25.8318 C   0  0  0  0  0  0  0  0  0  0  0  0
  -30.9770  -16.5205   22.3019 C   0  0  0  0  0  0  0  0  0  0  0  0
  -30.6095  -19.0256   22.2681 C   0  0  0  0  0  0  0  0  0  0  0  0
  -29.5441  -17.6296   20.5402 C   0  0  0  0  0  0  0  0  0  0  0  0
  -24.3907  -31.5714   25.1720 C   0  0  1  0  0  0  0  0  0  0  0  0
  -23.6942  -31.0443   21.4747 C   0  0  1  0  0  0  0  0  0  0  0  0
  -30.4960  -16.4599   20.8389 C   0  0  2  0  0  0  0  0  0  0  0  0
  -19.0807  -28.3738   15.8544 C   0  0  0  0  0  0  0  0  0  0  0  0
  -20.0570  -28.3490   22.4055 C   0  0  0  0  0  0  0  0  0  0  0  0
  -18.8692  -27.4132   20.4101 C   0  0  0  0  0  0  0  0  0  0  0  0
  -18.6061  -29.8229   20.9994 C   0  0  0  0  0  0  0  0  0  0  0  0
  -22.5982  -29.7629   15.4379 C   0  0  0  0  0  0  0  0  0  0  0  0
  -28.7827  -24.6106   18.8115 C   0  0  0  0  0  0  0  0  0  0  0  0
  -20.7949  -29.0174   20.0233 C   0  0  1  0  0  0  0  0  0  0  0  0
  -20.3222  -29.1505   16.2646 C   0  0  2  0  0  0  0  0  0  0  0  0
  -19.6102  -28.6502   20.9610 C   0  0  0  0  0  0  0  0  0  0  0  0
  -28.5422  -14.9670   20.6515 N   0  0  0  0  0  0  0  0  0  0  0  0
  -29.8699  -15.1181   20.5080 N   0  0  0  0  0  0  0  0  0  0  0  0
  -22.9334  -29.9903   20.8006 N   0  0  0  0  0  0  0  0  0  0  0  0
  -30.1996  -18.9056   20.8672 N   0  0  0  0  0  0  0  0  0  0  0  0
  -31.8424  -13.9751   19.8651 N   0  0  0  0  0  0  0  0  0  0  0  0
  -28.6167  -10.8564   19.3511 N   0  0  0  0  0  0  0  0  0  0  0  0
  -30.0421  -19.7303   18.6632 N   0  0  0  0  0  0  0  0  0  0  0  0
  -24.2982  -31.6763   23.7316 N   0  0  0  0  0  0  0  0  0  0  0  0
  -20.3983  -29.3340   18.6555 N   0  0  0  0  0  0  0  0  0  0  0  0
  -21.3340  -29.0275   15.1773 N   0  3  0  0  0  0  0  0  0  0  0  0
  -30.8678  -11.2542   19.1696 O   0  0  0  0  0  0  0  0  0  0  0  0
  -23.1254  -29.7043   23.3337 O   0  0  0  0  0  0  0  0  0  0  0  0
  -21.0058  -31.2939   20.6551 O   0  0  0  0  0  0  0  0  0  0  0  0
  -21.6860  -27.6992   17.6325 O   0  0  0  0  0  0  0  0  0  0  0  0
  -27.7377  -26.6078   17.9111 O   0  0  0  0  0  0  0  0  0  0  0  0
  -31.0008  -21.0100   20.3440 O   0  0  0  0  0  0  0  0  0  0  0  0
  -23.1793  -11.5471   20.3475 O   0  0  0  0  0  0  0  0  0  0  0  0
  -27.8164  -26.2652   20.2236 O   0  0  0  0  0  0  0  0  0  1  0  0
  -29.0418  -24.3023   17.4563 O   0  0  0  0  0  0  0  0  0  0  0  0
  -22.5257   -6.5158   22.5070 F   0  0  0  0  0  0  0  0  0  0  0  0
  -21.5216  -11.1415   22.5225 F   0  0  0  0  0  0  0  0  0  0  0  0
  1  2  1  0  0  0  0
  1  6  2  0  0  0  0
  2  7  2  0  0  0  0
  3  9  1  0  0  0  0
  3 10  2  0  0  0  0
  4 11  2  0  0  0  0
  4 19  1  0  0  0  0
  5 12  1  0  0  0  0
  5 19  2  0  0  0  0
  6 21  1  0  0  0  0
  7 23  1  0  0  0  0
  8 13  2  0  0  0  0
  8 22  1  0  0  0  0
  9 25  2  0  0  0  0
 10 28  1  0  0  0  0
 11 26  1  0  0  0  0
 12 26  2  0  0  0  0
 13 27  1  0  0  0  0
 14 15  2  0  0  0  0
 14 29  1  0  0  0  0
 15 30  1  0  0  0  0
 16 24  1  0  0  0  0
 16 27  2  0  0  0  0
 17 25  1  0  0  0  0
 17 28  2  0  0  0  0
 18 30  2  0  0  0  0
 18 31  1  0  0  0  0
 19 32  1  0  0  0  0
 20 32  1  0  0  0  0
 20 33  2  0  0  0  0
 20 34  1  0  0  0  0
 21 23  2  0  0  0  0
 21 40  1  0  0  0  0
 22 24  2  0  0  0  0
 22 41  1  0  0  0  0
 23 49  1  0  0  0  0
 24 42  1  0  0  0  0
 25 67  1  0  0  0  0
 26 77  1  0  0  0  0
 27 78  1  0  0  0  0
 28 79  1  0  0  0  0
 29 31  2  0  0  0  0
 29 77  1  0  0  0  0
 30 80  1  0  0  0  0
 31 81  1  0  0  0  0
 32 61  2  0  0  0  0
 33 62  1  0  0  0  0
 33 65  1  0  0  0  0
 34 66  1  0  0  0  0
 34 71  2  0  0  0  0
 35 50  1  0  0  0  0
 35 68  1  0  0  0  0
 35 72  2  0  0  0  0
 36 58  1  0  0  0  0
 36 63  1  0  0  0  0
 36 73  2  0  0  0  0
 37 59  1  0  0  0  0
 37 69  1  0  0  0  0
 37 74  2  0  0  0  0
 38 57  1  0  0  0  0
 38 75  2  0  0  0  0
 38 78  1  0  0  0  0
 39 64  1  0  0  0  0
 39 67  1  0  0  0  0
 39 76  2  0  0  0  0
 40 43  1  0  0  0  0
 41 50  1  0  0  0  0
 42 63  1  0  0  0  0
 43 45  1  0  0  0  0
 44 46  1  0  0  0  0
 44 47  1  0  0  0  0
 45 49  1  0  0  0  0
 46 51  1  0  0  0  0
 47 64  1  0  0  0  0
 48 51  1  0  0  0  0
 48 64  1  0  0  0  0
 49 68  1  0  0  0  0
 50 63  1  0  0  0  0
 51 62  1  0  0  0  0
 52 59  1  0  0  0  0
 53 60  1  0  0  0  0
 54 60  1  0  0  0  0
 55 60  1  0  0  0  0
 56 70  1  0  0  0  0
 57 79  1  0  0  0  0
 58 60  1  0  0  0  0
 58 69  1  0  0  0  0
 59 70  1  0  0  0  0
 61 62  1  0  0  0  0
M  CHG  1  70   1
M  ISO  4  38 101  39 100  67 100  78 101
M  END
> <Batch ID>
0000

> <Smiles>
CNC(C)C(=O)NC(C(=O)N1Cc2cc([101O:1][101C:1](=O)COc3cccc([100NH:0][100C:0](=O)N4CCCC(n5nc(-c6ccc(Oc7ccc(F)cc7F)cc6)c(C(N)=O)c5N)C4)c3)ccc2CC1C(=O)NC1CCCc2ccccc21)C(C)(C)C

> <Shape>
0.325

> <Color>
0.080

> <Negative vol penalty>
0.000

$$$$

  -OEChem-04042320113D

 94102  0     1  0  0  0  0  0999 V2000
  -17.1202  -29.1707   24.7141 C   0  0  0  0  0  0  0  0  0  0  0  0
  -17.8369  -28.0404   24.3346 C   0  0  0  0  0  0  0  0  0  0  0  0
  -23.1208  -18.3133   21.2439 C   0  0  0  0  0  0  0  0  0  0  0  0
  -27.8630  -13.7750   19.9284 C   0  0  0  0  0  0  0  0  0  0  0  0
  -30.1265  -13.4049   19.1689 C   0  0  0  0  0  0  0  0  0  0  0  0
  -17.3155  -30.3767   24.0423 C   0  0  0  0  0  0  0  0  0  0  0  0
  -18.7486  -28.1152   23.2822 C   0  0  0  0  0  0  0  0  0  0  0  0
  -23.1269  -25.7992   24.3366 C   0  0  0  0  0  0  0  0  0  0  0  0
  -23.2016  -19.6992   21.1672 C   0  0  0  0  0  0  0  0  0  0  0  0
  -27.6694  -12.3969   20.0229 C   0  0  0  0  0  0  0  0  0  0  0  0
  -29.9329  -12.0267   19.2635 C   0  0  0  0  0  0  0  0  0  0  0  0
  -23.1490  -24.4081   24.2474 C   0  0  0  0  0  0  0  0  0  0  0  0
  -28.4629   -9.9117   22.1740 C   0  0  0  0  0  0  0  0  0  0  0  0
  -27.8370   -9.4222   23.3203 C   0  0  0  0  0  0  0  0  0  0  0  0
  -24.1840  -24.5699   22.0744 C   0  0  0  0  0  0  0  0  0  0  0  0
  -26.0704   -8.4931   21.9589 C   0  0  0  0  0  0  0  0  0  0  0  0
  -24.0130  -17.6567   22.0762 C   0  0  0  0  0  0  0  0  0  0  0  0
  -29.0916  -14.2790   19.5014 C   0  0  0  0  0  0  0  0  0  0  0  0
  -29.7704  -16.5650   20.4074 C   0  0  0  0  0  0  0  0  0  0  0  0
  -18.2371  -30.4687   22.9874 C   0  0  0  0  0  0  0  0  0  0  0  0
  -23.6241  -26.5876   23.2889 C   0  0  0  0  0  0  0  0  0  0  0  0
  -18.9554  -29.3232   22.5947 C   0  0  0  0  0  0  0  0  0  0  0  0
  -24.1695  -25.9708   22.1539 C   0  0  0  0  0  0  0  0  0  0  0  0
  -24.1585  -20.3767   21.9146 C   0  0  0  0  0  0  0  0  0  0  0  0
  -28.7043  -11.5228   19.6905 C   0  0  0  0  0  0  0  0  0  0  0  0
  -23.6749  -23.7932   23.1149 C   0  0  0  0  0  0  0  0  0  0  0  0
  -27.8926   -9.6920   20.9201 C   0  0  0  0  0  0  0  0  0  0  0  0
  -26.6407   -8.7129   23.2128 C   0  0  0  0  0  0  0  0  0  0  0  0
  -26.6964   -8.9827   20.8126 C   0  0  0  0  0  0  0  0  0  0  0  0
  -29.2921  -15.7024   19.4030 C   0  0  0  0  0  0  0  0  0  0  0  0
  -25.0041  -19.6278   22.7171 C   0  0  0  0  0  0  0  0  0  0  0  0
  -29.7770  -17.8063   19.8196 C   0  0  0  0  0  0  0  0  0  0  0  0
  -30.1728  -16.2705   21.7517 C   0  0  0  0  0  0  0  0  0  0  0  0
  -22.3757  -28.7485   21.3202 C   0  0  0  0  0  0  0  0  0  0  0  0
  -25.4604  -29.1049   20.3822 C   0  0  0  0  0  0  0  0  0  0  0  0
  -28.5850  -27.7564   20.1259 C   0  0  0  0  0  0  0  0  0  0  0  0
  -30.1373  -19.6187   14.1243 C   0  0  0  0  0  0  0  0  0  0  0  0
  -18.3795  -31.7823   22.2603 C   0  0  0  0  0  0  0  0  0  0  0  0
  -23.6175  -28.0867   23.4121 C   0  0  0  0  0  0  0  0  0  0  0  0
  -24.7343  -26.7718   21.0103 C   0  0  0  0  0  0  0  0  0  0  0  0
  -19.6379  -31.8694   21.4006 C   0  0  0  0  0  0  0  0  0  0  0  0
  -27.5454  -20.3649   16.4484 C   0  0  0  0  0  0  0  0  0  0  0  0
  -19.8075  -30.5997   20.5723 C   0  0  0  0  0  0  0  0  0  0  0  0
  -27.7423  -19.3324   17.5598 C   0  0  0  0  0  0  0  0  0  0  0  0
  -27.8544  -19.7789   15.0725 C   0  0  0  0  0  0  0  0  0  0  0  0
  -29.3789  -18.1153   16.0636 C   0  0  0  0  0  0  0  0  0  0  0  0
  -19.9715  -29.3704   21.4742 C   0  0  1  0  0  0  0  0  0  0  0  0
  -23.6806  -28.7973   22.0636 C   0  0  1  0  0  0  0  0  0  0  0  0
  -29.1332  -18.6755   17.4749 C   0  0  2  0  0  0  0  0  0  0  0  0
  -30.8902  -28.2733   19.2797 C   0  0  0  0  0  0  0  0  0  0  0  0
  -24.5144  -28.6281   17.5208 C   0  0  0  0  0  0  0  0  0  0  0  0
  -26.8975  -28.2111   16.8764 C   0  0  0  0  0  0  0  0  0  0  0  0
  -26.2199  -30.4405   17.7673 C   0  0  0  0  0  0  0  0  0  0  0  0
  -29.7626  -27.4890   22.8279 C   0  0  0  0  0  0  0  0  0  0  0  0
  -24.2504  -21.8723   21.8363 C   0  0  0  0  0  0  0  0  0  1  0  0
  -26.0515  -20.3025   23.5410 C   0  0  0  0  0  0  0  0  0  0  0  0
  -32.4598  -19.3502   13.2917 C   0  0  0  0  0  0  0  0  0  0  0  0
  -33.3246  -20.4583   13.8655 C   0  0  0  0  0  0  0  0  0  0  0  0
  -27.9006  -21.7342   23.3081 C   0  0  0  0  0  0  0  0  0  0  0  0
  -29.0322  -22.1161   22.3735 C   0  0  0  0  0  0  0  0  0  0  0  0
  -33.2980  -22.6862   14.6128 C   0  0  0  0  0  0  0  0  0  0  0  0
  -32.4036  -23.8980   14.7906 C   0  0  0  0  0  0  0  0  0  0  0  0
  -29.5024  -22.9488   20.2268 C   0  0  0  0  0  0  0  0  0  0  0  0
  -28.8590  -23.4060   18.9318 C   0  0  0  0  0  0  0  0  0  0  0  0
  -30.4604  -24.6644   15.8674 C   0  0  0  0  0  0  0  0  0  0  0  0
  -29.3310  -24.2381   16.7853 C   0  0  0  0  0  0  0  0  0  0  0  0
  -26.3413  -28.4629   19.3378 C   0  0  1  0  0  0  0  0  0  0  0  0
  -29.9535  -28.3115   20.4772 C   0  0  2  0  0  0  0  0  0  0  0  0
  -25.9809  -28.9203   17.8961 C   0  0  0  0  0  0  0  0  0  0  0  0
  -24.9559  -18.2805   22.8174 N   0  0  0  0  0  0  0  0  0  0  0  0
  -29.0148  -16.3417   18.2634 N   0  0  0  0  0  0  0  0  0  0  0  0
  -29.3198  -17.6191   18.5483 N   0  0  0  0  0  0  0  0  0  0  0  0
  -24.6994  -28.2344   21.1752 N   0  0  0  0  0  0  0  0  0  0  0  0
  -29.1881  -19.1730   15.0588 N   0  0  0  0  0  0  0  0  0  0  0  0
  -30.1292  -19.0288   20.2712 N   0  0  0  0  0  0  0  0  0  0  0  0
  -30.1033  -14.9425   22.1942 N   0  0  0  0  0  0  0  0  0  0  0  0
  -21.3159  -29.3099   22.0065 N   0  0  0  0  0  0  0  0  0  0  0  0
  -27.7165  -28.7515   19.7301 N   0  0  0  0  0  0  0  0  0  0  0  0
  -31.3781  -18.9961   14.1835 N   0  0  0  0  0  0  0  0  0  0  0  0
  -30.5671  -27.5178   21.5793 N   0  3  0  0  0  0  0  0  0  0  0  0
  -30.5663  -17.1613   22.5424 O   0  0  0  0  0  0  0  0  0  0  0  0
  -22.3339  -28.2406   20.2058 O   0  0  0  0  0  0  0  0  0  0  0  0
  -25.4534  -30.3333   20.4953 O   0  0  0  0  0  0  0  0  0  0  0  0
  -28.3146  -26.5593   20.1922 O   0  0  0  0  0  0  0  0  0  0  0  0
  -29.8985  -20.5095   13.3018 O   0  0  0  0  0  0  0  0  0  0  0  0
  -28.5157  -10.1780   19.7829 O   0  0  0  0  0  0  0  0  0  0  0  0
  -23.6971  -22.4355   23.0250 O   0  0  0  0  0  0  0  0  0  1  0  0
  -27.1183  -20.7169   22.6977 O   0  0  0  0  0  0  0  0  0  0  0  0
  -32.5296  -21.6172   14.0743 O   0  0  0  0  0  0  0  0  0  0  0  0
  -28.4837  -22.5759   21.1442 O   0  0  0  0  0  0  0  0  0  0  0  0
  -31.3346  -23.5609   15.6637 O   0  0  0  0  0  0  0  0  0  0  0  0
  -29.8782  -23.7987   18.0206 O   0  0  0  0  0  0  0  0  0  0  0  0
  -26.0405   -8.2416   24.3136 F   0  0  0  0  0  0  0  0  0  0  0  0
  -26.1444   -8.7674   19.6106 F   0  0  0  0  0  0  0  0  0  0  0  0
  1  2  1  0  0  0  0
  1  6  2  0  0  0  0
  2  7  2  0  0  0  0
  3  9  2  0  0  0  0
  3 17  1  0  0  0  0
  4 10  2  0  0  0  0
  4 18  1  0  0  0  0
  5 11  1  0  0  0  0
  5 18  2  0  0  0  0
  6 20  1  0  0  0  0
  7 22  1  0  0  0  0
  8 12  2  0  0  0  0
  8 21  1  0  0  0  0
  9 24  1  0  0  0  0
 10 25  1  0  0  0  0
 11 25  2  0  0  0  0
 12 26  1  0  0  0  0
 13 14  2  0  0  0  0
 13 27  1  0  0  0  0
 14 28  1  0  0  0  0
 15 23  1  0  0  0  0
 15 26  2  0  0  0  0
 16 28  2  0  0  0  0
 16 29  1  0  0  0  0
 17 70  2  0  0  0  0
 18 30  1  0  0  0  0
 19 30  1  0  0  0  0
 19 32  2  0  0  0  0
 19 33  1  0  0  0  0
 20 22  2  0  0  0  0
 20 38  1  0  0  0  0
 21 23  2  0  0  0  0
 21 39  1  0  0  0  0
 22 47  1  0  0  0  0
 23 40  1  0  0  0  0
 24 31  2  0  0  0  0
 24 55  1  0  0  0  0
 25 86  1  0  0  0  0
 26 87  1  0  0  0  0
 27 29  2  0  0  0  0
 27 86  1  0  0  0  0
 28 93  1  0  0  0  0
 29 94  1  0  0  0  0
 30 71  2  0  0  0  0
 31 56  1  0  0  0  0
 31 70  1  0  0  0  0
 32 72  1  0  0  0  0
 32 75  1  0  0  0  0
 33 76  1  0  0  0  0
 33 81  2  0  0  0  0
 34 48  1  0  0  0  0
 34 77  1  0  0  0  0
 34 82  2  0  0  0  0
 35 67  1  0  0  0  0
 35 73  1  0  0  0  0
 35 83  2  0  0  0  0
 36 68  1  0  0  0  0
 36 78  1  0  0  0  0
 36 84  2  0  0  0  0
 37 74  1  0  0  0  0
 37 79  1  0  0  0  0
 37 85  2  0  0  0  0
 38 41  1  0  0  0  0
 39 48  1  0  0  0  0
 40 73  1  0  0  0  0
 41 43  1  0  0  0  0
 42 44  1  0  0  0  0
 42 45  1  0  0  0  0
 43 47  1  0  0  0  0
 44 49  1  0  0  0  0
 45 74  1  0  0  0  0
 46 49  1  0  0  0  0
 46 74  1  0  0  0  0
 47 77  1  0  0  0  0
 48 73  1  0  0  0  0
 49 72  1  0  0  0  0
 50 68  1  0  0  0  0
 51 69  1  0  0  0  0
 52 69  1  0  0  0  0
 53 69  1  0  0  0  0
 54 80  1  0  0  0  0
 55 87  1  0  0  0  0
 56 88  1  0  0  0  0
 57 58  1  0  0  0  0
 57 79  1  0  0  0  0
 58 89  1  0  0  0  0
 59 60  1  0  0  0  0
 59 88  1  0  0  0  0
 60 90  1  0  0  0  0
 61 62  1  0  0  0  0
 61 89  1  0  0  0  0
 62 91  1  0  0  0  0
 63 64  1  0  0  0  0
 63 90  1  0  0  0  0
 64 92  1  0  0  0  0
 65 66  1  0  0  0  0
 65 91  1  0  0  0  0
 66 92  1  0  0  0  0
 67 69  1  0  0  0  0
 67 78  1  0  0  0  0
 68 80  1  0  0  0  0
 71 72  1  0  0  0  0
M  CHG  1  80   1
M  ISO  4  37 100  55 101  79 100  87 101
M  END
> <Batch ID>
0000

> <Smiles>
CNC(C)C(=O)NC(C(=O)N1Cc2cc([101O:1][101CH2:1]c3cccnc3COCCOCCOCCOCCOCC[100NH:0][100C:0](=O)N3CCCC(n4nc(-c5ccc(Oc6ccc(F)cc6F)cc5)c(C(N)=O)c4N)C3)ccc2CC1C(=O)NC1CCCc2ccccc21)C(C)(C)C

> <Shape>
0.215

> <Color>
0.072

> <Negative vol penalty>
0.000

$$$$

  -OEChem-04042320113D

 79 86  0     1  0  0  0  0  0999 V2000
  -18.7889  -27.2484   23.3445 C   0  0  0  0  0  0  0  0  0  0  0  0
  -19.2383  -26.2084   22.5371 C   0  0  0  0  0  0  0  0  0  0  0  0
  -25.7477  -15.7088   21.4069 C   0  0  0  0  0  0  0  0  0  0  0  0
  -25.7723  -14.7733   19.1795 C   0  0  0  0  0  0  0  0  0  0  0  0
  -19.4421  -28.4800   23.3209 C   0  0  0  0  0  0  0  0  0  0  0  0
  -20.3405  -26.3997   21.7047 C   0  0  0  0  0  0  0  0  0  0  0  0
  -24.5998  -22.2555   20.2251 C   0  0  0  0  0  0  0  0  0  0  0  0
  -24.3957  -15.3874   21.5269 C   0  0  0  0  0  0  0  0  0  0  0  0
  -24.4203  -14.4518   19.2995 C   0  0  0  0  0  0  0  0  0  0  0  0
  -24.7661  -21.4395   19.1069 C   0  0  0  0  0  0  0  0  0  0  0  0
  -21.0277  -14.4877   22.5576 C   0  0  0  0  0  0  0  0  0  0  0  0
  -20.6046  -13.8982   23.7488 C   0  0  0  0  0  0  0  0  0  0  0  0
  -26.2750  -23.0628   18.1543 C   0  0  0  0  0  0  0  0  0  0  0  0
  -22.1126  -12.0492   23.3695 C   0  0  0  0  0  0  0  0  0  0  0  0
  -26.4360  -15.4018   20.2331 C   0  0  0  0  0  0  0  0  0  0  0  0
  -28.9326  -14.9287   20.4585 C   0  0  0  0  0  0  0  0  0  0  0  0
  -20.5588  -28.6835   22.4950 C   0  0  0  0  0  0  0  0  0  0  0  0
  -25.2625  -23.4883   20.3115 C   0  0  0  0  0  0  0  0  0  0  0  0
  -21.0084  -27.6356   21.6690 C   0  0  0  0  0  0  0  0  0  0  0  0
  -26.1174  -23.8913   19.2758 C   0  0  0  0  0  0  0  0  0  0  0  0
  -23.7320  -14.7588   20.4733 C   0  0  0  0  0  0  0  0  0  0  0  0
  -25.6015  -21.8444   18.0700 C   0  0  0  0  0  0  0  0  0  0  0  0
  -21.9932  -13.8579   21.7722 C   0  0  0  0  0  0  0  0  0  0  0  0
  -21.1470  -12.6790   24.1548 C   0  0  0  0  0  0  0  0  0  0  0  0
  -22.5357  -12.6387   22.1782 C   0  0  0  0  0  0  0  0  0  0  0  0
  -27.8324  -15.7342   20.1083 C   0  0  0  0  0  0  0  0  0  0  0  0
  -30.0306  -15.6934   20.1486 C   0  0  0  0  0  0  0  0  0  0  0  0
  -28.9596  -13.6073   21.0143 C   0  0  0  0  0  0  0  0  0  0  0  0
  -24.3377  -26.5226   20.5157 C   0  0  0  0  0  0  0  0  0  0  0  0
  -27.5133  -27.0574   20.9054 C   0  0  0  0  0  0  0  0  0  0  0  0
  -30.7147  -25.9874   20.4026 C   0  0  0  0  0  0  0  0  0  0  0  0
  -30.7484  -20.2155   16.2479 C   0  0  0  0  0  0  0  0  0  0  0  0
  -21.2033  -30.0468   22.4684 C   0  0  0  0  0  0  0  0  0  0  0  0
  -25.0934  -24.3447   21.5364 C   0  0  0  0  0  0  0  0  0  0  0  0
  -26.8674  -25.1964   19.3291 C   0  0  0  0  0  0  0  0  0  0  0  0
  -22.5928  -30.0515   21.8364 C   0  0  0  0  0  0  0  0  0  0  0  0
  -31.4619  -20.2352   19.7821 C   0  0  0  0  0  0  0  0  0  0  0  0
  -22.5876  -29.2646   20.5296 C   0  0  0  0  0  0  0  0  0  0  0  0
  -30.6773  -19.0310   20.3015 C   0  0  0  0  0  0  0  0  0  0  0  0
  -30.7367  -20.9191   18.6275 C   0  0  0  0  0  0  0  0  0  0  0  0
  -29.6227  -18.7898   18.0093 C   0  0  0  0  0  0  0  0  0  0  0  0
  -22.2158  -27.7966   20.7710 C   0  0  1  0  0  0  0  0  0  0  0  0
  -25.4157  -25.8148   21.2868 C   0  0  1  0  0  0  0  0  0  0  0  0
  -30.3381  -18.0582   19.1581 C   0  0  2  0  0  0  0  0  0  0  0  0
  -33.1006  -26.6565   20.7991 C   0  0  0  0  0  0  0  0  0  0  0  0
  -27.3298  -29.0620   18.6124 C   0  0  0  0  0  0  0  0  0  0  0  0
  -29.8252  -28.9756   18.4295 C   0  0  0  0  0  0  0  0  0  0  0  0
  -28.7580  -29.7974   20.5291 C   0  0  0  0  0  0  0  0  0  0  0  0
  -31.2265  -23.6025   22.0786 C   0  0  0  0  0  0  0  0  0  0  0  0
  -24.6661  -20.2179   16.6087 C   0  0  0  0  0  0  0  0  0  1  0  0
  -30.6788  -19.4042   14.0129 C   0  0  0  0  0  0  0  0  0  0  0  0
  -24.6887  -20.0033   15.1077 C   0  0  0  0  0  0  0  0  0  0  0  0
  -29.6285  -18.7187   13.1605 C   0  0  0  0  0  0  0  0  0  0  0  0
  -25.9769  -19.1251   13.3493 C   0  0  0  0  0  0  0  0  0  0  0  0
  -27.2974  -18.4524   13.0273 C   0  0  0  0  0  0  0  0  0  0  0  0
  -28.6730  -27.3313   19.9785 C   0  0  1  0  0  0  0  0  0  0  0  0
  -31.9037  -25.8908   21.3414 C   0  0  2  0  0  0  0  0  0  0  0  0
  -28.6310  -28.7678   19.3852 C   0  0  0  0  0  0  0  0  0  0  0  0
  -28.1982  -16.9198   19.6138 N   0  0  0  0  0  0  0  0  0  0  0  0
  -29.5404  -16.8650   19.6512 N   0  0  0  0  0  0  0  0  0  0  0  0
  -26.6642  -26.0016   20.5448 N   0  0  0  0  0  0  0  0  0  0  0  0
  -30.3945  -19.9614   17.5766 N   0  0  0  0  0  0  0  0  0  0  0  0
  -31.3578  -15.4714   20.2558 N   0  0  0  0  0  0  0  0  0  0  0  0
  -27.7404  -12.9654   21.2711 N   0  0  0  0  0  0  0  0  0  0  0  0
  -23.3468  -27.0705   21.3078 N   0  0  0  0  0  0  0  0  0  0  0  0
  -29.8822  -27.0339   20.7387 N   0  0  0  0  0  0  0  0  0  0  0  0
  -32.3020  -24.4669   21.5281 N   0  3  0  0  0  0  0  0  0  0  0  0
  -30.0329  -13.0197   21.2906 O   0  0  0  0  0  0  0  0  0  0  0  0
  -24.4011  -26.5694   19.2928 O   0  0  0  0  0  0  0  0  0  0  0  0
  -27.3703  -27.7501   21.9161 O   0  0  0  0  0  0  0  0  0  0  0  0
  -30.5437  -25.2142   19.4626 O   0  0  0  0  0  0  0  0  0  0  0  0
  -31.3494  -21.2200   15.8710 O   0  0  0  0  0  0  0  0  0  0  0  0
  -22.4128  -14.4448   20.5902 O   0  0  0  0  0  0  0  0  0  0  0  0
  -25.7651  -21.0502   16.9772 O   0  0  0  0  0  0  0  0  0  1  0  0
  -30.3530  -19.2191   15.3953 O   0  0  0  0  0  0  0  0  0  0  0  0
  -25.9016  -19.3522   14.7497 O   0  0  0  0  0  0  0  0  0  0  0  0
  -28.3627  -19.3096   13.4194 O   0  0  0  0  0  0  0  0  0  0  0  0
  -20.7417  -12.1138   25.2995 F   0  0  0  0  0  0  0  0  0  0  0  0
  -23.4645  -12.0294   21.4285 F   0  0  0  0  0  0  0  0  0  0  0  0
  1  2  1  0  0  0  0
  1  5  2  0  0  0  0
  2  6  2  0  0  0  0
  3  8  2  0  0  0  0
  3 15  1  0  0  0  0
  4  9  1  0  0  0  0
  4 15  2  0  0  0  0
  5 17  1  0  0  0  0
  6 19  1  0  0  0  0
  7 10  2  0  0  0  0
  7 18  1  0  0  0  0
  8 21  1  0  0  0  0
  9 21  2  0  0  0  0
 10 22  1  0  0  0  0
 11 12  2  0  0  0  0
 11 23  1  0  0  0  0
 12 24  1  0  0  0  0
 13 20  1  0  0  0  0
 13 22  2  0  0  0  0
 14 24  2  0  0  0  0
 14 25  1  0  0  0  0
 15 26  1  0  0  0  0
 16 26  1  0  0  0  0
 16 27  2  0  0  0  0
 16 28  1  0  0  0  0
 17 19  2  0  0  0  0
 17 33  1  0  0  0  0
 18 20  2  0  0  0  0
 18 34  1  0  0  0  0
 19 42  1  0  0  0  0
 20 35  1  0  0  0  0
 21 73  1  0  0  0  0
 22 74  1  0  0  0  0
 23 25  2  0  0  0  0
 23 73  1  0  0  0  0
 24 78  1  0  0  0  0
 25 79  1  0  0  0  0
 26 59  2  0  0  0  0
 27 60  1  0  0  0  0
 27 63  1  0  0  0  0
 28 64  1  0  0  0  0
 28 68  2  0  0  0  0
 29 43  1  0  0  0  0
 29 65  1  0  0  0  0
 29 69  2  0  0  0  0
 30 56  1  0  0  0  0
 30 61  1  0  0  0  0
 30 70  2  0  0  0  0
 31 57  1  0  0  0  0
 31 66  1  0  0  0  0
 31 71  2  0  0  0  0
 32 62  1  0  0  0  0
 32 72  2  0  0  0  0
 32 75  1  0  0  0  0
 33 36  1  0  0  0  0
 34 43  1  0  0  0  0
 35 61  1  0  0  0  0
 36 38  1  0  0  0  0
 37 39  1  0  0  0  0
 37 40  1  0  0  0  0
 38 42  1  0  0  0  0
 39 44  1  0  0  0  0
 40 62  1  0  0  0  0
 41 44  1  0  0  0  0
 41 62  1  0  0  0  0
 42 65  1  0  0  0  0
 43 61  1  0  0  0  0
 44 60  1  0  0  0  0
 45 57  1  0  0  0  0
 46 58  1  0  0  0  0
 47 58  1  0  0  0  0
 48 58  1  0  0  0  0
 49 67  1  0  0  0  0
 50 52  1  0  0  0  0
 50 74  1  0  0  0  0
 51 53  1  0  0  0  0
 51 75  1  0  0  0  0
 52 76  1  0  0  0  0
 53 77  1  0  0  0  0
 54 55  1  0  0  0  0
 54 76  1  0  0  0  0
 55 77  1  0  0  0  0
 56 58  1  0  0  0  0
 56 66  1  0  0  0  0
 57 67  1  0  0  0  0
 59 60  1  0  0  0  0
M  CHG  1  67   1
M  ISO  4  32 100  50 101  74 101  75 100
M  END
> <Batch ID>
0000

> <Smiles>
CNC(C)C(=O)NC(C(=O)N1Cc2cc([101O:1][101CH2:1]COCCOCC[100O:0][100C:0](=O)N3CCCC(n4nc(-c5ccc(Oc6ccc(F)cc6F)cc5)c(C(N)=O)c4N)C3)ccc2CC1C(=O)NC1CCCc2ccccc21)C(C)(C)C

> <Shape>
0.209

> <Color>
0.060

> <Negative vol penalty>
0.000

$$$$

  -OEChem-04042320113D

 86 93  0     1  0  0  0  0  0999 V2000
  -31.4268  -25.9750   14.2788 C   0  0  0  0  0  0  0  0  0  0  0  0
  -30.0661  -25.9173   14.5627 C   0  0  0  0  0  0  0  0  0  0  0  0
  -27.9920  -16.8166   18.9315 C   0  0  0  0  0  0  0  0  0  0  0  0
  -27.5940  -17.3702   21.2493 C   0  0  0  0  0  0  0  0  0  0  0  0
  -32.3524  -26.0442   15.3192 C   0  0  0  0  0  0  0  0  0  0  0  0
  -29.6302  -25.9277   15.8872 C   0  0  0  0  0  0  0  0  0  0  0  0
  -24.5223  -28.5132   18.0620 C   0  0  0  0  0  0  0  0  0  0  0  0
  -28.7064  -18.0037   18.7706 C   0  0  0  0  0  0  0  0  0  0  0  0
  -28.3084  -18.5573   21.0884 C   0  0  0  0  0  0  0  0  0  0  0  0
  -23.2679  -27.9923   18.3766 C   0  0  0  0  0  0  0  0  0  0  0  0
  -27.7687  -21.6340   19.7948 C   0  0  0  0  0  0  0  0  0  0  0  0
  -27.2197  -22.7986   20.3314 C   0  0  0  0  0  0  0  0  0  0  0  0
  -23.9352  -27.7966   20.6865 C   0  0  0  0  0  0  0  0  0  0  0  0
  -29.1692  -23.0720   21.7321 C   0  0  0  0  0  0  0  0  0  0  0  0
  -27.4358  -16.4998   20.1708 C   0  0  0  0  0  0  0  0  0  0  0  0
  -27.2071  -14.0202   20.7247 C   0  0  0  0  0  0  0  0  0  0  0  0
  -31.9272  -26.0651   16.6569 C   0  0  0  0  0  0  0  0  0  0  0  0
  -25.4979  -28.6698   19.0571 C   0  0  0  0  0  0  0  0  0  0  0  0
  -30.5511  -25.9958   16.9465 C   0  0  0  0  0  0  0  0  0  0  0  0
  -25.2003  -28.3221   20.3825 C   0  0  0  0  0  0  0  0  0  0  0  0
  -28.8647  -18.8741   19.8491 C   0  0  0  0  0  0  0  0  0  0  0  0
  -22.9752  -27.6312   19.6885 C   0  0  0  0  0  0  0  0  0  0  0  0
  -29.0179  -21.1884   20.2268 C   0  0  0  0  0  0  0  0  0  0  0  0
  -27.9200  -23.5176   21.3001 C   0  0  0  0  0  0  0  0  0  0  0  0
  -29.7181  -21.9074   21.1955 C   0  0  0  0  0  0  0  0  0  0  0  0
  -26.6972  -15.2739   20.3375 C   0  0  0  0  0  0  0  0  0  0  0  0
  -26.1113  -13.1922   20.7352 C   0  0  0  0  0  0  0  0  0  0  0  0
  -28.5511  -13.6382   21.0463 C   0  0  0  0  0  0  0  0  0  0  0  0
  -28.3995  -27.4741   19.5615 C   0  0  0  0  0  0  0  0  0  0  0  0
  -28.4154  -29.5841   22.0252 C   0  0  0  0  0  0  0  0  0  0  0  0
  -26.6262  -31.4568   24.2475 C   0  0  0  0  0  0  0  0  0  0  0  0
  -20.2481  -14.1968   21.4169 C   0  0  0  0  0  0  0  0  0  0  0  0
  -32.9673  -26.0930   17.7488 C   0  0  0  0  0  0  0  0  0  0  0  0
  -26.8370  -29.2582   18.7063 C   0  0  0  0  0  0  0  0  0  0  0  0
  -26.2059  -28.4895   21.4911 C   0  0  0  0  0  0  0  0  0  0  0  0
  -32.4057  -26.4774   19.1152 C   0  0  0  0  0  0  0  0  0  0  0  0
  -21.8411  -12.6060   18.6585 C   0  0  0  0  0  0  0  0  0  0  0  0
  -31.1234  -25.7028   19.4026 C   0  0  0  0  0  0  0  0  0  0  0  0
  -23.3123  -12.9963   18.8110 C   0  0  0  0  0  0  0  0  0  0  0  0
  -20.9097  -13.7430   19.0732 C   0  0  0  0  0  0  0  0  0  0  0  0
  -22.6272  -14.6744   20.5754 C   0  0  0  0  0  0  0  0  0  0  0  0
  -30.0381  -26.0299   18.3698 C   0  0  1  0  0  0  0  0  0  0  0  0
  -27.9301  -28.8941   19.7062 C   0  0  1  0  0  0  0  0  0  0  0  0
  -23.6047  -13.5404   20.2222 C   0  0  2  0  0  0  0  0  0  0  0  0
  -26.9172  -33.0509   26.1636 C   0  0  0  0  0  0  0  0  0  0  0  0
  -19.1678  -27.8299   22.6624 C   0  0  0  0  0  0  0  0  0  0  0  0
  -19.2079  -28.4981   20.2551 C   0  0  0  0  0  0  0  0  0  0  0  0
  -29.1284  -27.2495   23.8559 C   0  0  0  0  0  0  0  0  0  0  0  0
  -28.4769  -28.6733   25.8096 C   0  0  0  0  0  0  0  0  0  0  0  0
  -30.3666  -29.3684   24.3371 C   0  0  0  0  0  0  0  0  0  0  0  0
  -25.2349  -33.6318   22.8008 C   0  0  0  0  0  0  0  0  0  0  0  0
  -20.3638  -22.9052   22.8275 C   0  0  0  0  0  0  0  0  0  0  0  0
  -19.7408  -14.6909   23.7955 C   0  0  0  0  0  0  0  0  0  0  0  0
  -20.7874  -21.7233   23.6839 C   0  0  0  0  0  0  0  0  0  0  0  0
  -21.3165  -24.0819   22.9691 C   0  0  0  0  0  0  0  0  0  0  0  0
  -19.0023  -16.0146   23.8815 C   0  0  0  0  0  0  0  0  0  0  0  0
  -20.4178  -19.4104   23.8755 C   0  0  0  0  0  0  0  0  0  0  0  0
  -19.3798  -18.3243   23.6685 C   0  0  0  0  0  0  0  0  0  0  0  0
  -21.7600  -26.2731   22.2446 C   0  0  0  0  0  0  0  0  0  0  0  0
  -27.9961  -29.5383   23.4747 C   0  0  1  0  0  0  0  0  0  0  0  0
  -26.7410  -32.9134   24.6594 C   0  0  2  0  0  0  0  0  0  0  0  0
  -19.7180  -27.4766   21.2762 C   0  0  0  0  0  0  0  0  0  0  0  0
  -21.2572  -27.3739   21.3127 C   0  0  2  0  0  0  0  0  0  1  0  0
  -28.9735  -28.7023   24.3483 C   0  0  0  0  0  0  0  0  0  0  0  0
  -25.3800  -15.2492   20.1177 N   0  0  0  0  0  0  0  0  0  0  0  0
  -25.0529  -13.9699   20.3676 N   0  0  0  0  0  0  0  0  0  0  0  0
  -27.5032  -29.0631   21.0967 N   0  0  0  0  0  0  0  0  0  0  0  0
  -21.2389  -14.2123   20.4213 N   0  0  0  0  0  0  0  0  0  0  0  0
  -25.9595  -11.8820   21.0228 N   0  0  0  0  0  0  0  0  0  0  0  0
  -29.5557  -14.6136   20.9851 N   0  0  0  0  0  0  0  0  0  0  0  0
  -29.4343  -27.3127   18.6601 N   0  0  0  0  0  0  0  0  0  0  0  0
  -27.8508  -30.9258   23.9016 N   0  0  0  0  0  0  0  0  0  0  0  0
  -20.6454  -14.6523   22.6680 N   0  0  0  0  0  0  0  0  0  0  0  0
  -25.5167  -33.6630   24.2591 N   0  3  0  0  0  0  0  0  0  0  0  0
  -28.8550  -12.4629   21.3622 O   0  0  0  0  0  0  0  0  0  0  0  0
  -27.8636  -26.5905   20.2201 O   0  0  0  0  0  0  0  0  0  0  0  0
  -29.5089  -30.0709   21.7272 O   0  0  0  0  0  0  0  0  0  0  0  0
  -25.5576  -30.8497   24.2373 O   0  0  0  0  0  0  0  0  0  0  0  0
  -19.0964  -13.8009   21.2077 O   0  0  0  0  0  0  0  0  0  0  0  0
  -29.5619  -20.0325   19.6925 O   0  0  0  0  0  0  0  0  0  0  0  0
  -21.7519  -27.1218   19.9982 O   0  0  0  0  0  0  0  0  0  1  0  0
  -19.8636  -20.6612   23.4903 O   0  0  0  0  0  0  0  0  0  0  0  0
  -20.8891  -25.1507   22.1377 O   0  0  0  0  0  0  0  0  0  0  0  0
  -19.9412  -17.0697   24.0348 O   0  0  0  0  0  0  0  0  0  0  0  0
  -27.3933  -24.6367   21.8142 F   0  0  0  0  0  0  0  0  0  0  0  0
  -30.9192  -21.4849   21.6137 F   0  0  0  0  0  0  0  0  0  0  0  0
  1  2  1  0  0  0  0
  1  5  2  0  0  0  0
  2  6  2  0  0  0  0
  3  8  2  0  0  0  0
  3 15  1  0  0  0  0
  4  9  1  0  0  0  0
  4 15  2  0  0  0  0
  5 17  1  0  0  0  0
  6 19  1  0  0  0  0
  7 10  2  0  0  0  0
  7 18  1  0  0  0  0
  8 21  1  0  0  0  0
  9 21  2  0  0  0  0
 10 22  1  0  0  0  0
 11 12  2  0  0  0  0
 11 23  1  0  0  0  0
 12 24  1  0  0  0  0
 13 20  1  0  0  0  0
 13 22  2  0  0  0  0
 14 24  2  0  0  0  0
 14 25  1  0  0  0  0
 15 26  1  0  0  0  0
 16 26  1  0  0  0  0
 16 27  2  0  0  0  0
 16 28  1  0  0  0  0
 17 19  2  0  0  0  0
 17 33  1  0  0  0  0
 18 20  2  0  0  0  0
 18 34  1  0  0  0  0
 19 42  1  0  0  0  0
 20 35  1  0  0  0  0
 21 80  1  0  0  0  0
 22 81  1  0  0  0  0
 23 25  2  0  0  0  0
 23 80  1  0  0  0  0
 24 85  1  0  0  0  0
 25 86  1  0  0  0  0
 26 65  2  0  0  0  0
 27 66  1  0  0  0  0
 27 69  1  0  0  0  0
 28 70  1  0  0  0  0
 28 75  2  0  0  0  0
 29 43  1  0  0  0  0
 29 71  1  0  0  0  0
 29 76  2  0  0  0  0
 30 60  1  0  0  0  0
 30 67  1  0  0  0  0
 30 77  2  0  0  0  0
 31 61  1  0  0  0  0
 31 72  1  0  0  0  0
 31 78  2  0  0  0  0
 32 68  1  0  0  0  0
 32 73  1  0  0  0  0
 32 79  2  0  0  0  0
 33 36  1  0  0  0  0
 34 43  1  0  0  0  0
 35 67  1  0  0  0  0
 36 38  1  0  0  0  0
 37 39  1  0  0  0  0
 37 40  1  0  0  0  0
 38 42  1  0  0  0  0
 39 44  1  0  0  0  0
 40 68  1  0  0  0  0
 41 44  1  0  0  0  0
 41 68  1  0  0  0  0
 42 71  1  0  0  0  0
 43 67  1  0  0  0  0
 44 66  1  0  0  0  0
 45 61  1  0  0  0  0
 46 62  1  0  0  0  0
 47 62  1  0  0  0  0
 48 64  1  0  0  0  0
 49 64  1  0  0  0  0
 50 64  1  0  0  0  0
 51 74  1  0  0  0  0
 52 54  1  0  0  0  0
 52 55  1  0  0  0  0
 53 56  1  0  0  0  0
 53 73  1  0  0  0  0
 54 82  1  0  0  0  0
 55 83  1  0  0  0  0
 56 84  1  0  0  0  0
 57 58  1  0  0  0  0
 57 82  1  0  0  0  0
 58 84  1  0  0  0  0
 59 63  1  0  0  0  0
 59 83  1  0  0  0  0
 60 64  1  0  0  0  0
 60 72  1  0  0  0  0
 61 74  1  0  0  0  0
 62 63  1  0  0  0  0
 63 81  1  0  0  0  0
 65 66  1  0  0  0  0
M  CHG  1  74   1
M  ISO  4  32 100  63 101  73 100  81 101
M  END
> <Batch ID>
0000

> <Smiles>
CNC(C)C(=O)NC(C(=O)N1Cc2cc([101O:1][101CH:1](COCCCOCCOCC[100NH:0][100C:0](=O)N3CCCC(n4nc(-c5ccc(Oc6ccc(F)cc6F)cc5)c(C(N)=O)c4N)C3)C(C)C)ccc2CC1C(=O)NC1CCCc2ccccc21)C(C)(C)C

> <Shape>
0.267

> <Color>
0.091

> <Negative vol penalty>
0.000

$$$$

  -OEChem-04042320113D

 75 82  0     1  0  0  0  0  0999 V2000
  -28.8153  -11.5345   21.6269 C   0  0  0  0  0  0  0  0  0  0  0  0
  -29.0552  -12.8045   21.1122 C   0  0  0  0  0  0  0  0  0  0  0  0
  -24.9758  -30.6613   21.1029 C   0  0  0  0  0  0  0  0  0  0  0  0
  -24.8803  -28.3070   21.6369 C   0  0  0  0  0  0  0  0  0  0  0  0
  -27.5304  -10.9954   21.5790 C   0  0  0  0  0  0  0  0  0  0  0  0
  -28.0104  -13.5359   20.5484 C   0  0  0  0  0  0  0  0  0  0  0  0
  -27.9857  -18.3693   22.0590 C   0  0  0  0  0  0  0  0  0  0  0  0
  -23.6149  -30.6472   20.7973 C   0  0  0  0  0  0  0  0  0  0  0  0
  -23.5194  -28.2929   21.3314 C   0  0  0  0  0  0  0  0  0  0  0  0
  -28.9031  -19.2293   21.4567 C   0  0  0  0  0  0  0  0  0  0  0  0
  -19.9414  -27.7183   21.0381 C   0  0  0  0  0  0  0  0  0  0  0  0
  -19.0853  -27.0559   21.9178 C   0  0  0  0  0  0  0  0  0  0  0  0
  -27.1634  -20.0597   20.0065 C   0  0  0  0  0  0  0  0  0  0  0  0
  -19.7658  -28.5407   23.6981 C   0  0  0  0  0  0  0  0  0  0  0  0
  -25.6085  -29.4911   21.5227 C   0  0  0  0  0  0  0  0  0  0  0  0
  -27.6022  -29.7650   23.0904 C   0  0  0  0  0  0  0  0  0  0  0  0
  -26.4673  -11.7244   21.0230 C   0  0  0  0  0  0  0  0  0  0  0  0
  -26.6505  -18.3403   21.6314 C   0  0  0  0  0  0  0  0  0  0  0  0
  -26.7103  -13.0055   20.4918 C   0  0  0  0  0  0  0  0  0  0  0  0
  -26.2305  -19.2003   20.6067 C   0  0  0  0  0  0  0  0  0  0  0  0
  -22.8867  -29.4630   20.9116 C   0  0  0  0  0  0  0  0  0  0  0  0
  -28.4926  -20.0726   20.4284 C   0  0  0  0  0  0  0  0  0  0  0  0
  -20.7098  -28.7918   21.4884 C   0  0  0  0  0  0  0  0  0  0  0  0
  -18.9974  -27.4670   23.2478 C   0  0  0  0  0  0  0  0  0  0  0  0
  -20.6219  -29.2030   22.8184 C   0  0  0  0  0  0  0  0  0  0  0  0
  -27.0144  -29.5049   21.8379 C   0  0  0  0  0  0  0  0  0  0  0  0
  -28.9528  -29.6581   22.8646 C   0  0  0  0  0  0  0  0  0  0  0  0
  -26.9828  -30.0753   24.3457 C   0  0  0  0  0  0  0  0  0  0  0  0
  -24.7550  -16.1373   20.3439 C   0  0  0  0  0  0  0  0  0  0  0  0
  -22.4872  -18.4247   20.7273 C   0  0  0  0  0  0  0  0  0  0  0  0
  -21.3121  -21.8348   20.6391 C   0  0  0  0  0  0  0  0  0  0  0  0
  -32.0534  -26.6774   18.6597 C   0  0  0  0  0  0  0  0  0  0  0  0
  -25.1052  -11.0809   20.9508 C   0  0  0  0  0  0  0  0  0  0  0  0
  -25.6673  -17.4260   22.3094 C   0  0  0  0  0  0  0  0  0  0  0  0
  -24.8037  -19.2221   20.1246 C   0  0  0  0  0  0  0  0  0  0  0  0
  -23.9772  -12.0719   20.6755 C   0  0  0  0  0  0  0  0  0  0  0  0
  -32.2426  -30.1916   19.4436 C   0  0  0  0  0  0  0  0  0  0  0  0
  -24.3584  -13.0113   19.5357 C   0  0  0  0  0  0  0  0  0  0  0  0
  -30.9545  -30.4426   20.2267 C   0  0  0  0  0  0  0  0  0  0  0  0
  -32.0405  -29.1403   18.3571 C   0  0  0  0  0  0  0  0  0  0  0  0
  -30.2048  -28.0899   19.6548 C   0  0  0  0  0  0  0  0  0  0  0  0
  -25.5979  -13.8398   19.8946 C   0  0  1  0  0  0  0  0  0  0  0  0
  -24.4495  -17.1122   21.4457 C   0  0  1  0  0  0  0  0  0  0  0  0
  -30.3783  -29.1264   20.7783 C   0  0  2  0  0  0  0  0  0  0  0  0
  -19.0871  -22.8105   21.2674 C   0  0  0  0  0  0  0  0  0  0  0  0
  -21.8315  -18.0942   17.7658 C   0  0  0  0  0  0  0  0  0  0  0  0
  -20.6051  -20.2747   17.8655 C   0  0  0  0  0  0  0  0  0  0  0  0
  -19.8375  -18.3494   19.2536 C   0  0  0  0  0  0  0  0  0  0  0  0
  -22.5535  -23.7486   22.5246 C   0  0  0  0  0  0  0  0  0  0  0  0
  -31.5763  -21.8927   19.5682 C   0  0  0  0  0  0  0  0  0  0  0  0
  -31.0562  -23.3132   19.7593 C   0  0  0  0  0  0  0  0  0  0  0  0
  -30.7280  -20.8776   20.3227 C   0  0  0  0  0  0  0  0  0  1  0  0
  -31.9285  -24.3327   19.0407 C   0  0  0  0  0  0  0  0  0  0  0  0
  -21.9637  -19.5629   19.8851 C   0  0  1  0  0  0  0  0  0  0  0  0
  -20.5167  -22.5501   21.7162 C   0  0  2  0  0  0  0  0  0  0  0  0
  -21.0868  -19.0688   18.7001 C   0  0  0  0  0  0  0  0  0  0  0  0
  -27.9176  -29.2521   20.8870 N   0  0  0  0  0  0  0  0  0  0  0  0
  -29.0867  -29.3528   21.5421 N   0  0  0  0  0  0  0  0  0  0  0  0
  -23.8814  -18.3053   20.8148 N   0  0  0  0  0  0  0  0  0  0  0  0
  -31.4562  -27.9175   18.9066 N   0  0  0  0  0  0  0  0  0  0  0  0
  -30.0271  -29.7965   23.6703 N   0  0  0  0  0  0  0  0  0  0  0  0
  -25.5841  -30.1454   24.4013 N   0  0  0  0  0  0  0  0  0  0  0  0
  -25.2414  -14.9221   20.7868 N   0  0  0  0  0  0  0  0  0  0  0  0
  -21.2758  -20.4660   20.8015 N   0  0  0  0  0  0  0  0  0  0  0  0
  -21.1511  -23.8575   22.0465 N   0  3  0  0  0  0  0  0  0  0  0  0
  -27.6505  -30.3003   25.3835 O   0  0  0  0  0  0  0  0  0  0  0  0
  -24.5622  -16.4629   19.1784 O   0  0  0  0  0  0  0  0  0  0  0  0
  -21.6885  -17.6737   21.2928 O   0  0  0  0  0  0  0  0  0  0  0  0
  -21.9032  -22.4306   19.7412 O   0  0  0  0  0  0  0  0  0  0  0  0
  -33.0730  -26.5205   17.9902 O   0  0  0  0  0  0  0  0  0  0  0  0
  -21.5587  -29.4490   20.6137 O   0  0  0  0  0  0  0  0  0  0  0  0
  -29.3861  -20.9125   19.8384 O   0  0  0  0  0  0  0  0  0  1  0  0
  -31.3794  -25.6395   19.2466 O   0  0  0  0  0  0  0  0  0  0  0  0
  -18.1741  -26.8318   24.0921 F   0  0  0  0  0  0  0  0  0  0  0  0
  -21.3567  -30.2345   23.2565 F   0  0  0  0  0  0  0  0  0  0  0  0
  1  2  1  0  0  0  0
  1  5  2  0  0  0  0
  2  6  2  0  0  0  0
  3  8  2  0  0  0  0
  3 15  1  0  0  0  0
  4  9  1  0  0  0  0
  4 15  2  0  0  0  0
  5 17  1  0  0  0  0
  6 19  1  0  0  0  0
  7 10  2  0  0  0  0
  7 18  1  0  0  0  0
  8 21  1  0  0  0  0
  9 21  2  0  0  0  0
 10 22  1  0  0  0  0
 11 12  2  0  0  0  0
 11 23  1  0  0  0  0
 12 24  1  0  0  0  0
 13 20  1  0  0  0  0
 13 22  2  0  0  0  0
 14 24  2  0  0  0  0
 14 25  1  0  0  0  0
 15 26  1  0  0  0  0
 16 26  1  0  0  0  0
 16 27  2  0  0  0  0
 16 28  1  0  0  0  0
 17 19  2  0  0  0  0
 17 33  1  0  0  0  0
 18 20  2  0  0  0  0
 18 34  1  0  0  0  0
 19 42  1  0  0  0  0
 20 35  1  0  0  0  0
 21 71  1  0  0  0  0
 22 72  1  0  0  0  0
 23 25  2  0  0  0  0
 23 71  1  0  0  0  0
 24 74  1  0  0  0  0
 25 75  1  0  0  0  0
 26 57  2  0  0  0  0
 27 58  1  0  0  0  0
 27 61  1  0  0  0  0
 28 62  1  0  0  0  0
 28 66  2  0  0  0  0
 29 43  1  0  0  0  0
 29 63  1  0  0  0  0
 29 67  2  0  0  0  0
 30 54  1  0  0  0  0
 30 59  1  0  0  0  0
 30 68  2  0  0  0  0
 31 55  1  0  0  0  0
 31 64  1  0  0  0  0
 31 69  2  0  0  0  0
 32 60  1  0  0  0  0
 32 70  2  0  0  0  0
 32 73  1  0  0  0  0
 33 36  1  0  0  0  0
 34 43  1  0  0  0  0
 35 59  1  0  0  0  0
 36 38  1  0  0  0  0
 37 39  1  0  0  0  0
 37 40  1  0  0  0  0
 38 42  1  0  0  0  0
 39 44  1  0  0  0  0
 40 60  1  0  0  0  0
 41 44  1  0  0  0  0
 41 60  1  0  0  0  0
 42 63  1  0  0  0  0
 43 59  1  0  0  0  0
 44 58  1  0  0  0  0
 45 55  1  0  0  0  0
 46 56  1  0  0  0  0
 47 56  1  0  0  0  0
 48 56  1  0  0  0  0
 49 65  1  0  0  0  0
 50 51  1  0  0  0  0
 50 52  1  0  0  0  0
 51 53  1  0  0  0  0
 52 72  1  0  0  0  0
 53 73  1  0  0  0  0
 54 56  1  0  0  0  0
 54 64  1  0  0  0  0
 55 65  1  0  0  0  0
 57 58  1  0  0  0  0
M  CHG  1  65   1
M  ISO  4  32 100  52 101  72 101  73 100
M  END
> <Batch ID>
0000

> <Smiles>
CNC(C)C(=O)NC(C(=O)N1Cc2cc([101O:1][101CH2:1]CCC[100O:0][100C:0](=O)N3CCCC(n4nc(-c5ccc(Oc6ccc(F)cc6F)cc5)c(C(N)=O)c4N)C3)ccc2CC1C(=O)NC1CCCc2ccccc21)C(C)(C)C

> <Shape>
0.227

> <Color>
0.074

> <Negative vol penalty>
0.000

$$$$
