
  -OEChem-04042320143D

 80 88  0     1  0  0  0  0  0999 V2000
  -16.8068  -30.2695   24.1215 C   0  0  0  0  0  0  0  0  0  0  0  0
  -18.0100  -30.7424   24.6354 C   0  0  0  0  0  0  0  0  0  0  0  0
  -32.7550  -28.7489   26.2288 C   0  0  0  0  0  0  0  0  0  0  0  0
  -28.9724  -20.7601   18.9002 C   0  0  0  0  0  0  0  0  0  0  0  0
  -30.1199  -21.0728   21.0032 C   0  0  0  0  0  0  0  0  0  0  0  0
  -16.7998  -29.1659   23.2695 C   0  0  0  0  0  0  0  0  0  0  0  0
  -19.2069  -30.1113   24.2983 C   0  0  0  0  0  0  0  0  0  0  0  0
  -26.1349  -31.5272   23.1520 C   0  0  0  0  0  0  0  0  0  0  0  0
  -33.7092  -28.6316   25.2181 C   0  0  0  0  0  0  0  0  0  0  0  0
  -31.5069  -29.3051   25.9484 C   0  0  0  0  0  0  0  0  0  0  0  0
  -29.3588  -19.4199   18.8886 C   0  0  0  0  0  0  0  0  0  0  0  0
  -30.5063  -19.7325   20.9916 C   0  0  0  0  0  0  0  0  0  0  0  0
  -27.4013  -31.1076   23.5569 C   0  0  0  0  0  0  0  0  0  0  0  0
  -32.1327  -17.6342   18.1533 C   0  0  0  0  0  0  0  0  0  0  0  0
  -32.6278  -17.1136   16.9577 C   0  0  0  0  0  0  0  0  0  0  0  0
  -27.2754  -29.2582   22.0131 C   0  0  0  0  0  0  0  0  0  0  0  0
  -30.8440  -15.4843   16.9287 C   0  0  0  0  0  0  0  0  0  0  0  0
  -29.3530  -21.5866   19.9575 C   0  0  0  0  0  0  0  0  0  0  0  0
  -27.7821  -23.5135   20.5293 C   0  0  0  0  0  0  0  0  0  0  0  0
  -17.9981  -28.5269   22.9141 C   0  0  0  0  0  0  0  0  0  0  0  0
  -25.4235  -30.8080   22.1809 C   0  0  0  0  0  0  0  0  0  0  0  0
  -19.2157  -28.9973   23.4417 C   0  0  0  0  0  0  0  0  0  0  0  0
  -26.0012  -29.6722   21.5959 C   0  0  0  0  0  0  0  0  0  0  0  0
  -33.4153  -29.0706   23.9272 C   0  0  0  0  0  0  0  0  0  0  0  0
  -31.2130  -29.7441   24.6575 C   0  0  0  0  0  0  0  0  0  0  0  0
  -32.1672  -29.6269   23.6468 C   0  0  0  0  0  0  0  0  0  0  0  0
  -30.1257  -18.9061   19.9342 C   0  0  0  0  0  0  0  0  0  0  0  0
  -27.9706  -29.9713   22.9895 C   0  0  0  0  0  0  0  0  0  0  0  0
  -30.9934  -17.0798   18.7367 C   0  0  0  0  0  0  0  0  0  0  0  0
  -31.9834  -16.0387   16.3454 C   0  0  0  0  0  0  0  0  0  0  0  0
  -30.3490  -16.0049   18.1244 C   0  0  0  0  0  0  0  0  0  0  0  0
  -28.9546  -22.9712   19.9698 C   0  0  0  0  0  0  0  0  0  0  0  0
  -27.8741  -24.8610   20.2797 C   0  0  0  0  0  0  0  0  0  0  0  0
  -26.7061  -22.8579   21.2134 C   0  0  0  0  0  0  0  0  0  0  0  0
  -22.6618  -29.2350   22.1299 C   0  0  0  0  0  0  0  0  0  0  0  0
  -23.3159  -28.9740   18.9634 C   0  0  0  0  0  0  0  0  0  0  0  0
  -25.6573  -28.9553   16.4806 C   0  0  0  0  0  0  0  0  0  0  0  0
  -31.8120  -29.0948   19.9928 C   0  0  0  0  0  0  0  0  0  0  0  0
  -17.9358  -27.3084   22.0274 C   0  0  0  0  0  0  0  0  0  0  0  0
  -24.0696  -31.2890   21.7358 C   0  0  0  0  0  0  0  0  0  0  0  0
  -25.2874  -28.8766   20.5348 C   0  0  0  0  0  0  0  0  0  0  0  0
  -19.2837  -26.9268   21.4211 C   0  0  0  0  0  0  0  0  0  0  0  0
  -30.3959  -27.6451   17.0654 C   0  0  0  0  0  0  0  0  0  0  0  0
  -20.3744  -26.9498   22.4873 C   0  0  0  0  0  0  0  0  0  0  0  0
  -29.7708  -26.3425   17.5680 C   0  0  0  0  0  0  0  0  0  0  0  0
  -31.7008  -27.9622   17.7925 C   0  0  0  0  0  0  0  0  0  0  0  0
  -30.9765  -26.6767   19.7665 C   0  0  0  0  0  0  0  0  0  0  0  0
  -20.5372  -28.3548   23.0797 C   0  0  1  0  0  0  0  0  0  0  0  0
  -23.2200  -30.1871   21.1102 C   0  0  1  0  0  0  0  0  0  0  0  0
  -29.6297  -26.3436   19.1020 C   0  0  2  0  0  0  0  0  0  0  0  0
  -34.4546  -28.9334   22.8629 C   0  0  0  0  0  0  0  0  0  0  0  0
  -25.8929  -28.6826   13.9972 C   0  0  0  0  0  0  0  0  0  0  0  0
  -22.9319  -25.9616   19.2602 C   0  0  0  0  0  0  0  0  0  0  0  0
  -24.0839  -25.6680   17.0568 C   0  0  0  0  0  0  0  0  0  0  0  0
  -21.9416  -26.9398   17.1825 C   0  0  0  0  0  0  0  0  0  0  0  0
  -26.7813  -31.6756   16.1718 C   0  0  0  0  0  0  0  0  0  0  0  0
  -31.8522  -30.0977   22.2626 C   0  0  0  0  0  0  0  0  0  0  0  0
  -29.8630  -30.3383   24.3824 C   0  0  0  0  0  0  0  0  0  1  0  0
  -24.0551  -27.9779   18.1031 C   0  0  1  0  0  0  0  0  0  0  0  0
  -25.7109  -29.6678   15.1413 C   0  0  2  0  0  0  0  0  0  0  0  0
  -23.2660  -26.6505   17.9220 C   0  0  0  0  0  0  0  0  0  0  0  0
  -29.7341  -23.8985   19.4072 N   0  0  0  0  0  0  0  0  0  0  0  0
  -29.0501  -25.0370   19.6117 N   0  0  0  0  0  0  0  0  0  0  0  0
  -23.9634  -29.3835   20.1377 N   0  0  0  0  0  0  0  0  0  0  0  0
  -31.4981  -27.9491   19.2432 N   0  0  0  0  0  0  0  0  0  0  0  0
  -27.0629  -25.9007   20.5687 N   0  0  0  0  0  0  0  0  0  0  0  0
  -26.7709  -21.4682   21.3838 N   0  0  0  0  0  0  0  0  0  0  0  0
  -21.2810  -29.2026   22.1728 N   0  0  0  0  0  0  0  0  0  0  0  0
  -24.3617  -28.6659   16.8537 N   0  0  0  0  0  0  0  0  0  0  0  0
  -31.5842  -29.0000   21.3602 N   0  0  0  0  0  0  0  0  0  0  0  0
  -26.8448  -30.6345   15.1139 N   0  3  0  0  0  0  0  0  0  0  0  0
  -25.7087  -23.4836   21.6459 O   0  0  0  0  0  0  0  0  0  0  0  0
  -23.4272  -28.5774   22.8252 O   0  0  0  0  0  0  0  0  0  0  0  0
  -22.2079  -29.3794   18.6032 O   0  0  0  0  0  0  0  0  0  0  0  0
  -26.6642  -28.6794   17.1292 O   0  0  0  0  0  0  0  0  0  0  0  0
  -32.2570  -30.1275   19.4806 O   0  0  0  0  0  0  0  0  0  0  0  0
  -30.5027  -17.5983   19.9233 O   0  0  0  0  0  0  0  0  0  0  0  0
  -29.2063  -29.5592   23.3834 O   0  0  0  0  0  0  0  0  0  1  0  0
  -32.4580  -15.5398   15.1964 F   0  0  0  0  0  0  0  0  0  0  0  0
  -29.2534  -15.4689   18.6794 F   0  0  0  0  0  0  0  0  0  0  0  0
  1  2  1  0  0  0  0
  1  6  2  0  0  0  0
  2  7  2  0  0  0  0
  3  9  1  0  0  0  0
  3 10  2  0  0  0  0
  4 11  2  0  0  0  0
  4 18  1  0  0  0  0
  5 12  1  0  0  0  0
  5 18  2  0  0  0  0
  6 20  1  0  0  0  0
  7 22  1  0  0  0  0
  8 13  2  0  0  0  0
  8 21  1  0  0  0  0
  9 24  2  0  0  0  0
 10 25  1  0  0  0  0
 11 27  1  0  0  0  0
 12 27  2  0  0  0  0
 13 28  1  0  0  0  0
 14 15  2  0  0  0  0
 14 29  1  0  0  0  0
 15 30  1  0  0  0  0
 16 23  1  0  0  0  0
 16 28  2  0  0  0  0
 17 30  2  0  0  0  0
 17 31  1  0  0  0  0
 18 32  1  0  0  0  0
 19 32  1  0  0  0  0
 19 33  2  0  0  0  0
 19 34  1  0  0  0  0
 20 22  2  0  0  0  0
 20 39  1  0  0  0  0
 21 23  2  0  0  0  0
 21 40  1  0  0  0  0
 22 48  1  0  0  0  0
 23 41  1  0  0  0  0
 24 26  1  0  0  0  0
 24 51  1  0  0  0  0
 25 26  2  0  0  0  0
 25 58  1  0  0  0  0
 26 57  1  0  0  0  0
 27 77  1  0  0  0  0
 28 78  1  0  0  0  0
 29 31  2  0  0  0  0
 29 77  1  0  0  0  0
 30 79  1  0  0  0  0
 31 80  1  0  0  0  0
 32 62  2  0  0  0  0
 33 63  1  0  0  0  0
 33 66  1  0  0  0  0
 34 67  1  0  0  0  0
 34 72  2  0  0  0  0
 35 49  1  0  0  0  0
 35 68  1  0  0  0  0
 35 73  2  0  0  0  0
 36 59  1  0  0  0  0
 36 64  1  0  0  0  0
 36 74  2  0  0  0  0
 37 60  1  0  0  0  0
 37 69  1  0  0  0  0
 37 75  2  0  0  0  0
 38 65  1  0  0  0  0
 38 70  1  0  0  0  0
 38 76  2  0  0  0  0
 39 42  1  0  0  0  0
 40 49  1  0  0  0  0
 41 64  1  0  0  0  0
 42 44  1  0  0  0  0
 43 45  1  0  0  0  0
 43 46  1  0  0  0  0
 44 48  1  0  0  0  0
 45 50  1  0  0  0  0
 46 65  1  0  0  0  0
 47 50  1  0  0  0  0
 47 65  1  0  0  0  0
 48 68  1  0  0  0  0
 49 64  1  0  0  0  0
 50 63  1  0  0  0  0
 52 60  1  0  0  0  0
 53 61  1  0  0  0  0
 54 61  1  0  0  0  0
 55 61  1  0  0  0  0
 56 71  1  0  0  0  0
 57 70  1  0  0  0  0
 58 78  1  0  0  0  0
 59 61  1  0  0  0  0
 59 69  1  0  0  0  0
 60 71  1  0  0  0  0
 62 63  1  0  0  0  0
M  CHG  1  71   1
M  ISO  4  38 100  58 101  70 100  78 101
M  END
> <Batch ID>
0001

> <Smiles>
CNC(C)C(=O)NC(C(=O)N1Cc2cc([101O:1][101CH2:1]c3cccc(C)c3C[100NH:0][100C:0](=O)N3CCCC(n4nc(-c5ccc(Oc6ccc(F)cc6F)cc5)c(C(N)=O)c4N)C3)ccc2CC1C(=O)NC1CCCc2ccccc21)C(C)(C)C

> <Shape>
0.233

> <Color>
0.117

> <Negative vol penalty>
0.000

$$$$

  -OEChem-04042320143D

 82 90  0     1  0  0  0  0  0999 V2000
  -28.4353  -32.7061   28.2182 C   0  0  0  0  0  0  0  0  0  0  0  0
  -28.3458  -31.6820   27.2809 C   0  0  0  0  0  0  0  0  0  0  0  0
  -24.6068   -8.6828   21.4336 C   0  0  0  0  0  0  0  0  0  0  0  0
  -23.1647  -10.6099   21.2236 C   0  0  0  0  0  0  0  0  0  0  0  0
  -27.3849  -33.6115   28.3622 C   0  0  0  0  0  0  0  0  0  0  0  0
  -27.2053  -31.5621   26.4876 C   0  0  0  0  0  0  0  0  0  0  0  0
  -28.3058  -30.6897   21.6222 C   0  0  0  0  0  0  0  0  0  0  0  0
  -26.1556  -18.0367   19.7879 C   0  0  0  0  0  0  0  0  0  0  0  0
  -28.3999  -18.4803   20.5646 C   0  0  0  0  0  0  0  0  0  0  0  0
  -23.7770   -8.1705   22.4309 C   0  0  0  0  0  0  0  0  0  0  0  0
  -22.3349  -10.0975   22.2208 C   0  0  0  0  0  0  0  0  0  0  0  0
  -28.6745  -29.3905   21.2758 C   0  0  0  0  0  0  0  0  0  0  0  0
  -25.7701  -19.3223   20.1677 C   0  0  0  0  0  0  0  0  0  0  0  0
  -28.0144  -19.7659   20.9444 C   0  0  0  0  0  0  0  0  0  0  0  0
  -20.8206   -6.5402   22.6173 C   0  0  0  0  0  0  0  0  0  0  0  0
  -20.4844   -5.1882   22.5496 C   0  0  0  0  0  0  0  0  0  0  0  0
  -26.4414  -28.9805   20.4607 C   0  0  0  0  0  0  0  0  0  0  0  0
  -21.5037   -4.8265   24.7100 C   0  0  0  0  0  0  0  0  0  0  0  0
  -24.3007   -9.9026   20.8300 C   0  0  0  0  0  0  0  0  0  0  0  0
  -25.0599  -10.2084   18.4139 C   0  0  0  0  0  0  0  0  0  0  0  0
  -26.2350  -33.5084   27.5636 C   0  0  0  0  0  0  0  0  0  0  0  0
  -26.9969  -31.1413   21.4000 C   0  0  0  0  0  0  0  0  0  0  0  0
  -26.1379  -32.4662   26.6220 C   0  0  0  0  0  0  0  0  0  0  0  0
  -26.0593  -30.2867   20.8028 C   0  0  0  0  0  0  0  0  0  0  0  0
  -27.4705  -17.6157   19.9865 C   0  0  0  0  0  0  0  0  0  0  0  0
  -22.6410   -8.8778   22.8245 C   0  0  0  0  0  0  0  0  0  0  0  0
  -26.6994  -20.1869   20.7459 C   0  0  0  0  0  0  0  0  0  0  0  0
  -27.7415  -28.5347   20.6976 C   0  0  0  0  0  0  0  0  0  0  0  0
  -21.4985   -7.0354   23.7313 C   0  0  0  0  0  0  0  0  0  0  0  0
  -20.8259   -4.3313   23.5960 C   0  0  0  0  0  0  0  0  0  0  0  0
  -21.8400   -6.1786   24.7777 C   0  0  0  0  0  0  0  0  0  0  0  0
  -25.1578  -10.4326   19.8002 C   0  0  0  0  0  0  0  0  0  0  0  0
  -26.0985  -10.9280   17.8755 C   0  0  0  0  0  0  0  0  0  0  0  0
  -24.1145   -9.4203   17.6785 C   0  0  0  0  0  0  0  0  0  0  0  0
  -24.6350  -32.1752   23.2590 C   0  0  0  0  0  0  0  0  0  0  0  0
  -23.1907  -32.7871   20.4197 C   0  0  0  0  0  0  0  0  0  0  0  0
  -22.9348  -32.0878   17.0892 C   0  0  0  0  0  0  0  0  0  0  0  0
  -29.1265  -15.7349   19.7276 C   0  0  0  0  0  0  0  0  0  0  0  0
  -25.1055  -34.4823   27.7882 C   0  0  0  0  0  0  0  0  0  0  0  0
  -26.6224  -32.5541   21.7548 C   0  0  0  0  0  0  0  0  0  0  0  0
  -24.6469  -30.7295   20.5247 C   0  0  0  0  0  0  0  0  0  0  0  0
  -24.0901  -34.5107   26.6487 C   0  0  0  0  0  0  0  0  0  0  0  0
  -30.4822  -12.5399   18.9334 C   0  0  0  0  0  0  0  0  0  0  0  0
  -23.7074  -33.0920   26.2391 C   0  0  0  0  0  0  0  0  0  0  0  0
  -29.2609  -11.6176   18.9334 C   0  0  0  0  0  0  0  0  0  0  0  0
  -30.3839  -13.6113   20.0179 C   0  0  0  0  0  0  0  0  0  0  0  0
  -27.9240  -13.4777   20.0009 C   0  0  0  0  0  0  0  0  0  0  0  0
  -24.9276  -32.3180   25.7258 C   0  0  1  0  0  0  0  0  0  0  0  0
  -25.1217  -32.7420   21.9554 C   0  0  1  0  0  0  0  0  0  0  0  0
  -27.9472  -12.4222   18.8833 C   0  0  2  0  0  0  0  0  0  0  0  0
  -21.6379  -32.7230   15.0369 C   0  0  0  0  0  0  0  0  0  0  0  0
  -20.8142  -31.1552   21.4192 C   0  0  0  0  0  0  0  0  0  0  0  0
  -19.9998  -31.0231   19.0554 C   0  0  0  0  0  0  0  0  0  0  0  0
  -20.2013  -33.2399   20.1813 C   0  0  0  0  0  0  0  0  0  0  0  0
  -25.3721  -33.0292   15.6991 C   0  0  0  0  0  0  0  0  0  0  0  0
  -26.6764  -23.8123   20.7993 C   0  0  0  0  0  0  0  0  0  0  0  0
  -27.7164  -24.9244   20.7195 C   0  0  0  0  0  0  0  0  0  0  0  0
  -27.3204  -22.4594   21.0714 C   0  0  0  0  0  0  0  0  0  0  0  0
  -27.0778  -26.2698   20.4050 C   0  0  0  0  0  0  0  0  0  1  0  0
  -22.2967  -32.0084   19.4852 C   0  0  1  0  0  0  0  0  0  0  0  0
  -22.8805  -32.9923   15.8712 C   0  0  2  0  0  0  0  0  0  0  0  0
  -20.8540  -31.8474   20.0422 C   0  0  0  0  0  0  0  0  0  0  0  0
  -26.1782  -11.2319   20.1225 N   0  0  0  0  0  0  0  0  0  0  0  0
  -26.7310  -11.5163   18.9310 N   0  0  0  0  0  0  0  0  0  0  0  0
  -24.3273  -32.1181   20.8953 N   0  0  0  0  0  0  0  0  0  0  0  0
  -29.1157  -14.3353   19.9056 N   0  0  0  0  0  0  0  0  0  0  0  0
  -26.5234  -11.1086   16.6069 N   0  0  0  0  0  0  0  0  0  0  0  0
  -23.1114   -8.7460   18.3881 N   0  0  0  0  0  0  0  0  0  0  0  0
  -27.8623  -16.3097   19.6008 N   0  0  0  0  0  0  0  0  0  0  0  0
  -25.2473  -32.7184   24.3723 N   0  0  0  0  0  0  0  0  0  0  0  0
  -22.3669  -32.6850   18.1946 N   0  0  0  0  0  0  0  0  0  0  0  0
  -24.0791  -32.7769   15.0123 N   0  3  0  0  0  0  0  0  0  0  0  0
  -24.1679   -9.3037   16.4307 O   0  0  0  0  0  0  0  0  0  0  0  0
  -23.7670  -31.3102   23.2552 O   0  0  0  0  0  0  0  0  0  0  0  0
  -22.8953  -33.9488   20.7110 O   0  0  0  0  0  0  0  0  0  0  0  0
  -23.4280  -30.9624   17.0617 O   0  0  0  0  0  0  0  0  0  0  0  0
  -30.1805  -16.3728   19.6632 O   0  0  0  0  0  0  0  0  0  0  0  0
  -21.8309   -8.3781   23.7974 O   0  0  0  0  0  0  0  0  0  0  0  0
  -26.3207  -21.4501   21.1190 O   0  0  0  0  0  0  0  0  0  0  0  0
  -28.0986  -27.2660   20.3592 O   0  0  0  0  0  0  0  0  0  1  0  0
  -20.5016   -3.0333   23.5315 F   0  0  0  0  0  0  0  0  0  0  0  0
  -22.4902   -6.6487   25.8510 F   0  0  0  0  0  0  0  0  0  0  0  0
  1  2  1  0  0  0  0
  1  5  2  0  0  0  0
  2  6  2  0  0  0  0
  3 10  2  0  0  0  0
  3 19  1  0  0  0  0
  4 11  1  0  0  0  0
  4 19  2  0  0  0  0
  5 21  1  0  0  0  0
  6 23  1  0  0  0  0
  7 12  2  0  0  0  0
  7 22  1  0  0  0  0
  8 13  2  0  0  0  0
  8 25  1  0  0  0  0
  9 14  1  0  0  0  0
  9 25  2  0  0  0  0
 10 26  1  0  0  0  0
 11 26  2  0  0  0  0
 12 28  1  0  0  0  0
 13 27  1  0  0  0  0
 14 27  2  0  0  0  0
 15 16  2  0  0  0  0
 15 29  1  0  0  0  0
 16 30  1  0  0  0  0
 17 24  1  0  0  0  0
 17 28  2  0  0  0  0
 18 30  2  0  0  0  0
 18 31  1  0  0  0  0
 19 32  1  0  0  0  0
 20 32  1  0  0  0  0
 20 33  2  0  0  0  0
 20 34  1  0  0  0  0
 21 23  2  0  0  0  0
 21 39  1  0  0  0  0
 22 24  2  0  0  0  0
 22 40  1  0  0  0  0
 23 48  1  0  0  0  0
 24 41  1  0  0  0  0
 25 69  1  0  0  0  0
 26 78  1  0  0  0  0
 27 79  1  0  0  0  0
 28 80  1  0  0  0  0
 29 31  2  0  0  0  0
 29 78  1  0  0  0  0
 30 81  1  0  0  0  0
 31 82  1  0  0  0  0
 32 63  2  0  0  0  0
 33 64  1  0  0  0  0
 33 67  1  0  0  0  0
 34 68  1  0  0  0  0
 34 73  2  0  0  0  0
 35 49  1  0  0  0  0
 35 70  1  0  0  0  0
 35 74  2  0  0  0  0
 36 60  1  0  0  0  0
 36 65  1  0  0  0  0
 36 75  2  0  0  0  0
 37 61  1  0  0  0  0
 37 71  1  0  0  0  0
 37 76  2  0  0  0  0
 38 66  1  0  0  0  0
 38 69  1  0  0  0  0
 38 77  2  0  0  0  0
 39 42  1  0  0  0  0
 40 49  1  0  0  0  0
 41 65  1  0  0  0  0
 42 44  1  0  0  0  0
 43 45  1  0  0  0  0
 43 46  1  0  0  0  0
 44 48  1  0  0  0  0
 45 50  1  0  0  0  0
 46 66  1  0  0  0  0
 47 50  1  0  0  0  0
 47 66  1  0  0  0  0
 48 70  1  0  0  0  0
 49 65  1  0  0  0  0
 50 64  1  0  0  0  0
 51 61  1  0  0  0  0
 52 62  1  0  0  0  0
 53 62  1  0  0  0  0
 54 62  1  0  0  0  0
 55 72  1  0  0  0  0
 56 57  1  0  0  0  0
 56 58  1  0  0  0  0
 57 59  1  0  0  0  0
 58 79  1  0  0  0  0
 59 80  1  0  0  0  0
 60 62  1  0  0  0  0
 60 71  1  0  0  0  0
 61 72  1  0  0  0  0
 63 64  1  0  0  0  0
M  CHG  1  72   1
M  ISO  4  38 100  59 101  69 100  80 101
M  END
> <Batch ID>
0001

> <Smiles>
CNC(C)C(=O)NC(C(=O)N1Cc2cc([101O:1][101CH2:1]CCCOc3ccc([100NH:0][100C:0](=O)N4CCCC(n5nc(-c6ccc(Oc7ccc(F)cc7F)cc6)c(C(N)=O)c5N)C4)cc3)ccc2CC1C(=O)NC1CCCc2ccccc21)C(C)(C)C

> <Shape>
0.243

> <Color>
0.082

> <Negative vol penalty>
0.000

$$$$

  -OEChem-04042320143D

 95103  0     1  0  0  0  0  0999 V2000
  -30.3395  -11.0798   20.2393 C   0  0  0  0  0  0  0  0  0  0  0  0
  -29.9089  -11.9940   21.1956 C   0  0  0  0  0  0  0  0  0  0  0  0
  -30.8656  -18.4679   23.9215 C   0  0  0  0  0  0  0  0  0  0  0  0
  -26.0723  -27.5693   19.0543 C   0  0  0  0  0  0  0  0  0  0  0  0
  -26.2445  -26.7274   21.3123 C   0  0  0  0  0  0  0  0  0  0  0  0
  -29.7352  -11.0501   18.9832 C   0  0  0  0  0  0  0  0  0  0  0  0
  -28.8745  -12.8797   20.8958 C   0  0  0  0  0  0  0  0  0  0  0  0
  -23.3682  -16.2783   23.9694 C   0  0  0  0  0  0  0  0  0  0  0  0
  -30.6789  -17.6797   22.7860 C   0  0  0  0  0  0  0  0  0  0  0  0
  -29.7920  -19.1734   24.4651 C   0  0  0  0  0  0  0  0  0  0  0  0
  -25.4187  -28.7067   19.5282 C   0  0  0  0  0  0  0  0  0  0  0  0
  -25.5909  -27.8649   21.7863 C   0  0  0  0  0  0  0  0  0  0  0  0
  -22.8351  -17.5590   24.1086 C   0  0  0  0  0  0  0  0  0  0  0  0
  -26.3669  -31.0862   22.4511 C   0  0  0  0  0  0  0  0  0  0  0  0
  -26.8963  -31.7133   23.5789 C   0  0  0  0  0  0  0  0  0  0  0  0
  -21.8123  -17.3632   21.9327 C   0  0  0  0  0  0  0  0  0  0  0  0
  -28.3450  -18.3026   22.7375 C   0  0  0  0  0  0  0  0  0  0  0  0
  -24.8208  -31.3432   24.7590 C   0  0  0  0  0  0  0  0  0  0  0  0
  -26.4852  -26.5796   19.9464 C   0  0  0  0  0  0  0  0  0  0  0  0
  -28.5462  -25.2289   19.2866 C   0  0  0  0  0  0  0  0  0  0  0  0
  -28.6863  -11.9294   18.6712 C   0  0  0  0  0  0  0  0  0  0  0  0
  -23.1359  -15.5334   22.8042 C   0  0  0  0  0  0  0  0  0  0  0  0
  -28.2565  -12.8626   19.6339 C   0  0  0  0  0  0  0  0  0  0  0  0
  -22.3414  -16.0723   21.7822 C   0  0  0  0  0  0  0  0  0  0  0  0
  -29.4186  -17.5971   22.1939 C   0  0  0  0  0  0  0  0  0  0  0  0
  -28.5318  -19.0908   23.8731 C   0  0  0  0  0  0  0  0  0  0  0  0
  -25.1780  -28.8546   20.8942 C   0  0  0  0  0  0  0  0  0  0  0  0
  -22.0595  -18.1028   23.0890 C   0  0  0  0  0  0  0  0  0  0  0  0
  -25.0644  -30.5876   22.4772 C   0  0  0  0  0  0  0  0  0  0  0  0
  -26.1233  -31.8418   24.7329 C   0  0  0  0  0  0  0  0  0  0  0  0
  -24.2914  -30.7161   23.6312 C   0  0  0  0  0  0  0  0  0  0  0  0
  -27.1599  -25.4041   19.4574 C   0  0  0  0  0  0  0  0  0  0  0  0
  -28.6734  -23.9503   18.8011 C   0  0  0  0  0  0  0  0  0  0  0  0
  -29.6227  -26.1403   19.5438 C   0  0  0  0  0  0  0  0  0  0  0  0
  -24.9760  -14.3164   20.5158 C   0  0  0  0  0  0  0  0  0  0  0  0
  -22.1873  -12.9958   19.5150 C   0  0  0  0  0  0  0  0  0  0  0  0
  -23.0991  -23.3723   23.2765 C   0  0  0  0  0  0  0  0  0  0  0  0
  -18.7772  -13.1184   19.4652 C   0  0  0  0  0  0  0  0  0  0  0  0
  -24.5182  -24.7246   24.7296 C   0  0  0  0  0  0  0  0  0  0  0  0
  -27.3145  -18.5390   18.9272 C   0  0  0  0  0  0  0  0  0  0  0  0
  -28.0958  -11.8917   17.2839 C   0  0  0  0  0  0  0  0  0  0  0  0
  -23.6959  -14.1428   22.6808 C   0  0  0  0  0  0  0  0  0  0  0  0
  -22.0456  -15.3057   20.5200 C   0  0  0  0  0  0  0  0  0  0  0  0
  -26.7543  -12.6117   17.1732 C   0  0  0  0  0  0  0  0  0  0  0  0
  -25.1816  -20.7167   17.0874 C   0  0  0  0  0  0  0  0  0  0  0  0
  -26.8207  -13.9728   17.8586 C   0  0  0  0  0  0  0  0  0  0  0  0
  -25.6162  -22.1148   17.5306 C   0  0  0  0  0  0  0  0  0  0  0  0
  -25.2459  -19.7146   18.2379 C   0  0  0  0  0  0  0  0  0  0  0  0
  -26.9815  -21.0464   19.3726 C   0  0  0  0  0  0  0  0  0  0  0  0
  -27.1207  -13.8229   19.3549 C   0  0  1  0  0  0  0  0  0  0  0  0
  -23.8221  -13.6758   21.2340 C   0  0  1  0  0  0  0  0  0  0  0  0
  -26.9868  -22.0796   18.2330 C   0  0  2  0  0  0  0  0  0  0  0  0
  -16.7765  -11.9243   18.5331 C   0  0  0  0  0  0  0  0  0  0  0  0
  -22.6334  -23.5854   26.0177 C   0  0  0  0  0  0  0  0  0  0  0  0
  -22.3518  -25.9690   25.2568 C   0  0  0  0  0  0  0  0  0  0  0  0
  -23.9612  -25.4091   27.0700 C   0  0  0  0  0  0  0  0  0  0  0  0
  -22.7347  -14.2224   16.7754 C   0  0  0  0  0  0  0  0  0  0  0  0
  -20.3321  -13.8244   16.1945 C   0  0  0  0  0  0  0  0  0  0  0  0
  -21.8245  -11.8939   16.7128 C   0  0  0  0  0  0  0  0  0  0  0  0
  -17.7342  -12.5131   22.1679 C   0  0  0  0  0  0  0  0  0  0  0  0
  -29.2194  -16.7529   20.9807 C   0  0  0  0  0  0  0  0  0  0  0  0
  -27.3773  -19.8502   24.4575 C   0  0  0  0  0  0  0  0  0  0  0  0
  -22.9213  -21.9095   22.8764 C   0  0  0  0  0  0  0  0  0  0  0  0
  -21.5273  -21.5890   22.3411 C   0  0  0  0  0  0  0  0  0  0  0  0
  -29.4472  -17.5058   19.6644 C   0  0  0  0  0  0  0  0  0  0  0  0
  -25.5607  -23.0028   23.3079 C   0  0  0  0  0  0  0  0  0  0  0  0
  -25.8314  -21.7926   24.1817 C   0  0  0  0  0  0  0  0  0  0  0  0
  -21.3465  -20.1082   22.0279 C   0  0  0  0  0  0  0  0  0  1  0  0
  -21.0768  -13.4201   18.5847 C   0  0  1  0  0  0  0  0  0  0  0  0
  -17.7271  -12.0506   19.7134 C   0  0  2  0  0  0  0  0  0  0  0  0
  -23.3554  -24.9099   25.7400 C   0  0  0  0  0  0  0  0  0  0  0  0
  -21.4990  -13.3557   17.0897 C   0  0  0  0  0  0  0  0  0  0  0  0
  -26.4567  -24.3234   19.1087 N   0  0  0  0  0  0  0  0  0  0  0  0
  -27.4050  -23.4568   18.7138 N   0  0  0  0  0  0  0  0  0  0  0  0
  -22.6207  -13.9526   20.4438 N   0  0  0  0  0  0  0  0  0  0  0  0
  -26.5720  -19.7294   18.8601 N   0  0  0  0  0  0  0  0  0  0  0  0
  -29.7455  -23.2114   18.4446 N   0  0  0  0  0  0  0  0  0  0  0  0
  -29.3153  -27.4140   20.0413 N   0  0  0  0  0  0  0  0  0  0  0  0
  -25.9294  -13.4203   20.0713 N   0  0  0  0  0  0  0  0  0  0  0  0
  -19.9256  -12.5877   18.9169 N   0  0  0  0  0  0  0  0  0  0  0  0
  -28.5637  -18.6422   19.5269 N   0  0  0  0  0  0  0  0  0  0  0  0
  -24.3747  -23.7083   23.7764 N   0  0  0  0  0  0  0  0  0  0  0  0
  -16.9281  -12.3820   20.9269 N   0  3  0  0  0  0  0  0  0  0  0  0
  -27.0089  -21.0536   23.6631 N   0  3  0  0  0  0  0  0  0  0  0  0
  -30.8205  -25.8400   19.3230 O   0  0  0  0  0  0  0  0  0  0  0  0
  -24.9989  -15.5334   20.3741 O   0  0  0  0  0  0  0  0  0  0  0  0
  -22.6483  -11.8551   19.4259 O   0  0  0  0  0  0  0  0  0  0  0  0
  -22.1715  -24.1780   23.1751 O   0  0  0  0  0  0  0  0  0  0  0  0
  -18.5953  -14.3052   19.7277 O   0  0  0  0  0  0  0  0  0  0  0  0
  -25.5424  -25.4110   24.7955 O   0  0  0  0  0  0  0  0  0  0  0  0
  -26.8975  -17.4649   18.4807 O   0  0  0  0  0  0  0  0  0  0  0  0
  -24.5405  -29.9645   21.3570 O   0  0  0  0  0  0  0  0  0  0  0  0
  -21.5348  -19.3618   23.2229 O   0  0  0  0  0  0  0  0  0  1  0  0
  -26.6323  -32.4427   25.8164 F   0  0  0  0  0  0  0  0  0  0  0  0
  -23.0398  -30.2380   23.6626 F   0  0  0  0  0  0  0  0  0  0  0  0
  1  2  1  0  0  0  0
  1  6  2  0  0  0  0
  2  7  2  0  0  0  0
  3  9  1  0  0  0  0
  3 10  2  0  0  0  0
  4 11  2  0  0  0  0
  4 19  1  0  0  0  0
  5 12  1  0  0  0  0
  5 19  2  0  0  0  0
  6 21  1  0  0  0  0
  7 23  1  0  0  0  0
  8 13  2  0  0  0  0
  8 22  1  0  0  0  0
  9 25  2  0  0  0  0
 10 26  1  0  0  0  0
 11 27  1  0  0  0  0
 12 27  2  0  0  0  0
 13 28  1  0  0  0  0
 14 15  2  0  0  0  0
 14 29  1  0  0  0  0
 15 30  1  0  0  0  0
 16 24  1  0  0  0  0
 16 28  2  0  0  0  0
 17 25  1  0  0  0  0
 17 26  2  0  0  0  0
 18 30  2  0  0  0  0
 18 31  1  0  0  0  0
 19 32  1  0  0  0  0
 20 32  1  0  0  0  0
 20 33  2  0  0  0  0
 20 34  1  0  0  0  0
 21 23  2  0  0  0  0
 21 41  1  0  0  0  0
 22 24  2  0  0  0  0
 22 42  1  0  0  0  0
 23 50  1  0  0  0  0
 24 43  1  0  0  0  0
 25 61  1  0  0  0  0
 26 62  1  0  0  0  0
 27 92  1  0  0  0  0
 28 93  1  0  0  0  0
 29 31  2  0  0  0  0
 29 92  1  0  0  0  0
 30 94  1  0  0  0  0
 31 95  1  0  0  0  0
 32 73  2  0  0  0  0
 33 74  1  0  0  0  0
 33 77  1  0  0  0  0
 34 78  1  0  0  0  0
 34 85  2  0  0  0  0
 35 51  1  0  0  0  0
 35 79  1  0  0  0  0
 35 86  2  0  0  0  0
 36 69  1  0  0  0  0
 36 75  1  0  0  0  0
 36 87  2  0  0  0  0
 37 63  1  0  0  0  0
 37 82  1  0  0  0  0
 37 88  2  0  0  0  0
 38 70  1  0  0  0  0
 38 80  1  0  0  0  0
 38 89  2  0  0  0  0
 39 71  1  0  0  0  0
 39 82  1  0  0  0  0
 39 90  2  0  0  0  0
 40 76  1  0  0  0  0
 40 81  1  0  0  0  0
 40 91  2  0  0  0  0
 41 44  1  0  0  0  0
 42 51  1  0  0  0  0
 43 75  1  0  0  0  0
 44 46  1  0  0  0  0
 45 47  1  0  0  0  0
 45 48  1  0  0  0  0
 46 50  1  0  0  0  0
 47 52  1  0  0  0  0
 48 76  1  0  0  0  0
 49 52  1  0  0  0  0
 49 76  1  0  0  0  0
 50 79  1  0  0  0  0
 51 75  1  0  0  0  0
 52 74  1  0  0  0  0
 53 70  1  0  0  0  0
 54 71  1  0  0  0  0
 55 71  1  0  0  0  0
 56 71  1  0  0  0  0
 57 72  1  0  0  0  0
 58 72  1  0  0  0  0
 59 72  1  0  0  0  0
 60 83  1  0  0  0  0
 61 65  1  0  0  0  0
 62 84  1  0  0  0  0
 63 64  1  0  0  0  0
 64 68  1  0  0  0  0
 65 81  1  0  0  0  0
 66 67  1  0  0  0  0
 66 82  1  0  0  0  0
 67 84  1  0  0  0  0
 68 93  1  0  0  0  0
 69 72  1  0  0  0  0
 69 80  1  0  0  0  0
 70 83  1  0  0  0  0
 73 74  1  0  0  0  0
M  CHG  2  83   1  84   1
M  ISO  4  40 100  68 101  81 100  93 101
M  END
> <Batch ID>
0001

> <Smiles>
CNC(C)C(=O)NC(C(=O)N1Cc2cc([101O:1][101CH2:1]CCC(=O)N(CCNCc3cccc(CC[100NH:0][100C:0](=O)N4CCCC(n5nc(-c6ccc(Oc7ccc(F)cc7F)cc6)c(C(N)=O)c5N)C4)c3)C(=O)C(C)(C)C)ccc2CC1C(=O)NC1CCCc2ccccc21)C(C)(C)C

> <Shape>
0.225

> <Color>
0.056

> <Negative vol penalty>
0.000

$$$$

  -OEChem-04042320143D

 73 80  0     1  0  0  0  0  0999 V2000
  -28.7807  -11.4027   19.8413 C   0  0  0  0  0  0  0  0  0  0  0  0
  -28.8747  -12.6791   19.2960 C   0  0  0  0  0  0  0  0  0  0  0  0
  -25.9114  -28.9143   20.8188 C   0  0  0  0  0  0  0  0  0  0  0  0
  -25.2447  -26.5922   20.8056 C   0  0  0  0  0  0  0  0  0  0  0  0
  -27.5741  -10.9659   20.3863 C   0  0  0  0  0  0  0  0  0  0  0  0
  -27.7616  -13.5191   19.2943 C   0  0  0  0  0  0  0  0  0  0  0  0
  -28.8908  -18.2435   20.7261 C   0  0  0  0  0  0  0  0  0  0  0  0
  -24.5811  -29.2972   20.6476 C   0  0  0  0  0  0  0  0  0  0  0  0
  -23.9144  -26.9751   20.6344 C   0  0  0  0  0  0  0  0  0  0  0  0
  -29.5037  -19.0657   19.7816 C   0  0  0  0  0  0  0  0  0  0  0  0
  -20.2991  -27.3512   20.5553 C   0  0  0  0  0  0  0  0  0  0  0  0
  -19.3346  -26.7145   21.3363 C   0  0  0  0  0  0  0  0  0  0  0  0
  -27.3782  -20.1087   19.3193 C   0  0  0  0  0  0  0  0  0  0  0  0
  -20.4277  -27.5133   23.3374 C   0  0  0  0  0  0  0  0  0  0  0  0
  -26.2432  -27.5618   20.8978 C   0  0  0  0  0  0  0  0  0  0  0  0
  -28.2943  -26.9641   22.2918 C   0  0  0  0  0  0  0  0  0  0  0  0
  -26.4483  -11.8044   20.4000 C   0  0  0  0  0  0  0  0  0  0  0  0
  -27.5128  -18.3403   20.9669 C   0  0  0  0  0  0  0  0  0  0  0  0
  -26.5384  -13.0925   19.8388 C   0  0  0  0  0  0  0  0  0  0  0  0
  -26.7507  -19.2883   20.2692 C   0  0  0  0  0  0  0  0  0  0  0  0
  -23.5826  -28.3276   20.5554 C   0  0  0  0  0  0  0  0  0  0  0  0
  -28.7469  -19.9965   19.0760 C   0  0  0  0  0  0  0  0  0  0  0  0
  -21.3280  -28.0688   21.1653 C   0  0  0  0  0  0  0  0  0  0  0  0
  -19.3988  -26.7956   22.7274 C   0  0  0  0  0  0  0  0  0  0  0  0
  -21.3923  -28.1499   22.5564 C   0  0  0  0  0  0  0  0  0  0  0  0
  -27.6173  -27.1656   21.0741 C   0  0  0  0  0  0  0  0  0  0  0  0
  -29.5659  -26.6003   21.9215 C   0  0  0  0  0  0  0  0  0  0  0  0
  -27.8165  -27.0941   23.6374 C   0  0  0  0  0  0  0  0  0  0  0  0
  -25.0394  -16.3661   20.6693 C   0  0  0  0  0  0  0  0  0  0  0  0
  -23.4301  -18.7916   22.1009 C   0  0  0  0  0  0  0  0  0  0  0  0
  -23.2352  -22.1273   22.7949 C   0  0  0  0  0  0  0  0  0  0  0  0
  -31.8053  -24.0606   16.9833 C   0  0  0  0  0  0  0  0  0  0  0  0
  -25.1525  -11.2708   20.9575 C   0  0  0  0  0  0  0  0  0  0  0  0
  -26.8716  -17.4645   22.0082 C   0  0  0  0  0  0  0  0  0  0  0  0
  -25.2716  -19.4460   20.5052 C   0  0  0  0  0  0  0  0  0  0  0  0
  -24.1234  -12.3586   21.2544 C   0  0  0  0  0  0  0  0  0  0  0  0
  -32.7528  -27.1859   18.4013 C   0  0  0  0  0  0  0  0  0  0  0  0
  -24.0228  -13.3319   20.0842 C   0  0  0  0  0  0  0  0  0  0  0  0
  -31.6052  -27.5169   19.3570 C   0  0  0  0  0  0  0  0  0  0  0  0
  -32.2517  -26.4924   17.1365 C   0  0  0  0  0  0  0  0  0  0  0  0
  -30.2768  -25.6255   18.3290 C   0  0  0  0  0  0  0  0  0  0  0  0
  -25.3600  -14.0420   19.8407 C   0  0  1  0  0  0  0  0  0  0  0  0
  -25.3693  -17.2948   21.8034 C   0  0  1  0  0  0  0  0  0  0  0  0
  -30.7390  -26.2758   19.6442 C   0  0  2  0  0  0  0  0  0  0  0  0
  -21.7856  -23.8170   23.9528 C   0  0  0  0  0  0  0  0  0  0  0  0
  -21.4554  -18.6861   19.7772 C   0  0  0  0  0  0  0  0  0  0  0  0
  -20.6243  -20.9432   20.4723 C   0  0  0  0  0  0  0  0  0  0  0  0
  -20.4056  -19.0030   22.0249 C   0  0  0  0  0  0  0  0  0  0  0  0
  -25.3980  -22.8660   24.6752 C   0  0  0  0  0  0  0  0  0  0  0  0
  -31.2354  -21.6456   16.9357 C   0  0  0  0  0  0  0  0  0  0  0  0
  -30.7465  -20.6355   17.9583 C   0  0  0  0  0  0  0  0  0  1  0  0
  -22.6870  -20.0136   21.6176 C   0  0  1  0  0  0  0  0  0  0  0  0
  -22.9697  -22.8728   24.0904 C   0  0  2  0  0  0  0  0  0  0  0  0
  -21.3206  -19.6574   20.9669 C   0  0  0  0  0  0  0  0  0  0  0  0
  -28.3944  -26.9480   20.0099 N   0  0  0  0  0  0  0  0  0  0  0  0
  -29.5730  -26.6061   20.5576 N   0  0  0  0  0  0  0  0  0  0  0  0
  -24.6895  -18.5623   21.5289 N   0  0  0  0  0  0  0  0  0  0  0  0
  -31.4385  -25.3228   17.4784 N   0  0  0  0  0  0  0  0  0  0  0  0
  -30.6675  -26.2792   22.6327 N   0  0  0  0  0  0  0  0  0  0  0  0
  -26.4833  -27.4765   23.8389 N   0  0  0  0  0  0  0  0  0  0  0  0
  -25.5584  -15.0937   20.8148 N   0  0  0  0  0  0  0  0  0  0  0  0
  -22.5873  -20.9105   22.7639 N   0  0  0  0  0  0  0  0  0  0  0  0
  -30.9843  -23.0048   17.3602 N   0  0  0  0  0  0  0  0  0  0  0  0
  -24.1650  -23.6719   24.4825 N   0  3  0  0  0  0  0  0  0  0  0  0
  -28.5547  -26.8935   24.6315 O   0  0  0  0  0  0  0  0  0  0  0  0
  -24.3627  -16.7733   19.7323 O   0  0  0  0  0  0  0  0  0  0  0  0
  -22.9152  -18.0710   22.9596 O   0  0  0  0  0  0  0  0  0  0  0  0
  -23.9432  -22.5808   21.8985 O   0  0  0  0  0  0  0  0  0  0  0  0
  -32.7944  -23.8864   16.2633 O   0  0  0  0  0  0  0  0  0  0  0  0
  -22.2844  -28.7009   20.3885 O   0  0  0  0  0  0  0  0  0  0  0  0
  -29.3424  -20.7999   18.1530 O   0  0  0  0  0  0  0  0  0  1  0  0
  -18.4716  -26.1855   23.4772 F   0  0  0  0  0  0  0  0  0  0  0  0
  -22.3777  -28.8388   23.1481 F   0  0  0  0  0  0  0  0  0  0  0  0
  1  2  1  0  0  0  0
  1  5  2  0  0  0  0
  2  6  2  0  0  0  0
  3  8  2  0  0  0  0
  3 15  1  0  0  0  0
  4  9  1  0  0  0  0
  4 15  2  0  0  0  0
  5 17  1  0  0  0  0
  6 19  1  0  0  0  0
  7 10  2  0  0  0  0
  7 18  1  0  0  0  0
  8 21  1  0  0  0  0
  9 21  2  0  0  0  0
 10 22  1  0  0  0  0
 11 12  2  0  0  0  0
 11 23  1  0  0  0  0
 12 24  1  0  0  0  0
 13 20  1  0  0  0  0
 13 22  2  0  0  0  0
 14 24  2  0  0  0  0
 14 25  1  0  0  0  0
 15 26  1  0  0  0  0
 16 26  1  0  0  0  0
 16 27  2  0  0  0  0
 16 28  1  0  0  0  0
 17 19  2  0  0  0  0
 17 33  1  0  0  0  0
 18 20  2  0  0  0  0
 18 34  1  0  0  0  0
 19 42  1  0  0  0  0
 20 35  1  0  0  0  0
 21 70  1  0  0  0  0
 22 71  1  0  0  0  0
 23 25  2  0  0  0  0
 23 70  1  0  0  0  0
 24 72  1  0  0  0  0
 25 73  1  0  0  0  0
 26 55  2  0  0  0  0
 27 56  1  0  0  0  0
 27 59  1  0  0  0  0
 28 60  1  0  0  0  0
 28 65  2  0  0  0  0
 29 43  1  0  0  0  0
 29 61  1  0  0  0  0
 29 66  2  0  0  0  0
 30 52  1  0  0  0  0
 30 57  1  0  0  0  0
 30 67  2  0  0  0  0
 31 53  1  0  0  0  0
 31 62  1  0  0  0  0
 31 68  2  0  0  0  0
 32 58  1  0  0  0  0
 32 63  1  0  0  0  0
 32 69  2  0  0  0  0
 33 36  1  0  0  0  0
 34 43  1  0  0  0  0
 35 57  1  0  0  0  0
 36 38  1  0  0  0  0
 37 39  1  0  0  0  0
 37 40  1  0  0  0  0
 38 42  1  0  0  0  0
 39 44  1  0  0  0  0
 40 58  1  0  0  0  0
 41 44  1  0  0  0  0
 41 58  1  0  0  0  0
 42 61  1  0  0  0  0
 43 57  1  0  0  0  0
 44 56  1  0  0  0  0
 45 53  1  0  0  0  0
 46 54  1  0  0  0  0
 47 54  1  0  0  0  0
 48 54  1  0  0  0  0
 49 64  1  0  0  0  0
 50 51  1  0  0  0  0
 50 63  1  0  0  0  0
 51 71  1  0  0  0  0
 52 54  1  0  0  0  0
 52 62  1  0  0  0  0
 53 64  1  0  0  0  0
 55 56  1  0  0  0  0
M  CHG  1  64   1
M  ISO  4  32 100  51 101  63 100  71 101
M  END
> <Batch ID>
0001

> <Smiles>
CNC(C)C(=O)NC(C(=O)N1Cc2cc([101O:1][101CH2:1]C[100NH:0][100C:0](=O)N3CCCC(n4nc(-c5ccc(Oc6ccc(F)cc6F)cc5)c(C(N)=O)c4N)C3)ccc2CC1C(=O)NC1CCCc2ccccc21)C(C)(C)C

> <Shape>
0.226

> <Color>
0.066

> <Negative vol penalty>
0.000

$$$$

  -OEChem-04042320143D

 81 89  0     1  0  0  0  0  0999 V2000
  -28.4849  -17.5276   22.9139 C   0  0  0  0  0  0  0  0  0  0  0  0
  -30.2920  -29.3436   31.9597 C   0  0  0  0  0  0  0  0  0  0  0  0
  -30.0520  -28.1300   31.3234 C   0  0  0  0  0  0  0  0  0  0  0  0
  -22.9858   -9.8924   20.0103 C   0  0  0  0  0  0  0  0  0  0  0  0
  -23.7048   -9.9724   22.3155 C   0  0  0  0  0  0  0  0  0  0  0  0
  -32.6797  -17.4222   23.3808 C   0  0  0  0  0  0  0  0  0  0  0  0
  -31.1566  -30.2729   31.3827 C   0  0  0  0  0  0  0  0  0  0  0  0
  -30.6755  -27.8454   30.1091 C   0  0  0  0  0  0  0  0  0  0  0  0
  -32.6114  -22.3724   28.1584 C   0  0  0  0  0  0  0  0  0  0  0  0
  -32.0618  -16.5281   22.5065 C   0  0  0  0  0  0  0  0  0  0  0  0
  -22.2145   -8.7644   20.2900 C   0  0  0  0  0  0  0  0  0  0  0  0
  -22.9334   -8.8444   22.5952 C   0  0  0  0  0  0  0  0  0  0  0  0
  -32.0472  -21.4289   27.3010 C   0  0  0  0  0  0  0  0  0  0  0  0
  -23.1670   -5.4985   22.1698 C   0  0  0  0  0  0  0  0  0  0  0  0
  -23.7488   -4.4896   22.9375 C   0  0  0  0  0  0  0  0  0  0  0  0
  -30.5271  -18.3709   23.9319 C   0  0  0  0  0  0  0  0  0  0  0  0
  -33.3320  -22.3331   25.4704 C   0  0  0  0  0  0  0  0  0  0  0  0
  -22.0211   -4.7617   24.6043 C   0  0  0  0  0  0  0  0  0  0  0  0
  -29.9093  -17.4768   23.0575 C   0  0  0  0  0  0  0  0  0  0  0  0
  -23.7311  -10.4964   21.0231 C   0  0  0  0  0  0  0  0  0  0  0  0
  -31.9123  -18.3436   24.0936 C   0  0  0  0  0  0  0  0  0  0  0  0
  -24.1259  -13.0080   20.8137 C   0  0  0  0  0  0  0  0  0  0  0  0
  -31.7986  -29.9955   30.1655 C   0  0  0  0  0  0  0  0  0  0  0  0
  -33.5334  -23.3119   27.6752 C   0  0  0  0  0  0  0  0  0  0  0  0
  -31.5485  -28.7724   29.5146 C   0  0  0  0  0  0  0  0  0  0  0  0
  -33.9083  -23.2858   26.3243 C   0  0  0  0  0  0  0  0  0  0  0  0
  -30.6766  -16.5554   22.3448 C   0  0  0  0  0  0  0  0  0  0  0  0
  -22.1882   -8.2405   21.5824 C   0  0  0  0  0  0  0  0  0  0  0  0
  -32.4053  -21.4109   25.9562 C   0  0  0  0  0  0  0  0  0  0  0  0
  -22.0123   -6.1390   22.6194 C   0  0  0  0  0  0  0  0  0  0  0  0
  -23.1758   -4.1212   24.1547 C   0  0  0  0  0  0  0  0  0  0  0  0
  -21.4393   -5.7706   23.8366 C   0  0  0  0  0  0  0  0  0  0  0  0
  -24.5285  -11.6613   20.7346 C   0  0  0  0  0  0  0  0  0  0  0  0
  -25.2393  -13.7215   20.4426 C   0  0  0  0  0  0  0  0  0  0  0  0
  -22.8589  -13.5641   21.1891 C   0  0  0  0  0  0  0  0  0  0  0  0
  -32.5712  -19.2951   25.0249 C   0  0  0  0  0  0  0  0  0  1  0  0
  -33.6064  -26.4832   27.4707 C   0  0  0  0  0  0  0  0  0  0  0  0
  -36.6413  -25.9585   26.4525 C   0  0  0  0  0  0  0  0  0  0  0  0
  -38.8903  -23.8250   25.0255 C   0  0  0  0  0  0  0  0  0  0  0  0
  -30.7215  -14.6662   20.6789 C   0  0  0  0  0  0  0  0  0  0  0  0
  -32.6880  -31.0506   29.5569 C   0  0  0  0  0  0  0  0  0  0  0  0
  -34.1531  -24.3061   28.6186 C   0  0  0  0  0  0  0  0  0  0  0  0
  -34.9091  -24.2598   25.7601 C   0  0  0  0  0  0  0  0  0  0  0  0
  -33.5997  -30.5172   28.4549 C   0  0  0  0  0  0  0  0  0  0  0  0
  -29.6009  -12.1856   18.3837 C   0  0  0  0  0  0  0  0  0  0  0  0
  -32.8117  -29.6376   27.4894 C   0  0  0  0  0  0  0  0  0  0  0  0
  -28.1482  -11.9389   18.7972 C   0  0  0  0  0  0  0  0  0  0  0  0
  -30.4989  -12.4424   19.5925 C   0  0  0  0  0  0  0  0  0  0  0  0
  -28.5827  -13.2563   20.9097 C   0  0  0  0  0  0  0  0  0  0  0  0
  -32.2253  -28.4168   28.2086 C   0  0  1  0  0  0  0  0  0  0  0  0
  -34.6941  -25.5446   27.9108 C   0  0  1  0  0  0  0  0  0  0  0  0
  -27.6277  -13.0571   19.7214 C   0  0  2  0  0  0  0  0  0  0  0  0
  -41.2850  -23.6923   24.2871 C   0  0  0  0  0  0  0  0  0  0  0  0
  -35.9740  -27.6392   23.9949 C   0  0  0  0  0  0  0  0  0  0  0  0
  -38.0114  -26.6986   22.8847 C   0  0  0  0  0  0  0  0  0  0  0  0
  -38.2416  -28.0600   24.9622 C   0  0  0  0  0  0  0  0  0  0  0  0
  -39.4670  -21.6094   26.9010 C   0  0  0  0  0  0  0  0  0  0  0  0
  -37.2931  -25.7212   25.1117 C   0  0  1  0  0  0  0  0  0  0  0  0
  -40.3042  -23.4394   25.4214 C   0  0  2  0  0  0  0  0  0  0  0  0
  -37.3597  -27.0125   24.2483 C   0  0  0  0  0  0  0  0  0  0  0  0
  -27.3309  -17.5688   22.7977 N   0  0  0  0  0  0  0  0  0  0  0  0
  -25.7984  -11.5249   20.3439 N   0  0  0  0  0  0  0  0  0  0  0  0
  -26.2034  -12.7950   20.1739 N   0  0  0  0  0  0  0  0  0  0  0  0
  -35.4823  -25.2166   26.7211 N   0  0  0  0  0  0  0  0  0  0  0  0
  -29.9453  -13.5168   20.4196 N   0  0  0  0  0  0  0  0  0  0  0  0
  -25.4778  -15.0449   20.3230 N   0  0  0  0  0  0  0  0  0  0  0  0
  -21.8229  -12.6885   21.5417 N   0  0  0  0  0  0  0  0  0  0  0  0
  -30.0785  -15.6344   21.4495 N   0  0  0  0  0  0  0  0  0  0  0  0
  -33.2493  -27.4172   28.4245 N   0  0  0  0  0  0  0  0  0  0  0  0
  -38.5933  -25.1211   25.3904 N   0  0  0  0  0  0  0  0  0  0  0  0
  -40.3653  -21.9947   25.7822 N   0  3  0  0  0  0  0  0  0  0  0  0
  -22.6465  -14.8004   21.1953 O   0  0  0  0  0  0  0  0  0  0  0  0
  -33.6053  -19.0380   25.6229 O   0  0  0  0  0  0  0  0  0  0  0  0
  -33.1277  -26.3694   26.3484 O   0  0  0  0  0  0  0  0  0  0  0  0
  -37.1460  -26.7670   27.2357 O   0  0  0  0  0  0  0  0  0  0  0  0
  -38.1271  -23.0548   24.4468 O   0  0  0  0  0  0  0  0  0  0  0  0
  -31.8619  -14.7948   20.2263 O   0  0  0  0  0  0  0  0  0  0  0  0
  -21.4355   -7.1399   21.8558 O   0  0  0  0  0  0  0  0  0  0  0  0
  -31.8557  -20.4914   25.1170 O   0  0  0  0  0  0  0  0  0  1  0  0
  -23.7337   -3.1513   24.8910 F   0  0  0  0  0  0  0  0  0  0  0  0
  -20.3294   -6.3815   24.2732 F   0  0  0  0  0  0  0  0  0  0  0  0
  1 19  1  0  0  0  0
  1 61  3  0  0  0  0
  2  3  1  0  0  0  0
  2  7  2  0  0  0  0
  3  8  2  0  0  0  0
  4 11  2  0  0  0  0
  4 20  1  0  0  0  0
  5 12  1  0  0  0  0
  5 20  2  0  0  0  0
  6 10  2  0  0  0  0
  6 21  1  0  0  0  0
  7 23  1  0  0  0  0
  8 25  1  0  0  0  0
  9 13  2  0  0  0  0
  9 24  1  0  0  0  0
 10 27  1  0  0  0  0
 11 28  1  0  0  0  0
 12 28  2  0  0  0  0
 13 29  1  0  0  0  0
 14 15  2  0  0  0  0
 14 30  1  0  0  0  0
 15 31  1  0  0  0  0
 16 19  1  0  0  0  0
 16 21  2  0  0  0  0
 17 26  1  0  0  0  0
 17 29  2  0  0  0  0
 18 31  2  0  0  0  0
 18 32  1  0  0  0  0
 19 27  2  0  0  0  0
 20 33  1  0  0  0  0
 21 36  1  0  0  0  0
 22 33  1  0  0  0  0
 22 34  2  0  0  0  0
 22 35  1  0  0  0  0
 23 25  2  0  0  0  0
 23 41  1  0  0  0  0
 24 26  2  0  0  0  0
 24 42  1  0  0  0  0
 25 50  1  0  0  0  0
 26 43  1  0  0  0  0
 27 68  1  0  0  0  0
 28 78  1  0  0  0  0
 29 79  1  0  0  0  0
 30 32  2  0  0  0  0
 30 78  1  0  0  0  0
 31 80  1  0  0  0  0
 32 81  1  0  0  0  0
 33 62  2  0  0  0  0
 34 63  1  0  0  0  0
 34 66  1  0  0  0  0
 35 67  1  0  0  0  0
 35 72  2  0  0  0  0
 36 73  2  0  0  0  0
 36 79  1  0  0  0  0
 37 51  1  0  0  0  0
 37 69  1  0  0  0  0
 37 74  2  0  0  0  0
 38 58  1  0  0  0  0
 38 64  1  0  0  0  0
 38 75  2  0  0  0  0
 39 59  1  0  0  0  0
 39 70  1  0  0  0  0
 39 76  2  0  0  0  0
 40 65  1  0  0  0  0
 40 68  1  0  0  0  0
 40 77  2  0  0  0  0
 41 44  1  0  0  0  0
 42 51  1  0  0  0  0
 43 64  1  0  0  0  0
 44 46  1  0  0  0  0
 45 47  1  0  0  0  0
 45 48  1  0  0  0  0
 46 50  1  0  0  0  0
 47 52  1  0  0  0  0
 48 65  1  0  0  0  0
 49 52  1  0  0  0  0
 49 65  1  0  0  0  0
 50 69  1  0  0  0  0
 51 64  1  0  0  0  0
 52 63  1  0  0  0  0
 53 59  1  0  0  0  0
 54 60  1  0  0  0  0
 55 60  1  0  0  0  0
 56 60  1  0  0  0  0
 57 71  1  0  0  0  0
 58 60  1  0  0  0  0
 58 70  1  0  0  0  0
 59 71  1  0  0  0  0
 62 63  1  0  0  0  0
M  CHG  1  71   1
M  ISO  4  36 101  40 100  68 100  79 101
M  END
> <Batch ID>
0001

> <Smiles>
CNC(C)C(=O)NC(C(=O)N1Cc2cc([101O:1][101C:1](=O)c3ccc([100NH:0][100C:0](=O)N4CCCC(n5nc(-c6ccc(Oc7ccc(F)cc7F)cc6)c(C(N)=O)c5N)C4)c(C#N)c3)ccc2CC1C(=O)NC1CCCc2ccccc21)C(C)(C)C

> <Shape>
0.176

> <Color>
0.202

> <Negative vol penalty>
0.000

$$$$

  -OEChem-04042320143D

 87 95  0     1  0  0  0  0  0999 V2000
  -32.0907  -32.5665   22.8669 C   0  0  0  0  0  0  0  0  0  0  0  0
  -31.5412  -32.1861   21.6467 C   0  0  0  0  0  0  0  0  0  0  0  0
  -26.3773  -12.8124   21.5194 C   0  0  0  0  0  0  0  0  0  0  0  0
  -26.1025  -13.5717   19.2423 C   0  0  0  0  0  0  0  0  0  0  0  0
  -31.6322  -31.9849   24.0482 C   0  0  0  0  0  0  0  0  0  0  0  0
  -30.5335  -31.2231   21.6071 C   0  0  0  0  0  0  0  0  0  0  0  0
  -25.8005  -31.0047   17.7267 C   0  0  0  0  0  0  0  0  0  0  0  0
  -28.7385  -20.8810   16.8383 C   0  0  0  0  0  0  0  0  0  0  0  0
  -25.1323  -12.1862   21.4609 C   0  0  0  0  0  0  0  0  0  0  0  0
  -24.8575  -12.9454   19.1838 C   0  0  0  0  0  0  0  0  0  0  0  0
  -25.5830  -30.2859   16.5521 C   0  0  0  0  0  0  0  0  0  0  0  0
  -28.2809  -21.8129   15.9069 C   0  0  0  0  0  0  0  0  0  0  0  0
  -23.8363   -9.3332   20.1906 C   0  0  0  0  0  0  0  0  0  0  0  0
  -23.7386   -8.0364   20.6950 C   0  0  0  0  0  0  0  0  0  0  0  0
  -28.8444  -22.6130   18.5194 C   0  0  0  0  0  0  0  0  0  0  0  0
  -24.3960  -28.6033   17.8088 C   0  0  0  0  0  0  0  0  0  0  0  0
  -22.0882   -8.7827   22.2939 C   0  0  0  0  0  0  0  0  0  0  0  0
  -26.8624  -13.5052   20.4101 C   0  0  0  0  0  0  0  0  0  0  0  0
  -28.3868  -23.5450   17.5880 C   0  0  0  0  0  0  0  0  0  0  0  0
  -29.3967  -13.5964   20.1337 C   0  0  0  0  0  0  0  0  0  0  0  0
  -30.6116  -31.0214   24.0238 C   0  0  0  0  0  0  0  0  0  0  0  0
  -25.3260  -30.5220   18.9549 C   0  0  0  0  0  0  0  0  0  0  0  0
  -30.0618  -30.6272   22.7891 C   0  0  0  0  0  0  0  0  0  0  0  0
  -24.6066  -29.3192   18.9972 C   0  0  0  0  0  0  0  0  0  0  0  0
  -29.0202  -21.2810   18.1446 C   0  0  0  0  0  0  0  0  0  0  0  0
  -24.3724  -12.2527   20.2931 C   0  0  0  0  0  0  0  0  0  0  0  0
  -24.8832  -29.0836   16.5934 C   0  0  0  0  0  0  0  0  0  0  0  0
  -28.1050  -23.1450   16.2817 C   0  0  0  0  0  0  0  0  0  0  0  0
  -23.0600  -10.3548   20.7379 C   0  0  0  0  0  0  0  0  0  0  0  0
  -22.8645   -7.7612   21.7467 C   0  0  0  0  0  0  0  0  0  0  0  0
  -22.1860  -10.0795   21.7895 C   0  0  0  0  0  0  0  0  0  0  0  0
  -28.1481  -14.1528   20.4701 C   0  0  0  0  0  0  0  0  0  0  0  0
  -30.2965  -14.6088   20.3618 C   0  0  0  0  0  0  0  0  0  0  0  0
  -29.7148  -12.2819   19.6575 C   0  0  0  0  0  0  0  0  0  0  0  0
  -28.2097  -24.9306   17.9996 C   0  0  0  0  0  0  0  0  0  0  0  0
  -26.6807  -29.6242   21.6866 C   0  0  0  0  0  0  0  0  0  0  0  0
  -23.6033  -29.3992   22.6871 C   0  0  0  0  0  0  0  0  0  0  0  0
  -20.3148  -28.9876   21.8727 C   0  0  0  0  0  0  0  0  0  0  0  0
  -29.8107  -20.5640   20.4266 C   0  0  0  0  0  0  0  0  0  0  0  0
  -30.1816  -30.3864   25.3226 C   0  0  0  0  0  0  0  0  0  0  0  0
  -25.5458  -31.3226   20.2091 C   0  0  0  0  0  0  0  0  0  0  0  0
  -24.0588  -28.7678   20.2872 C   0  0  0  0  0  0  0  0  0  0  0  0
  -28.8501  -29.6461   25.2271 C   0  0  0  0  0  0  0  0  0  0  0  0
  -30.9531  -18.4917   23.0870 C   0  0  0  0  0  0  0  0  0  0  0  0
  -28.8179  -28.7637   23.9832 C   0  0  0  0  0  0  0  0  0  0  0  0
  -30.4824  -17.0923   22.6842 C   0  0  0  0  0  0  0  0  0  0  0  0
  -29.9380  -19.5652   22.6984 C   0  0  0  0  0  0  0  0  0  0  0  0
  -29.0546  -18.1490   20.8865 C   0  0  0  0  0  0  0  0  0  0  0  0
  -28.9498  -29.6040   22.7072 C   0  0  1  0  0  0  0  0  0  0  0  0
  -25.4634  -30.4799   21.4781 C   0  0  1  0  0  0  0  0  0  0  0  0
  -30.0735  -17.0409   21.1990 C   0  0  2  0  0  0  0  0  0  0  0  0
  -18.0363  -28.8083   22.9088 C   0  0  0  0  0  0  0  0  0  0  0  0
  -24.2261  -26.5415   23.5562 C   0  0  0  0  0  0  0  0  0  0  0  0
  -21.7619  -26.1176   23.6845 C   0  0  0  0  0  0  0  0  0  0  0  0
  -22.8088  -27.8345   25.1606 C   0  0  0  0  0  0  0  0  0  0  0  0
  -19.3491  -31.3936   20.4454 C   0  0  0  0  0  0  0  0  0  0  0  0
  -29.0107  -26.6176   19.4819 C   0  0  0  0  0  0  0  0  0  0  0  0
  -25.6525  -28.4987   14.4204 C   0  0  0  0  0  0  0  0  0  1  0  0
  -26.3826  -23.7858   14.7723 C   0  0  0  0  0  0  0  0  0  0  0  0
  -25.6904  -27.2111   13.6202 C   0  0  0  0  0  0  0  0  0  0  0  0
  -26.0493  -24.8951   13.7933 C   0  0  0  0  0  0  0  0  0  0  0  0
  -22.5571  -28.3109   22.6905 C   0  0  1  0  0  0  0  0  0  0  0  0
  -19.0692  -29.7432   22.2992 C   0  0  2  0  0  0  0  0  0  0  0  0
  -22.8504  -27.2103   23.7488 C   0  0  0  0  0  0  0  0  0  0  0  0
  -28.2422  -15.4203   20.8809 N   0  0  0  0  0  0  0  0  0  0  0  0
  -29.5608  -15.6686   20.8041 N   0  0  0  0  0  0  0  0  0  0  0  0
  -24.3051  -29.5841   21.4874 N   0  0  0  0  0  0  0  0  0  0  0  0
  -29.6015  -19.4578   21.2771 N   0  0  0  0  0  0  0  0  0  0  0  0
  -31.6372  -14.6868   20.2253 N   0  0  0  0  0  0  0  0  0  0  0  0
  -28.6699  -11.3651   19.4787 N   0  0  0  0  0  0  0  0  0  0  0  0
  -29.4849  -20.3337   19.0904 N   0  0  0  0  0  0  0  0  0  0  0  0
  -27.6919  -30.2469   22.3932 N   0  0  0  0  0  0  0  0  0  0  0  0
  -21.2725  -28.9802   22.8647 N   0  0  0  0  0  0  0  0  0  0  0  0
  -18.4513  -30.4265   21.1278 N   0  3  0  0  0  0  0  0  0  0  0  0
  -30.8926  -11.9257   19.4139 O   0  0  0  0  0  0  0  0  0  0  0  0
  -27.3708  -25.7009   17.5165 O   0  0  0  0  0  0  0  0  0  0  0  0
  -26.7006  -28.4829   21.2408 O   0  0  0  0  0  0  0  0  0  0  0  0
  -23.7860  -30.0657   23.7089 O   0  0  0  0  0  0  0  0  0  0  0  0
  -20.4256  -28.4538   20.7711 O   0  0  0  0  0  0  0  0  0  0  0  0
  -30.2725  -21.6279   20.8473 O   0  0  0  0  0  0  0  0  0  0  0  0
  -23.1576  -11.6415   20.2355 O   0  0  0  0  0  0  0  0  0  0  0  0
  -24.6700  -28.3796   15.4485 O   0  0  0  0  0  0  0  0  0  1  0  0
  -27.6553  -24.0453   15.3520 O   0  0  0  0  0  0  0  0  0  0  0  0
  -29.0875  -25.2753   18.9900 O   0  0  0  0  0  0  0  0  0  0  0  0
  -26.0004  -26.1310   14.4923 O   0  0  0  0  0  0  0  0  0  0  0  0
  -22.7697   -6.5155   22.2299 F   0  0  0  0  0  0  0  0  0  0  0  0
  -21.4368  -11.0566   22.3186 F   0  0  0  0  0  0  0  0  0  0  0  0
  1  2  1  0  0  0  0
  1  5  2  0  0  0  0
  2  6  2  0  0  0  0
  3  9  2  0  0  0  0
  3 18  1  0  0  0  0
  4 10  1  0  0  0  0
  4 18  2  0  0  0  0
  5 21  1  0  0  0  0
  6 23  1  0  0  0  0
  7 11  2  0  0  0  0
  7 22  1  0  0  0  0
  8 12  2  0  0  0  0
  8 25  1  0  0  0  0
  9 26  1  0  0  0  0
 10 26  2  0  0  0  0
 11 27  1  0  0  0  0
 12 28  1  0  0  0  0
 13 14  2  0  0  0  0
 13 29  1  0  0  0  0
 14 30  1  0  0  0  0
 15 19  1  0  0  0  0
 15 25  2  0  0  0  0
 16 24  1  0  0  0  0
 16 27  2  0  0  0  0
 17 30  2  0  0  0  0
 17 31  1  0  0  0  0
 18 32  1  0  0  0  0
 19 28  2  0  0  0  0
 19 35  1  0  0  0  0
 20 32  1  0  0  0  0
 20 33  2  0  0  0  0
 20 34  1  0  0  0  0
 21 23  2  0  0  0  0
 21 40  1  0  0  0  0
 22 24  2  0  0  0  0
 22 41  1  0  0  0  0
 23 49  1  0  0  0  0
 24 42  1  0  0  0  0
 25 71  1  0  0  0  0
 26 81  1  0  0  0  0
 27 82  1  0  0  0  0
 28 83  1  0  0  0  0
 29 31  2  0  0  0  0
 29 81  1  0  0  0  0
 30 86  1  0  0  0  0
 31 87  1  0  0  0  0
 32 65  2  0  0  0  0
 33 66  1  0  0  0  0
 33 69  1  0  0  0  0
 34 70  1  0  0  0  0
 34 75  2  0  0  0  0
 35 76  2  0  0  0  0
 35 84  1  0  0  0  0
 36 50  1  0  0  0  0
 36 72  1  0  0  0  0
 36 77  2  0  0  0  0
 37 62  1  0  0  0  0
 37 67  1  0  0  0  0
 37 78  2  0  0  0  0
 38 63  1  0  0  0  0
 38 73  1  0  0  0  0
 38 79  2  0  0  0  0
 39 68  1  0  0  0  0
 39 71  1  0  0  0  0
 39 80  2  0  0  0  0
 40 43  1  0  0  0  0
 41 50  1  0  0  0  0
 42 67  1  0  0  0  0
 43 45  1  0  0  0  0
 44 46  1  0  0  0  0
 44 47  1  0  0  0  0
 45 49  1  0  0  0  0
 46 51  1  0  0  0  0
 47 68  1  0  0  0  0
 48 51  1  0  0  0  0
 48 68  1  0  0  0  0
 49 72  1  0  0  0  0
 50 67  1  0  0  0  0
 51 66  1  0  0  0  0
 52 63  1  0  0  0  0
 53 64  1  0  0  0  0
 54 64  1  0  0  0  0
 55 64  1  0  0  0  0
 56 74  1  0  0  0  0
 57 84  1  0  0  0  0
 58 60  1  0  0  0  0
 58 82  1  0  0  0  0
 59 61  1  0  0  0  0
 59 83  1  0  0  0  0
 60 85  1  0  0  0  0
 61 85  1  0  0  0  0
 62 64  1  0  0  0  0
 62 73  1  0  0  0  0
 63 74  1  0  0  0  0
 65 66  1  0  0  0  0
M  CHG  1  74   1
M  ISO  4  39 100  58 101  71 100  82 101
M  END
> <Batch ID>
0001

> <Smiles>
CNC(C)C(=O)NC(C(=O)N1Cc2cc([101O:1][101CH2:1]COCCOc3ccc([100NH:0][100C:0](=O)N4CCCC(n5nc(-c6ccc(Oc7ccc(F)cc7F)cc6)c(C(N)=O)c5N)C4)cc3C(=O)OC)ccc2CC1C(=O)NC1CCCc2ccccc21)C(C)(C)C

> <Shape>
0.267

> <Color>
0.077

> <Negative vol penalty>
0.000

$$$$

  -OEChem-04042320143D

 79 87  0     1  0  0  0  0  0999 V2000
  -29.7327  -34.6434   22.7549 C   0  0  0  0  0  0  0  0  0  0  0  0
  -29.5544  -33.2639   22.7336 C   0  0  0  0  0  0  0  0  0  0  0  0
  -26.8887  -12.5110   21.8991 C   0  0  0  0  0  0  0  0  0  0  0  0
  -26.0687  -14.3352   20.5437 C   0  0  0  0  0  0  0  0  0  0  0  0
  -29.4533  -23.7469   23.2642 C   0  0  0  0  0  0  0  0  0  0  0  0
  -28.5350  -23.1344   21.1150 C   0  0  0  0  0  0  0  0  0  0  0  0
  -28.6569  -35.4798   23.0499 C   0  0  0  0  0  0  0  0  0  0  0  0
  -28.3002  -32.7198   23.0085 C   0  0  0  0  0  0  0  0  0  0  0  0
  -27.0187  -29.0534   19.7589 C   0  0  0  0  0  0  0  0  0  0  0  0
  -30.0016  -22.4710   23.3936 C   0  0  0  0  0  0  0  0  0  0  0  0
  -29.0835  -21.8584   21.2444 C   0  0  0  0  0  0  0  0  0  0  0  0
  -25.5959  -11.9949   21.9867 C   0  0  0  0  0  0  0  0  0  0  0  0
  -24.7758  -13.8191   20.6313 C   0  0  0  0  0  0  0  0  0  0  0  0
  -27.5971  -27.7998   19.9529 C   0  0  0  0  0  0  0  0  0  0  0  0
  -22.5699   -9.9999   22.2665 C   0  0  0  0  0  0  0  0  0  0  0  0
  -22.4052   -8.6277   22.0779 C   0  0  0  0  0  0  0  0  0  0  0  0
  -25.5769  -27.0413   21.0313 C   0  0  0  0  0  0  0  0  0  0  0  0
  -23.3291   -8.8225   19.8541 C   0  0  0  0  0  0  0  0  0  0  0  0
  -27.1252  -13.6812   21.1776 C   0  0  0  0  0  0  0  0  0  0  0  0
  -28.7199  -24.0786   22.1249 C   0  0  0  0  0  0  0  0  0  0  0  0
  -29.4283  -13.9227   20.1077 C   0  0  0  0  0  0  0  0  0  0  0  0
  -27.3867  -34.9461   23.3190 C   0  0  0  0  0  0  0  0  0  0  0  0
  -25.7168  -29.3141   20.2100 C   0  0  0  0  0  0  0  0  0  0  0  0
  -27.2067  -33.5497   23.3087 C   0  0  0  0  0  0  0  0  0  0  0  0
  -24.9833  -28.2982   20.8394 C   0  0  0  0  0  0  0  0  0  0  0  0
  -29.8168  -21.5267   22.3837 C   0  0  0  0  0  0  0  0  0  0  0  0
  -24.5394  -12.6489   21.3528 C   0  0  0  0  0  0  0  0  0  0  0  0
  -26.8772  -26.7944   20.5918 C   0  0  0  0  0  0  0  0  0  0  0  0
  -23.1141  -10.7834   21.2489 C   0  0  0  0  0  0  0  0  0  0  0  0
  -22.7848   -8.0390   20.8717 C   0  0  0  0  0  0  0  0  0  0  0  0
  -23.4938  -10.1947   20.0427 C   0  0  0  0  0  0  0  0  0  0  0  0
  -28.4604  -14.2151   21.0872 C   0  0  0  0  0  0  0  0  0  0  0  0
  -30.5177  -14.6790   20.4650 C   0  0  0  0  0  0  0  0  0  0  0  0
  -29.3497  -13.0459   18.9760 C   0  0  0  0  0  0  0  0  0  0  0  0
  -28.1357  -25.4375   21.9872 C   0  0  0  0  0  0  0  0  0  1  0  0
  -24.4308  -31.3255   22.3087 C   0  0  0  0  0  0  0  0  0  0  0  0
  -21.6432  -30.1350   21.1535 C   0  0  0  0  0  0  0  0  0  0  0  0
  -20.0094  -27.5714   19.6026 C   0  0  0  0  0  0  0  0  0  0  0  0
  -31.1283  -19.7404   23.5818 C   0  0  0  0  0  0  0  0  0  0  0  0
  -26.2650  -35.8878   23.6792 C   0  0  0  0  0  0  0  0  0  0  0  0
  -25.0974  -30.6635   19.9692 C   0  0  0  0  0  0  0  0  0  0  0  0
  -23.5749  -28.5210   21.3244 C   0  0  0  0  0  0  0  0  0  0  0  0
  -24.8814  -35.2491   23.5910 C   0  0  0  0  0  0  0  0  0  0  0  0
  -32.6469  -16.6011   24.2999 C   0  0  0  0  0  0  0  0  0  0  0  0
  -24.8801  -33.8825   24.2687 C   0  0  0  0  0  0  0  0  0  0  0  0
  -31.8376  -15.6072   23.4637 C   0  0  0  0  0  0  0  0  0  0  0  0
  -31.7666  -17.7127   24.8686 C   0  0  0  0  0  0  0  0  0  0  0  0
  -30.1374  -17.4290   23.0426 C   0  0  0  0  0  0  0  0  0  0  0  0
  -25.8558  -32.9228   23.5771 C   0  0  1  0  0  0  0  0  0  0  0  0
  -23.9525  -30.9752   20.9280 C   0  0  1  0  0  0  0  0  0  0  0  0
  -30.9920  -16.3271   22.3950 C   0  0  2  0  0  0  0  0  0  0  0  0
  -17.7269  -26.8713   18.8296 C   0  0  0  0  0  0  0  0  0  0  0  0
  -20.8631  -29.5050   24.0352 C   0  0  0  0  0  0  0  0  0  0  0  0
  -19.0763  -27.9926   23.1474 C   0  0  0  0  0  0  0  0  0  0  0  0
  -19.0121  -30.4326   22.6324 C   0  0  0  0  0  0  0  0  0  0  0  0
  -20.8864  -27.4139   16.7804 C   0  0  0  0  0  0  0  0  0  0  0  0
  -20.7466  -28.9743   21.5112 C   0  0  1  0  0  0  0  0  0  0  0  0
  -19.0287  -27.5564   18.4439 C   0  0  2  0  0  0  0  0  0  0  0  0
  -19.9517  -29.2222   22.8242 C   0  0  0  0  0  0  0  0  0  0  0  0
  -28.8965  -15.0889   21.9984 N   0  0  0  0  0  0  0  0  0  0  0  0
  -30.1505  -15.3520   21.5930 N   0  0  0  0  0  0  0  0  0  0  0  0
  -23.0154  -29.8591   21.0712 N   0  0  0  0  0  0  0  0  0  0  0  0
  -30.9983  -18.3523   23.7983 N   0  0  0  0  0  0  0  0  0  0  0  0
  -31.7444  -14.8274   19.9212 N   0  0  0  0  0  0  0  0  0  0  0  0
  -28.1563  -12.3448   18.7557 N   0  0  0  0  0  0  0  0  0  0  0  0
  -30.3745  -20.2309   22.5161 N   0  0  0  0  0  0  0  0  0  0  0  0
  -25.2805  -32.4144   22.3503 N   0  0  0  0  0  0  0  0  0  0  0  0
  -19.9084  -28.7307   20.3422 N   0  0  0  0  0  0  0  0  0  0  0  0
  -19.6136  -26.8329   17.2797 N   0  3  0  0  0  0  0  0  0  0  0  0
  -30.3149  -12.8763   18.1930 O   0  0  0  0  0  0  0  0  0  0  0  0
  -28.2612  -26.3087   22.8347 O   0  0  0  0  0  0  0  0  0  0  0  0
  -24.0555  -30.6582   23.2656 O   0  0  0  0  0  0  0  0  0  0  0  0
  -21.1437  -31.2439   20.9475 O   0  0  0  0  0  0  0  0  0  0  0  0
  -20.7847  -26.6455   19.8311 O   0  0  0  0  0  0  0  0  0  0  0  0
  -31.8757  -20.4377   24.2725 O   0  0  0  0  0  0  0  0  0  0  0  0
  -23.2777  -12.1455   21.4380 O   0  0  0  0  0  0  0  0  0  0  0  0
  -27.4397  -25.5700   20.7831 O   0  0  0  0  0  0  0  0  0  1  0  0
  -22.6281   -6.7210   20.6913 F   0  0  0  0  0  0  0  0  0  0  0  0
  -24.0183  -10.9421   19.0618 F   0  0  0  0  0  0  0  0  0  0  0  0
  1  2  1  0  0  0  0
  1  7  2  0  0  0  0
  2  8  2  0  0  0  0
  3 12  2  0  0  0  0
  3 19  1  0  0  0  0
  4 13  1  0  0  0  0
  4 19  2  0  0  0  0
  5 10  2  0  0  0  0
  5 20  1  0  0  0  0
  6 11  1  0  0  0  0
  6 20  2  0  0  0  0
  7 22  1  0  0  0  0
  8 24  1  0  0  0  0
  9 14  2  0  0  0  0
  9 23  1  0  0  0  0
 10 26  1  0  0  0  0
 11 26  2  0  0  0  0
 12 27  1  0  0  0  0
 13 27  2  0  0  0  0
 14 28  1  0  0  0  0
 15 16  2  0  0  0  0
 15 29  1  0  0  0  0
 16 30  1  0  0  0  0
 17 25  1  0  0  0  0
 17 28  2  0  0  0  0
 18 30  2  0  0  0  0
 18 31  1  0  0  0  0
 19 32  1  0  0  0  0
 20 35  1  0  0  0  0
 21 32  1  0  0  0  0
 21 33  2  0  0  0  0
 21 34  1  0  0  0  0
 22 24  2  0  0  0  0
 22 40  1  0  0  0  0
 23 25  2  0  0  0  0
 23 41  1  0  0  0  0
 24 49  1  0  0  0  0
 25 42  1  0  0  0  0
 26 66  1  0  0  0  0
 27 76  1  0  0  0  0
 28 77  1  0  0  0  0
 29 31  2  0  0  0  0
 29 76  1  0  0  0  0
 30 78  1  0  0  0  0
 31 79  1  0  0  0  0
 32 60  2  0  0  0  0
 33 61  1  0  0  0  0
 33 64  1  0  0  0  0
 34 65  1  0  0  0  0
 34 70  2  0  0  0  0
 35 71  2  0  0  0  0
 35 77  1  0  0  0  0
 36 50  1  0  0  0  0
 36 67  1  0  0  0  0
 36 72  2  0  0  0  0
 37 57  1  0  0  0  0
 37 62  1  0  0  0  0
 37 73  2  0  0  0  0
 38 58  1  0  0  0  0
 38 68  1  0  0  0  0
 38 74  2  0  0  0  0
 39 63  1  0  0  0  0
 39 66  1  0  0  0  0
 39 75  2  0  0  0  0
 40 43  1  0  0  0  0
 41 50  1  0  0  0  0
 42 62  1  0  0  0  0
 43 45  1  0  0  0  0
 44 46  1  0  0  0  0
 44 47  1  0  0  0  0
 45 49  1  0  0  0  0
 46 51  1  0  0  0  0
 47 63  1  0  0  0  0
 48 51  1  0  0  0  0
 48 63  1  0  0  0  0
 49 67  1  0  0  0  0
 50 62  1  0  0  0  0
 51 61  1  0  0  0  0
 52 58  1  0  0  0  0
 53 59  1  0  0  0  0
 54 59  1  0  0  0  0
 55 59  1  0  0  0  0
 56 69  1  0  0  0  0
 57 59  1  0  0  0  0
 57 68  1  0  0  0  0
 58 69  1  0  0  0  0
 60 61  1  0  0  0  0
M  CHG  1  69   1
M  ISO  4  35 101  39 100  66 100  77 101
M  END
> <Batch ID>
0001

> <Smiles>
CNC(C)C(=O)NC(C(=O)N1Cc2cc([101O:1][101C:1](=O)c3ccc([100NH:0][100C:0](=O)N4CCCC(n5nc(-c6ccc(Oc7ccc(F)cc7F)cc6)c(C(N)=O)c5N)C4)cc3)ccc2CC1C(=O)NC1CCCc2ccccc21)C(C)(C)C

> <Shape>
0.296

> <Color>
0.076

> <Negative vol penalty>
0.000

$$$$

  -OEChem-04042320143D

 87 96  0     1  0  0  0  0  0999 V2000
  -19.5072  -24.5245   26.2222 C   0  0  0  0  0  0  0  0  0  0  0  0
  -26.8382  -12.0339   17.0012 C   0  0  0  0  0  0  0  0  0  0  0  0
  -25.9475  -13.0732   16.7524 C   0  0  0  0  0  0  0  0  0  0  0  0
  -18.3199  -25.1530   25.8469 C   0  0  0  0  0  0  0  0  0  0  0  0
  -20.6839  -24.7790   25.5178 C   0  0  0  0  0  0  0  0  0  0  0  0
  -17.3919  -26.5687   19.7993 C   0  0  0  0  0  0  0  0  0  0  0  0
  -27.5144  -26.4840   18.7321 C   0  0  0  0  0  0  0  0  0  0  0  0
  -28.5785  -27.8289   20.4338 C   0  0  0  0  0  0  0  0  0  0  0  0
  -27.0463  -11.5934   18.3075 C   0  0  0  0  0  0  0  0  0  0  0  0
  -25.2635  -13.6719   17.8098 C   0  0  0  0  0  0  0  0  0  0  0  0
  -23.6755  -19.5663   18.3001 C   0  0  0  0  0  0  0  0  0  0  0  0
  -18.3092  -26.0359   24.7671 C   0  0  0  0  0  0  0  0  0  0  0  0
  -20.6733  -25.6619   24.4380 C   0  0  0  0  0  0  0  0  0  0  0  0
  -17.8507  -27.1478   20.9824 C   0  0  0  0  0  0  0  0  0  0  0  0
  -18.0667  -25.4791   19.2487 C   0  0  0  0  0  0  0  0  0  0  0  0
  -28.5898  -25.5961   18.7614 C   0  0  0  0  0  0  0  0  0  0  0  0
  -29.6539  -26.9410   20.4631 C   0  0  0  0  0  0  0  0  0  0  0  0
  -22.4801  -20.2395   18.0517 C   0  0  0  0  0  0  0  0  0  0  0  0
  -29.6760  -23.0631   20.7201 C   0  0  0  0  0  0  0  0  0  0  0  0
  -29.3893  -21.6982   20.7404 C   0  0  0  0  0  0  0  0  0  0  0  0
  -21.9111  -20.0798   20.3905 C   0  0  0  0  0  0  0  0  0  0  0  0
  -19.6593  -25.5481   21.0642 C   0  0  0  0  0  0  0  0  0  0  0  0
  -30.5995  -21.4132   18.6689 C   0  0  0  0  0  0  0  0  0  0  0  0
  -27.5088  -27.6005   19.5683 C   0  0  0  0  0  0  0  0  0  0  0  0
  -25.9437  -29.2663   18.4356 C   0  0  0  0  0  0  0  0  0  0  0  0
  -26.3717  -12.1934   19.3825 C   0  0  0  0  0  0  0  0  0  0  0  0
  -23.9931  -19.1345   19.5959 C   0  0  0  0  0  0  0  0  0  0  0  0
  -25.4617  -13.2381   19.1316 C   0  0  0  0  0  0  0  0  0  0  0  0
  -23.1123  -19.4036   20.6532 C   0  0  0  0  0  0  0  0  0  0  0  0
  -19.4860  -26.2904   24.0626 C   0  0  0  0  0  0  0  0  0  0  0  0
  -18.9844  -26.6376   21.6148 C   0  0  0  0  0  0  0  0  0  0  0  0
  -19.2005  -24.9689   19.8811 C   0  0  0  0  0  0  0  0  0  0  0  0
  -29.6595  -25.8246   19.6269 C   0  0  0  0  0  0  0  0  0  0  0  0
  -21.5964  -20.4938   19.0964 C   0  0  0  0  0  0  0  0  0  0  0  0
  -30.4244  -23.6031   19.6742 C   0  0  0  0  0  0  0  0  0  0  0  0
  -29.8511  -20.8732   19.7148 C   0  0  0  0  0  0  0  0  0  0  0  0
  -30.8862  -22.7781   18.6486 C   0  0  0  0  0  0  0  0  0  0  0  0
  -26.3986  -28.5183   19.5381 C   0  0  0  0  0  0  0  0  0  0  0  0
  -24.8726  -29.9761   18.9207 C   0  0  0  0  0  0  0  0  0  0  0  0
  -26.4445  -29.3151   17.0931 C   0  0  0  0  0  0  0  0  0  0  0  0
  -24.5098  -16.3078   20.9548 C   0  0  0  0  0  0  0  0  0  0  0  0
  -25.2852  -18.1234   23.5286 C   0  0  0  0  0  0  0  0  0  0  0  0
  -24.9673  -21.0922   25.1815 C   0  0  0  0  0  0  0  0  0  0  0  0
  -21.0888  -29.0488   23.4676 C   0  0  0  0  0  0  0  0  0  0  0  0
  -26.5938  -11.6515   20.7724 C   0  0  0  0  0  0  0  0  0  0  0  0
  -25.2989  -18.4332   19.8520 C   0  0  0  0  0  0  0  0  0  0  0  0
  -23.4159  -18.9790   22.0659 C   0  0  0  0  0  0  0  0  0  0  0  0
  -26.1111  -12.5891   21.8761 C   0  0  0  0  0  0  0  0  0  0  0  0
  -23.1707  -31.8923   22.9609 C   0  0  0  0  0  0  0  0  0  0  0  0
  -24.7165  -13.1174   21.5556 C   0  0  0  0  0  0  0  0  0  0  0  0
  -24.1930  -31.4175   21.9268 C   0  0  0  0  0  0  0  0  0  0  0  0
  -22.7977  -30.7794   23.9378 C   0  0  0  0  0  0  0  0  0  0  0  0
  -23.3616  -29.0535   22.2714 C   0  0  0  0  0  0  0  0  0  0  0  0
  -24.7195  -13.9294   20.2548 C   0  0  1  0  0  0  0  0  0  0  0  0
  -25.2831  -17.5854   21.1203 C   0  0  1  0  0  0  0  0  0  0  0  0
  -23.7269  -30.1250   21.2300 C   0  0  2  0  0  0  0  0  0  0  0  0
  -25.6881  -22.2660   27.2791 C   0  0  0  0  0  0  0  0  0  0  0  0
  -23.2760  -16.4821   25.1346 C   0  0  0  0  0  0  0  0  0  0  0  0
  -23.3349  -18.2614   26.8949 C   0  0  0  0  0  0  0  0  0  0  0  0
  -25.4080  -16.9902   26.3391 C   0  0  0  0  0  0  0  0  0  0  0  0
  -26.3501  -23.2176   23.6553 C   0  0  0  0  0  0  0  0  0  0  0  0
  -19.4648  -23.2264   18.1148 C   0  0  0  0  0  0  0  0  0  0  0  0
  -20.4216  -22.0929   17.7854 C   0  0  0  0  0  0  0  0  0  1  0  0
  -19.4750  -27.2575   22.8792 C   0  0  2  0  0  0  0  0  0  0  0  0
  -24.5249  -18.6994   24.6987 C   0  0  1  0  0  0  0  0  0  0  0  0
  -25.9993  -22.0091   25.8129 C   0  0  2  0  0  0  0  0  0  0  0  0
  -24.1290  -17.6147   25.7400 C   0  0  0  0  0  0  0  0  0  0  0  0
  -25.6757  -28.7331   20.6405 N   0  0  0  0  0  0  0  0  0  0  0  0
  -24.7558  -29.6242   20.2332 N   0  0  0  0  0  0  0  0  0  0  0  0
  -24.7023  -18.2909   22.2645 N   0  0  0  0  0  0  0  0  0  0  0  0
  -22.3629  -29.5828   23.2133 N   0  0  0  0  0  0  0  0  0  0  0  0
  -24.0287  -30.8609   18.3484 N   0  0  0  0  0  0  0  0  0  0  0  0
  -27.4318  -30.2600   16.7822 N   0  0  0  0  0  0  0  0  0  0  0  0
  -19.8703  -23.8868   19.3345 N   0  0  0  0  0  0  0  0  0  0  0  0
  -25.2647  -15.2501   20.4847 N   0  0  0  0  0  0  0  0  0  0  0  0
  -25.3558  -19.7704   25.2381 N   0  0  0  0  0  0  0  0  0  0  0  0
  -20.7532  -27.9177   22.7336 N   0  0  0  0  0  0  0  0  0  0  0  0
  -26.0319  -23.3190   25.1028 N   0  3  0  0  0  0  0  0  0  0  0  0
  -26.0172  -28.5545   16.1918 O   0  0  0  0  0  0  0  0  0  0  0  0
  -23.3169  -16.2830   21.2344 O   0  0  0  0  0  0  0  0  0  0  0  0
  -26.3603  -17.5524   23.7280 O   0  0  0  0  0  0  0  0  0  0  0  0
  -23.9195  -21.5067   24.6908 O   0  0  0  0  0  0  0  0  0  0  0  0
  -20.3062  -29.5464   24.2842 O   0  0  0  0  0  0  0  0  0  0  0  0
  -30.7089  -24.9582   19.6559 O   0  0  0  0  0  0  0  0  0  0  0  0
  -20.4286  -21.1501   18.8566 O   0  0  0  0  0  0  0  0  0  1  0  0
  -29.5770  -19.5623   19.7352 F   0  0  0  0  0  0  0  0  0  0  0  0
  -31.6066  -23.2910   17.6417 F   0  0  0  0  0  0  0  0  0  0  0  0
  1  4  1  0  0  0  0
  1  5  2  0  0  0  0
  2  3  1  0  0  0  0
  2  9  2  0  0  0  0
  3 10  2  0  0  0  0
  4 12  2  0  0  0  0
  5 13  1  0  0  0  0
  6 14  1  0  0  0  0
  6 15  2  0  0  0  0
  7 16  2  0  0  0  0
  7 24  1  0  0  0  0
  8 17  1  0  0  0  0
  8 24  2  0  0  0  0
  9 26  1  0  0  0  0
 10 28  1  0  0  0  0
 11 18  2  0  0  0  0
 11 27  1  0  0  0  0
 12 30  1  0  0  0  0
 13 30  2  0  0  0  0
 14 31  2  0  0  0  0
 15 32  1  0  0  0  0
 16 33  1  0  0  0  0
 17 33  2  0  0  0  0
 18 34  1  0  0  0  0
 19 20  2  0  0  0  0
 19 35  1  0  0  0  0
 20 36  1  0  0  0  0
 21 29  1  0  0  0  0
 21 34  2  0  0  0  0
 22 31  1  0  0  0  0
 22 32  2  0  0  0  0
 23 36  2  0  0  0  0
 23 37  1  0  0  0  0
 24 38  1  0  0  0  0
 25 38  1  0  0  0  0
 25 39  2  0  0  0  0
 25 40  1  0  0  0  0
 26 28  2  0  0  0  0
 26 45  1  0  0  0  0
 27 29  2  0  0  0  0
 27 46  1  0  0  0  0
 28 54  1  0  0  0  0
 29 47  1  0  0  0  0
 30 64  1  0  0  0  0
 31 64  1  0  0  0  0
 32 74  1  0  0  0  0
 33 84  1  0  0  0  0
 34 85  1  0  0  0  0
 35 37  2  0  0  0  0
 35 84  1  0  0  0  0
 36 86  1  0  0  0  0
 37 87  1  0  0  0  0
 38 68  2  0  0  0  0
 39 69  1  0  0  0  0
 39 72  1  0  0  0  0
 40 73  1  0  0  0  0
 40 79  2  0  0  0  0
 41 55  1  0  0  0  0
 41 75  1  0  0  0  0
 41 80  2  0  0  0  0
 42 65  1  0  0  0  0
 42 70  1  0  0  0  0
 42 81  2  0  0  0  0
 43 66  1  0  0  0  0
 43 76  1  0  0  0  0
 43 82  2  0  0  0  0
 44 71  1  0  0  0  0
 44 77  1  0  0  0  0
 44 83  2  0  0  0  0
 45 48  1  0  0  0  0
 46 55  1  0  0  0  0
 47 70  1  0  0  0  0
 48 50  1  0  0  0  0
 49 51  1  0  0  0  0
 49 52  1  0  0  0  0
 50 54  1  0  0  0  0
 51 56  1  0  0  0  0
 52 71  1  0  0  0  0
 53 56  1  0  0  0  0
 53 71  1  0  0  0  0
 54 75  1  0  0  0  0
 55 70  1  0  0  0  0
 56 69  1  0  0  0  0
 57 66  1  0  0  0  0
 58 67  1  0  0  0  0
 59 67  1  0  0  0  0
 60 67  1  0  0  0  0
 61 78  1  0  0  0  0
 62 63  1  0  0  0  0
 62 74  1  0  0  0  0
 63 85  1  0  0  0  0
 64 77  1  0  0  0  0
 65 67  1  0  0  0  0
 65 76  1  0  0  0  0
 66 78  1  0  0  0  0
 68 69  1  0  0  0  0
M  CHG  1  78   1
M  ISO  4  44 100  63 101  77 100  85 101
M  END
> <Batch ID>
0001

> <Smiles>
CNC(C)C(=O)NC(C(=O)N1Cc2cc([101O:1][101CH2:1]CNc3cccc(C([100NH:0][100C:0](=O)N4CCCC(n5nc(-c6ccc(Oc7ccc(F)cc7F)cc6)c(C(N)=O)c5N)C4)c4ccccc4)c3)ccc2CC1C(=O)NC1CCCc2ccccc21)C(C)(C)C

> <Shape>
0.206

> <Color>
0.056

> <Negative vol penalty>
0.000

$$$$

  -OEChem-04042320143D

 85 93  0     1  0  0  0  0  0999 V2000
  -29.1384  -19.5774   24.0142 C   0  0  0  0  0  0  0  0  0  0  0  0
  -14.9163  -27.6822   22.1333 C   0  0  0  0  0  0  0  0  0  0  0  0
  -15.9174  -27.1097   21.3553 C   0  0  0  0  0  0  0  0  0  0  0  0
  -22.9054  -10.0424   20.0936 C   0  0  0  0  0  0  0  0  0  0  0  0
  -24.2019   -9.6327   22.0907 C   0  0  0  0  0  0  0  0  0  0  0  0
  -15.2468  -28.6094   23.1208 C   0  0  0  0  0  0  0  0  0  0  0  0
  -17.2497  -27.4649   21.5636 C   0  0  0  0  0  0  0  0  0  0  0  0
  -22.1859  -22.5051   23.2740 C   0  0  0  0  0  0  0  0  0  0  0  0
  -22.2015   -8.8573   20.3074 C   0  0  0  0  0  0  0  0  0  0  0  0
  -23.4980   -8.4477   22.3045 C   0  0  0  0  0  0  0  0  0  0  0  0
  -23.2283  -21.5862   23.3969 C   0  0  0  0  0  0  0  0  0  0  0  0
  -20.4866   -7.5280   23.5318 C   0  0  0  0  0  0  0  0  0  0  0  0
  -20.0375   -7.2674   24.8263 C   0  0  0  0  0  0  0  0  0  0  0  0
  -24.8199  -23.3985   23.5710 C   0  0  0  0  0  0  0  0  0  0  0  0
  -21.3461   -5.2370   24.8716 C   0  0  0  0  0  0  0  0  0  0  0  0
  -23.9057  -10.4301   20.9852 C   0  0  0  0  0  0  0  0  0  0  0  0
  -24.1050  -12.9569   20.6965 C   0  0  0  0  0  0  0  0  0  0  0  0
  -16.5847  -28.9689   23.3477 C   0  0  0  0  0  0  0  0  0  0  0  0
  -22.4551  -23.8760   23.3147 C   0  0  0  0  0  0  0  0  0  0  0  0
  -17.5983  -28.3987   22.5541 C   0  0  0  0  0  0  0  0  0  0  0  0
  -23.7784  -24.3237   23.4610 C   0  0  0  0  0  0  0  0  0  0  0  0
  -22.4978   -8.0600   21.4129 C   0  0  0  0  0  0  0  0  0  0  0  0
  -24.5420  -22.0318   23.5448 C   0  0  0  0  0  0  0  0  0  0  0  0
  -21.3654   -6.6431   22.9070 C   0  0  0  0  0  0  0  0  0  0  0  0
  -20.4672   -6.1219   25.4963 C   0  0  0  0  0  0  0  0  0  0  0  0
  -21.7951   -5.4976   23.5769 C   0  0  0  0  0  0  0  0  0  0  0  0
  -24.6335  -11.6539   20.7645 C   0  0  0  0  0  0  0  0  0  0  0  0
  -25.1972  -13.7592   20.4732 C   0  0  0  0  0  0  0  0  0  0  0  0
  -22.7481  -13.4021   20.8238 C   0  0  0  0  0  0  0  0  0  0  0  0
  -21.0880  -27.3678   23.1959 C   0  0  0  0  0  0  0  0  0  0  0  0
  -23.2732  -27.3392   25.3487 C   0  0  0  0  0  0  0  0  0  0  0  0
  -25.4461  -26.7844   27.9193 C   0  0  0  0  0  0  0  0  0  0  0  0
  -31.0310  -13.1294   21.6650 C   0  0  0  0  0  0  0  0  0  0  0  0
  -16.8887  -30.0109   24.3948 C   0  0  0  0  0  0  0  0  0  0  0  0
  -21.3709  -24.9017   23.1245 C   0  0  0  0  0  0  0  0  0  0  0  0
  -24.0248  -25.8077   23.4646 C   0  0  0  0  0  0  0  0  0  0  0  0
  -18.3589  -30.0526   24.8037 C   0  0  0  0  0  0  0  0  0  0  0  0
  -29.5457  -13.6948   18.4790 C   0  0  0  0  0  0  0  0  0  0  0  0
  -30.3559  -18.5764   26.7066 C   0  0  0  0  0  0  0  0  0  0  0  0
  -19.2568  -30.0301   23.5708 C   0  0  0  0  0  0  0  0  0  0  0  0
  -28.0706  -13.3534   18.6973 C   0  0  0  0  0  0  0  0  0  0  0  0
  -28.9819  -19.1934   26.4578 C   0  0  0  0  0  0  0  0  0  0  0  0
  -30.4628  -12.7735   19.2803 C   0  0  0  0  0  0  0  0  0  0  0  0
  -30.3500  -17.0743   26.4217 C   0  0  0  0  0  0  0  0  0  0  0  0
  -28.6890  -12.3629   20.9413 C   0  0  0  0  0  0  0  0  0  0  0  0
  -28.5300  -17.3094   24.8367 C   0  0  0  0  0  0  0  0  0  0  0  0
  -19.0573  -28.7399   22.7665 C   0  0  1  0  0  0  0  0  0  0  0  0
  -21.5946  -26.1775   23.9561 C   0  0  1  0  0  0  0  0  0  0  0  0
  -27.7233  -13.3011   20.1972 C   0  0  2  0  0  0  0  0  0  0  0  0
  -28.4333  -18.8286   25.0724 C   0  0  2  0  0  0  0  0  0  0  0  0
  -26.6008  -27.9612   29.8112 C   0  0  0  0  0  0  0  0  0  0  0  0
  -25.2113  -28.6138   23.3680 C   0  0  0  0  0  0  0  0  0  0  0  0
  -26.8166  -28.9446   25.2606 C   0  0  0  0  0  0  0  0  0  0  0  0
  -24.5906  -30.0695   25.3045 C   0  0  0  0  0  0  0  0  0  0  0  0
  -24.1544  -25.0500   29.9398 C   0  0  0  0  0  0  0  0  0  0  0  0
  -31.3674  -14.9462   24.4024 C   0  0  0  0  0  0  0  0  0  0  0  0
  -29.9467  -15.3596   24.7791 C   0  0  0  0  0  0  0  0  0  0  0  0
  -31.4437  -13.4564   24.0903 C   0  0  0  0  0  0  0  0  0  0  0  0
  -25.1986  -19.7476   23.6388 C   0  0  0  0  0  0  0  0  0  1  0  0
  -26.4528  -18.9098   23.7962 C   0  0  0  0  0  0  0  0  0  0  0  0
  -24.7253  -27.5730   25.6803 C   0  0  1  0  0  0  0  0  0  0  0  0
  -25.3823  -27.1546   29.3902 C   0  0  2  0  0  0  0  0  0  0  0  0
  -25.3261  -28.7743   24.8971 C   0  0  0  0  0  0  0  0  0  0  0  0
  -29.6928  -20.1662   23.1822 N   0  0  0  0  0  0  0  0  0  0  0  0
  -25.9584  -11.6255   20.5978 N   0  0  0  0  0  0  0  0  0  0  0  0
  -26.2716  -12.9207   20.4227 N   0  0  0  0  0  0  0  0  0  0  0  0
  -22.9994  -26.4852   24.2734 N   0  0  0  0  0  0  0  0  0  0  0  0
  -30.0811  -12.7703   20.6946 N   0  0  0  0  0  0  0  0  0  0  0  0
  -29.8910  -16.7951   25.0545 N   0  0  2  0  0  0  0  0  0  0  0  0
  -25.3336  -15.0931   20.3170 N   0  0  0  0  0  0  0  0  0  0  0  0
  -21.7495  -12.4454   21.0513 N   0  0  0  0  0  0  0  0  0  0  0  0
  -19.7482  -27.6374   23.4002 N   0  0  0  0  0  0  0  0  0  0  0  0
  -24.7958  -27.7102   27.1310 N   0  0  0  0  0  0  0  0  0  0  0  0
  -30.5851  -13.1062   22.9808 N   0  0  0  0  0  0  0  0  0  0  0  0
  -25.3185  -25.9259   30.2312 N   0  3  0  0  0  0  0  0  0  0  0  0
  -22.4284  -14.6109   20.7220 O   0  0  0  0  0  0  0  0  0  0  0  0
  -21.8557  -27.9973   22.4775 O   0  0  0  0  0  0  0  0  0  0  0  0
  -22.4032  -27.9017   26.0196 O   0  0  0  0  0  0  0  0  0  0  0  0
  -26.0189  -25.7769   27.5102 O   0  0  0  0  0  0  0  0  0  0  0  0
  -32.1891  -13.4523   21.3795 O   0  0  0  0  0  0  0  0  0  0  0  0
  -21.8110   -6.9036   21.6220 O   0  0  0  0  0  0  0  0  0  0  0  0
  -25.5543  -21.1292   23.6687 O   0  0  0  0  0  0  0  0  0  1  0  0
  -27.0542  -19.2050   25.0510 O   0  0  0  0  0  0  0  0  0  0  0  0
  -20.0370   -5.8726   26.7400 F   0  0  0  0  0  0  0  0  0  0  0  0
  -22.6403   -4.6444   22.9824 F   0  0  0  0  0  0  0  0  0  0  0  0
  1 50  1  0  0  0  0
  1 64  3  0  0  0  0
  2  3  1  0  0  0  0
  2  6  2  0  0  0  0
  3  7  2  0  0  0  0
  4  9  2  0  0  0  0
  4 16  1  0  0  0  0
  5 10  1  0  0  0  0
  5 16  2  0  0  0  0
  6 18  1  0  0  0  0
  7 20  1  0  0  0  0
  8 11  2  0  0  0  0
  8 19  1  0  0  0  0
  9 22  1  0  0  0  0
 10 22  2  0  0  0  0
 11 23  1  0  0  0  0
 12 13  2  0  0  0  0
 12 24  1  0  0  0  0
 13 25  1  0  0  0  0
 14 21  1  0  0  0  0
 14 23  2  0  0  0  0
 15 25  2  0  0  0  0
 15 26  1  0  0  0  0
 16 27  1  0  0  0  0
 17 27  1  0  0  0  0
 17 28  2  0  0  0  0
 17 29  1  0  0  0  0
 18 20  2  0  0  0  0
 18 34  1  0  0  0  0
 19 21  2  0  0  0  0
 19 35  1  0  0  0  0
 20 47  1  0  0  0  0
 21 36  1  0  0  0  0
 22 81  1  0  0  0  0
 23 82  1  0  0  0  0
 24 26  2  0  0  0  0
 24 81  1  0  0  0  0
 25 84  1  0  0  0  0
 26 85  1  0  0  0  0
 27 65  2  0  0  0  0
 28 66  1  0  0  0  0
 28 70  1  0  0  0  0
 29 71  1  0  0  0  0
 29 76  2  0  0  0  0
 30 48  1  0  0  0  0
 30 72  1  0  0  0  0
 30 77  2  0  0  0  0
 31 61  1  0  0  0  0
 31 67  1  0  0  0  0
 31 78  2  0  0  0  0
 32 62  1  0  0  0  0
 32 73  1  0  0  0  0
 32 79  2  0  0  0  0
 33 68  1  0  0  0  0
 33 74  1  0  0  0  0
 33 80  2  0  0  0  0
 34 37  1  0  0  0  0
 35 48  1  0  0  0  0
 36 67  1  0  0  0  0
 37 40  1  0  0  0  0
 38 41  1  0  0  0  0
 38 43  1  0  0  0  0
 39 42  1  0  0  0  0
 39 44  1  0  0  0  0
 40 47  1  0  0  0  0
 41 49  1  0  0  0  0
 42 50  1  0  0  0  0
 43 68  1  0  0  0  0
 44 69  1  0  0  0  0
 45 49  1  0  0  0  0
 45 68  1  0  0  0  0
 46 50  1  0  0  0  0
 46 69  1  0  0  0  0
 47 72  1  0  0  0  0
 48 67  1  0  0  0  0
 49 66  1  0  0  0  0
 50 83  1  0  0  0  0
 51 62  1  0  0  0  0
 52 63  1  0  0  0  0
 53 63  1  0  0  0  0
 54 63  1  0  0  0  0
 55 75  1  0  0  0  0
 56 57  1  0  0  0  0
 56 58  1  0  0  0  0
 57 69  1  0  0  0  0
 58 74  1  0  0  0  0
 59 60  1  0  0  0  0
 59 82  1  0  0  0  0
 60 83  1  0  0  0  0
 61 63  1  0  0  0  0
 61 73  1  0  0  0  0
 62 75  1  0  0  0  0
 65 66  1  0  0  0  0
M  CHG  1  75   1
M  ISO  4  33 100  59 101  74 100  82 101
M  END
> <Batch ID>
0001

> <Smiles>
CNC(C)C(=O)NC(C(=O)N1Cc2cc([101O:1][101CH2:1]COC3(C#N)CCCN(CCC[100NH:0][100C:0](=O)N4CCCC(n5nc(-c6ccc(Oc7ccc(F)cc7F)cc6)c(C(N)=O)c5N)C4)C3)ccc2CC1C(=O)NC1CCCc2ccccc21)C(C)(C)C

> <Shape>
0.235

> <Color>
0.194

> <Negative vol penalty>
0.000

$$$$

  -OEChem-04042320143D

 88 97  0     1  0  0  0  0  0999 V2000
  -34.7706  -30.5598   18.9299 C   0  0  0  0  0  0  0  0  0  0  0  0
  -34.9289  -29.4698   19.7797 C   0  0  0  0  0  0  0  0  0  0  0  0
  -37.5423  -20.0041   27.2243 C   0  0  0  0  0  0  0  0  0  0  0  0
  -38.2019  -20.2762   26.0258 C   0  0  0  0  0  0  0  0  0  0  0  0
  -23.1719   -9.7597   20.0751 C   0  0  0  0  0  0  0  0  0  0  0  0
  -23.8741   -9.9747   22.3767 C   0  0  0  0  0  0  0  0  0  0  0  0
  -30.1101  -18.8264   23.6639 C   0  0  0  0  0  0  0  0  0  0  0  0
  -32.3413  -18.0293   23.1911 C   0  0  0  0  0  0  0  0  0  0  0  0
  -33.6103  -30.6847   18.1671 C   0  0  0  0  0  0  0  0  0  0  0  0
  -33.9264  -28.5046   19.8681 C   0  0  0  0  0  0  0  0  0  0  0  0
  -35.7598  -23.7850   19.7750 C   0  0  0  0  0  0  0  0  0  0  0  0
  -36.1520  -20.0952   27.2916 C   0  0  0  0  0  0  0  0  0  0  0  0
  -37.4712  -20.6395   24.8945 C   0  0  0  0  0  0  0  0  0  0  0  0
  -29.5823  -17.8511   22.8178 C   0  0  0  0  0  0  0  0  0  0  0  0
  -31.8135  -17.0540   22.3450 C   0  0  0  0  0  0  0  0  0  0  0  0
  -22.4691   -8.5989   20.3979 C   0  0  0  0  0  0  0  0  0  0  0  0
  -23.1713   -8.8139   22.6996 C   0  0  0  0  0  0  0  0  0  0  0  0
  -36.3231  -23.2974   20.9534 C   0  0  0  0  0  0  0  0  0  0  0  0
  -23.1670   -5.3396   20.9581 C   0  0  0  0  0  0  0  0  0  0  0  0
  -23.2984   -4.2447   20.1040 C   0  0  0  0  0  0  0  0  0  0  0  0
  -34.2829  -22.1002   21.4262 C   0  0  0  0  0  0  0  0  0  0  0  0
  -20.9185   -4.2827   19.6894 C   0  0  0  0  0  0  0  0  0  0  0  0
  -23.8745  -10.4476   21.0645 C   0  0  0  0  0  0  0  0  0  0  0  0
  -31.4895  -18.9155   23.8505 C   0  0  0  0  0  0  0  0  0  0  0  0
  -24.1174  -12.9682   20.7559 C   0  0  0  0  0  0  0  0  0  0  0  0
  -32.5972  -29.7156   18.2389 C   0  0  0  0  0  0  0  0  0  0  0  0
  -34.4477  -23.4420   19.4182 C   0  0  0  0  0  0  0  0  0  0  0  0
  -32.7508  -28.6174   19.1065 C   0  0  0  0  0  0  0  0  0  0  0  0
  -33.7061  -22.5827   20.2414 C   0  0  0  0  0  0  0  0  0  0  0  0
  -35.4213  -20.4586   26.1603 C   0  0  0  0  0  0  0  0  0  0  0  0
  -36.0809  -20.7308   24.9618 C   0  0  0  0  0  0  0  0  0  0  0  0
  -30.4340  -16.9649   22.1583 C   0  0  0  0  0  0  0  0  0  0  0  0
  -22.4687   -8.1260   21.7101 C   0  0  0  0  0  0  0  0  0  0  0  0
  -35.5836  -22.4572   21.7807 C   0  0  0  0  0  0  0  0  0  0  0  0
  -21.9114   -5.9060   21.1779 C   0  0  0  0  0  0  0  0  0  0  0  0
  -22.1741   -3.7162   19.4696 C   0  0  0  0  0  0  0  0  0  0  0  0
  -20.7872   -5.3776   20.5435 C   0  0  0  0  0  0  0  0  0  0  0  0
  -24.6012  -11.6464   20.7315 C   0  0  0  0  0  0  0  0  0  0  0  0
  -25.1871  -13.7327   20.3590 C   0  0  0  0  0  0  0  0  0  0  0  0
  -32.0517  -19.9544   24.7516 C   0  0  0  0  0  0  0  0  0  0  0  0
  -22.8172  -13.4608   21.1061 C   0  0  0  0  0  0  0  0  0  0  0  0
  -31.7536  -25.0629   18.9514 C   0  0  0  0  0  0  0  0  0  0  0  0
  -30.6372  -22.1709   17.9964 C   0  0  0  0  0  0  0  0  0  0  0  0
  -30.9113  -18.7718   18.1287 C   0  0  0  0  0  0  0  0  0  0  0  0
  -30.6009  -15.0173   20.5692 C   0  0  0  0  0  0  0  0  0  0  0  0
  -31.3402  -29.9182   17.4305 C   0  0  0  0  0  0  0  0  0  0  0  0
  -33.8640  -23.9549   18.1303 C   0  0  0  0  0  0  0  0  0  0  0  0
  -32.3007  -22.1681   19.8933 C   0  0  0  0  0  0  0  0  0  0  0  0
  -30.4891  -28.6575   17.3015 C   0  0  0  0  0  0  0  0  0  0  0  0
  -29.6432  -12.3841   18.3724 C   0  0  0  0  0  0  0  0  0  0  0  0
  -30.3357  -27.9759   18.6575 C   0  0  0  0  0  0  0  0  0  0  0  0
  -28.2063  -12.0662   18.7923 C   0  0  0  0  0  0  0  0  0  0  0  0
  -30.5184  -12.7427   19.5720 C   0  0  0  0  0  0  0  0  0  0  0  0
  -28.5504  -13.4904   20.8515 C   0  0  0  0  0  0  0  0  0  0  0  0
  -31.6966  -27.5368   19.2114 C   0  0  1  0  0  0  0  0  0  0  0  0
  -32.3385  -23.9538   18.1234 C   0  0  1  0  0  0  0  0  0  0  0  0
  -27.6147  -13.1865   19.6701 C   0  0  2  0  0  0  0  0  0  0  0  0
  -29.8325  -16.6737   17.2734 C   0  0  0  0  0  0  0  0  0  0  0  0
  -28.3599  -22.5298   19.9952 C   0  0  0  0  0  0  0  0  0  0  0  0
  -27.8885  -20.0793   19.7922 C   0  0  0  0  0  0  0  0  0  0  0  0
  -27.6736  -21.5586   17.7952 C   0  0  0  0  0  0  0  0  0  0  0  0
  -33.3823  -17.9318   16.7333 C   0  0  0  0  0  0  0  0  0  0  0  0
  -33.9335  -20.5486   26.2555 C   0  0  0  0  0  0  0  0  0  0  0  0
  -35.3165  -21.1241   23.7320 C   0  0  0  0  0  0  0  0  0  1  0  0
  -29.9743  -21.0010   18.6827 C   0  0  1  0  0  0  0  0  0  0  0  0
  -30.9123  -17.7180   17.0360 C   0  0  2  0  0  0  0  0  0  0  0  0
  -28.4999  -21.3014   19.0742 C   0  0  0  0  0  0  0  0  0  0  0  0
  -25.8788  -11.5719   20.3492 N   0  0  0  0  0  0  0  0  0  0  0  0
  -26.2069  -12.8565   20.1296 N   0  0  0  0  0  0  0  0  0  0  0  0
  -31.7719  -22.7009   18.6267 N   0  0  0  0  0  0  0  0  0  0  0  0
  -29.8970  -13.8135   20.3544 N   0  0  0  0  0  0  0  0  0  0  0  0
  -25.3456  -15.0623   20.1872 N   0  0  0  0  0  0  0  0  0  0  0  0
  -21.8347  -12.5385   21.4912 N   0  0  0  0  0  0  0  0  0  0  0  0
  -29.8969  -15.9744   21.2992 N   0  0  0  0  0  0  0  0  0  0  0  0
  -33.2731  -19.6543   25.3401 N   0  0  0  0  0  0  0  0  0  0  0  0
  -32.1436  -26.3276   18.5537 N   0  0  0  0  0  0  0  0  0  0  0  0
  -30.1345  -19.8592   17.7889 N   0  0  0  0  0  0  0  0  0  0  0  0
  -32.2315  -17.0266   16.9843 N   0  3  0  0  0  0  0  0  0  0  0  0
  -31.4181  -20.9890   24.9433 O   0  0  0  0  0  0  0  0  0  0  0  0
  -22.5303  -14.6812   21.0625 O   0  0  0  0  0  0  0  0  0  0  0  0
  -31.0029  -24.7915   19.8811 O   0  0  0  0  0  0  0  0  0  0  0  0
  -30.1697  -22.5942   16.9362 O   0  0  0  0  0  0  0  0  0  0  0  0
  -31.5340  -18.6415   19.1803 O   0  0  0  0  0  0  0  0  0  0  0  0
  -31.7335  -15.1969   20.1143 O   0  0  0  0  0  0  0  0  0  0  0  0
  -21.7828   -6.9935   22.0255 O   0  0  0  0  0  0  0  0  0  0  0  0
  -36.1308  -21.9803   22.9318 O   0  0  0  0  0  0  0  0  0  1  0  0
  -22.3006   -2.6657   18.6483 F   0  0  0  0  0  0  0  0  0  0  0  0
  -19.5785   -5.9183   20.7498 F   0  0  0  0  0  0  0  0  0  0  0  0
  1  2  1  0  0  0  0
  1  9  2  0  0  0  0
  2 10  2  0  0  0  0
  3  4  1  0  0  0  0
  3 12  2  0  0  0  0
  4 13  2  0  0  0  0
  5 16  2  0  0  0  0
  5 23  1  0  0  0  0
  6 17  1  0  0  0  0
  6 23  2  0  0  0  0
  7 14  2  0  0  0  0
  7 24  1  0  0  0  0
  8 15  1  0  0  0  0
  8 24  2  0  0  0  0
  9 26  1  0  0  0  0
 10 28  1  0  0  0  0
 11 18  2  0  0  0  0
 11 27  1  0  0  0  0
 12 30  1  0  0  0  0
 13 31  1  0  0  0  0
 14 32  1  0  0  0  0
 15 32  2  0  0  0  0
 16 33  1  0  0  0  0
 17 33  2  0  0  0  0
 18 34  1  0  0  0  0
 19 20  2  0  0  0  0
 19 35  1  0  0  0  0
 20 36  1  0  0  0  0
 21 29  1  0  0  0  0
 21 34  2  0  0  0  0
 22 36  2  0  0  0  0
 22 37  1  0  0  0  0
 23 38  1  0  0  0  0
 24 40  1  0  0  0  0
 25 38  1  0  0  0  0
 25 39  2  0  0  0  0
 25 41  1  0  0  0  0
 26 28  2  0  0  0  0
 26 46  1  0  0  0  0
 27 29  2  0  0  0  0
 27 47  1  0  0  0  0
 28 55  1  0  0  0  0
 29 48  1  0  0  0  0
 30 31  2  0  0  0  0
 30 63  1  0  0  0  0
 31 64  1  0  0  0  0
 32 74  1  0  0  0  0
 33 85  1  0  0  0  0
 34 86  1  0  0  0  0
 35 37  2  0  0  0  0
 35 85  1  0  0  0  0
 36 87  1  0  0  0  0
 37 88  1  0  0  0  0
 38 68  2  0  0  0  0
 39 69  1  0  0  0  0
 39 72  1  0  0  0  0
 40 75  1  0  0  0  0
 40 79  2  0  0  0  0
 41 73  1  0  0  0  0
 41 80  2  0  0  0  0
 42 56  1  0  0  0  0
 42 76  1  0  0  0  0
 42 81  2  0  0  0  0
 43 65  1  0  0  0  0
 43 70  1  0  0  0  0
 43 82  2  0  0  0  0
 44 66  1  0  0  0  0
 44 77  1  0  0  0  0
 44 83  2  0  0  0  0
 45 71  1  0  0  0  0
 45 74  1  0  0  0  0
 45 84  2  0  0  0  0
 46 49  1  0  0  0  0
 47 56  1  0  0  0  0
 48 70  1  0  0  0  0
 49 51  1  0  0  0  0
 50 52  1  0  0  0  0
 50 53  1  0  0  0  0
 51 55  1  0  0  0  0
 52 57  1  0  0  0  0
 53 71  1  0  0  0  0
 54 57  1  0  0  0  0
 54 71  1  0  0  0  0
 55 76  1  0  0  0  0
 56 70  1  0  0  0  0
 57 69  1  0  0  0  0
 58 66  1  0  0  0  0
 59 67  1  0  0  0  0
 60 67  1  0  0  0  0
 61 67  1  0  0  0  0
 62 78  1  0  0  0  0
 63 75  1  0  0  0  0
 64 86  1  0  0  0  0
 65 67  1  0  0  0  0
 65 77  1  0  0  0  0
 66 78  1  0  0  0  0
 68 69  1  0  0  0  0
M  CHG  1  78   1
M  ISO  4  45 100  64 101  74 100  86 101
M  END
> <Batch ID>
0001

> <Smiles>
CNC(C)C(=O)NC(C(=O)N1Cc2cc([101O:1][101CH2:1]c3ccccc3CNC(=O)c3ccc([100NH:0][100C:0](=O)N4CCCC(n5nc(-c6ccc(Oc7ccc(F)cc7F)cc6)c(C(N)=O)c5N)C4)cc3)ccc2CC1C(=O)NC1CCCc2ccccc21)C(C)(C)C

> <Shape>
0.211

> <Color>
0.195

> <Negative vol penalty>
0.000

$$$$

  -OEChem-04042320143D

 85 94  0     1  0  0  0  0  0999 V2000
  -38.1962  -34.5272   18.1253 C   0  0  0  0  0  0  0  0  0  0  0  0
  -37.8892  -33.1732   18.2136 C   0  0  0  0  0  0  0  0  0  0  0  0
  -23.0841   -9.9148   19.9362 C   0  0  0  0  0  0  0  0  0  0  0  0
  -23.8570   -9.8923   22.2252 C   0  0  0  0  0  0  0  0  0  0  0  0
  -33.3255  -23.0933   22.0283 C   0  0  0  0  0  0  0  0  0  0  0  0
  -37.3189  -35.4754   18.6499 C   0  0  0  0  0  0  0  0  0  0  0  0
  -36.7051  -32.7665   18.8276 C   0  0  0  0  0  0  0  0  0  0  0  0
  -33.1923  -21.7888   22.5089 C   0  0  0  0  0  0  0  0  0  0  0  0
  -33.2131  -27.9786   17.2825 C   0  0  0  0  0  0  0  0  0  0  0  0
  -22.3274   -8.7688   20.1805 C   0  0  0  0  0  0  0  0  0  0  0  0
  -23.1002   -8.7464   22.4695 C   0  0  0  0  0  0  0  0  0  0  0  0
  -33.1138  -26.6858   17.7950 C   0  0  0  0  0  0  0  0  0  0  0  0
  -19.8658   -7.9834   23.0836 C   0  0  0  0  0  0  0  0  0  0  0  0
  -19.1151   -7.9426   24.2585 C   0  0  0  0  0  0  0  0  0  0  0  0
  -31.8037  -22.6229   20.1869 C   0  0  0  0  0  0  0  0  0  0  0  0
  -31.2468  -27.3760   19.1579 C   0  0  0  0  0  0  0  0  0  0  0  0
  -20.3364   -5.9836   24.9710 C   0  0  0  0  0  0  0  0  0  0  0  0
  -23.8490  -10.4765   20.9586 C   0  0  0  0  0  0  0  0  0  0  0  0
  -32.6366  -23.5071   20.8761 C   0  0  0  0  0  0  0  0  0  0  0  0
  -24.2215  -12.9982   20.8584 C   0  0  0  0  0  0  0  0  0  0  0  0
  -36.1188  -35.0806   19.2619 C   0  0  0  0  0  0  0  0  0  0  0  0
  -32.3354  -28.9841   17.7127 C   0  0  0  0  0  0  0  0  0  0  0  0
  -32.3650  -20.9202   21.8193 C   0  0  0  0  0  0  0  0  0  0  0  0
  -35.8115  -33.7102   19.3620 C   0  0  0  0  0  0  0  0  0  0  0  0
  -31.6780  -21.3329   20.6708 C   0  0  0  0  0  0  0  0  0  0  0  0
  -31.3354  -28.6801   18.6474 C   0  0  0  0  0  0  0  0  0  0  0  0
  -22.3354   -8.1846   21.4471 C   0  0  0  0  0  0  0  0  0  0  0  0
  -32.1324  -26.3851   18.7350 C   0  0  0  0  0  0  0  0  0  0  0  0
  -20.8519   -7.0242   22.8524 C   0  0  0  0  0  0  0  0  0  0  0  0
  -19.3504   -6.9428   25.2022 C   0  0  0  0  0  0  0  0  0  0  0  0
  -21.0872   -6.0244   23.7961 C   0  0  0  0  0  0  0  0  0  0  0  0
  -24.6314  -11.6600   20.7067 C   0  0  0  0  0  0  0  0  0  0  0  0
  -25.3209  -13.7372   20.4954 C   0  0  0  0  0  0  0  0  0  0  0  0
  -22.9600  -13.5261   21.2891 C   0  0  0  0  0  0  0  0  0  0  0  0
  -32.7947  -24.9011   20.3876 C   0  0  0  0  0  0  0  0  0  1  0  0
  -32.6737  -31.7647   19.2152 C   0  0  0  0  0  0  0  0  0  0  0  0
  -30.5440  -17.8592   20.8844 C   0  0  0  0  0  0  0  0  0  0  0  0
  -29.4984  -32.0345   18.6094 C   0  0  0  0  0  0  0  0  0  0  0  0
  -26.5317  -30.4803   17.9539 C   0  0  0  0  0  0  0  0  0  0  0  0
  -30.8178  -14.6865   20.6610 C   0  0  0  0  0  0  0  0  0  0  0  0
  -35.2245  -36.1396   19.8564 C   0  0  0  0  0  0  0  0  0  0  0  0
  -32.4386  -30.3671   17.1302 C   0  0  0  0  0  0  0  0  0  0  0  0
  -32.0569  -19.4915   22.1239 C   0  0  0  0  0  0  0  0  0  0  0  0
  -30.8601  -20.2110   20.1242 C   0  0  0  0  0  0  0  0  0  0  0  0
  -30.3558  -29.7188   19.1268 C   0  0  0  0  0  0  0  0  0  0  0  0
  -33.8121  -35.6451   20.1578 C   0  0  0  0  0  0  0  0  0  0  0  0
  -29.6372  -12.3372   18.2603 C   0  0  0  0  0  0  0  0  0  0  0  0
  -33.8592  -34.2993   20.8743 C   0  0  0  0  0  0  0  0  0  0  0  0
  -28.1987  -12.0576   18.6989 C   0  0  0  0  0  0  0  0  0  0  0  0
  -30.5638  -12.5362   19.4577 C   0  0  0  0  0  0  0  0  0  0  0  0
  -28.6791  -13.2787   20.8615 C   0  0  0  0  0  0  0  0  0  0  0  0
  -34.5250  -33.2310   19.9985 C   0  0  1  0  0  0  0  0  0  0  0  0
  -31.8201  -31.4389   18.0224 C   0  0  1  0  0  0  0  0  0  0  0  0
  -27.6962  -13.1264   19.6880 C   0  0  2  0  0  0  0  0  0  0  0  0
  -24.1033  -30.9628   17.5443 C   0  0  0  0  0  0  0  0  0  0  0  0
  -29.1010  -32.5522   21.5900 C   0  0  0  0  0  0  0  0  0  0  0  0
  -26.6623  -32.0811   21.2757 C   0  0  0  0  0  0  0  0  0  0  0  0
  -27.7233  -34.0004   20.0869 C   0  0  0  0  0  0  0  0  0  0  0  0
  -26.6296  -29.2795   15.2507 C   0  0  0  0  0  0  0  0  0  0  0  0
  -30.9174  -16.8253   21.9160 C   0  0  0  0  0  0  0  0  0  0  0  0
  -28.2344  -31.6412   19.3350 C   0  0  1  0  0  0  0  0  0  0  0  0
  -25.4661  -30.7446   16.9055 C   0  0  2  0  0  0  0  0  0  0  0  0
  -27.9498  -32.5494   20.5645 C   0  0  0  0  0  0  0  0  0  0  0  0
  -25.8926  -11.5521   20.2803 N   0  0  0  0  0  0  0  0  0  0  0  0
  -26.2847  -12.8320   20.1610 N   0  0  0  0  0  0  0  0  0  0  0  0
  -31.1270  -19.1039   21.0505 N   0  0  0  0  0  0  0  0  0  0  0  0
  -30.5014  -31.0578   18.5324 N   0  0  0  0  0  0  0  0  0  0  0  0
  -30.0311  -13.5637   20.3557 N   0  0  0  0  0  0  0  0  0  0  0  0
  -25.5474  -15.0666   20.4327 N   0  0  0  0  0  0  0  0  0  0  0  0
  -21.9387  -12.6266   21.6243 N   0  0  0  0  0  0  0  0  0  0  0  0
  -33.6035  -32.7610   18.9864 N   0  0  0  0  0  0  0  0  0  0  0  0
  -27.1727  -31.6402   18.3344 N   0  0  0  0  0  0  0  0  0  0  0  0
  -30.2351  -15.6153   21.5145 N   0  0  0  0  0  0  0  0  0  0  0  0
  -25.3659  -29.5916   15.9666 N   0  3  0  0  0  0  0  0  0  0  0  0
  -22.7394  -14.7590   21.3584 O   0  0  0  0  0  0  0  0  0  0  0  0
  -33.5045  -25.7275   20.9412 O   0  0  0  0  0  0  0  0  0  0  0  0
  -32.5005  -31.1582   20.2659 O   0  0  0  0  0  0  0  0  0  0  0  0
  -29.7692  -17.5780   19.9688 O   0  0  0  0  0  0  0  0  0  0  0  0
  -29.5896  -33.1642   18.1225 O   0  0  0  0  0  0  0  0  0  0  0  0
  -26.7689  -29.3576   18.3942 O   0  0  0  0  0  0  0  0  0  0  0  0
  -31.9533  -14.8519   20.2024 O   0  0  0  0  0  0  0  0  0  0  0  0
  -21.5969   -7.0665   21.6859 O   0  0  0  0  0  0  0  0  0  0  0  0
  -32.0338  -25.1242   19.2374 O   0  0  0  0  0  0  0  0  0  1  0  0
  -18.6304   -6.9047   26.3310 F   0  0  0  0  0  0  0  0  0  0  0  0
  -22.0339   -5.1009   23.5800 F   0  0  0  0  0  0  0  0  0  0  0  0
  1  2  1  0  0  0  0
  1  6  2  0  0  0  0
  2  7  2  0  0  0  0
  3 10  2  0  0  0  0
  3 18  1  0  0  0  0
  4 11  1  0  0  0  0
  4 18  2  0  0  0  0
  5  8  2  0  0  0  0
  5 19  1  0  0  0  0
  6 21  1  0  0  0  0
  7 24  1  0  0  0  0
  8 23  1  0  0  0  0
  9 12  2  0  0  0  0
  9 22  1  0  0  0  0
 10 27  1  0  0  0  0
 11 27  2  0  0  0  0
 12 28  1  0  0  0  0
 13 14  2  0  0  0  0
 13 29  1  0  0  0  0
 14 30  1  0  0  0  0
 15 19  2  0  0  0  0
 15 25  1  0  0  0  0
 16 26  1  0  0  0  0
 16 28  2  0  0  0  0
 17 30  2  0  0  0  0
 17 31  1  0  0  0  0
 18 32  1  0  0  0  0
 19 35  1  0  0  0  0
 20 32  1  0  0  0  0
 20 33  2  0  0  0  0
 20 34  1  0  0  0  0
 21 24  2  0  0  0  0
 21 41  1  0  0  0  0
 22 26  2  0  0  0  0
 22 42  1  0  0  0  0
 23 25  2  0  0  0  0
 23 43  1  0  0  0  0
 24 52  1  0  0  0  0
 25 44  1  0  0  0  0
 26 45  1  0  0  0  0
 27 82  1  0  0  0  0
 28 83  1  0  0  0  0
 29 31  2  0  0  0  0
 29 82  1  0  0  0  0
 30 84  1  0  0  0  0
 31 85  1  0  0  0  0
 32 64  2  0  0  0  0
 33 65  1  0  0  0  0
 33 69  1  0  0  0  0
 34 70  1  0  0  0  0
 34 75  2  0  0  0  0
 35 76  2  0  0  0  0
 35 83  1  0  0  0  0
 36 53  1  0  0  0  0
 36 71  1  0  0  0  0
 36 77  2  0  0  0  0
 37 60  1  0  0  0  0
 37 66  1  0  0  0  0
 37 78  2  0  0  0  0
 38 61  1  0  0  0  0
 38 67  1  0  0  0  0
 38 79  2  0  0  0  0
 39 62  1  0  0  0  0
 39 72  1  0  0  0  0
 39 80  2  0  0  0  0
 40 68  1  0  0  0  0
 40 73  1  0  0  0  0
 40 81  2  0  0  0  0
 41 46  1  0  0  0  0
 42 53  1  0  0  0  0
 43 66  1  0  0  0  0
 44 66  1  0  0  0  0
 45 67  1  0  0  0  0
 46 48  1  0  0  0  0
 47 49  1  0  0  0  0
 47 50  1  0  0  0  0
 48 52  1  0  0  0  0
 49 54  1  0  0  0  0
 50 68  1  0  0  0  0
 51 54  1  0  0  0  0
 51 68  1  0  0  0  0
 52 71  1  0  0  0  0
 53 67  1  0  0  0  0
 54 65  1  0  0  0  0
 55 62  1  0  0  0  0
 56 63  1  0  0  0  0
 57 63  1  0  0  0  0
 58 63  1  0  0  0  0
 59 74  1  0  0  0  0
 60 73  1  0  0  0  0
 61 63  1  0  0  0  0
 61 72  1  0  0  0  0
 62 74  1  0  0  0  0
 64 65  1  0  0  0  0
M  CHG  1  74   1
M  ISO  4  35 101  40 100  73 100  83 101
M  END
> <Batch ID>
0001

> <Smiles>
CNC(C)C(=O)NC(C(=O)N1Cc2cc([101O:1][101C:1](=O)c3ccc4c(c3)CN(C(=O)C[100NH:0][100C:0](=O)N3CCCC(n5nc(-c6ccc(Oc7ccc(F)cc7F)cc6)c(C(N)=O)c5N)C3)C4)ccc2CC1C(=O)NC1CCCc2ccccc21)C(C)(C)C

> <Shape>
0.200

> <Color>
0.209

> <Negative vol penalty>
0.000

$$$$

  -OEChem-04042320143D

 86 94  0     1  0  0  0  0  0999 V2000
  -27.8392  -11.0968   18.6021 C   0  0  0  0  0  0  0  0  0  0  0  0
  -27.8735  -12.3597   18.0197 C   0  0  0  0  0  0  0  0  0  0  0  0
  -24.3936  -28.6962   22.5823 C   0  0  0  0  0  0  0  0  0  0  0  0
  -24.8215  -30.1060   20.6675 C   0  0  0  0  0  0  0  0  0  0  0  0
  -26.9011  -10.8129   19.5937 C   0  0  0  0  0  0  0  0  0  0  0  0
  -26.9688  -13.3392   18.4278 C   0  0  0  0  0  0  0  0  0  0  0  0
  -29.1704  -17.8449   19.1321 C   0  0  0  0  0  0  0  0  0  0  0  0
  -35.1874  -24.0943   16.9161 C   0  0  0  0  0  0  0  0  0  0  0  0
  -24.0124  -29.8159   23.3215 C   0  0  0  0  0  0  0  0  0  0  0  0
  -24.4402  -31.2258   21.4067 C   0  0  0  0  0  0  0  0  0  0  0  0
  -29.4602  -18.5968   17.9944 C   0  0  0  0  0  0  0  0  0  0  0  0
  -35.9114  -22.9483   16.5875 C   0  0  0  0  0  0  0  0  0  0  0  0
  -25.7993  -33.2400   23.7577 C   0  0  0  0  0  0  0  0  0  0  0  0
  -26.6036  -34.3765   23.6738 C   0  0  0  0  0  0  0  0  0  0  0  0
  -27.4788  -19.9201   18.3716 C   0  0  0  0  0  0  0  0  0  0  0  0
  -33.9798  -22.0562   15.4429 C   0  0  0  0  0  0  0  0  0  0  0  0
  -24.7308  -35.6383   22.8149 C   0  0  0  0  0  0  0  0  0  0  0  0
  -24.7983  -28.8413   21.2553 C   0  0  0  0  0  0  0  0  0  0  0  0
  -24.3647  -26.8647   19.7020 C   0  0  0  0  0  0  0  0  0  0  0  0
  -25.9908  -11.7924   20.0209 C   0  0  0  0  0  0  0  0  0  0  0  0
  -28.0249  -18.1184   19.8933 C   0  0  0  0  0  0  0  0  0  0  0  0
  -26.0167  -13.0677   19.4250 C   0  0  0  0  0  0  0  0  0  0  0  0
  -27.1781  -19.1719   19.5200 C   0  0  0  0  0  0  0  0  0  0  0  0
  -33.8595  -24.2212   16.5083 C   0  0  0  0  0  0  0  0  0  0  0  0
  -33.2557  -23.2022   15.7716 C   0  0  0  0  0  0  0  0  0  0  0  0
  -24.0356  -31.0807   22.7338 C   0  0  0  0  0  0  0  0  0  0  0  0
  -28.6128  -19.6327   17.6123 C   0  0  0  0  0  0  0  0  0  0  0  0
  -35.3076  -21.9292   15.8509 C   0  0  0  0  0  0  0  0  0  0  0  0
  -24.4608  -33.3025   23.3701 C   0  0  0  0  0  0  0  0  0  0  0  0
  -26.0693  -35.5757   23.2025 C   0  0  0  0  0  0  0  0  0  0  0  0
  -23.9265  -34.5017   22.8988 C   0  0  0  0  0  0  0  0  0  0  0  0
  -25.1928  -27.6851   20.4913 C   0  0  0  0  0  0  0  0  0  0  0  0
  -25.2122  -25.9130   19.1896 C   0  0  0  0  0  0  0  0  0  0  0  0
  -22.9554  -26.9549   19.4540 C   0  0  0  0  0  0  0  0  0  0  0  0
  -25.4036  -16.4943   20.6644 C   0  0  0  0  0  0  0  0  0  0  0  0
  -24.8186  -19.0834   22.5289 C   0  0  0  0  0  0  0  0  0  0  0  0
  -25.3454  -22.4019   23.1265 C   0  0  0  0  0  0  0  0  0  0  0  0
  -31.0133  -25.9912   18.0960 C   0  0  0  0  0  0  0  0  0  0  0  0
  -24.9641  -11.4242   21.0626 C   0  0  0  0  0  0  0  0  0  0  0  0
  -27.7407  -17.3154   21.1330 C   0  0  0  0  0  0  0  0  0  0  0  0
  -25.9465  -19.5190   20.3145 C   0  0  0  0  0  0  0  0  0  0  0  0
  -24.2857  -12.6325   21.7030 C   0  0  0  0  0  0  0  0  0  0  0  0
  -29.2805  -23.5962   20.1838 C   0  0  0  0  0  0  0  0  0  0  0  0
  -23.8568  -13.6326   20.6340 C   0  0  0  0  0  0  0  0  0  0  0  0
  -27.9476  -24.3082   20.4215 C   0  0  0  0  0  0  0  0  0  0  0  0
  -30.4411  -24.5866   20.1678 C   0  0  0  0  0  0  0  0  0  0  0  0
  -28.9598  -26.4085   19.4194 C   0  0  0  0  0  0  0  0  0  0  0  0
  -25.0681  -14.1643   19.8583 C   0  0  1  0  0  0  0  0  0  0  0  0
  -26.2717  -17.3495   21.5433 C   0  0  1  0  0  0  0  0  0  0  0  0
  -27.7440  -25.4640   19.4241 C   0  0  2  0  0  0  0  0  0  0  0  0
  -24.7027  -24.2460   24.7023 C   0  0  0  0  0  0  0  0  0  0  0  0
  -22.0903  -19.2840   21.1774 C   0  0  0  0  0  0  0  0  0  0  0  0
  -21.9001  -21.6175   22.0645 C   0  0  0  0  0  0  0  0  0  0  0  0
  -22.0652  -19.6940   23.6444 C   0  0  0  0  0  0  0  0  0  0  0  0
  -28.1510  -22.8125   23.9744 C   0  0  0  0  0  0  0  0  0  0  0  0
  -31.8213  -23.3166   15.3208 C   0  0  0  0  0  0  0  0  0  0  0  0
  -33.1048  -25.4574   16.8721 C   0  0  0  0  0  0  0  0  0  0  0  0
  -30.8434  -22.4743   16.1474 C   0  0  0  0  0  0  0  0  0  0  0  0
  -29.4067  -22.5429   15.6278 C   0  0  0  0  0  0  0  0  0  0  0  0
  -36.1654  -18.4223   15.7648 C   0  0  0  0  0  0  0  0  0  0  0  0
  -28.4586  -21.7270   16.4961 C   0  0  0  0  0  0  0  0  0  1  0  0
  -35.2789  -19.5952   15.3953 C   0  0  0  0  0  0  0  0  0  0  0  0
  -24.1091  -20.4018   22.3354 C   0  0  1  0  0  0  0  0  0  0  0  0
  -25.7123  -23.1511   24.3947 C   0  0  2  0  0  0  0  0  0  0  0  0
  -22.5633  -20.2418   22.2892 C   0  0  0  0  0  0  0  0  0  0  0  0
  -26.4684  -27.2891   20.4842 N   0  0  0  0  0  0  0  0  0  0  0  0
  -26.4482  -26.2095   19.6842 N   0  0  0  0  0  0  0  0  0  0  0  0
  -25.7082  -18.7007   21.5150 N   0  0  0  0  0  0  0  0  0  0  0  0
  -30.1935  -25.6508   19.1848 N   0  0  0  0  0  0  0  0  0  0  0  0
  -25.0132  -24.8599   18.3688 N   0  0  0  0  0  0  0  0  0  0  0  0
  -22.2357  -27.9941   20.0592 N   0  0  0  0  0  0  0  0  0  0  0  0
  -25.7692  -15.1619   20.6378 N   0  0  0  0  0  0  0  0  0  0  0  0
  -24.5872  -21.2821   23.3960 N   0  0  0  0  0  0  0  0  0  0  0  0
  -32.1662  -25.2297   17.9483 N   0  0  0  0  0  0  0  0  0  0  0  0
  -36.5880  -18.5547   17.1818 N   0  3  0  0  0  0  0  0  0  0  0  0
  -27.0573  -23.7777   24.2555 N   0  3  0  0  0  0  0  0  0  0  0  0
  -22.3493  -26.1285   18.7306 O   0  0  0  0  0  0  0  0  0  0  0  0
  -24.4701  -17.0050   20.0565 O   0  0  0  0  0  0  0  0  0  0  0  0
  -24.5971  -18.4210   23.5456 O   0  0  0  0  0  0  0  0  0  0  0  0
  -25.6933  -22.7748   22.0082 O   0  0  0  0  0  0  0  0  0  0  0  0
  -30.7357  -26.9033   17.3098 O   0  0  0  0  0  0  0  0  0  0  0  0
  -23.6634  -32.1735   23.4548 O   0  0  0  0  0  0  0  0  0  0  0  0
  -28.8929  -20.3678   16.5019 O   0  0  0  0  0  0  0  0  0  1  0  0
  -36.0138  -20.8107   15.5305 O   0  0  0  0  0  0  0  0  0  0  0  0
  -26.8413  -36.6674   23.1234 F   0  0  0  0  0  0  0  0  0  0  0  0
  -22.6410  -34.5683   22.5262 F   0  0  0  0  0  0  0  0  0  0  0  0
  1  2  1  0  0  0  0
  1  5  2  0  0  0  0
  2  6  2  0  0  0  0
  3  9  2  0  0  0  0
  3 18  1  0  0  0  0
  4 10  1  0  0  0  0
  4 18  2  0  0  0  0
  5 20  1  0  0  0  0
  6 22  1  0  0  0  0
  7 11  2  0  0  0  0
  7 21  1  0  0  0  0
  8 12  2  0  0  0  0
  8 24  1  0  0  0  0
  9 26  1  0  0  0  0
 10 26  2  0  0  0  0
 11 27  1  0  0  0  0
 12 28  1  0  0  0  0
 13 14  2  0  0  0  0
 13 29  1  0  0  0  0
 14 30  1  0  0  0  0
 15 23  1  0  0  0  0
 15 27  2  0  0  0  0
 16 25  1  0  0  0  0
 16 28  2  0  0  0  0
 17 30  2  0  0  0  0
 17 31  1  0  0  0  0
 18 32  1  0  0  0  0
 19 32  1  0  0  0  0
 19 33  2  0  0  0  0
 19 34  1  0  0  0  0
 20 22  2  0  0  0  0
 20 39  1  0  0  0  0
 21 23  2  0  0  0  0
 21 40  1  0  0  0  0
 22 48  1  0  0  0  0
 23 41  1  0  0  0  0
 24 25  2  0  0  0  0
 24 57  1  0  0  0  0
 25 56  1  0  0  0  0
 26 82  1  0  0  0  0
 27 83  1  0  0  0  0
 28 84  1  0  0  0  0
 29 31  2  0  0  0  0
 29 82  1  0  0  0  0
 30 85  1  0  0  0  0
 31 86  1  0  0  0  0
 32 66  2  0  0  0  0
 33 67  1  0  0  0  0
 33 70  1  0  0  0  0
 34 71  1  0  0  0  0
 34 77  2  0  0  0  0
 35 49  1  0  0  0  0
 35 72  1  0  0  0  0
 35 78  2  0  0  0  0
 36 63  1  0  0  0  0
 36 68  1  0  0  0  0
 36 79  2  0  0  0  0
 37 64  1  0  0  0  0
 37 73  1  0  0  0  0
 37 80  2  0  0  0  0
 38 69  1  0  0  0  0
 38 74  1  0  0  0  0
 38 81  2  0  0  0  0
 39 42  1  0  0  0  0
 40 49  1  0  0  0  0
 41 68  1  0  0  0  0
 42 44  1  0  0  0  0
 43 45  1  0  0  0  0
 43 46  1  0  0  0  0
 44 48  1  0  0  0  0
 45 50  1  0  0  0  0
 46 69  1  0  0  0  0
 47 50  1  0  0  0  0
 47 69  1  0  0  0  0
 48 72  1  0  0  0  0
 49 68  1  0  0  0  0
 50 67  1  0  0  0  0
 51 64  1  0  0  0  0
 52 65  1  0  0  0  0
 53 65  1  0  0  0  0
 54 65  1  0  0  0  0
 55 76  1  0  0  0  0
 56 58  1  0  0  0  0
 57 74  1  0  0  0  0
 58 59  1  0  0  0  0
 59 61  1  0  0  0  0
 60 62  1  0  0  0  0
 60 75  1  0  0  0  0
 61 83  1  0  0  0  0
 62 84  1  0  0  0  0
 63 65  1  0  0  0  0
 63 73  1  0  0  0  0
 64 76  1  0  0  0  0
 66 67  1  0  0  0  0
M  CHG  2  75   1  76   1
M  ISO  4  38 100  61 101  74 100  83 101
M  END
> <Batch ID>
0001

> <Smiles>
CNC(C)C(=O)NC(C(=O)N1Cc2cc([101O:1][101CH2:1]CCCc3cc(OCCN)ccc3C[100NH:0][100C:0](=O)N3CCCC(n4nc(-c5ccc(Oc6ccc(F)cc6F)cc5)c(C(N)=O)c4N)C3)ccc2CC1C(=O)NC1CCCc2ccccc21)C(C)(C)C

> <Shape>
0.215

> <Color>
0.057

> <Negative vol penalty>
0.000

$$$$

  -OEChem-04042320143D

 81 89  0     1  0  0  0  0  0999 V2000
  -25.9048   -6.9630   23.0526 C   0  0  0  0  0  0  0  0  0  0  0  0
  -26.6941   -8.0531   22.7004 C   0  0  0  0  0  0  0  0  0  0  0  0
  -21.4994  -30.1621   20.9884 C   0  0  0  0  0  0  0  0  0  0  0  0
  -22.5050  -28.9466   22.8183 C   0  0  0  0  0  0  0  0  0  0  0  0
  -24.5699   -6.9124   22.6532 C   0  0  0  0  0  0  0  0  0  0  0  0
  -26.1492   -9.0928   21.9477 C   0  0  0  0  0  0  0  0  0  0  0  0
  -27.5101  -15.0490   22.3698 C   0  0  0  0  0  0  0  0  0  0  0  0
  -30.7400  -23.4308   19.6692 C   0  0  0  0  0  0  0  0  0  0  0  0
  -28.8009  -23.7377   21.0772 C   0  0  0  0  0  0  0  0  0  0  0  0
  -20.2388  -29.7155   21.3846 C   0  0  0  0  0  0  0  0  0  0  0  0
  -21.2443  -28.5001   23.2145 C   0  0  0  0  0  0  0  0  0  0  0  0
  -28.3530  -15.8735   21.6259 C   0  0  0  0  0  0  0  0  0  0  0  0
  -30.4441  -22.0723   19.5577 C   0  0  0  0  0  0  0  0  0  0  0  0
  -28.5049  -22.3792   20.9657 C   0  0  0  0  0  0  0  0  0  0  0  0
  -19.0299  -26.1280   22.2655 C   0  0  0  0  0  0  0  0  0  0  0  0
  -18.8943  -24.7797   22.5960 C   0  0  0  0  0  0  0  0  0  0  0  0
  -26.4719  -16.5840   20.2933 C   0  0  0  0  0  0  0  0  0  0  0  0
  -18.1925  -25.3963   24.8241 C   0  0  0  0  0  0  0  0  0  0  0  0
  -22.6326  -29.7776   21.7053 C   0  0  0  0  0  0  0  0  0  0  0  0
  -24.5922  -31.4108   21.7144 C   0  0  0  0  0  0  0  0  0  0  0  0
  -24.0058   -7.9565   21.9035 C   0  0  0  0  0  0  0  0  0  0  0  0
  -26.1413  -14.9773   22.0735 C   0  0  0  0  0  0  0  0  0  0  0  0
  -24.8059   -9.0555   21.5368 C   0  0  0  0  0  0  0  0  0  0  0  0
  -25.6133  -15.7597   21.0365 C   0  0  0  0  0  0  0  0  0  0  0  0
  -29.9184  -24.2635   20.4290 C   0  0  0  0  0  0  0  0  0  0  0  0
  -20.1112  -28.8845   22.4976 C   0  0  0  0  0  0  0  0  0  0  0  0
  -29.3265  -21.5465   20.2060 C   0  0  0  0  0  0  0  0  0  0  0  0
  -27.8345  -16.6390   20.5856 C   0  0  0  0  0  0  0  0  0  0  0  0
  -18.7468  -27.1106   23.2144 C   0  0  0  0  0  0  0  0  0  0  0  0
  -18.4756  -24.4138   23.8752 C   0  0  0  0  0  0  0  0  0  0  0  0
  -18.3281  -26.7447   24.4936 C   0  0  0  0  0  0  0  0  0  0  0  0
  -23.9351  -30.2381   21.2962 C   0  0  0  0  0  0  0  0  0  0  0  0
  -25.7906  -31.3907   21.0436 C   0  0  0  0  0  0  0  0  0  0  0  0
  -24.1581  -32.4274   22.6275 C   0  0  0  0  0  0  0  0  0  0  0  0
  -24.1692  -12.6719   21.1253 C   0  0  0  0  0  0  0  0  0  0  0  0
  -21.9108  -14.9587   21.5638 C   0  0  0  0  0  0  0  0  0  0  0  0
  -21.1458  -18.2803   21.7335 C   0  0  0  0  0  0  0  0  0  0  0  0
  -29.0951  -26.9655   18.7310 C   0  0  0  0  0  0  0  0  0  0  0  0
  -22.5711   -7.8350   21.4545 C   0  0  0  0  0  0  0  0  0  0  0  0
  -25.2408  -14.1033   22.9026 C   0  0  0  0  0  0  0  0  0  0  0  0
  -24.1475  -15.7341   20.6913 C   0  0  0  0  0  0  0  0  0  0  0  0
  -21.9682   -9.1540   20.9779 C   0  0  0  0  0  0  0  0  0  0  0  0
  -27.7936  -29.7933   17.0029 C   0  0  0  0  0  0  0  0  0  0  0  0
  -22.9289   -9.8697   20.0337 C   0  0  0  0  0  0  0  0  0  0  0  0
  -26.7164  -30.3338   17.9450 C   0  0  0  0  0  0  0  0  0  0  0  0
  -27.8524  -28.2676   17.0291 C   0  0  0  0  0  0  0  0  0  0  0  0
  -26.9294  -28.2171   19.3137 C   0  0  0  0  0  0  0  0  0  0  0  0
  -24.2444  -10.2145   20.7422 C   0  0  1  0  0  0  0  0  0  0  0  0
  -23.9526  -13.7183   22.1816 C   0  0  1  0  0  0  0  0  0  0  0  0
  -26.8698  -29.7534   19.3638 C   0  0  2  0  0  0  0  0  0  0  0  0
  -19.2093  -19.8413   22.0662 C   0  0  0  0  0  0  0  0  0  0  0  0
  -20.9858  -14.4161   18.7072 C   0  0  0  0  0  0  0  0  0  0  0  0
  -19.7392  -16.5864   18.7728 C   0  0  0  0  0  0  0  0  0  0  0  0
  -19.1362  -14.7554   20.3560 C   0  0  0  0  0  0  0  0  0  0  0  0
  -22.3510  -19.4410   24.1746 C   0  0  0  0  0  0  0  0  0  0  0  0
  -30.2343  -25.7161   20.5477 C   0  0  0  0  0  0  0  0  0  0  0  0
  -30.1360  -19.3292   19.9153 C   0  0  0  0  0  0  0  0  0  0  0  0
  -29.7955  -17.9830   20.5249 C   0  0  0  0  0  0  0  0  0  1  0  0
  -21.2924  -16.0303   20.6988 C   0  0  1  0  0  0  0  0  0  0  0  0
  -20.3379  -19.0777   22.7414 C   0  0  2  0  0  0  0  0  0  0  0  0
  -20.3164  -15.4463   19.6387 C   0  0  0  0  0  0  0  0  0  0  0  0
  -24.6562  -29.5250   20.4270 N   0  0  0  0  0  0  0  0  0  0  0  0
  -25.7788  -30.2518   20.2934 N   0  0  0  0  0  0  0  0  0  0  0  0
  -23.3088  -14.8590   21.5269 N   0  0  0  0  0  0  0  0  0  0  0  0
  -27.9999  -27.7815   18.4031 N   0  0  0  0  0  0  0  0  0  0  0  0
  -26.8427  -32.2365   21.0281 N   0  0  0  0  0  0  0  0  0  0  0  0
  -22.8992  -32.2923   23.2286 N   0  0  0  0  0  0  0  0  0  0  0  0
  -24.0725  -11.3743   21.5906 N   0  0  0  0  0  0  0  0  0  0  0  0
  -20.6790  -16.9886   21.6120 N   0  0  0  0  0  0  0  0  0  0  0  0
  -29.1630  -26.5538   20.0564 N   0  0  0  0  0  0  0  0  0  0  0  0
  -21.2117  -20.0572   23.4471 N   0  3  0  0  0  0  0  0  0  0  0  0
  -24.8587  -33.4343   22.8898 O   0  0  0  0  0  0  0  0  0  0  0  0
  -24.4049  -13.0161   19.9731 O   0  0  0  0  0  0  0  0  0  0  0  0
  -21.1808  -14.2414   22.2524 O   0  0  0  0  0  0  0  0  0  0  0  0
  -22.0937  -18.7568   21.1130 O   0  0  0  0  0  0  0  0  0  0  0  0
  -29.9521  -26.6332   17.9051 O   0  0  0  0  0  0  0  0  0  0  0  0
  -18.8812  -28.4488   22.8846 O   0  0  0  0  0  0  0  0  0  0  0  0
  -29.0353  -20.2123   20.0953 O   0  0  0  0  0  0  0  0  0  0  0  0
  -28.6551  -17.4442   19.8575 O   0  0  0  0  0  0  0  0  0  1  0  0
  -18.3439  -23.1190   24.1919 F   0  0  0  0  0  0  0  0  0  0  0  0
  -18.0536  -27.6841   25.4090 F   0  0  0  0  0  0  0  0  0  0  0  0
  1  2  1  0  0  0  0
  1  5  2  0  0  0  0
  2  6  2  0  0  0  0
  3 10  2  0  0  0  0
  3 19  1  0  0  0  0
  4 11  1  0  0  0  0
  4 19  2  0  0  0  0
  5 21  1  0  0  0  0
  6 23  1  0  0  0  0
  7 12  2  0  0  0  0
  7 22  1  0  0  0  0
  8 13  2  0  0  0  0
  8 25  1  0  0  0  0
  9 14  1  0  0  0  0
  9 25  2  0  0  0  0
 10 26  1  0  0  0  0
 11 26  2  0  0  0  0
 12 28  1  0  0  0  0
 13 27  1  0  0  0  0
 14 27  2  0  0  0  0
 15 16  2  0  0  0  0
 15 29  1  0  0  0  0
 16 30  1  0  0  0  0
 17 24  1  0  0  0  0
 17 28  2  0  0  0  0
 18 30  2  0  0  0  0
 18 31  1  0  0  0  0
 19 32  1  0  0  0  0
 20 32  1  0  0  0  0
 20 33  2  0  0  0  0
 20 34  1  0  0  0  0
 21 23  2  0  0  0  0
 21 39  1  0  0  0  0
 22 24  2  0  0  0  0
 22 40  1  0  0  0  0
 23 48  1  0  0  0  0
 24 41  1  0  0  0  0
 25 56  1  0  0  0  0
 26 77  1  0  0  0  0
 27 78  1  0  0  0  0
 28 79  1  0  0  0  0
 29 31  2  0  0  0  0
 29 77  1  0  0  0  0
 30 80  1  0  0  0  0
 31 81  1  0  0  0  0
 32 62  2  0  0  0  0
 33 63  1  0  0  0  0
 33 66  1  0  0  0  0
 34 67  1  0  0  0  0
 34 72  2  0  0  0  0
 35 49  1  0  0  0  0
 35 68  1  0  0  0  0
 35 73  2  0  0  0  0
 36 59  1  0  0  0  0
 36 64  1  0  0  0  0
 36 74  2  0  0  0  0
 37 60  1  0  0  0  0
 37 69  1  0  0  0  0
 37 75  2  0  0  0  0
 38 65  1  0  0  0  0
 38 70  1  0  0  0  0
 38 76  2  0  0  0  0
 39 42  1  0  0  0  0
 40 49  1  0  0  0  0
 41 64  1  0  0  0  0
 42 44  1  0  0  0  0
 43 45  1  0  0  0  0
 43 46  1  0  0  0  0
 44 48  1  0  0  0  0
 45 50  1  0  0  0  0
 46 65  1  0  0  0  0
 47 50  1  0  0  0  0
 47 65  1  0  0  0  0
 48 68  1  0  0  0  0
 49 64  1  0  0  0  0
 50 63  1  0  0  0  0
 51 60  1  0  0  0  0
 52 61  1  0  0  0  0
 53 61  1  0  0  0  0
 54 61  1  0  0  0  0
 55 71  1  0  0  0  0
 56 70  1  0  0  0  0
 57 58  1  0  0  0  0
 57 78  1  0  0  0  0
 58 79  1  0  0  0  0
 59 61  1  0  0  0  0
 59 69  1  0  0  0  0
 60 71  1  0  0  0  0
 62 63  1  0  0  0  0
M  CHG  1  71   1
M  ISO  4  38 100  58 101  70 100  79 101
M  END
> <Batch ID>
0001

> <Smiles>
CNC(C)C(=O)NC(C(=O)N1Cc2cc([101O:1][101CH2:1]COc3ccc(C[100NH:0][100C:0](=O)N4CCCC(n5nc(-c6ccc(Oc7ccc(F)cc7F)cc6)c(C(N)=O)c5N)C4)cc3)ccc2CC1C(=O)NC1CCCc2ccccc21)C(C)(C)C

> <Shape>
0.269

> <Color>
0.051

> <Negative vol penalty>
0.000

$$$$

  -OEChem-04042320143D

 91100  0     1  0  0  0  0  0999 V2000
  -24.2330  -21.2252   19.4285 C   0  0  0  0  0  0  0  0  0  0  0  0
  -30.7141  -26.0805   16.9178 C   0  0  0  0  0  0  0  0  0  0  0  0
  -29.3369  -25.9399   17.0546 C   0  0  0  0  0  0  0  0  0  0  0  0
  -25.2388  -21.8385   20.1754 C   0  0  0  0  0  0  0  0  0  0  0  0
  -22.9019  -21.6004   19.6105 C   0  0  0  0  0  0  0  0  0  0  0  0
  -29.5826  -16.9489   20.4367 C   0  0  0  0  0  0  0  0  0  0  0  0
  -27.2803  -17.6773   20.3600 C   0  0  0  0  0  0  0  0  0  0  0  0
  -31.4702  -26.5877   17.9738 C   0  0  0  0  0  0  0  0  0  0  0  0
  -28.7149  -26.3054   18.2479 C   0  0  0  0  0  0  0  0  0  0  0  0
  -23.1419  -28.7612   18.8930 C   0  0  0  0  0  0  0  0  0  0  0  0
  -24.9136  -22.8269   21.1043 C   0  0  0  0  0  0  0  0  0  0  0  0
  -22.5766  -22.5888   20.5395 C   0  0  0  0  0  0  0  0  0  0  0  0
  -23.2127  -22.9048   26.3529 C   0  0  0  0  0  0  0  0  0  0  0  0
  -29.1901  -15.6673   20.0509 C   0  0  0  0  0  0  0  0  0  0  0  0
  -26.8877  -16.3956   19.9741 C   0  0  0  0  0  0  0  0  0  0  0  0
  -21.9051  -28.2075   19.2207 C   0  0  0  0  0  0  0  0  0  0  0  0
  -22.0428  -22.8406   25.5961 C   0  0  0  0  0  0  0  0  0  0  0  0
  -25.2373  -13.2245   19.3184 C   0  0  0  0  0  0  0  0  0  0  0  0
  -24.1231  -12.6704   19.9486 C   0  0  0  0  0  0  0  0  0  0  0  0
  -22.2459  -28.8267   21.5272 C   0  0  0  0  0  0  0  0  0  0  0  0
  -24.3815  -23.8580   24.4654 C   0  0  0  0  0  0  0  0  0  0  0  0
  -25.2427  -12.8464   22.0824 C   0  0  0  0  0  0  0  0  0  0  0  0
  -28.6277  -17.9539   20.5913 C   0  0  0  0  0  0  0  0  0  0  0  0
  -29.3980  -20.3452   20.1482 C   0  0  0  0  0  0  0  0  0  0  0  0
  -30.8559  -26.9687   19.1772 C   0  0  0  0  0  0  0  0  0  0  0  0
  -23.9462  -29.3431   19.8834 C   0  0  0  0  0  0  0  0  0  0  0  0
  -29.4636  -26.8170   19.3214 C   0  0  0  0  0  0  0  0  0  0  0  0
  -23.4913  -29.3894   21.2089 C   0  0  0  0  0  0  0  0  0  0  0  0
  -23.5824  -23.2020   21.2864 C   0  0  0  0  0  0  0  0  0  0  0  0
  -24.3821  -23.4135   25.7876 C   0  0  0  0  0  0  0  0  0  0  0  0
  -23.2116  -23.7938   23.7086 C   0  0  0  0  0  0  0  0  0  0  0  0
  -27.8426  -15.3906   19.8196 C   0  0  0  0  0  0  0  0  0  0  0  0
  -21.4581  -28.2376   20.5385 C   0  0  0  0  0  0  0  0  0  0  0  0
  -22.0422  -23.2851   24.2739 C   0  0  0  0  0  0  0  0  0  0  0  0
  -26.3542  -13.5895   20.0700 C   0  0  0  0  0  0  0  0  0  0  0  0
  -24.1258  -12.4814   21.3306 C   0  0  0  0  0  0  0  0  0  0  0  0
  -26.3569  -13.4004   21.4520 C   0  0  0  0  0  0  0  0  0  0  0  0
  -29.0325  -19.2779   20.9903 C   0  0  0  0  0  0  0  0  0  0  0  0
  -29.6942  -21.3748   21.0076 C   0  0  0  0  0  0  0  0  0  0  0  0
  -29.4638  -20.4008   18.7170 C   0  0  0  0  0  0  0  0  0  0  0  0
  -26.8369  -28.7460   21.0627 C   0  0  0  0  0  0  0  0  0  0  0  0
  -26.3138  -31.5009   22.6933 C   0  0  0  0  0  0  0  0  0  0  0  0
  -24.0669  -33.7258   23.9770 C   0  0  0  0  0  0  0  0  0  0  0  0
  -27.9678  -22.6439   26.5986 C   0  0  0  0  0  0  0  0  0  0  0  0
  -31.7209  -27.4677   20.3075 C   0  0  0  0  0  0  0  0  0  0  0  0
  -25.2659  -29.9599   19.5089 C   0  0  0  0  0  0  0  0  0  0  0  0
  -24.3078  -30.0206   22.3059 C   0  0  0  0  0  0  0  0  0  0  0  0
  -30.9365  -28.1825   21.4048 C   0  0  0  0  0  0  0  0  0  0  0  0
  -31.3046  -22.2115   25.4344 C   0  0  0  0  0  0  0  0  0  0  0  0
  -29.6981  -27.3778   21.7864 C   0  0  0  0  0  0  0  0  0  0  0  0
  -31.1336  -21.5070   24.0875 C   0  0  0  0  0  0  0  0  0  0  0  0
  -30.2695  -21.7399   26.4534 C   0  0  0  0  0  0  0  0  0  0  0  0
  -28.6975  -21.1310   24.6557 C   0  0  0  0  0  0  0  0  0  0  0  0
  -28.7493  -27.2256   20.5914 C   0  0  1  0  0  0  0  0  0  0  0  0
  -26.2304  -30.0680   20.6860 C   0  0  1  0  0  0  0  0  0  0  0  0
  -29.6836  -21.6144   23.5785 C   0  0  2  0  0  0  0  0  0  0  0  0
  -23.9388  -35.8600   25.2909 C   0  0  0  0  0  0  0  0  0  0  0  0
  -26.9540  -29.9627   25.2495 C   0  0  0  0  0  0  0  0  0  0  0  0
  -25.9062  -31.8272   26.5511 C   0  0  0  0  0  0  0  0  0  0  0  0
  -27.9216  -32.2666   25.1483 C   0  0  0  0  0  0  0  0  0  0  0  0
  -22.7164  -35.1461   21.7593 C   0  0  0  0  0  0  0  0  0  0  0  0
  -23.2285  -24.2752   22.2952 C   0  0  0  0  0  0  0  0  0  0  0  0
  -25.6322  -23.4832   26.5977 C   0  0  0  0  0  0  0  0  0  0  0  0
  -19.7993  -26.5990   20.0704 C   0  0  0  0  0  0  0  0  0  1  0  0
  -19.7671  -23.9381   24.0436 C   0  0  0  0  0  0  0  0  0  0  0  0
  -18.9266  -25.6998   20.9245 C   0  0  0  0  0  0  0  0  0  0  0  0
  -18.9110  -24.3923   22.8771 C   0  0  0  0  0  0  0  0  0  0  0  0
  -25.6949  -31.8546   24.0241 C   0  0  1  0  0  0  0  0  0  0  0  0
  -23.9945  -35.2403   23.9032 C   0  0  2  0  0  0  0  0  0  0  0  0
  -26.6044  -31.4641   25.2231 C   0  0  0  0  0  0  0  0  0  0  0  0
  -29.0906  -19.5998   22.2853 N   0  0  0  0  0  0  0  0  0  0  0  0
  -29.4962  -20.8809   22.2633 N   0  0  0  0  0  0  0  0  0  0  0  0
  -25.5939  -30.6046   21.8907 N   0  0  0  0  0  0  0  0  0  0  0  0
  -28.9155  -21.8694   25.9095 N   0  0  0  0  0  0  0  0  0  0  0  0
  -30.1022  -22.6455   20.8040 N   0  0  0  0  0  0  0  0  0  0  0  0
  -29.1257  -19.2528   17.9875 N   0  0  0  0  0  0  0  0  0  0  0  0
  -28.0012  -28.4465   20.3813 N   0  0  0  0  0  0  0  0  0  0  0  0
  -25.3699  -33.2753   23.9584 N   0  0  0  0  0  0  0  0  0  0  0  0
  -26.7108  -22.7194   26.0112 N   0  0  0  0  0  0  0  0  0  0  0  0
  -22.7807  -35.6648   23.1499 N   0  3  0  0  0  0  0  0  0  0  0  0
  -29.8278  -21.4328   18.1038 O   0  0  0  0  0  0  0  0  0  0  0  0
  -26.2899  -28.0498   21.9100 O   0  0  0  0  0  0  0  0  0  0  0  0
  -27.3926  -32.0070   22.3746 O   0  0  0  0  0  0  0  0  0  0  0  0
  -23.0676  -33.0139   24.0480 O   0  0  0  0  0  0  0  0  0  0  0  0
  -28.2244  -23.2294   27.6561 O   0  0  0  0  0  0  0  0  0  0  0  0
  -27.4592  -14.1401   19.4429 O   0  0  0  0  0  0  0  0  0  0  0  0
  -20.2516  -27.6973   20.8613 O   0  0  0  0  0  0  0  0  0  1  0  0
  -20.8846  -23.2132   23.5447 O   0  0  0  0  0  0  0  0  0  0  0  0
  -19.6821  -25.2421   22.0394 O   0  0  0  0  0  0  0  0  0  0  0  0
  -23.0553  -11.9507   21.9360 F   0  0  0  0  0  0  0  0  0  0  0  0
  -27.4265  -13.7502   22.1796 F   0  0  0  0  0  0  0  0  0  0  0  0
  1  4  1  0  0  0  0
  1  5  2  0  0  0  0
  2  3  1  0  0  0  0
  2  8  2  0  0  0  0
  3  9  2  0  0  0  0
  4 11  2  0  0  0  0
  5 12  1  0  0  0  0
  6 14  2  0  0  0  0
  6 23  1  0  0  0  0
  7 15  1  0  0  0  0
  7 23  2  0  0  0  0
  8 25  1  0  0  0  0
  9 27  1  0  0  0  0
 10 16  2  0  0  0  0
 10 26  1  0  0  0  0
 11 29  1  0  0  0  0
 12 29  2  0  0  0  0
 13 17  2  0  0  0  0
 13 30  1  0  0  0  0
 14 32  1  0  0  0  0
 15 32  2  0  0  0  0
 16 33  1  0  0  0  0
 17 34  1  0  0  0  0
 18 19  2  0  0  0  0
 18 35  1  0  0  0  0
 19 36  1  0  0  0  0
 20 28  1  0  0  0  0
 20 33  2  0  0  0  0
 21 30  2  0  0  0  0
 21 31  1  0  0  0  0
 22 36  2  0  0  0  0
 22 37  1  0  0  0  0
 23 38  1  0  0  0  0
 24 38  1  0  0  0  0
 24 39  2  0  0  0  0
 24 40  1  0  0  0  0
 25 27  2  0  0  0  0
 25 45  1  0  0  0  0
 26 28  2  0  0  0  0
 26 46  1  0  0  0  0
 27 54  1  0  0  0  0
 28 47  1  0  0  0  0
 29 62  1  0  0  0  0
 30 63  1  0  0  0  0
 31 34  2  0  0  0  0
 31 62  1  0  0  0  0
 32 86  1  0  0  0  0
 33 87  1  0  0  0  0
 34 88  1  0  0  0  0
 35 37  2  0  0  0  0
 35 86  1  0  0  0  0
 36 90  1  0  0  0  0
 37 91  1  0  0  0  0
 38 71  2  0  0  0  0
 39 72  1  0  0  0  0
 39 75  1  0  0  0  0
 40 76  1  0  0  0  0
 40 81  2  0  0  0  0
 41 55  1  0  0  0  0
 41 77  1  0  0  0  0
 41 82  2  0  0  0  0
 42 68  1  0  0  0  0
 42 73  1  0  0  0  0
 42 83  2  0  0  0  0
 43 69  1  0  0  0  0
 43 78  1  0  0  0  0
 43 84  2  0  0  0  0
 44 74  1  0  0  0  0
 44 79  1  0  0  0  0
 44 85  2  0  0  0  0
 45 48  1  0  0  0  0
 46 55  1  0  0  0  0
 47 73  1  0  0  0  0
 48 50  1  0  0  0  0
 49 51  1  0  0  0  0
 49 52  1  0  0  0  0
 50 54  1  0  0  0  0
 51 56  1  0  0  0  0
 52 74  1  0  0  0  0
 53 56  1  0  0  0  0
 53 74  1  0  0  0  0
 54 77  1  0  0  0  0
 55 73  1  0  0  0  0
 56 72  1  0  0  0  0
 57 69  1  0  0  0  0
 58 70  1  0  0  0  0
 59 70  1  0  0  0  0
 60 70  1  0  0  0  0
 61 80  1  0  0  0  0
 63 79  1  0  0  0  0
 64 66  1  0  0  0  0
 64 87  1  0  0  0  0
 65 67  1  0  0  0  0
 65 88  1  0  0  0  0
 66 89  1  0  0  0  0
 67 89  1  0  0  0  0
 68 70  1  0  0  0  0
 68 78  1  0  0  0  0
 69 80  1  0  0  0  0
 71 72  1  0  0  0  0
M  CHG  1  80   1
M  ISO  4  44 100  64 101  79 100  87 101
M  END
> <Batch ID>
0001

> <Smiles>
CNC(C)C(=O)NC(C(=O)N1Cc2cc([101O:1][101CH2:1]COCCOc3ccc(C[100NH:0][100C:0](=O)N4CCCC(n5nc(-c6ccc(Oc7ccc(F)cc7F)cc6)c(C(N)=O)c5N)C4)cc3Cc3ccccc3)ccc2CC1C(=O)NC1CCCc2ccccc21)C(C)(C)C

> <Shape>
0.280

> <Color>
0.070

> <Negative vol penalty>
0.000

$$$$

  -OEChem-04042320143D

 80 88  0     1  0  0  0  0  0999 V2000
  -23.6037  -32.7327   26.6389 C   0  0  0  0  0  0  0  0  0  0  0  0
  -24.8776  -32.2842   26.3049 C   0  0  0  0  0  0  0  0  0  0  0  0
  -24.0384   -9.7255   21.7182 C   0  0  0  0  0  0  0  0  0  0  0  0
  -24.6425  -10.9968   23.6819 C   0  0  0  0  0  0  0  0  0  0  0  0
  -22.4822  -32.0179   26.2204 C   0  0  0  0  0  0  0  0  0  0  0  0
  -25.0306  -31.1199   25.5529 C   0  0  0  0  0  0  0  0  0  0  0  0
  -29.3094  -28.1866   20.6129 C   0  0  0  0  0  0  0  0  0  0  0  0
  -28.4287  -19.3882   20.5060 C   0  0  0  0  0  0  0  0  0  0  0  0
  -30.7877  -18.9562   20.2141 C   0  0  0  0  0  0  0  0  0  0  0  0
  -23.6100   -8.6752   22.5300 C   0  0  0  0  0  0  0  0  0  0  0  0
  -24.2141   -9.9465   24.4937 C   0  0  0  0  0  0  0  0  0  0  0  0
  -30.0416  -27.0241   20.3755 C   0  0  0  0  0  0  0  0  0  0  0  0
  -28.7132  -20.7096   20.8503 C   0  0  0  0  0  0  0  0  0  0  0  0
  -31.0723  -20.2777   20.5583 C   0  0  0  0  0  0  0  0  0  0  0  0
  -20.8982   -7.9212   24.4037 C   0  0  0  0  0  0  0  0  0  0  0  0
  -19.6779   -7.3201   24.0957 C   0  0  0  0  0  0  0  0  0  0  0  0
  -28.0298  -25.9145   19.6402 C   0  0  0  0  0  0  0  0  0  0  0  0
  -20.7990   -5.2023   23.7872 C   0  0  0  0  0  0  0  0  0  0  0  0
  -24.5547  -10.8863   22.2942 C   0  0  0  0  0  0  0  0  0  0  0  0
  -24.2291  -13.0552   20.9913 C   0  0  0  0  0  0  0  0  0  0  0  0
  -22.6213  -30.8496   25.4547 C   0  0  0  0  0  0  0  0  0  0  0  0
  -27.9277  -28.2185   20.3757 C   0  0  0  0  0  0  0  0  0  0  0  0
  -23.9099  -30.3881   25.1249 C   0  0  0  0  0  0  0  0  0  0  0  0
  -27.2828  -27.0794   19.8730 C   0  0  0  0  0  0  0  0  0  0  0  0
  -29.4659  -18.5115   20.1880 C   0  0  0  0  0  0  0  0  0  0  0  0
  -23.6979   -8.7857   23.9177 C   0  0  0  0  0  0  0  0  0  0  0  0
  -30.0350  -21.1544   20.8764 C   0  0  0  0  0  0  0  0  0  0  0  0
  -29.4013  -25.8869   19.8918 C   0  0  0  0  0  0  0  0  0  0  0  0
  -22.0690   -7.1629   24.4033 C   0  0  0  0  0  0  0  0  0  0  0  0
  -19.6282   -5.9606   23.7875 C   0  0  0  0  0  0  0  0  0  0  0  0
  -22.0194   -5.8035   24.0952 C   0  0  0  0  0  0  0  0  0  0  0  0
  -24.9979  -11.9714   21.4562 C   0  0  0  0  0  0  0  0  0  0  0  0
  -25.1050  -13.8005   20.2404 C   0  0  0  0  0  0  0  0  0  0  0  0
  -22.8468  -13.3610   21.2181 C   0  0  0  0  0  0  0  0  0  0  0  0
  -25.3524  -28.6868   22.1791 C   0  0  0  0  0  0  0  0  0  0  0  0
  -23.8160  -28.5983   19.3236 C   0  0  0  0  0  0  0  0  0  0  0  0
  -23.8009  -27.5601   16.0727 C   0  0  0  0  0  0  0  0  0  0  0  0
  -30.0881  -16.1705   19.4959 C   0  0  0  0  0  0  0  0  0  0  0  0
  -21.3810  -30.0848   25.0655 C   0  0  0  0  0  0  0  0  0  0  0  0
  -27.1569  -29.4884   20.6116 C   0  0  0  0  0  0  0  0  0  0  0  0
  -25.8050  -27.0680   19.5827 C   0  0  0  0  0  0  0  0  0  0  0  0
  -21.6176  -29.0659   23.9537 C   0  0  0  0  0  0  0  0  0  0  0  0
  -29.7771  -12.7363   18.6092 C   0  0  0  0  0  0  0  0  0  0  0  0
  -22.8728  -28.2471   24.2383 C   0  0  0  0  0  0  0  0  0  0  0  0
  -28.4427  -12.3203   19.2326 C   0  0  0  0  0  0  0  0  0  0  0  0
  -30.5327  -13.7256   19.4945 C   0  0  0  0  0  0  0  0  0  0  0  0
  -28.4296  -14.4937   20.5222 C   0  0  0  0  0  0  0  0  0  0  0  0
  -24.1161  -29.1431   24.2896 C   0  0  1  0  0  0  0  0  0  0  0  0
  -25.6647  -29.2513   20.8221 C   0  0  1  0  0  0  0  0  0  0  0  0
  -27.6025  -13.5476   19.6365 C   0  0  2  0  0  0  0  0  0  0  0  0
  -22.3923  -27.6068   13.9963 C   0  0  0  0  0  0  0  0  0  0  0  0
  -22.0062  -26.4448   20.5056 C   0  0  0  0  0  0  0  0  0  0  0  0
  -21.2844  -25.8720   18.1778 C   0  0  0  0  0  0  0  0  0  0  0  0
  -20.8257  -28.1437   19.1006 C   0  0  0  0  0  0  0  0  0  0  0  0
  -25.8720  -29.0381   14.5612 C   0  0  0  0  0  0  0  0  0  0  0  0
  -31.4746  -23.0311   20.6290 C   0  0  0  0  0  0  0  0  0  0  0  0
  -31.2605  -24.5247   20.4780 C   0  0  0  0  0  0  0  0  0  1  0  0
  -23.1936  -27.5139   18.4776 C   0  0  1  0  0  0  0  0  0  0  0  0
  -23.4968  -28.2975   14.7811 C   0  0  2  0  0  0  0  0  0  0  0  0
  -21.8550  -26.9929   19.0726 C   0  0  0  0  0  0  0  0  0  0  0  0
  -26.2647  -12.0199   21.0356 N   0  0  0  0  0  0  0  0  0  0  0  0
  -26.2986  -13.1431   20.2986 N   0  0  0  0  0  0  0  0  0  0  0  0
  -25.0938  -28.3320   19.8355 N   0  0  0  0  0  0  0  0  0  0  0  0
  -29.6758  -14.8640   19.8332 N   0  0  0  0  0  0  0  0  0  0  0  0
  -24.9629  -14.9473   19.5425 N   0  0  0  0  0  0  0  0  0  0  0  0
  -22.0914  -12.4891   22.0140 N   0  0  0  0  0  0  0  0  0  0  0  0
  -29.1770  -17.1691   19.8384 N   0  0  0  0  0  0  0  0  0  0  0  0
  -24.5408  -29.4954   22.9517 N   0  0  0  0  0  0  0  0  0  0  0  0
  -23.0753  -28.0638   17.1314 N   0  0  0  0  0  0  0  0  0  0  0  0
  -24.7133  -28.3622   13.9228 N   0  3  0  0  0  0  0  0  0  0  0  0
  -22.2936  -14.3687   20.7159 O   0  0  0  0  0  0  0  0  0  0  0  0
  -25.8125  -27.5975   22.5008 O   0  0  0  0  0  0  0  0  0  0  0  0
  -23.1943  -29.6461   19.5170 O   0  0  0  0  0  0  0  0  0  0  0  0
  -24.5992  -26.6277   16.1352 O   0  0  0  0  0  0  0  0  0  0  0  0
  -31.1575  -16.3850   18.9194 O   0  0  0  0  0  0  0  0  0  0  0  0
  -23.2797   -7.7611   24.7101 O   0  0  0  0  0  0  0  0  0  0  0  0
  -30.3146  -22.4523   21.2145 O   0  0  0  0  0  0  0  0  0  0  0  0
  -30.1134  -24.7508   19.6598 O   0  0  0  0  0  0  0  0  0  1  0  0
  -18.4560   -5.3831   23.4933 F   0  0  0  0  0  0  0  0  0  0  0  0
  -23.1406   -5.0696   24.0944 F   0  0  0  0  0  0  0  0  0  0  0  0
  1  2  1  0  0  0  0
  1  5  2  0  0  0  0
  2  6  2  0  0  0  0
  3 10  2  0  0  0  0
  3 19  1  0  0  0  0
  4 11  1  0  0  0  0
  4 19  2  0  0  0  0
  5 21  1  0  0  0  0
  6 23  1  0  0  0  0
  7 12  2  0  0  0  0
  7 22  1  0  0  0  0
  8 13  2  0  0  0  0
  8 25  1  0  0  0  0
  9 14  1  0  0  0  0
  9 25  2  0  0  0  0
 10 26  1  0  0  0  0
 11 26  2  0  0  0  0
 12 28  1  0  0  0  0
 13 27  1  0  0  0  0
 14 27  2  0  0  0  0
 15 16  2  0  0  0  0
 15 29  1  0  0  0  0
 16 30  1  0  0  0  0
 17 24  1  0  0  0  0
 17 28  2  0  0  0  0
 18 30  2  0  0  0  0
 18 31  1  0  0  0  0
 19 32  1  0  0  0  0
 20 32  1  0  0  0  0
 20 33  2  0  0  0  0
 20 34  1  0  0  0  0
 21 23  2  0  0  0  0
 21 39  1  0  0  0  0
 22 24  2  0  0  0  0
 22 40  1  0  0  0  0
 23 48  1  0  0  0  0
 24 41  1  0  0  0  0
 25 67  1  0  0  0  0
 26 76  1  0  0  0  0
 27 77  1  0  0  0  0
 28 78  1  0  0  0  0
 29 31  2  0  0  0  0
 29 76  1  0  0  0  0
 30 79  1  0  0  0  0
 31 80  1  0  0  0  0
 32 61  2  0  0  0  0
 33 62  1  0  0  0  0
 33 65  1  0  0  0  0
 34 66  1  0  0  0  0
 34 71  2  0  0  0  0
 35 49  1  0  0  0  0
 35 68  1  0  0  0  0
 35 72  2  0  0  0  0
 36 58  1  0  0  0  0
 36 63  1  0  0  0  0
 36 73  2  0  0  0  0
 37 59  1  0  0  0  0
 37 69  1  0  0  0  0
 37 74  2  0  0  0  0
 38 64  1  0  0  0  0
 38 67  1  0  0  0  0
 38 75  2  0  0  0  0
 39 42  1  0  0  0  0
 40 49  1  0  0  0  0
 41 63  1  0  0  0  0
 42 44  1  0  0  0  0
 43 45  1  0  0  0  0
 43 46  1  0  0  0  0
 44 48  1  0  0  0  0
 45 50  1  0  0  0  0
 46 64  1  0  0  0  0
 47 50  1  0  0  0  0
 47 64  1  0  0  0  0
 48 68  1  0  0  0  0
 49 63  1  0  0  0  0
 50 62  1  0  0  0  0
 51 59  1  0  0  0  0
 52 60  1  0  0  0  0
 53 60  1  0  0  0  0
 54 60  1  0  0  0  0
 55 70  1  0  0  0  0
 56 57  1  0  0  0  0
 56 77  1  0  0  0  0
 57 78  1  0  0  0  0
 58 60  1  0  0  0  0
 58 69  1  0  0  0  0
 59 70  1  0  0  0  0
 61 62  1  0  0  0  0
M  CHG  1  70   1
M  ISO  4  38 100  57 101  67 100  78 101
M  END
> <Batch ID>
0001

> <Smiles>
CNC(C)C(=O)NC(C(=O)N1Cc2cc([101O:1][101CH2:1]COc3ccc([100NH:0][100C:0](=O)N4CCCC(n5nc(-c6ccc(Oc7ccc(F)cc7F)cc6)c(C(N)=O)c5N)C4)cc3)ccc2CC1C(=O)NC1CCCc2ccccc21)C(C)(C)C

> <Shape>
0.290

> <Color>
0.124

> <Negative vol penalty>
0.000

$$$$

  -OEChem-04042320143D

 81 89  0     1  0  0  0  0  0999 V2000
  -21.0027   -7.5050   23.6390 C   0  0  0  0  0  0  0  0  0  0  0  0
  -21.8937   -8.1427   24.4963 C   0  0  0  0  0  0  0  0  0  0  0  0
  -22.0736  -28.0730   21.0658 C   0  0  0  0  0  0  0  0  0  0  0  0
  -23.3308  -27.5675   23.0660 C   0  0  0  0  0  0  0  0  0  0  0  0
  -21.0970   -7.7054   22.2625 C   0  0  0  0  0  0  0  0  0  0  0  0
  -22.8803   -8.9803   23.9774 C   0  0  0  0  0  0  0  0  0  0  0  0
  -26.5541  -14.9242   25.5555 C   0  0  0  0  0  0  0  0  0  0  0  0
  -30.8429  -20.5191   21.9178 C   0  0  0  0  0  0  0  0  0  0  0  0
  -30.6715  -22.1352   23.7055 C   0  0  0  0  0  0  0  0  0  0  0  0
  -30.2599  -21.4308   21.0377 C   0  0  0  0  0  0  0  0  0  0  0  0
  -30.0885  -23.0469   22.8253 C   0  0  0  0  0  0  0  0  0  0  0  0
  -20.8840  -27.9638   21.7859 C   0  0  0  0  0  0  0  0  0  0  0  0
  -22.1412  -27.4583   23.7861 C   0  0  0  0  0  0  0  0  0  0  0  0
  -27.8656  -15.3908   25.6340 C   0  0  0  0  0  0  0  0  0  0  0  0
  -19.0896  -29.8606   23.9342 C   0  0  0  0  0  0  0  0  0  0  0  0
  -18.1210  -30.8450   23.7389 C   0  0  0  0  0  0  0  0  0  0  0  0
  -27.8835  -15.7245   23.2450 C   0  0  0  0  0  0  0  0  0  0  0  0
  -16.5622  -29.1611   22.9828 C   0  0  0  0  0  0  0  0  0  0  0  0
  -23.2970  -27.8748   21.7059 C   0  0  0  0  0  0  0  0  0  0  0  0
  -25.3002  -29.1468   20.7694 C   0  0  0  0  0  0  0  0  0  0  0  0
  -22.0792   -8.5535   21.7271 C   0  0  0  0  0  0  0  0  0  0  0  0
  -25.9002  -14.8438   24.3176 C   0  0  0  0  0  0  0  0  0  0  0  0
  -22.9888   -9.1912   22.5923 C   0  0  0  0  0  0  0  0  0  0  0  0
  -26.5629  -15.2589   23.1538 C   0  0  0  0  0  0  0  0  0  0  0  0
  -31.0486  -20.8713   23.2517 C   0  0  0  0  0  0  0  0  0  0  0  0
  -29.8828  -22.6947   21.4914 C   0  0  0  0  0  0  0  0  0  0  0  0
  -20.9178  -27.6565   23.1460 C   0  0  0  0  0  0  0  0  0  0  0  0
  -28.5314  -15.7884   24.4783 C   0  0  0  0  0  0  0  0  0  0  0  0
  -18.7946  -28.5264   23.6538 C   0  0  0  0  0  0  0  0  0  0  0  0
  -16.8572  -30.4953   23.2632 C   0  0  0  0  0  0  0  0  0  0  0  0
  -17.5309  -28.1766   23.1782 C   0  0  0  0  0  0  0  0  0  0  0  0
  -24.5262  -27.9869   20.9624 C   0  0  0  0  0  0  0  0  0  0  0  0
  -26.3584  -28.7293   19.9998 C   0  0  0  0  0  0  0  0  0  0  0  0
  -25.0821  -30.4823   21.2435 C   0  0  0  0  0  0  0  0  0  0  0  0
  -24.6642  -12.4845   22.5827 C   0  0  0  0  0  0  0  0  0  0  0  0
  -23.6464  -14.9237   20.7021 C   0  0  0  0  0  0  0  0  0  0  0  0
  -24.0625  -18.1467   19.6600 C   0  0  0  0  0  0  0  0  0  0  0  0
  -29.0166  -23.4315   19.2435 C   0  0  0  0  0  0  0  0  0  0  0  0
  -22.1720   -8.7020   20.2291 C   0  0  0  0  0  0  0  0  0  0  0  0
  -24.4763  -14.3633   24.2533 C   0  0  0  0  0  0  0  0  0  0  0  0
  -25.8983  -15.2113   21.8030 C   0  0  0  0  0  0  0  0  0  0  0  0
  -23.0091   -9.8993   19.7864 C   0  0  0  0  0  0  0  0  0  0  0  0
  -27.5350  -25.4511   16.7130 C   0  0  0  0  0  0  0  0  0  0  0  0
  -24.3179   -9.9540   20.5681 C   0  0  0  0  0  0  0  0  0  0  0  0
  -26.6705  -26.4400   17.4983 C   0  0  0  0  0  0  0  0  0  0  0  0
  -27.5333  -24.0638   17.3527 C   0  0  0  0  0  0  0  0  0  0  0  0
  -27.0235  -25.0256   19.5628 C   0  0  0  0  0  0  0  0  0  0  0  0
  -24.0570  -10.1269   22.0693 C   0  0  1  0  0  0  0  0  0  0  0  0
  -24.0842  -13.8394   22.8751 C   0  0  1  0  0  0  0  0  0  0  0  0
  -27.0461  -26.4534   18.9931 C   0  0  2  0  0  0  0  0  0  0  0  0
  -23.0993  -19.8483   18.0871 C   0  0  0  0  0  0  0  0  0  0  0  0
  -24.9775  -13.5023   18.3531 C   0  0  0  0  0  0  0  0  0  0  0  0
  -24.8202  -15.6405   17.0603 C   0  0  0  0  0  0  0  0  0  0  0  0
  -22.7427  -14.4998   17.8382 C   0  0  0  0  0  0  0  0  0  0  0  0
  -23.3940  -19.9888   21.8778 C   0  0  0  0  0  0  0  0  0  0  0  0
  -31.6757  -19.8905   24.1984 C   0  0  0  0  0  0  0  0  0  0  0  0
  -30.1982  -16.9031   25.7570 C   0  0  0  0  0  0  0  0  0  1  0  0
  -31.2604  -17.9370   25.4370 C   0  0  0  0  0  0  0  0  0  0  0  0
  -24.2169  -15.6745   19.5231 C   0  0  1  0  0  0  0  0  0  0  0  0
  -23.0758  -19.2893   19.5012 C   0  0  2  0  0  0  0  0  0  0  0  0
  -24.2028  -14.8285   18.2187 C   0  0  0  0  0  0  0  0  0  0  0  0
  -25.0482  -26.9131   20.3636 N   0  0  0  0  0  0  0  0  0  0  0  0
  -26.1614  -27.3967   19.7866 N   0  0  0  0  0  0  0  0  0  0  0  0
  -24.5076  -14.7281   21.7911 N   0  0  0  0  0  0  0  0  0  0  0  0
  -27.9024  -24.1543   18.7671 N   0  0  0  0  0  0  0  0  0  0  0  0
  -27.4288  -29.3759   19.4912 N   0  0  0  0  0  0  0  0  0  0  0  0
  -23.9449  -30.7376   22.0218 N   0  0  0  0  0  0  0  0  0  0  0  0
  -29.2908  -23.6211   20.5975 N   0  0  0  0  0  0  0  0  0  0  0  0
  -23.7171  -11.5014   22.3682 N   0  0  0  0  0  0  0  0  0  0  0  0
  -23.4681  -16.9234   19.4335 N   0  0  0  0  0  0  0  0  0  0  0  0
  -23.4038  -20.3924   20.4481 N   0  3  0  0  0  0  0  0  0  0  0  0
  -25.8636  -31.4248   20.9707 O   0  0  0  0  0  0  0  0  0  0  0  0
  -25.8809  -12.3419   22.5524 O   0  0  0  0  0  0  0  0  0  0  0  0
  -22.4776  -14.5317   20.6613 O   0  0  0  0  0  0  0  0  0  0  0  0
  -25.2434  -18.3221   19.9518 O   0  0  0  0  0  0  0  0  0  0  0  0
  -29.6950  -22.7195   18.4986 O   0  0  0  0  0  0  0  0  0  0  0  0
  -19.7572  -27.5501   23.8491 O   0  0  0  0  0  0  0  0  0  0  0  0
  -29.8117  -16.2436   24.5520 O   0  0  0  0  0  0  0  0  0  1  0  0
  -30.7185  -18.8971   24.5383 O   0  0  0  0  0  0  0  0  0  0  0  0
  -15.9266  -31.4405   23.0771 F   0  0  0  0  0  0  0  0  0  0  0  0
  -17.2412  -26.8964   22.9081 F   0  0  0  0  0  0  0  0  0  0  0  0
  1  2  1  0  0  0  0
  1  5  2  0  0  0  0
  2  6  2  0  0  0  0
  3 12  2  0  0  0  0
  3 19  1  0  0  0  0
  4 13  1  0  0  0  0
  4 19  2  0  0  0  0
  5 21  1  0  0  0  0
  6 23  1  0  0  0  0
  7 14  2  0  0  0  0
  7 22  1  0  0  0  0
  8 10  2  0  0  0  0
  8 25  1  0  0  0  0
  9 11  1  0  0  0  0
  9 25  2  0  0  0  0
 10 26  1  0  0  0  0
 11 26  2  0  0  0  0
 12 27  1  0  0  0  0
 13 27  2  0  0  0  0
 14 28  1  0  0  0  0
 15 16  2  0  0  0  0
 15 29  1  0  0  0  0
 16 30  1  0  0  0  0
 17 24  1  0  0  0  0
 17 28  2  0  0  0  0
 18 30  2  0  0  0  0
 18 31  1  0  0  0  0
 19 32  1  0  0  0  0
 20 32  1  0  0  0  0
 20 33  2  0  0  0  0
 20 34  1  0  0  0  0
 21 23  2  0  0  0  0
 21 39  1  0  0  0  0
 22 24  2  0  0  0  0
 22 40  1  0  0  0  0
 23 48  1  0  0  0  0
 24 41  1  0  0  0  0
 25 56  1  0  0  0  0
 26 68  1  0  0  0  0
 27 77  1  0  0  0  0
 28 78  1  0  0  0  0
 29 31  2  0  0  0  0
 29 77  1  0  0  0  0
 30 80  1  0  0  0  0
 31 81  1  0  0  0  0
 32 62  2  0  0  0  0
 33 63  1  0  0  0  0
 33 66  1  0  0  0  0
 34 67  1  0  0  0  0
 34 72  2  0  0  0  0
 35 49  1  0  0  0  0
 35 69  1  0  0  0  0
 35 73  2  0  0  0  0
 36 59  1  0  0  0  0
 36 64  1  0  0  0  0
 36 74  2  0  0  0  0
 37 60  1  0  0  0  0
 37 70  1  0  0  0  0
 37 75  2  0  0  0  0
 38 65  1  0  0  0  0
 38 68  1  0  0  0  0
 38 76  2  0  0  0  0
 39 42  1  0  0  0  0
 40 49  1  0  0  0  0
 41 64  1  0  0  0  0
 42 44  1  0  0  0  0
 43 45  1  0  0  0  0
 43 46  1  0  0  0  0
 44 48  1  0  0  0  0
 45 50  1  0  0  0  0
 46 65  1  0  0  0  0
 47 50  1  0  0  0  0
 47 65  1  0  0  0  0
 48 69  1  0  0  0  0
 49 64  1  0  0  0  0
 50 63  1  0  0  0  0
 51 60  1  0  0  0  0
 52 61  1  0  0  0  0
 53 61  1  0  0  0  0
 54 61  1  0  0  0  0
 55 71  1  0  0  0  0
 56 79  1  0  0  0  0
 57 58  1  0  0  0  0
 57 78  1  0  0  0  0
 58 79  1  0  0  0  0
 59 61  1  0  0  0  0
 59 70  1  0  0  0  0
 60 71  1  0  0  0  0
 62 63  1  0  0  0  0
M  CHG  1  71   1
M  ISO  4  38 100  57 101  68 100  78 101
M  END
> <Batch ID>
0001

> <Smiles>
CNC(C)C(=O)NC(C(=O)N1Cc2cc([101O:1][101CH2:1]COCc3ccc([100NH:0][100C:0](=O)N4CCCC(n5nc(-c6ccc(Oc7ccc(F)cc7F)cc6)c(C(N)=O)c5N)C4)cc3)ccc2CC1C(=O)NC1CCCc2ccccc21)C(C)(C)C

> <Shape>
0.217

> <Color>
0.081

> <Negative vol penalty>
0.000

$$$$

  -OEChem-04042320143D

 80 88  0     1  0  0  0  0  0999 V2000
  -29.2599  -11.3166   18.9410 C   0  0  0  0  0  0  0  0  0  0  0  0
  -29.2866  -12.7018   18.8145 C   0  0  0  0  0  0  0  0  0  0  0  0
  -29.8223  -24.0549   17.0858 C   0  0  0  0  0  0  0  0  0  0  0  0
  -20.6210  -24.7759   23.5912 C   0  0  0  0  0  0  0  0  0  0  0  0
  -20.7299  -26.2685   21.6946 C   0  0  0  0  0  0  0  0  0  0  0  0
  -28.1122  -10.6831   19.4156 C   0  0  0  0  0  0  0  0  0  0  0  0
  -28.1650  -13.4542   19.1614 C   0  0  0  0  0  0  0  0  0  0  0  0
  -29.3429  -17.5481   21.8995 C   0  0  0  0  0  0  0  0  0  0  0  0
  -30.7069  -24.9051   17.7494 C   0  0  0  0  0  0  0  0  0  0  0  0
  -29.1446  -23.0627   17.7942 C   0  0  0  0  0  0  0  0  0  0  0  0
  -19.4138  -25.3570   23.9793 C   0  0  0  0  0  0  0  0  0  0  0  0
  -19.5228  -26.8497   22.0826 C   0  0  0  0  0  0  0  0  0  0  0  0
  -29.8584  -18.6465   21.2130 C   0  0  0  0  0  0  0  0  0  0  0  0
  -18.4649  -29.1062   24.3673 C   0  0  0  0  0  0  0  0  0  0  0  0
  -18.3798  -30.4983   24.3470 C   0  0  0  0  0  0  0  0  0  0  0  0
  -27.6851  -19.6921   21.2660 C   0  0  0  0  0  0  0  0  0  0  0  0
  -30.2362  -23.7707   19.8300 C   0  0  0  0  0  0  0  0  0  0  0  0
  -16.5675  -30.3643   22.7549 C   0  0  0  0  0  0  0  0  0  0  0  0
  -21.2791  -25.2316   22.4489 C   0  0  0  0  0  0  0  0  0  0  0  0
  -22.7027  -23.5297   21.1902 C   0  0  0  0  0  0  0  0  0  0  0  0
  -26.9793  -11.4288   19.7776 C   0  0  0  0  0  0  0  0  0  0  0  0
  -27.9898  -17.5085   22.2655 C   0  0  0  0  0  0  0  0  0  0  0  0
  -27.0005  -12.8299   19.6400 C   0  0  0  0  0  0  0  0  0  0  0  0
  -27.1555  -18.5931   21.9594 C   0  0  0  0  0  0  0  0  0  0  0  0
  -30.9138  -24.7629   19.1215 C   0  0  0  0  0  0  0  0  0  0  0  0
  -29.3516  -22.9205   19.1663 C   0  0  0  0  0  0  0  0  0  0  0  0
  -18.8647  -26.3939   23.2250 C   0  0  0  0  0  0  0  0  0  0  0  0
  -29.0289  -19.7175   20.8936 C   0  0  0  0  0  0  0  0  0  0  0  0
  -17.6014  -28.3431   23.5813 C   0  0  0  0  0  0  0  0  0  0  0  0
  -17.4311  -31.1273   23.5408 C   0  0  0  0  0  0  0  0  0  0  0  0
  -16.6527  -28.9722   22.7752 C   0  0  0  0  0  0  0  0  0  0  0  0
  -22.5264  -24.6320   22.0478 C   0  0  0  0  0  0  0  0  0  0  0  0
  -24.0638  -23.3556   21.1303 C   0  0  0  0  0  0  0  0  0  0  0  0
  -21.7238  -22.7343   20.5085 C   0  0  0  0  0  0  0  0  0  0  0  0
  -25.5301  -15.6217   21.5626 C   0  0  0  0  0  0  0  0  0  0  0  0
  -24.0152  -17.4174   23.7993 C   0  0  0  0  0  0  0  0  0  0  0  0
  -23.8309  -20.3647   25.5101 C   0  0  0  0  0  0  0  0  0  0  0  0
  -28.8358  -26.4559   20.9631 C   0  0  0  0  0  0  0  0  0  0  0  0
  -25.7453  -10.6958   20.2409 C   0  0  0  0  0  0  0  0  0  0  0  0
  -27.4552  -16.3281   23.0293 C   0  0  0  0  0  0  0  0  0  0  0  0
  -25.7003  -18.6085   22.3477 C   0  0  0  0  0  0  0  0  0  0  0  0
  -24.7297  -11.5950   20.9411 C   0  0  0  0  0  0  0  0  0  0  0  0
  -27.8779  -24.6970   23.9775 C   0  0  0  0  0  0  0  0  0  0  0  0
  -24.5126  -12.8770   20.1436 C   0  0  0  0  0  0  0  0  0  0  0  0
  -26.4052  -24.3926   23.6970 C   0  0  0  0  0  0  0  0  0  0  0  0
  -28.2713  -26.0690   23.4379 C   0  0  0  0  0  0  0  0  0  0  0  0
  -26.5235  -25.9589   21.7039 C   0  0  0  0  0  0  0  0  0  0  0  0
  -25.8125  -13.6825   20.0295 C   0  0  1  0  0  0  0  0  0  0  0  0
  -25.9436  -16.1676   22.9000 C   0  0  1  0  0  0  0  0  0  0  0  0
  -26.0694  -24.5759   22.2051 C   0  0  2  0  0  0  0  0  0  0  0  0
  -22.4623  -21.5525   27.2460 C   0  0  0  0  0  0  0  0  0  0  0  0
  -21.8471  -17.9529   21.7201 C   0  0  0  0  0  0  0  0  0  0  0  0
  -21.0457  -19.8484   23.1459 C   0  0  0  0  0  0  0  0  0  0  0  0
  -20.9927  -17.5163   24.0296 C   0  0  0  0  0  0  0  0  0  0  0  0
  -26.1381  -20.5758   27.3516 C   0  0  0  0  0  0  0  0  0  0  0  0
  -31.8586  -25.6733   19.8306 C   0  0  0  0  0  0  0  0  0  0  0  0
  -28.6231  -21.8527   19.9282 C   0  0  0  0  0  0  0  0  0  1  0  0
  -31.1957  -26.9453   20.3727 C   0  0  0  0  0  0  0  0  0  0  0  0
  -23.2143  -18.6970   23.7800 C   0  0  1  0  0  0  0  0  0  0  0  0
  -23.6682  -20.6619   26.9898 C   0  0  2  0  0  0  0  0  0  0  0  0
  -21.8019  -18.5028   23.1597 C   0  0  0  0  0  0  0  0  0  0  0  0
  -23.6830  -25.1235   22.5004 N   0  0  0  0  0  0  0  0  0  0  0  0
  -24.5991  -24.3262   21.9250 N   0  0  0  0  0  0  0  0  0  0  0  0
  -25.2233  -17.4286   23.0877 N   0  0  0  0  0  0  0  0  0  0  0  0
  -27.9423  -26.1716   22.0091 N   0  0  0  0  0  0  0  0  0  0  0  0
  -24.8430  -22.4684   20.4759 N   0  0  0  0  0  0  0  0  0  0  0  0
  -20.3691  -23.0502   20.6802 N   0  0  0  0  0  0  0  0  0  0  0  0
  -26.0792  -14.3893   21.2638 N   0  0  0  0  0  0  0  0  0  0  0  0
  -23.2014  -19.1911   25.1526 N   0  0  0  0  0  0  0  0  0  0  0  0
  -30.1597  -26.6509   21.3376 N   0  0  0  0  0  0  0  0  0  0  0  0
  -24.8808  -21.3498   27.5164 N   0  3  0  0  0  0  0  0  0  0  0  0
  -22.0401  -21.7618   19.7821 O   0  0  0  0  0  0  0  0  0  0  0  0
  -24.7682  -16.2699   20.8548 O   0  0  0  0  0  0  0  0  0  0  0  0
  -23.5882  -16.4462   24.4285 O   0  0  0  0  0  0  0  0  0  0  0  0
  -24.4511  -21.1018   24.7468 O   0  0  0  0  0  0  0  0  0  0  0  0
  -28.4811  -26.5256   19.7814 O   0  0  0  0  0  0  0  0  0  0  0  0
  -17.6866  -26.9611   23.6032 O   0  0  0  0  0  0  0  0  0  0  0  0
  -29.5294  -20.7906   20.2229 O   0  0  0  0  0  0  0  0  0  1  0  0
  -17.3484  -32.4641   23.5226 F   0  0  0  0  0  0  0  0  0  0  0  0
  -15.8196  -28.2443   22.0189 F   0  0  0  0  0  0  0  0  0  0  0  0
  1  2  1  0  0  0  0
  1  6  2  0  0  0  0
  2  7  2  0  0  0  0
  3  9  1  0  0  0  0
  3 10  2  0  0  0  0
  4 11  2  0  0  0  0
  4 19  1  0  0  0  0
  5 12  1  0  0  0  0
  5 19  2  0  0  0  0
  6 21  1  0  0  0  0
  7 23  1  0  0  0  0
  8 13  2  0  0  0  0
  8 22  1  0  0  0  0
  9 25  2  0  0  0  0
 10 26  1  0  0  0  0
 11 27  1  0  0  0  0
 12 27  2  0  0  0  0
 13 28  1  0  0  0  0
 14 15  2  0  0  0  0
 14 29  1  0  0  0  0
 15 30  1  0  0  0  0
 16 24  1  0  0  0  0
 16 28  2  0  0  0  0
 17 25  1  0  0  0  0
 17 26  2  0  0  0  0
 18 30  2  0  0  0  0
 18 31  1  0  0  0  0
 19 32  1  0  0  0  0
 20 32  1  0  0  0  0
 20 33  2  0  0  0  0
 20 34  1  0  0  0  0
 21 23  2  0  0  0  0
 21 39  1  0  0  0  0
 22 24  2  0  0  0  0
 22 40  1  0  0  0  0
 23 48  1  0  0  0  0
 24 41  1  0  0  0  0
 25 56  1  0  0  0  0
 26 57  1  0  0  0  0
 27 77  1  0  0  0  0
 28 78  1  0  0  0  0
 29 31  2  0  0  0  0
 29 77  1  0  0  0  0
 30 79  1  0  0  0  0
 31 80  1  0  0  0  0
 32 62  2  0  0  0  0
 33 63  1  0  0  0  0
 33 66  1  0  0  0  0
 34 67  1  0  0  0  0
 34 72  2  0  0  0  0
 35 49  1  0  0  0  0
 35 68  1  0  0  0  0
 35 73  2  0  0  0  0
 36 59  1  0  0  0  0
 36 64  1  0  0  0  0
 36 74  2  0  0  0  0
 37 60  1  0  0  0  0
 37 69  1  0  0  0  0
 37 75  2  0  0  0  0
 38 65  1  0  0  0  0
 38 70  1  0  0  0  0
 38 76  2  0  0  0  0
 39 42  1  0  0  0  0
 40 49  1  0  0  0  0
 41 64  1  0  0  0  0
 42 44  1  0  0  0  0
 43 45  1  0  0  0  0
 43 46  1  0  0  0  0
 44 48  1  0  0  0  0
 45 50  1  0  0  0  0
 46 65  1  0  0  0  0
 47 50  1  0  0  0  0
 47 65  1  0  0  0  0
 48 68  1  0  0  0  0
 49 64  1  0  0  0  0
 50 63  1  0  0  0  0
 51 60  1  0  0  0  0
 52 61  1  0  0  0  0
 53 61  1  0  0  0  0
 54 61  1  0  0  0  0
 55 71  1  0  0  0  0
 56 58  1  0  0  0  0
 57 78  1  0  0  0  0
 58 70  1  0  0  0  0
 59 61  1  0  0  0  0
 59 69  1  0  0  0  0
 60 71  1  0  0  0  0
 62 63  1  0  0  0  0
M  CHG  1  71   1
M  ISO  4  38 100  57 101  70 100  78 101
M  END
> <Batch ID>
0001

> <Smiles>
CNC(C)C(=O)NC(C(=O)N1Cc2cc([101O:1][101CH2:1]c3cccc(CC[100NH:0][100C:0](=O)N4CCCC(n5nc(-c6ccc(Oc7ccc(F)cc7F)cc6)c(C(N)=O)c5N)C4)c3)ccc2CC1C(=O)NC1CCCc2ccccc21)C(C)(C)C

> <Shape>
0.218

> <Color>
0.070

> <Negative vol penalty>
0.000

$$$$

  -OEChem-04042320143D

 80 88  0     1  0  0  0  0  0999 V2000
  -18.5482  -31.7530   26.1753 C   0  0  0  0  0  0  0  0  0  0  0  0
  -19.8982  -31.4404   26.2986 C   0  0  0  0  0  0  0  0  0  0  0  0
  -24.7287  -10.0532   22.3144 C   0  0  0  0  0  0  0  0  0  0  0  0
  -24.7897  -11.5591   24.2027 C   0  0  0  0  0  0  0  0  0  0  0  0
  -17.8021  -31.2149   25.1276 C   0  0  0  0  0  0  0  0  0  0  0  0
  -20.5027  -30.5886   25.3747 C   0  0  0  0  0  0  0  0  0  0  0  0
  -26.7719  -29.4482   22.1016 C   0  0  0  0  0  0  0  0  0  0  0  0
  -27.2058  -20.3174   20.6978 C   0  0  0  0  0  0  0  0  0  0  0  0
  -29.6207  -20.3774   20.7345 C   0  0  0  0  0  0  0  0  0  0  0  0
  -27.1679  -21.6897   20.9445 C   0  0  0  0  0  0  0  0  0  0  0  0
  -29.5829  -21.7498   20.9811 C   0  0  0  0  0  0  0  0  0  0  0  0
  -24.4137   -8.9958   23.1677 C   0  0  0  0  0  0  0  0  0  0  0  0
  -24.4747  -10.5017   25.0561 C   0  0  0  0  0  0  0  0  0  0  0  0
  -27.6934  -28.4293   21.8645 C   0  0  0  0  0  0  0  0  0  0  0  0
  -23.2387   -5.9701   24.8046 C   0  0  0  0  0  0  0  0  0  0  0  0
  -22.2209   -5.1009   24.4120 C   0  0  0  0  0  0  0  0  0  0  0  0
  -26.3245  -27.6218   20.0497 C   0  0  0  0  0  0  0  0  0  0  0  0
  -20.6604   -6.9450   24.3749 C   0  0  0  0  0  0  0  0  0  0  0  0
  -24.9168  -11.3349   22.8318 C   0  0  0  0  0  0  0  0  0  0  0  0
  -24.3424  -13.2877   21.2942 C   0  0  0  0  0  0  0  0  0  0  0  0
  -18.4000  -30.3637   24.1849 C   0  0  0  0  0  0  0  0  0  0  0  0
  -25.6124  -29.5553   21.3203 C   0  0  0  0  0  0  0  0  0  0  0  0
  -19.7636  -30.0376   24.3142 C   0  0  0  0  0  0  0  0  0  0  0  0
  -25.3911  -28.6446   20.2773 C   0  0  0  0  0  0  0  0  0  0  0  0
  -28.4322  -19.6612   20.5928 C   0  0  0  0  0  0  0  0  0  0  0  0
  -28.3564  -22.4059   21.0862 C   0  0  0  0  0  0  0  0  0  0  0  0
  -24.2867   -9.2200   24.5386 C   0  0  0  0  0  0  0  0  0  0  0  0
  -27.4684  -27.5141   20.8403 C   0  0  0  0  0  0  0  0  0  0  0  0
  -22.9674   -7.3267   24.9825 C   0  0  0  0  0  0  0  0  0  0  0  0
  -20.9317   -5.5884   24.1971 C   0  0  0  0  0  0  0  0  0  0  0  0
  -21.6782   -7.8142   24.7676 C   0  0  0  0  0  0  0  0  0  0  0  0
  -25.2427  -12.4274   21.9509 C   0  0  0  0  0  0  0  0  0  0  0  0
  -25.1446  -14.1471   20.5840 C   0  0  0  0  0  0  0  0  0  0  0  0
  -22.9091  -13.3081   21.3236 C   0  0  0  0  0  0  0  0  0  0  0  0
  -22.4917  -29.4018   21.9046 C   0  0  0  0  0  0  0  0  0  0  0  0
  -22.2608  -30.2569   18.7840 C   0  0  0  0  0  0  0  0  0  0  0  0
  -23.6991  -30.3465   15.6905 C   0  0  0  0  0  0  0  0  0  0  0  0
  -29.6020  -17.4630   20.2114 C   0  0  0  0  0  0  0  0  0  0  0  0
  -17.5418  -29.7687   23.0968 C   0  0  0  0  0  0  0  0  0  0  0  0
  -24.6413  -30.6762   21.5716 C   0  0  0  0  0  0  0  0  0  0  0  0
  -24.1720  -28.7281   19.3968 C   0  0  0  0  0  0  0  0  0  0  0  0
  -18.3459  -29.1726   21.9443 C   0  0  0  0  0  0  0  0  0  0  0  0
  -30.1137  -13.9872   19.6330 C   0  0  0  0  0  0  0  0  0  0  0  0
  -19.4826  -28.3068   22.4781 C   0  0  0  0  0  0  0  0  0  0  0  0
  -28.8180  -13.3423   20.1305 C   0  0  0  0  0  0  0  0  0  0  0  0
  -30.5260  -15.1745   20.5014 C   0  0  0  0  0  0  0  0  0  0  0  0
  -28.1908  -15.5488   21.1912 C   0  0  0  0  0  0  0  0  0  0  0  0
  -20.4610  -29.1371   23.3177 C   0  0  1  0  0  0  0  0  0  0  0  0
  -23.2398  -30.3818   21.0458 C   0  0  1  0  0  0  0  0  0  0  0  0
  -27.7004  -14.3885   20.3097 C   0  0  2  0  0  0  0  0  0  0  0  0
  -23.2520  -31.0729   13.3305 C   0  0  0  0  0  0  0  0  0  0  0  0
  -20.4516  -27.8328   18.3832 C   0  0  0  0  0  0  0  0  0  0  0  0
  -20.8141  -28.0576   15.9162 C   0  0  0  0  0  0  0  0  0  0  0  0
  -19.7085  -29.8986   17.1854 C   0  0  0  0  0  0  0  0  0  0  0  0
  -25.9723  -32.2414   15.7202 C   0  0  0  0  0  0  0  0  0  0  0  0
  -29.4983  -24.5873   21.4902 C   0  0  0  0  0  0  0  0  0  0  0  0
  -29.1071  -26.0364   21.7273 C   0  0  0  0  0  0  0  0  0  1  0  0
  -22.1901  -29.5109   17.4735 C   0  0  1  0  0  0  0  0  0  0  0  0
  -23.8389  -31.4677   14.6768 C   0  0  2  0  0  0  0  0  0  0  0  0
  -20.8132  -28.8220   17.2572 C   0  0  0  0  0  0  0  0  0  0  0  0
  -26.5192  -12.7141   21.6816 N   0  0  0  0  0  0  0  0  0  0  0  0
  -26.4267  -13.7641   20.8479 N   0  0  0  0  0  0  0  0  0  0  0  0
  -23.2489  -29.8380   19.6862 N   0  0  0  0  0  0  0  0  0  0  0  0
  -29.4192  -16.1258   20.6230 N   0  0  0  0  0  0  0  0  0  0  0  0
  -24.8713  -15.1854   19.7657 N   0  0  0  0  0  0  0  0  0  0  0  0
  -22.2432  -12.3540   22.1051 N   0  0  0  0  0  0  0  0  0  0  0  0
  -28.4703  -18.2668   20.3438 N   0  0  0  0  0  0  0  0  0  0  0  0
  -28.3183  -23.7688   21.3303 N   0  0  0  0  0  0  0  0  0  0  0  0
  -21.3331  -29.9104   22.4599 N   0  0  0  0  0  0  0  0  0  0  0  0
  -22.5463  -30.4731   16.4364 N   0  0  0  0  0  0  0  0  0  0  0  0
  -25.2754  -31.8123   14.4803 N   0  3  0  0  0  0  0  0  0  0  0  0
  -22.2383  -14.1372   20.6632 O   0  0  0  0  0  0  0  0  0  0  0  0
  -22.9321  -28.2677   22.0513 O   0  0  0  0  0  0  0  0  0  0  0  0
  -21.4730  -31.1821   18.9964 O   0  0  0  0  0  0  0  0  0  0  0  0
  -24.5277  -29.4462   15.8064 O   0  0  0  0  0  0  0  0  0  0  0  0
  -30.6749  -17.8585   19.7484 O   0  0  0  0  0  0  0  0  0  0  0  0
  -23.9791   -8.1885   25.3716 O   0  0  0  0  0  0  0  0  0  0  0  0
  -28.3660  -26.5182   20.6071 O   0  0  0  0  0  0  0  0  0  1  0  0
  -19.9548   -4.7539   23.8185 F   0  0  0  0  0  0  0  0  0  0  0  0
  -21.4118   -9.1167   24.9358 F   0  0  0  0  0  0  0  0  0  0  0  0
  1  2  1  0  0  0  0
  1  5  2  0  0  0  0
  2  6  2  0  0  0  0
  3 12  2  0  0  0  0
  3 19  1  0  0  0  0
  4 13  1  0  0  0  0
  4 19  2  0  0  0  0
  5 21  1  0  0  0  0
  6 23  1  0  0  0  0
  7 14  2  0  0  0  0
  7 22  1  0  0  0  0
  8 10  2  0  0  0  0
  8 25  1  0  0  0  0
  9 11  1  0  0  0  0
  9 25  2  0  0  0  0
 10 26  1  0  0  0  0
 11 26  2  0  0  0  0
 12 27  1  0  0  0  0
 13 27  2  0  0  0  0
 14 28  1  0  0  0  0
 15 16  2  0  0  0  0
 15 29  1  0  0  0  0
 16 30  1  0  0  0  0
 17 24  1  0  0  0  0
 17 28  2  0  0  0  0
 18 30  2  0  0  0  0
 18 31  1  0  0  0  0
 19 32  1  0  0  0  0
 20 32  1  0  0  0  0
 20 33  2  0  0  0  0
 20 34  1  0  0  0  0
 21 23  2  0  0  0  0
 21 39  1  0  0  0  0
 22 24  2  0  0  0  0
 22 40  1  0  0  0  0
 23 48  1  0  0  0  0
 24 41  1  0  0  0  0
 25 67  1  0  0  0  0
 26 68  1  0  0  0  0
 27 77  1  0  0  0  0
 28 78  1  0  0  0  0
 29 31  2  0  0  0  0
 29 77  1  0  0  0  0
 30 79  1  0  0  0  0
 31 80  1  0  0  0  0
 32 61  2  0  0  0  0
 33 62  1  0  0  0  0
 33 65  1  0  0  0  0
 34 66  1  0  0  0  0
 34 72  2  0  0  0  0
 35 49  1  0  0  0  0
 35 69  1  0  0  0  0
 35 73  2  0  0  0  0
 36 58  1  0  0  0  0
 36 63  1  0  0  0  0
 36 74  2  0  0  0  0
 37 59  1  0  0  0  0
 37 70  1  0  0  0  0
 37 75  2  0  0  0  0
 38 64  1  0  0  0  0
 38 67  1  0  0  0  0
 38 76  2  0  0  0  0
 39 42  1  0  0  0  0
 40 49  1  0  0  0  0
 41 63  1  0  0  0  0
 42 44  1  0  0  0  0
 43 45  1  0  0  0  0
 43 46  1  0  0  0  0
 44 48  1  0  0  0  0
 45 50  1  0  0  0  0
 46 64  1  0  0  0  0
 47 50  1  0  0  0  0
 47 64  1  0  0  0  0
 48 69  1  0  0  0  0
 49 63  1  0  0  0  0
 50 62  1  0  0  0  0
 51 59  1  0  0  0  0
 52 60  1  0  0  0  0
 53 60  1  0  0  0  0
 54 60  1  0  0  0  0
 55 71  1  0  0  0  0
 56 57  1  0  0  0  0
 56 68  1  0  0  0  0
 57 78  1  0  0  0  0
 58 60  1  0  0  0  0
 58 70  1  0  0  0  0
 59 71  1  0  0  0  0
 61 62  1  0  0  0  0
M  CHG  1  71   1
M  ISO  4  38 100  57 101  67 100  78 101
M  END
> <Batch ID>
0001

> <Smiles>
CNC(C)C(=O)NC(C(=O)N1Cc2cc([101O:1][101CH2:1]CNc3ccc([100NH:0][100C:0](=O)N4CCCC(n5nc(-c6ccc(Oc7ccc(F)cc7F)cc6)c(C(N)=O)c5N)C4)cc3)ccc2CC1C(=O)NC1CCCc2ccccc21)C(C)(C)C

> <Shape>
0.286

> <Color>
0.137

> <Negative vol penalty>
0.000

$$$$

  -OEChem-04042320143D

 81 89  0     1  0  0  0  0  0999 V2000
  -28.6561  -32.5991   25.5568 C   0  0  0  0  0  0  0  0  0  0  0  0
  -28.8112  -31.2640   25.1979 C   0  0  0  0  0  0  0  0  0  0  0  0
  -23.9419  -10.0095   22.3373 C   0  0  0  0  0  0  0  0  0  0  0  0
  -24.5902  -11.6421   23.9960 C   0  0  0  0  0  0  0  0  0  0  0  0
  -27.4059  -33.2073   25.4517 C   0  0  0  0  0  0  0  0  0  0  0  0
  -27.7158  -30.5359   24.7348 C   0  0  0  0  0  0  0  0  0  0  0  0
  -28.8204  -27.7502   20.6525 C   0  0  0  0  0  0  0  0  0  0  0  0
  -30.7419  -18.6706   18.9070 C   0  0  0  0  0  0  0  0  0  0  0  0
  -23.5187   -9.1487   23.3499 C   0  0  0  0  0  0  0  0  0  0  0  0
  -24.1670  -10.7813   25.0087 C   0  0  0  0  0  0  0  0  0  0  0  0
  -29.5139  -26.5592   20.8631 C   0  0  0  0  0  0  0  0  0  0  0  0
  -31.0436  -20.0307   18.9742 C   0  0  0  0  0  0  0  0  0  0  0  0
  -24.9321   -7.0100   25.5528 C   0  0  0  0  0  0  0  0  0  0  0  0
  -25.3008   -5.6682   25.4579 C   0  0  0  0  0  0  0  0  0  0  0  0
  -27.4456  -25.3304   20.6849 C   0  0  0  0  0  0  0  0  0  0  0  0
  -28.3919  -19.1803   19.1417 C   0  0  0  0  0  0  0  0  0  0  0  0
  -22.9708   -5.0306   25.4181 C   0  0  0  0  0  0  0  0  0  0  0  0
  -24.4777  -11.2563   22.6603 C   0  0  0  0  0  0  0  0  0  0  0  0
  -24.1480  -13.1230   20.9532 C   0  0  0  0  0  0  0  0  0  0  0  0
  -26.2968  -32.4890   24.9779 C   0  0  0  0  0  0  0  0  0  0  0  0
  -27.4305  -27.7413   20.4671 C   0  0  0  0  0  0  0  0  0  0  0  0
  -26.4493  -31.1347   24.6245 C   0  0  0  0  0  0  0  0  0  0  0  0
  -26.7372  -26.5225   20.4696 C   0  0  0  0  0  0  0  0  0  0  0  0
  -28.6937  -20.5405   19.2089 C   0  0  0  0  0  0  0  0  0  0  0  0
  -29.4160  -18.2453   18.9908 C   0  0  0  0  0  0  0  0  0  0  0  0
  -23.6312   -9.5346   24.6856 C   0  0  0  0  0  0  0  0  0  0  0  0
  -28.8261  -25.3493   20.8821 C   0  0  0  0  0  0  0  0  0  0  0  0
  -30.0196  -20.9657   19.1251 C   0  0  0  0  0  0  0  0  0  0  0  0
  -23.5826   -7.3622   25.5805 C   0  0  0  0  0  0  0  0  0  0  0  0
  -24.3202   -4.6785   25.3905 C   0  0  0  0  0  0  0  0  0  0  0  0
  -22.6020   -6.3725   25.5131 C   0  0  0  0  0  0  0  0  0  0  0  0
  -24.9156  -12.1457   21.6147 C   0  0  0  0  0  0  0  0  0  0  0  0
  -25.0172  -13.6920   20.0547 C   0  0  0  0  0  0  0  0  0  0  0  0
  -22.7725  -13.4842   21.1347 C   0  0  0  0  0  0  0  0  0  0  0  0
  -24.9512  -28.9735   22.0288 C   0  0  0  0  0  0  0  0  0  0  0  0
  -23.2851  -27.8427   19.4856 C   0  0  0  0  0  0  0  0  0  0  0  0
  -23.0984  -25.6245   16.8988 C   0  0  0  0  0  0  0  0  0  0  0  0
  -30.0066  -15.8060   18.7740 C   0  0  0  0  0  0  0  0  0  0  0  0
  -24.9551  -33.1760   24.9264 C   0  0  0  0  0  0  0  0  0  0  0  0
  -26.7008  -29.0321   20.2146 C   0  0  0  0  0  0  0  0  0  0  0  0
  -25.2478  -26.4568   20.2554 C   0  0  0  0  0  0  0  0  0  0  0  0
  -23.9263  -32.4399   24.0721 C   0  0  0  0  0  0  0  0  0  0  0  0
  -29.6516  -12.2675   18.6003 C   0  0  0  0  0  0  0  0  0  0  0  0
  -23.9271  -30.9503   24.4006 C   0  0  0  0  0  0  0  0  0  0  0  0
  -28.3247  -12.0007   19.3146 C   0  0  0  0  0  0  0  0  0  0  0  0
  -30.4306  -13.4056   19.2572 C   0  0  0  0  0  0  0  0  0  0  0  0
  -28.3518  -14.3889   20.1412 C   0  0  0  0  0  0  0  0  0  0  0  0
  -25.2904  -30.3186   24.0943 C   0  0  1  0  0  0  0  0  0  0  0  0
  -25.2146  -28.9538   20.5496 C   0  0  1  0  0  0  0  0  0  0  0  0
  -27.5018  -13.2939   19.4763 C   0  0  2  0  0  0  0  0  0  0  0  0
  -27.5850  -21.5275   19.3706 C   0  0  0  0  0  0  0  0  0  0  0  0
  -21.5985  -24.9159   15.0159 C   0  0  0  0  0  0  0  0  0  0  0  0
  -21.4815  -26.3899   21.4722 C   0  0  0  0  0  0  0  0  0  0  0  0
  -20.6416  -24.9864   19.5767 C   0  0  0  0  0  0  0  0  0  0  0  0
  -20.2780  -27.4542   19.5556 C   0  0  0  0  0  0  0  0  0  0  0  0
  -25.1325  -26.3173   14.8638 C   0  0  0  0  0  0  0  0  0  0  0  0
  -30.8539  -24.1307   20.6389 C   0  0  0  0  0  0  0  0  0  1  0  0
  -31.1894  -22.7038   20.2505 C   0  0  0  0  0  0  0  0  0  0  0  0
  -22.6000  -26.5400   19.1501 C   0  0  1  0  0  0  0  0  0  0  0  0
  -22.7531  -25.8135   15.4327 C   0  0  2  0  0  0  0  0  0  0  0  0
  -21.2781  -26.3437   19.9446 C   0  0  0  0  0  0  0  0  0  0  0  0
  -26.1754  -12.0940   21.1740 N   0  0  0  0  0  0  0  0  0  0  0  0
  -26.2061  -13.0458   20.2258 N   0  0  0  0  0  0  0  0  0  0  0  0
  -24.5783  -27.7465   20.0187 N   0  0  0  0  0  0  0  0  0  0  0  0
  -29.5892  -14.5987   19.3732 N   0  0  0  0  0  0  0  0  0  0  0  0
  -24.8728  -14.6769   19.1428 N   0  0  0  0  0  0  0  0  0  0  0  0
  -22.0236  -12.7988   22.1009 N   0  0  0  0  0  0  0  0  0  0  0  0
  -29.1099  -16.8635   18.9224 N   0  0  0  0  0  0  0  0  0  0  0  0
  -25.4363  -30.0963   22.6717 N   0  0  0  0  0  0  0  0  0  0  0  0
  -22.4335  -26.5279   17.7007 N   0  0  0  0  0  0  0  0  0  0  0  0
  -23.9307  -25.4922   14.5777 N   0  3  0  0  0  0  0  0  0  0  0  0
  -22.2192  -14.3768   20.4486 O   0  0  0  0  0  0  0  0  0  0  0  0
  -24.3510  -28.0398   22.5481 O   0  0  0  0  0  0  0  0  0  0  0  0
  -22.6973  -28.9066   19.2757 O   0  0  0  0  0  0  0  0  0  0  0  0
  -23.8770  -24.7593   17.2936 O   0  0  0  0  0  0  0  0  0  0  0  0
  -31.0677  -15.8878   18.1501 O   0  0  0  0  0  0  0  0  0  0  0  0
  -23.2181   -8.6949   25.6740 O   0  0  0  0  0  0  0  0  0  0  0  0
  -29.5005  -24.1854   21.0881 O   0  0  0  0  0  0  0  0  0  1  0  0
  -30.3337  -22.2977   19.1892 O   0  0  0  0  0  0  0  0  0  0  0  0
  -24.6745   -3.3901   25.2978 F   0  0  0  0  0  0  0  0  0  0  0  0
  -21.3040   -6.7048   25.5381 F   0  0  0  0  0  0  0  0  0  0  0  0
  1  2  1  0  0  0  0
  1  5  2  0  0  0  0
  2  6  2  0  0  0  0
  3  9  2  0  0  0  0
  3 18  1  0  0  0  0
  4 10  1  0  0  0  0
  4 18  2  0  0  0  0
  5 20  1  0  0  0  0
  6 22  1  0  0  0  0
  7 11  2  0  0  0  0
  7 21  1  0  0  0  0
  8 12  2  0  0  0  0
  8 25  1  0  0  0  0
  9 26  1  0  0  0  0
 10 26  2  0  0  0  0
 11 27  1  0  0  0  0
 12 28  1  0  0  0  0
 13 14  2  0  0  0  0
 13 29  1  0  0  0  0
 14 30  1  0  0  0  0
 15 23  1  0  0  0  0
 15 27  2  0  0  0  0
 16 24  1  0  0  0  0
 16 25  2  0  0  0  0
 17 30  2  0  0  0  0
 17 31  1  0  0  0  0
 18 32  1  0  0  0  0
 19 32  1  0  0  0  0
 19 33  2  0  0  0  0
 19 34  1  0  0  0  0
 20 22  2  0  0  0  0
 20 39  1  0  0  0  0
 21 23  2  0  0  0  0
 21 40  1  0  0  0  0
 22 48  1  0  0  0  0
 23 41  1  0  0  0  0
 24 28  2  0  0  0  0
 24 51  1  0  0  0  0
 25 68  1  0  0  0  0
 26 77  1  0  0  0  0
 27 78  1  0  0  0  0
 28 79  1  0  0  0  0
 29 31  2  0  0  0  0
 29 77  1  0  0  0  0
 30 80  1  0  0  0  0
 31 81  1  0  0  0  0
 32 62  2  0  0  0  0
 33 63  1  0  0  0  0
 33 66  1  0  0  0  0
 34 67  1  0  0  0  0
 34 72  2  0  0  0  0
 35 49  1  0  0  0  0
 35 69  1  0  0  0  0
 35 73  2  0  0  0  0
 36 59  1  0  0  0  0
 36 64  1  0  0  0  0
 36 74  2  0  0  0  0
 37 60  1  0  0  0  0
 37 70  1  0  0  0  0
 37 75  2  0  0  0  0
 38 65  1  0  0  0  0
 38 68  1  0  0  0  0
 38 76  2  0  0  0  0
 39 42  1  0  0  0  0
 40 49  1  0  0  0  0
 41 64  1  0  0  0  0
 42 44  1  0  0  0  0
 43 45  1  0  0  0  0
 43 46  1  0  0  0  0
 44 48  1  0  0  0  0
 45 50  1  0  0  0  0
 46 65  1  0  0  0  0
 47 50  1  0  0  0  0
 47 65  1  0  0  0  0
 48 69  1  0  0  0  0
 49 64  1  0  0  0  0
 50 63  1  0  0  0  0
 52 60  1  0  0  0  0
 53 61  1  0  0  0  0
 54 61  1  0  0  0  0
 55 61  1  0  0  0  0
 56 71  1  0  0  0  0
 57 58  1  0  0  0  0
 57 78  1  0  0  0  0
 58 79  1  0  0  0  0
 59 61  1  0  0  0  0
 59 70  1  0  0  0  0
 60 71  1  0  0  0  0
 62 63  1  0  0  0  0
M  CHG  1  71   1
M  ISO  4  38 100  57 101  68 100  78 101
M  END
> <Batch ID>
0001

> <Smiles>
CNC(C)C(=O)NC(C(=O)N1Cc2cc([101O:1][101CH2:1]COc3ccc([100NH:0][100C:0](=O)N4CCCC(n5nc(-c6ccc(Oc7ccc(F)cc7F)cc6)c(C(N)=O)c5N)C4)cc3C)ccc2CC1C(=O)NC1CCCc2ccccc21)C(C)(C)C

> <Shape>
0.282

> <Color>
0.106

> <Negative vol penalty>
0.000

$$$$

  -OEChem-04042320143D

 77 85  0     1  0  0  0  0  0999 V2000
  -17.5192  -25.8185   21.4338 C   0  0  0  0  0  0  0  0  0  0  0  0
  -18.7916  -25.7093   20.8820 C   0  0  0  0  0  0  0  0  0  0  0  0
  -26.6261  -12.5770   21.8119 C   0  0  0  0  0  0  0  0  0  0  0  0
  -25.8412  -14.0497   20.0649 C   0  0  0  0  0  0  0  0  0  0  0  0
  -17.0682  -27.0509   21.9045 C   0  0  0  0  0  0  0  0  0  0  0  0
  -19.6134  -26.8328   20.7996 C   0  0  0  0  0  0  0  0  0  0  0  0
  -24.3691  -25.8720   22.2504 C   0  0  0  0  0  0  0  0  0  0  0  0
  -28.1665  -21.8353   19.6877 C   0  0  0  0  0  0  0  0  0  0  0  0
  -28.7648  -22.8992   21.7725 C   0  0  0  0  0  0  0  0  0  0  0  0
  -25.3753  -11.9612   21.8549 C   0  0  0  0  0  0  0  0  0  0  0  0
  -24.5903  -13.4339   20.1079 C   0  0  0  0  0  0  0  0  0  0  0  0
  -25.1919  -25.2122   21.3387 C   0  0  0  0  0  0  0  0  0  0  0  0
  -27.5414  -23.0095   19.2679 C   0  0  0  0  0  0  0  0  0  0  0  0
  -28.1397  -24.0734   21.3528 C   0  0  0  0  0  0  0  0  0  0  0  0
  -23.6696   -9.6584   20.0604 C   0  0  0  0  0  0  0  0  0  0  0  0
  -23.6343   -8.2648   20.1070 C   0  0  0  0  0  0  0  0  0  0  0  0
  -26.1959  -27.3193   20.7291 C   0  0  0  0  0  0  0  0  0  0  0  0
  -22.4632   -8.3651   22.2179 C   0  0  0  0  0  0  0  0  0  0  0  0
  -26.8591  -13.6213   20.9170 C   0  0  0  0  0  0  0  0  0  0  0  0
  -29.2505  -13.8951   20.0721 C   0  0  0  0  0  0  0  0  0  0  0  0
  -17.8885  -28.1881   21.8366 C   0  0  0  0  0  0  0  0  0  0  0  0
  -24.4460  -27.2641   22.4008 C   0  0  0  0  0  0  0  0  0  0  0  0
  -19.1724  -28.0819   21.2686 C   0  0  0  0  0  0  0  0  0  0  0  0
  -25.3747  -27.9940   21.6453 C   0  0  0  0  0  0  0  0  0  0  0  0
  -28.7782  -21.7802   20.9400 C   0  0  0  0  0  0  0  0  0  0  0  0
  -24.3574  -12.3897   21.0029 C   0  0  0  0  0  0  0  0  0  0  0  0
  -27.5280  -24.1286   20.1005 C   0  0  0  0  0  0  0  0  0  1  0  0
  -26.1035  -25.9362   20.5757 C   0  0  0  0  0  0  0  0  0  0  0  0
  -23.1017  -10.4054   21.0925 C   0  0  0  0  0  0  0  0  0  0  0  0
  -23.0311   -7.6181   21.1857 C   0  0  0  0  0  0  0  0  0  0  0  0
  -22.4985   -9.7587   22.1712 C   0  0  0  0  0  0  0  0  0  0  0  0
  -28.1508  -14.2581   20.8725 C   0  0  0  0  0  0  0  0  0  0  0  0
  -30.2274  -14.8038   20.3982 C   0  0  0  0  0  0  0  0  0  0  0  0
  -29.3776  -12.8315   19.1191 C   0  0  0  0  0  0  0  0  0  0  0  0
  -22.4292  -29.6821   21.9655 C   0  0  0  0  0  0  0  0  0  0  0  0
  -24.8421  -31.4181   23.2642 C   0  0  0  0  0  0  0  0  0  0  0  0
  -28.1808  -31.7092   23.9084 C   0  0  0  0  0  0  0  0  0  0  0  0
  -30.0658  -20.3648   22.5786 C   0  0  0  0  0  0  0  0  0  0  0  0
  -17.3394  -29.5088   22.3151 C   0  0  0  0  0  0  0  0  0  0  0  0
  -23.5701  -27.9576   23.4079 C   0  0  0  0  0  0  0  0  0  0  0  0
  -25.5106  -29.4876   21.7837 C   0  0  0  0  0  0  0  0  0  0  0  0
  -18.4132  -30.5717   22.5332 C   0  0  0  0  0  0  0  0  0  0  0  0
  -31.7199  -17.5601   24.0189 C   0  0  0  0  0  0  0  0  0  0  0  0
  -19.3734  -30.6115   21.3486 C   0  0  0  0  0  0  0  0  0  0  0  0
  -31.0968  -16.3624   23.2983 C   0  0  0  0  0  0  0  0  0  0  0  0
  -30.6948  -18.6630   24.2766 C   0  0  0  0  0  0  0  0  0  0  0  0
  -29.3270  -17.9099   22.3711 C   0  0  0  0  0  0  0  0  0  0  0  0
  -20.1026  -29.2726   21.1843 C   0  0  1  0  0  0  0  0  0  0  0  0
  -23.3741  -29.4406   23.1085 C   0  0  1  0  0  0  0  0  0  0  0  0
  -30.3356  -16.8003   22.0317 C   0  0  2  0  0  0  0  0  0  0  0  0
  -29.8580  -33.2567   24.9521 C   0  0  0  0  0  0  0  0  0  0  0  0
  -24.6822  -33.2365   20.8192 C   0  0  0  0  0  0  0  0  0  0  0  0
  -26.9321  -34.1457   21.4350 C   0  0  0  0  0  0  0  0  0  0  0  0
  -25.0038  -34.4343   22.9909 C   0  0  0  0  0  0  0  0  0  0  0  0
  -28.9726  -29.6842   25.9162 C   0  0  0  0  0  0  0  0  0  0  0  0
  -26.0471  -32.1472   22.7209 C   0  0  1  0  0  0  0  0  0  0  0  0
  -28.9344  -32.0694   25.1759 C   0  0  2  0  0  0  0  0  0  0  0  0
  -25.6626  -33.4630   21.9873 C   0  0  0  0  0  0  0  0  0  0  0  0
  -28.4046  -15.3150   21.6488 N   0  0  0  0  0  0  0  0  0  0  0  0
  -29.6751  -15.6238   21.3377 N   0  0  0  0  0  0  0  0  0  0  0  0
  -24.6277  -30.1209   22.7772 N   0  0  0  0  0  0  0  0  0  0  0  0
  -30.0164  -19.0294   23.0314 N   0  0  0  0  0  0  0  0  0  0  0  0
  -31.4964  -14.9735   19.9700 N   0  0  0  0  0  0  0  0  0  0  0  0
  -28.2769  -11.9905   18.9057 N   0  0  0  0  0  0  0  0  0  0  0  0
  -29.4125  -20.5873   21.3668 N   0  0  0  0  0  0  0  0  0  0  0  0
  -21.1668  -29.1539   22.1578 N   0  0  0  0  0  0  0  0  0  0  0  0
  -26.9534  -32.3348   23.8487 N   0  0  0  0  0  0  0  0  0  0  0  0
  -29.7565  -30.9146   25.6357 N   0  3  0  0  0  0  0  0  0  0  0  0
  -30.4412  -12.6227   18.4877 O   0  0  0  0  0  0  0  0  0  0  0  0
  -22.8162  -30.3030   20.9824 O   0  0  0  0  0  0  0  0  0  0  0  0
  -24.1216  -31.9761   24.0956 O   0  0  0  0  0  0  0  0  0  0  0  0
  -28.6369  -30.9518   23.0547 O   0  0  0  0  0  0  0  0  0  0  0  0
  -30.6680  -21.2406   23.2049 O   0  0  0  0  0  0  0  0  0  0  0  0
  -26.9074  -25.2947   19.6846 O   0  0  0  0  0  0  0  0  0  1  0  0
  -23.1368  -11.7889   21.0443 O   0  0  0  0  0  0  0  0  0  0  0  0
  -22.9960   -6.2798   21.2297 F   0  0  0  0  0  0  0  0  0  0  0  0
  -21.9502  -10.4710   23.1651 F   0  0  0  0  0  0  0  0  0  0  0  0
  1  2  1  0  0  0  0
  1  5  2  0  0  0  0
  2  6  2  0  0  0  0
  3 10  2  0  0  0  0
  3 19  1  0  0  0  0
  4 11  1  0  0  0  0
  4 19  2  0  0  0  0
  5 21  1  0  0  0  0
  6 23  1  0  0  0  0
  7 12  2  0  0  0  0
  7 22  1  0  0  0  0
  8 13  2  0  0  0  0
  8 25  1  0  0  0  0
  9 14  1  0  0  0  0
  9 25  2  0  0  0  0
 10 26  1  0  0  0  0
 11 26  2  0  0  0  0
 12 28  1  0  0  0  0
 13 27  1  0  0  0  0
 14 27  2  0  0  0  0
 15 16  2  0  0  0  0
 15 29  1  0  0  0  0
 16 30  1  0  0  0  0
 17 24  1  0  0  0  0
 17 28  2  0  0  0  0
 18 30  2  0  0  0  0
 18 31  1  0  0  0  0
 19 32  1  0  0  0  0
 20 32  1  0  0  0  0
 20 33  2  0  0  0  0
 20 34  1  0  0  0  0
 21 23  2  0  0  0  0
 21 39  1  0  0  0  0
 22 24  2  0  0  0  0
 22 40  1  0  0  0  0
 23 48  1  0  0  0  0
 24 41  1  0  0  0  0
 25 65  1  0  0  0  0
 26 75  1  0  0  0  0
 27 74  1  0  0  0  0
 28 74  1  0  0  0  0
 29 31  2  0  0  0  0
 29 75  1  0  0  0  0
 30 76  1  0  0  0  0
 31 77  1  0  0  0  0
 32 59  2  0  0  0  0
 33 60  1  0  0  0  0
 33 63  1  0  0  0  0
 34 64  1  0  0  0  0
 34 69  2  0  0  0  0
 35 49  1  0  0  0  0
 35 66  1  0  0  0  0
 35 70  2  0  0  0  0
 36 56  1  0  0  0  0
 36 61  1  0  0  0  0
 36 71  2  0  0  0  0
 37 57  1  0  0  0  0
 37 67  1  0  0  0  0
 37 72  2  0  0  0  0
 38 62  1  0  0  0  0
 38 65  1  0  0  0  0
 38 73  2  0  0  0  0
 39 42  1  0  0  0  0
 40 49  1  0  0  0  0
 41 61  1  0  0  0  0
 42 44  1  0  0  0  0
 43 45  1  0  0  0  0
 43 46  1  0  0  0  0
 44 48  1  0  0  0  0
 45 50  1  0  0  0  0
 46 62  1  0  0  0  0
 47 50  1  0  0  0  0
 47 62  1  0  0  0  0
 48 66  1  0  0  0  0
 49 61  1  0  0  0  0
 50 60  1  0  0  0  0
 51 57  1  0  0  0  0
 52 58  1  0  0  0  0
 53 58  1  0  0  0  0
 54 58  1  0  0  0  0
 55 68  1  0  0  0  0
 56 58  1  0  0  0  0
 56 67  1  0  0  0  0
 57 68  1  0  0  0  0
 59 60  1  0  0  0  0
M  CHG  1  68   1
M  ISO  4  27 101  38 100  65 100  74 101
M  END
> <Batch ID>
0001

> <Smiles>
CNC(C)C(=O)NC(C(=O)N1Cc2cc([101O:1][101c:1]3ccc([100NH:0][100C:0](=O)N4CCCC(n5nc(-c6ccc(Oc7ccc(F)cc7F)cc6)c(C(N)=O)c5N)C4)cc3)ccc2CC1C(=O)NC1CCCc2ccccc21)C(C)(C)C

> <Shape>
0.307

> <Color>
0.082

> <Negative vol penalty>
0.000

$$$$

  -OEChem-04042320143D

 94103  0     1  0  0  0  0  0999 V2000
  -22.4743  -10.8295   21.2074 C   0  0  0  0  0  0  0  0  0  0  0  0
  -28.5268  -32.0662   26.7250 C   0  0  0  0  0  0  0  0  0  0  0  0
  -28.4043  -30.7661   26.2453 C   0  0  0  0  0  0  0  0  0  0  0  0
  -24.9164  -10.7720   21.3194 C   0  0  0  0  0  0  0  0  0  0  0  0
  -31.5722  -20.4447   18.4152 C   0  0  0  0  0  0  0  0  0  0  0  0
  -29.2353  -20.5065   19.0249 C   0  0  0  0  0  0  0  0  0  0  0  0
  -25.3756  -19.2932   21.0993 C   0  0  0  0  0  0  0  0  0  0  0  0
  -26.5948  -17.5374   22.2253 C   0  0  0  0  0  0  0  0  0  0  0  0
  -27.4519  -32.9487   26.6261 C   0  0  0  0  0  0  0  0  0  0  0  0
  -27.2063  -30.3473   25.6675 C   0  0  0  0  0  0  0  0  0  0  0  0
  -27.9216  -27.7404   21.3853 C   0  0  0  0  0  0  0  0  0  0  0  0
  -25.7129  -20.1820   22.1200 C   0  0  0  0  0  0  0  0  0  0  0  0
  -26.9322  -18.4262   23.2460 C   0  0  0  0  0  0  0  0  0  0  0  0
  -26.1559  -11.3644   21.0782 C   0  0  0  0  0  0  0  0  0  0  0  0
  -31.3472  -21.4287   17.4526 C   0  0  0  0  0  0  0  0  0  0  0  0
  -29.0102  -21.4907   18.0624 C   0  0  0  0  0  0  0  0  0  0  0  0
  -28.3188  -26.4097   21.5088 C   0  0  0  0  0  0  0  0  0  0  0  0
  -31.4594  -24.1826   15.0823 C   0  0  0  0  0  0  0  0  0  0  0  0
  -32.3712  -25.2354   15.0056 C   0  0  0  0  0  0  0  0  0  0  0  0
  -23.8109  -12.6953   20.3622 C   0  0  0  0  0  0  0  0  0  0  0  0
  -26.0451  -25.7016   21.1243 C   0  0  0  0  0  0  0  0  0  0  0  0
  -31.8655  -25.8396   17.2896 C   0  0  0  0  0  0  0  0  0  0  0  0
  -23.7439  -11.4374   20.9613 C   0  0  0  0  0  0  0  0  0  0  0  0
  -30.5162  -19.9835   19.2013 C   0  0  0  0  0  0  0  0  0  0  0  0
  -25.8165  -17.9708   21.1520 C   0  0  0  0  0  0  0  0  0  0  0  0
  -31.1046  -19.1610   21.5433 C   0  0  0  0  0  0  0  0  0  0  0  0
  -26.2434  -32.5434   26.0381 C   0  0  0  0  0  0  0  0  0  0  0  0
  -26.5789  -28.0626   21.1408 C   0  0  0  0  0  0  0  0  0  0  0  0
  -26.1137  -31.2248   25.5619 C   0  0  0  0  0  0  0  0  0  0  0  0
  -25.6339  -27.0370   20.9956 C   0  0  0  0  0  0  0  0  0  0  0  0
  -26.4912  -19.7486   23.1933 C   0  0  0  0  0  0  0  0  0  0  0  0
  -25.0505  -13.2877   20.1211 C   0  0  0  0  0  0  0  0  0  0  0  0
  -26.2230  -12.6223   20.4791 C   0  0  0  0  0  0  0  0  0  0  0  0
  -30.0662  -21.9518   17.2762 C   0  0  0  0  0  0  0  0  0  0  0  0
  -27.3800  -25.3901   21.3812 C   0  0  0  0  0  0  0  0  0  0  0  0
  -30.7506  -23.9583   16.2625 C   0  0  0  0  0  0  0  0  0  0  0  0
  -32.5743  -26.0638   16.1093 C   0  0  0  0  0  0  0  0  0  0  0  0
  -30.9536  -24.7868   17.3661 C   0  0  0  0  0  0  0  0  0  0  0  0
  -30.7480  -18.9666   20.1954 C   0  0  0  0  0  0  0  0  0  0  0  0
  -31.2045  -17.8917   22.0585 C   0  0  0  0  0  0  0  0  0  0  0  0
  -25.4658  -17.0433   20.0880 C   0  0  0  0  0  0  0  0  0  0  0  0
  -31.3257  -20.3799   22.2651 C   0  0  0  0  0  0  0  0  0  0  0  0
  -24.3410  -29.6878   22.7075 C   0  0  0  0  0  0  0  0  0  0  0  0
  -22.6301  -29.1842   19.9980 C   0  0  0  0  0  0  0  0  0  0  0  0
  -22.1202  -27.2938   17.2028 C   0  0  0  0  0  0  0  0  0  0  0  0
  -28.7411  -12.6639   20.5398 C   0  0  0  0  0  0  0  0  0  0  0  0
  -27.7080  -23.5727   22.8107 C   0  0  0  0  0  0  0  0  0  1  0  0
  -25.0935  -33.5186   25.9963 C   0  0  0  0  0  0  0  0  0  0  0  0
  -26.1714  -29.5019   20.9837 C   0  0  0  0  0  0  0  0  0  0  0  0
  -24.1837  -27.3293   20.7127 C   0  0  0  0  0  0  0  0  0  0  0  0
  -23.9833  -33.1101   25.0315 C   0  0  0  0  0  0  0  0  0  0  0  0
  -32.2187  -13.3939   20.7642 C   0  0  0  0  0  0  0  0  0  0  0  0
  -23.6328  -31.6368   25.2138 C   0  0  0  0  0  0  0  0  0  0  0  0
  -32.2683  -14.9235   20.7726 C   0  0  0  0  0  0  0  0  0  0  0  0
  -31.1182  -12.8672   19.8448 C   0  0  0  0  0  0  0  0  0  0  0  0
  -29.8315  -14.9521   20.1030 C   0  0  0  0  0  0  0  0  0  0  0  0
  -24.8387  -30.7407   24.9062 C   0  0  1  0  0  0  0  0  0  0  0  0
  -24.6866  -29.7345   21.2459 C   0  0  1  0  0  0  0  0  0  0  0  0
  -30.8821  -15.5306   21.0649 C   0  0  2  0  0  0  0  0  0  0  0  0
  -20.6228  -27.1061   15.1977 C   0  0  0  0  0  0  0  0  0  0  0  0
  -20.4270  -28.0150   21.7557 C   0  0  0  0  0  0  0  0  0  0  0  0
  -19.4185  -27.0045   19.6990 C   0  0  0  0  0  0  0  0  0  0  0  0
  -19.6135  -29.4831   19.9017 C   0  0  0  0  0  0  0  0  0  0  0  0
  -24.3820  -27.6774   15.3330 C   0  0  0  0  0  0  0  0  0  0  0  0
  -26.8568  -20.7108   24.2967 C   0  0  0  0  0  0  0  0  0  0  0  0
  -25.0932  -14.6417   19.4736 C   0  0  0  0  0  0  0  0  0  0  0  0
  -28.1656  -21.4510   24.0320 C   0  0  0  0  0  0  0  0  0  0  0  0
  -21.6958  -28.1040   19.5088 C   0  0  1  0  0  0  0  0  0  0  0  0
  -21.9190  -27.6799   15.7485 C   0  0  2  0  0  0  0  0  0  0  0  0
  -20.3156  -28.1459   20.2235 C   0  0  0  0  0  0  0  0  0  0  0  0
  -21.4432  -10.3358   21.4074 N   0  0  0  0  0  0  0  0  0  0  0  0
  -30.6295  -17.6755   19.8744 N   0  0  0  0  0  0  0  0  0  0  0  0
  -30.9134  -17.0471   21.0280 N   0  0  0  0  0  0  0  0  0  0  0  0
  -23.8333  -28.7524   20.5738 N   0  0  0  0  0  0  0  0  0  0  0  0
  -29.8333  -13.4829   20.1833 N   0  0  0  0  0  0  0  0  0  0  0  0
  -31.5123  -17.4269   23.2880 N   0  0  0  0  0  0  0  0  0  0  0  0
  -31.1807  -21.5958   21.5833 N   0  0  0  0  0  0  0  0  0  0  0  0
  -27.4918  -13.2063   20.2406 N   0  0  0  0  0  0  0  0  0  0  0  0
  -25.4046  -15.6857   20.4232 N   0  0  0  0  0  0  0  0  0  0  0  0
  -25.0214  -30.6127   23.4763 N   0  0  0  0  0  0  0  0  0  0  0  0
  -21.6228  -28.2530   18.0594 N   0  0  0  0  0  0  0  0  0  0  0  0
  -28.1151  -22.2547   22.8326 N   0  0  0  0  0  0  0  0  0  0  0  0
  -23.0477  -27.1737   14.9173 N   0  3  0  0  0  0  0  0  0  0  0  0
  -25.2542  -17.4570   18.9343 O   0  0  0  0  0  0  0  0  0  0  0  0
  -31.6583  -20.3901   23.4746 O   0  0  0  0  0  0  0  0  0  0  0  0
  -23.5170  -28.8739   23.1077 O   0  0  0  0  0  0  0  0  0  0  0  0
  -22.3075  -30.3676   19.8672 O   0  0  0  0  0  0  0  0  0  0  0  0
  -22.6608  -26.2443   17.5447 O   0  0  0  0  0  0  0  0  0  0  0  0
  -28.9014  -11.5745   21.0962 O   0  0  0  0  0  0  0  0  0  0  0  0
  -27.3419  -24.2246   23.7841 O   0  0  0  0  0  0  0  0  0  0  0  0
  -29.8463  -22.9122   16.3372 O   0  0  0  0  0  0  0  0  0  0  0  0
  -27.7649  -24.0905   21.5019 O   0  0  0  0  0  0  0  0  0  1  0  0
  -33.4510  -27.0738   16.0361 F   0  0  0  0  0  0  0  0  0  0  0  0
  -30.2765  -24.5755   18.5031 F   0  0  0  0  0  0  0  0  0  0  0  0
  1 23  1  0  0  0  0
  1 71  3  0  0  0  0
  2  3  1  0  0  0  0
  2  9  2  0  0  0  0
  3 10  2  0  0  0  0
  4 14  2  0  0  0  0
  4 23  1  0  0  0  0
  5 15  2  0  0  0  0
  5 24  1  0  0  0  0
  6 16  1  0  0  0  0
  6 24  2  0  0  0  0
  7 12  2  0  0  0  0
  7 25  1  0  0  0  0
  8 13  1  0  0  0  0
  8 25  2  0  0  0  0
  9 27  1  0  0  0  0
 10 29  1  0  0  0  0
 11 17  2  0  0  0  0
 11 28  1  0  0  0  0
 12 31  1  0  0  0  0
 13 31  2  0  0  0  0
 14 33  1  0  0  0  0
 15 34  1  0  0  0  0
 16 34  2  0  0  0  0
 17 35  1  0  0  0  0
 18 19  2  0  0  0  0
 18 36  1  0  0  0  0
 19 37  1  0  0  0  0
 20 23  2  0  0  0  0
 20 32  1  0  0  0  0
 21 30  1  0  0  0  0
 21 35  2  0  0  0  0
 22 37  2  0  0  0  0
 22 38  1  0  0  0  0
 24 39  1  0  0  0  0
 25 41  1  0  0  0  0
 26 39  1  0  0  0  0
 26 40  2  0  0  0  0
 26 42  1  0  0  0  0
 27 29  2  0  0  0  0
 27 48  1  0  0  0  0
 28 30  2  0  0  0  0
 28 49  1  0  0  0  0
 29 57  1  0  0  0  0
 30 50  1  0  0  0  0
 31 65  1  0  0  0  0
 32 33  2  0  0  0  0
 32 66  1  0  0  0  0
 33 78  1  0  0  0  0
 34 91  1  0  0  0  0
 35 92  1  0  0  0  0
 36 38  2  0  0  0  0
 36 91  1  0  0  0  0
 37 93  1  0  0  0  0
 38 94  1  0  0  0  0
 39 72  2  0  0  0  0
 40 73  1  0  0  0  0
 40 76  1  0  0  0  0
 41 79  1  0  0  0  0
 41 84  2  0  0  0  0
 42 77  1  0  0  0  0
 42 85  2  0  0  0  0
 43 58  1  0  0  0  0
 43 80  1  0  0  0  0
 43 86  2  0  0  0  0
 44 68  1  0  0  0  0
 44 74  1  0  0  0  0
 44 87  2  0  0  0  0
 45 69  1  0  0  0  0
 45 81  1  0  0  0  0
 45 88  2  0  0  0  0
 46 75  1  0  0  0  0
 46 78  1  0  0  0  0
 46 89  2  0  0  0  0
 47 82  1  0  0  0  0
 47 90  2  0  0  0  0
 47 92  1  0  0  0  0
 48 51  1  0  0  0  0
 49 58  1  0  0  0  0
 50 74  1  0  0  0  0
 51 53  1  0  0  0  0
 52 54  1  0  0  0  0
 52 55  1  0  0  0  0
 53 57  1  0  0  0  0
 54 59  1  0  0  0  0
 55 75  1  0  0  0  0
 56 59  1  0  0  0  0
 56 75  1  0  0  0  0
 57 80  1  0  0  0  0
 58 74  1  0  0  0  0
 59 73  1  0  0  0  0
 60 69  1  0  0  0  0
 61 70  1  0  0  0  0
 62 70  1  0  0  0  0
 63 70  1  0  0  0  0
 64 83  1  0  0  0  0
 65 67  1  0  0  0  0
 66 79  1  0  0  0  0
 67 82  1  0  0  0  0
 68 70  1  0  0  0  0
 68 81  1  0  0  0  0
 69 83  1  0  0  0  0
 72 73  1  0  0  0  0
M  CHG  1  83   1
M  ISO  4  46 100  47 101  78 100  92 101
M  END
> <Batch ID>
0001

> <Smiles>
CNC(C)C(=O)NC(C(=O)N1Cc2cc([101O:1][101C:1](=O)NCCc3ccc(C(=O)NCc4cc(C#N)ccc4[100NH:0][100C:0](=O)N4CCCC(n5nc(-c6ccc(Oc7ccc(F)cc7F)cc6)c(C(N)=O)c5N)C4)cc3)ccc2CC1C(=O)NC1CCCc2ccccc21)C(C)(C)C

> <Shape>
0.269

> <Color>
0.065

> <Negative vol penalty>
0.000

$$$$

  -OEChem-04042320143D

 82 90  0     1  0  0  0  0  0999 V2000
  -27.5095  -23.4483   18.3293 C   0  0  0  0  0  0  0  0  0  0  0  0
  -26.4307  -23.7745   19.1449 C   0  0  0  0  0  0  0  0  0  0  0  0
  -26.7034  -13.1660   20.0642 C   0  0  0  0  0  0  0  0  0  0  0  0
  -24.6179  -13.6471   21.1851 C   0  0  0  0  0  0  0  0  0  0  0  0
  -28.7371  -24.0835   18.5119 C   0  0  0  0  0  0  0  0  0  0  0  0
  -26.5792  -24.7354   20.1444 C   0  0  0  0  0  0  0  0  0  0  0  0
  -22.7120  -28.0017   20.2892 C   0  0  0  0  0  0  0  0  0  0  0  0
  -22.4256  -21.8347   25.2404 C   0  0  0  0  0  0  0  0  0  0  0  0
  -24.0597  -23.6104   25.1229 C   0  0  0  0  0  0  0  0  0  0  0  0
  -23.4201  -20.9003   24.9517 C   0  0  0  0  0  0  0  0  0  0  0  0
  -25.0543  -22.6759   24.8342 C   0  0  0  0  0  0  0  0  0  0  0  0
  -26.5356  -11.8080   20.3347 C   0  0  0  0  0  0  0  0  0  0  0  0
  -24.4501  -12.2891   21.4556 C   0  0  0  0  0  0  0  0  0  0  0  0
  -21.5331  -27.5664   20.8930 C   0  0  0  0  0  0  0  0  0  0  0  0
  -23.4360   -9.5267   19.7939 C   0  0  0  0  0  0  0  0  0  0  0  0
  -22.1756   -8.9735   19.5685 C   0  0  0  0  0  0  0  0  0  0  0  0
  -22.1310  -28.7564   22.9044 C   0  0  0  0  0  0  0  0  0  0  0  0
  -22.0301   -8.3551   21.8995 C   0  0  0  0  0  0  0  0  0  0  0  0
  -25.7446  -14.0856   20.4894 C   0  0  0  0  0  0  0  0  0  0  0  0
  -25.4697  -16.1916   19.0762 C   0  0  0  0  0  0  0  0  0  0  0  0
  -28.8981  -25.0597   19.5079 C   0  0  0  0  0  0  0  0  0  0  0  0
  -23.6160  -28.8101   20.9934 C   0  0  0  0  0  0  0  0  0  0  0  0
  -27.8105  -25.3834   20.3414 C   0  0  0  0  0  0  0  0  0  0  0  0
  -23.3194  -29.2027   22.3064 C   0  0  0  0  0  0  0  0  0  0  0  0
  -22.7454  -23.1898   25.3260 C   0  0  0  0  0  0  0  0  0  0  0  0
  -24.7344  -21.3209   24.7486 C   0  0  0  0  0  0  0  0  0  0  0  0
  -25.4089  -11.3695   21.0304 C   0  0  0  0  0  0  0  0  0  0  0  0
  -21.2439  -27.9413   22.2017 C   0  0  0  0  0  0  0  0  0  0  0  0
  -23.9936   -9.4941   21.0721 C   0  0  0  0  0  0  0  0  0  0  0  0
  -21.4726   -8.3877   20.6213 C   0  0  0  0  0  0  0  0  0  0  0  0
  -23.2906   -8.9083   22.1249 C   0  0  0  0  0  0  0  0  0  0  0  0
  -25.9176  -15.4886   20.2107 C   0  0  0  0  0  0  0  0  0  0  0  0
  -25.8813  -17.4846   19.2888 C   0  0  0  0  0  0  0  0  0  0  0  0
  -24.7463  -15.7181   17.9325 C   0  0  0  0  0  0  0  0  0  0  0  0
  -26.6362  -28.5031   21.9354 C   0  0  0  0  0  0  0  0  0  0  0  0
  -26.2561  -31.5919   22.8504 C   0  0  0  0  0  0  0  0  0  0  0  0
  -24.1337  -34.0998   23.7739 C   0  0  0  0  0  0  0  0  0  0  0  0
  -27.0977  -20.6217   24.2268 C   0  0  0  0  0  0  0  0  0  0  0  0
  -30.2572  -25.6851   19.6984 C   0  0  0  0  0  0  0  0  0  0  0  0
  -24.8705  -29.2933   20.3187 C   0  0  0  0  0  0  0  0  0  0  0  0
  -24.2471  -30.0860   23.0986 C   0  0  0  0  0  0  0  0  0  0  0  0
  -30.2285  -26.9616   20.5350 C   0  0  0  0  0  0  0  0  0  0  0  0
  -29.2987  -20.0119   21.4953 C   0  0  0  0  0  0  0  0  0  0  0  0
  -29.3793  -26.7608   21.7861 C   0  0  0  0  0  0  0  0  0  0  0  0
  -28.6375  -18.8507   20.7493 C   0  0  0  0  0  0  0  0  0  0  0  0
  -29.1330  -19.8815   23.0084 C   0  0  0  0  0  0  0  0  0  0  0  0
  -27.0894  -18.5359   22.7219 C   0  0  0  0  0  0  0  0  0  0  0  0
  -27.9254  -26.4383   21.4202 C   0  0  1  0  0  0  0  0  0  0  0  0
  -25.9645  -29.6902   21.3052 C   0  0  1  0  0  0  0  0  0  0  0  0
  -27.1738  -18.6572   21.1916 C   0  0  2  0  0  0  0  0  0  0  0  0
  -24.1204  -36.5023   24.4985 C   0  0  0  0  0  0  0  0  0  0  0  0
  -27.2219  -30.7588   25.6223 C   0  0  0  0  0  0  0  0  0  0  0  0
  -26.2991  -32.9087   26.5136 C   0  0  0  0  0  0  0  0  0  0  0  0
  -28.1267  -32.9465   24.8163 C   0  0  0  0  0  0  0  0  0  0  0  0
  -22.5048  -34.9150   21.4413 C   0  0  0  0  0  0  0  0  0  0  0  0
  -21.6755  -24.1948   25.6366 C   0  0  0  0  0  0  0  0  0  0  0  0
  -18.8144  -25.6288   23.5345 C   0  0  0  0  0  0  0  0  0  0  0  0
  -19.6683  -25.4051   24.7735 C   0  0  0  0  0  0  0  0  0  0  0  0
  -19.5731  -26.2574   22.3722 C   0  0  0  0  0  0  0  0  0  1  0  0
  -25.7914  -32.2848   24.1086 C   0  0  1  0  0  0  0  0  0  0  0  0
  -24.0242  -35.5446   23.3211 C   0  0  2  0  0  0  0  0  0  0  0  0
  -26.8430  -32.2064   25.2512 C   0  0  0  0  0  0  0  0  0  0  0  0
  -26.5643  -16.2703   21.0795 N   0  0  0  0  0  0  0  0  0  0  0  0
  -26.5259  -17.4777   20.4908 N   0  0  0  0  0  0  0  0  0  0  0  0
  -25.4641  -30.5274   22.3974 N   0  0  0  0  0  0  0  0  0  0  0  0
  -27.7206  -19.7054   23.3532 N   0  0  0  0  0  0  0  0  0  0  0  0
  -25.7512  -18.6154   18.5630 N   0  0  0  0  0  0  0  0  0  0  0  0
  -24.4027  -14.3605   17.8743 N   0  0  0  0  0  0  0  0  0  0  0  0
  -25.7450  -20.3719   24.4556 N   0  0  0  0  0  0  0  0  0  0  0  0
  -27.2239  -27.6420   21.0285 N   0  0  0  0  0  0  0  0  0  0  0  0
  -25.4339  -33.6441   23.7178 N   0  0  0  0  0  0  0  0  0  0  0  0
  -22.7224  -35.7746   22.6332 N   0  3  0  0  0  0  0  0  0  0  0  0
  -20.7751  -24.4642   24.4815 N   0  3  0  0  0  0  0  0  0  0  0  0
  -24.4287  -16.4730   16.9824 O   0  0  0  0  0  0  0  0  0  0  0  0
  -26.6236  -28.3785   23.1545 O   0  0  0  0  0  0  0  0  0  0  0  0
  -27.2801  -31.9855   22.2863 O   0  0  0  0  0  0  0  0  0  0  0  0
  -23.1635  -33.4424   24.1441 O   0  0  0  0  0  0  0  0  0  0  0  0
  -27.7119  -21.5747   24.7132 O   0  0  0  0  0  0  0  0  0  0  0  0
  -25.2447  -10.0444   21.2944 O   0  0  0  0  0  0  0  0  0  0  0  0
  -20.0942  -27.5173   22.7937 O   0  0  0  0  0  0  0  0  0  1  0  0
  -20.2616   -7.8579   20.4050 F   0  0  0  0  0  0  0  0  0  0  0  0
  -23.8206   -8.8750   23.3553 F   0  0  0  0  0  0  0  0  0  0  0  0
  1  2  1  0  0  0  0
  1  5  2  0  0  0  0
  2  6  2  0  0  0  0
  3 12  2  0  0  0  0
  3 19  1  0  0  0  0
  4 13  1  0  0  0  0
  4 19  2  0  0  0  0
  5 21  1  0  0  0  0
  6 23  1  0  0  0  0
  7 14  2  0  0  0  0
  7 22  1  0  0  0  0
  8 10  2  0  0  0  0
  8 25  1  0  0  0  0
  9 11  1  0  0  0  0
  9 25  2  0  0  0  0
 10 26  1  0  0  0  0
 11 26  2  0  0  0  0
 12 27  1  0  0  0  0
 13 27  2  0  0  0  0
 14 28  1  0  0  0  0
 15 16  2  0  0  0  0
 15 29  1  0  0  0  0
 16 30  1  0  0  0  0
 17 24  1  0  0  0  0
 17 28  2  0  0  0  0
 18 30  2  0  0  0  0
 18 31  1  0  0  0  0
 19 32  1  0  0  0  0
 20 32  1  0  0  0  0
 20 33  2  0  0  0  0
 20 34  1  0  0  0  0
 21 23  2  0  0  0  0
 21 39  1  0  0  0  0
 22 24  2  0  0  0  0
 22 40  1  0  0  0  0
 23 48  1  0  0  0  0
 24 41  1  0  0  0  0
 25 56  1  0  0  0  0
 26 69  1  0  0  0  0
 27 79  1  0  0  0  0
 28 80  1  0  0  0  0
 29 31  2  0  0  0  0
 29 79  1  0  0  0  0
 30 81  1  0  0  0  0
 31 82  1  0  0  0  0
 32 63  2  0  0  0  0
 33 64  1  0  0  0  0
 33 67  1  0  0  0  0
 34 68  1  0  0  0  0
 34 74  2  0  0  0  0
 35 49  1  0  0  0  0
 35 70  1  0  0  0  0
 35 75  2  0  0  0  0
 36 60  1  0  0  0  0
 36 65  1  0  0  0  0
 36 76  2  0  0  0  0
 37 61  1  0  0  0  0
 37 71  1  0  0  0  0
 37 77  2  0  0  0  0
 38 66  1  0  0  0  0
 38 69  1  0  0  0  0
 38 78  2  0  0  0  0
 39 42  1  0  0  0  0
 40 49  1  0  0  0  0
 41 65  1  0  0  0  0
 42 44  1  0  0  0  0
 43 45  1  0  0  0  0
 43 46  1  0  0  0  0
 44 48  1  0  0  0  0
 45 50  1  0  0  0  0
 46 66  1  0  0  0  0
 47 50  1  0  0  0  0
 47 66  1  0  0  0  0
 48 70  1  0  0  0  0
 49 65  1  0  0  0  0
 50 64  1  0  0  0  0
 51 61  1  0  0  0  0
 52 62  1  0  0  0  0
 53 62  1  0  0  0  0
 54 62  1  0  0  0  0
 55 72  1  0  0  0  0
 56 73  1  0  0  0  0
 57 58  1  0  0  0  0
 57 59  1  0  0  0  0
 58 73  1  0  0  0  0
 59 80  1  0  0  0  0
 60 62  1  0  0  0  0
 60 71  1  0  0  0  0
 61 72  1  0  0  0  0
 63 64  1  0  0  0  0
M  CHG  2  72   1  73   1
M  ISO  4  38 100  59 101  69 100  80 101
M  END
> <Batch ID>
0001

> <Smiles>
CNC(C)C(=O)NC(C(=O)N1Cc2cc([101O:1][101CH2:1]CCNCc3ccc([100NH:0][100C:0](=O)N4CCCC(n5nc(-c6ccc(Oc7ccc(F)cc7F)cc6)c(C(N)=O)c5N)C4)cc3)ccc2CC1C(=O)NC1CCCc2ccccc21)C(C)(C)C

> <Shape>
0.281

> <Color>
0.063

> <Negative vol penalty>
0.000

$$$$

  -OEChem-04042320143D

 83 92  0     1  0  0  0  0  0999 V2000
  -26.7739  -31.6126   27.3735 C   0  0  0  0  0  0  0  0  0  0  0  0
  -27.4346  -30.6311   26.6417 C   0  0  0  0  0  0  0  0  0  0  0  0
  -31.7079  -21.1803   17.2185 C   0  0  0  0  0  0  0  0  0  0  0  0
  -22.8633  -11.2700   20.8606 C   0  0  0  0  0  0  0  0  0  0  0  0
  -23.7854   -9.1173   21.4546 C   0  0  0  0  0  0  0  0  0  0  0  0
  -25.4019  -31.7979   27.2093 C   0  0  0  0  0  0  0  0  0  0  0  0
  -26.7234  -29.8336   25.7460 C   0  0  0  0  0  0  0  0  0  0  0  0
  -31.3470  -20.0538   17.9577 C   0  0  0  0  0  0  0  0  0  0  0  0
  -28.7287  -27.6075   20.4047 C   0  0  0  0  0  0  0  0  0  0  0  0
  -31.3609  -22.4528   17.6722 C   0  0  0  0  0  0  0  0  0  0  0  0
  -21.6612  -10.6574   20.5066 C   0  0  0  0  0  0  0  0  0  0  0  0
  -22.5832   -8.5047   21.1007 C   0  0  0  0  0  0  0  0  0  0  0  0
  -29.2382  -26.3622   20.0395 C   0  0  0  0  0  0  0  0  0  0  0  0
  -18.9364   -9.4223   22.0823 C   0  0  0  0  0  0  0  0  0  0  0  0
  -17.7527  -10.0150   22.5218 C   0  0  0  0  0  0  0  0  0  0  0  0
  -30.2920  -21.4725   19.6044 C   0  0  0  0  0  0  0  0  0  0  0  0
  -27.0460  -25.6925   19.2879 C   0  0  0  0  0  0  0  0  0  0  0  0
  -17.0420  -10.2955   20.2298 C   0  0  0  0  0  0  0  0  0  0  0  0
  -23.9254  -10.4999   21.3345 C   0  0  0  0  0  0  0  0  0  0  0  0
  -25.5260  -11.6344   22.9651 C   0  0  0  0  0  0  0  0  0  0  0  0
  -30.6391  -20.1999   19.1507 C   0  0  0  0  0  0  0  0  0  0  0  0
  -24.6751  -31.0087   26.3040 C   0  0  0  0  0  0  0  0  0  0  0  0
  -27.3695  -27.9013   20.2240 C   0  0  0  0  0  0  0  0  0  0  0  0
  -25.3400  -30.0076   25.5704 C   0  0  0  0  0  0  0  0  0  0  0  0
  -26.5223  -26.9432   19.6493 C   0  0  0  0  0  0  0  0  0  0  0  0
  -30.6530  -22.5989   18.8651 C   0  0  0  0  0  0  0  0  0  0  0  0
  -21.5211   -9.2748   20.6267 C   0  0  0  0  0  0  0  0  0  0  0  0
  -28.3962  -25.4034   19.4837 C   0  0  0  0  0  0  0  0  0  0  0  0
  -19.1729   -9.2662   20.7164 C   0  0  0  0  0  0  0  0  0  0  0  0
  -16.8056  -10.4516   21.5956 C   0  0  0  0  0  0  0  0  0  0  0  0
  -18.2257   -9.7028   19.7902 C   0  0  0  0  0  0  0  0  0  0  0  0
  -25.1677  -11.1320   21.6998 C   0  0  0  0  0  0  0  0  0  0  0  0
  -26.7954  -12.1292   22.7911 C   0  0  0  0  0  0  0  0  0  0  0  0
  -24.7783  -11.6522   24.1883 C   0  0  0  0  0  0  0  0  0  0  0  0
  -24.9584  -28.6427   22.1580 C   0  0  0  0  0  0  0  0  0  0  0  0
  -23.3674  -29.0868   19.3663 C   0  0  0  0  0  0  0  0  0  0  0  0
  -23.0966  -28.3711   16.0404 C   0  0  0  0  0  0  0  0  0  0  0  0
  -30.5934  -14.8869   19.9642 C   0  0  0  0  0  0  0  0  0  0  0  0
  -23.1849  -31.2143   26.1953 C   0  0  0  0  0  0  0  0  0  0  0  0
  -26.8409  -29.2588   20.5984 C   0  0  0  0  0  0  0  0  0  0  0  0
  -25.0596  -27.2161   19.4156 C   0  0  0  0  0  0  0  0  0  0  0  0
  -22.5715  -30.5784   24.9505 C   0  0  0  0  0  0  0  0  0  0  0  0
  -30.0365  -11.6298   18.9495 C   0  0  0  0  0  0  0  0  0  0  0  0
  -23.0871  -29.1542   24.7693 C   0  0  0  0  0  0  0  0  0  0  0  0
  -28.7493  -11.2383   19.6750 C   0  0  0  0  0  0  0  0  0  0  0  0
  -29.2966  -18.0508   19.1733 C   0  0  0  0  0  0  0  0  0  0  0  0
  -31.4784  -18.1922   20.4496 C   0  0  0  0  0  0  0  0  0  0  0  0
  -29.9533  -13.0578   18.4230 C   0  0  0  0  0  0  0  0  0  0  0  0
  -28.9321  -16.8001   19.9784 C   0  0  0  0  0  0  0  0  0  0  0  0
  -31.0525  -16.9582   21.2399 C   0  0  0  0  0  0  0  0  0  0  0  0
  -28.3686  -13.6955   20.2119 C   0  0  0  0  0  0  0  0  0  0  0  0
  -30.2483  -18.9743   19.9549 C   0  0  0  0  0  0  0  0  0  0  0  0
  -24.6076  -29.1390   24.5708 C   0  0  1  0  0  0  0  0  0  0  0  0
  -25.3353  -29.2668   20.8442 C   0  0  1  0  0  0  0  0  0  0  0  0
  -28.4008  -12.2591   20.7727 C   0  0  1  0  0  0  0  0  0  0  0  0
  -21.6728  -28.8537   14.0312 C   0  0  0  0  0  0  0  0  0  0  0  0
  -21.2320  -27.1817   20.4250 C   0  0  0  0  0  0  0  0  0  0  0  0
  -20.3686  -26.9605   18.0854 C   0  0  0  0  0  0  0  0  0  0  0  0
  -20.3396  -29.1825   19.2187 C   0  0  0  0  0  0  0  0  0  0  0  0
  -25.3625  -29.5988   14.5852 C   0  0  0  0  0  0  0  0  0  0  0  0
  -30.2814  -23.9597   19.3499 C   0  0  0  0  0  0  0  0  0  1  0  0
  -22.5444  -28.2100   18.4536 C   0  0  1  0  0  0  0  0  0  0  0  0
  -22.8991  -29.2661   14.8303 C   0  0  2  0  0  0  0  0  0  0  0  0
  -21.1483  -27.8775   19.0517 C   0  0  0  0  0  0  0  0  0  0  0  0
  -26.1315  -11.2930   20.7892 N   0  0  0  0  0  0  0  0  0  0  0  0
  -27.1080  -11.9022   21.4831 N   0  0  0  0  0  0  0  0  0  0  0  0
  -24.5890  -28.5560   19.8041 N   0  0  0  0  0  0  0  0  0  0  0  0
  -29.6171  -13.9958   19.4939 N   0  0  0  0  0  0  0  0  0  0  0  0
  -30.1433  -16.1205   20.4584 N   0  0  0  0  0  0  0  0  0  0  0  0
  -27.6636  -12.7320   23.6310 N   0  0  0  0  0  0  0  0  0  0  0  0
  -23.4893  -11.1018   24.1916 N   0  0  0  0  0  0  0  0  0  0  0  0
  -24.9446  -29.5287   23.2184 N   0  0  0  0  0  0  0  0  0  0  0  0
  -22.4953  -28.8938   17.1658 N   0  0  0  0  0  0  0  0  0  0  0  0
  -24.0886  -29.1968   13.9351 N   0  3  0  0  0  0  0  0  0  0  0  0
  -25.2332  -12.1564   25.2430 O   0  0  0  0  0  0  0  0  0  0  0  0
  -24.6978  -27.4463   22.2059 O   0  0  0  0  0  0  0  0  0  0  0  0
  -22.9453  -30.2044   19.6735 O   0  0  0  0  0  0  0  0  0  0  0  0
  -23.7187  -27.3123   15.9914 O   0  0  0  0  0  0  0  0  0  0  0  0
  -31.7964  -14.5978   19.9449 O   0  0  0  0  0  0  0  0  0  0  0  0
  -20.3482   -8.6768   20.2816 O   0  0  0  0  0  0  0  0  0  0  0  0
  -28.8942  -24.1785   19.1245 O   0  0  0  0  0  0  0  0  0  1  0  0
  -15.6683  -11.0194   22.0179 F   0  0  0  0  0  0  0  0  0  0  0  0
  -18.4468   -9.5545   18.4769 F   0  0  0  0  0  0  0  0  0  0  0  0
  1  2  1  0  0  0  0
  1  6  2  0  0  0  0
  2  7  2  0  0  0  0
  3  8  1  0  0  0  0
  3 10  2  0  0  0  0
  4 11  2  0  0  0  0
  4 19  1  0  0  0  0
  5 12  1  0  0  0  0
  5 19  2  0  0  0  0
  6 22  1  0  0  0  0
  7 24  1  0  0  0  0
  8 21  2  0  0  0  0
  9 13  2  0  0  0  0
  9 23  1  0  0  0  0
 10 26  1  0  0  0  0
 11 27  1  0  0  0  0
 12 27  2  0  0  0  0
 13 28  1  0  0  0  0
 14 15  2  0  0  0  0
 14 29  1  0  0  0  0
 15 30  1  0  0  0  0
 16 21  1  0  0  0  0
 16 26  2  0  0  0  0
 17 25  1  0  0  0  0
 17 28  2  0  0  0  0
 18 30  2  0  0  0  0
 18 31  1  0  0  0  0
 19 32  1  0  0  0  0
 20 32  1  0  0  0  0
 20 33  2  0  0  0  0
 20 34  1  0  0  0  0
 21 52  1  0  0  0  0
 22 24  2  0  0  0  0
 22 39  1  0  0  0  0
 23 25  2  0  0  0  0
 23 40  1  0  0  0  0
 24 53  1  0  0  0  0
 25 41  1  0  0  0  0
 26 61  1  0  0  0  0
 27 80  1  0  0  0  0
 28 81  1  0  0  0  0
 29 31  2  0  0  0  0
 29 80  1  0  0  0  0
 30 82  1  0  0  0  0
 31 83  1  0  0  0  0
 32 65  2  0  0  0  0
 33 66  1  0  0  0  0
 33 70  1  0  0  0  0
 34 71  1  0  0  0  0
 34 75  2  0  0  0  0
 35 54  1  0  0  0  0
 35 72  1  0  0  0  0
 35 76  2  0  0  0  0
 36 62  1  0  0  0  0
 36 67  1  0  0  0  0
 36 77  2  0  0  0  0
 37 63  1  0  0  0  0
 37 73  1  0  0  0  0
 37 78  2  0  0  0  0
 38 68  1  0  0  0  0
 38 69  1  0  0  0  0
 38 79  2  0  0  0  0
 39 42  1  0  0  0  0
 40 54  1  0  0  0  0
 41 67  1  0  0  0  0
 42 44  1  0  0  0  0
 43 45  1  0  0  0  0
 43 48  1  0  0  0  0
 44 53  1  0  0  0  0
 45 55  1  0  0  0  0
 46 49  1  0  0  0  0
 46 52  1  0  0  0  0
 47 50  1  0  0  0  0
 47 52  1  0  0  0  0
 48 68  1  0  0  0  0
 49 69  1  0  0  0  0
 50 69  1  0  0  0  0
 51 55  1  0  0  0  0
 51 68  1  0  0  0  0
 53 72  1  0  0  0  0
 54 67  1  0  0  0  0
 55 66  1  0  0  0  0
 56 63  1  0  0  0  0
 57 64  1  0  0  0  0
 58 64  1  0  0  0  0
 59 64  1  0  0  0  0
 60 74  1  0  0  0  0
 61 81  1  0  0  0  0
 62 64  1  0  0  0  0
 62 73  1  0  0  0  0
 63 74  1  0  0  0  0
 65 66  1  0  0  0  0
M  CHG  1  74   1
M  ISO  4  38 100  61 101  69 100  81 101
M  END
> <Batch ID>
0001

> <Smiles>
CNC(C)C(=O)NC(C(=O)N1Cc2cc([101O:1][101CH2:1]c3cccc(C4CC[100N:0]([100C:0](=O)N5CCCC(n6nc(-c7ccc(Oc8ccc(F)cc8F)cc7)c(C(N)=O)c6N)C5)CC4)c3)ccc2CC1C(=O)NC1CCCc2ccccc21)C(C)(C)C

> <Shape>
0.254

> <Color>
0.091

> <Negative vol penalty>
0.000

$$$$

  -OEChem-04042320143D

 81 89  0     1  0  0  0  0  0999 V2000
  -25.9048   -6.9630   23.0526 C   0  0  0  0  0  0  0  0  0  0  0  0
  -26.6941   -8.0531   22.7004 C   0  0  0  0  0  0  0  0  0  0  0  0
  -21.4994  -30.1621   20.9884 C   0  0  0  0  0  0  0  0  0  0  0  0
  -22.5050  -28.9466   22.8183 C   0  0  0  0  0  0  0  0  0  0  0  0
  -24.5699   -6.9124   22.6532 C   0  0  0  0  0  0  0  0  0  0  0  0
  -26.1492   -9.0928   21.9477 C   0  0  0  0  0  0  0  0  0  0  0  0
  -27.5101  -15.0490   22.3698 C   0  0  0  0  0  0  0  0  0  0  0  0
  -30.7400  -23.4308   19.6692 C   0  0  0  0  0  0  0  0  0  0  0  0
  -28.8009  -23.7377   21.0772 C   0  0  0  0  0  0  0  0  0  0  0  0
  -20.2388  -29.7155   21.3846 C   0  0  0  0  0  0  0  0  0  0  0  0
  -21.2443  -28.5001   23.2145 C   0  0  0  0  0  0  0  0  0  0  0  0
  -28.3530  -15.8735   21.6259 C   0  0  0  0  0  0  0  0  0  0  0  0
  -30.4441  -22.0723   19.5577 C   0  0  0  0  0  0  0  0  0  0  0  0
  -28.5049  -22.3792   20.9657 C   0  0  0  0  0  0  0  0  0  0  0  0
  -19.0299  -26.1280   22.2655 C   0  0  0  0  0  0  0  0  0  0  0  0
  -18.8943  -24.7797   22.5960 C   0  0  0  0  0  0  0  0  0  0  0  0
  -26.4719  -16.5840   20.2933 C   0  0  0  0  0  0  0  0  0  0  0  0
  -18.1925  -25.3963   24.8241 C   0  0  0  0  0  0  0  0  0  0  0  0
  -22.6326  -29.7776   21.7053 C   0  0  0  0  0  0  0  0  0  0  0  0
  -24.5922  -31.4108   21.7144 C   0  0  0  0  0  0  0  0  0  0  0  0
  -24.0058   -7.9565   21.9035 C   0  0  0  0  0  0  0  0  0  0  0  0
  -26.1413  -14.9773   22.0735 C   0  0  0  0  0  0  0  0  0  0  0  0
  -24.8059   -9.0555   21.5368 C   0  0  0  0  0  0  0  0  0  0  0  0
  -25.6133  -15.7597   21.0365 C   0  0  0  0  0  0  0  0  0  0  0  0
  -29.9184  -24.2635   20.4290 C   0  0  0  0  0  0  0  0  0  0  0  0
  -20.1112  -28.8845   22.4976 C   0  0  0  0  0  0  0  0  0  0  0  0
  -29.3265  -21.5465   20.2060 C   0  0  0  0  0  0  0  0  0  0  0  0
  -27.8345  -16.6390   20.5856 C   0  0  0  0  0  0  0  0  0  0  0  0
  -18.7468  -27.1106   23.2144 C   0  0  0  0  0  0  0  0  0  0  0  0
  -18.4756  -24.4138   23.8752 C   0  0  0  0  0  0  0  0  0  0  0  0
  -18.3281  -26.7447   24.4936 C   0  0  0  0  0  0  0  0  0  0  0  0
  -23.9351  -30.2381   21.2962 C   0  0  0  0  0  0  0  0  0  0  0  0
  -25.7906  -31.3907   21.0436 C   0  0  0  0  0  0  0  0  0  0  0  0
  -24.1581  -32.4274   22.6275 C   0  0  0  0  0  0  0  0  0  0  0  0
  -24.1692  -12.6719   21.1253 C   0  0  0  0  0  0  0  0  0  0  0  0
  -21.9108  -14.9587   21.5638 C   0  0  0  0  0  0  0  0  0  0  0  0
  -21.1458  -18.2803   21.7335 C   0  0  0  0  0  0  0  0  0  0  0  0
  -29.0951  -26.9655   18.7310 C   0  0  0  0  0  0  0  0  0  0  0  0
  -22.5711   -7.8350   21.4545 C   0  0  0  0  0  0  0  0  0  0  0  0
  -25.2408  -14.1033   22.9026 C   0  0  0  0  0  0  0  0  0  0  0  0
  -24.1475  -15.7341   20.6913 C   0  0  0  0  0  0  0  0  0  0  0  0
  -21.9682   -9.1540   20.9779 C   0  0  0  0  0  0  0  0  0  0  0  0
  -27.7936  -29.7933   17.0029 C   0  0  0  0  0  0  0  0  0  0  0  0
  -22.9289   -9.8697   20.0337 C   0  0  0  0  0  0  0  0  0  0  0  0
  -26.7164  -30.3338   17.9450 C   0  0  0  0  0  0  0  0  0  0  0  0
  -27.8524  -28.2676   17.0291 C   0  0  0  0  0  0  0  0  0  0  0  0
  -26.9294  -28.2171   19.3137 C   0  0  0  0  0  0  0  0  0  0  0  0
  -24.2444  -10.2145   20.7422 C   0  0  1  0  0  0  0  0  0  0  0  0
  -23.9526  -13.7183   22.1816 C   0  0  1  0  0  0  0  0  0  0  0  0
  -26.8698  -29.7534   19.3638 C   0  0  2  0  0  0  0  0  0  0  0  0
  -19.2093  -19.8413   22.0662 C   0  0  0  0  0  0  0  0  0  0  0  0
  -20.9858  -14.4161   18.7072 C   0  0  0  0  0  0  0  0  0  0  0  0
  -19.7392  -16.5864   18.7728 C   0  0  0  0  0  0  0  0  0  0  0  0
  -19.1362  -14.7554   20.3560 C   0  0  0  0  0  0  0  0  0  0  0  0
  -22.3510  -19.4410   24.1746 C   0  0  0  0  0  0  0  0  0  0  0  0
  -30.2343  -25.7161   20.5477 C   0  0  0  0  0  0  0  0  0  0  0  0
  -30.1360  -19.3292   19.9153 C   0  0  0  0  0  0  0  0  0  0  0  0
  -29.7955  -17.9830   20.5249 C   0  0  0  0  0  0  0  0  0  1  0  0
  -21.2924  -16.0303   20.6988 C   0  0  1  0  0  0  0  0  0  0  0  0
  -20.3379  -19.0777   22.7414 C   0  0  2  0  0  0  0  0  0  0  0  0
  -20.3164  -15.4463   19.6387 C   0  0  0  0  0  0  0  0  0  0  0  0
  -24.6562  -29.5250   20.4270 N   0  0  0  0  0  0  0  0  0  0  0  0
  -25.7788  -30.2518   20.2934 N   0  0  0  0  0  0  0  0  0  0  0  0
  -23.3088  -14.8590   21.5269 N   0  0  0  0  0  0  0  0  0  0  0  0
  -27.9999  -27.7815   18.4031 N   0  0  0  0  0  0  0  0  0  0  0  0
  -26.8427  -32.2365   21.0281 N   0  0  0  0  0  0  0  0  0  0  0  0
  -22.8992  -32.2923   23.2286 N   0  0  0  0  0  0  0  0  0  0  0  0
  -24.0725  -11.3743   21.5906 N   0  0  0  0  0  0  0  0  0  0  0  0
  -20.6790  -16.9886   21.6120 N   0  0  0  0  0  0  0  0  0  0  0  0
  -29.1630  -26.5538   20.0564 N   0  0  0  0  0  0  0  0  0  0  0  0
  -21.2117  -20.0572   23.4471 N   0  3  0  0  0  0  0  0  0  0  0  0
  -24.8587  -33.4343   22.8898 O   0  0  0  0  0  0  0  0  0  0  0  0
  -24.4049  -13.0161   19.9731 O   0  0  0  0  0  0  0  0  0  0  0  0
  -21.1808  -14.2414   22.2524 O   0  0  0  0  0  0  0  0  0  0  0  0
  -22.0937  -18.7568   21.1130 O   0  0  0  0  0  0  0  0  0  0  0  0
  -29.9521  -26.6332   17.9051 O   0  0  0  0  0  0  0  0  0  0  0  0
  -18.8812  -28.4488   22.8846 O   0  0  0  0  0  0  0  0  0  0  0  0
  -29.0353  -20.2123   20.0953 O   0  0  0  0  0  0  0  0  0  0  0  0
  -28.6551  -17.4442   19.8575 O   0  0  0  0  0  0  0  0  0  1  0  0
  -18.3439  -23.1190   24.1919 F   0  0  0  0  0  0  0  0  0  0  0  0
  -18.0536  -27.6841   25.4090 F   0  0  0  0  0  0  0  0  0  0  0  0
  1  2  1  0  0  0  0
  1  5  2  0  0  0  0
  2  6  2  0  0  0  0
  3 10  2  0  0  0  0
  3 19  1  0  0  0  0
  4 11  1  0  0  0  0
  4 19  2  0  0  0  0
  5 21  1  0  0  0  0
  6 23  1  0  0  0  0
  7 12  2  0  0  0  0
  7 22  1  0  0  0  0
  8 13  2  0  0  0  0
  8 25  1  0  0  0  0
  9 14  1  0  0  0  0
  9 25  2  0  0  0  0
 10 26  1  0  0  0  0
 11 26  2  0  0  0  0
 12 28  1  0  0  0  0
 13 27  1  0  0  0  0
 14 27  2  0  0  0  0
 15 16  2  0  0  0  0
 15 29  1  0  0  0  0
 16 30  1  0  0  0  0
 17 24  1  0  0  0  0
 17 28  2  0  0  0  0
 18 30  2  0  0  0  0
 18 31  1  0  0  0  0
 19 32  1  0  0  0  0
 20 32  1  0  0  0  0
 20 33  2  0  0  0  0
 20 34  1  0  0  0  0
 21 23  2  0  0  0  0
 21 39  1  0  0  0  0
 22 24  2  0  0  0  0
 22 40  1  0  0  0  0
 23 48  1  0  0  0  0
 24 41  1  0  0  0  0
 25 56  1  0  0  0  0
 26 77  1  0  0  0  0
 27 78  1  0  0  0  0
 28 79  1  0  0  0  0
 29 31  2  0  0  0  0
 29 77  1  0  0  0  0
 30 80  1  0  0  0  0
 31 81  1  0  0  0  0
 32 62  2  0  0  0  0
 33 63  1  0  0  0  0
 33 66  1  0  0  0  0
 34 67  1  0  0  0  0
 34 72  2  0  0  0  0
 35 49  1  0  0  0  0
 35 68  1  0  0  0  0
 35 73  2  0  0  0  0
 36 59  1  0  0  0  0
 36 64  1  0  0  0  0
 36 74  2  0  0  0  0
 37 60  1  0  0  0  0
 37 69  1  0  0  0  0
 37 75  2  0  0  0  0
 38 65  1  0  0  0  0
 38 70  1  0  0  0  0
 38 76  2  0  0  0  0
 39 42  1  0  0  0  0
 40 49  1  0  0  0  0
 41 64  1  0  0  0  0
 42 44  1  0  0  0  0
 43 45  1  0  0  0  0
 43 46  1  0  0  0  0
 44 48  1  0  0  0  0
 45 50  1  0  0  0  0
 46 65  1  0  0  0  0
 47 50  1  0  0  0  0
 47 65  1  0  0  0  0
 48 68  1  0  0  0  0
 49 64  1  0  0  0  0
 50 63  1  0  0  0  0
 51 60  1  0  0  0  0
 52 61  1  0  0  0  0
 53 61  1  0  0  0  0
 54 61  1  0  0  0  0
 55 71  1  0  0  0  0
 56 70  1  0  0  0  0
 57 58  1  0  0  0  0
 57 78  1  0  0  0  0
 58 79  1  0  0  0  0
 59 61  1  0  0  0  0
 59 69  1  0  0  0  0
 60 71  1  0  0  0  0
 62 63  1  0  0  0  0
M  CHG  1  71   1
M  ISO  4  38 100  58 101  70 100  79 101
M  END
> <Batch ID>
0001

> <Smiles>
CNC(C)C(=O)NC(C(=O)N1Cc2cc([101O:1][101CH2:1]COc3ccc(C[100NH:0][100C:0](=O)N4CCCC(n5nc(-c6ccc(Oc7ccc(F)cc7F)cc6)c(C(N)=O)c5N)C4)cc3)ccc2CC1C(=O)NC1CCCc2ccccc21)C(C)(C)C

> <Shape>
0.269

> <Color>
0.051

> <Negative vol penalty>
0.000

$$$$

  -OEChem-04042320143D

 78 86  0     1  0  0  0  0  0999 V2000
  -26.0607  -12.8913   36.6857 C   0  0  0  0  0  0  0  0  0  0  0  0
  -26.9296  -13.5081   35.7912 C   0  0  0  0  0  0  0  0  0  0  0  0
  -23.1906   -9.8191   19.9320 C   0  0  0  0  0  0  0  0  0  0  0  0
  -23.5684   -9.9997   22.3114 C   0  0  0  0  0  0  0  0  0  0  0  0
  -24.9842  -12.1451   36.2080 C   0  0  0  0  0  0  0  0  0  0  0  0
  -26.7231  -13.3780   34.4183 C   0  0  0  0  0  0  0  0  0  0  0  0
  -27.8407  -17.5868   30.1123 C   0  0  0  0  0  0  0  0  0  0  0  0
  -30.8347  -14.0187   26.1630 C   0  0  0  0  0  0  0  0  0  0  0  0
  -30.9584  -15.4265   24.2035 C   0  0  0  0  0  0  0  0  0  0  0  0
  -22.4244   -8.6724   20.1406 C   0  0  0  0  0  0  0  0  0  0  0  0
  -22.8022   -8.8529   22.5201 C   0  0  0  0  0  0  0  0  0  0  0  0
  -28.9094  -17.7716   29.2362 C   0  0  0  0  0  0  0  0  0  0  0  0
  -30.4265  -15.1140   26.9241 C   0  0  0  0  0  0  0  0  0  0  0  0
  -30.5503  -16.5218   24.9647 C   0  0  0  0  0  0  0  0  0  0  0  0
  -23.2037   -5.5063   22.2563 C   0  0  0  0  0  0  0  0  0  0  0  0
  -23.7020   -4.5451   23.1356 C   0  0  0  0  0  0  0  0  0  0  0  0
  -27.6939  -16.5971   27.5151 C   0  0  0  0  0  0  0  0  0  0  0  0
  -21.7451   -4.8049   24.5286 C   0  0  0  0  0  0  0  0  0  0  0  0
  -23.7626  -10.4828   21.0174 C   0  0  0  0  0  0  0  0  0  0  0  0
  -24.1011  -12.9994   20.7735 C   0  0  0  0  0  0  0  0  0  0  0  0
  -24.7588  -12.0138   34.8286 C   0  0  0  0  0  0  0  0  0  0  0  0
  -26.6930  -16.8951   29.6990 C   0  0  0  0  0  0  0  0  0  0  0  0
  -25.6433  -12.6282   33.9217 C   0  0  0  0  0  0  0  0  0  0  0  0
  -26.6109  -16.4071   28.3870 C   0  0  0  0  0  0  0  0  0  0  0  0
  -31.1006  -14.1749   24.8027 C   0  0  0  0  0  0  0  0  0  0  0  0
  -22.2301   -8.1893   21.4347 C   0  0  0  0  0  0  0  0  0  0  0  0
  -30.2844  -16.3655   26.3250 C   0  0  0  0  0  0  0  0  0  1  0  0
  -28.8373  -17.2742   27.9383 C   0  0  0  0  0  0  0  0  0  0  0  0
  -21.9761   -6.1169   22.5131 C   0  0  0  0  0  0  0  0  0  0  0  0
  -22.9727   -4.1943   24.2718 C   0  0  0  0  0  0  0  0  0  0  0  0
  -21.2468   -5.7662   23.6492 C   0  0  0  0  0  0  0  0  0  0  0  0
  -24.5547  -11.6670   20.8024 C   0  0  0  0  0  0  0  0  0  0  0  0
  -25.2323  -13.7422   20.5384 C   0  0  0  0  0  0  0  0  0  0  0  0
  -22.7758  -13.5192   20.9441 C   0  0  0  0  0  0  0  0  0  0  0  0
  -25.2314  -14.2253   30.6152 C   0  0  0  0  0  0  0  0  0  0  0  0
  -22.9894  -15.1801   28.4742 C   0  0  0  0  0  0  0  0  0  0  0  0
  -22.2329  -17.0020   25.6894 C   0  0  0  0  0  0  0  0  0  0  0  0
  -31.0470  -12.7529   21.5687 C   0  0  0  0  0  0  0  0  0  0  0  0
  -23.6092  -11.1579   34.3592 C   0  0  0  0  0  0  0  0  0  0  0  0
  -25.5379  -16.7275   30.6477 C   0  0  0  0  0  0  0  0  0  0  0  0
  -25.3928  -15.6752   27.8879 C   0  0  0  0  0  0  0  0  0  0  0  0
  -23.2436  -11.3795   32.8937 C   0  0  0  0  0  0  0  0  0  0  0  0
  -29.5201  -13.4700   18.4332 C   0  0  0  0  0  0  0  0  0  0  0  0
  -24.4980  -11.3873   32.0259 C   0  0  0  0  0  0  0  0  0  0  0  0
  -28.0334  -13.2094   18.6823 C   0  0  0  0  0  0  0  0  0  0  0  0
  -30.4013  -12.4807   19.1927 C   0  0  0  0  0  0  0  0  0  0  0  0
  -28.6476  -12.1378   20.8898 C   0  0  0  0  0  0  0  0  0  0  0  0
  -25.4382  -12.5309   32.4255 C   0  0  1  0  0  0  0  0  0  0  0  0
  -24.6275  -15.5598   30.2803 C   0  0  1  0  0  0  0  0  0  0  0  0
  -27.7201  -13.1455   20.1893 C   0  0  2  0  0  0  0  0  0  0  0  0
  -20.3255  -17.5555   24.1556 C   0  0  0  0  0  0  0  0  0  0  0  0
  -23.2397  -12.4308   27.1748 C   0  0  0  0  0  0  0  0  0  0  0  0
  -22.0745  -13.3539   25.1603 C   0  0  0  0  0  0  0  0  0  0  0  0
  -20.8977  -13.2884   27.3588 C   0  0  0  0  0  0  0  0  0  0  0  0
  -22.4045  -19.8867   26.3279 C   0  0  0  0  0  0  0  0  0  0  0  0
  -31.5367  -13.0042   23.9886 C   0  0  0  0  0  0  0  0  0  0  0  0
  -22.7587  -14.9613   26.9985 C   0  0  1  0  0  0  0  0  0  0  0  0
  -21.1014  -17.9705   25.3959 C   0  0  2  0  0  0  0  0  0  0  0  0
  -22.2665  -13.5207   26.6828 C   0  0  0  0  0  0  0  0  0  0  0  0
  -25.8713  -11.5661   20.6015 N   0  0  0  0  0  0  0  0  0  0  0  0
  -26.2547  -12.8445   20.4441 N   0  0  0  0  0  0  0  0  0  0  0  0
  -24.2923  -15.5311   28.8552 N   0  0  0  0  0  0  0  0  0  0  0  0
  -30.0546  -12.4696   20.6159 N   0  0  0  0  0  0  0  0  0  0  0  0
  -25.4421  -15.0691   20.4051 N   0  0  0  0  0  0  0  0  0  0  0  0
  -21.7292  -12.6169   21.1780 N   0  0  0  0  0  0  0  0  0  0  0  0
  -24.9565  -13.7892   31.8973 N   0  0  0  0  0  0  0  0  0  0  0  0
  -21.8439  -16.0131   26.5680 N   0  0  0  0  0  0  0  0  0  0  0  0
  -30.6325  -12.7275   22.8947 N   0  0  0  0  0  0  0  0  0  0  0  0
  -21.6383  -19.3433   25.1770 N   0  3  0  0  0  0  0  0  0  0  0  0
  -22.5245  -14.7462   20.8743 O   0  0  0  0  0  0  0  0  0  0  0  0
  -25.8963  -13.6343   29.7724 O   0  0  0  0  0  0  0  0  0  0  0  0
  -22.0466  -15.0516   29.2593 O   0  0  0  0  0  0  0  0  0  0  0  0
  -23.3492  -17.1097   25.1864 O   0  0  0  0  0  0  0  0  0  0  0  0
  -32.2146  -13.0146   21.2602 O   0  0  0  0  0  0  0  0  0  0  0  0
  -29.8793  -17.4526   27.0814 O   0  0  0  0  0  0  0  0  0  1  0  0
  -21.4823   -7.0705   21.6387 O   0  0  0  0  0  0  0  0  0  0  0  0
  -23.4507   -3.2701   25.1153 F   0  0  0  0  0  0  0  0  0  0  0  0
  -20.0664   -6.3485   23.9006 F   0  0  0  0  0  0  0  0  0  0  0  0
  1  2  1  0  0  0  0
  1  5  2  0  0  0  0
  2  6  2  0  0  0  0
  3 10  2  0  0  0  0
  3 19  1  0  0  0  0
  4 11  1  0  0  0  0
  4 19  2  0  0  0  0
  5 21  1  0  0  0  0
  6 23  1  0  0  0  0
  7 12  2  0  0  0  0
  7 22  1  0  0  0  0
  8 13  2  0  0  0  0
  8 25  1  0  0  0  0
  9 14  1  0  0  0  0
  9 25  2  0  0  0  0
 10 26  1  0  0  0  0
 11 26  2  0  0  0  0
 12 28  1  0  0  0  0
 13 27  1  0  0  0  0
 14 27  2  0  0  0  0
 15 16  2  0  0  0  0
 15 29  1  0  0  0  0
 16 30  1  0  0  0  0
 17 24  1  0  0  0  0
 17 28  2  0  0  0  0
 18 30  2  0  0  0  0
 18 31  1  0  0  0  0
 19 32  1  0  0  0  0
 20 32  1  0  0  0  0
 20 33  2  0  0  0  0
 20 34  1  0  0  0  0
 21 23  2  0  0  0  0
 21 39  1  0  0  0  0
 22 24  2  0  0  0  0
 22 40  1  0  0  0  0
 23 48  1  0  0  0  0
 24 41  1  0  0  0  0
 25 56  1  0  0  0  0
 26 76  1  0  0  0  0
 27 75  1  0  0  0  0
 28 75  1  0  0  0  0
 29 31  2  0  0  0  0
 29 76  1  0  0  0  0
 30 77  1  0  0  0  0
 31 78  1  0  0  0  0
 32 60  2  0  0  0  0
 33 61  1  0  0  0  0
 33 64  1  0  0  0  0
 34 65  1  0  0  0  0
 34 70  2  0  0  0  0
 35 49  1  0  0  0  0
 35 66  1  0  0  0  0
 35 71  2  0  0  0  0
 36 57  1  0  0  0  0
 36 62  1  0  0  0  0
 36 72  2  0  0  0  0
 37 58  1  0  0  0  0
 37 67  1  0  0  0  0
 37 73  2  0  0  0  0
 38 63  1  0  0  0  0
 38 68  1  0  0  0  0
 38 74  2  0  0  0  0
 39 42  1  0  0  0  0
 40 49  1  0  0  0  0
 41 62  1  0  0  0  0
 42 44  1  0  0  0  0
 43 45  1  0  0  0  0
 43 46  1  0  0  0  0
 44 48  1  0  0  0  0
 45 50  1  0  0  0  0
 46 63  1  0  0  0  0
 47 50  1  0  0  0  0
 47 63  1  0  0  0  0
 48 66  1  0  0  0  0
 49 62  1  0  0  0  0
 50 61  1  0  0  0  0
 51 58  1  0  0  0  0
 52 59  1  0  0  0  0
 53 59  1  0  0  0  0
 54 59  1  0  0  0  0
 55 69  1  0  0  0  0
 56 68  1  0  0  0  0
 57 59  1  0  0  0  0
 57 67  1  0  0  0  0
 58 69  1  0  0  0  0
 60 61  1  0  0  0  0
M  CHG  1  69   1
M  ISO  4  27 101  38 100  68 100  75 101
M  END
> <Batch ID>
0001

> <Smiles>
CNC(C)C(=O)NC(C(=O)N1Cc2cc([101O:1][101c:1]3ccc(C[100NH:0][100C:0](=O)N4CCCC(n5nc(-c6ccc(Oc7ccc(F)cc7F)cc6)c(C(N)=O)c5N)C4)cc3)ccc2CC1C(=O)NC1CCCc2ccccc21)C(C)(C)C

> <Shape>
0.145

> <Color>
0.190

> <Negative vol penalty>
0.000

$$$$

  -OEChem-04042320143D

 84 92  0     1  0  0  0  0  0999 V2000
  -18.9068  -24.8797   21.3804 C   0  0  0  0  0  0  0  0  0  0  0  0
  -20.2957  -24.9305   21.4428 C   0  0  0  0  0  0  0  0  0  0  0  0
  -24.0307   -8.8358   21.4935 C   0  0  0  0  0  0  0  0  0  0  0  0
  -23.2949  -11.0142   20.7517 C   0  0  0  0  0  0  0  0  0  0  0  0
  -28.5524  -18.3420   19.1896 C   0  0  0  0  0  0  0  0  0  0  0  0
  -30.6680  -18.2875   20.3551 C   0  0  0  0  0  0  0  0  0  0  0  0
  -18.1776  -26.0448   21.1462 C   0  0  0  0  0  0  0  0  0  0  0  0
  -20.9563  -26.1463   21.2699 C   0  0  0  0  0  0  0  0  0  0  0  0
  -24.6332  -26.8613   24.6778 C   0  0  0  0  0  0  0  0  0  0  0  0
  -28.5875  -16.9536   19.0608 C   0  0  0  0  0  0  0  0  0  0  0  0
  -30.7031  -16.8990   20.2263 C   0  0  0  0  0  0  0  0  0  0  0  0
  -22.9342   -8.7578   22.3521 C   0  0  0  0  0  0  0  0  0  0  0  0
  -22.1984  -10.9362   21.6103 C   0  0  0  0  0  0  0  0  0  0  0  0
  -25.8352  -26.1867   24.4686 C   0  0  0  0  0  0  0  0  0  0  0  0
  -19.6336   -8.0611   22.1205 C   0  0  0  0  0  0  0  0  0  0  0  0
  -18.9190   -6.8636   22.1522 C   0  0  0  0  0  0  0  0  0  0  0  0
  -26.7990  -28.2000   23.5539 C   0  0  0  0  0  0  0  0  0  0  0  0
  -19.4157   -6.6295   24.5050 C   0  0  0  0  0  0  0  0  0  0  0  0
  -24.2111   -9.9641   20.6933 C   0  0  0  0  0  0  0  0  0  0  0  0
  -29.5927  -19.0090   19.8368 C   0  0  0  0  0  0  0  0  0  0  0  0
  -25.4091   -9.6121   18.4688 C   0  0  0  0  0  0  0  0  0  0  0  0
  -18.8291  -27.2771   20.9800 C   0  0  0  0  0  0  0  0  0  0  0  0
  -24.5014  -28.2097   24.3160 C   0  0  0  0  0  0  0  0  0  0  0  0
  -20.2352  -27.3287   21.0319 C   0  0  0  0  0  0  0  0  0  0  0  0
  -25.5950  -28.8902   23.7619 C   0  0  0  0  0  0  0  0  0  0  0  0
  -29.6629  -16.2321   19.5791 C   0  0  0  0  0  0  0  0  0  0  0  0
  -22.0180   -9.8080   22.4105 C   0  0  0  0  0  0  0  0  0  0  0  0
  -26.9174  -26.8552   23.9039 C   0  0  0  0  0  0  0  0  0  0  0  0
  -20.2394   -8.5428   23.2810 C   0  0  0  0  0  0  0  0  0  0  0  0
  -18.8100   -6.1478   23.3445 C   0  0  0  0  0  0  0  0  0  0  0  0
  -20.1304   -7.8270   24.4733 C   0  0  0  0  0  0  0  0  0  0  0  0
  -25.3439  -10.0455   19.8066 C   0  0  0  0  0  0  0  0  0  0  0  0
  -26.6899   -9.9109   18.0731 C   0  0  0  0  0  0  0  0  0  0  0  0
  -29.5554  -20.4878   19.9738 C   0  0  0  0  0  0  0  0  0  0  0  0
  -24.4018   -8.9948   17.6563 C   0  0  0  0  0  0  0  0  0  0  0  0
  -22.6695  -29.8155   22.2741 C   0  0  0  0  0  0  0  0  0  0  0  0
  -24.0715  -32.3966   23.6506 C   0  0  0  0  0  0  0  0  0  0  0  0
  -26.7274  -33.6796   25.3671 C   0  0  0  0  0  0  0  0  0  0  0  0
  -30.6896  -13.9548   19.9047 C   0  0  0  0  0  0  0  0  0  0  0  0
  -18.0008  -28.5018   20.6819 C   0  0  0  0  0  0  0  0  0  0  0  0
  -23.2064  -28.9304   24.5728 C   0  0  0  0  0  0  0  0  0  0  0  0
  -25.5114  -30.3433   23.3747 C   0  0  0  0  0  0  0  0  0  0  0  0
  -18.7574  -29.8124   20.8823 C   0  0  0  0  0  0  0  0  0  0  0  0
  -31.1231  -10.4220   19.8111 C   0  0  0  0  0  0  0  0  0  0  0  0
  -20.1364  -29.7371   20.2346 C   0  0  0  0  0  0  0  0  0  0  0  0
  -29.6967   -9.8853   19.6714 C   0  0  0  0  0  0  0  0  0  0  0  0
  -31.1794  -11.6556   20.7104 C   0  0  0  0  0  0  0  0  0  0  0  0
  -28.8318  -12.2006   20.1993 C   0  0  0  0  0  0  0  0  0  0  0  0
  -20.9867  -28.6327   20.8741 C   0  0  1  0  0  0  0  0  0  0  0  0
  -23.0236  -30.1628   23.6924 C   0  0  1  0  0  0  0  0  0  0  0  0
  -28.7152  -10.9966   19.2504 C   0  0  2  0  0  0  0  0  0  0  0  0
  -27.6064  -35.8300   26.3162 C   0  0  0  0  0  0  0  0  0  0  0  0
  -24.8457  -33.3152   20.8458 C   0  0  0  0  0  0  0  0  0  0  0  0
  -26.4864  -34.8916   21.8905 C   0  0  0  0  0  0  0  0  0  0  0  0
  -24.0488  -35.1403   22.3584 C   0  0  0  0  0  0  0  0  0  0  0  0
  -26.7302  -32.5976   28.1218 C   0  0  0  0  0  0  0  0  0  0  0  0
  -29.1344  -22.8743   22.2483 C   0  0  0  0  0  0  0  0  0  0  0  0
  -29.1884  -24.3688   22.5667 C   0  0  0  0  0  0  0  0  0  0  0  0
  -30.2769  -22.4284   21.3412 C   0  0  0  0  0  0  0  0  0  0  0  0
  -28.0158  -24.7976   23.4398 C   0  0  0  0  0  0  0  0  0  1  0  0
  -25.3164  -33.2071   23.3821 C   0  0  1  0  0  0  0  0  0  0  0  0
  -26.7983  -34.5719   26.5932 C   0  0  2  0  0  0  0  0  0  0  0  0
  -25.1756  -34.1107   22.1246 C   0  0  0  0  0  0  0  0  0  0  0  0
  -26.4920  -10.5788   20.2324 N   0  0  0  0  0  0  0  0  0  0  0  0
  -27.2908  -10.4825   19.1559 N   0  0  0  0  0  0  0  0  0  0  0  0
  -24.2220  -31.0027   23.6399 N   0  0  0  0  0  0  0  0  0  0  0  0
  -30.2264  -12.6671   20.2483 N   0  0  0  0  0  0  0  0  0  0  0  0
  -27.3497   -9.7378   16.9081 N   0  0  0  0  0  0  0  0  0  0  0  0
  -23.1403   -8.7597   18.2199 N   0  0  0  0  0  0  0  0  0  0  0  0
  -29.6974  -14.8216   19.4479 N   0  0  0  0  0  0  0  0  0  0  0  0
  -30.2406  -21.0193   21.0603 N   0  0  0  0  0  0  0  0  0  0  0  0
  -21.5109  -29.0729   22.1492 N   0  0  0  0  0  0  0  0  0  0  0  0
  -25.6020  -33.9364   24.6129 N   0  0  0  0  0  0  0  0  0  0  0  0
  -27.4353  -33.8443   27.7272 N   0  3  0  0  0  0  0  0  0  0  0  0
  -28.9221  -21.1504   19.1563 O   0  0  0  0  0  0  0  0  0  0  0  0
  -24.6193   -8.6465   16.4711 O   0  0  0  0  0  0  0  0  0  0  0  0
  -23.3930  -30.1945   21.3605 O   0  0  0  0  0  0  0  0  0  0  0  0
  -23.0062  -32.9789   23.8690 O   0  0  0  0  0  0  0  0  0  0  0  0
  -27.5865  -32.8415   25.1027 O   0  0  0  0  0  0  0  0  0  0  0  0
  -31.8832  -14.2571   19.9823 O   0  0  0  0  0  0  0  0  0  0  0  0
  -20.9478   -9.7321   23.2480 O   0  0  0  0  0  0  0  0  0  0  0  0
  -28.0916  -26.1990   23.6980 O   0  0  0  0  0  0  0  0  0  1  0  0
  -18.1225   -4.9987   23.3751 F   0  0  0  0  0  0  0  0  0  0  0  0
  -20.7091   -8.2854   25.5916 F   0  0  0  0  0  0  0  0  0  0  0  0
  1  2  1  0  0  0  0
  1  7  2  0  0  0  0
  2  8  2  0  0  0  0
  3 12  2  0  0  0  0
  3 19  1  0  0  0  0
  4 13  1  0  0  0  0
  4 19  2  0  0  0  0
  5 10  2  0  0  0  0
  5 20  1  0  0  0  0
  6 11  1  0  0  0  0
  6 20  2  0  0  0  0
  7 22  1  0  0  0  0
  8 24  1  0  0  0  0
  9 14  2  0  0  0  0
  9 23  1  0  0  0  0
 10 26  1  0  0  0  0
 11 26  2  0  0  0  0
 12 27  1  0  0  0  0
 13 27  2  0  0  0  0
 14 28  1  0  0  0  0
 15 16  2  0  0  0  0
 15 29  1  0  0  0  0
 16 30  1  0  0  0  0
 17 25  1  0  0  0  0
 17 28  2  0  0  0  0
 18 30  2  0  0  0  0
 18 31  1  0  0  0  0
 19 32  1  0  0  0  0
 20 34  1  0  0  0  0
 21 32  1  0  0  0  0
 21 33  2  0  0  0  0
 21 35  1  0  0  0  0
 22 24  2  0  0  0  0
 22 40  1  0  0  0  0
 23 25  2  0  0  0  0
 23 41  1  0  0  0  0
 24 49  1  0  0  0  0
 25 42  1  0  0  0  0
 26 70  1  0  0  0  0
 27 81  1  0  0  0  0
 28 82  1  0  0  0  0
 29 31  2  0  0  0  0
 29 81  1  0  0  0  0
 30 83  1  0  0  0  0
 31 84  1  0  0  0  0
 32 64  2  0  0  0  0
 33 65  1  0  0  0  0
 33 68  1  0  0  0  0
 34 71  1  0  0  0  0
 34 75  2  0  0  0  0
 35 69  1  0  0  0  0
 35 76  2  0  0  0  0
 36 50  1  0  0  0  0
 36 72  1  0  0  0  0
 36 77  2  0  0  0  0
 37 61  1  0  0  0  0
 37 66  1  0  0  0  0
 37 78  2  0  0  0  0
 38 62  1  0  0  0  0
 38 73  1  0  0  0  0
 38 79  2  0  0  0  0
 39 67  1  0  0  0  0
 39 70  1  0  0  0  0
 39 80  2  0  0  0  0
 40 43  1  0  0  0  0
 41 50  1  0  0  0  0
 42 66  1  0  0  0  0
 43 45  1  0  0  0  0
 44 46  1  0  0  0  0
 44 47  1  0  0  0  0
 45 49  1  0  0  0  0
 46 51  1  0  0  0  0
 47 67  1  0  0  0  0
 48 51  1  0  0  0  0
 48 67  1  0  0  0  0
 49 72  1  0  0  0  0
 50 66  1  0  0  0  0
 51 65  1  0  0  0  0
 52 62  1  0  0  0  0
 53 63  1  0  0  0  0
 54 63  1  0  0  0  0
 55 63  1  0  0  0  0
 56 74  1  0  0  0  0
 57 58  1  0  0  0  0
 57 59  1  0  0  0  0
 58 60  1  0  0  0  0
 59 71  1  0  0  0  0
 60 82  1  0  0  0  0
 61 63  1  0  0  0  0
 61 73  1  0  0  0  0
 62 74  1  0  0  0  0
 64 65  1  0  0  0  0
M  CHG  1  74   1
M  ISO  4  39 100  60 101  70 100  82 101
M  END
> <Batch ID>
0001

> <Smiles>
CNC(C)C(=O)NC(C(=O)N1Cc2cc([101O:1][101CH2:1]CCCNC(=O)c3ccc([100NH:0][100C:0](=O)N4CCCC(n5nc(-c6ccc(Oc7ccc(F)cc7F)cc6)c(C(N)=O)c5N)C4)cc3)ccc2CC1C(=O)NC1CCCc2ccccc21)C(C)(C)C

> <Shape>
0.240

> <Color>
0.078

> <Negative vol penalty>
0.000

$$$$

  -OEChem-04042320143D

 86 95  0     1  0  0  0  0  0999 V2000
  -27.5588  -38.9519   24.0654 C   0  0  0  0  0  0  0  0  0  0  0  0
  -27.6755  -38.0359   23.0248 C   0  0  0  0  0  0  0  0  0  0  0  0
  -24.4047   -8.2573   21.1762 C   0  0  0  0  0  0  0  0  0  0  0  0
  -23.3804  -10.2668   20.3103 C   0  0  0  0  0  0  0  0  0  0  0  0
  -27.7766  -23.5707   19.6605 C   0  0  0  0  0  0  0  0  0  0  0  0
  -25.7918  -23.2437   18.3222 C   0  0  0  0  0  0  0  0  0  0  0  0
  -27.4662  -18.3353   18.8958 C   0  0  0  0  0  0  0  0  0  0  0  0
  -29.4645  -18.6554   20.2154 C   0  0  0  0  0  0  0  0  0  0  0  0
  -27.2310  -38.5112   25.3469 C   0  0  0  0  0  0  0  0  0  0  0  0
  -27.4656  -36.6786   23.2654 C   0  0  0  0  0  0  0  0  0  0  0  0
  -24.9431  -30.7713   20.0941 C   0  0  0  0  0  0  0  0  0  0  0  0
  -27.4892  -24.9324   19.7540 C   0  0  0  0  0  0  0  0  0  0  0  0
  -25.5044  -24.6054   18.4157 C   0  0  0  0  0  0  0  0  0  0  0  0
  -27.7390  -16.9699   18.8140 C   0  0  0  0  0  0  0  0  0  0  0  0
  -29.7373  -17.2900   20.1336 C   0  0  0  0  0  0  0  0  0  0  0  0
  -23.2727   -8.0156   21.9545 C   0  0  0  0  0  0  0  0  0  0  0  0
  -22.2483  -10.0251   21.0885 C   0  0  0  0  0  0  0  0  0  0  0  0
  -25.3113  -29.4547   19.8208 C   0  0  0  0  0  0  0  0  0  0  0  0
  -20.1599   -6.7740   21.5055 C   0  0  0  0  0  0  0  0  0  0  0  0
  -19.6518   -5.4751   21.5249 C   0  0  0  0  0  0  0  0  0  0  0  0
  -24.6722  -28.8178   22.0580 C   0  0  0  0  0  0  0  0  0  0  0  0
  -19.9960   -5.3761   23.9142 C   0  0  0  0  0  0  0  0  0  0  0  0
  -24.4586   -9.3830   20.3542 C   0  0  0  0  0  0  0  0  0  0  0  0
  -26.9279  -22.7263   18.9446 C   0  0  0  0  0  0  0  0  0  0  0  0
  -28.3290  -19.1782   19.5965 C   0  0  0  0  0  0  0  0  0  0  0  0
  -25.8672   -9.1893   18.2362 C   0  0  0  0  0  0  0  0  0  0  0  0
  -27.0075  -37.1489   25.6013 C   0  0  0  0  0  0  0  0  0  0  0  0
  -24.4460  -31.1238   21.3571 C   0  0  0  0  0  0  0  0  0  0  0  0
  -27.1358  -36.2191   24.5519 C   0  0  0  0  0  0  0  0  0  0  0  0
  -24.2960  -30.1391   22.3440 C   0  0  0  0  0  0  0  0  0  0  0  0
  -26.3531  -25.4497   19.1316 C   0  0  0  0  0  0  0  0  0  0  0  0
  -28.8745  -16.4472   19.4329 C   0  0  0  0  0  0  0  0  0  0  0  0
  -22.1945   -8.8995   21.9106 C   0  0  0  0  0  0  0  0  0  0  0  0
  -25.1786  -28.4783   20.8037 C   0  0  0  0  0  0  0  0  0  0  0  0
  -20.5862   -7.3739   22.6905 C   0  0  0  0  0  0  0  0  0  0  0  0
  -19.5698   -4.7762   22.7292 C   0  0  0  0  0  0  0  0  0  0  0  0
  -20.5042   -6.6750   23.8948 C   0  0  0  0  0  0  0  0  0  0  0  0
  -25.6279   -9.6335   19.5504 C   0  0  0  0  0  0  0  0  0  0  0  0
  -27.1083   -9.6891   17.9255 C   0  0  0  0  0  0  0  0  0  0  0  0
  -27.2275  -21.3063   18.8469 C   0  0  0  0  0  0  0  0  0  0  0  0
  -28.0411  -20.6207   19.6843 C   0  0  0  0  0  0  0  0  0  0  0  0
  -25.0415   -8.3960   17.3733 C   0  0  0  0  0  0  0  0  0  0  0  0
  -25.3965  -33.0790   23.6760 C   0  0  0  0  0  0  0  0  0  0  0  0
  -22.5458  -32.2692   24.9950 C   0  0  0  0  0  0  0  0  0  0  0  0
  -19.9943  -30.0140   25.2212 C   0  0  0  0  0  0  0  0  0  0  0  0
  -30.2336  -14.3801   19.9085 C   0  0  0  0  0  0  0  0  0  0  0  0
  -26.7019  -36.7146   27.0130 C   0  0  0  0  0  0  0  0  0  0  0  0
  -24.0282  -32.5432   21.6274 C   0  0  0  0  0  0  0  0  0  0  0  0
  -23.7484  -30.4619   23.7094 C   0  0  0  0  0  0  0  0  0  0  0  0
  -26.1278  -35.3032   27.1052 C   0  0  0  0  0  0  0  0  0  0  0  0
  -31.2484  -10.9677   19.9648 C   0  0  0  0  0  0  0  0  0  0  0  0
  -26.9407  -34.3391   26.2469 C   0  0  0  0  0  0  0  0  0  0  0  0
  -29.9450  -10.1981   19.7393 C   0  0  0  0  0  0  0  0  0  0  0  0
  -31.0309  -12.2119   20.8242 C   0  0  0  0  0  0  0  0  0  0  0  0
  -28.6726  -12.3473   20.1249 C   0  0  0  0  0  0  0  0  0  0  0  0
  -26.8914  -34.7414   24.7680 C   0  0  1  0  0  0  0  0  0  0  0  0
  -24.0163  -32.8898   23.1131 C   0  0  1  0  0  0  0  0  0  0  0  0
  -28.8296  -11.1213   19.2107 C   0  0  2  0  0  0  0  0  0  0  0  0
  -17.8224  -29.6096   26.4114 C   0  0  0  0  0  0  0  0  0  0  0  0
  -24.0758  -31.4915   27.5178 C   0  0  0  0  0  0  0  0  0  0  0  0
  -22.0451  -30.2411   28.2800 C   0  0  0  0  0  0  0  0  0  0  0  0
  -21.9308  -32.7087   27.9322 C   0  0  0  0  0  0  0  0  0  0  0  0
  -18.4730  -29.9963   22.6827 C   0  0  0  0  0  0  0  0  0  0  0  0
  -26.0433  -26.9143   19.2346 C   0  0  0  0  0  0  0  0  0  1  0  0
  -22.0688  -31.1790   25.9240 C   0  0  1  0  0  0  0  0  0  0  0  0
  -18.4873  -30.1899   25.1729 C   0  0  2  0  0  0  0  0  0  0  0  0
  -22.5423  -31.3990   27.3885 C   0  0  0  0  0  0  0  0  0  0  0  0
  -26.6361  -10.3594   20.0410 N   0  0  0  0  0  0  0  0  0  0  0  0
  -27.5210  -10.3752   19.0296 N   0  0  0  0  0  0  0  0  0  0  0  0
  -23.3598  -31.8651   23.9274 N   0  0  0  0  0  0  0  0  0  0  0  0
  -29.9632  -13.0406   20.2601 N   0  0  0  0  0  0  0  0  0  0  0  0
  -27.8759   -9.6041   16.8182 N   0  0  0  0  0  0  0  0  0  0  0  0
  -23.7959   -7.9658   17.8506 N   0  0  0  0  0  0  0  0  0  0  0  0
  -29.1508  -15.0598   19.3517 N   0  0  0  0  0  0  0  0  0  0  0  0
  -25.6308  -34.3449   24.1781 N   0  0  0  0  0  0  0  0  0  0  0  0
  -20.6197  -31.1147   25.7678 N   0  0  0  0  0  0  0  0  0  0  0  0
  -17.9243  -29.5072   23.9737 N   0  3  0  0  0  0  0  0  0  0  0  0
  -25.4047   -8.0642   16.2194 O   0  0  0  0  0  0  0  0  0  0  0  0
  -26.1897  -32.1450   23.6576 O   0  0  0  0  0  0  0  0  0  0  0  0
  -22.2028  -33.4354   25.2048 O   0  0  0  0  0  0  0  0  0  0  0  0
  -20.5599  -29.0000   24.8181 O   0  0  0  0  0  0  0  0  0  0  0  0
  -31.3514  -14.8786   20.0630 O   0  0  0  0  0  0  0  0  0  0  0  0
  -21.0896   -8.6638   22.6698 O   0  0  0  0  0  0  0  0  0  0  0  0
  -25.5379  -27.1925   20.5397 O   0  0  0  0  0  0  0  0  0  1  0  0
  -19.0805   -3.5295   22.7479 F   0  0  0  0  0  0  0  0  0  0  0  0
  -20.9110   -7.2465   25.0366 F   0  0  0  0  0  0  0  0  0  0  0  0
  1  2  1  0  0  0  0
  1  9  2  0  0  0  0
  2 10  2  0  0  0  0
  3 16  2  0  0  0  0
  3 23  1  0  0  0  0
  4 17  1  0  0  0  0
  4 23  2  0  0  0  0
  5 12  2  0  0  0  0
  5 24  1  0  0  0  0
  6 13  1  0  0  0  0
  6 24  2  0  0  0  0
  7 14  2  0  0  0  0
  7 25  1  0  0  0  0
  8 15  1  0  0  0  0
  8 25  2  0  0  0  0
  9 27  1  0  0  0  0
 10 29  1  0  0  0  0
 11 18  2  0  0  0  0
 11 28  1  0  0  0  0
 12 31  1  0  0  0  0
 13 31  2  0  0  0  0
 14 32  1  0  0  0  0
 15 32  2  0  0  0  0
 16 33  1  0  0  0  0
 17 33  2  0  0  0  0
 18 34  1  0  0  0  0
 19 20  2  0  0  0  0
 19 35  1  0  0  0  0
 20 36  1  0  0  0  0
 21 30  1  0  0  0  0
 21 34  2  0  0  0  0
 22 36  2  0  0  0  0
 22 37  1  0  0  0  0
 23 38  1  0  0  0  0
 24 40  1  0  0  0  0
 25 41  1  0  0  0  0
 26 38  1  0  0  0  0
 26 39  2  0  0  0  0
 26 42  1  0  0  0  0
 27 29  2  0  0  0  0
 27 47  1  0  0  0  0
 28 30  2  0  0  0  0
 28 48  1  0  0  0  0
 29 56  1  0  0  0  0
 30 49  1  0  0  0  0
 31 64  1  0  0  0  0
 32 74  1  0  0  0  0
 33 83  1  0  0  0  0
 34 84  1  0  0  0  0
 35 37  2  0  0  0  0
 35 83  1  0  0  0  0
 36 85  1  0  0  0  0
 37 86  1  0  0  0  0
 38 68  2  0  0  0  0
 39 69  1  0  0  0  0
 39 72  1  0  0  0  0
 40 41  2  0  0  0  0
 42 73  1  0  0  0  0
 42 78  2  0  0  0  0
 43 57  1  0  0  0  0
 43 75  1  0  0  0  0
 43 79  2  0  0  0  0
 44 65  1  0  0  0  0
 44 70  1  0  0  0  0
 44 80  2  0  0  0  0
 45 66  1  0  0  0  0
 45 76  1  0  0  0  0
 45 81  2  0  0  0  0
 46 71  1  0  0  0  0
 46 74  1  0  0  0  0
 46 82  2  0  0  0  0
 47 50  1  0  0  0  0
 48 57  1  0  0  0  0
 49 70  1  0  0  0  0
 50 52  1  0  0  0  0
 51 53  1  0  0  0  0
 51 54  1  0  0  0  0
 52 56  1  0  0  0  0
 53 58  1  0  0  0  0
 54 71  1  0  0  0  0
 55 58  1  0  0  0  0
 55 71  1  0  0  0  0
 56 75  1  0  0  0  0
 57 70  1  0  0  0  0
 58 69  1  0  0  0  0
 59 66  1  0  0  0  0
 60 67  1  0  0  0  0
 61 67  1  0  0  0  0
 62 67  1  0  0  0  0
 63 77  1  0  0  0  0
 64 84  1  0  0  0  0
 65 67  1  0  0  0  0
 65 76  1  0  0  0  0
 66 77  1  0  0  0  0
 68 69  1  0  0  0  0
M  CHG  1  77   1
M  ISO  4  46 100  64 101  74 100  84 101
M  END
> <Batch ID>
0001

> <Smiles>
CNC(C)C(=O)NC(C(=O)N1Cc2cc([101O:1][101CH2:1]c3ccc(C=Cc4ccc([100NH:0][100C:0](=O)N5CCCC(n6nc(-c7ccc(Oc8ccc(F)cc8F)cc7)c(C(N)=O)c6N)C5)cc4)cc3)ccc2CC1C(=O)NC1CCCc2ccccc21)C(C)(C)C

> <Shape>
0.264

> <Color>
0.072

> <Negative vol penalty>
0.000

$$$$

  -OEChem-04042320143D

 74 81  0     1  0  0  0  0  0999 V2000
  -28.2370  -24.4861   17.1417 C   0  0  0  0  0  0  0  0  0  0  0  0
  -27.0905  -25.1970   17.4776 C   0  0  0  0  0  0  0  0  0  0  0  0
  -23.9976  -17.2212   19.7044 C   0  0  0  0  0  0  0  0  0  0  0  0
  -21.6114  -17.5982   19.7372 C   0  0  0  0  0  0  0  0  0  0  0  0
  -29.3729  -24.5840   17.9426 C   0  0  0  0  0  0  0  0  0  0  0  0
  -27.0832  -26.0153   18.6078 C   0  0  0  0  0  0  0  0  0  0  0  0
  -23.1087  -28.8301   19.3032 C   0  0  0  0  0  0  0  0  0  0  0  0
  -23.7896  -15.8777   20.0166 C   0  0  0  0  0  0  0  0  0  0  0  0
  -21.4034  -16.2547   20.0494 C   0  0  0  0  0  0  0  0  0  0  0  0
  -21.8764  -28.3102   19.6969 C   0  0  0  0  0  0  0  0  0  0  0  0
  -23.8696  -12.2693   20.4498 C   0  0  0  0  0  0  0  0  0  0  0  0
  -24.5945  -11.3172   19.7332 C   0  0  0  0  0  0  0  0  0  0  0  0
  -22.2606  -29.1131   21.9389 C   0  0  0  0  0  0  0  0  0  0  0  0
  -23.5960  -12.1033   17.6784 C   0  0  0  0  0  0  0  0  0  0  0  0
  -22.9085  -18.0814   19.5647 C   0  0  0  0  0  0  0  0  0  0  0  0
  -23.1955  -20.0430   17.9592 C   0  0  0  0  0  0  0  0  0  0  0  0
  -29.3747  -25.3944   19.0898 C   0  0  0  0  0  0  0  0  0  0  0  0
  -23.9324  -29.4870   20.2287 C   0  0  0  0  0  0  0  0  0  0  0  0
  -28.2273  -26.1461   19.4155 C   0  0  0  0  0  0  0  0  0  0  0  0
  -23.5017  -29.6426   21.5540 C   0  0  0  0  0  0  0  0  0  0  0  0
  -22.4925  -15.3945   20.1891 C   0  0  0  0  0  0  0  0  0  0  0  0
  -21.4534  -28.4491   21.0155 C   0  0  0  0  0  0  0  0  0  0  0  0
  -23.0077  -13.1384   19.7807 C   0  0  0  0  0  0  0  0  0  0  0  0
  -24.4578  -11.2342   18.3475 C   0  0  0  0  0  0  0  0  0  0  0  0
  -22.8709  -13.0554   18.3951 C   0  0  0  0  0  0  0  0  0  0  0  0
  -23.1227  -19.4695   19.2428 C   0  0  0  0  0  0  0  0  0  0  0  0
  -23.4090  -21.3796   18.1920 C   0  0  0  0  0  0  0  0  0  0  0  0
  -23.0803  -19.4229   16.6716 C   0  0  0  0  0  0  0  0  0  0  0  0
  -26.8422  -28.9749   21.4010 C   0  0  0  0  0  0  0  0  0  0  0  0
  -26.3567  -31.8553   22.8116 C   0  0  0  0  0  0  0  0  0  0  0  0
  -24.1398  -34.1868   23.9501 C   0  0  0  0  0  0  0  0  0  0  0  0
  -22.1653  -24.9610   22.8264 C   0  0  0  0  0  0  0  0  0  0  0  0
  -30.6340  -25.4698   19.9166 C   0  0  0  0  0  0  0  0  0  0  0  0
  -25.2470  -30.0656   19.7819 C   0  0  0  0  0  0  0  0  0  0  0  0
  -24.3398  -30.3572   22.5814 C   0  0  0  0  0  0  0  0  0  0  0  0
  -30.3902  -26.0052   21.3238 C   0  0  0  0  0  0  0  0  0  0  0  0
  -25.3644  -24.3589   21.3844 C   0  0  0  0  0  0  0  0  0  0  0  0
  -29.5719  -27.2861   21.2580 C   0  0  0  0  0  0  0  0  0  0  0  0
  -25.1592  -23.0892   20.5562 C   0  0  0  0  0  0  0  0  0  0  0  0
  -24.5549  -24.3253   22.6788 C   0  0  0  0  0  0  0  0  0  0  0  0
  -22.9098  -22.7899   21.6739 C   0  0  0  0  0  0  0  0  0  0  0  0
  -28.1862  -27.0186   20.6570 C   0  0  1  0  0  0  0  0  0  0  0  0
  -26.2328  -30.2646   20.9290 C   0  0  1  0  0  0  0  0  0  0  0  0
  -23.6624  -22.8016   20.3323 C   0  0  2  0  0  0  0  0  0  0  0  0
  -24.0417  -36.4211   25.0884 C   0  0  0  0  0  0  0  0  0  0  0  0
  -27.0386  -30.5268   25.4724 C   0  0  0  0  0  0  0  0  0  0  0  0
  -26.0199  -32.4953   26.6367 C   0  0  0  0  0  0  0  0  0  0  0  0
  -28.0109  -32.8106   25.1672 C   0  0  0  0  0  0  0  0  0  0  0  0
  -22.7535  -35.4283   21.6488 C   0  0  0  0  0  0  0  0  0  0  0  0
  -18.9463  -25.9462   21.6711 C   0  0  0  0  0  0  0  0  0  0  0  0
  -19.7364  -25.4678   22.8817 C   0  0  0  0  0  0  0  0  0  0  0  0
  -19.7817  -26.7851   20.7116 C   0  0  0  0  0  0  0  0  0  1  0  0
  -25.7630  -32.3184   24.1200 C   0  0  1  0  0  0  0  0  0  0  0  0
  -24.0705  -35.6906   23.7549 C   0  0  2  0  0  0  0  0  0  0  0  0
  -26.6930  -32.0226   25.3304 C   0  0  0  0  0  0  0  0  0  0  0  0
  -23.2776  -20.3682   20.2186 N   0  0  0  0  0  0  0  0  0  0  0  0
  -23.4499  -21.5200   19.5480 N   0  0  0  0  0  0  0  0  0  0  0  0
  -25.6199  -30.9000   22.0973 N   0  0  0  0  0  0  0  0  0  0  0  0
  -23.1441  -24.0498   22.3967 N   0  0  0  0  0  0  0  0  0  0  0  0
  -23.5640  -22.4369   17.3670 N   0  0  0  0  0  0  0  0  0  0  0  0
  -22.8617  -18.0397   16.6133 N   0  0  0  0  0  0  0  0  0  0  0  0
  -27.5233  -28.2817   20.4185 N   0  0  0  0  0  0  0  0  0  0  0  0
  -25.4410  -33.7306   23.9450 N   0  0  0  0  0  0  0  0  0  0  0  0
  -20.8535  -24.6272   22.5125 N   0  0  0  0  0  0  0  0  0  0  0  0
  -22.8445  -36.0579   22.9913 N   0  3  0  0  0  0  0  0  0  0  0  0
  -23.1849  -20.0734   15.6042 O   0  0  0  0  0  0  0  0  0  0  0  0
  -26.7060  -28.6345   22.5703 O   0  0  0  0  0  0  0  0  0  0  0  0
  -27.4311  -32.3292   22.4336 O   0  0  0  0  0  0  0  0  0  0  0  0
  -23.1399  -33.4873   24.0965 O   0  0  0  0  0  0  0  0  0  0  0  0
  -22.4405  -25.9981   23.4394 O   0  0  0  0  0  0  0  0  0  0  0  0
  -22.2892  -14.0836   20.4935 O   0  0  0  0  0  0  0  0  0  0  0  0
  -20.2514  -27.9420   21.4025 O   0  0  0  0  0  0  0  0  0  1  0  0
  -25.1552  -10.3209   17.6593 F   0  0  0  0  0  0  0  0  0  0  0  0
  -22.0454  -13.8884   17.7467 F   0  0  0  0  0  0  0  0  0  0  0  0
  1  2  1  0  0  0  0
  1  5  2  0  0  0  0
  2  6  2  0  0  0  0
  3  8  2  0  0  0  0
  3 15  1  0  0  0  0
  4  9  1  0  0  0  0
  4 15  2  0  0  0  0
  5 17  1  0  0  0  0
  6 19  1  0  0  0  0
  7 10  2  0  0  0  0
  7 18  1  0  0  0  0
  8 21  1  0  0  0  0
  9 21  2  0  0  0  0
 10 22  1  0  0  0  0
 11 12  2  0  0  0  0
 11 23  1  0  0  0  0
 12 24  1  0  0  0  0
 13 20  1  0  0  0  0
 13 22  2  0  0  0  0
 14 24  2  0  0  0  0
 14 25  1  0  0  0  0
 15 26  1  0  0  0  0
 16 26  1  0  0  0  0
 16 27  2  0  0  0  0
 16 28  1  0  0  0  0
 17 19  2  0  0  0  0
 17 33  1  0  0  0  0
 18 20  2  0  0  0  0
 18 34  1  0  0  0  0
 19 42  1  0  0  0  0
 20 35  1  0  0  0  0
 21 71  1  0  0  0  0
 22 72  1  0  0  0  0
 23 25  2  0  0  0  0
 23 71  1  0  0  0  0
 24 73  1  0  0  0  0
 25 74  1  0  0  0  0
 26 56  2  0  0  0  0
 27 57  1  0  0  0  0
 27 60  1  0  0  0  0
 28 61  1  0  0  0  0
 28 66  2  0  0  0  0
 29 43  1  0  0  0  0
 29 62  1  0  0  0  0
 29 67  2  0  0  0  0
 30 53  1  0  0  0  0
 30 58  1  0  0  0  0
 30 68  2  0  0  0  0
 31 54  1  0  0  0  0
 31 63  1  0  0  0  0
 31 69  2  0  0  0  0
 32 59  1  0  0  0  0
 32 64  1  0  0  0  0
 32 70  2  0  0  0  0
 33 36  1  0  0  0  0
 34 43  1  0  0  0  0
 35 58  1  0  0  0  0
 36 38  1  0  0  0  0
 37 39  1  0  0  0  0
 37 40  1  0  0  0  0
 38 42  1  0  0  0  0
 39 44  1  0  0  0  0
 40 59  1  0  0  0  0
 41 44  1  0  0  0  0
 41 59  1  0  0  0  0
 42 62  1  0  0  0  0
 43 58  1  0  0  0  0
 44 57  1  0  0  0  0
 45 54  1  0  0  0  0
 46 55  1  0  0  0  0
 47 55  1  0  0  0  0
 48 55  1  0  0  0  0
 49 65  1  0  0  0  0
 50 51  1  0  0  0  0
 50 52  1  0  0  0  0
 51 64  1  0  0  0  0
 52 72  1  0  0  0  0
 53 55  1  0  0  0  0
 53 63  1  0  0  0  0
 54 65  1  0  0  0  0
 56 57  1  0  0  0  0
M  CHG  1  65   1
M  ISO  4  32 100  52 101  64 100  72 101
M  END
> <Batch ID>
0001

> <Smiles>
CNC(C)C(=O)NC(C(=O)N1Cc2cc([101O:1][101CH2:1]CC[100NH:0][100C:0](=O)N3CCCC(n4nc(-c5ccc(Oc6ccc(F)cc6F)cc5)c(C(N)=O)c4N)C3)ccc2CC1C(=O)NC1CCCc2ccccc21)C(C)(C)C

> <Shape>
0.222

> <Color>
0.068

> <Negative vol penalty>
0.000

$$$$

  -OEChem-04042320143D

 80 89  0     1  0  0  0  0  0999 V2000
  -27.9336  -34.8163   24.1510 C   0  0  0  0  0  0  0  0  0  0  0  0
  -28.7088  -33.7474   23.7130 C   0  0  0  0  0  0  0  0  0  0  0  0
  -23.0308  -10.3330   20.0089 C   0  0  0  0  0  0  0  0  0  0  0  0
  -23.9879   -9.5179   22.0720 C   0  0  0  0  0  0  0  0  0  0  0  0
  -26.5757  -34.6321   24.4079 C   0  0  0  0  0  0  0  0  0  0  0  0
  -28.1266  -32.4932   23.5327 C   0  0  0  0  0  0  0  0  0  0  0  0
  -28.7459  -19.1090   21.1840 C   0  0  0  0  0  0  0  0  0  0  0  0
  -28.6046  -26.6575   19.4057 C   0  0  0  0  0  0  0  0  0  0  0  0
  -28.8098  -20.4987   21.0619 C   0  0  0  0  0  0  0  0  0  0  0  0
  -22.2090   -9.2077   19.9455 C   0  0  0  0  0  0  0  0  0  0  0  0
  -23.1662   -8.3926   22.0086 C   0  0  0  0  0  0  0  0  0  0  0  0
  -28.7315  -25.2729   19.5087 C   0  0  0  0  0  0  0  0  0  0  0  0
  -21.0640   -5.4816   22.5792 C   0  0  0  0  0  0  0  0  0  0  0  0
  -20.4135   -5.0861   23.7479 C   0  0  0  0  0  0  0  0  0  0  0  0
  -29.0738  -20.3221   18.6485 C   0  0  0  0  0  0  0  0  0  0  0  0
  -26.3594  -25.0912   19.9078 C   0  0  0  0  0  0  0  0  0  0  0  0
  -19.2925   -7.2240   23.8476 C   0  0  0  0  0  0  0  0  0  0  0  0
  -23.9203  -10.4881   21.0721 C   0  0  0  0  0  0  0  0  0  0  0  0
  -24.4809  -12.8803   21.7582 C   0  0  0  0  0  0  0  0  0  0  0  0
  -25.9745  -33.3774   24.2214 C   0  0  0  0  0  0  0  0  0  0  0  0
  -27.3538  -27.2713   19.5641 C   0  0  0  0  0  0  0  0  0  0  0  0
  -28.8500  -18.3470   20.0337 C   0  0  0  0  0  0  0  0  0  0  0  0
  -26.7596  -32.2917   23.7887 C   0  0  0  0  0  0  0  0  0  0  0  0
  -29.0116  -18.9462   18.7807 C   0  0  0  0  0  0  0  0  0  0  0  0
  -26.2189  -26.4835   19.8038 C   0  0  0  0  0  0  0  0  0  0  0  0
  -28.9719  -21.1008   19.8034 C   0  0  0  0  0  0  0  0  0  0  0  0
  -22.2767   -8.2375   20.9453 C   0  0  0  0  0  0  0  0  0  0  0  0
  -27.6093  -24.4898   19.7626 C   0  0  0  0  0  0  0  0  0  0  0  0
  -20.8289   -6.7484   22.0447 C   0  0  0  0  0  0  0  0  0  0  0  0
  -19.5278   -5.9572   24.3821 C   0  0  0  0  0  0  0  0  0  0  0  0
  -19.9431   -7.6196   22.6789 C   0  0  0  0  0  0  0  0  0  0  0  0
  -24.7698  -11.6500   21.1379 C   0  0  0  0  0  0  0  0  0  0  0  0
  -25.6009  -13.6453   21.5418 C   0  0  0  0  0  0  0  0  0  0  0  0
  -23.3053  -13.2945   22.4668 C   0  0  0  0  0  0  0  0  0  0  0  0
  -26.1306  -29.3755   21.6085 C   0  0  0  0  0  0  0  0  0  0  0  0
  -23.5758  -29.2415   19.6142 C   0  0  0  0  0  0  0  0  0  0  0  0
  -21.8114  -27.4849   17.2800 C   0  0  0  0  0  0  0  0  0  0  0  0
  -29.4569  -15.4459   17.8552 C   0  0  0  0  0  0  0  0  0  0  0  0
  -24.5132  -33.2154   24.5575 C   0  0  0  0  0  0  0  0  0  0  0  0
  -27.2293  -28.7637   19.4235 C   0  0  0  0  0  0  0  0  0  0  0  0
  -28.7891  -16.8605   19.8947 C   0  0  0  0  0  0  0  0  0  0  0  0
  -29.1021  -17.9051   17.7166 C   0  0  0  0  0  0  0  0  0  0  0  0
  -24.8502  -27.0919   19.9616 C   0  0  0  0  0  0  0  0  0  0  0  0
  -23.8931  -31.9445   23.9825 C   0  0  0  0  0  0  0  0  0  0  0  0
  -30.1689  -12.3933   19.7623 C   0  0  0  0  0  0  0  0  0  0  0  0
  -24.7983  -30.7444   24.2416 C   0  0  0  0  0  0  0  0  0  0  0  0
  -28.7900  -12.0090   20.3032 C   0  0  0  0  0  0  0  0  0  0  0  0
  -30.0768  -13.1243   18.4244 C   0  0  0  0  0  0  0  0  0  0  0  0
  -27.7975  -13.8925   18.9549 C   0  0  0  0  0  0  0  0  0  0  0  0
  -26.1592  -30.9219   23.5575 C   0  0  1  0  0  0  0  0  0  0  0  0
  -25.9909  -29.3276   20.1132 C   0  0  1  0  0  0  0  0  0  0  0  0
  -27.8442  -13.2251   20.3358 C   0  0  1  0  0  0  0  0  0  0  0  0
  -19.7462  -27.6180   15.8608 C   0  0  0  0  0  0  0  0  0  0  0  0
  -21.8589  -28.6175   22.0582 C   0  0  0  0  0  0  0  0  0  0  0  0
  -20.0557  -27.8383   20.5059 C   0  0  0  0  0  0  0  0  0  0  0  0
  -20.8215  -30.2113   20.4340 C   0  0  0  0  0  0  0  0  0  0  0  0
  -23.3816  -27.3291   14.7762 C   0  0  0  0  0  0  0  0  0  0  0  0
  -29.0362  -22.5882   19.7001 C   0  0  0  0  0  0  0  0  0  1  0  0
  -22.3290  -28.3944   19.5293 C   0  0  1  0  0  0  0  0  0  0  0  0
  -21.2405  -27.8909   15.9333 C   0  0  2  0  0  0  0  0  0  0  0  0
  -21.2923  -28.7538   20.6308 C   0  0  0  0  0  0  0  0  0  0  0  0
  -25.9785  -11.6303   20.5699 N   0  0  0  0  0  0  0  0  0  0  0  0
  -26.4590  -12.8576   20.8324 N   0  0  0  0  0  0  0  0  0  0  0  0
  -24.7810  -28.5559   19.8219 N   0  0  0  0  0  0  0  0  0  0  0  0
  -29.0269  -16.6328   18.4537 N   0  0  0  0  0  0  0  0  0  0  0  0
  -29.1477  -14.2499   18.5106 N   0  0  0  0  0  0  0  0  0  0  0  0
  -25.9255  -14.9083   21.8910 N   0  0  0  0  0  0  0  0  0  0  0  0
  -22.2478  -12.3838   22.5967 N   0  0  0  0  0  0  0  0  0  0  0  0
  -26.0520  -30.6484   22.1404 N   0  0  0  0  0  0  0  0  0  0  0  0
  -21.8282  -28.5406   18.1669 N   0  0  0  0  0  0  0  0  0  0  0  0
  -21.9101  -27.1346   14.8376 N   0  3  0  0  0  0  0  0  0  0  0  0
  -23.1892  -14.4439   22.9556 O   0  0  0  0  0  0  0  0  0  0  0  0
  -26.2958  -28.3345   22.2336 O   0  0  0  0  0  0  0  0  0  0  0  0
  -23.4845  -30.4657   19.4933 O   0  0  0  0  0  0  0  0  0  0  0  0
  -22.1999  -26.3443   17.5223 O   0  0  0  0  0  0  0  0  0  0  0  0
  -30.1311  -15.4555   16.8174 O   0  0  0  0  0  0  0  0  0  0  0  0
  -21.4749   -7.1394   20.8839 O   0  0  0  0  0  0  0  0  0  0  0  0
  -27.7313  -23.1287   19.8650 O   0  0  0  0  0  0  0  0  0  1  0  0
  -18.9020   -5.5766   25.5036 F   0  0  0  0  0  0  0  0  0  0  0  0
  -19.7122   -8.8374   22.1695 F   0  0  0  0  0  0  0  0  0  0  0  0
  1  2  1  0  0  0  0
  1  5  2  0  0  0  0
  2  6  2  0  0  0  0
  3 10  2  0  0  0  0
  3 18  1  0  0  0  0
  4 11  1  0  0  0  0
  4 18  2  0  0  0  0
  5 20  1  0  0  0  0
  6 23  1  0  0  0  0
  7  9  2  0  0  0  0
  7 22  1  0  0  0  0
  8 12  2  0  0  0  0
  8 21  1  0  0  0  0
  9 26  1  0  0  0  0
 10 27  1  0  0  0  0
 11 27  2  0  0  0  0
 12 28  1  0  0  0  0
 13 14  2  0  0  0  0
 13 29  1  0  0  0  0
 14 30  1  0  0  0  0
 15 24  1  0  0  0  0
 15 26  2  0  0  0  0
 16 25  1  0  0  0  0
 16 28  2  0  0  0  0
 17 30  2  0  0  0  0
 17 31  1  0  0  0  0
 18 32  1  0  0  0  0
 19 32  1  0  0  0  0
 19 33  2  0  0  0  0
 19 34  1  0  0  0  0
 20 23  2  0  0  0  0
 20 39  1  0  0  0  0
 21 25  2  0  0  0  0
 21 40  1  0  0  0  0
 22 24  2  0  0  0  0
 22 41  1  0  0  0  0
 23 50  1  0  0  0  0
 24 42  1  0  0  0  0
 25 43  1  0  0  0  0
 26 58  1  0  0  0  0
 27 77  1  0  0  0  0
 28 78  1  0  0  0  0
 29 31  2  0  0  0  0
 29 77  1  0  0  0  0
 30 79  1  0  0  0  0
 31 80  1  0  0  0  0
 32 62  2  0  0  0  0
 33 63  1  0  0  0  0
 33 67  1  0  0  0  0
 34 68  1  0  0  0  0
 34 72  2  0  0  0  0
 35 51  1  0  0  0  0
 35 69  1  0  0  0  0
 35 73  2  0  0  0  0
 36 59  1  0  0  0  0
 36 64  1  0  0  0  0
 36 74  2  0  0  0  0
 37 60  1  0  0  0  0
 37 70  1  0  0  0  0
 37 75  2  0  0  0  0
 38 65  1  0  0  0  0
 38 66  1  0  0  0  0
 38 76  2  0  0  0  0
 39 44  1  0  0  0  0
 40 51  1  0  0  0  0
 41 65  1  0  0  0  0
 42 65  1  0  0  0  0
 43 64  1  0  0  0  0
 44 46  1  0  0  0  0
 45 47  1  0  0  0  0
 45 48  1  0  0  0  0
 46 50  1  0  0  0  0
 47 52  1  0  0  0  0
 48 66  1  0  0  0  0
 49 52  1  0  0  0  0
 49 66  1  0  0  0  0
 50 69  1  0  0  0  0
 51 64  1  0  0  0  0
 52 63  1  0  0  0  0
 53 60  1  0  0  0  0
 54 61  1  0  0  0  0
 55 61  1  0  0  0  0
 56 61  1  0  0  0  0
 57 71  1  0  0  0  0
 58 78  1  0  0  0  0
 59 61  1  0  0  0  0
 59 70  1  0  0  0  0
 60 71  1  0  0  0  0
 62 63  1  0  0  0  0
M  CHG  1  71   1
M  ISO  4  38 100  58 101  65 100  78 101
M  END
> <Batch ID>
0001

> <Smiles>
CNC(C)C(=O)NC(C(=O)N1Cc2cc([101O:1][101CH2:1]c3ccc4c(c3)C[100N:0]([100C:0](=O)N3CCCC(n5nc(-c6ccc(Oc7ccc(F)cc7F)cc6)c(C(N)=O)c5N)C3)C4)ccc2CC1C(=O)NC1CCCc2ccccc21)C(C)(C)C

> <Shape>
0.332

> <Color>
0.120

> <Negative vol penalty>
0.000

$$$$

  -OEChem-04042320143D

 82 91  0     1  0  0  0  0  0999 V2000
  -24.8238  -32.8846   26.6013 C   0  0  0  0  0  0  0  0  0  0  0  0
  -25.3386  -31.6197   26.3361 C   0  0  0  0  0  0  0  0  0  0  0  0
  -23.4288  -10.2628   19.7678 C   0  0  0  0  0  0  0  0  0  0  0  0
  -24.0845   -9.7248   22.0300 C   0  0  0  0  0  0  0  0  0  0  0  0
  -23.8434  -33.4252   25.7704 C   0  0  0  0  0  0  0  0  0  0  0  0
  -24.8725  -30.8941   25.2403 C   0  0  0  0  0  0  0  0  0  0  0  0
  -28.1096  -27.0896   21.6974 C   0  0  0  0  0  0  0  0  0  0  0  0
  -27.3732  -20.2559   16.2007 C   0  0  0  0  0  0  0  0  0  0  0  0
  -22.8706   -8.9922   19.6274 C   0  0  0  0  0  0  0  0  0  0  0  0
  -23.5263   -8.4542   21.8897 C   0  0  0  0  0  0  0  0  0  0  0  0
  -28.2408  -25.7017   21.6863 C   0  0  0  0  0  0  0  0  0  0  0  0
  -27.8644  -21.2750   17.0172 C   0  0  0  0  0  0  0  0  0  0  0  0
  -20.0328   -7.4023   20.5504 C   0  0  0  0  0  0  0  0  0  0  0  0
  -18.7710   -7.3099   19.9631 C   0  0  0  0  0  0  0  0  0  0  0  0
  -26.5459  -25.5611   19.9756 C   0  0  0  0  0  0  0  0  0  0  0  0
  -28.7205  -19.6418   18.6066 C   0  0  0  0  0  0  0  0  0  0  0  0
  -19.6889   -5.9247   18.2092 C   0  0  0  0  0  0  0  0  0  0  0  0
  -24.0358  -10.6291   20.9691 C   0  0  0  0  0  0  0  0  0  0  0  0
  -23.9715  -13.1056   21.5776 C   0  0  0  0  0  0  0  0  0  0  0  0
  -23.3720  -32.7099   24.6583 C   0  0  0  0  0  0  0  0  0  0  0  0
  -27.1863  -27.7240   20.8540 C   0  0  0  0  0  0  0  0  0  0  0  0
  -23.8839  -31.4251   24.3945 C   0  0  0  0  0  0  0  0  0  0  0  0
  -27.5558  -18.9424   16.6039 C   0  0  0  0  0  0  0  0  0  0  0  0
  -26.4067  -26.9574   19.9760 C   0  0  0  0  0  0  0  0  0  0  0  0
  -28.2243  -18.6358   17.7905 C   0  0  0  0  0  0  0  0  0  0  0  0
  -22.9194   -8.0879   20.6883 C   0  0  0  0  0  0  0  0  0  0  0  0
  -27.4569  -24.9369   20.8274 C   0  0  0  0  0  0  0  0  0  0  0  0
  -28.5333  -20.9696   18.2115 C   0  0  0  0  0  0  0  0  0  0  0  0
  -21.1227   -6.7560   19.9671 C   0  0  0  0  0  0  0  0  0  0  0  0
  -18.5990   -6.5711   18.7926 C   0  0  0  0  0  0  0  0  0  0  0  0
  -20.9507   -6.0172   18.7965 C   0  0  0  0  0  0  0  0  0  0  0  0
  -24.6131  -11.9412   21.1145 C   0  0  0  0  0  0  0  0  0  0  0  0
  -24.9426  -14.0756   21.5277 C   0  0  0  0  0  0  0  0  0  0  0  0
  -22.6188  -13.2936   22.0140 C   0  0  0  0  0  0  0  0  0  0  0  0
  -24.6140  -29.5364   21.3038 C   0  0  0  0  0  0  0  0  0  0  0  0
  -24.7295  -29.8209   18.0745 C   0  0  0  0  0  0  0  0  0  0  0  0
  -25.7455  -28.5230   15.0863 C   0  0  0  0  0  0  0  0  0  0  0  0
  -29.1358  -16.5871   18.8627 C   0  0  0  0  0  0  0  0  0  0  0  0
  -22.2773  -33.3160   23.8162 C   0  0  0  0  0  0  0  0  0  0  0  0
  -27.0758  -29.2241   20.8588 C   0  0  0  0  0  0  0  0  0  0  0  0
  -27.1726  -17.7045   15.8591 C   0  0  0  0  0  0  0  0  0  0  0  0
  -25.4152  -27.5915   19.0362 C   0  0  0  0  0  0  0  0  0  0  0  0
  -22.1064  -32.6378   22.4593 C   0  0  0  0  0  0  0  0  0  0  0  0
  -29.9192  -13.7419   20.8019 C   0  0  0  0  0  0  0  0  0  0  0  0
  -22.0953  -31.1207   22.6185 C   0  0  0  0  0  0  0  0  0  0  0  0
  -28.5658  -13.0896   21.0715 C   0  0  0  0  0  0  0  0  0  0  0  0
  -27.4608  -16.6152   16.9000 C   0  0  0  0  0  0  0  0  0  0  0  0
  -29.9702  -14.3175   19.3932 C   0  0  0  0  0  0  0  0  0  0  0  0
  -27.5190  -14.7075   19.4033 C   0  0  0  0  0  0  0  0  0  0  0  0
  -23.4215  -30.6175   23.2012 C   0  0  1  0  0  0  0  0  0  0  0  0
  -25.7379  -29.7264   20.3248 C   0  0  1  0  0  0  0  0  0  0  0  0
  -27.4238  -14.0842   20.8112 C   0  0  1  0  0  0  0  0  0  0  0  0
  -25.6597  -28.9615   12.6169 C   0  0  0  0  0  0  0  0  0  0  0  0
  -21.8214  -28.8996   18.0145 C   0  0  0  0  0  0  0  0  0  0  0  0
  -22.0881  -28.4471   15.5666 C   0  0  0  0  0  0  0  0  0  0  0  0
  -22.3564  -30.7681   16.4406 C   0  0  0  0  0  0  0  0  0  0  0  0
  -28.6942  -28.6902   14.8959 C   0  0  0  0  0  0  0  0  0  0  0  0
  -28.8641  -23.0453   21.1390 C   0  0  0  0  0  0  0  0  0  1  0  0
  -29.0619  -21.7360   20.3998 C   0  0  0  0  0  0  0  0  0  0  0  0
  -24.1511  -29.0508   16.9121 C   0  0  1  0  0  0  0  0  0  0  0  0
  -26.4512  -29.1563   13.9008 C   0  0  2  0  0  0  0  0  0  0  0  0
  -22.6215  -29.2790   16.7524 C   0  0  0  0  0  0  0  0  0  0  0  0
  -25.8927  -12.1504   20.7939 N   0  0  0  0  0  0  0  0  0  0  0  0
  -26.0631  -13.4574   21.0558 N   0  0  0  0  0  0  0  0  0  0  0  0
  -28.2743  -17.2355   17.9751 N   0  0  0  0  0  0  0  0  0  0  0  0
  -25.3393  -29.0611   19.0828 N   0  0  0  0  0  0  0  0  0  0  0  0
  -28.8619  -15.2400   19.1424 N   0  0  0  0  0  0  0  0  0  0  0  0
  -24.9389  -15.3885   21.8417 N   0  0  0  0  0  0  0  0  0  0  0  0
  -21.7535  -12.1911   22.0018 N   0  0  0  0  0  0  0  0  0  0  0  0
  -24.4456  -30.5925   22.1789 N   0  0  0  0  0  0  0  0  0  0  0  0
  -24.9368  -29.4271   15.7418 N   0  0  0  0  0  0  0  0  0  0  0  0
  -27.8006  -28.5509   13.7173 N   0  3  0  0  0  0  0  0  0  0  0  0
  -22.1855  -14.4099   22.3876 O   0  0  0  0  0  0  0  0  0  0  0  0
  -23.9479  -28.5085   21.2669 O   0  0  0  0  0  0  0  0  0  0  0  0
  -24.6498  -31.0519   18.0841 O   0  0  0  0  0  0  0  0  0  0  0  0
  -25.8939  -27.3433   15.3973 O   0  0  0  0  0  0  0  0  0  0  0  0
  -30.1383  -17.1383   19.3338 O   0  0  0  0  0  0  0  0  0  0  0  0
  -22.3746   -6.8481   20.5518 O   0  0  0  0  0  0  0  0  0  0  0  0
  -27.5833  -23.5727   20.8150 O   0  0  0  0  0  0  0  0  0  1  0  0
  -29.0031  -21.9801   18.9962 O   0  0  0  0  0  0  0  0  0  0  0  0
  -17.3870   -6.4811   18.2295 F   0  0  0  0  0  0  0  0  0  0  0  0
  -21.9937   -5.3932   18.2321 F   0  0  0  0  0  0  0  0  0  0  0  0
  1  2  1  0  0  0  0
  1  5  2  0  0  0  0
  2  6  2  0  0  0  0
  3  9  2  0  0  0  0
  3 18  1  0  0  0  0
  4 10  1  0  0  0  0
  4 18  2  0  0  0  0
  5 20  1  0  0  0  0
  6 22  1  0  0  0  0
  7 11  2  0  0  0  0
  7 21  1  0  0  0  0
  8 12  2  0  0  0  0
  8 23  1  0  0  0  0
  9 26  1  0  0  0  0
 10 26  2  0  0  0  0
 11 27  1  0  0  0  0
 12 28  1  0  0  0  0
 13 14  2  0  0  0  0
 13 29  1  0  0  0  0
 14 30  1  0  0  0  0
 15 24  1  0  0  0  0
 15 27  2  0  0  0  0
 16 25  1  0  0  0  0
 16 28  2  0  0  0  0
 17 30  2  0  0  0  0
 17 31  1  0  0  0  0
 18 32  1  0  0  0  0
 19 32  1  0  0  0  0
 19 33  2  0  0  0  0
 19 34  1  0  0  0  0
 20 22  2  0  0  0  0
 20 39  1  0  0  0  0
 21 24  2  0  0  0  0
 21 40  1  0  0  0  0
 22 50  1  0  0  0  0
 23 25  2  0  0  0  0
 23 41  1  0  0  0  0
 24 42  1  0  0  0  0
 25 65  1  0  0  0  0
 26 78  1  0  0  0  0
 27 79  1  0  0  0  0
 28 80  1  0  0  0  0
 29 31  2  0  0  0  0
 29 78  1  0  0  0  0
 30 81  1  0  0  0  0
 31 82  1  0  0  0  0
 32 63  2  0  0  0  0
 33 64  1  0  0  0  0
 33 68  1  0  0  0  0
 34 69  1  0  0  0  0
 34 73  2  0  0  0  0
 35 51  1  0  0  0  0
 35 70  1  0  0  0  0
 35 74  2  0  0  0  0
 36 60  1  0  0  0  0
 36 66  1  0  0  0  0
 36 75  2  0  0  0  0
 37 61  1  0  0  0  0
 37 71  1  0  0  0  0
 37 76  2  0  0  0  0
 38 65  1  0  0  0  0
 38 67  1  0  0  0  0
 38 77  2  0  0  0  0
 39 43  1  0  0  0  0
 40 51  1  0  0  0  0
 41 47  1  0  0  0  0
 42 66  1  0  0  0  0
 43 45  1  0  0  0  0
 44 46  1  0  0  0  0
 44 48  1  0  0  0  0
 45 50  1  0  0  0  0
 46 52  1  0  0  0  0
 47 65  1  0  0  0  0
 48 67  1  0  0  0  0
 49 52  1  0  0  0  0
 49 67  1  0  0  0  0
 50 70  1  0  0  0  0
 51 66  1  0  0  0  0
 52 64  1  0  0  0  0
 53 61  1  0  0  0  0
 54 62  1  0  0  0  0
 55 62  1  0  0  0  0
 56 62  1  0  0  0  0
 57 72  1  0  0  0  0
 58 59  1  0  0  0  0
 58 79  1  0  0  0  0
 59 80  1  0  0  0  0
 60 62  1  0  0  0  0
 60 71  1  0  0  0  0
 61 72  1  0  0  0  0
 63 64  1  0  0  0  0
M  CHG  1  72   1
M  ISO  4  38 100  58 101  65 100  79 101
M  END
> <Batch ID>
0001

> <Smiles>
CNC(C)C(=O)NC(C(=O)N1Cc2cc([101O:1][101CH2:1]COc3ccc4c(c3)[100N:0]([100C:0](=O)N3CCCC(n5nc(-c6ccc(Oc7ccc(F)cc7F)cc6)c(C(N)=O)c5N)C3)CC4)ccc2CC1C(=O)NC1CCCc2ccccc21)C(C)(C)C

> <Shape>
0.238

> <Color>
0.106

> <Negative vol penalty>
0.000

$$$$

  -OEChem-04042320143D

 92102  0     1  0  0  0  0  0999 V2000
  -27.4043  -23.2293   17.5964 C   0  0  0  0  0  0  0  0  0  0  0  0
  -26.2683  -23.5725   18.3225 C   0  0  0  0  0  0  0  0  0  0  0  0
  -14.7747  -24.7038   25.8406 C   0  0  0  0  0  0  0  0  0  0  0  0
  -14.4428  -25.4310   24.6889 C   0  0  0  0  0  0  0  0  0  0  0  0
  -26.9198  -13.6765   19.7464 C   0  0  0  0  0  0  0  0  0  0  0  0
  -24.8241  -14.2464   20.8050 C   0  0  0  0  0  0  0  0  0  0  0  0
  -28.6461  -23.7479   17.9607 C   0  0  0  0  0  0  0  0  0  0  0  0
  -26.3737  -24.4338   19.4140 C   0  0  0  0  0  0  0  0  0  0  0  0
  -16.0869  -24.6884   26.3121 C   0  0  0  0  0  0  0  0  0  0  0  0
  -22.7531  -27.9743   19.4519 C   0  0  0  0  0  0  0  0  0  0  0  0
  -15.4173  -26.1513   23.9903 C   0  0  0  0  0  0  0  0  0  0  0  0
  -23.4869  -24.6595   24.0278 C   0  0  0  0  0  0  0  0  0  0  0  0
  -21.8548  -23.6416   22.5659 C   0  0  0  0  0  0  0  0  0  0  0  0
  -24.4918  -23.8898   23.4419 C   0  0  0  0  0  0  0  0  0  0  0  0
  -22.8598  -22.8719   21.9799 C   0  0  0  0  0  0  0  0  0  0  0  0
  -26.7877  -12.3616   20.1927 C   0  0  0  0  0  0  0  0  0  0  0  0
  -24.6920  -12.9314   21.2512 C   0  0  0  0  0  0  0  0  0  0  0  0
  -21.4876  -27.5862   19.8895 C   0  0  0  0  0  0  0  0  0  0  0  0
  -23.7477   -9.9507   19.9691 C   0  0  0  0  0  0  0  0  0  0  0  0
  -22.5018   -9.3407   19.8238 C   0  0  0  0  0  0  0  0  0  0  0  0
  -21.9439  -28.5567   22.0504 C   0  0  0  0  0  0  0  0  0  0  0  0
  -22.3757   -9.0285   22.2163 C   0  0  0  0  0  0  0  0  0  0  0  0
  -25.9380  -14.6189   20.0526 C   0  0  0  0  0  0  0  0  0  0  0  0
  -25.6066  -16.5146   18.3780 C   0  0  0  0  0  0  0  0  0  0  0  0
  -28.7654  -24.6236   19.0514 C   0  0  0  0  0  0  0  0  0  0  0  0
  -23.6292  -28.6480   20.3151 C   0  0  0  0  0  0  0  0  0  0  0  0
  -27.6185  -24.9636   19.7941 C   0  0  0  0  0  0  0  0  0  0  0  0
  -17.0480  -25.3992   25.6096 C   0  0  0  0  0  0  0  0  0  0  0  0
  -23.2190  -28.9545   21.6204 C   0  0  0  0  0  0  0  0  0  0  0  0
  -16.7223  -26.1237   24.4599 C   0  0  0  0  0  0  0  0  0  0  0  0
  -22.1684  -24.5354   23.5898 C   0  0  0  0  0  0  0  0  0  0  0  0
  -24.1783  -22.9960   22.4179 C   0  0  0  0  0  0  0  0  0  0  0  0
  -25.6738  -11.9890   20.9451 C   0  0  0  0  0  0  0  0  0  0  0  0
  -21.0839  -27.8748   21.1898 C   0  0  0  0  0  0  0  0  0  0  0  0
  -24.3078  -10.0995   21.2379 C   0  0  0  0  0  0  0  0  0  0  0  0
  -21.8157   -8.8797   20.9474 C   0  0  0  0  0  0  0  0  0  0  0  0
  -23.6218   -9.6385   22.3615 C   0  0  0  0  0  0  0  0  0  0  0  0
  -26.0742  -15.9775   19.5924 C   0  0  0  0  0  0  0  0  0  0  0  0
  -25.9847  -17.8344   18.4181 C   0  0  0  0  0  0  0  0  0  0  0  0
  -24.8941  -15.8775   17.3094 C   0  0  0  0  0  0  0  0  0  0  0  0
  -19.7950  -25.3170   23.8730 C   0  0  0  0  0  0  0  0  0  0  0  0
  -26.4991  -28.0262   21.5319 C   0  0  0  0  0  0  0  0  0  0  0  0
  -17.8839  -27.7010   22.9249 C   0  0  0  0  0  0  0  0  0  0  0  0
  -26.2392  -31.0504   22.6761 C   0  0  0  0  0  0  0  0  0  0  0  0
  -24.2100  -33.6352   23.5970 C   0  0  0  0  0  0  0  0  0  0  0  0
  -26.5570  -22.2150   22.1388 C   0  0  0  0  0  0  0  0  0  0  0  0
  -30.1361  -25.1214   19.4362 C   0  0  0  0  0  0  0  0  0  0  0  0
  -24.9808  -29.0835   19.8193 C   0  0  0  0  0  0  0  0  0  0  0  0
  -18.4923  -25.5644   25.9722 C   0  0  0  0  0  0  0  0  0  0  0  0
  -24.1142  -29.6937   22.5800 C   0  0  0  0  0  0  0  0  0  0  0  0
  -30.1057  -26.3236   20.3764 C   0  0  0  0  0  0  0  0  0  0  0  0
  -29.3797  -20.4121   20.9308 C   0  0  0  0  0  0  0  0  0  0  0  0
  -29.1126  -26.0895   21.5104 C   0  0  0  0  0  0  0  0  0  0  0  0
  -28.7710  -19.1368   20.3433 C   0  0  0  0  0  0  0  0  0  0  0  0
  -28.6424  -20.8645   22.1899 C   0  0  0  0  0  0  0  0  0  0  0  0
  -26.5804  -19.7365   21.4517 C   0  0  0  0  0  0  0  0  0  0  0  0
  -27.6886  -25.9145   20.9692 C   0  0  1  0  0  0  0  0  0  0  0  0
  -19.0422  -26.2907   24.7346 C   0  0  2  0  0  0  0  0  0  0  0  0
  -25.9854  -29.3104   20.9447 C   0  0  1  0  0  0  0  0  0  0  0  0
  -27.2490  -19.2781   20.1454 C   0  0  2  0  0  0  0  0  0  0  0  0
  -24.2863  -35.9640   24.5289 C   0  0  0  0  0  0  0  0  0  0  0  0
  -26.8347  -29.9196   25.4467 C   0  0  0  0  0  0  0  0  0  0  0  0
  -25.9733  -32.0561   26.4274 C   0  0  0  0  0  0  0  0  0  0  0  0
  -27.9739  -32.0870   24.9376 C   0  0  0  0  0  0  0  0  0  0  0  0
  -22.9076  -34.7650   21.1916 C   0  0  0  0  0  0  0  0  0  0  0  0
  -19.2302  -28.3112   22.6143 C   0  0  0  0  0  0  0  0  0  1  0  0
  -25.6894  -31.6729   23.9367 C   0  0  1  0  0  0  0  0  0  0  0  0
  -24.2526  -35.1162   23.2667 C   0  0  2  0  0  0  0  0  0  0  0  0
  -26.6014  -31.4183   25.1699 C   0  0  0  0  0  0  0  0  0  0  0  0
  -26.7016  -16.8822   20.3487 N   0  0  0  0  0  0  0  0  0  0  0  0
  -26.6310  -18.0011   19.6076 N   0  0  0  0  0  0  0  0  0  0  0  0
  -17.8774  -26.7575   23.9450 N   0  0  0  0  0  0  0  0  0  0  0  0
  -25.4286  -30.0927   22.0502 N   0  0  0  0  0  0  0  0  0  0  0  0
  -27.2065  -20.9807   21.9258 N   0  0  0  0  0  0  0  0  0  0  0  0
  -25.8242  -18.8570   17.5516 N   0  0  0  0  0  0  0  0  0  0  0  0
  -24.5858  -14.5156   17.4304 N   0  0  0  0  0  0  0  0  0  0  0  0
  -21.1487  -25.3159   24.1844 N   0  0  0  0  0  0  0  0  0  0  0  0
  -25.1989  -22.2140   21.8225 N   0  0  0  0  0  0  0  0  0  0  0  0
  -27.1205  -27.1981   20.6168 N   0  0  0  0  0  0  0  0  0  0  0  0
  -25.4732  -33.0837   23.6345 N   0  0  0  0  0  0  0  0  0  0  0  0
  -23.0532  -35.5044   22.4718 N   0  3  0  0  0  0  0  0  0  0  0  0
  -24.5556  -16.4935   16.2704 O   0  0  0  0  0  0  0  0  0  0  0  0
  -19.2122  -24.6447   23.0284 O   0  0  0  0  0  0  0  0  0  0  0  0
  -26.3444  -27.8039   22.7270 O   0  0  0  0  0  0  0  0  0  0  0  0
  -16.8996  -28.0716   22.2835 O   0  0  0  0  0  0  0  0  0  0  0  0
  -27.3438  -31.4061   22.2580 O   0  0  0  0  0  0  0  0  0  0  0  0
  -23.1613  -33.0290   23.8049 O   0  0  0  0  0  0  0  0  0  0  0  0
  -27.1669  -23.2078   22.5442 O   0  0  0  0  0  0  0  0  0  0  0  0
  -25.5445  -10.7060   21.3805 O   0  0  0  0  0  0  0  0  0  0  0  0
  -19.8494  -27.4965   21.6198 O   0  0  0  0  0  0  0  0  0  1  0  0
  -20.6186   -8.2953   20.8080 F   0  0  0  0  0  0  0  0  0  0  0  0
  -24.1542   -9.7797   23.5831 F   0  0  0  0  0  0  0  0  0  0  0  0
  1  2  1  0  0  0  0
  1  7  2  0  0  0  0
  2  8  2  0  0  0  0
  3  4  1  0  0  0  0
  3  9  2  0  0  0  0
  4 11  2  0  0  0  0
  5 16  2  0  0  0  0
  5 23  1  0  0  0  0
  6 17  1  0  0  0  0
  6 23  2  0  0  0  0
  7 25  1  0  0  0  0
  8 27  1  0  0  0  0
  9 28  1  0  0  0  0
 10 18  2  0  0  0  0
 10 26  1  0  0  0  0
 11 30  1  0  0  0  0
 12 14  2  0  0  0  0
 12 31  1  0  0  0  0
 13 15  1  0  0  0  0
 13 31  2  0  0  0  0
 14 32  1  0  0  0  0
 15 32  2  0  0  0  0
 16 33  1  0  0  0  0
 17 33  2  0  0  0  0
 18 34  1  0  0  0  0
 19 20  2  0  0  0  0
 19 35  1  0  0  0  0
 20 36  1  0  0  0  0
 21 29  1  0  0  0  0
 21 34  2  0  0  0  0
 22 36  2  0  0  0  0
 22 37  1  0  0  0  0
 23 38  1  0  0  0  0
 24 38  1  0  0  0  0
 24 39  2  0  0  0  0
 24 40  1  0  0  0  0
 25 27  2  0  0  0  0
 25 47  1  0  0  0  0
 26 29  2  0  0  0  0
 26 48  1  0  0  0  0
 27 57  1  0  0  0  0
 28 30  2  0  0  0  0
 28 49  1  0  0  0  0
 29 50  1  0  0  0  0
 30 72  1  0  0  0  0
 31 77  1  0  0  0  0
 32 78  1  0  0  0  0
 33 89  1  0  0  0  0
 34 90  1  0  0  0  0
 35 37  2  0  0  0  0
 35 89  1  0  0  0  0
 36 91  1  0  0  0  0
 37 92  1  0  0  0  0
 38 70  2  0  0  0  0
 39 71  1  0  0  0  0
 39 75  1  0  0  0  0
 40 76  1  0  0  0  0
 40 82  2  0  0  0  0
 41 58  1  0  0  0  0
 41 77  1  0  0  0  0
 41 83  2  0  0  0  0
 42 59  1  0  0  0  0
 42 79  1  0  0  0  0
 42 84  2  0  0  0  0
 43 66  1  0  0  0  0
 43 72  1  0  0  0  0
 43 85  2  0  0  0  0
 44 67  1  0  0  0  0
 44 73  1  0  0  0  0
 44 86  2  0  0  0  0
 45 68  1  0  0  0  0
 45 80  1  0  0  0  0
 45 87  2  0  0  0  0
 46 74  1  0  0  0  0
 46 78  1  0  0  0  0
 46 88  2  0  0  0  0
 47 51  1  0  0  0  0
 48 59  1  0  0  0  0
 49 58  1  0  0  0  0
 50 73  1  0  0  0  0
 51 53  1  0  0  0  0
 52 54  1  0  0  0  0
 52 55  1  0  0  0  0
 53 57  1  0  0  0  0
 54 60  1  0  0  0  0
 55 74  1  0  0  0  0
 56 60  1  0  0  0  0
 56 74  1  0  0  0  0
 57 79  1  0  0  0  0
 58 72  1  0  0  0  0
 59 73  1  0  0  0  0
 60 71  1  0  0  0  0
 61 68  1  0  0  0  0
 62 69  1  0  0  0  0
 63 69  1  0  0  0  0
 64 69  1  0  0  0  0
 65 81  1  0  0  0  0
 66 90  1  0  0  0  0
 67 69  1  0  0  0  0
 67 80  1  0  0  0  0
 68 81  1  0  0  0  0
 70 71  1  0  0  0  0
M  CHG  1  81   1
M  ISO  4  46 100  66 101  78 100  90 101
M  END
> <Batch ID>
0001

> <Smiles>
CNC(C)C(=O)NC(C(=O)N1Cc2cc([101O:1][101CH2:1]C(=O)N3c4ccccc4CC3C(=O)Nc3ccc([100NH:0][100C:0](=O)N4CCCC(n5nc(-c6ccc(Oc7ccc(F)cc7F)cc6)c(C(N)=O)c5N)C4)cc3)ccc2CC1C(=O)NC1CCCc2ccccc21)C(C)(C)C

> <Shape>
0.287

> <Color>
0.068

> <Negative vol penalty>
0.000

$$$$

  -OEChem-04042320143D

 80 88  0     1  0  0  0  0  0999 V2000
  -23.6037  -32.7327   26.6389 C   0  0  0  0  0  0  0  0  0  0  0  0
  -24.8776  -32.2842   26.3049 C   0  0  0  0  0  0  0  0  0  0  0  0
  -24.0384   -9.7255   21.7182 C   0  0  0  0  0  0  0  0  0  0  0  0
  -24.6425  -10.9968   23.6819 C   0  0  0  0  0  0  0  0  0  0  0  0
  -22.4822  -32.0179   26.2204 C   0  0  0  0  0  0  0  0  0  0  0  0
  -25.0306  -31.1199   25.5529 C   0  0  0  0  0  0  0  0  0  0  0  0
  -29.3094  -28.1866   20.6129 C   0  0  0  0  0  0  0  0  0  0  0  0
  -28.4287  -19.3882   20.5060 C   0  0  0  0  0  0  0  0  0  0  0  0
  -30.7877  -18.9562   20.2141 C   0  0  0  0  0  0  0  0  0  0  0  0
  -23.6100   -8.6752   22.5300 C   0  0  0  0  0  0  0  0  0  0  0  0
  -24.2141   -9.9465   24.4937 C   0  0  0  0  0  0  0  0  0  0  0  0
  -30.0416  -27.0241   20.3755 C   0  0  0  0  0  0  0  0  0  0  0  0
  -28.7132  -20.7096   20.8503 C   0  0  0  0  0  0  0  0  0  0  0  0
  -31.0723  -20.2777   20.5583 C   0  0  0  0  0  0  0  0  0  0  0  0
  -20.8982   -7.9212   24.4037 C   0  0  0  0  0  0  0  0  0  0  0  0
  -19.6779   -7.3201   24.0957 C   0  0  0  0  0  0  0  0  0  0  0  0
  -28.0298  -25.9145   19.6402 C   0  0  0  0  0  0  0  0  0  0  0  0
  -20.7990   -5.2023   23.7872 C   0  0  0  0  0  0  0  0  0  0  0  0
  -24.5547  -10.8863   22.2942 C   0  0  0  0  0  0  0  0  0  0  0  0
  -24.2291  -13.0552   20.9913 C   0  0  0  0  0  0  0  0  0  0  0  0
  -22.6213  -30.8496   25.4547 C   0  0  0  0  0  0  0  0  0  0  0  0
  -27.9277  -28.2185   20.3757 C   0  0  0  0  0  0  0  0  0  0  0  0
  -23.9099  -30.3881   25.1249 C   0  0  0  0  0  0  0  0  0  0  0  0
  -27.2828  -27.0794   19.8730 C   0  0  0  0  0  0  0  0  0  0  0  0
  -29.4659  -18.5115   20.1880 C   0  0  0  0  0  0  0  0  0  0  0  0
  -23.6979   -8.7857   23.9177 C   0  0  0  0  0  0  0  0  0  0  0  0
  -30.0350  -21.1544   20.8764 C   0  0  0  0  0  0  0  0  0  0  0  0
  -29.4013  -25.8869   19.8918 C   0  0  0  0  0  0  0  0  0  0  0  0
  -22.0690   -7.1629   24.4033 C   0  0  0  0  0  0  0  0  0  0  0  0
  -19.6282   -5.9606   23.7875 C   0  0  0  0  0  0  0  0  0  0  0  0
  -22.0194   -5.8035   24.0952 C   0  0  0  0  0  0  0  0  0  0  0  0
  -24.9979  -11.9714   21.4562 C   0  0  0  0  0  0  0  0  0  0  0  0
  -25.1050  -13.8005   20.2404 C   0  0  0  0  0  0  0  0  0  0  0  0
  -22.8468  -13.3610   21.2181 C   0  0  0  0  0  0  0  0  0  0  0  0
  -25.3524  -28.6868   22.1791 C   0  0  0  0  0  0  0  0  0  0  0  0
  -23.8160  -28.5983   19.3236 C   0  0  0  0  0  0  0  0  0  0  0  0
  -23.8009  -27.5601   16.0727 C   0  0  0  0  0  0  0  0  0  0  0  0
  -30.0881  -16.1705   19.4959 C   0  0  0  0  0  0  0  0  0  0  0  0
  -21.3810  -30.0848   25.0655 C   0  0  0  0  0  0  0  0  0  0  0  0
  -27.1569  -29.4884   20.6116 C   0  0  0  0  0  0  0  0  0  0  0  0
  -25.8050  -27.0680   19.5827 C   0  0  0  0  0  0  0  0  0  0  0  0
  -21.6176  -29.0659   23.9537 C   0  0  0  0  0  0  0  0  0  0  0  0
  -29.7771  -12.7363   18.6092 C   0  0  0  0  0  0  0  0  0  0  0  0
  -22.8728  -28.2471   24.2383 C   0  0  0  0  0  0  0  0  0  0  0  0
  -28.4427  -12.3203   19.2326 C   0  0  0  0  0  0  0  0  0  0  0  0
  -30.5327  -13.7256   19.4945 C   0  0  0  0  0  0  0  0  0  0  0  0
  -28.4296  -14.4937   20.5222 C   0  0  0  0  0  0  0  0  0  0  0  0
  -24.1161  -29.1431   24.2896 C   0  0  1  0  0  0  0  0  0  0  0  0
  -25.6647  -29.2513   20.8221 C   0  0  1  0  0  0  0  0  0  0  0  0
  -27.6025  -13.5476   19.6365 C   0  0  2  0  0  0  0  0  0  0  0  0
  -22.3923  -27.6068   13.9963 C   0  0  0  0  0  0  0  0  0  0  0  0
  -22.0062  -26.4448   20.5056 C   0  0  0  0  0  0  0  0  0  0  0  0
  -21.2844  -25.8720   18.1778 C   0  0  0  0  0  0  0  0  0  0  0  0
  -20.8257  -28.1437   19.1006 C   0  0  0  0  0  0  0  0  0  0  0  0
  -25.8720  -29.0381   14.5612 C   0  0  0  0  0  0  0  0  0  0  0  0
  -31.4746  -23.0311   20.6290 C   0  0  0  0  0  0  0  0  0  0  0  0
  -31.2605  -24.5247   20.4780 C   0  0  0  0  0  0  0  0  0  1  0  0
  -23.1936  -27.5139   18.4776 C   0  0  1  0  0  0  0  0  0  0  0  0
  -23.4968  -28.2975   14.7811 C   0  0  2  0  0  0  0  0  0  0  0  0
  -21.8550  -26.9929   19.0726 C   0  0  0  0  0  0  0  0  0  0  0  0
  -26.2647  -12.0199   21.0356 N   0  0  0  0  0  0  0  0  0  0  0  0
  -26.2986  -13.1431   20.2986 N   0  0  0  0  0  0  0  0  0  0  0  0
  -25.0938  -28.3320   19.8355 N   0  0  0  0  0  0  0  0  0  0  0  0
  -29.6758  -14.8640   19.8332 N   0  0  0  0  0  0  0  0  0  0  0  0
  -24.9629  -14.9473   19.5425 N   0  0  0  0  0  0  0  0  0  0  0  0
  -22.0914  -12.4891   22.0140 N   0  0  0  0  0  0  0  0  0  0  0  0
  -29.1770  -17.1691   19.8384 N   0  0  0  0  0  0  0  0  0  0  0  0
  -24.5408  -29.4954   22.9517 N   0  0  0  0  0  0  0  0  0  0  0  0
  -23.0753  -28.0638   17.1314 N   0  0  0  0  0  0  0  0  0  0  0  0
  -24.7133  -28.3622   13.9228 N   0  3  0  0  0  0  0  0  0  0  0  0
  -22.2936  -14.3687   20.7159 O   0  0  0  0  0  0  0  0  0  0  0  0
  -25.8125  -27.5975   22.5008 O   0  0  0  0  0  0  0  0  0  0  0  0
  -23.1943  -29.6461   19.5170 O   0  0  0  0  0  0  0  0  0  0  0  0
  -24.5992  -26.6277   16.1352 O   0  0  0  0  0  0  0  0  0  0  0  0
  -31.1575  -16.3850   18.9194 O   0  0  0  0  0  0  0  0  0  0  0  0
  -23.2797   -7.7611   24.7101 O   0  0  0  0  0  0  0  0  0  0  0  0
  -30.3146  -22.4523   21.2145 O   0  0  0  0  0  0  0  0  0  0  0  0
  -30.1134  -24.7508   19.6598 O   0  0  0  0  0  0  0  0  0  1  0  0
  -18.4560   -5.3831   23.4933 F   0  0  0  0  0  0  0  0  0  0  0  0
  -23.1406   -5.0696   24.0944 F   0  0  0  0  0  0  0  0  0  0  0  0
  1  2  1  0  0  0  0
  1  5  2  0  0  0  0
  2  6  2  0  0  0  0
  3 10  2  0  0  0  0
  3 19  1  0  0  0  0
  4 11  1  0  0  0  0
  4 19  2  0  0  0  0
  5 21  1  0  0  0  0
  6 23  1  0  0  0  0
  7 12  2  0  0  0  0
  7 22  1  0  0  0  0
  8 13  2  0  0  0  0
  8 25  1  0  0  0  0
  9 14  1  0  0  0  0
  9 25  2  0  0  0  0
 10 26  1  0  0  0  0
 11 26  2  0  0  0  0
 12 28  1  0  0  0  0
 13 27  1  0  0  0  0
 14 27  2  0  0  0  0
 15 16  2  0  0  0  0
 15 29  1  0  0  0  0
 16 30  1  0  0  0  0
 17 24  1  0  0  0  0
 17 28  2  0  0  0  0
 18 30  2  0  0  0  0
 18 31  1  0  0  0  0
 19 32  1  0  0  0  0
 20 32  1  0  0  0  0
 20 33  2  0  0  0  0
 20 34  1  0  0  0  0
 21 23  2  0  0  0  0
 21 39  1  0  0  0  0
 22 24  2  0  0  0  0
 22 40  1  0  0  0  0
 23 48  1  0  0  0  0
 24 41  1  0  0  0  0
 25 67  1  0  0  0  0
 26 76  1  0  0  0  0
 27 77  1  0  0  0  0
 28 78  1  0  0  0  0
 29 31  2  0  0  0  0
 29 76  1  0  0  0  0
 30 79  1  0  0  0  0
 31 80  1  0  0  0  0
 32 61  2  0  0  0  0
 33 62  1  0  0  0  0
 33 65  1  0  0  0  0
 34 66  1  0  0  0  0
 34 71  2  0  0  0  0
 35 49  1  0  0  0  0
 35 68  1  0  0  0  0
 35 72  2  0  0  0  0
 36 58  1  0  0  0  0
 36 63  1  0  0  0  0
 36 73  2  0  0  0  0
 37 59  1  0  0  0  0
 37 69  1  0  0  0  0
 37 74  2  0  0  0  0
 38 64  1  0  0  0  0
 38 67  1  0  0  0  0
 38 75  2  0  0  0  0
 39 42  1  0  0  0  0
 40 49  1  0  0  0  0
 41 63  1  0  0  0  0
 42 44  1  0  0  0  0
 43 45  1  0  0  0  0
 43 46  1  0  0  0  0
 44 48  1  0  0  0  0
 45 50  1  0  0  0  0
 46 64  1  0  0  0  0
 47 50  1  0  0  0  0
 47 64  1  0  0  0  0
 48 68  1  0  0  0  0
 49 63  1  0  0  0  0
 50 62  1  0  0  0  0
 51 59  1  0  0  0  0
 52 60  1  0  0  0  0
 53 60  1  0  0  0  0
 54 60  1  0  0  0  0
 55 70  1  0  0  0  0
 56 57  1  0  0  0  0
 56 77  1  0  0  0  0
 57 78  1  0  0  0  0
 58 60  1  0  0  0  0
 58 69  1  0  0  0  0
 59 70  1  0  0  0  0
 61 62  1  0  0  0  0
M  CHG  1  70   1
M  ISO  4  38 100  57 101  67 100  78 101
M  END
> <Batch ID>
0001

> <Smiles>
CNC(C)C(=O)NC(C(=O)N1Cc2cc([101O:1][101CH2:1]COc3ccc([100NH:0][100C:0](=O)N4CCCC(n5nc(-c6ccc(Oc7ccc(F)cc7F)cc6)c(C(N)=O)c5N)C4)cc3)ccc2CC1C(=O)NC1CCCc2ccccc21)C(C)(C)C

> <Shape>
0.290

> <Color>
0.124

> <Negative vol penalty>
0.000

$$$$

  -OEChem-04042320143D

 73 80  0     1  0  0  0  0  0999 V2000
  -28.7807  -11.4027   19.8413 C   0  0  0  0  0  0  0  0  0  0  0  0
  -28.8747  -12.6791   19.2960 C   0  0  0  0  0  0  0  0  0  0  0  0
  -25.9114  -28.9143   20.8188 C   0  0  0  0  0  0  0  0  0  0  0  0
  -25.2447  -26.5922   20.8056 C   0  0  0  0  0  0  0  0  0  0  0  0
  -27.5741  -10.9659   20.3863 C   0  0  0  0  0  0  0  0  0  0  0  0
  -27.7616  -13.5191   19.2943 C   0  0  0  0  0  0  0  0  0  0  0  0
  -28.8908  -18.2435   20.7261 C   0  0  0  0  0  0  0  0  0  0  0  0
  -24.5811  -29.2972   20.6476 C   0  0  0  0  0  0  0  0  0  0  0  0
  -23.9144  -26.9751   20.6344 C   0  0  0  0  0  0  0  0  0  0  0  0
  -29.5037  -19.0657   19.7816 C   0  0  0  0  0  0  0  0  0  0  0  0
  -20.2991  -27.3512   20.5553 C   0  0  0  0  0  0  0  0  0  0  0  0
  -19.3346  -26.7145   21.3363 C   0  0  0  0  0  0  0  0  0  0  0  0
  -27.3782  -20.1087   19.3193 C   0  0  0  0  0  0  0  0  0  0  0  0
  -20.4277  -27.5133   23.3374 C   0  0  0  0  0  0  0  0  0  0  0  0
  -26.2432  -27.5618   20.8978 C   0  0  0  0  0  0  0  0  0  0  0  0
  -28.2943  -26.9641   22.2918 C   0  0  0  0  0  0  0  0  0  0  0  0
  -26.4483  -11.8044   20.4000 C   0  0  0  0  0  0  0  0  0  0  0  0
  -27.5128  -18.3403   20.9669 C   0  0  0  0  0  0  0  0  0  0  0  0
  -26.5384  -13.0925   19.8388 C   0  0  0  0  0  0  0  0  0  0  0  0
  -26.7507  -19.2883   20.2692 C   0  0  0  0  0  0  0  0  0  0  0  0
  -23.5826  -28.3276   20.5554 C   0  0  0  0  0  0  0  0  0  0  0  0
  -28.7469  -19.9965   19.0760 C   0  0  0  0  0  0  0  0  0  0  0  0
  -21.3280  -28.0688   21.1653 C   0  0  0  0  0  0  0  0  0  0  0  0
  -19.3988  -26.7956   22.7274 C   0  0  0  0  0  0  0  0  0  0  0  0
  -21.3923  -28.1499   22.5564 C   0  0  0  0  0  0  0  0  0  0  0  0
  -27.6173  -27.1656   21.0741 C   0  0  0  0  0  0  0  0  0  0  0  0
  -29.5659  -26.6003   21.9215 C   0  0  0  0  0  0  0  0  0  0  0  0
  -27.8165  -27.0941   23.6374 C   0  0  0  0  0  0  0  0  0  0  0  0
  -25.0394  -16.3661   20.6693 C   0  0  0  0  0  0  0  0  0  0  0  0
  -23.4301  -18.7916   22.1009 C   0  0  0  0  0  0  0  0  0  0  0  0
  -23.2352  -22.1273   22.7949 C   0  0  0  0  0  0  0  0  0  0  0  0
  -31.8053  -24.0606   16.9833 C   0  0  0  0  0  0  0  0  0  0  0  0
  -25.1525  -11.2708   20.9575 C   0  0  0  0  0  0  0  0  0  0  0  0
  -26.8716  -17.4645   22.0082 C   0  0  0  0  0  0  0  0  0  0  0  0
  -25.2716  -19.4460   20.5052 C   0  0  0  0  0  0  0  0  0  0  0  0
  -24.1234  -12.3586   21.2544 C   0  0  0  0  0  0  0  0  0  0  0  0
  -32.7528  -27.1859   18.4013 C   0  0  0  0  0  0  0  0  0  0  0  0
  -24.0228  -13.3319   20.0842 C   0  0  0  0  0  0  0  0  0  0  0  0
  -31.6052  -27.5169   19.3570 C   0  0  0  0  0  0  0  0  0  0  0  0
  -32.2517  -26.4924   17.1365 C   0  0  0  0  0  0  0  0  0  0  0  0
  -30.2768  -25.6255   18.3290 C   0  0  0  0  0  0  0  0  0  0  0  0
  -25.3600  -14.0420   19.8407 C   0  0  1  0  0  0  0  0  0  0  0  0
  -25.3693  -17.2948   21.8034 C   0  0  1  0  0  0  0  0  0  0  0  0
  -30.7390  -26.2758   19.6442 C   0  0  2  0  0  0  0  0  0  0  0  0
  -21.7856  -23.8170   23.9528 C   0  0  0  0  0  0  0  0  0  0  0  0
  -21.4554  -18.6861   19.7772 C   0  0  0  0  0  0  0  0  0  0  0  0
  -20.6243  -20.9432   20.4723 C   0  0  0  0  0  0  0  0  0  0  0  0
  -20.4056  -19.0030   22.0249 C   0  0  0  0  0  0  0  0  0  0  0  0
  -25.3980  -22.8660   24.6752 C   0  0  0  0  0  0  0  0  0  0  0  0
  -31.2354  -21.6456   16.9357 C   0  0  0  0  0  0  0  0  0  0  0  0
  -30.7465  -20.6355   17.9583 C   0  0  0  0  0  0  0  0  0  1  0  0
  -22.6870  -20.0136   21.6176 C   0  0  1  0  0  0  0  0  0  0  0  0
  -22.9697  -22.8728   24.0904 C   0  0  2  0  0  0  0  0  0  0  0  0
  -21.3206  -19.6574   20.9669 C   0  0  0  0  0  0  0  0  0  0  0  0
  -28.3944  -26.9480   20.0099 N   0  0  0  0  0  0  0  0  0  0  0  0
  -29.5730  -26.6061   20.5576 N   0  0  0  0  0  0  0  0  0  0  0  0
  -24.6895  -18.5623   21.5289 N   0  0  0  0  0  0  0  0  0  0  0  0
  -31.4385  -25.3228   17.4784 N   0  0  0  0  0  0  0  0  0  0  0  0
  -30.6675  -26.2792   22.6327 N   0  0  0  0  0  0  0  0  0  0  0  0
  -26.4833  -27.4765   23.8389 N   0  0  0  0  0  0  0  0  0  0  0  0
  -25.5584  -15.0937   20.8148 N   0  0  0  0  0  0  0  0  0  0  0  0
  -22.5873  -20.9105   22.7639 N   0  0  0  0  0  0  0  0  0  0  0  0
  -30.9843  -23.0048   17.3602 N   0  0  0  0  0  0  0  0  0  0  0  0
  -24.1650  -23.6719   24.4825 N   0  3  0  0  0  0  0  0  0  0  0  0
  -28.5547  -26.8935   24.6315 O   0  0  0  0  0  0  0  0  0  0  0  0
  -24.3627  -16.7733   19.7323 O   0  0  0  0  0  0  0  0  0  0  0  0
  -22.9152  -18.0710   22.9596 O   0  0  0  0  0  0  0  0  0  0  0  0
  -23.9432  -22.5808   21.8985 O   0  0  0  0  0  0  0  0  0  0  0  0
  -32.7944  -23.8864   16.2633 O   0  0  0  0  0  0  0  0  0  0  0  0
  -22.2844  -28.7009   20.3885 O   0  0  0  0  0  0  0  0  0  0  0  0
  -29.3424  -20.7999   18.1530 O   0  0  0  0  0  0  0  0  0  1  0  0
  -18.4716  -26.1855   23.4772 F   0  0  0  0  0  0  0  0  0  0  0  0
  -22.3777  -28.8388   23.1481 F   0  0  0  0  0  0  0  0  0  0  0  0
  1  2  1  0  0  0  0
  1  5  2  0  0  0  0
  2  6  2  0  0  0  0
  3  8  2  0  0  0  0
  3 15  1  0  0  0  0
  4  9  1  0  0  0  0
  4 15  2  0  0  0  0
  5 17  1  0  0  0  0
  6 19  1  0  0  0  0
  7 10  2  0  0  0  0
  7 18  1  0  0  0  0
  8 21  1  0  0  0  0
  9 21  2  0  0  0  0
 10 22  1  0  0  0  0
 11 12  2  0  0  0  0
 11 23  1  0  0  0  0
 12 24  1  0  0  0  0
 13 20  1  0  0  0  0
 13 22  2  0  0  0  0
 14 24  2  0  0  0  0
 14 25  1  0  0  0  0
 15 26  1  0  0  0  0
 16 26  1  0  0  0  0
 16 27  2  0  0  0  0
 16 28  1  0  0  0  0
 17 19  2  0  0  0  0
 17 33  1  0  0  0  0
 18 20  2  0  0  0  0
 18 34  1  0  0  0  0
 19 42  1  0  0  0  0
 20 35  1  0  0  0  0
 21 70  1  0  0  0  0
 22 71  1  0  0  0  0
 23 25  2  0  0  0  0
 23 70  1  0  0  0  0
 24 72  1  0  0  0  0
 25 73  1  0  0  0  0
 26 55  2  0  0  0  0
 27 56  1  0  0  0  0
 27 59  1  0  0  0  0
 28 60  1  0  0  0  0
 28 65  2  0  0  0  0
 29 43  1  0  0  0  0
 29 61  1  0  0  0  0
 29 66  2  0  0  0  0
 30 52  1  0  0  0  0
 30 57  1  0  0  0  0
 30 67  2  0  0  0  0
 31 53  1  0  0  0  0
 31 62  1  0  0  0  0
 31 68  2  0  0  0  0
 32 58  1  0  0  0  0
 32 63  1  0  0  0  0
 32 69  2  0  0  0  0
 33 36  1  0  0  0  0
 34 43  1  0  0  0  0
 35 57  1  0  0  0  0
 36 38  1  0  0  0  0
 37 39  1  0  0  0  0
 37 40  1  0  0  0  0
 38 42  1  0  0  0  0
 39 44  1  0  0  0  0
 40 58  1  0  0  0  0
 41 44  1  0  0  0  0
 41 58  1  0  0  0  0
 42 61  1  0  0  0  0
 43 57  1  0  0  0  0
 44 56  1  0  0  0  0
 45 53  1  0  0  0  0
 46 54  1  0  0  0  0
 47 54  1  0  0  0  0
 48 54  1  0  0  0  0
 49 64  1  0  0  0  0
 50 51  1  0  0  0  0
 50 63  1  0  0  0  0
 51 71  1  0  0  0  0
 52 54  1  0  0  0  0
 52 62  1  0  0  0  0
 53 64  1  0  0  0  0
 55 56  1  0  0  0  0
M  CHG  1  64   1
M  ISO  4  32 100  51 101  63 100  71 101
M  END
> <Batch ID>
0001

> <Smiles>
CNC(C)C(=O)NC(C(=O)N1Cc2cc([101O:1][101CH2:1]C[100NH:0][100C:0](=O)N3CCCC(n4nc(-c5ccc(Oc6ccc(F)cc6F)cc5)c(C(N)=O)c4N)C3)ccc2CC1C(=O)NC1CCCc2ccccc21)C(C)(C)C

> <Shape>
0.226

> <Color>
0.066

> <Negative vol penalty>
0.000

$$$$

  -OEChem-04042320143D

 82 90  0     1  0  0  0  0  0999 V2000
  -28.4353  -32.7061   28.2182 C   0  0  0  0  0  0  0  0  0  0  0  0
  -28.3458  -31.6820   27.2809 C   0  0  0  0  0  0  0  0  0  0  0  0
  -24.6068   -8.6828   21.4336 C   0  0  0  0  0  0  0  0  0  0  0  0
  -23.1647  -10.6099   21.2236 C   0  0  0  0  0  0  0  0  0  0  0  0
  -27.3849  -33.6115   28.3622 C   0  0  0  0  0  0  0  0  0  0  0  0
  -27.2053  -31.5621   26.4876 C   0  0  0  0  0  0  0  0  0  0  0  0
  -28.3058  -30.6897   21.6222 C   0  0  0  0  0  0  0  0  0  0  0  0
  -26.1556  -18.0367   19.7879 C   0  0  0  0  0  0  0  0  0  0  0  0
  -28.3999  -18.4803   20.5646 C   0  0  0  0  0  0  0  0  0  0  0  0
  -23.7770   -8.1705   22.4309 C   0  0  0  0  0  0  0  0  0  0  0  0
  -22.3349  -10.0975   22.2208 C   0  0  0  0  0  0  0  0  0  0  0  0
  -28.6745  -29.3905   21.2758 C   0  0  0  0  0  0  0  0  0  0  0  0
  -25.7701  -19.3223   20.1677 C   0  0  0  0  0  0  0  0  0  0  0  0
  -28.0144  -19.7659   20.9444 C   0  0  0  0  0  0  0  0  0  0  0  0
  -20.8206   -6.5402   22.6173 C   0  0  0  0  0  0  0  0  0  0  0  0
  -20.4844   -5.1882   22.5496 C   0  0  0  0  0  0  0  0  0  0  0  0
  -26.4414  -28.9805   20.4607 C   0  0  0  0  0  0  0  0  0  0  0  0
  -21.5037   -4.8265   24.7100 C   0  0  0  0  0  0  0  0  0  0  0  0
  -24.3007   -9.9026   20.8300 C   0  0  0  0  0  0  0  0  0  0  0  0
  -25.0599  -10.2084   18.4139 C   0  0  0  0  0  0  0  0  0  0  0  0
  -26.2350  -33.5084   27.5636 C   0  0  0  0  0  0  0  0  0  0  0  0
  -26.9969  -31.1413   21.4000 C   0  0  0  0  0  0  0  0  0  0  0  0
  -26.1379  -32.4662   26.6220 C   0  0  0  0  0  0  0  0  0  0  0  0
  -26.0593  -30.2867   20.8028 C   0  0  0  0  0  0  0  0  0  0  0  0
  -27.4705  -17.6157   19.9865 C   0  0  0  0  0  0  0  0  0  0  0  0
  -22.6410   -8.8778   22.8245 C   0  0  0  0  0  0  0  0  0  0  0  0
  -26.6994  -20.1869   20.7459 C   0  0  0  0  0  0  0  0  0  0  0  0
  -27.7415  -28.5347   20.6976 C   0  0  0  0  0  0  0  0  0  0  0  0
  -21.4985   -7.0354   23.7313 C   0  0  0  0  0  0  0  0  0  0  0  0
  -20.8259   -4.3313   23.5960 C   0  0  0  0  0  0  0  0  0  0  0  0
  -21.8400   -6.1786   24.7777 C   0  0  0  0  0  0  0  0  0  0  0  0
  -25.1578  -10.4326   19.8002 C   0  0  0  0  0  0  0  0  0  0  0  0
  -26.0985  -10.9280   17.8755 C   0  0  0  0  0  0  0  0  0  0  0  0
  -24.1145   -9.4203   17.6785 C   0  0  0  0  0  0  0  0  0  0  0  0
  -24.6350  -32.1752   23.2590 C   0  0  0  0  0  0  0  0  0  0  0  0
  -23.1907  -32.7871   20.4197 C   0  0  0  0  0  0  0  0  0  0  0  0
  -22.9348  -32.0878   17.0892 C   0  0  0  0  0  0  0  0  0  0  0  0
  -29.1265  -15.7349   19.7276 C   0  0  0  0  0  0  0  0  0  0  0  0
  -25.1055  -34.4823   27.7882 C   0  0  0  0  0  0  0  0  0  0  0  0
  -26.6224  -32.5541   21.7548 C   0  0  0  0  0  0  0  0  0  0  0  0
  -24.6469  -30.7295   20.5247 C   0  0  0  0  0  0  0  0  0  0  0  0
  -24.0901  -34.5107   26.6487 C   0  0  0  0  0  0  0  0  0  0  0  0
  -30.4822  -12.5399   18.9334 C   0  0  0  0  0  0  0  0  0  0  0  0
  -23.7074  -33.0920   26.2391 C   0  0  0  0  0  0  0  0  0  0  0  0
  -29.2609  -11.6176   18.9334 C   0  0  0  0  0  0  0  0  0  0  0  0
  -30.3839  -13.6113   20.0179 C   0  0  0  0  0  0  0  0  0  0  0  0
  -27.9240  -13.4777   20.0009 C   0  0  0  0  0  0  0  0  0  0  0  0
  -24.9276  -32.3180   25.7258 C   0  0  1  0  0  0  0  0  0  0  0  0
  -25.1217  -32.7420   21.9554 C   0  0  1  0  0  0  0  0  0  0  0  0
  -27.9472  -12.4222   18.8833 C   0  0  2  0  0  0  0  0  0  0  0  0
  -21.6379  -32.7230   15.0369 C   0  0  0  0  0  0  0  0  0  0  0  0
  -20.8142  -31.1552   21.4192 C   0  0  0  0  0  0  0  0  0  0  0  0
  -19.9998  -31.0231   19.0554 C   0  0  0  0  0  0  0  0  0  0  0  0
  -20.2013  -33.2399   20.1813 C   0  0  0  0  0  0  0  0  0  0  0  0
  -25.3721  -33.0292   15.6991 C   0  0  0  0  0  0  0  0  0  0  0  0
  -26.6764  -23.8123   20.7993 C   0  0  0  0  0  0  0  0  0  0  0  0
  -27.7164  -24.9244   20.7195 C   0  0  0  0  0  0  0  0  0  0  0  0
  -27.3204  -22.4594   21.0714 C   0  0  0  0  0  0  0  0  0  0  0  0
  -27.0778  -26.2698   20.4050 C   0  0  0  0  0  0  0  0  0  1  0  0
  -22.2967  -32.0084   19.4852 C   0  0  1  0  0  0  0  0  0  0  0  0
  -22.8805  -32.9923   15.8712 C   0  0  2  0  0  0  0  0  0  0  0  0
  -20.8540  -31.8474   20.0422 C   0  0  0  0  0  0  0  0  0  0  0  0
  -26.1782  -11.2319   20.1225 N   0  0  0  0  0  0  0  0  0  0  0  0
  -26.7310  -11.5163   18.9310 N   0  0  0  0  0  0  0  0  0  0  0  0
  -24.3273  -32.1181   20.8953 N   0  0  0  0  0  0  0  0  0  0  0  0
  -29.1157  -14.3353   19.9056 N   0  0  0  0  0  0  0  0  0  0  0  0
  -26.5234  -11.1086   16.6069 N   0  0  0  0  0  0  0  0  0  0  0  0
  -23.1114   -8.7460   18.3881 N   0  0  0  0  0  0  0  0  0  0  0  0
  -27.8623  -16.3097   19.6008 N   0  0  0  0  0  0  0  0  0  0  0  0
  -25.2473  -32.7184   24.3723 N   0  0  0  0  0  0  0  0  0  0  0  0
  -22.3669  -32.6850   18.1946 N   0  0  0  0  0  0  0  0  0  0  0  0
  -24.0791  -32.7769   15.0123 N   0  3  0  0  0  0  0  0  0  0  0  0
  -24.1679   -9.3037   16.4307 O   0  0  0  0  0  0  0  0  0  0  0  0
  -23.7670  -31.3102   23.2552 O   0  0  0  0  0  0  0  0  0  0  0  0
  -22.8953  -33.9488   20.7110 O   0  0  0  0  0  0  0  0  0  0  0  0
  -23.4280  -30.9624   17.0617 O   0  0  0  0  0  0  0  0  0  0  0  0
  -30.1805  -16.3728   19.6632 O   0  0  0  0  0  0  0  0  0  0  0  0
  -21.8309   -8.3781   23.7974 O   0  0  0  0  0  0  0  0  0  0  0  0
  -26.3207  -21.4501   21.1190 O   0  0  0  0  0  0  0  0  0  0  0  0
  -28.0986  -27.2660   20.3592 O   0  0  0  0  0  0  0  0  0  1  0  0
  -20.5016   -3.0333   23.5315 F   0  0  0  0  0  0  0  0  0  0  0  0
  -22.4902   -6.6487   25.8510 F   0  0  0  0  0  0  0  0  0  0  0  0
  1  2  1  0  0  0  0
  1  5  2  0  0  0  0
  2  6  2  0  0  0  0
  3 10  2  0  0  0  0
  3 19  1  0  0  0  0
  4 11  1  0  0  0  0
  4 19  2  0  0  0  0
  5 21  1  0  0  0  0
  6 23  1  0  0  0  0
  7 12  2  0  0  0  0
  7 22  1  0  0  0  0
  8 13  2  0  0  0  0
  8 25  1  0  0  0  0
  9 14  1  0  0  0  0
  9 25  2  0  0  0  0
 10 26  1  0  0  0  0
 11 26  2  0  0  0  0
 12 28  1  0  0  0  0
 13 27  1  0  0  0  0
 14 27  2  0  0  0  0
 15 16  2  0  0  0  0
 15 29  1  0  0  0  0
 16 30  1  0  0  0  0
 17 24  1  0  0  0  0
 17 28  2  0  0  0  0
 18 30  2  0  0  0  0
 18 31  1  0  0  0  0
 19 32  1  0  0  0  0
 20 32  1  0  0  0  0
 20 33  2  0  0  0  0
 20 34  1  0  0  0  0
 21 23  2  0  0  0  0
 21 39  1  0  0  0  0
 22 24  2  0  0  0  0
 22 40  1  0  0  0  0
 23 48  1  0  0  0  0
 24 41  1  0  0  0  0
 25 69  1  0  0  0  0
 26 78  1  0  0  0  0
 27 79  1  0  0  0  0
 28 80  1  0  0  0  0
 29 31  2  0  0  0  0
 29 78  1  0  0  0  0
 30 81  1  0  0  0  0
 31 82  1  0  0  0  0
 32 63  2  0  0  0  0
 33 64  1  0  0  0  0
 33 67  1  0  0  0  0
 34 68  1  0  0  0  0
 34 73  2  0  0  0  0
 35 49  1  0  0  0  0
 35 70  1  0  0  0  0
 35 74  2  0  0  0  0
 36 60  1  0  0  0  0
 36 65  1  0  0  0  0
 36 75  2  0  0  0  0
 37 61  1  0  0  0  0
 37 71  1  0  0  0  0
 37 76  2  0  0  0  0
 38 66  1  0  0  0  0
 38 69  1  0  0  0  0
 38 77  2  0  0  0  0
 39 42  1  0  0  0  0
 40 49  1  0  0  0  0
 41 65  1  0  0  0  0
 42 44  1  0  0  0  0
 43 45  1  0  0  0  0
 43 46  1  0  0  0  0
 44 48  1  0  0  0  0
 45 50  1  0  0  0  0
 46 66  1  0  0  0  0
 47 50  1  0  0  0  0
 47 66  1  0  0  0  0
 48 70  1  0  0  0  0
 49 65  1  0  0  0  0
 50 64  1  0  0  0  0
 51 61  1  0  0  0  0
 52 62  1  0  0  0  0
 53 62  1  0  0  0  0
 54 62  1  0  0  0  0
 55 72  1  0  0  0  0
 56 57  1  0  0  0  0
 56 58  1  0  0  0  0
 57 59  1  0  0  0  0
 58 79  1  0  0  0  0
 59 80  1  0  0  0  0
 60 62  1  0  0  0  0
 60 71  1  0  0  0  0
 61 72  1  0  0  0  0
 63 64  1  0  0  0  0
M  CHG  1  72   1
M  ISO  4  38 100  59 101  69 100  80 101
M  END
> <Batch ID>
0001

> <Smiles>
CNC(C)C(=O)NC(C(=O)N1Cc2cc([101O:1][101CH2:1]CCCOc3ccc([100NH:0][100C:0](=O)N4CCCC(n5nc(-c6ccc(Oc7ccc(F)cc7F)cc6)c(C(N)=O)c5N)C4)cc3)ccc2CC1C(=O)NC1CCCc2ccccc21)C(C)(C)C

> <Shape>
0.243

> <Color>
0.082

> <Negative vol penalty>
0.000

$$$$

  -OEChem-04042320143D

 78 86  0     1  0  0  0  0  0999 V2000
  -30.8937  -34.9575   21.5743 C   0  0  0  0  0  0  0  0  0  0  0  0
  -30.9728  -33.8602   20.7228 C   0  0  0  0  0  0  0  0  0  0  0  0
  -22.7118  -10.2154   20.7399 C   0  0  0  0  0  0  0  0  0  0  0  0
  -24.5003   -9.0758   21.8974 C   0  0  0  0  0  0  0  0  0  0  0  0
  -30.1710  -34.8652   22.7631 C   0  0  0  0  0  0  0  0  0  0  0  0
  -30.3300  -32.6696   21.0601 C   0  0  0  0  0  0  0  0  0  0  0  0
  -26.9920  -27.0843   18.0636 C   0  0  0  0  0  0  0  0  0  0  0  0
  -27.7456  -20.8403   19.1332 C   0  0  0  0  0  0  0  0  0  0  0  0
  -26.1106  -20.7702   17.3559 C   0  0  0  0  0  0  0  0  0  0  0  0
  -21.9800   -9.0286   20.7021 C   0  0  0  0  0  0  0  0  0  0  0  0
  -23.7684   -7.8890   21.8597 C   0  0  0  0  0  0  0  0  0  0  0  0
  -27.0151  -25.6903   18.0614 C   0  0  0  0  0  0  0  0  0  0  0  0
  -27.6411  -19.4575   19.2839 C   0  0  0  0  0  0  0  0  0  0  0  0
  -26.0061  -19.3874   17.5065 C   0  0  0  0  0  0  0  0  0  0  0  0
  -22.2183   -4.6430   22.3878 C   0  0  0  0  0  0  0  0  0  0  0  0
  -22.1578   -3.8801   23.5540 C   0  0  0  0  0  0  0  0  0  0  0  0
  -25.7295  -25.6717   20.1025 C   0  0  0  0  0  0  0  0  0  0  0  0
  -21.1293   -5.7337   24.7132 C   0  0  0  0  0  0  0  0  0  0  0  0
  -23.9720  -10.2390   21.3375 C   0  0  0  0  0  0  0  0  0  0  0  0
  -24.7034  -12.4477   22.3837 C   0  0  0  0  0  0  0  0  0  0  0  0
  -29.5110  -33.6760   23.1104 C   0  0  0  0  0  0  0  0  0  0  0  0
  -26.3457  -27.7838   19.0929 C   0  0  0  0  0  0  0  0  0  0  0  0
  -29.5989  -32.5610   22.2552 C   0  0  0  0  0  0  0  0  0  0  0  0
  -25.6974  -27.0745   20.1141 C   0  0  0  0  0  0  0  0  0  0  0  0
  -26.9803  -21.4966   18.1693 C   0  0  0  0  0  0  0  0  0  0  0  0
  -22.5083   -7.8653   21.2620 C   0  0  0  0  0  0  0  0  0  0  0  0
  -26.7714  -18.7311   18.4705 C   0  0  0  0  0  0  0  0  0  0  0  0
  -26.3863  -24.9838   19.0824 C   0  0  0  0  0  0  0  0  0  0  0  0
  -21.7343   -5.9513   22.3843 C   0  0  0  0  0  0  0  0  0  0  0  0
  -21.6133   -4.4255   24.7167 C   0  0  0  0  0  0  0  0  0  0  0  0
  -21.1898   -6.4966   23.5470 C   0  0  0  0  0  0  0  0  0  0  0  0
  -24.7286  -11.4646   21.3764 C   0  0  0  0  0  0  0  0  0  0  0  0
  -25.5916  -13.4030   21.9535 C   0  0  0  0  0  0  0  0  0  0  0  0
  -23.9449  -12.4933   23.5995 C   0  0  0  0  0  0  0  0  0  0  0  0
  -27.2705  -29.8458   21.3283 C   0  0  0  0  0  0  0  0  0  0  0  0
  -24.0861  -30.0389   21.9154 C   0  0  0  0  0  0  0  0  0  0  0  0
  -21.0090  -28.5766   21.7144 C   0  0  0  0  0  0  0  0  0  0  0  0
  -27.5592  -16.6153   17.8288 C   0  0  0  0  0  0  0  0  0  0  0  0
  -28.7812  -33.6091   24.4286 C   0  0  0  0  0  0  0  0  0  0  0  0
  -26.3069  -29.2872   19.0665 C   0  0  0  0  0  0  0  0  0  0  0  0
  -24.9724  -27.7780   21.2312 C   0  0  0  0  0  0  0  0  0  0  0  0
  -27.8177  -32.4296   24.5323 C   0  0  0  0  0  0  0  0  0  0  0  0
  -28.9689  -13.3238   18.1991 C   0  0  0  0  0  0  0  0  0  0  0  0
  -28.4889  -31.1480   24.0489 C   0  0  0  0  0  0  0  0  0  0  0  0
  -27.9670  -12.6172   19.1118 C   0  0  0  0  0  0  0  0  0  0  0  0
  -28.2747  -14.3074   17.2622 C   0  0  0  0  0  0  0  0  0  0  0  0
  -26.4241  -14.6149   18.8849 C   0  0  0  0  0  0  0  0  0  0  0  0
  -28.8947  -31.2600   22.5743 C   0  0  1  0  0  0  0  0  0  0  0  0
  -26.0597  -29.9027   20.4403 C   0  0  1  0  0  0  0  0  0  0  0  0
  -27.0921  -13.6352   19.8650 C   0  0  1  0  0  0  0  0  0  0  0  0
  -18.6025  -28.9609   22.3129 C   0  0  0  0  0  0  0  0  0  0  0  0
  -24.7122  -29.4005   24.8326 C   0  0  0  0  0  0  0  0  0  0  0  0
  -22.2889  -28.8648   25.1629 C   0  0  0  0  0  0  0  0  0  0  0  0
  -22.9760  -31.1698   24.5013 C   0  0  0  0  0  0  0  0  0  0  0  0
  -20.1642  -28.4545   18.8806 C   0  0  0  0  0  0  0  0  0  0  0  0
  -27.0930  -22.9840   18.0067 C   0  0  0  0  0  0  0  0  0  1  0  0
  -23.1163  -29.2999   22.8055 C   0  0  1  0  0  0  0  0  0  0  0  0
  -19.6694  -29.1099   21.2395 C   0  0  2  0  0  0  0  0  0  0  0  0
  -23.2886  -29.6702   24.3057 C   0  0  0  0  0  0  0  0  0  0  0  0
  -25.5664  -11.7675   20.3811 N   0  0  0  0  0  0  0  0  0  0  0  0
  -26.0757  -12.9517   20.7610 N   0  0  0  0  0  0  0  0  0  0  0  0
  -24.9679  -29.2487   21.1645 N   0  0  0  0  0  0  0  0  0  0  0  0
  -27.4245  -15.2347   18.0075 N   0  0  0  0  0  0  0  0  0  0  0  0
  -25.9978  -14.5766   22.4827 N   0  0  0  0  0  0  0  0  0  0  0  0
  -23.0795  -11.4291   23.8875 N   0  0  0  0  0  0  0  0  0  0  0  0
  -27.7411  -31.0851   21.7180 N   0  0  0  0  0  0  0  0  0  0  0  0
  -21.7855  -29.5701   22.2724 N   0  0  0  0  0  0  0  0  0  0  0  0
  -19.2199  -28.3732   20.0245 N   0  3  0  0  0  0  0  0  0  0  0  0
  -24.0198  -13.4572   24.3988 O   0  0  0  0  0  0  0  0  0  0  0  0
  -27.7418  -28.7579   21.6381 O   0  0  0  0  0  0  0  0  0  0  0  0
  -24.0573  -31.2717   21.8819 O   0  0  0  0  0  0  0  0  0  0  0  0
  -21.3327  -27.3960   21.6049 O   0  0  0  0  0  0  0  0  0  0  0  0
  -28.3684  -17.1384   17.0637 O   0  0  0  0  0  0  0  0  0  0  0  0
  -21.7944   -6.7071   21.2255 O   0  0  0  0  0  0  0  0  0  0  0  0
  -26.6678  -17.3445   18.6208 O   0  0  0  0  0  0  0  0  0  0  0  0
  -26.4078  -23.6231   19.0830 O   0  0  0  0  0  0  0  0  0  1  0  0
  -21.5539   -3.6922   25.8360 F   0  0  0  0  0  0  0  0  0  0  0  0
  -20.7222   -7.7524   23.5494 F   0  0  0  0  0  0  0  0  0  0  0  0
  1  2  1  0  0  0  0
  1  5  2  0  0  0  0
  2  6  2  0  0  0  0
  3 10  2  0  0  0  0
  3 19  1  0  0  0  0
  4 11  1  0  0  0  0
  4 19  2  0  0  0  0
  5 21  1  0  0  0  0
  6 23  1  0  0  0  0
  7 12  2  0  0  0  0
  7 22  1  0  0  0  0
  8 13  2  0  0  0  0
  8 25  1  0  0  0  0
  9 14  1  0  0  0  0
  9 25  2  0  0  0  0
 10 26  1  0  0  0  0
 11 26  2  0  0  0  0
 12 28  1  0  0  0  0
 13 27  1  0  0  0  0
 14 27  2  0  0  0  0
 15 16  2  0  0  0  0
 15 29  1  0  0  0  0
 16 30  1  0  0  0  0
 17 24  1  0  0  0  0
 17 28  2  0  0  0  0
 18 30  2  0  0  0  0
 18 31  1  0  0  0  0
 19 32  1  0  0  0  0
 20 32  1  0  0  0  0
 20 33  2  0  0  0  0
 20 34  1  0  0  0  0
 21 23  2  0  0  0  0
 21 39  1  0  0  0  0
 22 24  2  0  0  0  0
 22 40  1  0  0  0  0
 23 48  1  0  0  0  0
 24 41  1  0  0  0  0
 25 56  1  0  0  0  0
 26 74  1  0  0  0  0
 27 75  1  0  0  0  0
 28 76  1  0  0  0  0
 29 31  2  0  0  0  0
 29 74  1  0  0  0  0
 30 77  1  0  0  0  0
 31 78  1  0  0  0  0
 32 60  2  0  0  0  0
 33 61  1  0  0  0  0
 33 64  1  0  0  0  0
 34 65  1  0  0  0  0
 34 69  2  0  0  0  0
 35 49  1  0  0  0  0
 35 66  1  0  0  0  0
 35 70  2  0  0  0  0
 36 57  1  0  0  0  0
 36 62  1  0  0  0  0
 36 71  2  0  0  0  0
 37 58  1  0  0  0  0
 37 67  1  0  0  0  0
 37 72  2  0  0  0  0
 38 63  1  0  0  0  0
 38 73  2  0  0  0  0
 38 75  1  0  0  0  0
 39 42  1  0  0  0  0
 40 49  1  0  0  0  0
 41 62  1  0  0  0  0
 42 44  1  0  0  0  0
 43 45  1  0  0  0  0
 43 46  1  0  0  0  0
 44 48  1  0  0  0  0
 45 50  1  0  0  0  0
 46 63  1  0  0  0  0
 47 50  1  0  0  0  0
 47 63  1  0  0  0  0
 48 66  1  0  0  0  0
 49 62  1  0  0  0  0
 50 61  1  0  0  0  0
 51 58  1  0  0  0  0
 52 59  1  0  0  0  0
 53 59  1  0  0  0  0
 54 59  1  0  0  0  0
 55 68  1  0  0  0  0
 56 76  1  0  0  0  0
 57 59  1  0  0  0  0
 57 67  1  0  0  0  0
 58 68  1  0  0  0  0
 60 61  1  0  0  0  0
M  CHG  1  68   1
M  ISO  4  38 100  56 101  75 100  76 101
M  END
> <Batch ID>
0001

> <Smiles>
CNC(C)C(=O)NC(C(=O)N1Cc2cc([101O:1][101CH2:1]c3ccc([100O:0][100C:0](=O)N4CCCC(n5nc(-c6ccc(Oc7ccc(F)cc7F)cc6)c(C(N)=O)c5N)C4)cc3)ccc2CC1C(=O)NC1CCCc2ccccc21)C(C)(C)C

> <Shape>
0.262

> <Color>
0.127

> <Negative vol penalty>
0.000

$$$$

  -OEChem-04042320143D

 92100  0     1  0  0  0  0  0999 V2000
  -28.7164  -29.7131   13.5682 C   0  0  0  0  0  0  0  0  0  0  0  0
  -28.5978  -28.9973   14.7553 C   0  0  0  0  0  0  0  0  0  0  0  0
  -23.2297   -9.7392   19.8906 C   0  0  0  0  0  0  0  0  0  0  0  0
  -23.8807   -9.8484   22.2147 C   0  0  0  0  0  0  0  0  0  0  0  0
  -29.0626  -31.0633   13.6013 C   0  0  0  0  0  0  0  0  0  0  0  0
  -28.8263  -29.6312   15.9761 C   0  0  0  0  0  0  0  0  0  0  0  0
  -25.3209  -28.4851   19.4464 C   0  0  0  0  0  0  0  0  0  0  0  0
  -30.9079  -19.4185   20.6486 C   0  0  0  0  0  0  0  0  0  0  0  0
  -30.8050  -18.0280   20.6852 C   0  0  0  0  0  0  0  0  0  0  0  0
  -22.5430   -8.5508   20.1387 C   0  0  0  0  0  0  0  0  0  0  0  0
  -23.1939   -8.6599   22.4629 C   0  0  0  0  0  0  0  0  0  0  0  0
  -25.4304  -27.2466   20.0772 C   0  0  0  0  0  0  0  0  0  0  0  0
  -19.9929   -7.6882   22.9418 C   0  0  0  0  0  0  0  0  0  0  0  0
  -19.1860   -7.6329   24.0782 C   0  0  0  0  0  0  0  0  0  0  0  0
  -26.4409  -28.3162   21.9887 C   0  0  0  0  0  0  0  0  0  0  0  0
  -29.1918  -19.5901   22.3405 C   0  0  0  0  0  0  0  0  0  0  0  0
  -20.5019   -5.7911   24.9229 C   0  0  0  0  0  0  0  0  0  0  0  0
  -23.8986  -10.3880   20.9286 C   0  0  0  0  0  0  0  0  0  0  0  0
  -24.0990  -12.9251   20.7542 C   0  0  0  0  0  0  0  0  0  0  0  0
  -29.2861  -31.7164   14.8236 C   0  0  0  0  0  0  0  0  0  0  0  0
  -25.7813  -29.6491   20.0787 C   0  0  0  0  0  0  0  0  0  0  0  0
  -29.1772  -30.9910   16.0255 C   0  0  0  0  0  0  0  0  0  0  0  0
  -26.3337  -29.5686   21.3650 C   0  0  0  0  0  0  0  0  0  0  0  0
  -29.0889  -18.1995   22.3771 C   0  0  0  0  0  0  0  0  0  0  0  0
  -30.1014  -20.1996   21.4763 C   0  0  0  0  0  0  0  0  0  0  0  0
  -29.8955  -17.4185   21.5494 C   0  0  0  0  0  0  0  0  0  0  0  0
  -22.5251   -8.0111   21.4249 C   0  0  0  0  0  0  0  0  0  0  0  0
  -25.9931  -27.1616   21.3473 C   0  0  0  0  0  0  0  0  0  0  0  0
  -21.0542   -6.7949   22.7959 C   0  0  0  0  0  0  0  0  0  0  0  0
  -19.4405   -6.6844   25.0688 C   0  0  0  0  0  0  0  0  0  0  0  0
  -21.3087   -5.8464   23.7864 C   0  0  0  0  0  0  0  0  0  0  0  0
  -24.6086  -11.6154   20.6728 C   0  0  0  0  0  0  0  0  0  0  0  0
  -25.1616  -13.7285   20.4197 C   0  0  0  0  0  0  0  0  0  0  0  0
  -22.7827  -13.3753   21.1013 C   0  0  0  0  0  0  0  0  0  0  0  0
  -28.0075  -31.8232   19.4302 C   0  0  0  0  0  0  0  0  0  0  0  0
  -26.7552  -33.3121   22.0258 C   0  0  0  0  0  0  0  0  0  0  0  0
  -28.0017  -22.5573   21.6806 C   0  0  0  0  0  0  0  0  0  0  0  0
  -25.0192  -33.0606   24.9532 C   0  0  0  0  0  0  0  0  0  0  0  0
  -30.5442  -15.0991   20.8104 C   0  0  0  0  0  0  0  0  0  0  0  0
  -29.7044  -33.1653   14.8067 C   0  0  0  0  0  0  0  0  0  0  0  0
  -25.6316  -30.9809   19.3959 C   0  0  0  0  0  0  0  0  0  0  0  0
  -26.8246  -30.7911   22.0951 C   0  0  0  0  0  0  0  0  0  0  0  0
  -29.5634  -33.8559   16.1607 C   0  0  0  0  0  0  0  0  0  0  0  0
  -29.6824  -12.5653   18.4622 C   0  0  0  0  0  0  0  0  0  0  0  0
  -30.1441  -32.9825   17.2684 C   0  0  0  0  0  0  0  0  0  0  0  0
  -28.2436  -12.2000   18.8347 C   0  0  0  0  0  0  0  0  0  0  0  0
  -30.5260  -12.8777   19.6969 C   0  0  0  0  0  0  0  0  0  0  0  0
  -28.5183  -13.5225   20.9707 C   0  0  0  0  0  0  0  0  0  0  0  0
  -29.3930  -31.6495   17.3708 C   0  0  1  0  0  0  0  0  0  0  0  0
  -26.6029  -32.0338   19.9205 C   0  0  1  0  0  0  0  0  0  0  0  0
  -27.6128  -13.2628   19.7557 C   0  0  2  0  0  0  0  0  0  0  0  0
  -28.1070  -17.5735   23.3137 C   0  0  0  0  0  0  0  0  0  0  0  0
  -24.1853  -34.4436   26.8740 C   0  0  0  0  0  0  0  0  0  0  0  0
  -29.5811  -33.4205   23.1714 C   0  0  0  0  0  0  0  0  0  0  0  0
  -28.5790  -33.9156   25.4116 C   0  0  0  0  0  0  0  0  0  0  0  0
  -28.2353  -35.5001   23.5159 C   0  0  0  0  0  0  0  0  0  0  0  0
  -29.5826  -26.9281   19.6317 C   0  0  0  0  0  0  0  0  0  0  0  0
  -31.6925  -27.9361   20.5490 C   0  0  0  0  0  0  0  0  0  0  0  0
  -31.8057  -25.8458   19.1613 C   0  0  0  0  0  0  0  0  0  0  0  0
  -22.1982  -32.3853   24.3659 C   0  0  0  0  0  0  0  0  0  0  0  0
  -30.0785  -23.8326   22.4039 C   0  0  0  0  0  0  0  0  0  0  0  0
  -25.7777  -23.5764   22.1175 C   0  0  0  0  0  0  0  0  0  0  0  0
  -30.1914  -24.6292   21.1052 C   0  0  0  0  0  0  0  0  0  0  0  0
  -25.6189  -24.8149   21.2537 C   0  0  0  0  0  0  0  0  0  1  0  0
  -27.0255  -33.2801   23.5107 C   0  0  1  0  0  0  0  0  0  0  0  0
  -29.4062  -22.4636   22.2617 C   0  0  2  0  0  0  0  0  0  0  0  0
  -23.8564  -33.8642   25.5070 C   0  0  2  0  0  0  0  0  0  0  0  0
  -28.3478  -34.0056   23.8881 C   0  0  0  0  0  0  0  0  0  0  0  0
  -30.9810  -26.6377   20.1749 C   0  0  0  0  0  0  0  0  0  0  0  0
  -25.8950  -11.5840   20.3145 N   0  0  0  0  0  0  0  0  0  0  0  0
  -26.2025  -12.8840   20.1677 N   0  0  0  0  0  0  0  0  0  0  0  0
  -26.6621  -32.0695   21.3832 N   0  0  0  0  0  0  0  0  0  0  0  0
  -29.8682  -13.8953   20.5195 N   0  0  0  0  0  0  0  0  0  0  0  0
  -25.2978  -15.0678   20.3194 N   0  0  0  0  0  0  0  0  0  0  0  0
  -21.8105  -12.4167   21.4179 N   0  0  0  0  0  0  0  0  0  0  0  0
  -29.8071  -16.0045   21.5731 N   0  0  0  0  0  0  0  0  0  0  0  0
  -30.2040  -21.5794   21.4402 N   0  0  0  0  0  0  0  0  0  0  0  0
  -28.1302  -31.8320   18.0538 N   0  0  0  0  0  0  0  0  0  0  0  0
  -27.1544  -23.3365   22.4604 N   0  0  0  0  0  0  0  0  0  0  0  0
  -25.8373  -33.8306   24.1538 N   0  0  0  0  0  0  0  0  0  0  0  0
  -22.6480  -33.0022   25.6403 N   0  3  0  0  0  0  0  0  0  0  0  0
  -22.4733  -14.5909   21.1140 O   0  0  0  0  0  0  0  0  0  0  0  0
  -28.9132  -31.6660   20.2406 O   0  0  0  0  0  0  0  0  0  0  0  0
  -26.6241  -34.3995   21.4583 O   0  0  0  0  0  0  0  0  0  0  0  0
  -27.6728  -22.0006   20.6351 O   0  0  0  0  0  0  0  0  0  0  0  0
  -25.1871  -31.8700   25.2076 O   0  0  0  0  0  0  0  0  0  0  0  0
  -31.6821  -15.3225   20.3895 O   0  0  0  0  0  0  0  0  0  0  0  0
  -21.8549   -6.8516   21.6674 O   0  0  0  0  0  0  0  0  0  0  0  0
  -26.1018  -25.9539   21.9649 O   0  0  0  0  0  0  0  0  0  1  0  0
  -30.8541  -25.8629   21.3587 O   0  0  0  0  0  0  0  0  0  0  0  0
  -18.6665   -6.6324   26.1608 F   0  0  0  0  0  0  0  0  0  0  0  0
  -22.3276   -4.9864   23.6524 F   0  0  0  0  0  0  0  0  0  0  0  0
  1  2  1  0  0  0  0
  1  5  2  0  0  0  0
  2  6  2  0  0  0  0
  3 10  2  0  0  0  0
  3 18  1  0  0  0  0
  4 11  1  0  0  0  0
  4 18  2  0  0  0  0
  5 20  1  0  0  0  0
  6 22  1  0  0  0  0
  7 12  2  0  0  0  0
  7 21  1  0  0  0  0
  8  9  2  0  0  0  0
  8 25  1  0  0  0  0
  9 26  1  0  0  0  0
 10 27  1  0  0  0  0
 11 27  2  0  0  0  0
 12 28  1  0  0  0  0
 13 14  2  0  0  0  0
 13 29  1  0  0  0  0
 14 30  1  0  0  0  0
 15 23  1  0  0  0  0
 15 28  2  0  0  0  0
 16 24  1  0  0  0  0
 16 25  2  0  0  0  0
 17 30  2  0  0  0  0
 17 31  1  0  0  0  0
 18 32  1  0  0  0  0
 19 32  1  0  0  0  0
 19 33  2  0  0  0  0
 19 34  1  0  0  0  0
 20 22  2  0  0  0  0
 20 40  1  0  0  0  0
 21 23  2  0  0  0  0
 21 41  1  0  0  0  0
 22 49  1  0  0  0  0
 23 42  1  0  0  0  0
 24 26  2  0  0  0  0
 24 52  1  0  0  0  0
 25 77  1  0  0  0  0
 26 76  1  0  0  0  0
 27 88  1  0  0  0  0
 28 89  1  0  0  0  0
 29 31  2  0  0  0  0
 29 88  1  0  0  0  0
 30 91  1  0  0  0  0
 31 92  1  0  0  0  0
 32 70  2  0  0  0  0
 33 71  1  0  0  0  0
 33 74  1  0  0  0  0
 34 75  1  0  0  0  0
 34 82  2  0  0  0  0
 35 50  1  0  0  0  0
 35 78  1  0  0  0  0
 35 83  2  0  0  0  0
 36 65  1  0  0  0  0
 36 72  1  0  0  0  0
 36 84  2  0  0  0  0
 37 66  1  0  0  0  0
 37 79  1  0  0  0  0
 37 85  2  0  0  0  0
 38 67  1  0  0  0  0
 38 80  1  0  0  0  0
 38 86  2  0  0  0  0
 39 73  1  0  0  0  0
 39 76  1  0  0  0  0
 39 87  2  0  0  0  0
 40 43  1  0  0  0  0
 41 50  1  0  0  0  0
 42 72  1  0  0  0  0
 43 45  1  0  0  0  0
 44 46  1  0  0  0  0
 44 47  1  0  0  0  0
 45 49  1  0  0  0  0
 46 51  1  0  0  0  0
 47 73  1  0  0  0  0
 48 51  1  0  0  0  0
 48 73  1  0  0  0  0
 49 78  1  0  0  0  0
 50 72  1  0  0  0  0
 51 71  1  0  0  0  0
 53 67  1  0  0  0  0
 54 68  1  0  0  0  0
 55 68  1  0  0  0  0
 56 68  1  0  0  0  0
 57 69  1  0  0  0  0
 58 69  1  0  0  0  0
 59 69  1  0  0  0  0
 60 81  1  0  0  0  0
 61 63  1  0  0  0  0
 61 66  1  0  0  0  0
 62 64  1  0  0  0  0
 62 79  1  0  0  0  0
 63 90  1  0  0  0  0
 64 89  1  0  0  0  0
 65 68  1  0  0  0  0
 65 80  1  0  0  0  0
 66 77  1  0  0  0  0
 67 81  1  0  0  0  0
 69 90  1  0  0  0  0
 70 71  1  0  0  0  0
M  CHG  1  81   1
M  ISO  4  39 100  64 101  76 100  89 101
M  END
> <Batch ID>
0001

> <Smiles>
CNC(C)C(=O)NC(C(=O)N1Cc2cc([101O:1][101CH2:1]CNC(=O)C(CCOC(C)(C)C)Nc3ccc([100NH:0][100C:0](=O)N4CCCC(n5nc(-c6ccc(Oc7ccc(F)cc7F)cc6)c(C(N)=O)c5N)C4)c(C)c3)ccc2CC1C(=O)NC1CCCc2ccccc21)C(C)(C)C

> <Shape>
0.316

> <Color>
0.218

> <Negative vol penalty>
0.000

$$$$

  -OEChem-04042320143D

 85 93  0     1  0  0  0  0  0999 V2000
  -18.3586  -27.7327   21.9959 C   0  0  0  0  0  0  0  0  0  0  0  0
  -19.0553  -26.5402   22.1632 C   0  0  0  0  0  0  0  0  0  0  0  0
  -23.1552   -9.7761   19.9053 C   0  0  0  0  0  0  0  0  0  0  0  0
  -23.8941   -9.7972   22.2054 C   0  0  0  0  0  0  0  0  0  0  0  0
  -18.9596  -28.9436   22.3371 C   0  0  0  0  0  0  0  0  0  0  0  0
  -20.3539  -26.5580   22.6708 C   0  0  0  0  0  0  0  0  0  0  0  0
  -22.9461  -22.3606   26.2995 C   0  0  0  0  0  0  0  0  0  0  0  0
  -22.4560   -8.5924   20.1408 C   0  0  0  0  0  0  0  0  0  0  0  0
  -23.1949   -8.6135   22.4409 C   0  0  0  0  0  0  0  0  0  0  0  0
  -23.8018  -21.2920   26.0353 C   0  0  0  0  0  0  0  0  0  0  0  0
  -19.9961   -7.6830   23.0090 C   0  0  0  0  0  0  0  0  0  0  0  0
  -19.2312   -7.6045   24.1727 C   0  0  0  0  0  0  0  0  0  0  0  0
  -25.6956  -22.6786   26.5921 C   0  0  0  0  0  0  0  0  0  0  0  0
  -31.2453  -19.6013   22.9365 C   0  0  0  0  0  0  0  0  0  0  0  0
  -31.6241  -17.5892   21.6540 C   0  0  0  0  0  0  0  0  0  0  0  0
  -29.5351  -17.8983   22.8277 C   0  0  0  0  0  0  0  0  0  0  0  0
  -20.5427   -5.7131   24.9073 C   0  0  0  0  0  0  0  0  0  0  0  0
  -23.8743  -10.3785   20.9376 C   0  0  0  0  0  0  0  0  0  0  0  0
  -24.1158  -12.9161   20.8376 C   0  0  0  0  0  0  0  0  0  0  0  0
  -20.2627  -28.9755   22.8582 C   0  0  0  0  0  0  0  0  0  0  0  0
  -23.4604  -23.6015   26.7022 C   0  0  0  0  0  0  0  0  0  0  0  0
  -20.9734  -27.7706   23.0180 C   0  0  0  0  0  0  0  0  0  0  0  0
  -24.8442  -23.7606   26.8633 C   0  0  0  0  0  0  0  0  0  0  0  0
  -32.0679  -18.8276   22.1178 C   0  0  0  0  0  0  0  0  0  0  0  0
  -29.9789  -19.1366   23.2915 C   0  0  0  0  0  0  0  0  0  0  0  0
  -30.3576  -17.1246   22.0089 C   0  0  0  0  0  0  0  0  0  0  0  0
  -22.4758   -8.0111   21.4086 C   0  0  0  0  0  0  0  0  0  0  0  0
  -25.1769  -21.4518   26.1788 C   0  0  0  0  0  0  0  0  0  0  0  0
  -21.0343   -6.7764   22.7943 C   0  0  0  0  0  0  0  0  0  0  0  0
  -19.5045   -6.6196   25.1219 C   0  0  0  0  0  0  0  0  0  0  0  0
  -21.3077   -5.7916   23.7435 C   0  0  0  0  0  0  0  0  0  0  0  0
  -24.5973  -11.6010   20.6948 C   0  0  0  0  0  0  0  0  0  0  0  0
  -25.1801  -13.7112   20.4892 C   0  0  0  0  0  0  0  0  0  0  0  0
  -22.8220  -13.3777   21.2485 C   0  0  0  0  0  0  0  0  0  0  0  0
  -23.4218  -26.5430   25.4982 C   0  0  0  0  0  0  0  0  0  0  0  0
  -24.8328  -27.2970   28.3201 C   0  0  0  0  0  0  0  0  0  0  0  0
  -27.8648  -19.6145   24.5707 C   0  0  0  0  0  0  0  0  0  0  0  0
  -26.6813  -26.2729   30.9998 C   0  0  0  0  0  0  0  0  0  0  0  0
  -30.5983  -14.9734   20.7202 C   0  0  0  0  0  0  0  0  0  0  0  0
  -20.8880  -30.3124   23.1683 C   0  0  0  0  0  0  0  0  0  0  0  0
  -22.5223  -24.7364   27.0092 C   0  0  0  0  0  0  0  0  0  0  0  0
  -25.4453  -25.0665   27.3126 C   0  0  0  0  0  0  0  0  0  0  0  0
  -22.1294  -30.2142   24.0511 C   0  0  0  0  0  0  0  0  0  0  0  0
  -29.6022  -12.5337   18.3258 C   0  0  0  0  0  0  0  0  0  0  0  0
  -23.0603  -29.1177   23.5431 C   0  0  0  0  0  0  0  0  0  0  0  0
  -28.1717  -12.1818   18.7404 C   0  0  0  0  0  0  0  0  0  0  0  0
  -30.4969  -12.7904   19.5372 C   0  0  0  0  0  0  0  0  0  0  0  0
  -28.5505  -13.4283   20.9060 C   0  0  0  0  0  0  0  0  0  0  0  0
  -22.3747  -27.7469   23.5890 C   0  0  1  0  0  0  0  0  0  0  0  0
  -23.1898  -26.1051   26.9167 C   0  0  1  0  0  0  0  0  0  0  0  0
  -27.5957  -13.2246   19.7184 C   0  0  2  0  0  0  0  0  0  0  0  0
  -27.7081  -27.1241   33.1255 C   0  0  0  0  0  0  0  0  0  0  0  0
  -34.3106  -19.5604   23.0003 C   0  0  0  0  0  0  0  0  0  0  0  0
  -33.3338  -20.6768   20.9667 C   0  0  0  0  0  0  0  0  0  0  0  0
  -34.2534  -18.3717   20.8173 C   0  0  0  0  0  0  0  0  0  0  0  0
  -27.0533  -28.6331   26.7095 C   0  0  0  0  0  0  0  0  0  0  0  0
  -28.4691  -28.6105   28.7743 C   0  0  0  0  0  0  0  0  0  0  0  0
  -26.3332  -29.8986   28.7428 C   0  0  0  0  0  0  0  0  0  0  0  0
  -25.0682  -24.4249   32.6556 C   0  0  0  0  0  0  0  0  0  0  0  0
  -27.3203  -20.7305   25.4428 C   0  0  0  0  0  0  0  0  0  1  0  0
  -26.2562  -27.3726   28.8171 C   0  0  1  0  0  0  0  0  0  0  0  0
  -26.4884  -26.4731   32.4922 C   0  0  2  0  0  0  0  0  0  0  0  0
  -33.4226  -19.3244   21.7395 C   0  0  0  0  0  0  0  0  0  0  0  0
  -27.0171  -28.6045   28.2506 C   0  0  0  0  0  0  0  0  0  0  0  0
  -25.8686  -11.5588   20.2873 N   0  0  0  0  0  0  0  0  0  0  0  0
  -26.1949  -12.8573   20.1710 N   0  0  0  0  0  0  0  0  0  0  0  0
  -24.4871  -26.1482   27.5944 N   0  0  0  0  0  0  0  0  0  0  0  0
  -29.8894  -13.7919   20.4164 N   0  0  0  0  0  0  0  0  0  0  0  0
  -25.3377  -15.0505   20.4271 N   0  0  0  0  0  0  0  0  0  0  0  0
  -21.8444  -12.4264   21.5705 N   0  0  0  0  0  0  0  0  0  0  0  0
  -29.1448  -19.9219   24.1223 N   0  0  0  0  0  0  0  0  0  0  0  0
  -29.9073  -15.8660   21.5389 N   0  0  0  0  0  0  0  0  0  0  0  0
  -22.3618  -27.2332   24.9419 N   0  0  0  0  0  0  0  0  0  0  0  0
  -26.1827  -27.3337   30.2736 N   0  0  0  0  0  0  0  0  0  0  0  0
  -26.2523  -25.1640   33.1641 N   0  3  0  0  0  0  0  0  0  0  0  0
  -22.5362  -14.5974   21.3120 O   0  0  0  0  0  0  0  0  0  0  0  0
  -24.4845  -26.2758   24.9495 O   0  0  0  0  0  0  0  0  0  0  0  0
  -24.0542  -28.2198   28.5727 O   0  0  0  0  0  0  0  0  0  0  0  0
  -27.2088  -18.6052   24.3347 O   0  0  0  0  0  0  0  0  0  0  0  0
  -27.2237  -25.2770   30.5259 O   0  0  0  0  0  0  0  0  0  0  0  0
  -31.7238  -15.1904   20.2639 O   0  0  0  0  0  0  0  0  0  0  0  0
  -21.7934   -6.8561   21.6388 O   0  0  0  0  0  0  0  0  0  0  0  0
  -26.0144  -20.4106   25.9209 O   0  0  0  0  0  0  0  0  0  1  0  0
  -18.7708   -6.5454   26.2401 F   0  0  0  0  0  0  0  0  0  0  0  0
  -22.3045   -4.9186   23.5434 F   0  0  0  0  0  0  0  0  0  0  0  0
  1  2  1  0  0  0  0
  1  5  2  0  0  0  0
  2  6  2  0  0  0  0
  3  8  2  0  0  0  0
  3 18  1  0  0  0  0
  4  9  1  0  0  0  0
  4 18  2  0  0  0  0
  5 20  1  0  0  0  0
  6 22  1  0  0  0  0
  7 10  2  0  0  0  0
  7 21  1  0  0  0  0
  8 27  1  0  0  0  0
  9 27  2  0  0  0  0
 10 28  1  0  0  0  0
 11 12  2  0  0  0  0
 11 29  1  0  0  0  0
 12 30  1  0  0  0  0
 13 23  1  0  0  0  0
 13 28  2  0  0  0  0
 14 24  1  0  0  0  0
 14 25  2  0  0  0  0
 15 24  2  0  0  0  0
 15 26  1  0  0  0  0
 16 25  1  0  0  0  0
 16 26  2  0  0  0  0
 17 30  2  0  0  0  0
 17 31  1  0  0  0  0
 18 32  1  0  0  0  0
 19 32  1  0  0  0  0
 19 33  2  0  0  0  0
 19 34  1  0  0  0  0
 20 22  2  0  0  0  0
 20 40  1  0  0  0  0
 21 23  2  0  0  0  0
 21 41  1  0  0  0  0
 22 49  1  0  0  0  0
 23 42  1  0  0  0  0
 24 63  1  0  0  0  0
 25 71  1  0  0  0  0
 26 72  1  0  0  0  0
 27 82  1  0  0  0  0
 28 83  1  0  0  0  0
 29 31  2  0  0  0  0
 29 82  1  0  0  0  0
 30 84  1  0  0  0  0
 31 85  1  0  0  0  0
 32 65  2  0  0  0  0
 33 66  1  0  0  0  0
 33 69  1  0  0  0  0
 34 70  1  0  0  0  0
 34 76  2  0  0  0  0
 35 50  1  0  0  0  0
 35 73  1  0  0  0  0
 35 77  2  0  0  0  0
 36 61  1  0  0  0  0
 36 67  1  0  0  0  0
 36 78  2  0  0  0  0
 37 60  1  0  0  0  0
 37 71  1  0  0  0  0
 37 79  2  0  0  0  0
 38 62  1  0  0  0  0
 38 74  1  0  0  0  0
 38 80  2  0  0  0  0
 39 68  1  0  0  0  0
 39 72  1  0  0  0  0
 39 81  2  0  0  0  0
 40 43  1  0  0  0  0
 41 50  1  0  0  0  0
 42 67  1  0  0  0  0
 43 45  1  0  0  0  0
 44 46  1  0  0  0  0
 44 47  1  0  0  0  0
 45 49  1  0  0  0  0
 46 51  1  0  0  0  0
 47 68  1  0  0  0  0
 48 51  1  0  0  0  0
 48 68  1  0  0  0  0
 49 73  1  0  0  0  0
 50 67  1  0  0  0  0
 51 66  1  0  0  0  0
 52 62  1  0  0  0  0
 53 63  1  0  0  0  0
 54 63  1  0  0  0  0
 55 63  1  0  0  0  0
 56 64  1  0  0  0  0
 57 64  1  0  0  0  0
 58 64  1  0  0  0  0
 59 75  1  0  0  0  0
 60 83  1  0  0  0  0
 61 64  1  0  0  0  0
 61 74  1  0  0  0  0
 62 75  1  0  0  0  0
 65 66  1  0  0  0  0
M  CHG  1  75   1
M  ISO  4  39 100  60 101  72 100  83 101
M  END
> <Batch ID>
0001

> <Smiles>
CNC(C)C(=O)NC(C(=O)N1Cc2cc([101O:1][101CH2:1]C(=O)Nc3cc([100NH:0][100C:0](=O)N4CCCC(n5nc(-c6ccc(Oc7ccc(F)cc7F)cc6)c(C(N)=O)c5N)C4)cc(C(C)(C)C)c3)ccc2CC1C(=O)NC1CCCc2ccccc21)C(C)(C)C

> <Shape>
0.231

> <Color>
0.204

> <Negative vol penalty>
0.000

$$$$

  -OEChem-04042320143D

 84 92  0     1  0  0  0  0  0999 V2000
  -24.3325  -34.7001   15.2829 C   0  0  0  0  0  0  0  0  0  0  0  0
  -24.9521  -33.4580   15.1902 C   0  0  0  0  0  0  0  0  0  0  0  0
  -23.7333   -9.6066   20.8170 C   0  0  0  0  0  0  0  0  0  0  0  0
  -24.2581  -10.3687   23.0487 C   0  0  0  0  0  0  0  0  0  0  0  0
  -24.3960  -35.4224   16.4738 C   0  0  0  0  0  0  0  0  0  0  0  0
  -25.6366  -32.9379   16.2881 C   0  0  0  0  0  0  0  0  0  0  0  0
  -26.0477  -27.0489   17.9178 C   0  0  0  0  0  0  0  0  0  0  0  0
  -30.1468  -18.7924   19.6207 C   0  0  0  0  0  0  0  0  0  0  0  0
  -23.1917   -8.4345   21.3445 C   0  0  0  0  0  0  0  0  0  0  0  0
  -23.7164   -9.1966   23.5764 C   0  0  0  0  0  0  0  0  0  0  0  0
  -27.0371  -26.0872   17.7179 C   0  0  0  0  0  0  0  0  0  0  0  0
  -30.0584  -20.1347   19.2520 C   0  0  0  0  0  0  0  0  0  0  0  0
  -24.3290   -5.4946   22.5645 C   0  0  0  0  0  0  0  0  0  0  0  0
  -24.6711   -4.2898   21.9505 C   0  0  0  0  0  0  0  0  0  0  0  0
  -27.9364  -26.5667   19.9044 C   0  0  0  0  0  0  0  0  0  0  0  0
  -28.3480  -19.1082   21.2023 C   0  0  0  0  0  0  0  0  0  0  0  0
  -22.3406   -3.8741   21.4676 C   0  0  0  0  0  0  0  0  0  0  0  0
  -24.2665  -10.5737   21.6690 C   0  0  0  0  0  0  0  0  0  0  0  0
  -24.1523  -12.9938   20.8704 C   0  0  0  0  0  0  0  0  0  0  0  0
  -25.0734  -34.9066   17.5899 C   0  0  0  0  0  0  0  0  0  0  0  0
  -26.0017  -27.7856   19.1101 C   0  0  0  0  0  0  0  0  0  0  0  0
  -25.7104  -33.6545   17.4946 C   0  0  0  0  0  0  0  0  0  0  0  0
  -26.9439  -27.5353   20.1180 C   0  0  0  0  0  0  0  0  0  0  0  0
  -28.2595  -20.4506   20.8336 C   0  0  0  0  0  0  0  0  0  0  0  0
  -29.2916  -18.2791   20.5958 C   0  0  0  0  0  0  0  0  0  0  0  0
  -23.1833   -8.2295   22.7242 C   0  0  0  0  0  0  0  0  0  0  0  0
  -27.9834  -25.8480   18.7101 C   0  0  0  0  0  0  0  0  0  0  0  0
  -29.1148  -20.9638   19.8584 C   0  0  0  0  0  0  0  0  0  0  0  0
  -22.9926   -5.8891   22.6302 C   0  0  0  0  0  0  0  0  0  0  0  0
  -23.6770   -3.4796   21.4020 C   0  0  0  0  0  0  0  0  0  0  0  0
  -21.9985   -5.0789   22.0817 C   0  0  0  0  0  0  0  0  0  0  0  0
  -24.8267  -11.7845   21.1246 C   0  0  0  0  0  0  0  0  0  0  0  0
  -25.1191  -13.8253   20.3601 C   0  0  0  0  0  0  0  0  0  0  0  0
  -22.7752  -13.3350   21.0772 C   0  0  0  0  0  0  0  0  0  0  0  0
  -26.2568  -30.8651   19.8553 C   0  0  0  0  0  0  0  0  0  0  0  0
  -25.4833  -29.8101   22.8237 C   0  0  0  0  0  0  0  0  0  0  0  0
  -25.4123  -27.2273   25.0533 C   0  0  0  0  0  0  0  0  0  0  0  0
  -30.2615  -15.9577   20.4667 C   0  0  0  0  0  0  0  0  0  0  0  0
  -25.1551  -35.7451   18.8408 C   0  0  0  0  0  0  0  0  0  0  0  0
  -24.9120  -28.8006   19.3211 C   0  0  0  0  0  0  0  0  0  0  0  0
  -26.9258  -28.2849   21.4242 C   0  0  0  0  0  0  0  0  0  0  0  0
  -25.5819  -34.9562   20.0761 C   0  0  0  0  0  0  0  0  0  0  0  0
  -29.8355  -12.8333   18.8132 C   0  0  0  0  0  0  0  0  0  0  0  0
  -26.7842  -34.0735   19.7567 C   0  0  0  0  0  0  0  0  0  0  0  0
  -28.4389  -12.3814   19.2462 C   0  0  0  0  0  0  0  0  0  0  0  0
  -30.5754  -13.5491   19.9419 C   0  0  0  0  0  0  0  0  0  0  0  0
  -28.4460  -14.2121   20.9885 C   0  0  0  0  0  0  0  0  0  0  0  0
  -26.4414  -33.0457   18.6715 C   0  0  1  0  0  0  0  0  0  0  0  0
  -25.2701  -29.8534   20.3656 C   0  0  1  0  0  0  0  0  0  0  0  0
  -27.6373  -13.5434   19.8650 C   0  0  2  0  0  0  0  0  0  0  0  0
  -24.7577  -26.6796   27.4132 C   0  0  0  0  0  0  0  0  0  0  0  0
  -26.4107  -20.5260   22.5429 C   0  0  0  0  0  0  0  0  0  0  0  0
  -26.2460  -21.9153   20.4503 C   0  0  0  0  0  0  0  0  0  0  0  0
  -27.8196  -22.5558   22.2655 C   0  0  0  0  0  0  0  0  0  0  0  0
  -27.9812  -31.2342   23.8445 C   0  0  0  0  0  0  0  0  0  0  0  0
  -27.8005  -29.8929   25.9508 C   0  0  0  0  0  0  0  0  0  0  0  0
  -25.9726  -31.4674   25.3161 C   0  0  0  0  0  0  0  0  0  0  0  0
  -23.4345  -25.2148   24.1605 C   0  0  0  0  0  0  0  0  0  0  0  0
  -28.6220  -23.8002   17.6831 C   0  0  0  0  0  0  0  0  0  1  0  0
  -29.4048  -22.5858   18.1436 C   0  0  0  0  0  0  0  0  0  0  0  0
  -26.2616  -29.3164   24.0193 C   0  0  1  0  0  0  0  0  0  0  0  0
  -24.3105  -26.7093   25.9600 C   0  0  2  0  0  0  0  0  0  0  0  0
  -27.2436  -21.3237   21.4931 C   0  0  0  0  0  0  0  0  0  0  0  0
  -27.0058  -30.4648   24.7574 C   0  0  0  0  0  0  0  0  0  0  0  0
  -26.1217  -11.8386   20.8022 N   0  0  0  0  0  0  0  0  0  0  0  0
  -26.2688  -13.0920   20.3400 N   0  0  0  0  0  0  0  0  0  0  0  0
  -25.8445  -29.2717   21.5805 N   0  0  0  0  0  0  0  0  0  0  0  0
  -29.7572  -14.6400   20.4763 N   0  0  0  0  0  0  0  0  0  0  0  0
  -25.0893  -15.1049   19.9309 N   0  0  0  0  0  0  0  0  0  0  0  0
  -21.9185  -12.3621   21.6101 N   0  0  0  0  0  0  0  0  0  0  0  0
  -29.3817  -16.9154   20.9700 N   0  0  0  0  0  0  0  0  0  0  0  0
  -25.6758  -31.9537   19.2335 N   0  0  0  0  0  0  0  0  0  0  0  0
  -25.3112  -28.5877   24.8525 N   0  0  0  0  0  0  0  0  0  0  0  0
  -23.9176  -25.3283   25.5608 N   0  3  0  0  0  0  0  0  0  0  0  0
  -22.3143  -14.4638   20.7824 O   0  0  0  0  0  0  0  0  0  0  0  0
  -27.4565  -30.6730   20.0153 O   0  0  0  0  0  0  0  0  0  0  0  0
  -24.5832  -30.6374   22.9877 O   0  0  0  0  0  0  0  0  0  0  0  0
  -26.2785  -26.4987   24.5744 O   0  0  0  0  0  0  0  0  0  0  0  0
  -31.3801  -16.2212   20.0182 O   0  0  0  0  0  0  0  0  0  0  0  0
  -22.6546   -7.0859   23.2394 O   0  0  0  0  0  0  0  0  0  0  0  0
  -28.9507  -24.9103   18.5173 O   0  0  0  0  0  0  0  0  0  1  0  0
  -29.0414  -22.2798   19.4843 O   0  0  0  0  0  0  0  0  0  0  0  0
  -24.0058   -2.3234   20.8111 F   0  0  0  0  0  0  0  0  0  0  0  0
  -20.7131   -5.4532   22.1407 F   0  0  0  0  0  0  0  0  0  0  0  0
  1  2  1  0  0  0  0
  1  5  2  0  0  0  0
  2  6  2  0  0  0  0
  3  9  2  0  0  0  0
  3 18  1  0  0  0  0
  4 10  1  0  0  0  0
  4 18  2  0  0  0  0
  5 20  1  0  0  0  0
  6 22  1  0  0  0  0
  7 11  2  0  0  0  0
  7 21  1  0  0  0  0
  8 12  2  0  0  0  0
  8 25  1  0  0  0  0
  9 26  1  0  0  0  0
 10 26  2  0  0  0  0
 11 27  1  0  0  0  0
 12 28  1  0  0  0  0
 13 14  2  0  0  0  0
 13 29  1  0  0  0  0
 14 30  1  0  0  0  0
 15 23  1  0  0  0  0
 15 27  2  0  0  0  0
 16 24  1  0  0  0  0
 16 25  2  0  0  0  0
 17 30  2  0  0  0  0
 17 31  1  0  0  0  0
 18 32  1  0  0  0  0
 19 32  1  0  0  0  0
 19 33  2  0  0  0  0
 19 34  1  0  0  0  0
 20 22  2  0  0  0  0
 20 39  1  0  0  0  0
 21 23  2  0  0  0  0
 21 40  1  0  0  0  0
 22 48  1  0  0  0  0
 23 41  1  0  0  0  0
 24 28  2  0  0  0  0
 24 63  1  0  0  0  0
 25 71  1  0  0  0  0
 26 80  1  0  0  0  0
 27 81  1  0  0  0  0
 28 82  1  0  0  0  0
 29 31  2  0  0  0  0
 29 80  1  0  0  0  0
 30 83  1  0  0  0  0
 31 84  1  0  0  0  0
 32 65  2  0  0  0  0
 33 66  1  0  0  0  0
 33 69  1  0  0  0  0
 34 70  1  0  0  0  0
 34 75  2  0  0  0  0
 35 49  1  0  0  0  0
 35 72  1  0  0  0  0
 35 76  2  0  0  0  0
 36 61  1  0  0  0  0
 36 67  1  0  0  0  0
 36 77  2  0  0  0  0
 37 62  1  0  0  0  0
 37 73  1  0  0  0  0
 37 78  2  0  0  0  0
 38 68  1  0  0  0  0
 38 71  1  0  0  0  0
 38 79  2  0  0  0  0
 39 42  1  0  0  0  0
 40 49  1  0  0  0  0
 41 67  1  0  0  0  0
 42 44  1  0  0  0  0
 43 45  1  0  0  0  0
 43 46  1  0  0  0  0
 44 48  1  0  0  0  0
 45 50  1  0  0  0  0
 46 68  1  0  0  0  0
 47 50  1  0  0  0  0
 47 68  1  0  0  0  0
 48 72  1  0  0  0  0
 49 67  1  0  0  0  0
 50 66  1  0  0  0  0
 51 62  1  0  0  0  0
 52 63  1  0  0  0  0
 53 63  1  0  0  0  0
 54 63  1  0  0  0  0
 55 64  1  0  0  0  0
 56 64  1  0  0  0  0
 57 64  1  0  0  0  0
 58 74  1  0  0  0  0
 59 60  1  0  0  0  0
 59 81  1  0  0  0  0
 60 82  1  0  0  0  0
 61 64  1  0  0  0  0
 61 73  1  0  0  0  0
 62 74  1  0  0  0  0
 65 66  1  0  0  0  0
M  CHG  1  74   1
M  ISO  4  38 100  59 101  71 100  81 101
M  END
> <Batch ID>
0001

> <Smiles>
CNC(C)C(=O)NC(C(=O)N1Cc2cc([101O:1][101CH2:1]COc3ccc([100NH:0][100C:0](=O)N4CCCC(n5nc(-c6ccc(Oc7ccc(F)cc7F)cc6)c(C(N)=O)c5N)C4)cc3C(C)(C)C)ccc2CC1C(=O)NC1CCCc2ccccc21)C(C)(C)C

> <Shape>
0.304

> <Color>
0.158

> <Negative vol penalty>
0.000

$$$$

  -OEChem-04042320143D

 84 92  0     1  0  0  0  0  0999 V2000
  -20.2904  -26.3576   25.9967 C   0  0  0  0  0  0  0  0  0  0  0  0
  -21.4159  -26.1039   25.2193 C   0  0  0  0  0  0  0  0  0  0  0  0
  -24.6954  -10.2951   22.7341 C   0  0  0  0  0  0  0  0  0  0  0  0
  -24.6832  -11.9315   24.5115 C   0  0  0  0  0  0  0  0  0  0  0  0
  -19.2471  -27.1254   25.4812 C   0  0  0  0  0  0  0  0  0  0  0  0
  -21.4981  -26.6171   23.9253 C   0  0  0  0  0  0  0  0  0  0  0  0
  -26.0261  -28.6533   22.9272 C   0  0  0  0  0  0  0  0  0  0  0  0
  -29.6864  -20.4773   20.6287 C   0  0  0  0  0  0  0  0  0  0  0  0
  -24.3414   -9.3013   23.6466 C   0  0  0  0  0  0  0  0  0  0  0  0
  -24.3291  -10.9377   25.4240 C   0  0  0  0  0  0  0  0  0  0  0  0
  -27.0693  -27.7750   22.6374 C   0  0  0  0  0  0  0  0  0  0  0  0
  -29.6441  -21.8639   20.7738 C   0  0  0  0  0  0  0  0  0  0  0  0
  -21.5382   -8.2412   25.2122 C   0  0  0  0  0  0  0  0  0  0  0  0
  -20.5319   -7.3494   24.8414 C   0  0  0  0  0  0  0  0  0  0  0  0
  -26.7690  -28.2048   20.2828 C   0  0  0  0  0  0  0  0  0  0  0  0
  -27.2747  -20.4174   20.4972 C   0  0  0  0  0  0  0  0  0  0  0  0
  -22.0787   -5.5079   25.0730 C   0  0  0  0  0  0  0  0  0  0  0  0
  -24.8663  -11.6102   23.1666 C   0  0  0  0  0  0  0  0  0  0  0  0
  -24.3634  -13.4490   21.4714 C   0  0  0  0  0  0  0  0  0  0  0  0
  -19.3208  -27.6564   24.1838 C   0  0  0  0  0  0  0  0  0  0  0  0
  -25.3382  -29.3068   21.8946 C   0  0  0  0  0  0  0  0  0  0  0  0
  -20.4542  -27.3917   23.3915 C   0  0  0  0  0  0  0  0  0  0  0  0
  -25.7192  -29.0929   20.5623 C   0  0  0  0  0  0  0  0  0  0  0  0
  -27.2324  -21.8040   20.6424 C   0  0  0  0  0  0  0  0  0  0  0  0
  -28.5017  -19.7540   20.4903 C   0  0  0  0  0  0  0  0  0  0  0  0
  -24.1582   -9.6226   24.9915 C   0  0  0  0  0  0  0  0  0  0  0  0
  -27.4390  -27.5484   21.3149 C   0  0  0  0  0  0  0  0  0  0  0  0
  -28.4171  -22.5273   20.7807 C   0  0  0  0  0  0  0  0  0  0  0  0
  -22.8148   -7.7665   25.5134 C   0  0  0  0  0  0  0  0  0  0  0  0
  -20.8021   -5.9827   24.7718 C   0  0  0  0  0  0  0  0  0  0  0  0
  -23.0850   -6.3998   25.4438 C   0  0  0  0  0  0  0  0  0  0  0  0
  -25.2326  -12.6371   22.2246 C   0  0  0  0  0  0  0  0  0  0  0  0
  -25.1976  -14.2552   20.7361 C   0  0  0  0  0  0  0  0  0  0  0  0
  -22.9302  -13.4723   21.4394 C   0  0  0  0  0  0  0  0  0  0  0  0
  -22.3308  -29.3284   20.8655 C   0  0  0  0  0  0  0  0  0  0  0  0
  -23.4282  -31.6697   18.9069 C   0  0  0  0  0  0  0  0  0  0  0  0
  -26.0820  -33.1069   17.3135 C   0  0  0  0  0  0  0  0  0  0  0  0
  -29.6785  -17.5334   20.3153 C   0  0  0  0  0  0  0  0  0  0  0  0
  -18.1473  -28.4410   23.6527 C   0  0  0  0  0  0  0  0  0  0  0  0
  -24.2327  -30.2717   22.2253 C   0  0  0  0  0  0  0  0  0  0  0  0
  -25.0259  -29.7852   19.4183 C   0  0  0  0  0  0  0  0  0  0  0  0
  -18.4762  -29.2613   22.4081 C   0  0  0  0  0  0  0  0  0  0  0  0
  -30.2013  -14.0250   20.0072 C   0  0  0  0  0  0  0  0  0  0  0  0
  -19.2545  -28.4178   21.4032 C   0  0  0  0  0  0  0  0  0  0  0  0
  -28.8837  -13.4180   20.4947 C   0  0  0  0  0  0  0  0  0  0  0  0
  -30.5814  -15.2708   20.8055 C   0  0  0  0  0  0  0  0  0  0  0  0
  -28.2209  -15.6947   21.3688 C   0  0  0  0  0  0  0  0  0  0  0  0
  -20.5913  -27.9517   21.9923 C   0  0  1  0  0  0  0  0  0  0  0  0
  -23.2633  -30.4891   21.0676 C   0  0  1  0  0  0  0  0  0  0  0  0
  -27.7635  -14.4750   20.5523 C   0  0  2  0  0  0  0  0  0  0  0  0
  -26.6612  -34.9845   15.7527 C   0  0  0  0  0  0  0  0  0  0  0  0
  -22.2939  -30.0720   16.5680 C   0  0  0  0  0  0  0  0  0  0  0  0
  -23.6975  -31.4612   15.0290 C   0  0  0  0  0  0  0  0  0  0  0  0
  -21.9299  -32.5418   16.4184 C   0  0  0  0  0  0  0  0  0  0  0  0
  -27.8567  -34.3762   19.3131 C   0  0  0  0  0  0  0  0  0  0  0  0
  -28.3897  -25.9954   19.7851 C   0  0  0  0  0  0  0  0  0  1  0  0
  -29.0734  -24.6499   19.9327 C   0  0  0  0  0  0  0  0  0  0  0  0
  -24.0433  -31.7098   17.5289 C   0  0  1  0  0  0  0  0  0  0  0  0
  -26.5287  -34.5537   17.2051 C   0  0  2  0  0  0  0  0  0  0  0  0
  -25.9102  -22.4979   20.6476 C   0  0  0  0  0  0  0  0  0  0  0  0
  -23.0031  -31.4315   16.4073 C   0  0  0  0  0  0  0  0  0  0  0  0
  -26.5202  -12.9031   21.9892 N   0  0  0  0  0  0  0  0  0  0  0  0
  -26.4662  -13.8912   21.0798 N   0  0  0  0  0  0  0  0  0  0  0  0
  -23.9470  -30.7145   19.7925 N   0  0  0  0  0  0  0  0  0  0  0  0
  -29.4739  -16.2291   20.8128 N   0  0  0  0  0  0  0  0  0  0  0  0
  -24.9623  -15.2328   19.8354 N   0  0  0  0  0  0  0  0  0  0  0  0
  -22.2290  -12.5767   22.2582 N   0  0  0  0  0  0  0  0  0  0  0  0
  -28.5451  -18.3454   20.3428 N   0  0  0  0  0  0  0  0  0  0  0  0
  -21.5566  -29.0297   21.9705 N   0  0  0  0  0  0  0  0  0  0  0  0
  -24.7110  -33.0021   17.4173 N   0  0  0  0  0  0  0  0  0  0  0  0
  -27.8480  -34.7398   17.8728 N   0  3  0  0  0  0  0  0  0  0  0  0
  -22.2905  -14.2528   20.6943 O   0  0  0  0  0  0  0  0  0  0  0  0
  -22.3139  -28.7477   19.7866 O   0  0  0  0  0  0  0  0  0  0  0  0
  -22.5257  -32.4617   19.1896 O   0  0  0  0  0  0  0  0  0  0  0  0
  -26.8701  -32.1638   17.3032 O   0  0  0  0  0  0  0  0  0  0  0  0
  -30.7712  -17.8944   19.8705 O   0  0  0  0  0  0  0  0  0  0  0  0
  -23.8125   -8.6531   25.8822 O   0  0  0  0  0  0  0  0  0  0  0  0
  -28.4565  -26.6911   21.0292 O   0  0  0  0  0  0  0  0  0  1  0  0
  -28.3937  -23.8896   20.9242 O   0  0  0  0  0  0  0  0  0  0  0  0
  -19.8353   -5.1262   24.4171 F   0  0  0  0  0  0  0  0  0  0  0  0
  -24.3091   -5.9376   25.7331 F   0  0  0  0  0  0  0  0  0  0  0  0
  -24.8490  -21.6512   20.5025 F   0  0  0  0  0  0  0  0  0  0  0  0
  -25.6617  -23.1886   21.7986 F   0  0  0  0  0  0  0  0  0  0  0  0
  -25.7936  -23.4094   19.6393 F   0  0  0  0  0  0  0  0  0  0  0  0
  1  2  1  0  0  0  0
  1  5  2  0  0  0  0
  2  6  2  0  0  0  0
  3  9  2  0  0  0  0
  3 18  1  0  0  0  0
  4 10  1  0  0  0  0
  4 18  2  0  0  0  0
  5 20  1  0  0  0  0
  6 22  1  0  0  0  0
  7 11  2  0  0  0  0
  7 21  1  0  0  0  0
  8 12  2  0  0  0  0
  8 25  1  0  0  0  0
  9 26  1  0  0  0  0
 10 26  2  0  0  0  0
 11 27  1  0  0  0  0
 12 28  1  0  0  0  0
 13 14  2  0  0  0  0
 13 29  1  0  0  0  0
 14 30  1  0  0  0  0
 15 23  1  0  0  0  0
 15 27  2  0  0  0  0
 16 24  1  0  0  0  0
 16 25  2  0  0  0  0
 17 30  2  0  0  0  0
 17 31  1  0  0  0  0
 18 32  1  0  0  0  0
 19 32  1  0  0  0  0
 19 33  2  0  0  0  0
 19 34  1  0  0  0  0
 20 22  2  0  0  0  0
 20 39  1  0  0  0  0
 21 23  2  0  0  0  0
 21 40  1  0  0  0  0
 22 48  1  0  0  0  0
 23 41  1  0  0  0  0
 24 28  2  0  0  0  0
 24 60  1  0  0  0  0
 25 68  1  0  0  0  0
 26 77  1  0  0  0  0
 27 78  1  0  0  0  0
 28 79  1  0  0  0  0
 29 31  2  0  0  0  0
 29 77  1  0  0  0  0
 30 80  1  0  0  0  0
 31 81  1  0  0  0  0
 32 62  2  0  0  0  0
 33 63  1  0  0  0  0
 33 66  1  0  0  0  0
 34 67  1  0  0  0  0
 34 72  2  0  0  0  0
 35 49  1  0  0  0  0
 35 69  1  0  0  0  0
 35 73  2  0  0  0  0
 36 58  1  0  0  0  0
 36 64  1  0  0  0  0
 36 74  2  0  0  0  0
 37 59  1  0  0  0  0
 37 70  1  0  0  0  0
 37 75  2  0  0  0  0
 38 65  1  0  0  0  0
 38 68  1  0  0  0  0
 38 76  2  0  0  0  0
 39 42  1  0  0  0  0
 40 49  1  0  0  0  0
 41 64  1  0  0  0  0
 42 44  1  0  0  0  0
 43 45  1  0  0  0  0
 43 46  1  0  0  0  0
 44 48  1  0  0  0  0
 45 50  1  0  0  0  0
 46 65  1  0  0  0  0
 47 50  1  0  0  0  0
 47 65  1  0  0  0  0
 48 69  1  0  0  0  0
 49 64  1  0  0  0  0
 50 63  1  0  0  0  0
 51 59  1  0  0  0  0
 52 61  1  0  0  0  0
 53 61  1  0  0  0  0
 54 61  1  0  0  0  0
 55 71  1  0  0  0  0
 56 57  1  0  0  0  0
 56 78  1  0  0  0  0
 57 79  1  0  0  0  0
 58 61  1  0  0  0  0
 58 70  1  0  0  0  0
 59 71  1  0  0  0  0
 60 82  1  0  0  0  0
 60 83  1  0  0  0  0
 60 84  1  0  0  0  0
 62 63  1  0  0  0  0
M  CHG  1  71   1
M  ISO  4  38 100  56 101  68 100  78 101
M  END
> <Batch ID>
0001

> <Smiles>
CNC(C)C(=O)NC(C(=O)N1Cc2cc([101O:1][101CH2:1]COc3ccc([100NH:0][100C:0](=O)N4CCCC(n5nc(-c6ccc(Oc7ccc(F)cc7F)cc6)c(C(N)=O)c5N)C4)cc3C(F)(F)F)ccc2CC1C(=O)NC1CCCc2ccccc21)C(C)(C)C

> <Shape>
0.256

> <Color>
0.142

> <Negative vol penalty>
0.000

$$$$

  -OEChem-04042320143D

 81 89  0     1  0  0  0  0  0999 V2000
  -25.2681  -31.6434   24.3631 C   0  0  0  0  0  0  0  0  0  0  0  0
  -26.0192  -30.4975   24.6040 C   0  0  0  0  0  0  0  0  0  0  0  0
  -23.3378   -9.8631   21.0434 C   0  0  0  0  0  0  0  0  0  0  0  0
  -23.9482  -10.6260   23.2531 C   0  0  0  0  0  0  0  0  0  0  0  0
  -24.6097  -31.8005   23.1442 C   0  0  0  0  0  0  0  0  0  0  0  0
  -26.1116  -29.5074   23.6264 C   0  0  0  0  0  0  0  0  0  0  0  0
  -30.9557  -25.9571   22.4283 C   0  0  0  0  0  0  0  0  0  0  0  0
  -30.9308  -16.2650   23.9291 C   0  0  0  0  0  0  0  0  0  0  0  0
  -32.9439  -16.2358   22.5934 C   0  0  0  0  0  0  0  0  0  0  0  0
  -30.9434  -17.6598   23.9175 C   0  0  0  0  0  0  0  0  0  0  0  0
  -32.9564  -17.6306   22.5819 C   0  0  0  0  0  0  0  0  0  0  0  0
  -22.6435   -8.7917   21.6051 C   0  0  0  0  0  0  0  0  0  0  0  0
  -23.2539   -9.5545   23.8148 C   0  0  0  0  0  0  0  0  0  0  0  0
  -31.2773  -24.6524   22.8001 C   0  0  0  0  0  0  0  0  0  0  0  0
  -19.6564   -8.2686   23.1008 C   0  0  0  0  0  0  0  0  0  0  0  0
  -18.3877   -7.9827   22.5968 C   0  0  0  0  0  0  0  0  0  0  0  0
  -30.3960  -23.8446   20.7049 C   0  0  0  0  0  0  0  0  0  0  0  0
  -19.1358   -5.7735   21.9668 C   0  0  0  0  0  0  0  0  0  0  0  0
  -23.9902  -10.7803   21.8674 C   0  0  0  0  0  0  0  0  0  0  0  0
  -24.2008  -13.1652   20.9868 C   0  0  0  0  0  0  0  0  0  0  0  0
  -24.7018  -30.8162   22.1475 C   0  0  0  0  0  0  0  0  0  0  0  0
  -30.3408  -26.2146   21.1946 C   0  0  0  0  0  0  0  0  0  0  0  0
  -25.4527  -29.6508   22.3935 C   0  0  0  0  0  0  0  0  0  0  0  0
  -30.0699  -25.1536   20.3187 C   0  0  0  0  0  0  0  0  0  0  0  0
  -31.9311  -15.5530   23.2670 C   0  0  0  0  0  0  0  0  0  0  0  0
  -31.9562  -18.3425   23.2439 C   0  0  0  0  0  0  0  0  0  0  0  0
  -22.6015   -8.6374   22.9908 C   0  0  0  0  0  0  0  0  0  0  0  0
  -30.9948  -23.5956   21.9396 C   0  0  0  0  0  0  0  0  0  0  0  0
  -20.6649   -7.3070   23.0377 C   0  0  0  0  0  0  0  0  0  0  0  0
  -18.1273   -6.7352   22.0298 C   0  0  0  0  0  0  0  0  0  0  0  0
  -20.4046   -6.0595   22.4708 C   0  0  0  0  0  0  0  0  0  0  0  0
  -24.7081  -11.8869   21.2878 C   0  0  0  0  0  0  0  0  0  0  0  0
  -25.2714  -13.8437   20.4577 C   0  0  0  0  0  0  0  0  0  0  0  0
  -22.8800  -13.6922   21.1693 C   0  0  0  0  0  0  0  0  0  0  0  0
  -27.5605  -27.4624   20.2910 C   0  0  0  0  0  0  0  0  0  0  0  0
  -28.8498  -27.1990   17.3261 C   0  0  0  0  0  0  0  0  0  0  0  0
  -31.0961  -25.6586   15.2700 C   0  0  0  0  0  0  0  0  0  0  0  0
  -31.1958  -13.2188   21.0597 C   0  0  0  0  0  0  0  0  0  0  0  0
  -23.9339  -31.0089   20.8638 C   0  0  0  0  0  0  0  0  0  0  0  0
  -30.0246  -27.6303   20.7970 C   0  0  0  0  0  0  0  0  0  0  0  0
  -29.4293  -25.3790   18.9744 C   0  0  0  0  0  0  0  0  0  0  0  0
  -24.3884  -30.0841   19.7375 C   0  0  0  0  0  0  0  0  0  0  0  0
  -29.3302  -13.1249   18.0286 C   0  0  0  0  0  0  0  0  0  0  0  0
  -24.5338  -28.6537   20.2471 C   0  0  0  0  0  0  0  0  0  0  0  0
  -27.8883  -12.9123   18.4930 C   0  0  0  0  0  0  0  0  0  0  0  0
  -30.3232  -12.3642   18.9046 C   0  0  0  0  0  0  0  0  0  0  0  0
  -28.7664  -12.4225   20.8142 C   0  0  0  0  0  0  0  0  0  0  0  0
  -25.5971  -28.5658   21.3485 C   0  0  1  0  0  0  0  0  0  0  0  0
  -28.9323  -27.7232   19.7360 C   0  0  1  0  0  0  0  0  0  0  0  0
  -27.7328  -13.2148   19.9956 C   0  0  2  0  0  0  0  0  0  0  0  0
  -31.8913  -25.6306   12.8900 C   0  0  0  0  0  0  0  0  0  0  0  0
  -26.3444  -25.6606   16.5097 C   0  0  0  0  0  0  0  0  0  0  0  0
  -27.5805  -24.8595   14.4852 C   0  0  0  0  0  0  0  0  0  0  0  0
  -27.1645  -27.2980   14.8065 C   0  0  0  0  0  0  0  0  0  0  0  0
  -33.8407  -26.4387   16.0559 C   0  0  0  0  0  0  0  0  0  0  0  0
  -31.9187  -14.0618   23.2792 C   0  0  0  0  0  0  0  0  0  0  0  0
  -30.9723  -20.5435   23.8871 C   0  0  0  0  0  0  0  0  0  0  0  0
  -31.2875  -22.0174   23.6944 C   0  0  0  0  0  0  0  0  0  1  0  0
  -28.8711  -26.1297   16.2607 C   0  0  1  0  0  0  0  0  0  0  0  0
  -32.1007  -26.2162   14.2778 C   0  0  2  0  0  0  0  0  0  0  0  0
  -27.5004  -25.9822   15.5416 C   0  0  0  0  0  0  0  0  0  0  0  0
  -26.0004  -11.7585   20.9756 N   0  0  0  0  0  0  0  0  0  0  0  0
  -26.3142  -12.9647   20.4730 N   0  0  0  0  0  0  0  0  0  0  0  0
  -29.1333  -26.7804   18.6338 N   0  0  0  0  0  0  0  0  0  0  0  0
  -30.1238  -12.6969   20.3172 N   0  0  0  0  0  0  0  0  0  0  0  0
  -25.4132  -15.1004   19.9855 N   0  0  0  0  0  0  0  0  0  0  0  0
  -21.8997  -12.8599   21.7266 N   0  0  0  0  0  0  0  0  0  0  0  0
  -31.9680  -19.7275   23.2307 N   0  0  0  0  0  0  0  0  0  0  0  0
  -26.9246  -28.5907   20.7726 N   0  0  0  0  0  0  0  0  0  0  0  0
  -29.9795  -26.4611   15.3719 N   0  0  0  0  0  0  0  0  0  0  0  0
  -30.9198  -13.5130   22.3894 N   0  0  0  0  0  0  0  0  0  0  0  0
  -33.4902  -25.9022   14.7156 N   0  3  0  0  0  0  0  0  0  0  0  0
  -22.5738  -14.8610   20.8325 O   0  0  0  0  0  0  0  0  0  0  0  0
  -27.1116  -26.3221   20.2815 O   0  0  0  0  0  0  0  0  0  0  0  0
  -28.5981  -28.3641   17.0085 O   0  0  0  0  0  0  0  0  0  0  0  0
  -31.2817  -24.6135   15.8897 O   0  0  0  0  0  0  0  0  0  0  0  0
  -32.3145  -13.4135   20.5723 O   0  0  0  0  0  0  0  0  0  0  0  0
  -21.9239   -7.5921   23.5393 O   0  0  0  0  0  0  0  0  0  0  0  0
  -31.3071  -22.3212   22.3003 O   0  0  0  0  0  0  0  0  0  1  0  0
  -16.9084   -6.4602   21.5472 F   0  0  0  0  0  0  0  0  0  0  0  0
  -21.3691   -5.1312   22.4085 F   0  0  0  0  0  0  0  0  0  0  0  0
  1  2  1  0  0  0  0
  1  5  2  0  0  0  0
  2  6  2  0  0  0  0
  3 12  2  0  0  0  0
  3 19  1  0  0  0  0
  4 13  1  0  0  0  0
  4 19  2  0  0  0  0
  5 21  1  0  0  0  0
  6 23  1  0  0  0  0
  7 14  2  0  0  0  0
  7 22  1  0  0  0  0
  8 10  2  0  0  0  0
  8 25  1  0  0  0  0
  9 11  1  0  0  0  0
  9 25  2  0  0  0  0
 10 26  1  0  0  0  0
 11 26  2  0  0  0  0
 12 27  1  0  0  0  0
 13 27  2  0  0  0  0
 14 28  1  0  0  0  0
 15 16  2  0  0  0  0
 15 29  1  0  0  0  0
 16 30  1  0  0  0  0
 17 24  1  0  0  0  0
 17 28  2  0  0  0  0
 18 30  2  0  0  0  0
 18 31  1  0  0  0  0
 19 32  1  0  0  0  0
 20 32  1  0  0  0  0
 20 33  2  0  0  0  0
 20 34  1  0  0  0  0
 21 23  2  0  0  0  0
 21 39  1  0  0  0  0
 22 24  2  0  0  0  0
 22 40  1  0  0  0  0
 23 48  1  0  0  0  0
 24 41  1  0  0  0  0
 25 56  1  0  0  0  0
 26 68  1  0  0  0  0
 27 78  1  0  0  0  0
 28 79  1  0  0  0  0
 29 31  2  0  0  0  0
 29 78  1  0  0  0  0
 30 80  1  0  0  0  0
 31 81  1  0  0  0  0
 32 62  2  0  0  0  0
 33 63  1  0  0  0  0
 33 66  1  0  0  0  0
 34 67  1  0  0  0  0
 34 73  2  0  0  0  0
 35 49  1  0  0  0  0
 35 69  1  0  0  0  0
 35 74  2  0  0  0  0
 36 59  1  0  0  0  0
 36 64  1  0  0  0  0
 36 75  2  0  0  0  0
 37 60  1  0  0  0  0
 37 70  1  0  0  0  0
 37 76  2  0  0  0  0
 38 65  1  0  0  0  0
 38 71  1  0  0  0  0
 38 77  2  0  0  0  0
 39 42  1  0  0  0  0
 40 49  1  0  0  0  0
 41 64  1  0  0  0  0
 42 44  1  0  0  0  0
 43 45  1  0  0  0  0
 43 46  1  0  0  0  0
 44 48  1  0  0  0  0
 45 50  1  0  0  0  0
 46 65  1  0  0  0  0
 47 50  1  0  0  0  0
 47 65  1  0  0  0  0
 48 69  1  0  0  0  0
 49 64  1  0  0  0  0
 50 63  1  0  0  0  0
 51 60  1  0  0  0  0
 52 61  1  0  0  0  0
 53 61  1  0  0  0  0
 54 61  1  0  0  0  0
 55 72  1  0  0  0  0
 56 71  1  0  0  0  0
 57 58  1  0  0  0  0
 57 68  1  0  0  0  0
 58 79  1  0  0  0  0
 59 61  1  0  0  0  0
 59 70  1  0  0  0  0
 60 72  1  0  0  0  0
 62 63  1  0  0  0  0
M  CHG  1  72   1
M  ISO  4  38 100  58 101  71 100  79 101
M  END
> <Batch ID>
0001

> <Smiles>
CNC(C)C(=O)NC(C(=O)N1Cc2cc([101O:1][101CH2:1]CNc3ccc(C[100NH:0][100C:0](=O)N4CCCC(n5nc(-c6ccc(Oc7ccc(F)cc7F)cc6)c(C(N)=O)c5N)C4)cc3)ccc2CC1C(=O)NC1CCCc2ccccc21)C(C)(C)C

> <Shape>
0.259

> <Color>
0.159

> <Negative vol penalty>
0.000

$$$$

  -OEChem-04042320143D

 81 89  0     1  0  0  0  0  0999 V2000
  -28.6561  -32.5991   25.5568 C   0  0  0  0  0  0  0  0  0  0  0  0
  -28.8112  -31.2640   25.1979 C   0  0  0  0  0  0  0  0  0  0  0  0
  -23.9419  -10.0095   22.3373 C   0  0  0  0  0  0  0  0  0  0  0  0
  -24.5902  -11.6421   23.9960 C   0  0  0  0  0  0  0  0  0  0  0  0
  -27.4059  -33.2073   25.4517 C   0  0  0  0  0  0  0  0  0  0  0  0
  -27.7158  -30.5359   24.7348 C   0  0  0  0  0  0  0  0  0  0  0  0
  -28.8204  -27.7502   20.6525 C   0  0  0  0  0  0  0  0  0  0  0  0
  -30.7419  -18.6706   18.9070 C   0  0  0  0  0  0  0  0  0  0  0  0
  -23.5187   -9.1487   23.3499 C   0  0  0  0  0  0  0  0  0  0  0  0
  -24.1670  -10.7813   25.0087 C   0  0  0  0  0  0  0  0  0  0  0  0
  -29.5139  -26.5592   20.8631 C   0  0  0  0  0  0  0  0  0  0  0  0
  -31.0436  -20.0307   18.9742 C   0  0  0  0  0  0  0  0  0  0  0  0
  -24.9321   -7.0100   25.5528 C   0  0  0  0  0  0  0  0  0  0  0  0
  -25.3008   -5.6682   25.4579 C   0  0  0  0  0  0  0  0  0  0  0  0
  -27.4456  -25.3304   20.6849 C   0  0  0  0  0  0  0  0  0  0  0  0
  -28.3919  -19.1803   19.1417 C   0  0  0  0  0  0  0  0  0  0  0  0
  -22.9708   -5.0306   25.4181 C   0  0  0  0  0  0  0  0  0  0  0  0
  -24.4777  -11.2563   22.6603 C   0  0  0  0  0  0  0  0  0  0  0  0
  -24.1480  -13.1230   20.9532 C   0  0  0  0  0  0  0  0  0  0  0  0
  -26.2968  -32.4890   24.9779 C   0  0  0  0  0  0  0  0  0  0  0  0
  -27.4305  -27.7413   20.4671 C   0  0  0  0  0  0  0  0  0  0  0  0
  -26.4493  -31.1347   24.6245 C   0  0  0  0  0  0  0  0  0  0  0  0
  -26.7372  -26.5225   20.4696 C   0  0  0  0  0  0  0  0  0  0  0  0
  -28.6937  -20.5405   19.2089 C   0  0  0  0  0  0  0  0  0  0  0  0
  -29.4160  -18.2453   18.9908 C   0  0  0  0  0  0  0  0  0  0  0  0
  -23.6312   -9.5346   24.6856 C   0  0  0  0  0  0  0  0  0  0  0  0
  -28.8261  -25.3493   20.8821 C   0  0  0  0  0  0  0  0  0  0  0  0
  -30.0196  -20.9657   19.1251 C   0  0  0  0  0  0  0  0  0  0  0  0
  -23.5826   -7.3622   25.5805 C   0  0  0  0  0  0  0  0  0  0  0  0
  -24.3202   -4.6785   25.3905 C   0  0  0  0  0  0  0  0  0  0  0  0
  -22.6020   -6.3725   25.5131 C   0  0  0  0  0  0  0  0  0  0  0  0
  -24.9156  -12.1457   21.6147 C   0  0  0  0  0  0  0  0  0  0  0  0
  -25.0172  -13.6920   20.0547 C   0  0  0  0  0  0  0  0  0  0  0  0
  -22.7725  -13.4842   21.1347 C   0  0  0  0  0  0  0  0  0  0  0  0
  -24.9512  -28.9735   22.0288 C   0  0  0  0  0  0  0  0  0  0  0  0
  -23.2851  -27.8427   19.4856 C   0  0  0  0  0  0  0  0  0  0  0  0
  -23.0984  -25.6245   16.8988 C   0  0  0  0  0  0  0  0  0  0  0  0
  -30.0066  -15.8060   18.7740 C   0  0  0  0  0  0  0  0  0  0  0  0
  -24.9551  -33.1760   24.9264 C   0  0  0  0  0  0  0  0  0  0  0  0
  -26.7008  -29.0321   20.2146 C   0  0  0  0  0  0  0  0  0  0  0  0
  -25.2478  -26.4568   20.2554 C   0  0  0  0  0  0  0  0  0  0  0  0
  -23.9263  -32.4399   24.0721 C   0  0  0  0  0  0  0  0  0  0  0  0
  -29.6516  -12.2675   18.6003 C   0  0  0  0  0  0  0  0  0  0  0  0
  -23.9271  -30.9503   24.4006 C   0  0  0  0  0  0  0  0  0  0  0  0
  -28.3247  -12.0007   19.3146 C   0  0  0  0  0  0  0  0  0  0  0  0
  -30.4306  -13.4056   19.2572 C   0  0  0  0  0  0  0  0  0  0  0  0
  -28.3518  -14.3889   20.1412 C   0  0  0  0  0  0  0  0  0  0  0  0
  -25.2904  -30.3186   24.0943 C   0  0  1  0  0  0  0  0  0  0  0  0
  -25.2146  -28.9538   20.5496 C   0  0  1  0  0  0  0  0  0  0  0  0
  -27.5018  -13.2939   19.4763 C   0  0  2  0  0  0  0  0  0  0  0  0
  -27.5850  -21.5275   19.3706 C   0  0  0  0  0  0  0  0  0  0  0  0
  -21.5985  -24.9159   15.0159 C   0  0  0  0  0  0  0  0  0  0  0  0
  -21.4815  -26.3899   21.4722 C   0  0  0  0  0  0  0  0  0  0  0  0
  -20.6416  -24.9864   19.5767 C   0  0  0  0  0  0  0  0  0  0  0  0
  -20.2780  -27.4542   19.5556 C   0  0  0  0  0  0  0  0  0  0  0  0
  -25.1325  -26.3173   14.8638 C   0  0  0  0  0  0  0  0  0  0  0  0
  -30.8539  -24.1307   20.6389 C   0  0  0  0  0  0  0  0  0  1  0  0
  -31.1894  -22.7038   20.2505 C   0  0  0  0  0  0  0  0  0  0  0  0
  -22.6000  -26.5400   19.1501 C   0  0  1  0  0  0  0  0  0  0  0  0
  -22.7531  -25.8135   15.4327 C   0  0  2  0  0  0  0  0  0  0  0  0
  -21.2781  -26.3437   19.9446 C   0  0  0  0  0  0  0  0  0  0  0  0
  -26.1754  -12.0940   21.1740 N   0  0  0  0  0  0  0  0  0  0  0  0
  -26.2061  -13.0458   20.2258 N   0  0  0  0  0  0  0  0  0  0  0  0
  -24.5783  -27.7465   20.0187 N   0  0  0  0  0  0  0  0  0  0  0  0
  -29.5892  -14.5987   19.3732 N   0  0  0  0  0  0  0  0  0  0  0  0
  -24.8728  -14.6769   19.1428 N   0  0  0  0  0  0  0  0  0  0  0  0
  -22.0236  -12.7988   22.1009 N   0  0  0  0  0  0  0  0  0  0  0  0
  -29.1099  -16.8635   18.9224 N   0  0  0  0  0  0  0  0  0  0  0  0
  -25.4363  -30.0963   22.6717 N   0  0  0  0  0  0  0  0  0  0  0  0
  -22.4335  -26.5279   17.7007 N   0  0  0  0  0  0  0  0  0  0  0  0
  -23.9307  -25.4922   14.5777 N   0  3  0  0  0  0  0  0  0  0  0  0
  -22.2192  -14.3768   20.4486 O   0  0  0  0  0  0  0  0  0  0  0  0
  -24.3510  -28.0398   22.5481 O   0  0  0  0  0  0  0  0  0  0  0  0
  -22.6973  -28.9066   19.2757 O   0  0  0  0  0  0  0  0  0  0  0  0
  -23.8770  -24.7593   17.2936 O   0  0  0  0  0  0  0  0  0  0  0  0
  -31.0677  -15.8878   18.1501 O   0  0  0  0  0  0  0  0  0  0  0  0
  -23.2181   -8.6949   25.6740 O   0  0  0  0  0  0  0  0  0  0  0  0
  -29.5005  -24.1854   21.0881 O   0  0  0  0  0  0  0  0  0  1  0  0
  -30.3337  -22.2977   19.1892 O   0  0  0  0  0  0  0  0  0  0  0  0
  -24.6745   -3.3901   25.2978 F   0  0  0  0  0  0  0  0  0  0  0  0
  -21.3040   -6.7048   25.5381 F   0  0  0  0  0  0  0  0  0  0  0  0
  1  2  1  0  0  0  0
  1  5  2  0  0  0  0
  2  6  2  0  0  0  0
  3  9  2  0  0  0  0
  3 18  1  0  0  0  0
  4 10  1  0  0  0  0
  4 18  2  0  0  0  0
  5 20  1  0  0  0  0
  6 22  1  0  0  0  0
  7 11  2  0  0  0  0
  7 21  1  0  0  0  0
  8 12  2  0  0  0  0
  8 25  1  0  0  0  0
  9 26  1  0  0  0  0
 10 26  2  0  0  0  0
 11 27  1  0  0  0  0
 12 28  1  0  0  0  0
 13 14  2  0  0  0  0
 13 29  1  0  0  0  0
 14 30  1  0  0  0  0
 15 23  1  0  0  0  0
 15 27  2  0  0  0  0
 16 24  1  0  0  0  0
 16 25  2  0  0  0  0
 17 30  2  0  0  0  0
 17 31  1  0  0  0  0
 18 32  1  0  0  0  0
 19 32  1  0  0  0  0
 19 33  2  0  0  0  0
 19 34  1  0  0  0  0
 20 22  2  0  0  0  0
 20 39  1  0  0  0  0
 21 23  2  0  0  0  0
 21 40  1  0  0  0  0
 22 48  1  0  0  0  0
 23 41  1  0  0  0  0
 24 28  2  0  0  0  0
 24 51  1  0  0  0  0
 25 68  1  0  0  0  0
 26 77  1  0  0  0  0
 27 78  1  0  0  0  0
 28 79  1  0  0  0  0
 29 31  2  0  0  0  0
 29 77  1  0  0  0  0
 30 80  1  0  0  0  0
 31 81  1  0  0  0  0
 32 62  2  0  0  0  0
 33 63  1  0  0  0  0
 33 66  1  0  0  0  0
 34 67  1  0  0  0  0
 34 72  2  0  0  0  0
 35 49  1  0  0  0  0
 35 69  1  0  0  0  0
 35 73  2  0  0  0  0
 36 59  1  0  0  0  0
 36 64  1  0  0  0  0
 36 74  2  0  0  0  0
 37 60  1  0  0  0  0
 37 70  1  0  0  0  0
 37 75  2  0  0  0  0
 38 65  1  0  0  0  0
 38 68  1  0  0  0  0
 38 76  2  0  0  0  0
 39 42  1  0  0  0  0
 40 49  1  0  0  0  0
 41 64  1  0  0  0  0
 42 44  1  0  0  0  0
 43 45  1  0  0  0  0
 43 46  1  0  0  0  0
 44 48  1  0  0  0  0
 45 50  1  0  0  0  0
 46 65  1  0  0  0  0
 47 50  1  0  0  0  0
 47 65  1  0  0  0  0
 48 69  1  0  0  0  0
 49 64  1  0  0  0  0
 50 63  1  0  0  0  0
 52 60  1  0  0  0  0
 53 61  1  0  0  0  0
 54 61  1  0  0  0  0
 55 61  1  0  0  0  0
 56 71  1  0  0  0  0
 57 58  1  0  0  0  0
 57 78  1  0  0  0  0
 58 79  1  0  0  0  0
 59 61  1  0  0  0  0
 59 70  1  0  0  0  0
 60 71  1  0  0  0  0
 62 63  1  0  0  0  0
M  CHG  1  71   1
M  ISO  4  38 100  57 101  68 100  78 101
M  END
> <Batch ID>
0001

> <Smiles>
CNC(C)C(=O)NC(C(=O)N1Cc2cc([101O:1][101CH2:1]COc3ccc([100NH:0][100C:0](=O)N4CCCC(n5nc(-c6ccc(Oc7ccc(F)cc7F)cc6)c(C(N)=O)c5N)C4)cc3C)ccc2CC1C(=O)NC1CCCc2ccccc21)C(C)(C)C

> <Shape>
0.282

> <Color>
0.106

> <Negative vol penalty>
0.000

$$$$

  -OEChem-04042320143D

 94103  0     1  0  0  0  0  0999 V2000
  -29.5031  -11.3821   16.6432 C   0  0  0  0  0  0  0  0  0  0  0  0
  -29.3638  -12.7565   16.8078 C   0  0  0  0  0  0  0  0  0  0  0  0
  -19.0933  -26.4378   21.5563 C   0  0  0  0  0  0  0  0  0  0  0  0
  -20.7945  -26.3452   23.2694 C   0  0  0  0  0  0  0  0  0  0  0  0
  -28.5717  -10.5150   17.2128 C   0  0  0  0  0  0  0  0  0  0  0  0
  -28.2923  -13.2646   17.5413 C   0  0  0  0  0  0  0  0  0  0  0  0
  -26.6592  -26.7312   19.6549 C   0  0  0  0  0  0  0  0  0  0  0  0
  -29.7210  -16.9578   20.8293 C   0  0  0  0  0  0  0  0  0  0  0  0
  -25.8816  -25.6231   19.9893 C   0  0  0  0  0  0  0  0  0  0  0  0
  -19.1528  -27.8312   21.5725 C   0  0  0  0  0  0  0  0  0  0  0  0
  -20.8540  -27.7387   23.2856 C   0  0  0  0  0  0  0  0  0  0  0  0
  -29.9565  -18.2370   20.3271 C   0  0  0  0  0  0  0  0  0  0  0  0
  -22.2354  -30.1930   21.4179 C   0  0  0  0  0  0  0  0  0  0  0  0
  -23.4978  -30.7862   21.4279 C   0  0  0  0  0  0  0  0  0  0  0  0
  -27.5352  -24.9594   21.6149 C   0  0  0  0  0  0  0  0  0  0  0  0
  -27.7426  -18.9066   21.0117 C   0  0  0  0  0  0  0  0  0  0  0  0
  -22.9781  -31.8566   23.5306 C   0  0  0  0  0  0  0  0  0  0  0  0
  -19.9141  -25.6947   22.4048 C   0  0  0  0  0  0  0  0  0  0  0  0
  -18.7327  -23.4490   22.6671 C   0  0  0  0  0  0  0  0  0  0  0  0
  -27.4936  -11.0123   17.9618 C   0  0  0  0  0  0  0  0  0  0  0  0
  -28.4887  -16.6395   21.4182 C   0  0  0  0  0  0  0  0  0  0  0  0
  -27.8830  -26.9662   20.2994 C   0  0  0  0  0  0  0  0  0  0  0  0
  -27.3448  -12.4034   18.1204 C   0  0  0  0  0  0  0  0  0  0  0  0
  -28.3296  -26.0639   21.2759 C   0  0  0  0  0  0  0  0  0  0  0  0
  -27.4959  -17.6241   21.5247 C   0  0  0  0  0  0  0  0  0  0  0  0
  -26.3185  -24.7385   20.9709 C   0  0  0  0  0  0  0  0  0  0  0  0
  -20.0331  -28.4817   22.4371 C   0  0  0  0  0  0  0  0  0  0  0  0
  -28.9664  -19.2109   20.4163 C   0  0  0  0  0  0  0  0  0  0  0  0
  -21.3443  -30.4317   22.4641 C   0  0  0  0  0  0  0  0  0  0  0  0
  -23.8691  -31.6179   22.4843 C   0  0  0  0  0  0  0  0  0  0  0  0
  -21.7156  -31.2634   23.5205 C   0  0  0  0  0  0  0  0  0  0  0  0
  -19.8527  -24.2552   22.3889 C   0  0  0  0  0  0  0  0  0  0  0  0
  -19.1900  -22.1626   22.5173 C   0  0  0  0  0  0  0  0  0  0  0  0
  -17.3983  -23.8290   23.0284 C   0  0  0  0  0  0  0  0  0  0  0  0
  -26.1208  -14.5593   20.8602 C   0  0  0  0  0  0  0  0  0  0  0  0
  -25.0273  -15.8314   23.7306 C   0  0  0  0  0  0  0  0  0  0  0  0
  -30.4356  -29.6908   20.7382 C   0  0  0  0  0  0  0  0  0  0  0  0
  -22.6325  -13.7921   23.6287 C   0  0  0  0  0  0  0  0  0  0  0  0
  -24.2901  -23.2421   20.7821 C   0  0  0  0  0  0  0  0  0  0  0  0
  -26.4858  -10.0381   18.5186 C   0  0  0  0  0  0  0  0  0  0  0  0
  -28.2659  -15.2618   21.9811 C   0  0  0  0  0  0  0  0  0  0  0  0
  -29.6242  -26.3041   22.0023 C   0  0  0  0  0  0  0  0  0  0  0  0
  -28.6984  -28.1678   19.9041 C   0  0  0  0  0  0  0  0  0  0  0  0
  -26.1587  -17.3337   22.1510 C   0  0  0  0  0  0  0  0  0  0  0  0
  -25.5879  -10.6400   19.5964 C   0  0  0  0  0  0  0  0  0  0  0  0
  -23.5524  -20.1341   22.9414 C   0  0  0  0  0  0  0  0  0  0  0  0
  -25.0607  -12.0010   19.1533 C   0  0  0  0  0  0  0  0  0  0  0  0
  -22.1275  -20.6146   23.1855 C   0  0  0  0  0  0  0  0  0  0  0  0
  -24.4105  -21.2752   22.4020 C   0  0  0  0  0  0  0  0  0  0  0  0
  -22.5087  -21.5068   20.8015 C   0  0  0  0  0  0  0  0  0  0  0  0
  -26.2097  -12.9917   18.9300 C   0  0  1  0  0  0  0  0  0  0  0  0
  -26.7911  -14.9066   22.1592 C   0  0  1  0  0  0  0  0  0  0  0  0
  -21.4785  -21.1404   21.8895 C   0  0  2  0  0  0  0  0  0  0  0  0
  -30.6010  -27.1995   21.2279 C   0  0  1  0  0  0  0  0  0  0  0  0
  -20.9455  -12.2423   24.6533 C   0  0  0  0  0  0  0  0  0  0  0  0
  -32.7965  -29.0069   21.0271 C   0  0  0  0  0  0  0  0  0  0  0  0
  -31.3794  -29.5325   23.0297 C   0  0  0  0  0  0  0  0  0  0  0  0
  -32.1007  -31.3724   21.4910 C   0  0  0  0  0  0  0  0  0  0  0  0
  -27.3064  -14.5548   25.3060 C   0  0  0  0  0  0  0  0  0  0  0  0
  -25.6696  -12.8702   26.1726 C   0  0  0  0  0  0  0  0  0  0  0  0
  -25.3611  -15.2898   26.6952 C   0  0  0  0  0  0  0  0  0  0  0  0
  -20.3668  -15.3177   22.4893 C   0  0  0  0  0  0  0  0  0  0  0  0
  -31.3197  -26.4450   20.1038 C   0  0  0  0  0  0  0  0  0  0  0  0
  -28.0644  -21.1826   19.4389 C   0  0  0  0  0  0  0  0  0  1  0  0
  -30.9821  -24.8337   18.4268 C   0  0  0  0  0  0  0  0  0  0  0  0
  -28.5063  -22.1141   18.3269 C   0  0  0  0  0  0  0  0  0  0  0  0
  -29.9399  -23.9084   17.8288 C   0  0  0  0  0  0  0  0  0  0  0  0
  -24.9100  -14.4611   24.3497 C   0  0  1  0  0  0  0  0  0  0  0  0
  -21.2124  -13.6510   24.1464 C   0  0  2  0  0  0  0  0  0  0  0  0
  -31.6757  -29.9006   21.5703 C   0  0  0  0  0  0  0  0  0  0  0  0
  -25.8156  -14.2974   25.6029 C   0  0  0  0  0  0  0  0  0  0  0  0
  -20.9398  -23.5408   22.0855 N   0  0  0  0  0  0  0  0  0  0  0  0
  -20.5050  -22.2722   22.1723 N   0  0  0  0  0  0  0  0  0  0  0  0
  -26.0217  -16.0040   22.7593 N   0  0  0  0  0  0  0  0  0  0  0  0
  -29.9102  -28.3936   20.7012 N   0  0  0  0  0  0  0  0  0  0  0  0
  -23.7523  -22.0580   21.3457 N   0  0  0  0  0  0  0  0  0  0  0  0
  -18.5915  -20.9596   22.6484 N   0  0  0  0  0  0  0  0  0  0  0  0
  -17.0914  -23.9795   24.3877 N   0  0  0  0  0  0  0  0  0  0  0  0
  -25.5261  -23.6151   21.3172 N   0  0  0  0  0  0  0  0  0  0  0  0
  -26.6978  -13.4933   20.1967 N   0  0  0  0  0  0  0  0  0  0  0  0
  -23.4896  -14.2497   24.6071 N   0  0  0  0  0  0  0  0  0  0  0  0
  -20.2340  -13.9542   23.0639 N   0  3  0  0  0  0  0  0  0  0  0  0
  -16.5002  -24.0132   22.1722 O   0  0  0  0  0  0  0  0  0  0  0  0
  -25.1508  -15.2092   20.4882 O   0  0  0  0  0  0  0  0  0  0  0  0
  -24.2647  -16.7280   24.1018 O   0  0  0  0  0  0  0  0  0  0  0  0
  -29.9406  -30.6513   20.1417 O   0  0  0  0  0  0  0  0  0  0  0  0
  -22.9503  -13.5197   22.4732 O   0  0  0  0  0  0  0  0  0  0  0  0
  -23.6995  -23.8644   19.8969 O   0  0  0  0  0  0  0  0  0  0  0  0
  -20.0916  -29.8414   22.4531 O   0  0  0  0  0  0  0  0  0  0  0  0
  -29.1953  -20.4690   19.9241 O   0  0  0  0  0  0  0  0  0  1  0  0
  -30.3902  -25.5759   19.4882 O   0  0  0  0  0  0  0  0  0  0  0  0
  -29.4878  -23.0080   18.8330 O   0  0  0  0  0  0  0  0  0  0  0  0
  -25.0820  -32.1862   22.4946 F   0  0  0  0  0  0  0  0  0  0  0  0
  -20.8643  -31.4955   24.5291 F   0  0  0  0  0  0  0  0  0  0  0  0
  1  2  1  0  0  0  0
  1  5  2  0  0  0  0
  2  6  2  0  0  0  0
  3 10  2  0  0  0  0
  3 18  1  0  0  0  0
  4 11  1  0  0  0  0
  4 18  2  0  0  0  0
  5 20  1  0  0  0  0
  6 23  1  0  0  0  0
  7  9  2  0  0  0  0
  7 22  1  0  0  0  0
  8 12  2  0  0  0  0
  8 21  1  0  0  0  0
  9 26  1  0  0  0  0
 10 27  1  0  0  0  0
 11 27  2  0  0  0  0
 12 28  1  0  0  0  0
 13 14  2  0  0  0  0
 13 29  1  0  0  0  0
 14 30  1  0  0  0  0
 15 24  1  0  0  0  0
 15 26  2  0  0  0  0
 16 25  1  0  0  0  0
 16 28  2  0  0  0  0
 17 30  2  0  0  0  0
 17 31  1  0  0  0  0
 18 32  1  0  0  0  0
 19 32  1  0  0  0  0
 19 33  2  0  0  0  0
 19 34  1  0  0  0  0
 20 23  2  0  0  0  0
 20 40  1  0  0  0  0
 21 25  2  0  0  0  0
 21 41  1  0  0  0  0
 22 24  2  0  0  0  0
 22 43  1  0  0  0  0
 23 51  1  0  0  0  0
 24 42  1  0  0  0  0
 25 44  1  0  0  0  0
 26 79  1  0  0  0  0
 27 89  1  0  0  0  0
 28 90  1  0  0  0  0
 29 31  2  0  0  0  0
 29 89  1  0  0  0  0
 30 93  1  0  0  0  0
 31 94  1  0  0  0  0
 32 72  2  0  0  0  0
 33 73  1  0  0  0  0
 33 77  1  0  0  0  0
 34 78  1  0  0  0  0
 34 83  2  0  0  0  0
 35 52  1  0  0  0  0
 35 80  1  0  0  0  0
 35 84  2  0  0  0  0
 36 68  1  0  0  0  0
 36 74  1  0  0  0  0
 36 85  2  0  0  0  0
 37 70  1  0  0  0  0
 37 75  1  0  0  0  0
 37 86  2  0  0  0  0
 38 69  1  0  0  0  0
 38 81  1  0  0  0  0
 38 87  2  0  0  0  0
 39 76  1  0  0  0  0
 39 79  1  0  0  0  0
 39 88  2  0  0  0  0
 40 45  1  0  0  0  0
 41 52  1  0  0  0  0
 42 54  1  0  0  0  0
 43 75  1  0  0  0  0
 44 74  1  0  0  0  0
 45 47  1  0  0  0  0
 46 48  1  0  0  0  0
 46 49  1  0  0  0  0
 47 51  1  0  0  0  0
 48 53  1  0  0  0  0
 49 76  1  0  0  0  0
 50 53  1  0  0  0  0
 50 76  1  0  0  0  0
 51 80  1  0  0  0  0
 52 74  1  0  0  0  0
 53 73  1  0  0  0  0
 54 63  1  0  0  0  0
 54 75  1  0  0  0  0
 55 69  1  0  0  0  0
 56 70  1  0  0  0  0
 57 70  1  0  0  0  0
 58 70  1  0  0  0  0
 59 71  1  0  0  0  0
 60 71  1  0  0  0  0
 61 71  1  0  0  0  0
 62 82  1  0  0  0  0
 63 91  1  0  0  0  0
 64 66  1  0  0  0  0
 64 90  1  0  0  0  0
 65 67  1  0  0  0  0
 65 91  1  0  0  0  0
 66 92  1  0  0  0  0
 67 92  1  0  0  0  0
 68 71  1  0  0  0  0
 68 81  1  0  0  0  0
 69 82  1  0  0  0  0
 72 73  1  0  0  0  0
M  CHG  1  82   1
M  ISO  4  39 100  64 101  79 100  90 101
M  END
> <Batch ID>
0001

> <Smiles>
CNC(C)C(=O)NC(C(=O)N1Cc2cc([101O:1][101CH2:1]COCCOCC3Cc4cc([100NH:0][100C:0](=O)N5CCCC(n6nc(-c7ccc(Oc8ccc(F)cc8F)cc7)c(C(N)=O)c6N)C5)ccc4CN3C(=O)C(C)(C)C)ccc2CC1C(=O)NC1CCCc2ccccc21)C(C)(C)C

> <Shape>
0.233

> <Color>
0.073

> <Negative vol penalty>
0.000

$$$$

  -OEChem-04042320143D

 92100  0     1  0  0  0  0  0999 V2000
  -27.7350  -18.5154   17.8322 C   0  0  0  0  0  0  0  0  0  0  0  0
  -26.7566  -19.5043   17.8172 C   0  0  0  0  0  0  0  0  0  0  0  0
  -22.3724  -14.5203   22.1143 C   0  0  0  0  0  0  0  0  0  0  0  0
  -21.4911  -14.9310   19.9026 C   0  0  0  0  0  0  0  0  0  0  0  0
  -21.1724  -25.9391   24.8322 C   0  0  0  0  0  0  0  0  0  0  0  0
  -28.7955  -18.5992   18.7335 C   0  0  0  0  0  0  0  0  0  0  0  0
  -26.8376  -20.5771   18.7043 C   0  0  0  0  0  0  0  0  0  0  0  0
  -25.2776  -27.5520   19.1872 C   0  0  0  0  0  0  0  0  0  0  0  0
  -22.0537  -24.9439   24.4097 C   0  0  0  0  0  0  0  0  0  0  0  0
  -22.1335  -13.1552   21.9561 C   0  0  0  0  0  0  0  0  0  0  0  0
  -21.2522  -13.5658   19.7443 C   0  0  0  0  0  0  0  0  0  0  0  0
  -24.6061  -28.4507   20.0150 C   0  0  0  0  0  0  0  0  0  0  0  0
  -23.5955  -10.5348   20.3976 C   0  0  0  0  0  0  0  0  0  0  0  0
  -24.6031   -9.6513   20.7844 C   0  0  0  0  0  0  0  0  0  0  0  0
  -20.8826  -26.6544   22.5428 C   0  0  0  0  0  0  0  0  0  0  0  0
  -26.5257  -28.5323   21.4736 C   0  0  0  0  0  0  0  0  0  0  0  0
  -23.0998   -8.6352   22.3796 C   0  0  0  0  0  0  0  0  0  0  0  0
  -22.0511  -15.4082   21.0876 C   0  0  0  0  0  0  0  0  0  0  0  0
  -20.5868  -26.7943   23.8987 C   0  0  0  0  0  0  0  0  0  0  0  0
  -23.4694  -17.5215   20.9139 C   0  0  0  0  0  0  0  0  0  0  0  0
  -28.8946  -19.6786   19.6255 C   0  0  0  0  0  0  0  0  0  0  0  0
  -26.5763  -27.1276   19.5028 C   0  0  0  0  0  0  0  0  0  0  0  0
  -27.8996  -20.6747   19.6193 C   0  0  0  0  0  0  0  0  0  0  0  0
  -27.2125  -27.6301   20.6469 C   0  0  0  0  0  0  0  0  0  0  0  0
  -22.3495  -24.8040   23.0538 C   0  0  0  0  0  0  0  0  0  0  0  0
  -21.7640  -25.6593   22.1203 C   0  0  0  0  0  0  0  0  0  0  0  0
  -21.5734  -12.6780   20.7711 C   0  0  0  0  0  0  0  0  0  0  0  0
  -25.2290  -28.9388   21.1599 C   0  0  0  0  0  0  0  0  0  0  0  0
  -22.3400  -10.4686   21.0019 C   0  0  0  0  0  0  0  0  0  0  0  0
  -24.3553   -8.7014   21.7754 C   0  0  0  0  0  0  0  0  0  0  0  0
  -22.0922   -9.5188   21.9929 C   0  0  0  0  0  0  0  0  0  0  0  0
  -22.2971  -16.8185   21.2507 C   0  0  0  0  0  0  0  0  0  0  0  0
  -23.2012  -18.8229   21.2615 C   0  0  0  0  0  0  0  0  0  0  0  0
  -19.6472  -27.8535   24.3488 C   0  0  0  0  0  0  0  0  0  0  0  0
  -24.6915  -17.0411   20.3382 C   0  0  0  0  0  0  0  0  0  0  0  0
  -27.9186  -24.3269   20.1797 C   0  0  0  0  0  0  0  0  0  0  0  0
  -30.6583  -26.0620   20.1030 C   0  0  0  0  0  0  0  0  0  0  0  0
  -32.1671  -29.1090   20.3963 C   0  0  0  0  0  0  0  0  0  0  0  0
  -19.7732  -23.2257   21.3622 C   0  0  0  0  0  0  0  0  0  0  0  0
  -30.0339  -19.7014   20.6136 C   0  0  0  0  0  0  0  0  0  0  0  0
  -27.2972  -26.1784   18.5854 C   0  0  0  0  0  0  0  0  0  0  0  0
  -28.6135  -27.2215   21.0194 C   0  0  0  0  0  0  0  0  0  0  0  0
  -30.2474  -21.0651   21.2656 C   0  0  0  0  0  0  0  0  0  0  0  0
  -19.3896  -20.7972   23.9374 C   0  0  0  0  0  0  0  0  0  0  0  0
  -28.9172  -21.6481   21.7318 C   0  0  0  0  0  0  0  0  0  0  0  0
  -20.2030  -19.6021   23.4373 C   0  0  0  0  0  0  0  0  0  0  0  0
  -18.6852  -21.5197   22.7913 C   0  0  0  0  0  0  0  0  0  0  0  0
  -20.3809  -20.7367   21.1835 C   0  0  0  0  0  0  0  0  0  0  0  0
  -27.9659  -21.8668   20.5492 C   0  0  1  0  0  0  0  0  0  0  0  0
  -28.4236  -25.4176   19.2780 C   0  0  1  0  0  0  0  0  0  0  0  0
  -21.1547  -20.0096   22.2965 C   0  0  2  0  0  0  0  0  0  0  0  0
  -34.4229  -30.2056   20.3199 C   0  0  0  0  0  0  0  0  0  0  0  0
  -31.2818  -24.9674   22.8820 C   0  0  0  0  0  0  0  0  0  0  0  0
  -32.9913  -26.7789   23.1358 C   0  0  0  0  0  0  0  0  0  0  0  0
  -33.2453  -25.0699   21.3364 C   0  0  0  0  0  0  0  0  0  0  0  0
  -31.3896  -30.8132   18.1049 C   0  0  0  0  0  0  0  0  0  0  0  0
  -22.0644  -25.5270   20.6631 C   0  0  0  0  0  0  0  0  0  0  0  0
  -23.2954  -23.7306   22.6251 C   0  0  0  0  0  0  0  0  0  0  0  0
  -20.9603  -24.8167   19.8727 C   0  0  0  0  0  0  0  0  0  0  0  0
  -18.7155  -30.0989   23.8526 C   0  0  0  0  0  0  0  0  0  0  0  0
  -19.4887  -31.1009   24.6904 C   0  0  0  0  0  0  0  0  0  0  0  0
  -25.3740  -30.7551   22.6882 C   0  0  0  0  0  0  0  0  0  1  0  0
  -24.5701  -32.0219   22.9085 C   0  0  0  0  0  0  0  0  0  0  0  0
  -21.3993  -32.4690   24.7209 C   0  0  0  0  0  0  0  0  0  0  0  0
  -22.6228  -32.8661   23.9176 C   0  0  0  0  0  0  0  0  0  0  0  0
  -31.4573  -26.8439   21.1174 C   0  0  1  0  0  0  0  0  0  0  0  0
  -33.1878  -29.8158   19.5228 C   0  0  2  0  0  0  0  0  0  0  0  0
  -32.2168  -25.9214   22.1122 C   0  0  0  0  0  0  0  0  0  0  0  0
  -21.3544  -17.6079   21.7723 N   0  0  0  0  0  0  0  0  0  0  0  0
  -21.9340  -18.8204   21.7660 N   0  0  0  0  0  0  0  0  0  0  0  0
  -29.2743  -26.2864   20.0939 N   0  0  0  0  0  0  0  0  0  0  0  0
  -19.6435  -21.8801   21.7436 N   0  0  0  0  0  0  0  0  0  0  0  0
  -23.9280  -19.9577   21.1818 N   0  0  0  0  0  0  0  0  0  0  0  0
  -24.7991  -15.6753   20.0425 N   0  0  0  0  0  0  0  0  0  0  0  0
  -19.5861  -28.9456   23.5287 N   0  0  0  0  0  0  0  0  0  0  0  0
  -28.3347  -23.0599   19.8178 N   0  0  0  0  0  0  0  0  0  0  0  0
  -32.3205  -27.7393   20.3548 N   0  0  0  0  0  0  0  0  0  0  0  0
  -20.7084  -23.4814   20.3669 N   0  0  0  0  0  0  0  0  0  0  0  0
  -24.7155  -24.1747   22.5950 N   0  3  0  0  0  0  0  0  0  0  0  0
  -32.5988  -31.0518   18.9344 N   0  3  0  0  0  0  0  0  0  0  0  0
  -19.0253  -27.6982   25.3965 O   0  0  0  0  0  0  0  0  0  0  0  0
  -25.6653  -17.7976   20.1085 O   0  0  0  0  0  0  0  0  0  0  0  0
  -27.2055  -24.6138   21.1341 O   0  0  0  0  0  0  0  0  0  0  0  0
  -31.2415  -25.2862   19.3417 O   0  0  0  0  0  0  0  0  0  0  0  0
  -31.3208  -29.7118   21.0528 O   0  0  0  0  0  0  0  0  0  0  0  0
  -19.1090  -24.1329   21.8749 O   0  0  0  0  0  0  0  0  0  0  0  0
  -21.3404  -11.3460   20.6163 O   0  0  0  0  0  0  0  0  0  0  0  0
  -24.5755  -29.8155   21.9699 O   0  0  0  0  0  0  0  0  0  1  0  0
  -20.6397  -31.5262   23.9742 O   0  0  0  0  0  0  0  0  0  0  0  0
  -23.4159  -31.7116   23.6798 O   0  0  0  0  0  0  0  0  0  0  0  0
  -25.3225   -7.8520   22.1456 F   0  0  0  0  0  0  0  0  0  0  0  0
  -20.8877   -9.4495   22.5762 F   0  0  0  0  0  0  0  0  0  0  0  0
  1  2  1  0  0  0  0
  1  6  2  0  0  0  0
  2  7  2  0  0  0  0
  3 10  2  0  0  0  0
  3 18  1  0  0  0  0
  4 11  1  0  0  0  0
  4 18  2  0  0  0  0
  5  9  2  0  0  0  0
  5 19  1  0  0  0  0
  6 21  1  0  0  0  0
  7 23  1  0  0  0  0
  8 12  2  0  0  0  0
  8 22  1  0  0  0  0
  9 25  1  0  0  0  0
 10 27  1  0  0  0  0
 11 27  2  0  0  0  0
 12 28  1  0  0  0  0
 13 14  2  0  0  0  0
 13 29  1  0  0  0  0
 14 30  1  0  0  0  0
 15 19  2  0  0  0  0
 15 26  1  0  0  0  0
 16 24  1  0  0  0  0
 16 28  2  0  0  0  0
 17 30  2  0  0  0  0
 17 31  1  0  0  0  0
 18 32  1  0  0  0  0
 19 34  1  0  0  0  0
 20 32  1  0  0  0  0
 20 33  2  0  0  0  0
 20 35  1  0  0  0  0
 21 23  2  0  0  0  0
 21 40  1  0  0  0  0
 22 24  2  0  0  0  0
 22 41  1  0  0  0  0
 23 49  1  0  0  0  0
 24 42  1  0  0  0  0
 25 26  2  0  0  0  0
 25 58  1  0  0  0  0
 26 57  1  0  0  0  0
 27 87  1  0  0  0  0
 28 88  1  0  0  0  0
 29 31  2  0  0  0  0
 29 87  1  0  0  0  0
 30 91  1  0  0  0  0
 31 92  1  0  0  0  0
 32 69  2  0  0  0  0
 33 70  1  0  0  0  0
 33 73  1  0  0  0  0
 34 75  1  0  0  0  0
 34 81  2  0  0  0  0
 35 74  1  0  0  0  0
 35 82  2  0  0  0  0
 36 50  1  0  0  0  0
 36 76  1  0  0  0  0
 36 83  2  0  0  0  0
 37 66  1  0  0  0  0
 37 71  1  0  0  0  0
 37 84  2  0  0  0  0
 38 67  1  0  0  0  0
 38 77  1  0  0  0  0
 38 85  2  0  0  0  0
 39 72  1  0  0  0  0
 39 78  1  0  0  0  0
 39 86  2  0  0  0  0
 40 43  1  0  0  0  0
 41 50  1  0  0  0  0
 42 71  1  0  0  0  0
 43 45  1  0  0  0  0
 44 46  1  0  0  0  0
 44 47  1  0  0  0  0
 45 49  1  0  0  0  0
 46 51  1  0  0  0  0
 47 72  1  0  0  0  0
 48 51  1  0  0  0  0
 48 72  1  0  0  0  0
 49 76  1  0  0  0  0
 50 71  1  0  0  0  0
 51 70  1  0  0  0  0
 52 67  1  0  0  0  0
 53 68  1  0  0  0  0
 54 68  1  0  0  0  0
 55 68  1  0  0  0  0
 56 80  1  0  0  0  0
 57 59  1  0  0  0  0
 58 79  1  0  0  0  0
 59 78  1  0  0  0  0
 60 61  1  0  0  0  0
 60 75  1  0  0  0  0
 61 89  1  0  0  0  0
 62 63  1  0  0  0  0
 62 88  1  0  0  0  0
 63 90  1  0  0  0  0
 64 65  1  0  0  0  0
 64 89  1  0  0  0  0
 65 90  1  0  0  0  0
 66 68  1  0  0  0  0
 66 77  1  0  0  0  0
 67 80  1  0  0  0  0
 69 70  1  0  0  0  0
M  CHG  2  79   1  80   1
M  ISO  4  39 100  62 101  78 100  88 101
M  END
> <Batch ID>
0001

> <Smiles>
CNC(C)C(=O)NC(C(=O)N1Cc2cc([101O:1][101CH2:1]COCCOCCNC(=O)c3ccc(CN)c(CC[100NH:0][100C:0](=O)N4CCCC(n5nc(-c6ccc(Oc7ccc(F)cc7F)cc6)c(C(N)=O)c5N)C4)c3)ccc2CC1C(=O)NC1CCCc2ccccc21)C(C)(C)C

> <Shape>
0.227

> <Color>
0.068

> <Negative vol penalty>
0.000

$$$$

  -OEChem-04042320143D

 82 90  0     1  0  0  0  0  0999 V2000
  -17.4720  -30.8956   24.2232 C   0  0  0  0  0  0  0  0  0  0  0  0
  -18.8413  -31.1410   24.2371 C   0  0  0  0  0  0  0  0  0  0  0  0
  -27.7513  -21.7644   23.7748 C   0  0  0  0  0  0  0  0  0  0  0  0
  -24.6284  -12.3079   19.6558 C   0  0  0  0  0  0  0  0  0  0  0  0
  -25.4403  -13.1353   21.7755 C   0  0  0  0  0  0  0  0  0  0  0  0
  -28.5022  -22.7821   23.1868 C   0  0  0  0  0  0  0  0  0  0  0  0
  -16.9851  -29.6967   23.7041 C   0  0  0  0  0  0  0  0  0  0  0  0
  -19.7246  -30.1871   23.7328 C   0  0  0  0  0  0  0  0  0  0  0  0
  -26.0037  -29.6403   20.3284 C   0  0  0  0  0  0  0  0  0  0  0  0
  -26.8221  -21.0546   23.0142 C   0  0  0  0  0  0  0  0  0  0  0  0
  -25.4268  -11.1725   19.7931 C   0  0  0  0  0  0  0  0  0  0  0  0
  -26.2387  -11.9998   21.9129 C   0  0  0  0  0  0  0  0  0  0  0  0
  -27.2371  -29.0000   20.4398 C   0  0  0  0  0  0  0  0  0  0  0  0
  -26.9786   -7.8852   19.7566 C   0  0  0  0  0  0  0  0  0  0  0  0
  -26.4037   -6.6488   19.4629 C   0  0  0  0  0  0  0  0  0  0  0  0
  -27.3945  -22.3806   21.0775 C   0  0  0  0  0  0  0  0  0  0  0  0
  -26.2768  -26.9987   19.4954 C   0  0  0  0  0  0  0  0  0  0  0  0
  -24.7508   -7.0074   21.1881 C   0  0  0  0  0  0  0  0  0  0  0  0
  -24.6352  -13.2893   20.6470 C   0  0  0  0  0  0  0  0  0  0  0  0
  -28.3238  -23.0903   21.8381 C   0  0  0  0  0  0  0  0  0  0  0  0
  -22.4852  -14.6289   20.9486 C   0  0  0  0  0  0  0  0  0  0  0  0
  -17.8622  -28.7317   23.1843 C   0  0  0  0  0  0  0  0  0  0  0  0
  -24.8930  -28.9600   19.8089 C   0  0  0  0  0  0  0  0  0  0  0  0
  -19.2491  -28.9736   23.2075 C   0  0  0  0  0  0  0  0  0  0  0  0
  -25.0310  -27.6335   19.3761 C   0  0  0  0  0  0  0  0  0  0  0  0
  -26.6437  -21.3627   21.6656 C   0  0  0  0  0  0  0  0  0  0  0  0
  -26.2320  -11.0184   20.9216 C   0  0  0  0  0  0  0  0  0  0  0  0
  -27.3731  -27.6781   20.0260 C   0  0  0  0  0  0  0  0  0  0  0  0
  -26.4396   -8.6828   20.7662 C   0  0  0  0  0  0  0  0  0  0  0  0
  -25.2898   -6.2099   20.1786 C   0  0  0  0  0  0  0  0  0  0  0  0
  -25.3257   -8.2439   21.4819 C   0  0  0  0  0  0  0  0  0  0  0  0
  -23.8110  -14.4627   20.5054 C   0  0  0  0  0  0  0  0  0  0  0  0
  -22.1565  -15.9093   20.5757 C   0  0  0  0  0  0  0  0  0  0  0  0
  -29.1243  -24.1746   21.2131 C   0  0  0  0  0  0  0  0  0  0  0  0
  -21.6276  -13.7082   21.6359 C   0  0  0  0  0  0  0  0  0  0  0  0
  -22.0415  -28.1278   20.9404 C   0  0  0  0  0  0  0  0  0  0  0  0
  -21.5408  -27.1684   17.8825 C   0  0  0  0  0  0  0  0  0  0  0  0
  -22.8735  -26.1454   14.9119 C   0  0  0  0  0  0  0  0  0  0  0  0
  -25.3999  -20.8204   19.5430 C   0  0  0  0  0  0  0  0  0  0  0  0
  -17.2922  -27.4308   22.6770 C   0  0  0  0  0  0  0  0  0  0  0  0
  -23.5760  -29.6733   19.6705 C   0  0  0  0  0  0  0  0  0  0  0  0
  -23.8743  -26.8653   18.7926 C   0  0  0  0  0  0  0  0  0  0  0  0
  -18.2694  -26.6311   21.8192 C   0  0  0  0  0  0  0  0  0  0  0  0
  -23.1702  -19.2245   17.2718 C   0  0  0  0  0  0  0  0  0  0  0  0
  -19.6398  -26.5709   22.4863 C   0  0  0  0  0  0  0  0  0  0  0  0
  -22.9560  -17.8396   17.8868 C   0  0  0  0  0  0  0  0  0  0  0  0
  -24.6040  -19.7151   17.4646 C   0  0  0  0  0  0  0  0  0  0  0  0
  -24.8740  -18.3038   19.4657 C   0  0  0  0  0  0  0  0  0  0  0  0
  -20.2373  -27.9740   22.6469 C   0  0  1  0  0  0  0  0  0  0  0  0
  -22.3853  -28.7219   19.6038 C   0  0  1  0  0  0  0  0  0  0  0  0
  -23.4274  -17.7953   19.3535 C   0  0  2  0  0  0  0  0  0  0  0  0
  -22.2121  -25.3961   12.6101 C   0  0  0  0  0  0  0  0  0  0  0  0
  -20.7519  -24.4409   18.9996 C   0  0  0  0  0  0  0  0  0  0  0  0
  -21.0286  -23.4957   16.6978 C   0  0  0  0  0  0  0  0  0  0  0  0
  -19.3129  -25.2557   17.1235 C   0  0  0  0  0  0  0  0  0  0  0  0
  -24.2917  -28.4109   13.6410 C   0  0  0  0  0  0  0  0  0  0  0  0
  -30.3257  -26.3094   21.6070 C   0  0  0  0  0  0  0  0  0  0  0  0
  -29.4319  -27.4664   21.1975 C   0  0  0  0  0  0  0  0  0  1  0  0
  -21.7608  -25.8877   17.1142 C   0  0  1  0  0  0  0  0  0  0  0  0
  -22.6009  -26.5792   13.4830 C   0  0  2  0  0  0  0  0  0  0  0  0
  -20.7351  -24.7836   17.4965 C   0  0  0  0  0  0  0  0  0  0  0  0
  -24.2916  -15.5505   19.8973 N   0  0  0  0  0  0  0  0  0  0  0  0
  -23.2622  -16.4125   19.9557 N   0  0  0  0  0  0  0  0  0  0  0  0
  -22.6056  -27.6043   18.6837 N   0  0  0  0  0  0  0  0  0  0  0  0
  -24.9796  -19.6488   18.8786 N   0  0  0  0  0  0  0  0  0  0  0  0
  -21.0323  -16.6425   20.7209 N   0  0  0  0  0  0  0  0  0  0  0  0
  -22.1241  -12.4339   21.9423 N   0  0  0  0  0  0  0  0  0  0  0  0
  -25.6999  -20.6414   20.8931 N   0  0  0  0  0  0  0  0  0  0  0  0
  -29.5617  -25.1799   22.0663 N   0  0  0  0  0  0  0  0  0  0  0  0
  -20.7722  -28.4428   21.3865 N   0  0  0  0  0  0  0  0  0  0  0  0
  -21.7481  -26.2517   15.7015 N   0  0  0  0  0  0  0  0  0  0  0  0
  -23.8122  -27.2185   12.8957 N   0  3  0  0  0  0  0  0  0  0  0  0
  -29.3374  -24.1423   20.0039 O   0  0  0  0  0  0  0  0  0  0  0  0
  -20.4500  -14.0011   21.9540 O   0  0  0  0  0  0  0  0  0  0  0  0
  -22.8663  -27.4337   21.5232 O   0  0  0  0  0  0  0  0  0  0  0  0
  -20.4665  -27.7641   17.7701 O   0  0  0  0  0  0  0  0  0  0  0  0
  -23.9737  -25.7481   15.2890 O   0  0  0  0  0  0  0  0  0  0  0  0
  -25.4612  -21.9081   18.9643 O   0  0  0  0  0  0  0  0  0  0  0  0
  -27.0110   -9.9104   21.0561 O   0  0  0  0  0  0  0  0  0  0  0  0
  -28.5757  -27.0506   20.1343 O   0  0  0  0  0  0  0  0  0  1  0  0
  -24.7369   -5.0232   19.8953 F   0  0  0  0  0  0  0  0  0  0  0  0
  -24.8028   -9.0062   22.4521 F   0  0  0  0  0  0  0  0  0  0  0  0
  1  2  1  0  0  0  0
  1  7  2  0  0  0  0
  2  8  2  0  0  0  0
  3  6  2  0  0  0  0
  3 10  1  0  0  0  0
  4 11  2  0  0  0  0
  4 19  1  0  0  0  0
  5 12  1  0  0  0  0
  5 19  2  0  0  0  0
  6 20  1  0  0  0  0
  7 22  1  0  0  0  0
  8 24  1  0  0  0  0
  9 13  2  0  0  0  0
  9 23  1  0  0  0  0
 10 26  2  0  0  0  0
 11 27  1  0  0  0  0
 12 27  2  0  0  0  0
 13 28  1  0  0  0  0
 14 15  2  0  0  0  0
 14 29  1  0  0  0  0
 15 30  1  0  0  0  0
 16 20  2  0  0  0  0
 16 26  1  0  0  0  0
 17 25  1  0  0  0  0
 17 28  2  0  0  0  0
 18 30  2  0  0  0  0
 18 31  1  0  0  0  0
 19 32  1  0  0  0  0
 20 34  1  0  0  0  0
 21 32  1  0  0  0  0
 21 33  2  0  0  0  0
 21 35  1  0  0  0  0
 22 24  2  0  0  0  0
 22 40  1  0  0  0  0
 23 25  2  0  0  0  0
 23 41  1  0  0  0  0
 24 49  1  0  0  0  0
 25 42  1  0  0  0  0
 26 68  1  0  0  0  0
 27 79  1  0  0  0  0
 28 80  1  0  0  0  0
 29 31  2  0  0  0  0
 29 79  1  0  0  0  0
 30 81  1  0  0  0  0
 31 82  1  0  0  0  0
 32 62  2  0  0  0  0
 33 63  1  0  0  0  0
 33 66  1  0  0  0  0
 34 69  1  0  0  0  0
 34 73  2  0  0  0  0
 35 67  1  0  0  0  0
 35 74  2  0  0  0  0
 36 50  1  0  0  0  0
 36 70  1  0  0  0  0
 36 75  2  0  0  0  0
 37 59  1  0  0  0  0
 37 64  1  0  0  0  0
 37 76  2  0  0  0  0
 38 60  1  0  0  0  0
 38 71  1  0  0  0  0
 38 77  2  0  0  0  0
 39 65  1  0  0  0  0
 39 68  1  0  0  0  0
 39 78  2  0  0  0  0
 40 43  1  0  0  0  0
 41 50  1  0  0  0  0
 42 64  1  0  0  0  0
 43 45  1  0  0  0  0
 44 46  1  0  0  0  0
 44 47  1  0  0  0  0
 45 49  1  0  0  0  0
 46 51  1  0  0  0  0
 47 65  1  0  0  0  0
 48 51  1  0  0  0  0
 48 65  1  0  0  0  0
 49 70  1  0  0  0  0
 50 64  1  0  0  0  0
 51 63  1  0  0  0  0
 52 60  1  0  0  0  0
 53 61  1  0  0  0  0
 54 61  1  0  0  0  0
 55 61  1  0  0  0  0
 56 72  1  0  0  0  0
 57 58  1  0  0  0  0
 57 69  1  0  0  0  0
 58 80  1  0  0  0  0
 59 61  1  0  0  0  0
 59 71  1  0  0  0  0
 60 72  1  0  0  0  0
 62 63  1  0  0  0  0
M  CHG  1  72   1
M  ISO  4  39 100  58 101  68 100  80 101
M  END
> <Batch ID>
0001

> <Smiles>
CNC(C)C(=O)NC(C(=O)N1Cc2cc([101O:1][101CH2:1]CNC(=O)c3cccc([100NH:0][100C:0](=O)N4CCCC(n5nc(-c6ccc(Oc7ccc(F)cc7F)cc6)c(C(N)=O)c5N)C4)c3)ccc2CC1C(=O)NC1CCCc2ccccc21)C(C)(C)C

> <Shape>
0.205

> <Color>
0.100

> <Negative vol penalty>
0.000

$$$$

  -OEChem-04042320143D

 79 87  0     1  0  0  0  0  0999 V2000
  -29.7327  -34.6434   22.7549 C   0  0  0  0  0  0  0  0  0  0  0  0
  -29.5544  -33.2639   22.7336 C   0  0  0  0  0  0  0  0  0  0  0  0
  -26.8887  -12.5110   21.8991 C   0  0  0  0  0  0  0  0  0  0  0  0
  -26.0687  -14.3352   20.5437 C   0  0  0  0  0  0  0  0  0  0  0  0
  -29.4533  -23.7469   23.2642 C   0  0  0  0  0  0  0  0  0  0  0  0
  -28.5350  -23.1344   21.1150 C   0  0  0  0  0  0  0  0  0  0  0  0
  -28.6569  -35.4798   23.0499 C   0  0  0  0  0  0  0  0  0  0  0  0
  -28.3002  -32.7198   23.0085 C   0  0  0  0  0  0  0  0  0  0  0  0
  -27.0187  -29.0534   19.7589 C   0  0  0  0  0  0  0  0  0  0  0  0
  -30.0016  -22.4710   23.3936 C   0  0  0  0  0  0  0  0  0  0  0  0
  -29.0835  -21.8584   21.2444 C   0  0  0  0  0  0  0  0  0  0  0  0
  -25.5959  -11.9949   21.9867 C   0  0  0  0  0  0  0  0  0  0  0  0
  -24.7758  -13.8191   20.6313 C   0  0  0  0  0  0  0  0  0  0  0  0
  -27.5971  -27.7998   19.9529 C   0  0  0  0  0  0  0  0  0  0  0  0
  -22.5699   -9.9999   22.2665 C   0  0  0  0  0  0  0  0  0  0  0  0
  -22.4052   -8.6277   22.0779 C   0  0  0  0  0  0  0  0  0  0  0  0
  -25.5769  -27.0413   21.0313 C   0  0  0  0  0  0  0  0  0  0  0  0
  -23.3291   -8.8225   19.8541 C   0  0  0  0  0  0  0  0  0  0  0  0
  -27.1252  -13.6812   21.1776 C   0  0  0  0  0  0  0  0  0  0  0  0
  -28.7199  -24.0786   22.1249 C   0  0  0  0  0  0  0  0  0  0  0  0
  -29.4283  -13.9227   20.1077 C   0  0  0  0  0  0  0  0  0  0  0  0
  -27.3867  -34.9461   23.3190 C   0  0  0  0  0  0  0  0  0  0  0  0
  -25.7168  -29.3141   20.2100 C   0  0  0  0  0  0  0  0  0  0  0  0
  -27.2067  -33.5497   23.3087 C   0  0  0  0  0  0  0  0  0  0  0  0
  -24.9833  -28.2982   20.8394 C   0  0  0  0  0  0  0  0  0  0  0  0
  -29.8168  -21.5267   22.3837 C   0  0  0  0  0  0  0  0  0  0  0  0
  -24.5394  -12.6489   21.3528 C   0  0  0  0  0  0  0  0  0  0  0  0
  -26.8772  -26.7944   20.5918 C   0  0  0  0  0  0  0  0  0  0  0  0
  -23.1141  -10.7834   21.2489 C   0  0  0  0  0  0  0  0  0  0  0  0
  -22.7848   -8.0390   20.8717 C   0  0  0  0  0  0  0  0  0  0  0  0
  -23.4938  -10.1947   20.0427 C   0  0  0  0  0  0  0  0  0  0  0  0
  -28.4604  -14.2151   21.0872 C   0  0  0  0  0  0  0  0  0  0  0  0
  -30.5177  -14.6790   20.4650 C   0  0  0  0  0  0  0  0  0  0  0  0
  -29.3497  -13.0459   18.9760 C   0  0  0  0  0  0  0  0  0  0  0  0
  -28.1357  -25.4375   21.9872 C   0  0  0  0  0  0  0  0  0  1  0  0
  -24.4308  -31.3255   22.3087 C   0  0  0  0  0  0  0  0  0  0  0  0
  -21.6432  -30.1350   21.1535 C   0  0  0  0  0  0  0  0  0  0  0  0
  -20.0094  -27.5714   19.6026 C   0  0  0  0  0  0  0  0  0  0  0  0
  -31.1283  -19.7404   23.5818 C   0  0  0  0  0  0  0  0  0  0  0  0
  -26.2650  -35.8878   23.6792 C   0  0  0  0  0  0  0  0  0  0  0  0
  -25.0974  -30.6635   19.9692 C   0  0  0  0  0  0  0  0  0  0  0  0
  -23.5749  -28.5210   21.3244 C   0  0  0  0  0  0  0  0  0  0  0  0
  -24.8814  -35.2491   23.5910 C   0  0  0  0  0  0  0  0  0  0  0  0
  -32.6469  -16.6011   24.2999 C   0  0  0  0  0  0  0  0  0  0  0  0
  -24.8801  -33.8825   24.2687 C   0  0  0  0  0  0  0  0  0  0  0  0
  -31.8376  -15.6072   23.4637 C   0  0  0  0  0  0  0  0  0  0  0  0
  -31.7666  -17.7127   24.8686 C   0  0  0  0  0  0  0  0  0  0  0  0
  -30.1374  -17.4290   23.0426 C   0  0  0  0  0  0  0  0  0  0  0  0
  -25.8558  -32.9228   23.5771 C   0  0  1  0  0  0  0  0  0  0  0  0
  -23.9525  -30.9752   20.9280 C   0  0  1  0  0  0  0  0  0  0  0  0
  -30.9920  -16.3271   22.3950 C   0  0  2  0  0  0  0  0  0  0  0  0
  -17.7269  -26.8713   18.8296 C   0  0  0  0  0  0  0  0  0  0  0  0
  -20.8631  -29.5050   24.0352 C   0  0  0  0  0  0  0  0  0  0  0  0
  -19.0763  -27.9926   23.1474 C   0  0  0  0  0  0  0  0  0  0  0  0
  -19.0121  -30.4326   22.6324 C   0  0  0  0  0  0  0  0  0  0  0  0
  -20.8864  -27.4139   16.7804 C   0  0  0  0  0  0  0  0  0  0  0  0
  -20.7466  -28.9743   21.5112 C   0  0  1  0  0  0  0  0  0  0  0  0
  -19.0287  -27.5564   18.4439 C   0  0  2  0  0  0  0  0  0  0  0  0
  -19.9517  -29.2222   22.8242 C   0  0  0  0  0  0  0  0  0  0  0  0
  -28.8965  -15.0889   21.9984 N   0  0  0  0  0  0  0  0  0  0  0  0
  -30.1505  -15.3520   21.5930 N   0  0  0  0  0  0  0  0  0  0  0  0
  -23.0154  -29.8591   21.0712 N   0  0  0  0  0  0  0  0  0  0  0  0
  -30.9983  -18.3523   23.7983 N   0  0  0  0  0  0  0  0  0  0  0  0
  -31.7444  -14.8274   19.9212 N   0  0  0  0  0  0  0  0  0  0  0  0
  -28.1563  -12.3448   18.7557 N   0  0  0  0  0  0  0  0  0  0  0  0
  -30.3745  -20.2309   22.5161 N   0  0  0  0  0  0  0  0  0  0  0  0
  -25.2805  -32.4144   22.3503 N   0  0  0  0  0  0  0  0  0  0  0  0
  -19.9084  -28.7307   20.3422 N   0  0  0  0  0  0  0  0  0  0  0  0
  -19.6136  -26.8329   17.2797 N   0  3  0  0  0  0  0  0  0  0  0  0
  -30.3149  -12.8763   18.1930 O   0  0  0  0  0  0  0  0  0  0  0  0
  -28.2612  -26.3087   22.8347 O   0  0  0  0  0  0  0  0  0  0  0  0
  -24.0555  -30.6582   23.2656 O   0  0  0  0  0  0  0  0  0  0  0  0
  -21.1437  -31.2439   20.9475 O   0  0  0  0  0  0  0  0  0  0  0  0
  -20.7847  -26.6455   19.8311 O   0  0  0  0  0  0  0  0  0  0  0  0
  -31.8757  -20.4377   24.2725 O   0  0  0  0  0  0  0  0  0  0  0  0
  -23.2777  -12.1455   21.4380 O   0  0  0  0  0  0  0  0  0  0  0  0
  -27.4397  -25.5700   20.7831 O   0  0  0  0  0  0  0  0  0  1  0  0
  -22.6281   -6.7210   20.6913 F   0  0  0  0  0  0  0  0  0  0  0  0
  -24.0183  -10.9421   19.0618 F   0  0  0  0  0  0  0  0  0  0  0  0
  1  2  1  0  0  0  0
  1  7  2  0  0  0  0
  2  8  2  0  0  0  0
  3 12  2  0  0  0  0
  3 19  1  0  0  0  0
  4 13  1  0  0  0  0
  4 19  2  0  0  0  0
  5 10  2  0  0  0  0
  5 20  1  0  0  0  0
  6 11  1  0  0  0  0
  6 20  2  0  0  0  0
  7 22  1  0  0  0  0
  8 24  1  0  0  0  0
  9 14  2  0  0  0  0
  9 23  1  0  0  0  0
 10 26  1  0  0  0  0
 11 26  2  0  0  0  0
 12 27  1  0  0  0  0
 13 27  2  0  0  0  0
 14 28  1  0  0  0  0
 15 16  2  0  0  0  0
 15 29  1  0  0  0  0
 16 30  1  0  0  0  0
 17 25  1  0  0  0  0
 17 28  2  0  0  0  0
 18 30  2  0  0  0  0
 18 31  1  0  0  0  0
 19 32  1  0  0  0  0
 20 35  1  0  0  0  0
 21 32  1  0  0  0  0
 21 33  2  0  0  0  0
 21 34  1  0  0  0  0
 22 24  2  0  0  0  0
 22 40  1  0  0  0  0
 23 25  2  0  0  0  0
 23 41  1  0  0  0  0
 24 49  1  0  0  0  0
 25 42  1  0  0  0  0
 26 66  1  0  0  0  0
 27 76  1  0  0  0  0
 28 77  1  0  0  0  0
 29 31  2  0  0  0  0
 29 76  1  0  0  0  0
 30 78  1  0  0  0  0
 31 79  1  0  0  0  0
 32 60  2  0  0  0  0
 33 61  1  0  0  0  0
 33 64  1  0  0  0  0
 34 65  1  0  0  0  0
 34 70  2  0  0  0  0
 35 71  2  0  0  0  0
 35 77  1  0  0  0  0
 36 50  1  0  0  0  0
 36 67  1  0  0  0  0
 36 72  2  0  0  0  0
 37 57  1  0  0  0  0
 37 62  1  0  0  0  0
 37 73  2  0  0  0  0
 38 58  1  0  0  0  0
 38 68  1  0  0  0  0
 38 74  2  0  0  0  0
 39 63  1  0  0  0  0
 39 66  1  0  0  0  0
 39 75  2  0  0  0  0
 40 43  1  0  0  0  0
 41 50  1  0  0  0  0
 42 62  1  0  0  0  0
 43 45  1  0  0  0  0
 44 46  1  0  0  0  0
 44 47  1  0  0  0  0
 45 49  1  0  0  0  0
 46 51  1  0  0  0  0
 47 63  1  0  0  0  0
 48 51  1  0  0  0  0
 48 63  1  0  0  0  0
 49 67  1  0  0  0  0
 50 62  1  0  0  0  0
 51 61  1  0  0  0  0
 52 58  1  0  0  0  0
 53 59  1  0  0  0  0
 54 59  1  0  0  0  0
 55 59  1  0  0  0  0
 56 69  1  0  0  0  0
 57 59  1  0  0  0  0
 57 68  1  0  0  0  0
 58 69  1  0  0  0  0
 60 61  1  0  0  0  0
M  CHG  1  69   1
M  ISO  4  35 101  39 100  66 100  77 101
M  END
> <Batch ID>
0001

> <Smiles>
CNC(C)C(=O)NC(C(=O)N1Cc2cc([101O:1][101C:1](=O)c3ccc([100NH:0][100C:0](=O)N4CCCC(n5nc(-c6ccc(Oc7ccc(F)cc7F)cc6)c(C(N)=O)c5N)C4)cc3)ccc2CC1C(=O)NC1CCCc2ccccc21)C(C)(C)C

> <Shape>
0.296

> <Color>
0.076

> <Negative vol penalty>
0.000

$$$$

  -OEChem-04042320143D

 82 89  0     1  0  0  0  0  0999 V2000
  -32.1465  -13.7135   21.4347 C   0  0  0  0  0  0  0  0  0  0  0  0
  -31.4367  -14.9100   21.4328 C   0  0  0  0  0  0  0  0  0  0  0  0
  -28.9743  -26.3807   20.6244 C   0  0  0  0  0  0  0  0  0  0  0  0
  -27.0125  -25.0317   20.2136 C   0  0  0  0  0  0  0  0  0  0  0  0
  -31.5565  -12.5535   20.9346 C   0  0  0  0  0  0  0  0  0  0  0  0
  -30.1368  -14.9474   20.9296 C   0  0  0  0  0  0  0  0  0  0  0  0
  -26.9756  -17.5530   23.9066 C   0  0  0  0  0  0  0  0  0  0  0  0
  -29.6997  -25.2308   20.9360 C   0  0  0  0  0  0  0  0  0  0  0  0
  -27.7380  -23.8818   20.5251 C   0  0  0  0  0  0  0  0  0  0  0  0
  -27.0354  -18.9441   23.8356 C   0  0  0  0  0  0  0  0  0  0  0  0
  -29.1696  -20.5569   20.8625 C   0  0  0  0  0  0  0  0  0  0  0  0
  -29.0288  -19.4528   20.0219 C   0  0  0  0  0  0  0  0  0  0  0  0
  -25.0967  -18.9482   22.4002 C   0  0  0  0  0  0  0  0  0  0  0  0
  -29.8475  -20.7627   18.1642 C   0  0  0  0  0  0  0  0  0  0  0  0
  -27.6306  -26.2812   20.2633 C   0  0  0  0  0  0  0  0  0  0  0  0
  -26.7352  -28.0655   18.6752 C   0  0  0  0  0  0  0  0  0  0  0  0
  -30.2451  -12.5746   20.4339 C   0  0  0  0  0  0  0  0  0  0  0  0
  -25.9808  -16.8472   23.2149 C   0  0  0  0  0  0  0  0  0  0  0  0
  -29.5291  -13.7869   20.4211 C   0  0  0  0  0  0  0  0  0  0  0  0
  -25.0249  -17.5483   22.4660 C   0  0  0  0  0  0  0  0  0  0  0  0
  -29.0816  -23.9814   20.8863 C   0  0  0  0  0  0  0  0  0  0  0  0
  -26.0976  -19.6418   23.0800 C   0  0  0  0  0  0  0  0  0  0  0  0
  -29.6493  -21.7640   20.3540 C   0  0  0  0  0  0  0  0  0  0  0  0
  -29.3678  -19.5557   18.6727 C   0  0  0  0  0  0  0  0  0  0  0  0
  -29.9883  -21.8669   19.0048 C   0  0  0  0  0  0  0  0  0  0  0  0
  -26.8806  -27.4687   19.9419 C   0  0  0  0  0  0  0  0  0  0  0  0
  -25.9351  -29.1589   18.9007 C   0  0  0  0  0  0  0  0  0  0  0  0
  -27.2751  -27.6672   17.4081 C   0  0  0  0  0  0  0  0  0  0  0  0
  -25.9738  -14.6746   20.8947 C   0  0  0  0  0  0  0  0  0  0  0  0
  -22.7899  -14.5955   21.5102 C   0  0  0  0  0  0  0  0  0  0  0  0
  -20.0370  -16.1913   22.7438 C   0  0  0  0  0  0  0  0  0  0  0  0
  -21.8864  -30.4485   23.1191 C   0  0  0  0  0  0  0  0  0  0  0  0
  -29.6666  -11.3055   19.8603 C   0  0  0  0  0  0  0  0  0  0  0  0
  -25.9138  -15.3484   23.3233 C   0  0  0  0  0  0  0  0  0  0  0  0
  -23.9247  -16.8389   21.7213 C   0  0  0  0  0  0  0  0  0  0  0  0
  -28.1502  -11.3500   19.6898 C   0  0  0  0  0  0  0  0  0  0  0  0
  -24.7964  -32.3288   22.2987 C   0  0  0  0  0  0  0  0  0  0  0  0
  -27.7249  -12.6603   19.0350 C   0  0  0  0  0  0  0  0  0  0  0  0
  -25.6474  -31.3502   21.4873 C   0  0  0  0  0  0  0  0  0  0  0  0
  -24.0456  -31.6234   23.4259 C   0  0  0  0  0  0  0  0  0  0  0  0
  -24.0810  -29.4921   22.1889 C   0  0  0  0  0  0  0  0  0  0  0  0
  -28.1080  -13.8624   19.9065 C   0  0  1  0  0  0  0  0  0  0  0  0
  -25.1676  -14.6981   22.1624 C   0  0  1  0  0  0  0  0  0  0  0  0
  -24.8136  -30.1477   21.0058 C   0  0  2  0  0  0  0  0  0  0  0  0
  -17.5681  -15.8884   23.0759 C   0  0  0  0  0  0  0  0  0  0  0  0
  -22.3295  -15.1090   18.5380 C   0  0  0  0  0  0  0  0  0  0  0  0
  -19.9673  -15.7344   19.0832 C   0  0  0  0  0  0  0  0  0  0  0  0
  -20.7856  -13.4261   19.5573 C   0  0  0  0  0  0  0  0  0  0  0  0
  -20.2838  -16.4435   25.6822 C   0  0  0  0  0  0  0  0  0  0  0  0
  -19.8018  -29.1627   22.7186 C   0  0  0  0  0  0  0  0  0  0  0  0
  -19.4491  -28.3845   23.9736 C   0  0  0  0  0  0  0  0  0  0  0  0
  -26.6857  -21.6880   24.1398 C   0  0  0  0  0  0  0  0  0  1  0  0
  -26.0302  -23.0515   24.2427 C   0  0  0  0  0  0  0  0  0  0  0  0
  -19.7525  -26.3315   25.0764 C   0  0  0  0  0  0  0  0  0  0  0  0
  -20.4048  -24.9683   24.9492 C   0  0  0  0  0  0  0  0  0  0  0  0
  -23.9621  -24.1314   24.5248 C   0  0  0  0  0  0  0  0  0  0  0  0
  -22.4746  -23.8861   24.6900 C   0  0  0  0  0  0  0  0  0  0  0  0
  -21.5831  -15.3443   20.9984 C   0  0  1  0  0  0  0  0  0  0  0  0
  -18.9479  -15.7308   23.6958 C   0  0  2  0  0  0  0  0  0  0  0  0
  -21.1881  -14.9170   19.5566 C   0  0  0  0  0  0  0  0  0  0  0  0
  -26.2255  -28.1283   20.9010 N   0  0  0  0  0  0  0  0  0  0  0  0
  -25.6609  -29.1511   20.2367 N   0  0  0  0  0  0  0  0  0  0  0  0
  -23.9052  -15.3727   21.8532 N   0  0  0  0  0  0  0  0  0  0  0  0
  -23.2734  -30.4940   22.9023 N   0  0  0  0  0  0  0  0  0  0  0  0
  -25.4466  -30.1168   18.0844 N   0  0  0  0  0  0  0  0  0  0  0  0
  -28.0768  -26.5188   17.3547 N   0  0  0  0  0  0  0  0  0  0  0  0
  -27.1781  -14.0063   21.0061 N   0  0  0  0  0  0  0  0  0  0  0  0
  -20.5304  -15.1481   21.9892 N   0  0  0  0  0  0  0  0  0  0  0  0
  -21.2296  -29.3471   22.5840 N   0  0  0  0  0  0  0  0  0  0  0  0
  -18.9908  -16.5259   24.9555 N   0  3  0  0  0  0  0  0  0  0  0  0
  -27.0666  -28.3197   16.3573 O   0  0  0  0  0  0  0  0  0  0  0  0
  -25.5349  -15.2209   19.8894 O   0  0  0  0  0  0  0  0  0  0  0  0
  -22.7421  -13.3668   21.6090 O   0  0  0  0  0  0  0  0  0  0  0  0
  -20.4099  -17.3603   22.6737 O   0  0  0  0  0  0  0  0  0  0  0  0
  -21.2775  -31.3273   23.7388 O   0  0  0  0  0  0  0  0  0  0  0  0
  -29.7893  -22.8591   21.1900 O   0  0  0  0  0  0  0  0  0  0  0  0
  -26.1541  -20.9995   23.0085 O   0  0  0  0  0  0  0  0  0  1  0  0
  -20.0550  -27.1006   23.9186 O   0  0  0  0  0  0  0  0  0  0  0  0
  -24.6294  -22.8813   24.4219 O   0  0  0  0  0  0  0  0  0  0  0  0
  -21.8089  -25.1371   24.8135 O   0  0  0  0  0  0  0  0  0  0  0  0
  -29.2339  -18.4949   17.8659 F   0  0  0  0  0  0  0  0  0  0  0  0
  -30.4508  -23.0235   18.5108 F   0  0  0  0  0  0  0  0  0  0  0  0
  1  2  1  0  0  0  0
  1  5  2  0  0  0  0
  2  6  2  0  0  0  0
  3  8  2  0  0  0  0
  3 15  1  0  0  0  0
  4  9  1  0  0  0  0
  4 15  2  0  0  0  0
  5 17  1  0  0  0  0
  6 19  1  0  0  0  0
  7 10  2  0  0  0  0
  7 18  1  0  0  0  0
  8 21  1  0  0  0  0
  9 21  2  0  0  0  0
 10 22  1  0  0  0  0
 11 12  2  0  0  0  0
 11 23  1  0  0  0  0
 12 24  1  0  0  0  0
 13 20  1  0  0  0  0
 13 22  2  0  0  0  0
 14 24  2  0  0  0  0
 14 25  1  0  0  0  0
 15 26  1  0  0  0  0
 16 26  1  0  0  0  0
 16 27  2  0  0  0  0
 16 28  1  0  0  0  0
 17 19  2  0  0  0  0
 17 33  1  0  0  0  0
 18 20  2  0  0  0  0
 18 34  1  0  0  0  0
 19 42  1  0  0  0  0
 20 35  1  0  0  0  0
 21 76  1  0  0  0  0
 22 77  1  0  0  0  0
 23 25  2  0  0  0  0
 23 76  1  0  0  0  0
 24 81  1  0  0  0  0
 25 82  1  0  0  0  0
 26 61  2  0  0  0  0
 27 62  1  0  0  0  0
 27 65  1  0  0  0  0
 28 66  1  0  0  0  0
 28 71  2  0  0  0  0
 29 43  1  0  0  0  0
 29 67  1  0  0  0  0
 29 72  2  0  0  0  0
 30 58  1  0  0  0  0
 30 63  1  0  0  0  0
 30 73  2  0  0  0  0
 31 59  1  0  0  0  0
 31 68  1  0  0  0  0
 31 74  2  0  0  0  0
 32 64  1  0  0  0  0
 32 69  1  0  0  0  0
 32 75  2  0  0  0  0
 33 36  1  0  0  0  0
 34 43  1  0  0  0  0
 35 63  1  0  0  0  0
 36 38  1  0  0  0  0
 37 39  1  0  0  0  0
 37 40  1  0  0  0  0
 38 42  1  0  0  0  0
 39 44  1  0  0  0  0
 40 64  1  0  0  0  0
 41 44  1  0  0  0  0
 41 64  1  0  0  0  0
 42 67  1  0  0  0  0
 43 63  1  0  0  0  0
 44 62  1  0  0  0  0
 45 59  1  0  0  0  0
 46 60  1  0  0  0  0
 47 60  1  0  0  0  0
 48 60  1  0  0  0  0
 49 70  1  0  0  0  0
 50 51  1  0  0  0  0
 50 69  1  0  0  0  0
 51 78  1  0  0  0  0
 52 53  1  0  0  0  0
 52 77  1  0  0  0  0
 53 79  1  0  0  0  0
 54 55  1  0  0  0  0
 54 78  1  0  0  0  0
 55 80  1  0  0  0  0
 56 57  1  0  0  0  0
 56 79  1  0  0  0  0
 57 80  1  0  0  0  0
 58 60  1  0  0  0  0
 58 68  1  0  0  0  0
 59 70  1  0  0  0  0
 61 62  1  0  0  0  0
M  CHG  1  70   1
M  ISO  4  32 100  52 101  69 100  77 101
M  END
> <Batch ID>
0001

> <Smiles>
CNC(C)C(=O)NC(C(=O)N1Cc2cc([101O:1][101CH2:1]COCCOCCOCC[100NH:0][100C:0](=O)N3CCCC(n4nc(-c5ccc(Oc6ccc(F)cc6F)cc5)c(C(N)=O)c4N)C3)ccc2CC1C(=O)NC1CCCc2ccccc21)C(C)(C)C

> <Shape>
0.233

> <Color>
0.068

> <Negative vol penalty>
0.000

$$$$

  -OEChem-04042320143D

 85 93  0     1  0  0  0  0  0999 V2000
  -20.9464  -29.0495   25.6711 C   0  0  0  0  0  0  0  0  0  0  0  0
  -22.0857  -28.5088   25.0837 C   0  0  0  0  0  0  0  0  0  0  0  0
  -25.1139  -14.0100   21.8328 C   0  0  0  0  0  0  0  0  0  0  0  0
  -26.8415  -13.7499   20.1640 C   0  0  0  0  0  0  0  0  0  0  0  0
  -19.6979  -28.8463   25.0847 C   0  0  0  0  0  0  0  0  0  0  0  0
  -21.9770  -27.7636   23.9101 C   0  0  0  0  0  0  0  0  0  0  0  0
  -25.5013  -29.0000   20.4902 C   0  0  0  0  0  0  0  0  0  0  0  0
  -29.9968  -22.7071   18.0086 C   0  0  0  0  0  0  0  0  0  0  0  0
  -28.5637  -23.4784   16.2229 C   0  0  0  0  0  0  0  0  0  0  0  0
  -24.9143  -12.6295   21.8414 C   0  0  0  0  0  0  0  0  0  0  0  0
  -26.6419  -12.3694   20.1726 C   0  0  0  0  0  0  0  0  0  0  0  0
  -26.7845  -28.4913   20.6858 C   0  0  0  0  0  0  0  0  0  0  0  0
  -23.3437  -10.3284   19.9275 C   0  0  0  0  0  0  0  0  0  0  0  0
  -22.0286   -9.8643   19.9022 C   0  0  0  0  0  0  0  0  0  0  0  0
  -31.0560  -23.4419   17.4759 C   0  0  0  0  0  0  0  0  0  0  0  0
  -29.6229  -24.2133   15.6903 C   0  0  0  0  0  0  0  0  0  0  0  0
  -26.3416  -26.7653   19.0598 C   0  0  0  0  0  0  0  0  0  0  0  0
  -22.3835   -8.7433   22.0128 C   0  0  0  0  0  0  0  0  0  0  0  0
  -26.0774  -14.5702   20.9941 C   0  0  0  0  0  0  0  0  0  0  0  0
  -27.1731  -16.7320   21.7902 C   0  0  0  0  0  0  0  0  0  0  0  0
  -19.5750  -28.1064   23.8981 C   0  0  0  0  0  0  0  0  0  0  0  0
  -24.6233  -28.3877   19.5844 C   0  0  0  0  0  0  0  0  0  0  0  0
  -20.7255  -27.5492   23.3081 C   0  0  0  0  0  0  0  0  0  0  0  0
  -25.0486  -27.2698   18.8526 C   0  0  0  0  0  0  0  0  0  0  0  0
  -28.7507  -22.7253   17.3820 C   0  0  0  0  0  0  0  0  0  0  0  0
  -25.6783  -11.8092   21.0113 C   0  0  0  0  0  0  0  0  0  0  0  0
  -27.2039  -27.3720   19.9727 C   0  0  0  0  0  0  0  0  0  0  0  0
  -24.1788   -9.9999   20.9955 C   0  0  0  0  0  0  0  0  0  0  0  0
  -21.5485   -9.0718   20.9448 C   0  0  0  0  0  0  0  0  0  0  0  0
  -23.6987   -9.2074   22.0381 C   0  0  0  0  0  0  0  0  0  0  0  0
  -30.8691  -24.1950   16.3168 C   0  0  0  0  0  0  0  0  0  0  0  0
  -26.2837  -15.9962   20.9844 C   0  0  0  0  0  0  0  0  0  0  0  0
  -26.9924  -18.0360   21.3987 C   0  0  0  0  0  0  0  0  0  0  0  0
  -28.0814  -16.2773   22.8021 C   0  0  0  0  0  0  0  0  0  0  0  0
  -21.7937  -26.9590   19.8204 C   0  0  0  0  0  0  0  0  0  0  0  0
  -21.9929  -26.8932   16.5834 C   0  0  0  0  0  0  0  0  0  0  0  0
  -23.9683  -26.9378   13.8009 C   0  0  0  0  0  0  0  0  0  0  0  0
  -26.3751  -21.8880   17.4257 C   0  0  0  0  0  0  0  0  0  0  0  0
  -18.1986  -27.8735   23.3271 C   0  0  0  0  0  0  0  0  0  0  0  0
  -23.2516  -28.9647   19.3652 C   0  0  0  0  0  0  0  0  0  0  0  0
  -24.1515  -26.5878   17.8534 C   0  0  0  0  0  0  0  0  0  0  0  0
  -18.2137  -27.3879   21.8800 C   0  0  0  0  0  0  0  0  0  0  0  0
  -23.4528  -20.1288   18.4468 C   0  0  0  0  0  0  0  0  0  0  0  0
  -19.2331  -26.2669   21.7037 C   0  0  0  0  0  0  0  0  0  0  0  0
  -24.0020  -18.9573   19.2643 C   0  0  0  0  0  0  0  0  0  0  0  0
  -24.3497  -20.4584   17.2549 C   0  0  0  0  0  0  0  0  0  0  0  0
  -26.3125  -19.5092   18.4019 C   0  0  0  0  0  0  0  0  0  0  0  0
  -20.6513  -26.7559   22.0215 C   0  0  1  0  0  0  0  0  0  0  0  0
  -22.2619  -27.9531   18.7957 C   0  0  1  0  0  0  0  0  0  0  0  0
  -25.4771  -19.1820   19.6504 C   0  0  2  0  0  0  0  0  0  0  0  0
  -23.8464  -26.8321   11.2966 C   0  0  0  0  0  0  0  0  0  0  0  0
  -21.4783  -23.8897   16.7376 C   0  0  0  0  0  0  0  0  0  0  0  0
  -22.2996  -23.6984   14.3803 C   0  0  0  0  0  0  0  0  0  0  0  0
  -20.2723  -25.0610   14.8862 C   0  0  0  0  0  0  0  0  0  0  0  0
  -25.1961  -29.6151   13.5123 C   0  0  0  0  0  0  0  0  0  0  0  0
  -30.7799  -27.2168   18.4519 C   0  0  0  0  0  0  0  0  0  0  0  0
  -30.8067  -27.3146   19.9749 C   0  0  0  0  0  0  0  0  0  0  0  0
  -32.1013  -26.6891   17.9071 C   0  0  0  0  0  0  0  0  0  0  0  0
  -29.4756  -27.8005   20.5308 C   0  0  0  0  0  0  0  0  0  1  0  0
  -22.5485  -25.9263   15.5659 C   0  0  1  0  0  0  0  0  0  0  0  0
  -23.8800  -27.7408   12.5156 C   0  0  2  0  0  0  0  0  0  0  0  0
  -21.6662  -24.6553   15.4127 C   0  0  0  0  0  0  0  0  0  0  0  0
  -25.5894  -16.7686   20.1445 N   0  0  0  0  0  0  0  0  0  0  0  0
  -26.0425  -18.0034   20.4205 N   0  0  0  0  0  0  0  0  0  0  0  0
  -22.8175  -27.1857   17.6791 N   0  0  0  0  0  0  0  0  0  0  0  0
  -25.7309  -20.6624   17.6974 N   0  0  0  0  0  0  0  0  0  0  0  0
  -27.5550  -19.1960   21.7992 N   0  0  0  0  0  0  0  0  0  0  0  0
  -28.1409  -14.9046   23.0786 N   0  0  0  0  0  0  0  0  0  0  0  0
  -27.6747  -21.9788   17.9231 N   0  0  0  0  0  0  0  0  0  0  0  0
  -21.1782  -27.5299   20.9180 N   0  0  0  0  0  0  0  0  0  0  0  0
  -22.7212  -26.6861   14.3325 N   0  0  0  0  0  0  0  0  0  0  0  0
  -32.0323  -26.6207   16.4314 N   0  0  0  0  0  0  0  0  0  0  0  0
  -25.0539  -28.6505   12.3915 N   0  3  0  0  0  0  0  0  0  0  0  0
  -28.8067  -17.0668   23.4535 O   0  0  0  0  0  0  0  0  0  0  0  0
  -21.9759  -25.7624   19.6288 O   0  0  0  0  0  0  0  0  0  0  0  0
  -20.8717  -27.3769   16.4088 O   0  0  0  0  0  0  0  0  0  0  0  0
  -25.0365  -26.5675   14.2828 O   0  0  0  0  0  0  0  0  0  0  0  0
  -25.8056  -22.8006   16.8217 O   0  0  0  0  0  0  0  0  0  0  0  0
  -33.4488  -24.5013   16.0690 O   0  0  0  0  0  0  0  0  0  0  0  0
  -31.9342  -25.3044   14.2292 O   0  0  0  0  0  0  0  0  0  0  0  0
  -25.4840  -10.4621   21.0196 O   0  0  0  0  0  0  0  0  0  0  0  0
  -28.4556  -26.8730   20.1623 O   0  0  0  0  0  0  0  0  0  1  0  0
  -20.2851   -8.6275   20.9211 F   0  0  0  0  0  0  0  0  0  0  0  0
  -24.4958   -8.8895   23.0673 F   0  0  0  0  0  0  0  0  0  0  0  0
  -32.2115  -25.1260   15.6415 S   0  0  0  0  0  0  0  0  0  0  0  0
  1  2  1  0  0  0  0
  1  5  2  0  0  0  0
  2  6  2  0  0  0  0
  3 10  2  0  0  0  0
  3 19  1  0  0  0  0
  4 11  1  0  0  0  0
  4 19  2  0  0  0  0
  5 21  1  0  0  0  0
  6 23  1  0  0  0  0
  7 12  2  0  0  0  0
  7 22  1  0  0  0  0
  8 15  2  0  0  0  0
  8 25  1  0  0  0  0
  9 16  1  0  0  0  0
  9 25  2  0  0  0  0
 10 26  1  0  0  0  0
 11 26  2  0  0  0  0
 12 27  1  0  0  0  0
 13 14  2  0  0  0  0
 13 28  1  0  0  0  0
 14 29  1  0  0  0  0
 15 31  1  0  0  0  0
 16 31  2  0  0  0  0
 17 24  1  0  0  0  0
 17 27  2  0  0  0  0
 18 29  2  0  0  0  0
 18 30  1  0  0  0  0
 19 32  1  0  0  0  0
 20 32  1  0  0  0  0
 20 33  2  0  0  0  0
 20 34  1  0  0  0  0
 21 23  2  0  0  0  0
 21 39  1  0  0  0  0
 22 24  2  0  0  0  0
 22 40  1  0  0  0  0
 23 48  1  0  0  0  0
 24 41  1  0  0  0  0
 25 69  1  0  0  0  0
 26 81  1  0  0  0  0
 27 82  1  0  0  0  0
 28 30  2  0  0  0  0
 28 81  1  0  0  0  0
 29 83  1  0  0  0  0
 30 84  1  0  0  0  0
 31 85  1  0  0  0  0
 32 63  2  0  0  0  0
 33 64  1  0  0  0  0
 33 67  1  0  0  0  0
 34 68  1  0  0  0  0
 34 74  2  0  0  0  0
 35 49  1  0  0  0  0
 35 70  1  0  0  0  0
 35 75  2  0  0  0  0
 36 60  1  0  0  0  0
 36 65  1  0  0  0  0
 36 76  2  0  0  0  0
 37 61  1  0  0  0  0
 37 71  1  0  0  0  0
 37 77  2  0  0  0  0
 38 66  1  0  0  0  0
 38 69  1  0  0  0  0
 38 78  2  0  0  0  0
 39 42  1  0  0  0  0
 40 49  1  0  0  0  0
 41 65  1  0  0  0  0
 42 44  1  0  0  0  0
 43 45  1  0  0  0  0
 43 46  1  0  0  0  0
 44 48  1  0  0  0  0
 45 50  1  0  0  0  0
 46 66  1  0  0  0  0
 47 50  1  0  0  0  0
 47 66  1  0  0  0  0
 48 70  1  0  0  0  0
 49 65  1  0  0  0  0
 50 64  1  0  0  0  0
 51 61  1  0  0  0  0
 52 62  1  0  0  0  0
 53 62  1  0  0  0  0
 54 62  1  0  0  0  0
 55 73  1  0  0  0  0
 56 57  1  0  0  0  0
 56 58  1  0  0  0  0
 57 59  1  0  0  0  0
 58 72  1  0  0  0  0
 59 82  1  0  0  0  0
 60 62  1  0  0  0  0
 60 71  1  0  0  0  0
 61 73  1  0  0  0  0
 63 64  1  0  0  0  0
 72 85  1  0  0  0  0
 79 85  2  0  0  0  0
 80 85  2  0  0  0  0
M  CHG  1  73   1
M  ISO  4  38 100  59 101  69 100  82 101
M  END
> <Batch ID>
0001

> <Smiles>
CNC(C)C(=O)NC(C(=O)N1Cc2cc([101O:1][101CH2:1]CCCNS(=O)(=O)c3ccc([100NH:0][100C:0](=O)N4CCCC(n5nc(-c6ccc(Oc7ccc(F)cc7F)cc6)c(C(N)=O)c5N)C4)cc3)ccc2CC1C(=O)NC1CCCc2ccccc21)C(C)(C)C

> <Shape>
0.214

> <Color>
0.077

> <Negative vol penalty>
0.000

$$$$

  -OEChem-04042320143D

 83 91  0     1  0  0  0  0  0999 V2000
  -29.6761  -11.5652   20.3772 C   0  0  0  0  0  0  0  0  0  0  0  0
  -29.7493  -12.9301   20.1181 C   0  0  0  0  0  0  0  0  0  0  0  0
  -20.2384  -28.1616   23.3213 C   0  0  0  0  0  0  0  0  0  0  0  0
  -21.5992  -26.4796   22.2461 C   0  0  0  0  0  0  0  0  0  0  0  0
  -28.9746  -26.2356   18.8483 C   0  0  0  0  0  0  0  0  0  0  0  0
  -30.4179  -25.7425   20.7221 C   0  0  0  0  0  0  0  0  0  0  0  0
  -28.4596  -10.8965   20.2475 C   0  0  0  0  0  0  0  0  0  0  0  0
  -28.6062  -13.6269   19.7281 C   0  0  0  0  0  0  0  0  0  0  0  0
  -28.0966  -18.0396   22.1597 C   0  0  0  0  0  0  0  0  0  0  0  0
  -28.9448  -27.5784   19.2246 C   0  0  0  0  0  0  0  0  0  0  0  0
  -30.3881  -27.0853   21.0984 C   0  0  0  0  0  0  0  0  0  0  0  0
  -19.1242  -27.7140   22.6115 C   0  0  0  0  0  0  0  0  0  0  0  0
  -20.4850  -26.0319   21.5363 C   0  0  0  0  0  0  0  0  0  0  0  0
  -28.8853  -19.1027   21.7218 C   0  0  0  0  0  0  0  0  0  0  0  0
  -18.0777  -24.6788   19.1734 C   0  0  0  0  0  0  0  0  0  0  0  0
  -18.2368  -24.4215   17.8117 C   0  0  0  0  0  0  0  0  0  0  0  0
  -27.0048  -19.9845   20.4949 C   0  0  0  0  0  0  0  0  0  0  0  0
  -18.8770  -26.7232   17.4517 C   0  0  0  0  0  0  0  0  0  0  0  0
  -21.4759  -27.5445   23.1385 C   0  0  0  0  0  0  0  0  0  0  0  0
  -29.7111  -25.3176   19.5971 C   0  0  0  0  0  0  0  0  0  0  0  0
  -23.0697  -27.5594   25.1303 C   0  0  0  0  0  0  0  0  0  0  0  0
  -27.2989  -11.5873   19.8650 C   0  0  0  0  0  0  0  0  0  0  0  0
  -26.7569  -17.9350   21.7590 C   0  0  0  0  0  0  0  0  0  0  0  0
  -27.3733  -12.9665   19.5918 C   0  0  0  0  0  0  0  0  0  0  0  0
  -26.2006  -18.9205   20.9311 C   0  0  0  0  0  0  0  0  0  0  0  0
  -29.6516  -28.0033   20.3496 C   0  0  0  0  0  0  0  0  0  0  0  0
  -19.2475  -26.6491   21.7190 C   0  0  0  0  0  0  0  0  0  0  0  0
  -28.3402  -20.0737   20.8870 C   0  0  0  0  0  0  0  0  0  0  0  0
  -18.3181  -25.9582   19.6742 C   0  0  0  0  0  0  0  0  0  0  0  0
  -18.6365  -25.4437   16.9509 C   0  0  0  0  0  0  0  0  0  0  0  0
  -18.7178  -26.9804   18.8134 C   0  0  0  0  0  0  0  0  0  0  0  0
  -22.6274  -28.0068   23.8710 C   0  0  0  0  0  0  0  0  0  0  0  0
  -24.1944  -28.3058   25.3843 C   0  0  0  0  0  0  0  0  0  0  0  0
  -29.7440  -23.8872   19.1970 C   0  0  0  0  0  0  0  0  0  0  0  0
  -22.5137  -26.5585   25.9934 C   0  0  0  0  0  0  0  0  0  0  0  0
  -25.0717  -15.8125   20.0980 C   0  0  0  0  0  0  0  0  0  0  0  0
  -22.5772  -17.6963   20.9647 C   0  0  0  0  0  0  0  0  0  0  0  0
  -21.4752  -20.7716   21.9520 C   0  0  0  0  0  0  0  0  0  0  0  0
  -28.1232  -31.0977   21.8318 C   0  0  0  0  0  0  0  0  0  0  0  0
  -26.0166  -10.8124   19.6924 C   0  0  0  0  0  0  0  0  0  0  0  0
  -25.9121  -16.7965   22.2617 C   0  0  0  0  0  0  0  0  0  0  0  0
  -24.7619  -18.8650   20.4887 C   0  0  0  0  0  0  0  0  0  0  0  0
  -24.7733  -11.6965   19.6377 C   0  0  0  0  0  0  0  0  0  0  0  0
  -26.1627  -32.5586   24.4199 C   0  0  0  0  0  0  0  0  0  0  0  0
  -24.9986  -12.8770   18.6982 C   0  0  0  0  0  0  0  0  0  0  0  0
  -25.0742  -31.5173   24.6864 C   0  0  0  0  0  0  0  0  0  0  0  0
  -26.5232  -32.6316   22.9378 C   0  0  0  0  0  0  0  0  0  0  0  0
  -25.8033  -30.3000   22.5922 C   0  0  0  0  0  0  0  0  0  0  0  0
  -26.1500  -13.7620   19.1905 C   0  0  1  0  0  0  0  0  0  0  0  0
  -24.7033  -16.5128   21.3753 C   0  0  1  0  0  0  0  0  0  0  0  0
  -25.4457  -30.1504   24.0809 C   0  0  2  0  0  0  0  0  0  0  0  0
  -19.3784  -22.0150   22.5477 C   0  0  0  0  0  0  0  0  0  0  0  0
  -21.8422  -17.8684   18.0083 C   0  0  0  0  0  0  0  0  0  0  0  0
  -20.3820  -19.8268   18.5570 C   0  0  0  0  0  0  0  0  0  0  0  0
  -19.8949  -17.5922   19.5531 C   0  0  0  0  0  0  0  0  0  0  0  0
  -22.4454  -21.3282   24.6920 C   0  0  0  0  0  0  0  0  0  0  0  0
  -29.6203  -29.4395   20.7509 C   0  0  0  0  0  0  0  0  0  0  0  0
  -31.0658  -21.7880   19.2368 C   0  0  0  0  0  0  0  0  0  0  0  0
  -30.5056  -20.8672   20.3062 C   0  0  0  0  0  0  0  0  0  1  0  0
  -21.8941  -18.9052   20.3723 C   0  0  1  0  0  0  0  0  0  0  0  0
  -20.5462  -21.1960   23.0751 C   0  0  2  0  0  0  0  0  0  0  0  0
  -21.0310  -18.5485   19.1293 C   0  0  0  0  0  0  0  0  0  0  0  0
  -23.4073  -28.9634   23.3605 N   0  0  0  0  0  0  0  0  0  0  0  0
  -24.3511  -29.1233   24.3039 N   0  0  0  0  0  0  0  0  0  0  0  0
  -23.9784  -17.7290   21.0017 N   0  0  0  0  0  0  0  0  0  0  0  0
  -26.8669  -31.3029   22.4255 N   0  0  0  0  0  0  0  0  0  0  0  0
  -25.0547  -28.3360   26.4242 N   0  0  0  0  0  0  0  0  0  0  0  0
  -21.3552  -25.8874   25.5787 N   0  0  0  0  0  0  0  0  0  0  0  0
  -30.8760  -23.1744   19.5717 N   0  0  0  0  0  0  0  0  0  0  0  0
  -25.7103  -14.6013   20.2844 N   0  0  0  0  0  0  0  0  0  0  0  0
  -21.1466  -19.5259   21.4606 N   0  0  0  0  0  0  0  0  0  0  0  0
  -28.3708  -29.8077   21.3786 N   0  0  0  0  0  0  0  0  0  0  0  0
  -21.2842  -22.0190   24.0746 N   0  3  0  0  0  0  0  0  0  0  0  0
  -28.8059  -23.4221   18.5551 O   0  0  0  0  0  0  0  0  0  0  0  0
  -23.0196  -26.2795   27.1068 O   0  0  0  0  0  0  0  0  0  0  0  0
  -24.7956  -16.3318   19.0229 O   0  0  0  0  0  0  0  0  0  0  0  0
  -21.8925  -16.7606   21.3858 O   0  0  0  0  0  0  0  0  0  0  0  0
  -22.3975  -21.4765   21.5482 O   0  0  0  0  0  0  0  0  0  0  0  0
  -28.9642  -31.9961   21.7191 O   0  0  0  0  0  0  0  0  0  0  0  0
  -18.1605  -26.2118   21.0264 O   0  0  0  0  0  0  0  0  0  0  0  0
  -29.1079  -21.1121   20.4576 O   0  0  0  0  0  0  0  0  0  1  0  0
  -18.7907  -25.1962   15.6436 F   0  0  0  0  0  0  0  0  0  0  0  0
  -18.9515  -28.2113   19.2889 F   0  0  0  0  0  0  0  0  0  0  0  0
  1  2  1  0  0  0  0
  1  7  2  0  0  0  0
  2  8  2  0  0  0  0
  3 12  2  0  0  0  0
  3 19  1  0  0  0  0
  4 13  1  0  0  0  0
  4 19  2  0  0  0  0
  5 10  2  0  0  0  0
  5 20  1  0  0  0  0
  6 11  1  0  0  0  0
  6 20  2  0  0  0  0
  7 22  1  0  0  0  0
  8 24  1  0  0  0  0
  9 14  2  0  0  0  0
  9 23  1  0  0  0  0
 10 26  1  0  0  0  0
 11 26  2  0  0  0  0
 12 27  1  0  0  0  0
 13 27  2  0  0  0  0
 14 28  1  0  0  0  0
 15 16  2  0  0  0  0
 15 29  1  0  0  0  0
 16 30  1  0  0  0  0
 17 25  1  0  0  0  0
 17 28  2  0  0  0  0
 18 30  2  0  0  0  0
 18 31  1  0  0  0  0
 19 32  1  0  0  0  0
 20 34  1  0  0  0  0
 21 32  1  0  0  0  0
 21 33  2  0  0  0  0
 21 35  1  0  0  0  0
 22 24  2  0  0  0  0
 22 40  1  0  0  0  0
 23 25  2  0  0  0  0
 23 41  1  0  0  0  0
 24 49  1  0  0  0  0
 25 42  1  0  0  0  0
 26 57  1  0  0  0  0
 27 80  1  0  0  0  0
 28 81  1  0  0  0  0
 29 31  2  0  0  0  0
 29 80  1  0  0  0  0
 30 82  1  0  0  0  0
 31 83  1  0  0  0  0
 32 63  2  0  0  0  0
 33 64  1  0  0  0  0
 33 67  1  0  0  0  0
 34 69  1  0  0  0  0
 34 74  2  0  0  0  0
 35 68  1  0  0  0  0
 35 75  2  0  0  0  0
 36 50  1  0  0  0  0
 36 70  1  0  0  0  0
 36 76  2  0  0  0  0
 37 60  1  0  0  0  0
 37 65  1  0  0  0  0
 37 77  2  0  0  0  0
 38 61  1  0  0  0  0
 38 71  1  0  0  0  0
 38 78  2  0  0  0  0
 39 66  1  0  0  0  0
 39 72  1  0  0  0  0
 39 79  2  0  0  0  0
 40 43  1  0  0  0  0
 41 50  1  0  0  0  0
 42 65  1  0  0  0  0
 43 45  1  0  0  0  0
 44 46  1  0  0  0  0
 44 47  1  0  0  0  0
 45 49  1  0  0  0  0
 46 51  1  0  0  0  0
 47 66  1  0  0  0  0
 48 51  1  0  0  0  0
 48 66  1  0  0  0  0
 49 70  1  0  0  0  0
 50 65  1  0  0  0  0
 51 64  1  0  0  0  0
 52 61  1  0  0  0  0
 53 62  1  0  0  0  0
 54 62  1  0  0  0  0
 55 62  1  0  0  0  0
 56 73  1  0  0  0  0
 57 72  1  0  0  0  0
 58 59  1  0  0  0  0
 58 69  1  0  0  0  0
 59 81  1  0  0  0  0
 60 62  1  0  0  0  0
 60 71  1  0  0  0  0
 61 73  1  0  0  0  0
 63 64  1  0  0  0  0
M  CHG  1  73   1
M  ISO  4  39 100  59 101  72 100  81 101
M  END
> <Batch ID>
0001

> <Smiles>
CNC(C)C(=O)NC(C(=O)N1Cc2cc([101O:1][101CH2:1]CNC(=O)c3ccc(C[100NH:0][100C:0](=O)N4CCCC(n5nc(-c6ccc(Oc7ccc(F)cc7F)cc6)c(C(N)=O)c5N)C4)cc3)ccc2CC1C(=O)NC1CCCc2ccccc21)C(C)(C)C

> <Shape>
0.225

> <Color>
0.071

> <Negative vol penalty>
0.000

$$$$

  -OEChem-04042320143D

 79 87  0     1  0  0  0  0  0999 V2000
  -26.7808  -32.6041   28.2083 C   0  0  0  0  0  0  0  0  0  0  0  0
  -27.2089  -31.6104   27.3338 C   0  0  0  0  0  0  0  0  0  0  0  0
  -26.4994  -12.7367   21.6144 C   0  0  0  0  0  0  0  0  0  0  0  0
  -26.0120  -13.7532   19.4775 C   0  0  0  0  0  0  0  0  0  0  0  0
  -25.4315  -32.9515   28.2601 C   0  0  0  0  0  0  0  0  0  0  0  0
  -26.2878  -30.9627   26.5114 C   0  0  0  0  0  0  0  0  0  0  0  0
  -27.2369  -28.9163   20.8178 C   0  0  0  0  0  0  0  0  0  0  0  0
  -27.9900  -22.3098   16.8946 C   0  0  0  0  0  0  0  0  0  0  0  0
  -28.5233  -21.2742   17.6619 C   0  0  0  0  0  0  0  0  0  0  0  0
  -25.2439  -12.1290   21.6117 C   0  0  0  0  0  0  0  0  0  0  0  0
  -24.7565  -13.1454   19.4747 C   0  0  0  0  0  0  0  0  0  0  0  0
  -27.5365  -27.6516   20.3134 C   0  0  0  0  0  0  0  0  0  0  0  0
  -23.7774   -9.4480   20.1643 C   0  0  0  0  0  0  0  0  0  0  0  0
  -23.7077   -8.1027   20.5260 C   0  0  0  0  0  0  0  0  0  0  0  0
  -25.1958  -27.2842   19.8604 C   0  0  0  0  0  0  0  0  0  0  0  0
  -28.8261  -22.8001   19.5105 C   0  0  0  0  0  0  0  0  0  0  0  0
  -22.2386   -8.6713   22.3579 C   0  0  0  0  0  0  0  0  0  0  0  0
  -26.8835  -13.5489   20.5473 C   0  0  0  0  0  0  0  0  0  0  0  0
  -29.3787  -13.6555   20.0279 C   0  0  0  0  0  0  0  0  0  0  0  0
  -24.4948  -32.3144   27.4310 C   0  0  0  0  0  0  0  0  0  0  0  0
  -25.9109  -29.3710   20.8574 C   0  0  0  0  0  0  0  0  0  0  0  0
  -24.9245  -31.3009   26.5532 C   0  0  0  0  0  0  0  0  0  0  0  0
  -24.8822  -28.5561   20.3634 C   0  0  0  0  0  0  0  0  0  0  0  0
  -27.8748  -23.5905   17.4352 C   0  0  0  0  0  0  0  0  0  0  0  0
  -28.2929  -23.8356   18.7431 C   0  0  0  0  0  0  0  0  0  0  0  0
  -28.9413  -21.5193   18.9699 C   0  0  0  0  0  0  0  0  0  0  0  0
  -24.3725  -12.3333   20.5418 C   0  0  0  0  0  0  0  0  0  0  0  0
  -26.5156  -26.8342   19.8373 C   0  0  0  0  0  0  0  0  0  0  0  0
  -23.0778  -10.4050   20.8995 C   0  0  0  0  0  0  0  0  0  0  0  0
  -22.9383   -7.7143   21.6227 C   0  0  0  0  0  0  0  0  0  0  0  0
  -22.3084  -10.0167   21.9962 C   0  0  0  0  0  0  0  0  0  0  0  0
  -28.1800  -14.1774   20.5498 C   0  0  0  0  0  0  0  0  0  0  0  0
  -30.3145  -14.6295   20.2769 C   0  0  0  0  0  0  0  0  0  0  0  0
  -29.6244  -12.4022   19.3762 C   0  0  0  0  0  0  0  0  0  0  0  0
  -23.9037  -30.2344   23.1659 C   0  0  0  0  0  0  0  0  0  0  0  0
  -21.9992  -31.0506   20.6701 C   0  0  0  0  0  0  0  0  0  0  0  0
  -21.1774  -30.6092   17.3873 C   0  0  0  0  0  0  0  0  0  0  0  0
  -29.9429  -20.5412   21.0642 C   0  0  0  0  0  0  0  0  0  0  0  0
  -23.0398  -32.6909   27.5565 C   0  0  0  0  0  0  0  0  0  0  0  0
  -25.6073  -30.7483   21.3799 C   0  0  0  0  0  0  0  0  0  0  0  0
  -23.4447  -29.0054   20.3650 C   0  0  0  0  0  0  0  0  0  0  0  0
  -22.1848  -32.2176   26.3838 C   0  0  0  0  0  0  0  0  0  0  0  0
  -31.3085  -18.1711   23.3435 C   0  0  0  0  0  0  0  0  0  0  0  0
  -22.4950  -30.7618   26.0503 C   0  0  0  0  0  0  0  0  0  0  0  0
  -30.7752  -16.8298   22.8346 C   0  0  0  0  0  0  0  0  0  0  0  0
  -30.2788  -19.2882   23.1837 C   0  0  0  0  0  0  0  0  0  0  0  0
  -29.1940  -18.0941   21.3219 C   0  0  0  0  0  0  0  0  0  0  0  0
  -23.9593  -30.5926   25.6275 C   0  0  1  0  0  0  0  0  0  0  0  0
  -24.1634  -30.9054   21.8468 C   0  0  1  0  0  0  0  0  0  0  0  0
  -30.2193  -16.9513   21.4022 C   0  0  2  0  0  0  0  0  0  0  0  0
  -27.3015  -24.6834   16.5940 C   0  0  0  0  0  0  0  0  0  0  0  0
  -19.5523  -31.3891   15.6414 C   0  0  0  0  0  0  0  0  0  0  0  0
  -19.8218  -29.3229   21.9286 C   0  0  0  0  0  0  0  0  0  0  0  0
  -18.6164  -29.3666   19.7347 C   0  0  0  0  0  0  0  0  0  0  0  0
  -19.0145  -31.4913   20.9796 C   0  0  0  0  0  0  0  0  0  0  0  0
  -23.3457  -31.6795   15.6809 C   0  0  0  0  0  0  0  0  0  0  0  0
  -28.1767  -25.2046   19.3463 C   0  0  0  0  0  0  0  0  0  1  0  0
  -20.9564  -30.3380   19.8433 C   0  0  1  0  0  0  0  0  0  0  0  0
  -20.9198  -31.6049   16.2708 C   0  0  2  0  0  0  0  0  0  0  0  0
  -19.6290  -30.1201   20.6232 C   0  0  0  0  0  0  0  0  0  0  0  0
  -28.3370  -15.3889   21.0897 N   0  0  0  0  0  0  0  0  0  0  0  0
  -29.6455  -15.6364   20.9085 N   0  0  0  0  0  0  0  0  0  0  0  0
  -23.1978  -30.3578   20.8918 N   0  0  0  0  0  0  0  0  0  0  0  0
  -29.8001  -19.3463   21.8008 N   0  0  0  0  0  0  0  0  0  0  0  0
  -31.6361  -14.7145   20.0150 N   0  0  0  0  0  0  0  0  0  0  0  0
  -28.5509  -11.5183   19.2015 N   0  0  0  0  0  0  0  0  0  0  0  0
  -29.4813  -20.4672   19.7505 N   0  0  0  0  0  0  0  0  0  0  0  0
  -24.1462  -31.0383   24.2634 N   0  0  0  0  0  0  0  0  0  0  0  0
  -20.8082  -31.1134   18.6165 N   0  0  0  0  0  0  0  0  0  0  0  0
  -21.9539  -31.4686   15.2063 N   0  3  0  0  0  0  0  0  0  0  0  0
  -30.7656  -12.0689   18.9759 O   0  0  0  0  0  0  0  0  0  0  0  0
  -23.5109  -29.0739   23.1865 O   0  0  0  0  0  0  0  0  0  0  0  0
  -21.7619  -32.1833   21.0973 O   0  0  0  0  0  0  0  0  0  0  0  0
  -21.6548  -29.4943   17.1885 O   0  0  0  0  0  0  0  0  0  0  0  0
  -30.4631  -21.5470   21.5537 O   0  0  0  0  0  0  0  0  0  0  0  0
  -23.1474  -11.7402   20.5387 O   0  0  0  0  0  0  0  0  0  0  0  0
  -26.8053  -25.5990   19.3450 O   0  0  0  0  0  0  0  0  0  1  0  0
  -22.8702   -6.4222   21.9689 F   0  0  0  0  0  0  0  0  0  0  0  0
  -21.6332  -10.9313   22.7056 F   0  0  0  0  0  0  0  0  0  0  0  0
  1  2  1  0  0  0  0
  1  5  2  0  0  0  0
  2  6  2  0  0  0  0
  3 10  2  0  0  0  0
  3 18  1  0  0  0  0
  4 11  1  0  0  0  0
  4 18  2  0  0  0  0
  5 20  1  0  0  0  0
  6 22  1  0  0  0  0
  7 12  2  0  0  0  0
  7 21  1  0  0  0  0
  8  9  2  0  0  0  0
  8 24  1  0  0  0  0
  9 26  1  0  0  0  0
 10 27  1  0  0  0  0
 11 27  2  0  0  0  0
 12 28  1  0  0  0  0
 13 14  2  0  0  0  0
 13 29  1  0  0  0  0
 14 30  1  0  0  0  0
 15 23  1  0  0  0  0
 15 28  2  0  0  0  0
 16 25  1  0  0  0  0
 16 26  2  0  0  0  0
 17 30  2  0  0  0  0
 17 31  1  0  0  0  0
 18 32  1  0  0  0  0
 19 32  1  0  0  0  0
 19 33  2  0  0  0  0
 19 34  1  0  0  0  0
 20 22  2  0  0  0  0
 20 39  1  0  0  0  0
 21 23  2  0  0  0  0
 21 40  1  0  0  0  0
 22 48  1  0  0  0  0
 23 41  1  0  0  0  0
 24 25  2  0  0  0  0
 24 51  1  0  0  0  0
 25 57  1  0  0  0  0
 26 67  1  0  0  0  0
 27 76  1  0  0  0  0
 28 77  1  0  0  0  0
 29 31  2  0  0  0  0
 29 76  1  0  0  0  0
 30 78  1  0  0  0  0
 31 79  1  0  0  0  0
 32 61  2  0  0  0  0
 33 62  1  0  0  0  0
 33 65  1  0  0  0  0
 34 66  1  0  0  0  0
 34 71  2  0  0  0  0
 35 49  1  0  0  0  0
 35 68  1  0  0  0  0
 35 72  2  0  0  0  0
 36 58  1  0  0  0  0
 36 63  1  0  0  0  0
 36 73  2  0  0  0  0
 37 59  1  0  0  0  0
 37 69  1  0  0  0  0
 37 74  2  0  0  0  0
 38 64  1  0  0  0  0
 38 67  1  0  0  0  0
 38 75  2  0  0  0  0
 39 42  1  0  0  0  0
 40 49  1  0  0  0  0
 41 63  1  0  0  0  0
 42 44  1  0  0  0  0
 43 45  1  0  0  0  0
 43 46  1  0  0  0  0
 44 48  1  0  0  0  0
 45 50  1  0  0  0  0
 46 64  1  0  0  0  0
 47 50  1  0  0  0  0
 47 64  1  0  0  0  0
 48 68  1  0  0  0  0
 49 63  1  0  0  0  0
 50 62  1  0  0  0  0
 52 59  1  0  0  0  0
 53 60  1  0  0  0  0
 54 60  1  0  0  0  0
 55 60  1  0  0  0  0
 56 70  1  0  0  0  0
 57 77  1  0  0  0  0
 58 60  1  0  0  0  0
 58 69  1  0  0  0  0
 59 70  1  0  0  0  0
 61 62  1  0  0  0  0
M  CHG  1  70   1
M  ISO  4  38 100  57 101  67 100  77 101
M  END
> <Batch ID>
0001

> <Smiles>
CNC(C)C(=O)NC(C(=O)N1Cc2cc([101O:1][101CH2:1]c3cc([100NH:0][100C:0](=O)N4CCCC(n5nc(-c6ccc(Oc7ccc(F)cc7F)cc6)c(C(N)=O)c5N)C4)ccc3C)ccc2CC1C(=O)NC1CCCc2ccccc21)C(C)(C)C

> <Shape>
0.292

> <Color>
0.112

> <Negative vol penalty>
0.000

$$$$

  -OEChem-04042320143D

 86 94  0     1  0  0  0  0  0999 V2000
  -17.3410  -29.3419   22.6624 C   0  0  0  0  0  0  0  0  0  0  0  0
  -18.5536  -29.4299   21.9861 C   0  0  0  0  0  0  0  0  0  0  0  0
  -26.6873  -12.2541   21.8533 C   0  0  0  0  0  0  0  0  0  0  0  0
  -25.9791  -13.9619   20.2980 C   0  0  0  0  0  0  0  0  0  0  0  0
  -17.3082  -28.8693   23.9737 C   0  0  0  0  0  0  0  0  0  0  0  0
  -19.7342  -29.0464   22.6212 C   0  0  0  0  0  0  0  0  0  0  0  0
  -24.6054  -26.3803   20.0385 C   0  0  0  0  0  0  0  0  0  0  0  0
  -30.7955  -22.3927   21.1046 C   0  0  0  0  0  0  0  0  0  0  0  0
  -25.4011  -11.7145   21.8465 C   0  0  0  0  0  0  0  0  0  0  0  0
  -24.6929  -13.4222   20.2911 C   0  0  0  0  0  0  0  0  0  0  0  0
  -25.8236  -26.8875   19.5884 C   0  0  0  0  0  0  0  0  0  0  0  0
  -30.8266  -23.4958   20.2516 C   0  0  0  0  0  0  0  0  0  0  0  0
  -23.5389   -9.7398   19.8302 C   0  0  0  0  0  0  0  0  0  0  0  0
  -23.4175   -8.3547   19.7188 C   0  0  0  0  0  0  0  0  0  0  0  0
  -28.7510  -21.6417   20.0591 C   0  0  0  0  0  0  0  0  0  0  0  0
  -26.8417  -26.2929   21.6929 C   0  0  0  0  0  0  0  0  0  0  0  0
  -22.2747   -8.2838   21.8462 C   0  0  0  0  0  0  0  0  0  0  0  0
  -26.9763  -13.3778   21.0791 C   0  0  0  0  0  0  0  0  0  0  0  0
  -28.7820  -22.7449   19.2060 C   0  0  0  0  0  0  0  0  0  0  0  0
  -29.3721  -13.6009   20.2318 C   0  0  0  0  0  0  0  0  0  0  0  0
  -18.4879  -28.4707   24.6218 C   0  0  0  0  0  0  0  0  0  0  0  0
  -24.4934  -25.8347   21.3254 C   0  0  0  0  0  0  0  0  0  0  0  0
  -19.7173  -28.5693   23.9428 C   0  0  0  0  0  0  0  0  0  0  0  0
  -25.6216  -25.7772   22.1560 C   0  0  0  0  0  0  0  0  0  0  0  0
  -29.7577  -21.4656   21.0083 C   0  0  0  0  0  0  0  0  0  0  0  0
  -24.4039  -12.2985   21.0654 C   0  0  0  0  0  0  0  0  0  0  0  0
  -26.9413  -26.8464   20.4167 C   0  0  0  0  0  0  0  0  0  0  0  0
  -29.8198  -23.6720   19.3023 C   0  0  0  0  0  0  0  0  0  0  0  0
  -23.0282  -10.3969   20.9496 C   0  0  0  0  0  0  0  0  0  0  0  0
  -22.7854   -7.6267   20.7268 C   0  0  0  0  0  0  0  0  0  0  0  0
  -22.3960   -9.6689   21.9576 C   0  0  0  0  0  0  0  0  0  0  0  0
  -28.3046  -13.9360   21.0862 C   0  0  0  0  0  0  0  0  0  0  0  0
  -30.4066  -14.4055   20.6430 C   0  0  0  0  0  0  0  0  0  0  0  0
  -29.4240  -12.6476   19.1621 C   0  0  0  0  0  0  0  0  0  0  0  0
  -27.7215  -22.9102   18.2219 C   0  0  0  0  0  0  0  0  0  0  0  0
  -22.8108  -26.5487   23.9259 C   0  0  0  0  0  0  0  0  0  0  0  0
  -24.0906  -23.7834   25.0386 C   0  0  0  0  0  0  0  0  0  0  0  0
  -26.6027  -21.4796   24.8700 C   0  0  0  0  0  0  0  0  0  0  0  0
  -30.6442  -20.0139   22.8756 C   0  0  0  0  0  0  0  0  0  0  0  0
  -18.4083  -28.0109   26.0560 C   0  0  0  0  0  0  0  0  0  0  0  0
  -23.1786  -25.2675   21.7860 C   0  0  0  0  0  0  0  0  0  0  0  0
  -25.5590  -25.1833   23.5387 C   0  0  0  0  0  0  0  0  0  0  0  0
  -19.6574  -27.2717   26.5288 C   0  0  0  0  0  0  0  0  0  0  0  0
  -31.1176  -16.9523   24.8909 C   0  0  0  0  0  0  0  0  0  0  0  0
  -20.9149  -28.0297   26.1155 C   0  0  0  0  0  0  0  0  0  0  0  0
  -30.7795  -15.7807   23.9676 C   0  0  0  0  0  0  0  0  0  0  0  0
  -31.6864  -18.1504   24.1433 C   0  0  0  0  0  0  0  0  0  0  0  0
  -30.0382  -17.5923   22.3425 C   0  0  0  0  0  0  0  0  0  0  0  0
  -21.0163  -28.1394   24.5893 C   0  0  1  0  0  0  0  0  0  0  0  0
  -23.0554  -25.2024   23.3052 C   0  0  1  0  0  0  0  0  0  0  0  0
  -30.6544  -16.1924   22.4912 C   0  0  2  0  0  0  0  0  0  0  0  0
  -24.2183  -21.8270   18.4328 C   0  0  0  0  0  0  0  0  0  0  0  0
  -27.8586  -19.3637   25.3631 C   0  0  0  0  0  0  0  0  0  0  0  0
  -25.0680  -25.3574   27.4628 C   0  0  0  0  0  0  0  0  0  0  0  0
  -26.6165  -23.4601   27.9830 C   0  0  0  0  0  0  0  0  0  0  0  0
  -24.1493  -23.0921   27.9910 C   0  0  0  0  0  0  0  0  0  0  0  0
  -25.1824  -20.0018   22.7351 C   0  0  0  0  0  0  0  0  0  0  0  0
  -29.8835  -27.1666   18.3304 C   0  0  0  0  0  0  0  0  0  0  0  0
  -25.4204  -22.4724   17.7770 C   0  0  0  0  0  0  0  0  0  0  0  0
  -28.3870  -27.2754   18.5777 C   0  0  0  0  0  0  0  0  0  1  0  0
  -30.4815  -25.9352   18.9924 C   0  0  0  0  0  0  0  0  0  0  0  0
  -25.3475  -23.4125   25.7879 C   0  0  1  0  0  0  0  0  0  0  0  0
  -26.5761  -19.9630   24.8074 C   0  0  2  0  0  0  0  0  0  0  0  0
  -25.2964  -23.8435   27.2809 C   0  0  0  0  0  0  0  0  0  0  0  0
  -28.6309  -14.8798   21.9732 N   0  0  0  0  0  0  0  0  0  0  0  0
  -29.9151  -15.1446   21.6785 N   0  0  0  0  0  0  0  0  0  0  0  0
  -24.2495  -24.6474   23.9458 N   0  0  0  0  0  0  0  0  0  0  0  0
  -30.7663  -18.6215   23.1041 N   0  0  0  0  0  0  0  0  0  0  0  0
  -31.6796  -14.5457   20.2162 N   0  0  0  0  0  0  0  0  0  0  0  0
  -28.2712  -11.9048   18.8726 N   0  0  0  0  0  0  0  0  0  0  0  0
  -29.7269  -20.3449   21.8751 N   0  0  0  0  0  0  0  0  0  0  0  0
  -21.4752  -26.8895   24.0221 N   0  0  0  0  0  0  0  0  0  0  0  0
  -25.5357  -21.9800   25.5857 N   0  0  0  0  0  0  0  0  0  0  0  0
  -26.4156  -19.5055   23.3983 N   0  3  0  0  0  0  0  0  0  0  0  0
  -30.4667  -12.4482   18.4939 O   0  0  0  0  0  0  0  0  0  0  0  0
  -27.8663  -23.4652   17.1257 O   0  0  0  0  0  0  0  0  0  0  0  0
  -23.7633  -27.2273   24.2920 O   0  0  0  0  0  0  0  0  0  0  0  0
  -23.0086  -23.3178   25.4048 O   0  0  0  0  0  0  0  0  0  0  0  0
  -27.4841  -22.1527   24.3403 O   0  0  0  0  0  0  0  0  0  0  0  0
  -31.2912  -20.8363   23.5276 O   0  0  0  0  0  0  0  0  0  0  0  0
  -23.1487  -11.7721   21.0583 O   0  0  0  0  0  0  0  0  0  0  0  0
  -28.1314  -27.3413   19.9801 O   0  0  0  0  0  0  0  0  0  1  0  0
  -29.8679  -24.7628   18.4738 O   0  0  0  0  0  0  0  0  0  0  0  0
  -26.5427  -22.3734   18.6603 O   0  0  0  0  0  0  0  0  0  0  0  0
  -22.6676   -6.2968   20.6190 F   0  0  0  0  0  0  0  0  0  0  0  0
  -21.9024  -10.2947   23.0348 F   0  0  0  0  0  0  0  0  0  0  0  0
  1  2  1  0  0  0  0
  1  5  2  0  0  0  0
  2  6  2  0  0  0  0
  3  9  2  0  0  0  0
  3 18  1  0  0  0  0
  4 10  1  0  0  0  0
  4 18  2  0  0  0  0
  5 21  1  0  0  0  0
  6 23  1  0  0  0  0
  7 11  2  0  0  0  0
  7 22  1  0  0  0  0
  8 12  2  0  0  0  0
  8 25  1  0  0  0  0
  9 26  1  0  0  0  0
 10 26  2  0  0  0  0
 11 27  1  0  0  0  0
 12 28  1  0  0  0  0
 13 14  2  0  0  0  0
 13 29  1  0  0  0  0
 14 30  1  0  0  0  0
 15 19  1  0  0  0  0
 15 25  2  0  0  0  0
 16 24  1  0  0  0  0
 16 27  2  0  0  0  0
 17 30  2  0  0  0  0
 17 31  1  0  0  0  0
 18 32  1  0  0  0  0
 19 28  2  0  0  0  0
 19 35  1  0  0  0  0
 20 32  1  0  0  0  0
 20 33  2  0  0  0  0
 20 34  1  0  0  0  0
 21 23  2  0  0  0  0
 21 40  1  0  0  0  0
 22 24  2  0  0  0  0
 22 41  1  0  0  0  0
 23 49  1  0  0  0  0
 24 42  1  0  0  0  0
 25 71  1  0  0  0  0
 26 81  1  0  0  0  0
 27 82  1  0  0  0  0
 28 83  1  0  0  0  0
 29 31  2  0  0  0  0
 29 81  1  0  0  0  0
 30 85  1  0  0  0  0
 31 86  1  0  0  0  0
 32 65  2  0  0  0  0
 33 66  1  0  0  0  0
 33 69  1  0  0  0  0
 34 70  1  0  0  0  0
 34 75  2  0  0  0  0
 35 76  2  0  0  0  0
 35 84  1  0  0  0  0
 36 50  1  0  0  0  0
 36 72  1  0  0  0  0
 36 77  2  0  0  0  0
 37 62  1  0  0  0  0
 37 67  1  0  0  0  0
 37 78  2  0  0  0  0
 38 63  1  0  0  0  0
 38 73  1  0  0  0  0
 38 79  2  0  0  0  0
 39 68  1  0  0  0  0
 39 71  1  0  0  0  0
 39 80  2  0  0  0  0
 40 43  1  0  0  0  0
 41 50  1  0  0  0  0
 42 67  1  0  0  0  0
 43 45  1  0  0  0  0
 44 46  1  0  0  0  0
 44 47  1  0  0  0  0
 45 49  1  0  0  0  0
 46 51  1  0  0  0  0
 47 68  1  0  0  0  0
 48 51  1  0  0  0  0
 48 68  1  0  0  0  0
 49 72  1  0  0  0  0
 50 67  1  0  0  0  0
 51 66  1  0  0  0  0
 52 59  1  0  0  0  0
 53 63  1  0  0  0  0
 54 64  1  0  0  0  0
 55 64  1  0  0  0  0
 56 64  1  0  0  0  0
 57 74  1  0  0  0  0
 58 60  1  0  0  0  0
 58 61  1  0  0  0  0
 59 84  1  0  0  0  0
 60 82  1  0  0  0  0
 61 83  1  0  0  0  0
 62 64  1  0  0  0  0
 62 73  1  0  0  0  0
 63 74  1  0  0  0  0
 65 66  1  0  0  0  0
M  CHG  1  74   1
M  ISO  4  39 100  60 101  71 100  82 101
M  END
> <Batch ID>
0001

> <Smiles>
CCOC(=O)c1cc([100NH:0][100C:0](=O)N2CCCC(n3nc(-c4ccc(Oc5ccc(F)cc5F)cc4)c(C(N)=O)c3N)C2)ccc1OCC[101CH2:1][101O:1]c1ccc2c(c1)CN(C(=O)C(NC(=O)C(C)NC)C(C)(C)C)C(C(=O)NC1CCCc3ccccc31)C2

> <Shape>
0.238

> <Color>
0.073

> <Negative vol penalty>
0.000

$$$$

  -OEChem-04042320143D

 88 97  0     1  0  0  0  0  0999 V2000
  -26.4015  -29.0775   12.3222 C   0  0  0  0  0  0  0  0  0  0  0  0
  -27.2893  -28.6765   13.3153 C   0  0  0  0  0  0  0  0  0  0  0  0
  -23.8553   -9.6732   21.3211 C   0  0  0  0  0  0  0  0  0  0  0  0
  -24.6622  -10.6323   23.3865 C   0  0  0  0  0  0  0  0  0  0  0  0
  -31.5114  -19.8456   21.0555 C   0  0  0  0  0  0  0  0  0  0  0  0
  -25.3981  -29.9997   12.6166 C   0  0  0  0  0  0  0  0  0  0  0  0
  -27.1750  -29.1983   14.6033 C   0  0  0  0  0  0  0  0  0  0  0  0
  -27.5952  -25.6426   18.1845 C   0  0  0  0  0  0  0  0  0  0  0  0
  -31.1164  -18.6016   20.5636 C   0  0  0  0  0  0  0  0  0  0  0  0
  -23.4060   -8.5513   22.0175 C   0  0  0  0  0  0  0  0  0  0  0  0
  -24.2128   -9.5104   24.0830 C   0  0  0  0  0  0  0  0  0  0  0  0
  -28.8796  -25.1935   18.4883 C   0  0  0  0  0  0  0  0  0  0  0  0
  -20.7670   -7.7171   23.9599 C   0  0  0  0  0  0  0  0  0  0  0  0
  -19.4921   -7.2365   23.6614 C   0  0  0  0  0  0  0  0  0  0  0  0
  -28.8145  -19.1318   21.0710 C   0  0  0  0  0  0  0  0  0  0  0  0
  -28.9154  -26.6269   20.4283 C   0  0  0  0  0  0  0  0  0  0  0  0
  -20.4453   -5.1157   23.0051 C   0  0  0  0  0  0  0  0  0  0  0  0
  -24.4835  -10.7137   22.0055 C   0  0  0  0  0  0  0  0  0  0  0  0
  -29.2096  -20.3759   21.5630 C   0  0  0  0  0  0  0  0  0  0  0  0
  -30.5580  -20.7327   21.5553 C   0  0  0  0  0  0  0  0  0  0  0  0
  -24.2288  -13.0527   21.0199 C   0  0  0  0  0  0  0  0  0  0  0  0
  -25.2654  -30.5258   13.9113 C   0  0  0  0  0  0  0  0  0  0  0  0
  -26.9644  -26.5969   18.9956 C   0  0  0  0  0  0  0  0  0  0  0  0
  -26.1697  -30.1295   14.9151 C   0  0  0  0  0  0  0  0  0  0  0  0
  -27.6219  -27.0845   20.1340 C   0  0  0  0  0  0  0  0  0  0  0  0
  -29.7680  -18.2447   20.5713 C   0  0  0  0  0  0  0  0  0  0  0  0
  -23.5847   -8.4699   23.3985 C   0  0  0  0  0  0  0  0  0  0  0  0
  -29.5411  -25.6878   19.6087 C   0  0  0  0  0  0  0  0  0  0  0  0
  -21.8811   -6.8971   23.7809 C   0  0  0  0  0  0  0  0  0  0  0  0
  -19.3312   -5.9358   23.1840 C   0  0  0  0  0  0  0  0  0  0  0  0
  -21.7202   -5.5964   23.3035 C   0  0  0  0  0  0  0  0  0  0  0  0
  -24.9484  -11.8726   21.2866 C   0  0  0  0  0  0  0  0  0  0  0  0
  -25.1066  -13.8379   20.3133 C   0  0  0  0  0  0  0  0  0  0  0  0
  -27.8114  -21.2656   23.3880 C   0  0  0  0  0  0  0  0  0  0  0  0
  -28.1693  -21.2928   22.0897 C   0  0  0  0  0  0  0  0  0  0  0  0
  -31.0209  -22.0471   22.0702 C   0  0  0  0  0  0  0  0  0  0  0  0
  -22.8868  -13.4075   21.3788 C   0  0  0  0  0  0  0  0  0  0  0  0
  -25.8767  -29.5506   18.5526 C   0  0  0  0  0  0  0  0  0  0  0  0
  -24.7628  -29.1760   21.5761 C   0  0  0  0  0  0  0  0  0  0  0  0
  -25.0281  -27.5887   24.5855 C   0  0  0  0  0  0  0  0  0  0  0  0
  -30.1860  -15.9842   19.5409 C   0  0  0  0  0  0  0  0  0  0  0  0
  -24.1944  -31.5557   14.1701 C   0  0  0  0  0  0  0  0  0  0  0  0
  -25.5681  -27.0511   18.6692 C   0  0  0  0  0  0  0  0  0  0  0  0
  -26.9805  -28.0949   21.0484 C   0  0  0  0  0  0  0  0  0  0  0  0
  -26.7583  -22.1549   23.9843 C   0  0  0  0  0  0  0  0  0  0  0  0
  -27.5201  -22.2502   21.1155 C   0  0  0  0  0  0  0  0  0  0  0  0
  -23.9083  -31.7775   15.6530 C   0  0  0  0  0  0  0  0  0  0  0  0
  -25.9179  -22.8932   22.9436 C   0  0  0  0  0  0  0  0  0  0  0  0
  -26.7867  -23.4060   21.8020 C   0  0  0  0  0  0  0  0  0  0  0  0
  -29.5882  -12.7240   18.2406 C   0  0  0  0  0  0  0  0  0  0  0  0
  -25.2115  -31.9258   16.4318 C   0  0  0  0  0  0  0  0  0  0  0  0
  -28.2686  -12.3089   18.8952 C   0  0  0  0  0  0  0  0  0  0  0  0
  -30.4617  -13.5393   19.1924 C   0  0  0  0  0  0  0  0  0  0  0  0
  -28.4817  -14.2875   20.4531 C   0  0  0  0  0  0  0  0  0  0  0  0
  -26.0625  -30.6542   16.3304 C   0  0  1  0  0  0  0  0  0  0  0  0
  -25.2237  -28.4074   19.2769 C   0  0  1  0  0  0  0  0  0  0  0  0
  -27.5400  -13.5193   19.5114 C   0  0  2  0  0  0  0  0  0  0  0  0
  -24.4248  -26.9254   26.9294 C   0  0  0  0  0  0  0  0  0  0  0  0
  -26.1993  -31.7706   22.2931 C   0  0  0  0  0  0  0  0  0  0  0  0
  -25.9514  -31.1588   24.7081 C   0  0  0  0  0  0  0  0  0  0  0  0
  -23.9240  -31.5248   23.3016 C   0  0  0  0  0  0  0  0  0  0  0  0
  -23.2979  -25.3818   23.6394 C   0  0  0  0  0  0  0  0  0  0  0  0
  -32.2103  -24.1521   21.5129 C   0  0  0  0  0  0  0  0  0  0  0  0
  -31.1648  -25.2310   21.2853 C   0  0  0  0  0  0  0  0  0  1  0  0
  -25.3111  -29.4392   22.9577 C   0  0  1  0  0  0  0  0  0  0  0  0
  -23.9865  -26.9317   25.4731 C   0  0  2  0  0  0  0  0  0  0  0  0
  -25.3596  -30.9558   23.2970 C   0  0  0  0  0  0  0  0  0  0  0  0
  -26.1879  -11.9010   20.7897 N   0  0  0  0  0  0  0  0  0  0  0  0
  -26.2539  -13.1086   20.2036 N   0  0  0  0  0  0  0  0  0  0  0  0
  -25.6168  -28.5128   20.6835 N   0  0  0  0  0  0  0  0  0  0  0  0
  -29.7065  -14.6713   19.7338 N   0  0  0  0  0  0  0  0  0  0  0  0
  -25.0014  -15.0741   19.7812 N   0  0  0  0  0  0  0  0  0  0  0  0
  -22.1230  -12.4838   22.1053 N   0  0  0  0  0  0  0  0  0  0  0  0
  -29.3675  -16.9807   20.0715 N   0  0  0  0  0  0  0  0  0  0  0  0
  -31.6793  -22.8560   21.1575 N   0  0  0  0  0  0  0  0  0  0  0  0
  -25.5472  -29.6295   17.2130 N   0  0  0  0  0  0  0  0  0  0  0  0
  -24.5006  -28.6470   23.8764 N   0  0  0  0  0  0  0  0  0  0  0  0
  -23.7559  -25.5228   25.0456 N   0  3  0  0  0  0  0  0  0  0  0  0
  -30.8216  -22.3342   23.2477 O   0  0  0  0  0  0  0  0  0  0  0  0
  -22.3744  -14.5044   21.0505 O   0  0  0  0  0  0  0  0  0  0  0  0
  -26.6229  -30.3060   19.1643 O   0  0  0  0  0  0  0  0  0  0  0  0
  -23.6163  -29.5388   21.3012 O   0  0  0  0  0  0  0  0  0  0  0  0
  -26.1941  -27.2040   24.5299 O   0  0  0  0  0  0  0  0  0  0  0  0
  -31.2308  -16.2095   18.9248 O   0  0  0  0  0  0  0  0  0  0  0  0
  -23.1461   -7.3755   24.0785 O   0  0  0  0  0  0  0  0  0  0  0  0
  -30.7951  -25.2517   19.9071 O   0  0  0  0  0  0  0  0  0  1  0  0
  -18.1066   -5.4739   22.8989 F   0  0  0  0  0  0  0  0  0  0  0  0
  -22.7866   -4.8035   23.1307 F   0  0  0  0  0  0  0  0  0  0  0  0
  1  2  1  0  0  0  0
  1  6  2  0  0  0  0
  2  7  2  0  0  0  0
  3 10  2  0  0  0  0
  3 18  1  0  0  0  0
  4 11  1  0  0  0  0
  4 18  2  0  0  0  0
  5  9  2  0  0  0  0
  5 20  1  0  0  0  0
  6 22  1  0  0  0  0
  7 24  1  0  0  0  0
  8 12  2  0  0  0  0
  8 23  1  0  0  0  0
  9 26  1  0  0  0  0
 10 27  1  0  0  0  0
 11 27  2  0  0  0  0
 12 28  1  0  0  0  0
 13 14  2  0  0  0  0
 13 29  1  0  0  0  0
 14 30  1  0  0  0  0
 15 19  1  0  0  0  0
 15 26  2  0  0  0  0
 16 25  1  0  0  0  0
 16 28  2  0  0  0  0
 17 30  2  0  0  0  0
 17 31  1  0  0  0  0
 18 32  1  0  0  0  0
 19 20  2  0  0  0  0
 19 35  1  0  0  0  0
 20 36  1  0  0  0  0
 21 32  1  0  0  0  0
 21 33  2  0  0  0  0
 21 37  1  0  0  0  0
 22 24  2  0  0  0  0
 22 42  1  0  0  0  0
 23 25  2  0  0  0  0
 23 43  1  0  0  0  0
 24 55  1  0  0  0  0
 25 44  1  0  0  0  0
 26 74  1  0  0  0  0
 27 85  1  0  0  0  0
 28 86  1  0  0  0  0
 29 31  2  0  0  0  0
 29 85  1  0  0  0  0
 30 87  1  0  0  0  0
 31 88  1  0  0  0  0
 32 68  2  0  0  0  0
 33 69  1  0  0  0  0
 33 72  1  0  0  0  0
 34 35  2  0  0  0  0
 34 45  1  0  0  0  0
 35 46  1  0  0  0  0
 36 75  1  0  0  0  0
 36 79  2  0  0  0  0
 37 73  1  0  0  0  0
 37 80  2  0  0  0  0
 38 56  1  0  0  0  0
 38 76  1  0  0  0  0
 38 81  2  0  0  0  0
 39 65  1  0  0  0  0
 39 70  1  0  0  0  0
 39 82  2  0  0  0  0
 40 66  1  0  0  0  0
 40 77  1  0  0  0  0
 40 83  2  0  0  0  0
 41 71  1  0  0  0  0
 41 74  1  0  0  0  0
 41 84  2  0  0  0  0
 42 47  1  0  0  0  0
 43 56  1  0  0  0  0
 44 70  1  0  0  0  0
 45 48  1  0  0  0  0
 46 49  1  0  0  0  0
 47 51  1  0  0  0  0
 48 49  1  0  0  0  0
 50 52  1  0  0  0  0
 50 53  1  0  0  0  0
 51 55  1  0  0  0  0
 52 57  1  0  0  0  0
 53 71  1  0  0  0  0
 54 57  1  0  0  0  0
 54 71  1  0  0  0  0
 55 76  1  0  0  0  0
 56 70  1  0  0  0  0
 57 69  1  0  0  0  0
 58 66  1  0  0  0  0
 59 67  1  0  0  0  0
 60 67  1  0  0  0  0
 61 67  1  0  0  0  0
 62 78  1  0  0  0  0
 63 64  1  0  0  0  0
 63 75  1  0  0  0  0
 64 86  1  0  0  0  0
 65 67  1  0  0  0  0
 65 77  1  0  0  0  0
 66 78  1  0  0  0  0
 68 69  1  0  0  0  0
M  CHG  1  78   1
M  ISO  4  41 100  64 101  74 100  86 101
M  END
> <Batch ID>
0001

> <Smiles>
CNC(C)C(=O)NC(C(=O)N1Cc2cc([101O:1][101CH2:1]CNC(=O)c3ccc([100NH:0][100C:0](=O)N4CCCC(n5nc(-c6ccc(Oc7ccc(F)cc7F)cc6)c(C(N)=O)c5N)C4)cc3C3=CCCCC3)ccc2CC1C(=O)NC1CCCc2ccccc21)C(C)(C)C

> <Shape>
0.270

> <Color>
0.135

> <Negative vol penalty>
0.000

$$$$

  -OEChem-04042320143D

 79 87  0     1  0  0  0  0  0999 V2000
  -30.3817  -24.2799   17.5455 C   0  0  0  0  0  0  0  0  0  0  0  0
  -29.0087  -24.2038   17.7566 C   0  0  0  0  0  0  0  0  0  0  0  0
  -27.2509  -17.1656   21.2377 C   0  0  0  0  0  0  0  0  0  0  0  0
  -27.2752  -17.0670   18.8239 C   0  0  0  0  0  0  0  0  0  0  0  0
  -31.1940  -24.9270   18.4757 C   0  0  0  0  0  0  0  0  0  0  0  0
  -28.4473  -24.7738   18.8987 C   0  0  0  0  0  0  0  0  0  0  0  0
  -22.9651  -27.4649   19.3558 C   0  0  0  0  0  0  0  0  0  0  0  0
  -18.8146  -23.9707   21.1497 C   0  0  0  0  0  0  0  0  0  0  0  0
  -20.0013  -23.1531   23.0889 C   0  0  0  0  0  0  0  0  0  0  0  0
  -19.0950  -22.7816   20.4767 C   0  0  0  0  0  0  0  0  0  0  0  0
  -20.2816  -21.9639   22.4160 C   0  0  0  0  0  0  0  0  0  0  0  0
  -28.6010  -17.5158   21.2371 C   0  0  0  0  0  0  0  0  0  0  0  0
  -28.6254  -17.4173   18.8232 C   0  0  0  0  0  0  0  0  0  0  0  0
  -21.7312  -27.0076   19.8164 C   0  0  0  0  0  0  0  0  0  0  0  0
  -31.9496  -18.7882   21.8558 C   0  0  0  0  0  0  0  0  0  0  0  0
  -32.3497  -19.8302   22.6923 C   0  0  0  0  0  0  0  0  0  0  0  0
  -22.1853  -27.9776   21.9779 C   0  0  0  0  0  0  0  0  0  0  0  0
  -30.8555  -21.3342   21.5338 C   0  0  0  0  0  0  0  0  0  0  0  0
  -26.5880  -16.9411   20.0311 C   0  0  0  0  0  0  0  0  0  0  0  0
  -24.6089  -15.4480   20.6324 C   0  0  0  0  0  0  0  0  0  0  0  0
  -30.6411  -25.5137   19.6250 C   0  0  0  0  0  0  0  0  0  0  0  0
  -23.8245  -28.1738   20.2075 C   0  0  0  0  0  0  0  0  0  0  0  0
  -29.2532  -25.4282   19.8458 C   0  0  0  0  0  0  0  0  0  0  0  0
  -23.4284  -28.4451   21.5250 C   0  0  0  0  0  0  0  0  0  0  0  0
  -19.2678  -24.1565   22.4558 C   0  0  0  0  0  0  0  0  0  0  0  0
  -19.8284  -21.7781   21.1099 C   0  0  0  0  0  0  0  0  0  0  0  0
  -29.2883  -17.6417   20.0299 C   0  0  0  0  0  0  0  0  0  0  0  0
  -21.3424  -27.2614   21.1284 C   0  0  0  0  0  0  0  0  0  0  0  0
  -31.0025  -19.0193   20.8581 C   0  0  0  0  0  0  0  0  0  0  0  0
  -31.8026  -21.1031   22.5314 C   0  0  0  0  0  0  0  0  0  0  0  0
  -30.4554  -20.2922   20.6972 C   0  0  0  0  0  0  0  0  0  0  0  0
  -25.1934  -16.5788   20.0311 C   0  0  0  0  0  0  0  0  0  0  0  0
  -23.2698  -15.5620   20.3489 C   0  0  0  0  0  0  0  0  0  0  0  0
  -25.2216  -14.3893   21.3803 C   0  0  0  0  0  0  0  0  0  0  0  0
  -26.7489  -27.6879   21.3544 C   0  0  0  0  0  0  0  0  0  0  0  0
  -26.3600  -30.6825   22.5389 C   0  0  0  0  0  0  0  0  0  0  0  0
  -24.2221  -33.1496   23.5337 C   0  0  0  0  0  0  0  0  0  0  0  0
  -19.7379  -20.2248   19.1287 C   0  0  0  0  0  0  0  0  0  0  0  0
  -31.5652  -26.1613   20.6256 C   0  0  0  0  0  0  0  0  0  0  0  0
  -25.1407  -28.6834   19.6875 C   0  0  0  0  0  0  0  0  0  0  0  0
  -24.3058  -29.2193   22.4733 C   0  0  0  0  0  0  0  0  0  0  0  0
  -30.8455  -27.0654   21.6232 C   0  0  0  0  0  0  0  0  0  0  0  0
  -20.2753  -17.3658   17.0757 C   0  0  0  0  0  0  0  0  0  0  0  0
  -29.6066  -26.3692   22.1773 C   0  0  0  0  0  0  0  0  0  0  0  0
  -21.5409  -16.7332   17.6592 C   0  0  0  0  0  0  0  0  0  0  0  0
  -20.3329  -18.8918   17.1176 C   0  0  0  0  0  0  0  0  0  0  0  0
  -21.8983  -18.8332   19.0191 C   0  0  0  0  0  0  0  0  0  0  0  0
  -28.6038  -26.0558   21.0602 C   0  0  1  0  0  0  0  0  0  0  0  0
  -26.1572  -28.9500   20.7934 C   0  0  1  0  0  0  0  0  0  0  0  0
  -21.8592  -17.2968   19.0580 C   0  0  2  0  0  0  0  0  0  0  0  0
  -24.1998  -35.4694   24.4906 C   0  0  0  0  0  0  0  0  0  0  0  0
  -27.0744  -29.5550   25.2827 C   0  0  0  0  0  0  0  0  0  0  0  0
  -26.1268  -31.6339   26.3065 C   0  0  0  0  0  0  0  0  0  0  0  0
  -28.0894  -31.7833   24.7740 C   0  0  0  0  0  0  0  0  0  0  0  0
  -22.8102  -34.2359   21.1704 C   0  0  0  0  0  0  0  0  0  0  0  0
  -18.9645  -25.4434   23.1839 C   0  0  0  0  0  0  0  0  0  0  0  0
  -20.0432  -26.4994   22.9690 C   0  0  0  0  0  0  0  0  0  1  0  0
  -25.8074  -31.2627   23.8183 C   0  0  1  0  0  0  0  0  0  0  0  0
  -24.1814  -34.6343   23.2197 C   0  0  2  0  0  0  0  0  0  0  0  0
  -26.7586  -31.0424   25.0283 C   0  0  0  0  0  0  0  0  0  0  0  0
  -24.2989  -17.3540   19.4122 N   0  0  0  0  0  0  0  0  0  0  0  0
  -23.1388  -16.7092   19.6230 N   0  0  0  0  0  0  0  0  0  0  0  0
  -25.5858  -29.6910   21.9198 N   0  0  0  0  0  0  0  0  0  0  0  0
  -20.6343  -19.3534   18.4745 N   0  0  0  0  0  0  0  0  0  0  0  0
  -22.2035  -14.7917   20.6521 N   0  0  0  0  0  0  0  0  0  0  0  0
  -25.6731  -13.2570   20.6886 N   0  0  0  0  0  0  0  0  0  0  0  0
  -20.1131  -20.5699   20.4266 N   0  0  0  0  0  0  0  0  0  0  0  0
  -27.8756  -27.2490   20.6854 N   0  0  0  0  0  0  0  0  0  0  0  0
  -25.5125  -32.6636   23.5373 N   0  0  0  0  0  0  0  0  0  0  0  0
  -22.9463  -34.9685   22.4556 N   0  3  0  0  0  0  0  0  0  0  0  0
  -25.3497  -14.4385   22.6272 O   0  0  0  0  0  0  0  0  0  0  0  0
  -26.2232  -27.1527   22.3233 O   0  0  0  0  0  0  0  0  0  0  0  0
  -27.4354  -31.0989   22.1010 O   0  0  0  0  0  0  0  0  0  0  0  0
  -23.2108  -32.4881   23.7573 O   0  0  0  0  0  0  0  0  0  0  0  0
  -18.6992  -20.6130   18.5880 O   0  0  0  0  0  0  0  0  0  0  0  0
  -30.6057  -17.9836   20.0288 O   0  0  0  0  0  0  0  0  0  0  0  0
  -20.1388  -26.8156   21.5807 O   0  0  0  0  0  0  0  0  0  1  0  0
  -32.1858  -22.1032   23.3359 F   0  0  0  0  0  0  0  0  0  0  0  0
  -29.5442  -20.5200   19.7413 F   0  0  0  0  0  0  0  0  0  0  0  0
  1  2  1  0  0  0  0
  1  5  2  0  0  0  0
  2  6  2  0  0  0  0
  3 12  2  0  0  0  0
  3 19  1  0  0  0  0
  4 13  1  0  0  0  0
  4 19  2  0  0  0  0
  5 21  1  0  0  0  0
  6 23  1  0  0  0  0
  7 14  2  0  0  0  0
  7 22  1  0  0  0  0
  8 10  2  0  0  0  0
  8 25  1  0  0  0  0
  9 11  1  0  0  0  0
  9 25  2  0  0  0  0
 10 26  1  0  0  0  0
 11 26  2  0  0  0  0
 12 27  1  0  0  0  0
 13 27  2  0  0  0  0
 14 28  1  0  0  0  0
 15 16  2  0  0  0  0
 15 29  1  0  0  0  0
 16 30  1  0  0  0  0
 17 24  1  0  0  0  0
 17 28  2  0  0  0  0
 18 30  2  0  0  0  0
 18 31  1  0  0  0  0
 19 32  1  0  0  0  0
 20 32  1  0  0  0  0
 20 33  2  0  0  0  0
 20 34  1  0  0  0  0
 21 23  2  0  0  0  0
 21 39  1  0  0  0  0
 22 24  2  0  0  0  0
 22 40  1  0  0  0  0
 23 48  1  0  0  0  0
 24 41  1  0  0  0  0
 25 56  1  0  0  0  0
 26 67  1  0  0  0  0
 27 76  1  0  0  0  0
 28 77  1  0  0  0  0
 29 31  2  0  0  0  0
 29 76  1  0  0  0  0
 30 78  1  0  0  0  0
 31 79  1  0  0  0  0
 32 61  2  0  0  0  0
 33 62  1  0  0  0  0
 33 65  1  0  0  0  0
 34 66  1  0  0  0  0
 34 71  2  0  0  0  0
 35 49  1  0  0  0  0
 35 68  1  0  0  0  0
 35 72  2  0  0  0  0
 36 58  1  0  0  0  0
 36 63  1  0  0  0  0
 36 73  2  0  0  0  0
 37 59  1  0  0  0  0
 37 69  1  0  0  0  0
 37 74  2  0  0  0  0
 38 64  1  0  0  0  0
 38 67  1  0  0  0  0
 38 75  2  0  0  0  0
 39 42  1  0  0  0  0
 40 49  1  0  0  0  0
 41 63  1  0  0  0  0
 42 44  1  0  0  0  0
 43 45  1  0  0  0  0
 43 46  1  0  0  0  0
 44 48  1  0  0  0  0
 45 50  1  0  0  0  0
 46 64  1  0  0  0  0
 47 50  1  0  0  0  0
 47 64  1  0  0  0  0
 48 68  1  0  0  0  0
 49 63  1  0  0  0  0
 50 62  1  0  0  0  0
 51 59  1  0  0  0  0
 52 60  1  0  0  0  0
 53 60  1  0  0  0  0
 54 60  1  0  0  0  0
 55 70  1  0  0  0  0
 56 57  1  0  0  0  0
 57 77  1  0  0  0  0
 58 60  1  0  0  0  0
 58 69  1  0  0  0  0
 59 70  1  0  0  0  0
 61 62  1  0  0  0  0
M  CHG  1  70   1
M  ISO  4  38 100  57 101  67 100  77 101
M  END
> <Batch ID>
0001

> <Smiles>
CNC(C)C(=O)NC(C(=O)N1Cc2cc([101O:1][101CH2:1]Cc3ccc([100NH:0][100C:0](=O)N4CCCC(n5nc(-c6ccc(Oc7ccc(F)cc7F)cc6)c(C(N)=O)c5N)C4)cc3)ccc2CC1C(=O)NC1CCCc2ccccc21)C(C)(C)C

> <Shape>
0.245

> <Color>
0.073

> <Negative vol penalty>
0.000

$$$$

  -OEChem-04042320143D

 90 98  0     1  0  0  0  0  0999 V2000
  -32.9029  -28.7186   27.9778 C   0  0  0  0  0  0  0  0  0  0  0  0
  -32.5809  -27.7657   27.0167 C   0  0  0  0  0  0  0  0  0  0  0  0
  -23.1297   -9.7948   19.9618 C   0  0  0  0  0  0  0  0  0  0  0  0
  -23.8456   -9.8898   22.2673 C   0  0  0  0  0  0  0  0  0  0  0  0
  -31.8904  -29.4393   28.6099 C   0  0  0  0  0  0  0  0  0  0  0  0
  -31.2460  -27.5322   26.6879 C   0  0  0  0  0  0  0  0  0  0  0  0
  -30.5053  -27.2042   21.6890 C   0  0  0  0  0  0  0  0  0  0  0  0
  -31.0177  -17.8200   20.5197 C   0  0  0  0  0  0  0  0  0  0  0  0
  -22.4066   -8.6336   20.2341 C   0  0  0  0  0  0  0  0  0  0  0  0
  -23.1225   -8.7286   22.5397 C   0  0  0  0  0  0  0  0  0  0  0  0
  -30.8598  -26.0063   21.0701 C   0  0  0  0  0  0  0  0  0  0  0  0
  -31.1560  -19.2076   20.4863 C   0  0  0  0  0  0  0  0  0  0  0  0
  -19.9017   -7.8775   23.1078 C   0  0  0  0  0  0  0  0  0  0  0  0
  -19.1238   -7.8569   24.2654 C   0  0  0  0  0  0  0  0  0  0  0  0
  -29.3500  -18.0279   22.2553 C   0  0  0  0  0  0  0  0  0  0  0  0
  -28.5469  -25.3212   21.0845 C   0  0  0  0  0  0  0  0  0  0  0  0
  -20.3931   -5.9715   25.0848 C   0  0  0  0  0  0  0  0  0  0  0  0
  -23.8493  -10.4230   20.9783 C   0  0  0  0  0  0  0  0  0  0  0  0
  -29.4882  -19.4155   22.2219 C   0  0  0  0  0  0  0  0  0  0  0  0
  -24.1380  -12.9502   20.7854 C   0  0  0  0  0  0  0  0  0  0  0  0
  -30.5431  -29.2212   28.2817 C   0  0  0  0  0  0  0  0  0  0  0  0
  -29.1681  -27.4653   22.0208 C   0  0  0  0  0  0  0  0  0  0  0  0
  -30.2145  -28.2496   27.3172 C   0  0  0  0  0  0  0  0  0  0  0  0
  -28.1776  -26.5243   21.7053 C   0  0  0  0  0  0  0  0  0  0  0  0
  -30.1147  -17.2302   21.4042 C   0  0  0  0  0  0  0  0  0  0  0  0
  -22.4030   -8.1004   21.5231 C   0  0  0  0  0  0  0  0  0  0  0  0
  -29.8810  -25.0633   20.7703 C   0  0  0  0  0  0  0  0  0  0  0  0
  -30.3913  -20.0054   21.3374 C   0  0  0  0  0  0  0  0  0  0  0  0
  -20.9253   -6.9451   22.9387 C   0  0  0  0  0  0  0  0  0  0  0  0
  -19.3694   -6.9039   25.2539 C   0  0  0  0  0  0  0  0  0  0  0  0
  -21.1710   -5.9921   23.9272 C   0  0  0  0  0  0  0  0  0  0  0  0
  -24.5969  -11.6222   20.6975 C   0  0  0  0  0  0  0  0  0  0  0  0
  -25.2202  -13.7124   20.4189 C   0  0  0  0  0  0  0  0  0  0  0  0
  -28.6782  -20.2273   23.1202 C   0  0  0  0  0  0  0  0  0  0  0  0
  -29.1634  -21.0831   24.0459 C   0  0  0  0  0  0  0  0  0  0  0  0
  -22.8488  -13.4501   21.1647 C   0  0  0  0  0  0  0  0  0  0  0  0
  -28.2366  -21.8722   24.9066 C   0  0  0  0  0  0  0  0  0  0  0  0
  -27.5894  -27.9838   24.7305 C   0  0  0  0  0  0  0  0  0  0  0  0
  -25.1144  -28.5776   22.7195 C   0  0  0  0  0  0  0  0  0  0  0  0
  -23.6926  -28.0979   19.6543 C   0  0  0  0  0  0  0  0  0  0  0  0
  -30.6579  -14.8854   20.6605 C   0  0  0  0  0  0  0  0  0  0  0  0
  -29.4809  -29.9911   29.0259 C   0  0  0  0  0  0  0  0  0  0  0  0
  -28.7984  -28.7738   22.6641 C   0  0  0  0  0  0  0  0  0  0  0  0
  -26.7251  -26.7652   22.0223 C   0  0  0  0  0  0  0  0  0  0  0  0
  -28.1124  -29.9487   28.3509 C   0  0  0  0  0  0  0  0  0  0  0  0
  -29.6417  -12.3750   18.3492 C   0  0  0  0  0  0  0  0  0  0  0  0
  -27.7669  -28.5228   27.9337 C   0  0  0  0  0  0  0  0  0  0  0  0
  -28.2009  -12.0646   18.7613 C   0  0  0  0  0  0  0  0  0  0  0  0
  -30.5286  -12.6614   19.5596 C   0  0  0  0  0  0  0  0  0  0  0  0
  -28.5804  -13.3852   20.8823 C   0  0  0  0  0  0  0  0  0  0  0  0
  -28.7797  -27.9852   26.9155 C   0  0  1  0  0  0  0  0  0  0  0  0
  -27.4759  -28.7142   23.4223 C   0  0  1  0  0  0  0  0  0  0  0  0
  -27.6341  -13.1538   19.6930 C   0  0  2  0  0  0  0  0  0  0  0  0
  -21.6496  -28.6784   18.3178 C   0  0  0  0  0  0  0  0  0  0  0  0
  -28.8631  -21.7330   30.1414 C   0  0  0  0  0  0  0  0  0  0  0  0
  -30.2440  -23.5401   29.0979 C   0  0  0  0  0  0  0  0  0  0  0  0
  -23.4990  -26.5310   24.3044 C   0  0  0  0  0  0  0  0  0  0  0  0
  -21.8676  -26.4526   22.4068 C   0  0  0  0  0  0  0  0  0  0  0  0
  -22.2284  -28.5839   23.6519 C   0  0  0  0  0  0  0  0  0  0  0  0
  -25.2939  -29.5024   17.5996 C   0  0  0  0  0  0  0  0  0  0  0  0
  -28.0020  -22.8738   28.0748 C   0  0  0  0  0  0  0  0  0  0  0  0
  -28.2639  -23.5592   26.7357 C   0  0  0  0  0  0  0  0  0  0  0  0
  -31.5276  -23.3795   20.4396 C   0  0  0  0  0  0  0  0  0  1  0  0
  -31.4928  -21.8663   20.3478 C   0  0  0  0  0  0  0  0  0  0  0  0
  -24.0271  -27.7431   22.0868 C   0  0  1  0  0  0  0  0  0  0  0  0
  -23.0768  -29.0717   18.6661 C   0  0  2  0  0  0  0  0  0  0  0  0
  -29.2641  -22.3988   28.8222 C   0  0  0  0  0  0  0  0  0  0  0  0
  -22.9331  -27.3220   23.1081 C   0  0  0  0  0  0  0  0  0  0  0  0
  -25.8712  -11.5419   20.3056 N   0  0  0  0  0  0  0  0  0  0  0  0
  -26.2223  -12.8290   20.1440 N   0  0  0  0  0  0  0  0  0  0  0  0
  -26.4146  -28.0568   22.6570 N   0  0  0  0  0  0  0  0  0  0  0  0
  -29.9307  -13.7060   20.3938 N   0  0  0  0  0  0  0  0  0  0  0  0
  -25.4028  -15.0454   20.3080 N   0  0  0  0  0  0  0  0  0  0  0  0
  -21.8508  -12.5293   21.5118 N   0  0  0  0  0  0  0  0  0  0  0  0
  -29.9751  -15.8205   21.4376 N   0  0  0  0  0  0  0  0  0  0  0  0
  -28.9241  -22.6888   25.7886 N   0  0  0  0  0  0  0  0  0  0  0  0
  -28.5129  -28.5298   25.6014 N   0  0  0  0  0  0  0  0  0  0  0  0
  -23.5238  -28.5169   20.9571 N   0  0  0  0  0  0  0  0  0  0  0  0
  -23.8748  -29.1071   17.4080 N   0  3  0  0  0  0  0  0  0  0  0  0
  -22.5847  -14.6763   21.1791 O   0  0  0  0  0  0  0  0  0  0  0  0
  -27.0165  -21.7835   24.8166 O   0  0  0  0  0  0  0  0  0  0  0  0
  -26.8897  -26.9988   24.9352 O   0  0  0  0  0  0  0  0  0  0  0  0
  -24.8219  -29.6553   23.2435 O   0  0  0  0  0  0  0  0  0  0  0  0
  -24.2630  -27.0665   19.3057 O   0  0  0  0  0  0  0  0  0  0  0  0
  -31.7917  -15.0648   20.2086 O   0  0  0  0  0  0  0  0  0  0  0  0
  -21.6973   -6.9674   21.7893 O   0  0  0  0  0  0  0  0  0  0  0  0
  -30.2244  -23.8930   20.1668 O   0  0  0  0  0  0  0  0  0  1  0  0
  -30.5465  -21.3656   21.2842 O   0  0  0  0  0  0  0  0  0  0  0  0
  -18.6233   -6.8851   26.3661 F   0  0  0  0  0  0  0  0  0  0  0  0
  -22.1537   -5.0946   23.7709 F   0  0  0  0  0  0  0  0  0  0  0  0
  1  2  1  0  0  0  0
  1  5  2  0  0  0  0
  2  6  2  0  0  0  0
  3  9  2  0  0  0  0
  3 18  1  0  0  0  0
  4 10  1  0  0  0  0
  4 18  2  0  0  0  0
  5 21  1  0  0  0  0
  6 23  1  0  0  0  0
  7 11  2  0  0  0  0
  7 22  1  0  0  0  0
  8 12  2  0  0  0  0
  8 25  1  0  0  0  0
  9 26  1  0  0  0  0
 10 26  2  0  0  0  0
 11 27  1  0  0  0  0
 12 28  1  0  0  0  0
 13 14  2  0  0  0  0
 13 29  1  0  0  0  0
 14 30  1  0  0  0  0
 15 19  1  0  0  0  0
 15 25  2  0  0  0  0
 16 24  1  0  0  0  0
 16 27  2  0  0  0  0
 17 30  2  0  0  0  0
 17 31  1  0  0  0  0
 18 32  1  0  0  0  0
 19 28  2  0  0  0  0
 19 34  1  0  0  0  0
 20 32  1  0  0  0  0
 20 33  2  0  0  0  0
 20 36  1  0  0  0  0
 21 23  2  0  0  0  0
 21 42  1  0  0  0  0
 22 24  2  0  0  0  0
 22 43  1  0  0  0  0
 23 51  1  0  0  0  0
 24 44  1  0  0  0  0
 25 75  1  0  0  0  0
 26 86  1  0  0  0  0
 27 87  1  0  0  0  0
 28 88  1  0  0  0  0
 29 31  2  0  0  0  0
 29 86  1  0  0  0  0
 30 89  1  0  0  0  0
 31 90  1  0  0  0  0
 32 69  2  0  0  0  0
 33 70  1  0  0  0  0
 33 73  1  0  0  0  0
 34 35  2  0  0  0  0
 35 37  1  0  0  0  0
 36 74  1  0  0  0  0
 36 80  2  0  0  0  0
 37 76  1  0  0  0  0
 37 81  2  0  0  0  0
 38 52  1  0  0  0  0
 38 77  1  0  0  0  0
 38 82  2  0  0  0  0
 39 65  1  0  0  0  0
 39 71  1  0  0  0  0
 39 83  2  0  0  0  0
 40 66  1  0  0  0  0
 40 78  1  0  0  0  0
 40 84  2  0  0  0  0
 41 72  1  0  0  0  0
 41 75  1  0  0  0  0
 41 85  2  0  0  0  0
 42 45  1  0  0  0  0
 43 52  1  0  0  0  0
 44 71  1  0  0  0  0
 45 47  1  0  0  0  0
 46 48  1  0  0  0  0
 46 49  1  0  0  0  0
 47 51  1  0  0  0  0
 48 53  1  0  0  0  0
 49 72  1  0  0  0  0
 50 53  1  0  0  0  0
 50 72  1  0  0  0  0
 51 77  1  0  0  0  0
 52 71  1  0  0  0  0
 53 70  1  0  0  0  0
 54 66  1  0  0  0  0
 55 67  1  0  0  0  0
 56 67  1  0  0  0  0
 57 68  1  0  0  0  0
 58 68  1  0  0  0  0
 59 68  1  0  0  0  0
 60 79  1  0  0  0  0
 61 62  1  0  0  0  0
 61 67  1  0  0  0  0
 62 76  1  0  0  0  0
 63 64  1  0  0  0  0
 63 87  1  0  0  0  0
 64 88  1  0  0  0  0
 65 68  1  0  0  0  0
 65 78  1  0  0  0  0
 66 79  1  0  0  0  0
 69 70  1  0  0  0  0
M  CHG  1  79   1
M  ISO  4  41 100  63 101  75 100  87 101
M  END
> <Batch ID>
0001

> <Smiles>
CNC(C)C(=O)NC(C(=O)N1Cc2cc([101O:1][101CH2:1]COc3ccc([100NH:0][100C:0](=O)N4CCCC(n5nc(-c6ccc(Oc7ccc(F)cc7F)cc6)c(C(N)=O)c5N)C4)cc3C=CC(=O)NCCC(C)C)ccc2CC1C(=O)NC1CCCc2ccccc21)C(C)(C)C

> <Shape>
0.258

> <Color>
0.186

> <Negative vol penalty>
0.000

$$$$

  -OEChem-04042320143D

 84 92  0     1  0  0  0  0  0999 V2000
  -24.3325  -34.7001   15.2829 C   0  0  0  0  0  0  0  0  0  0  0  0
  -24.9521  -33.4580   15.1902 C   0  0  0  0  0  0  0  0  0  0  0  0
  -23.7333   -9.6066   20.8170 C   0  0  0  0  0  0  0  0  0  0  0  0
  -24.2581  -10.3687   23.0487 C   0  0  0  0  0  0  0  0  0  0  0  0
  -24.3960  -35.4224   16.4738 C   0  0  0  0  0  0  0  0  0  0  0  0
  -25.6366  -32.9379   16.2881 C   0  0  0  0  0  0  0  0  0  0  0  0
  -26.0477  -27.0489   17.9178 C   0  0  0  0  0  0  0  0  0  0  0  0
  -30.1468  -18.7924   19.6207 C   0  0  0  0  0  0  0  0  0  0  0  0
  -23.1917   -8.4345   21.3445 C   0  0  0  0  0  0  0  0  0  0  0  0
  -23.7164   -9.1966   23.5764 C   0  0  0  0  0  0  0  0  0  0  0  0
  -27.0371  -26.0872   17.7179 C   0  0  0  0  0  0  0  0  0  0  0  0
  -30.0584  -20.1347   19.2520 C   0  0  0  0  0  0  0  0  0  0  0  0
  -24.3290   -5.4946   22.5645 C   0  0  0  0  0  0  0  0  0  0  0  0
  -24.6711   -4.2898   21.9505 C   0  0  0  0  0  0  0  0  0  0  0  0
  -27.9364  -26.5667   19.9044 C   0  0  0  0  0  0  0  0  0  0  0  0
  -28.3480  -19.1082   21.2023 C   0  0  0  0  0  0  0  0  0  0  0  0
  -22.3406   -3.8741   21.4676 C   0  0  0  0  0  0  0  0  0  0  0  0
  -24.2665  -10.5737   21.6690 C   0  0  0  0  0  0  0  0  0  0  0  0
  -24.1523  -12.9938   20.8704 C   0  0  0  0  0  0  0  0  0  0  0  0
  -25.0734  -34.9066   17.5899 C   0  0  0  0  0  0  0  0  0  0  0  0
  -26.0017  -27.7856   19.1101 C   0  0  0  0  0  0  0  0  0  0  0  0
  -25.7104  -33.6545   17.4946 C   0  0  0  0  0  0  0  0  0  0  0  0
  -26.9439  -27.5353   20.1180 C   0  0  0  0  0  0  0  0  0  0  0  0
  -28.2595  -20.4506   20.8336 C   0  0  0  0  0  0  0  0  0  0  0  0
  -29.2916  -18.2791   20.5958 C   0  0  0  0  0  0  0  0  0  0  0  0
  -23.1833   -8.2295   22.7242 C   0  0  0  0  0  0  0  0  0  0  0  0
  -27.9834  -25.8480   18.7101 C   0  0  0  0  0  0  0  0  0  0  0  0
  -29.1148  -20.9638   19.8584 C   0  0  0  0  0  0  0  0  0  0  0  0
  -22.9926   -5.8891   22.6302 C   0  0  0  0  0  0  0  0  0  0  0  0
  -23.6770   -3.4796   21.4020 C   0  0  0  0  0  0  0  0  0  0  0  0
  -21.9985   -5.0789   22.0817 C   0  0  0  0  0  0  0  0  0  0  0  0
  -24.8267  -11.7845   21.1246 C   0  0  0  0  0  0  0  0  0  0  0  0
  -25.1191  -13.8253   20.3601 C   0  0  0  0  0  0  0  0  0  0  0  0
  -22.7752  -13.3350   21.0772 C   0  0  0  0  0  0  0  0  0  0  0  0
  -26.2568  -30.8651   19.8553 C   0  0  0  0  0  0  0  0  0  0  0  0
  -25.4833  -29.8101   22.8237 C   0  0  0  0  0  0  0  0  0  0  0  0
  -25.4123  -27.2273   25.0533 C   0  0  0  0  0  0  0  0  0  0  0  0
  -30.2615  -15.9577   20.4667 C   0  0  0  0  0  0  0  0  0  0  0  0
  -25.1551  -35.7451   18.8408 C   0  0  0  0  0  0  0  0  0  0  0  0
  -24.9120  -28.8006   19.3211 C   0  0  0  0  0  0  0  0  0  0  0  0
  -26.9258  -28.2849   21.4242 C   0  0  0  0  0  0  0  0  0  0  0  0
  -25.5819  -34.9562   20.0761 C   0  0  0  0  0  0  0  0  0  0  0  0
  -29.8355  -12.8333   18.8132 C   0  0  0  0  0  0  0  0  0  0  0  0
  -26.7842  -34.0735   19.7567 C   0  0  0  0  0  0  0  0  0  0  0  0
  -28.4389  -12.3814   19.2462 C   0  0  0  0  0  0  0  0  0  0  0  0
  -30.5754  -13.5491   19.9419 C   0  0  0  0  0  0  0  0  0  0  0  0
  -28.4460  -14.2121   20.9885 C   0  0  0  0  0  0  0  0  0  0  0  0
  -26.4414  -33.0457   18.6715 C   0  0  1  0  0  0  0  0  0  0  0  0
  -25.2701  -29.8534   20.3656 C   0  0  1  0  0  0  0  0  0  0  0  0
  -27.6373  -13.5434   19.8650 C   0  0  2  0  0  0  0  0  0  0  0  0
  -24.7577  -26.6796   27.4132 C   0  0  0  0  0  0  0  0  0  0  0  0
  -26.4107  -20.5260   22.5429 C   0  0  0  0  0  0  0  0  0  0  0  0
  -26.2460  -21.9153   20.4503 C   0  0  0  0  0  0  0  0  0  0  0  0
  -27.8196  -22.5558   22.2655 C   0  0  0  0  0  0  0  0  0  0  0  0
  -27.9812  -31.2342   23.8445 C   0  0  0  0  0  0  0  0  0  0  0  0
  -27.8005  -29.8929   25.9508 C   0  0  0  0  0  0  0  0  0  0  0  0
  -25.9726  -31.4674   25.3161 C   0  0  0  0  0  0  0  0  0  0  0  0
  -23.4345  -25.2148   24.1605 C   0  0  0  0  0  0  0  0  0  0  0  0
  -28.6220  -23.8002   17.6831 C   0  0  0  0  0  0  0  0  0  1  0  0
  -29.4048  -22.5858   18.1436 C   0  0  0  0  0  0  0  0  0  0  0  0
  -26.2616  -29.3164   24.0193 C   0  0  1  0  0  0  0  0  0  0  0  0
  -24.3105  -26.7093   25.9600 C   0  0  2  0  0  0  0  0  0  0  0  0
  -27.2436  -21.3237   21.4931 C   0  0  0  0  0  0  0  0  0  0  0  0
  -27.0058  -30.4648   24.7574 C   0  0  0  0  0  0  0  0  0  0  0  0
  -26.1217  -11.8386   20.8022 N   0  0  0  0  0  0  0  0  0  0  0  0
  -26.2688  -13.0920   20.3400 N   0  0  0  0  0  0  0  0  0  0  0  0
  -25.8445  -29.2717   21.5805 N   0  0  0  0  0  0  0  0  0  0  0  0
  -29.7572  -14.6400   20.4763 N   0  0  0  0  0  0  0  0  0  0  0  0
  -25.0893  -15.1049   19.9309 N   0  0  0  0  0  0  0  0  0  0  0  0
  -21.9185  -12.3621   21.6101 N   0  0  0  0  0  0  0  0  0  0  0  0
  -29.3817  -16.9154   20.9700 N   0  0  0  0  0  0  0  0  0  0  0  0
  -25.6758  -31.9537   19.2335 N   0  0  0  0  0  0  0  0  0  0  0  0
  -25.3112  -28.5877   24.8525 N   0  0  0  0  0  0  0  0  0  0  0  0
  -23.9176  -25.3283   25.5608 N   0  3  0  0  0  0  0  0  0  0  0  0
  -22.3143  -14.4638   20.7824 O   0  0  0  0  0  0  0  0  0  0  0  0
  -27.4565  -30.6730   20.0153 O   0  0  0  0  0  0  0  0  0  0  0  0
  -24.5832  -30.6374   22.9877 O   0  0  0  0  0  0  0  0  0  0  0  0
  -26.2785  -26.4987   24.5744 O   0  0  0  0  0  0  0  0  0  0  0  0
  -31.3801  -16.2212   20.0182 O   0  0  0  0  0  0  0  0  0  0  0  0
  -22.6546   -7.0859   23.2394 O   0  0  0  0  0  0  0  0  0  0  0  0
  -28.9507  -24.9103   18.5173 O   0  0  0  0  0  0  0  0  0  1  0  0
  -29.0414  -22.2798   19.4843 O   0  0  0  0  0  0  0  0  0  0  0  0
  -24.0058   -2.3234   20.8111 F   0  0  0  0  0  0  0  0  0  0  0  0
  -20.7131   -5.4532   22.1407 F   0  0  0  0  0  0  0  0  0  0  0  0
  1  2  1  0  0  0  0
  1  5  2  0  0  0  0
  2  6  2  0  0  0  0
  3  9  2  0  0  0  0
  3 18  1  0  0  0  0
  4 10  1  0  0  0  0
  4 18  2  0  0  0  0
  5 20  1  0  0  0  0
  6 22  1  0  0  0  0
  7 11  2  0  0  0  0
  7 21  1  0  0  0  0
  8 12  2  0  0  0  0
  8 25  1  0  0  0  0
  9 26  1  0  0  0  0
 10 26  2  0  0  0  0
 11 27  1  0  0  0  0
 12 28  1  0  0  0  0
 13 14  2  0  0  0  0
 13 29  1  0  0  0  0
 14 30  1  0  0  0  0
 15 23  1  0  0  0  0
 15 27  2  0  0  0  0
 16 24  1  0  0  0  0
 16 25  2  0  0  0  0
 17 30  2  0  0  0  0
 17 31  1  0  0  0  0
 18 32  1  0  0  0  0
 19 32  1  0  0  0  0
 19 33  2  0  0  0  0
 19 34  1  0  0  0  0
 20 22  2  0  0  0  0
 20 39  1  0  0  0  0
 21 23  2  0  0  0  0
 21 40  1  0  0  0  0
 22 48  1  0  0  0  0
 23 41  1  0  0  0  0
 24 28  2  0  0  0  0
 24 63  1  0  0  0  0
 25 71  1  0  0  0  0
 26 80  1  0  0  0  0
 27 81  1  0  0  0  0
 28 82  1  0  0  0  0
 29 31  2  0  0  0  0
 29 80  1  0  0  0  0
 30 83  1  0  0  0  0
 31 84  1  0  0  0  0
 32 65  2  0  0  0  0
 33 66  1  0  0  0  0
 33 69  1  0  0  0  0
 34 70  1  0  0  0  0
 34 75  2  0  0  0  0
 35 49  1  0  0  0  0
 35 72  1  0  0  0  0
 35 76  2  0  0  0  0
 36 61  1  0  0  0  0
 36 67  1  0  0  0  0
 36 77  2  0  0  0  0
 37 62  1  0  0  0  0
 37 73  1  0  0  0  0
 37 78  2  0  0  0  0
 38 68  1  0  0  0  0
 38 71  1  0  0  0  0
 38 79  2  0  0  0  0
 39 42  1  0  0  0  0
 40 49  1  0  0  0  0
 41 67  1  0  0  0  0
 42 44  1  0  0  0  0
 43 45  1  0  0  0  0
 43 46  1  0  0  0  0
 44 48  1  0  0  0  0
 45 50  1  0  0  0  0
 46 68  1  0  0  0  0
 47 50  1  0  0  0  0
 47 68  1  0  0  0  0
 48 72  1  0  0  0  0
 49 67  1  0  0  0  0
 50 66  1  0  0  0  0
 51 62  1  0  0  0  0
 52 63  1  0  0  0  0
 53 63  1  0  0  0  0
 54 63  1  0  0  0  0
 55 64  1  0  0  0  0
 56 64  1  0  0  0  0
 57 64  1  0  0  0  0
 58 74  1  0  0  0  0
 59 60  1  0  0  0  0
 59 81  1  0  0  0  0
 60 82  1  0  0  0  0
 61 64  1  0  0  0  0
 61 73  1  0  0  0  0
 62 74  1  0  0  0  0
 65 66  1  0  0  0  0
M  CHG  1  74   1
M  ISO  4  38 100  59 101  71 100  81 101
M  END
> <Batch ID>
0001

> <Smiles>
CNC(C)C(=O)NC(C(=O)N1Cc2cc([101O:1][101CH2:1]COc3ccc([100NH:0][100C:0](=O)N4CCCC(n5nc(-c6ccc(Oc7ccc(F)cc7F)cc6)c(C(N)=O)c5N)C4)cc3C(C)(C)C)ccc2CC1C(=O)NC1CCCc2ccccc21)C(C)(C)C

> <Shape>
0.304

> <Color>
0.158

> <Negative vol penalty>
0.000

$$$$

  -OEChem-04042320143D

 80 88  0     1  0  0  0  0  0999 V2000
  -30.4986  -26.5607    8.3086 C   0  0  0  0  0  0  0  0  0  0  0  0
  -30.3226  -25.5545    9.2531 C   0  0  0  0  0  0  0  0  0  0  0  0
  -22.9864   -9.9071   19.9846 C   0  0  0  0  0  0  0  0  0  0  0  0
  -23.7196   -9.9489   22.2863 C   0  0  0  0  0  0  0  0  0  0  0  0
  -31.3779  -19.3183   19.1088 C   0  0  0  0  0  0  0  0  0  0  0  0
  -29.1591  -19.6267   20.0138 C   0  0  0  0  0  0  0  0  0  0  0  0
  -30.8783  -27.8389    8.7159 C   0  0  0  0  0  0  0  0  0  0  0  0
  -30.5274  -25.8257   10.6055 C   0  0  0  0  0  0  0  0  0  0  0  0
  -27.4715  -23.4347   15.3436 C   0  0  0  0  0  0  0  0  0  0  0  0
  -31.6031  -18.2816   20.0143 C   0  0  0  0  0  0  0  0  0  0  0  0
  -29.3844  -18.5899   20.9193 C   0  0  0  0  0  0  0  0  0  0  0  0
  -22.2152   -8.7758   20.2508 C   0  0  0  0  0  0  0  0  0  0  0  0
  -22.9483   -8.8176   22.5525 C   0  0  0  0  0  0  0  0  0  0  0  0
  -27.7648  -22.3886   16.2173 C   0  0  0  0  0  0  0  0  0  0  0  0
  -23.1744   -5.4786   22.0717 C   0  0  0  0  0  0  0  0  0  0  0  0
  -23.7594   -4.4567   22.8194 C   0  0  0  0  0  0  0  0  0  0  0  0
  -28.6360  -23.9739   17.8133 C   0  0  0  0  0  0  0  0  0  0  0  0
  -22.0424   -4.7041   24.5010 C   0  0  0  0  0  0  0  0  0  0  0  0
  -23.7387  -10.4936   21.0023 C   0  0  0  0  0  0  0  0  0  0  0  0
  -30.1558  -19.9909   19.1085 C   0  0  0  0  0  0  0  0  0  0  0  0
  -24.1359  -13.0077   20.8310 C   0  0  0  0  0  0  0  0  0  0  0  0
  -31.0784  -28.1284   10.0749 C   0  0  0  0  0  0  0  0  0  0  0  0
  -27.7686  -24.7595   15.6943 C   0  0  0  0  0  0  0  0  0  0  0  0
  -30.9115  -27.1087   11.0312 C   0  0  0  0  0  0  0  0  0  0  0  0
  -28.3430  -25.0352   16.9433 C   0  0  0  0  0  0  0  0  0  0  0  0
  -30.6064  -17.9173   20.9196 C   0  0  0  0  0  0  0  0  0  0  0  0
  -22.1961   -8.2310   21.5347 C   0  0  0  0  0  0  0  0  0  0  0  0
  -28.3498  -22.6578   17.4512 C   0  0  0  0  0  0  0  0  0  0  0  0
  -22.0234   -6.1134   22.5387 C   0  0  0  0  0  0  0  0  0  0  0  0
  -23.1934   -4.0694   24.0340 C   0  0  0  0  0  0  0  0  0  0  0  0
  -21.4574   -5.7261   23.7534 C   0  0  0  0  0  0  0  0  0  0  0  0
  -24.5361  -11.6619   20.7278 C   0  0  0  0  0  0  0  0  0  0  0  0
  -25.2481  -13.7256   20.4646 C   0  0  0  0  0  0  0  0  0  0  0  0
  -22.8720  -13.5595   21.2232 C   0  0  0  0  0  0  0  0  0  0  0  0
  -29.9146  -21.0949   18.1442 C   0  0  0  0  0  0  0  0  0  1  0  0
  -29.6527  -27.0262   14.5043 C   0  0  0  0  0  0  0  0  0  0  0  0
  -28.2331  -28.8547   16.7765 C   0  0  0  0  0  0  0  0  0  0  0  0
  -26.5878  -29.0062   19.7627 C   0  0  0  0  0  0  0  0  0  0  0  0
  -30.7498  -14.6323   20.6968 C   0  0  0  0  0  0  0  0  0  0  0  0
  -31.5343  -29.5128   10.4627 C   0  0  0  0  0  0  0  0  0  0  0  0
  -27.4214  -25.8791   14.7517 C   0  0  0  0  0  0  0  0  0  0  0  0
  -28.6631  -26.4420   17.3758 C   0  0  0  0  0  0  0  0  0  0  0  0
  -31.3670  -29.8149   11.9497 C   0  0  0  0  0  0  0  0  0  0  0  0
  -29.5892  -12.2200   18.3494 C   0  0  0  0  0  0  0  0  0  0  0  0
  -31.8882  -28.6550   12.7921 C   0  0  0  0  0  0  0  0  0  0  0  0
  -28.1408  -11.9665   18.7712 C   0  0  0  0  0  0  0  0  0  0  0  0
  -30.4968  -12.4480   19.5561 C   0  0  0  0  0  0  0  0  0  0  0  0
  -28.5952  -13.2498   20.9033 C   0  0  0  0  0  0  0  0  0  0  0  0
  -31.1000  -27.3703   12.5098 C   0  0  1  0  0  0  0  0  0  0  0  0
  -28.2387  -27.1433   14.9987 C   0  0  1  0  0  0  0  0  0  0  0  0
  -27.6313  -13.0697   19.7181 C   0  0  2  0  0  0  0  0  0  0  0  0
  -25.5890  -30.6439   21.3806 C   0  0  0  0  0  0  0  0  0  0  0  0
  -31.0287  -29.5939   17.7504 C   0  0  0  0  0  0  0  0  0  0  0  0
  -29.9943  -30.4192   19.8757 C   0  0  0  0  0  0  0  0  0  0  0  0
  -29.4038  -31.4944   17.7037 C   0  0  0  0  0  0  0  0  0  0  0  0
  -23.8852  -27.8402   19.4538 C   0  0  0  0  0  0  0  0  0  0  0  0
  -30.8474  -16.8079   21.8869 C   0  0  0  0  0  0  0  0  0  0  0  0
  -28.5239  -29.1815   18.2214 C   0  0  1  0  0  0  0  0  0  0  0  0
  -25.3291  -29.7434   20.1830 C   0  0  2  0  0  0  0  0  0  0  0  0
  -29.7335  -30.1455   18.3791 C   0  0  0  0  0  0  0  0  0  0  0  0
  -25.8034  -11.5301   20.3270 N   0  0  0  0  0  0  0  0  0  0  0  0
  -26.2092  -12.8022   20.1751 N   0  0  0  0  0  0  0  0  0  0  0  0
  -28.3106  -27.5018   16.4167 N   0  0  0  0  0  0  0  0  0  0  0  0
  -29.9582  -13.5073   20.4126 N   0  0  0  0  0  0  0  0  0  0  0  0
  -25.4878  -15.0504   20.3650 N   0  0  0  0  0  0  0  0  0  0  0  0
  -21.8370  -12.6796   21.5681 N   0  0  0  0  0  0  0  0  0  0  0  0
  -29.8207  -27.4034   13.1856 N   0  0  0  0  0  0  0  0  0  0  0  0
  -27.2774  -29.6899   18.7837 N   0  0  0  0  0  0  0  0  0  0  0  0
  -30.1610  -15.5921   21.5110 N   0  0  0  0  0  0  0  0  0  0  0  0
  -24.2582  -28.7735   20.5479 N   0  3  0  0  0  0  0  0  0  0  0  0
  -22.6615  -14.7958   21.2506 O   0  0  0  0  0  0  0  0  0  0  0  0
  -30.7449  -21.4619   17.3263 O   0  0  0  0  0  0  0  0  0  0  0  0
  -30.5270  -26.6247   15.2634 O   0  0  0  0  0  0  0  0  0  0  0  0
  -27.9408  -29.7654   15.9975 O   0  0  0  0  0  0  0  0  0  0  0  0
  -26.9275  -27.9331   20.2562 O   0  0  0  0  0  0  0  0  0  0  0  0
  -31.8945  -14.7736   20.2532 O   0  0  0  0  0  0  0  0  0  0  0  0
  -21.4434   -7.1272   21.7949 O   0  0  0  0  0  0  0  0  0  0  0  0
  -28.6379  -21.6386   18.3056 O   0  0  0  0  0  0  0  0  0  1  0  0
  -23.7544   -3.0870   24.7512 F   0  0  0  0  0  0  0  0  0  0  0  0
  -20.3511   -6.3314   24.2066 F   0  0  0  0  0  0  0  0  0  0  0  0
  1  2  1  0  0  0  0
  1  7  2  0  0  0  0
  2  8  2  0  0  0  0
  3 12  2  0  0  0  0
  3 19  1  0  0  0  0
  4 13  1  0  0  0  0
  4 19  2  0  0  0  0
  5 10  2  0  0  0  0
  5 20  1  0  0  0  0
  6 11  1  0  0  0  0
  6 20  2  0  0  0  0
  7 22  1  0  0  0  0
  8 24  1  0  0  0  0
  9 14  2  0  0  0  0
  9 23  1  0  0  0  0
 10 26  1  0  0  0  0
 11 26  2  0  0  0  0
 12 27  1  0  0  0  0
 13 27  2  0  0  0  0
 14 28  1  0  0  0  0
 15 16  2  0  0  0  0
 15 29  1  0  0  0  0
 16 30  1  0  0  0  0
 17 25  1  0  0  0  0
 17 28  2  0  0  0  0
 18 30  2  0  0  0  0
 18 31  1  0  0  0  0
 19 32  1  0  0  0  0
 20 35  1  0  0  0  0
 21 32  1  0  0  0  0
 21 33  2  0  0  0  0
 21 34  1  0  0  0  0
 22 24  2  0  0  0  0
 22 40  1  0  0  0  0
 23 25  2  0  0  0  0
 23 41  1  0  0  0  0
 24 49  1  0  0  0  0
 25 42  1  0  0  0  0
 26 57  1  0  0  0  0
 27 77  1  0  0  0  0
 28 78  1  0  0  0  0
 29 31  2  0  0  0  0
 29 77  1  0  0  0  0
 30 79  1  0  0  0  0
 31 80  1  0  0  0  0
 32 61  2  0  0  0  0
 33 62  1  0  0  0  0
 33 65  1  0  0  0  0
 34 66  1  0  0  0  0
 34 71  2  0  0  0  0
 35 72  2  0  0  0  0
 35 78  1  0  0  0  0
 36 50  1  0  0  0  0
 36 67  1  0  0  0  0
 36 73  2  0  0  0  0
 37 58  1  0  0  0  0
 37 63  1  0  0  0  0
 37 74  2  0  0  0  0
 38 59  1  0  0  0  0
 38 68  1  0  0  0  0
 38 75  2  0  0  0  0
 39 64  1  0  0  0  0
 39 69  1  0  0  0  0
 39 76  2  0  0  0  0
 40 43  1  0  0  0  0
 41 50  1  0  0  0  0
 42 63  1  0  0  0  0
 43 45  1  0  0  0  0
 44 46  1  0  0  0  0
 44 47  1  0  0  0  0
 45 49  1  0  0  0  0
 46 51  1  0  0  0  0
 47 64  1  0  0  0  0
 48 51  1  0  0  0  0
 48 64  1  0  0  0  0
 49 67  1  0  0  0  0
 50 63  1  0  0  0  0
 51 62  1  0  0  0  0
 52 59  1  0  0  0  0
 53 60  1  0  0  0  0
 54 60  1  0  0  0  0
 55 60  1  0  0  0  0
 56 70  1  0  0  0  0
 57 69  1  0  0  0  0
 58 60  1  0  0  0  0
 58 68  1  0  0  0  0
 59 70  1  0  0  0  0
 61 62  1  0  0  0  0
M  CHG  1  70   1
M  ISO  4  35 101  39 100  69 100  78 101
M  END
> <Batch ID>
0001

> <Smiles>
CNC(C)C(=O)NC(C(=O)N1Cc2cc([101O:1][101C:1](=O)c3ccc(C[100NH:0][100C:0](=O)N4CCCC(n5nc(-c6ccc(Oc7ccc(F)cc7F)cc6)c(C(N)=O)c5N)C4)cc3)ccc2CC1C(=O)NC1CCCc2ccccc21)C(C)(C)C

> <Shape>
0.255

> <Color>
0.207

> <Negative vol penalty>
0.000

$$$$

  -OEChem-04042320143D

 87 95  0     1  0  0  0  0  0999 V2000
  -37.3267  -29.1190   13.7303 C   0  0  0  0  0  0  0  0  0  0  0  0
  -37.7329  -28.0103   14.4659 C   0  0  0  0  0  0  0  0  0  0  0  0
  -23.0359   -9.8875   19.8999 C   0  0  0  0  0  0  0  0  0  0  0  0
  -23.8203   -9.8040   22.1834 C   0  0  0  0  0  0  0  0  0  0  0  0
  -31.9827  -18.1173   24.3533 C   0  0  0  0  0  0  0  0  0  0  0  0
  -36.3737  -29.9911   14.2547 C   0  0  0  0  0  0  0  0  0  0  0  0
  -37.1870  -27.7736   15.7270 C   0  0  0  0  0  0  0  0  0  0  0  0
  -35.9954  -22.3264   18.2596 C   0  0  0  0  0  0  0  0  0  0  0  0
  -30.5940  -18.1333   24.2245 C   0  0  0  0  0  0  0  0  0  0  0  0
  -22.2826   -8.7337   20.1164 C   0  0  0  0  0  0  0  0  0  0  0  0
  -23.0670   -8.6502   22.4001 C   0  0  0  0  0  0  0  0  0  0  0  0
  -36.6970  -21.5445   19.1762 C   0  0  0  0  0  0  0  0  0  0  0  0
  -19.3418   -7.9154   21.5707 C   0  0  0  0  0  0  0  0  0  0  0  0
  -18.0294   -7.9000   21.0986 C   0  0  0  0  0  0  0  0  0  0  0  0
  -32.1226  -16.4245   22.6351 C   0  0  0  0  0  0  0  0  0  0  0  0
  -35.3693  -22.4643   20.9679 C   0  0  0  0  0  0  0  0  0  0  0  0
  -18.5543   -6.0003   19.7013 C   0  0  0  0  0  0  0  0  0  0  0  0
  -23.8049  -10.4226   20.9334 C   0  0  0  0  0  0  0  0  0  0  0  0
  -32.7471  -17.2629   23.5586 C   0  0  0  0  0  0  0  0  0  0  0  0
  -24.1721  -12.9468   20.9004 C   0  0  0  0  0  0  0  0  0  0  0  0
  -35.8087  -29.7597   15.5188 C   0  0  0  0  0  0  0  0  0  0  0  0
  -34.9811  -23.1926   18.6923 C   0  0  0  0  0  0  0  0  0  0  0  0
  -36.2264  -28.6441   16.2694 C   0  0  0  0  0  0  0  0  0  0  0  0
  -34.6545  -23.2542   20.0545 C   0  0  0  0  0  0  0  0  0  0  0  0
  -29.9695  -17.2949   23.3010 C   0  0  0  0  0  0  0  0  0  0  0  0
  -30.7338  -16.4405   22.5063 C   0  0  0  0  0  0  0  0  0  0  0  0
  -22.2981   -8.1151   21.3665 C   0  0  0  0  0  0  0  0  0  0  0  0
  -36.3859  -21.6155   20.5309 C   0  0  0  0  0  0  0  0  0  0  0  0
  -20.2605   -6.9733   21.1080 C   0  0  0  0  0  0  0  0  0  0  0  0
  -17.6356   -6.9425   20.1639 C   0  0  0  0  0  0  0  0  0  0  0  0
  -19.8668   -6.0157   20.1734 C   0  0  0  0  0  0  0  0  0  0  0  0
  -24.5837  -11.6141   20.7101 C   0  0  0  0  0  0  0  0  0  0  0  0
  -25.2682  -13.6978   20.5522 C   0  0  0  0  0  0  0  0  0  0  0  0
  -34.2263  -17.2471   23.6961 C   0  0  0  0  0  0  0  0  0  0  0  0
  -22.9117  -13.4601   21.3516 C   0  0  0  0  0  0  0  0  0  0  0  0
  -34.5281  -26.3376   18.6036 C   0  0  0  0  0  0  0  0  0  0  0  0
  -31.6132  -25.5589   19.7951 C   0  0  0  0  0  0  0  0  0  0  0  0
  -29.6870  -23.3233   21.5094 C   0  0  0  0  0  0  0  0  0  0  0  0
  -30.7467  -14.6806   20.7038 C   0  0  0  0  0  0  0  0  0  0  0  0
  -34.8166  -30.7562   16.0640 C   0  0  0  0  0  0  0  0  0  0  0  0
  -34.2156  -24.0096   17.6878 C   0  0  0  0  0  0  0  0  0  0  0  0
  -33.5605  -24.1531   20.5679 C   0  0  0  0  0  0  0  0  0  0  0  0
  -34.0117  -30.2286   17.2489 C   0  0  0  0  0  0  0  0  0  0  0  0
  -29.5815  -12.3652   18.2628 C   0  0  0  0  0  0  0  0  0  0  0  0
  -34.9309  -29.5469   18.2575 C   0  0  0  0  0  0  0  0  0  0  0  0
  -28.1435  -12.0730   18.6976 C   0  0  0  0  0  0  0  0  0  0  0  0
  -30.5118  -12.5412   19.4617 C   0  0  0  0  0  0  0  0  0  0  0  0
  -28.6275  -13.2348   20.8891 C   0  0  0  0  0  0  0  0  0  0  0  0
  -35.6392  -28.3400   17.6306 C   0  0  1  0  0  0  0  0  0  0  0  0
  -33.5499  -25.2383   18.2997 C   0  0  1  0  0  0  0  0  0  0  0  0
  -27.6403  -13.1141   19.7167 C   0  0  2  0  0  0  0  0  0  0  0  0
  -27.6115  -22.3075   22.4880 C   0  0  0  0  0  0  0  0  0  0  0  0
  -27.8643  -18.3644   24.1787 C   0  0  0  0  0  0  0  0  0  0  0  0
  -27.8554  -15.9397   23.5030 C   0  0  0  0  0  0  0  0  0  0  0  0
  -27.9288  -17.7270   21.7763 C   0  0  0  0  0  0  0  0  0  0  0  0
  -32.1468  -27.5385   22.0548 C   0  0  0  0  0  0  0  0  0  0  0  0
  -30.2752  -26.4759   23.3339 C   0  0  0  0  0  0  0  0  0  0  0  0
  -29.8158  -27.5913   21.1504 C   0  0  0  0  0  0  0  0  0  0  0  0
  -29.1061  -21.8286   19.0220 C   0  0  0  0  0  0  0  0  0  0  0  0
  -36.9074  -19.0915   23.0483 C   0  0  0  0  0  0  0  0  0  0  0  0
  -36.2319  -18.5722   24.3104 C   0  0  0  0  0  0  0  0  0  0  0  0
  -36.3676  -20.4445   22.6008 C   0  0  0  0  0  0  0  0  0  1  0  0
  -31.0375  -25.3780   21.1789 C   0  0  1  0  0  0  0  0  0  0  0  0
  -28.3191  -22.7361   21.2119 C   0  0  2  0  0  0  0  0  0  0  0  0
  -28.4802  -17.3325   23.1853 C   0  0  0  0  0  0  0  0  0  0  0  0
  -30.8408  -26.7303   21.9204 C   0  0  0  0  0  0  0  0  0  0  0  0
  -25.8429  -11.5205   20.2746 N   0  0  0  0  0  0  0  0  0  0  0  0
  -26.2320  -12.8040   20.1884 N   0  0  0  0  0  0  0  0  0  0  0  0
  -32.8451  -24.9369   19.5474 N   0  0  0  0  0  0  0  0  0  0  0  0
  -29.9732  -13.5454   20.3817 N   0  0  0  0  0  0  0  0  0  0  0  0
  -25.4919  -15.0288   20.5248 N   0  0  0  0  0  0  0  0  0  0  0  0
  -21.8939  -12.5498   21.6672 N   0  0  0  0  0  0  0  0  0  0  0  0
  -30.1179  -15.5821   21.5621 N   0  0  0  0  0  0  0  0  0  0  0  0
  -34.8120  -18.4239   24.1490 N   0  0  0  0  0  0  0  0  0  0  0  0
  -34.7386  -27.2098   17.5527 N   0  0  0  0  0  0  0  0  0  0  0  0
  -29.8121  -24.6037   21.0131 N   0  0  0  0  0  0  0  0  0  0  0  0
  -28.4482  -21.5464   20.3237 N   0  3  0  0  0  0  0  0  0  0  0  0
  -34.8463  -16.2313   23.3924 O   0  0  0  0  0  0  0  0  0  0  0  0
  -22.6891  -14.6902   21.4558 O   0  0  0  0  0  0  0  0  0  0  0  0
  -35.0519  -26.3914   19.7101 O   0  0  0  0  0  0  0  0  0  0  0  0
  -30.9894  -26.2215   18.9624 O   0  0  0  0  0  0  0  0  0  0  0  0
  -30.5562  -22.7092   22.1241 O   0  0  0  0  0  0  0  0  0  0  0  0
  -31.8724  -14.8546   20.2301 O   0  0  0  0  0  0  0  0  0  0  0  0
  -21.5629   -6.9894   21.5783 O   0  0  0  0  0  0  0  0  0  0  0  0
  -37.0696  -20.8539   21.4278 O   0  0  0  0  0  0  0  0  0  1  0  0
  -16.3748   -6.9268   19.7118 F   0  0  0  0  0  0  0  0  0  0  0  0
  -20.7446   -5.1073   19.7261 F   0  0  0  0  0  0  0  0  0  0  0  0
  1  2  1  0  0  0  0
  1  6  2  0  0  0  0
  2  7  2  0  0  0  0
  3 10  2  0  0  0  0
  3 18  1  0  0  0  0
  4 11  1  0  0  0  0
  4 18  2  0  0  0  0
  5  9  2  0  0  0  0
  5 19  1  0  0  0  0
  6 21  1  0  0  0  0
  7 23  1  0  0  0  0
  8 12  2  0  0  0  0
  8 22  1  0  0  0  0
  9 25  1  0  0  0  0
 10 27  1  0  0  0  0
 11 27  2  0  0  0  0
 12 28  1  0  0  0  0
 13 14  2  0  0  0  0
 13 29  1  0  0  0  0
 14 30  1  0  0  0  0
 15 19  2  0  0  0  0
 15 26  1  0  0  0  0
 16 24  1  0  0  0  0
 16 28  2  0  0  0  0
 17 30  2  0  0  0  0
 17 31  1  0  0  0  0
 18 32  1  0  0  0  0
 19 34  1  0  0  0  0
 20 32  1  0  0  0  0
 20 33  2  0  0  0  0
 20 35  1  0  0  0  0
 21 23  2  0  0  0  0
 21 40  1  0  0  0  0
 22 24  2  0  0  0  0
 22 41  1  0  0  0  0
 23 49  1  0  0  0  0
 24 42  1  0  0  0  0
 25 26  2  0  0  0  0
 25 65  1  0  0  0  0
 26 73  1  0  0  0  0
 27 84  1  0  0  0  0
 28 85  1  0  0  0  0
 29 31  2  0  0  0  0
 29 84  1  0  0  0  0
 30 86  1  0  0  0  0
 31 87  1  0  0  0  0
 32 67  2  0  0  0  0
 33 68  1  0  0  0  0
 33 71  1  0  0  0  0
 34 74  1  0  0  0  0
 34 78  2  0  0  0  0
 35 72  1  0  0  0  0
 35 79  2  0  0  0  0
 36 50  1  0  0  0  0
 36 75  1  0  0  0  0
 36 80  2  0  0  0  0
 37 63  1  0  0  0  0
 37 69  1  0  0  0  0
 37 81  2  0  0  0  0
 38 64  1  0  0  0  0
 38 76  1  0  0  0  0
 38 82  2  0  0  0  0
 39 70  1  0  0  0  0
 39 73  1  0  0  0  0
 39 83  2  0  0  0  0
 40 43  1  0  0  0  0
 41 50  1  0  0  0  0
 42 69  1  0  0  0  0
 43 45  1  0  0  0  0
 44 46  1  0  0  0  0
 44 47  1  0  0  0  0
 45 49  1  0  0  0  0
 46 51  1  0  0  0  0
 47 70  1  0  0  0  0
 48 51  1  0  0  0  0
 48 70  1  0  0  0  0
 49 75  1  0  0  0  0
 50 69  1  0  0  0  0
 51 68  1  0  0  0  0
 52 64  1  0  0  0  0
 53 65  1  0  0  0  0
 54 65  1  0  0  0  0
 55 65  1  0  0  0  0
 56 66  1  0  0  0  0
 57 66  1  0  0  0  0
 58 66  1  0  0  0  0
 59 77  1  0  0  0  0
 60 61  1  0  0  0  0
 60 62  1  0  0  0  0
 61 74  1  0  0  0  0
 62 85  1  0  0  0  0
 63 66  1  0  0  0  0
 63 76  1  0  0  0  0
 64 77  1  0  0  0  0
 67 68  1  0  0  0  0
M  CHG  1  77   1
M  ISO  4  39 100  62 101  73 100  85 101
M  END
> <Batch ID>
0001

> <Smiles>
CNC(C)C(=O)NC(C(=O)N1Cc2cc([101O:1][101CH2:1]CCNC(=O)c3ccc(C(C)(C)C)c([100NH:0][100C:0](=O)N4CCCC(n5nc(-c6ccc(Oc7ccc(F)cc7F)cc6)c(C(N)=O)c5N)C4)c3)ccc2CC1C(=O)NC1CCCc2ccccc21)C(C)(C)C

> <Shape>
0.201

> <Color>
0.194

> <Negative vol penalty>
0.000

$$$$

  -OEChem-04042320143D

 79 87  0     1  0  0  0  0  0999 V2000
  -31.0446  -35.2860   23.2217 C   0  0  0  0  0  0  0  0  0  0  0  0
  -30.9457  -34.1509   22.4235 C   0  0  0  0  0  0  0  0  0  0  0  0
  -27.7225  -22.3493   16.8191 C   0  0  0  0  0  0  0  0  0  0  0  0
  -26.4406  -12.7932   21.6337 C   0  0  0  0  0  0  0  0  0  0  0  0
  -25.9519  -13.7710   19.4791 C   0  0  0  0  0  0  0  0  0  0  0  0
  -27.5657  -23.6329   17.3420 C   0  0  0  0  0  0  0  0  0  0  0  0
  -30.2584  -35.4019   24.3673 C   0  0  0  0  0  0  0  0  0  0  0  0
  -30.0613  -33.1304   22.7711 C   0  0  0  0  0  0  0  0  0  0  0  0
  -26.8749  -29.5599   18.9495 C   0  0  0  0  0  0  0  0  0  0  0  0
  -28.2736  -21.3381   17.6062 C   0  0  0  0  0  0  0  0  0  0  0  0
  -25.2029  -12.1502   21.6227 C   0  0  0  0  0  0  0  0  0  0  0  0
  -24.7141  -13.1280   19.4681 C   0  0  0  0  0  0  0  0  0  0  0  0
  -27.0932  -28.2689   18.4706 C   0  0  0  0  0  0  0  0  0  0  0  0
  -23.8306   -9.4125   20.1892 C   0  0  0  0  0  0  0  0  0  0  0  0
  -23.7942   -8.0700   20.5657 C   0  0  0  0  0  0  0  0  0  0  0  0
  -28.5110  -22.8941   19.4391 C   0  0  0  0  0  0  0  0  0  0  0  0
  -25.6562  -27.3915   20.1982 C   0  0  0  0  0  0  0  0  0  0  0  0
  -22.2868   -8.6177   22.3726 C   0  0  0  0  0  0  0  0  0  0  0  0
  -26.8151  -13.6036   20.5619 C   0  0  0  0  0  0  0  0  0  0  0  0
  -27.9599  -23.9053   18.6520 C   0  0  0  0  0  0  0  0  0  0  0  0
  -29.3128  -13.7747   20.0720 C   0  0  0  0  0  0  0  0  0  0  0  0
  -29.3569  -34.3866   24.7239 C   0  0  0  0  0  0  0  0  0  0  0  0
  -26.0529  -29.7758   20.0649 C   0  0  0  0  0  0  0  0  0  0  0  0
  -29.2632  -33.2322   23.9233 C   0  0  0  0  0  0  0  0  0  0  0  0
  -25.4270  -28.6865   20.6877 C   0  0  0  0  0  0  0  0  0  0  0  0
  -28.6678  -21.6105   18.9162 C   0  0  0  0  0  0  0  0  0  0  0  0
  -24.3396  -12.3176   20.5399 C   0  0  0  0  0  0  0  0  0  0  0  0
  -26.4861  -27.1842   19.0967 C   0  0  0  0  0  0  0  0  0  0  0  0
  -23.0952  -10.3577   20.9044 C   0  0  0  0  0  0  0  0  0  0  0  0
  -23.0222   -7.6726   21.6574 C   0  0  0  0  0  0  0  0  0  0  0  0
  -22.3233   -9.9603   21.9961 C   0  0  0  0  0  0  0  0  0  0  0  0
  -28.0933  -14.2685   20.5729 C   0  0  0  0  0  0  0  0  0  0  0  0
  -30.2176  -14.7776   20.3209 C   0  0  0  0  0  0  0  0  0  0  0  0
  -29.6018  -12.5215   19.4382 C   0  0  0  0  0  0  0  0  0  0  0  0
  -27.7922  -25.2728   19.2076 C   0  0  0  0  0  0  0  0  0  1  0  0
  -26.4888  -30.9848   22.9722 C   0  0  0  0  0  0  0  0  0  0  0  0
  -23.2709  -30.6312   23.1772 C   0  0  0  0  0  0  0  0  0  0  0  0
  -20.4569  -29.0333   22.0932 C   0  0  0  0  0  0  0  0  0  0  0  0
  -29.6701  -20.6850   21.0340 C   0  0  0  0  0  0  0  0  0  0  0  0
  -28.5623  -34.5356   25.9971 C   0  0  0  0  0  0  0  0  0  0  0  0
  -25.8062  -31.1770   20.5529 C   0  0  0  0  0  0  0  0  0  0  0  0
  -24.5194  -28.8666   21.8761 C   0  0  0  0  0  0  0  0  0  0  0  0
  -27.3782  -33.5768   26.0918 C   0  0  0  0  0  0  0  0  0  0  0  0
  -31.0728  -18.3806   23.3576 C   0  0  0  0  0  0  0  0  0  0  0  0
  -27.8030  -32.1639   25.7043 C   0  0  0  0  0  0  0  0  0  0  0  0
  -30.5839  -17.0191   22.8581 C   0  0  0  0  0  0  0  0  0  0  0  0
  -30.0143  -19.4663   23.1721 C   0  0  0  0  0  0  0  0  0  0  0  0
  -28.9870  -18.2208   21.3113 C   0  0  0  0  0  0  0  0  0  0  0  0
  -28.2976  -32.1149   24.2536 C   0  0  1  0  0  0  0  0  0  0  0  0
  -25.3608  -31.2323   22.0109 C   0  0  1  0  0  0  0  0  0  0  0  0
  -30.0429  -17.1085   21.4176 C   0  0  2  0  0  0  0  0  0  0  0  0
  -17.9786  -28.9320   22.4742 C   0  0  0  0  0  0  0  0  0  0  0  0
  -23.7333  -29.0591   25.7511 C   0  0  0  0  0  0  0  0  0  0  0  0
  -21.3899  -28.1979   25.5638 C   0  0  0  0  0  0  0  0  0  0  0  0
  -21.8003  -30.6440   25.8297 C   0  0  0  0  0  0  0  0  0  0  0  0
  -19.8783  -29.8474   19.3072 C   0  0  0  0  0  0  0  0  0  0  0  0
  -22.3430  -29.5284   23.6267 C   0  0  1  0  0  0  0  0  0  0  0  0
  -19.1004  -29.5623   21.6636 C   0  0  2  0  0  0  0  0  0  0  0  0
  -22.3352  -29.3534   25.1716 C   0  0  0  0  0  0  0  0  0  0  0  0
  -28.2094  -15.4901   21.1004 N   0  0  0  0  0  0  0  0  0  0  0  0
  -29.5126  -15.7723   20.9324 N   0  0  0  0  0  0  0  0  0  0  0  0
  -24.3146  -30.2554   22.3197 N   0  0  0  0  0  0  0  0  0  0  0  0
  -29.5517  -19.4950   21.7828 N   0  0  0  0  0  0  0  0  0  0  0  0
  -31.5394  -14.8969   20.0744 N   0  0  0  0  0  0  0  0  0  0  0  0
  -28.5558  -11.6057   19.2606 N   0  0  0  0  0  0  0  0  0  0  0  0
  -29.2273  -20.5831   19.7156 N   0  0  0  0  0  0  0  0  0  0  0  0
  -27.1776  -32.1258   23.3372 N   0  0  0  0  0  0  0  0  0  0  0  0
  -21.0369  -29.8349   23.0535 N   0  0  0  0  0  0  0  0  0  0  0  0
  -18.8620  -29.2671   20.2224 N   0  3  0  0  0  0  0  0  0  0  0  0
  -30.7568  -12.2161   19.0558 O   0  0  0  0  0  0  0  0  0  0  0  0
  -28.5301  -25.7435   20.0602 O   0  0  0  0  0  0  0  0  0  0  0  0
  -26.7165  -29.8433   23.3555 O   0  0  0  0  0  0  0  0  0  0  0  0
  -23.0725  -31.7847   23.5667 O   0  0  0  0  0  0  0  0  0  0  0  0
  -20.9508  -28.0092   21.6264 O   0  0  0  0  0  0  0  0  0  0  0  0
  -30.1555  -21.7107   21.5180 O   0  0  0  0  0  0  0  0  0  0  0  0
  -23.1318  -11.6901   20.5288 O   0  0  0  0  0  0  0  0  0  0  0  0
  -26.6980  -25.9229   18.6316 O   0  0  0  0  0  0  0  0  0  1  0  0
  -22.9861   -6.3831   22.0180 F   0  0  0  0  0  0  0  0  0  0  0  0
  -21.6137  -10.8636   22.6863 F   0  0  0  0  0  0  0  0  0  0  0  0
  1  2  1  0  0  0  0
  1  7  2  0  0  0  0
  2  8  2  0  0  0  0
  3  6  2  0  0  0  0
  3 10  1  0  0  0  0
  4 11  2  0  0  0  0
  4 19  1  0  0  0  0
  5 12  1  0  0  0  0
  5 19  2  0  0  0  0
  6 20  1  0  0  0  0
  7 22  1  0  0  0  0
  8 24  1  0  0  0  0
  9 13  2  0  0  0  0
  9 23  1  0  0  0  0
 10 26  2  0  0  0  0
 11 27  1  0  0  0  0
 12 27  2  0  0  0  0
 13 28  1  0  0  0  0
 14 15  2  0  0  0  0
 14 29  1  0  0  0  0
 15 30  1  0  0  0  0
 16 20  2  0  0  0  0
 16 26  1  0  0  0  0
 17 25  1  0  0  0  0
 17 28  2  0  0  0  0
 18 30  2  0  0  0  0
 18 31  1  0  0  0  0
 19 32  1  0  0  0  0
 20 35  1  0  0  0  0
 21 32  1  0  0  0  0
 21 33  2  0  0  0  0
 21 34  1  0  0  0  0
 22 24  2  0  0  0  0
 22 40  1  0  0  0  0
 23 25  2  0  0  0  0
 23 41  1  0  0  0  0
 24 49  1  0  0  0  0
 25 42  1  0  0  0  0
 26 66  1  0  0  0  0
 27 76  1  0  0  0  0
 28 77  1  0  0  0  0
 29 31  2  0  0  0  0
 29 76  1  0  0  0  0
 30 78  1  0  0  0  0
 31 79  1  0  0  0  0
 32 60  2  0  0  0  0
 33 61  1  0  0  0  0
 33 64  1  0  0  0  0
 34 65  1  0  0  0  0
 34 70  2  0  0  0  0
 35 71  2  0  0  0  0
 35 77  1  0  0  0  0
 36 50  1  0  0  0  0
 36 67  1  0  0  0  0
 36 72  2  0  0  0  0
 37 57  1  0  0  0  0
 37 62  1  0  0  0  0
 37 73  2  0  0  0  0
 38 58  1  0  0  0  0
 38 68  1  0  0  0  0
 38 74  2  0  0  0  0
 39 63  1  0  0  0  0
 39 66  1  0  0  0  0
 39 75  2  0  0  0  0
 40 43  1  0  0  0  0
 41 50  1  0  0  0  0
 42 62  1  0  0  0  0
 43 45  1  0  0  0  0
 44 46  1  0  0  0  0
 44 47  1  0  0  0  0
 45 49  1  0  0  0  0
 46 51  1  0  0  0  0
 47 63  1  0  0  0  0
 48 51  1  0  0  0  0
 48 63  1  0  0  0  0
 49 67  1  0  0  0  0
 50 62  1  0  0  0  0
 51 61  1  0  0  0  0
 52 58  1  0  0  0  0
 53 59  1  0  0  0  0
 54 59  1  0  0  0  0
 55 59  1  0  0  0  0
 56 69  1  0  0  0  0
 57 59  1  0  0  0  0
 57 68  1  0  0  0  0
 58 69  1  0  0  0  0
 60 61  1  0  0  0  0
M  CHG  1  69   1
M  ISO  4  35 101  39 100  66 100  77 101
M  END
> <Batch ID>
0001

> <Smiles>
CNC(C)C(=O)NC(C(=O)N1Cc2cc([101O:1][101C:1](=O)c3cccc([100NH:0][100C:0](=O)N4CCCC(n5nc(-c6ccc(Oc7ccc(F)cc7F)cc6)c(C(N)=O)c5N)C4)c3)ccc2CC1C(=O)NC1CCCc2ccccc21)C(C)(C)C

> <Shape>
0.308

> <Color>
0.114

> <Negative vol penalty>
0.000

$$$$

  -OEChem-04042320143D

 79 87  0     1  0  0  0  0  0999 V2000
  -17.4802  -23.1131   24.9873 C   0  0  0  0  0  0  0  0  0  0  0  0
  -18.8266  -22.9147   24.6988 C   0  0  0  0  0  0  0  0  0  0  0  0
  -31.2477  -19.4820   19.1739 C   0  0  0  0  0  0  0  0  0  0  0  0
  -23.0743   -9.8691   19.9414 C   0  0  0  0  0  0  0  0  0  0  0  0
  -23.8387   -9.8740   22.2333 C   0  0  0  0  0  0  0  0  0  0  0  0
  -16.5195  -22.2592   24.4472 C   0  0  0  0  0  0  0  0  0  0  0  0
  -19.2132  -21.8614   23.8707 C   0  0  0  0  0  0  0  0  0  0  0  0
  -23.8641  -21.8265   19.8866 C   0  0  0  0  0  0  0  0  0  0  0  0
  -31.5069  -18.4283   20.0502 C   0  0  0  0  0  0  0  0  0  0  0  0
  -30.0125  -20.1292   19.2073 C   0  0  0  0  0  0  0  0  0  0  0  0
  -22.3316   -8.7152   20.1915 C   0  0  0  0  0  0  0  0  0  0  0  0
  -23.0959   -8.7201   22.4834 C   0  0  0  0  0  0  0  0  0  0  0  0
  -25.1647  -21.3308   19.9673 C   0  0  0  0  0  0  0  0  0  0  0  0
  -21.1153   -5.9803   23.8209 C   0  0  0  0  0  0  0  0  0  0  0  0
  -20.3613   -5.9350   24.9935 C   0  0  0  0  0  0  0  0  0  0  0  0
  -24.4524  -19.3012   18.8753 C   0  0  0  0  0  0  0  0  0  0  0  0
  -29.2957  -18.6688   20.9934 C   0  0  0  0  0  0  0  0  0  0  0  0
  -19.1141   -7.8723   24.2665 C   0  0  0  0  0  0  0  0  0  0  0  0
  -23.8279  -10.4484   20.9622 C   0  0  0  0  0  0  0  0  0  0  0  0
  -24.1680  -12.9739   20.8443 C   0  0  0  0  0  0  0  0  0  0  0  0
  -16.8936  -21.2008   23.6043 C   0  0  0  0  0  0  0  0  0  0  0  0
  -22.8439  -21.0575   19.3084 C   0  0  0  0  0  0  0  0  0  0  0  0
  -18.2566  -20.9917   23.3199 C   0  0  0  0  0  0  0  0  0  0  0  0
  -23.1403  -19.7905   18.7861 C   0  0  0  0  0  0  0  0  0  0  0  0
  -30.5309  -18.0216   20.9600 C   0  0  0  0  0  0  0  0  0  0  0  0
  -29.0365  -19.7226   20.1171 C   0  0  0  0  0  0  0  0  0  0  0  0
  -22.3424   -8.1407   21.4625 C   0  0  0  0  0  0  0  0  0  0  0  0
  -25.4584  -20.0668   19.4643 C   0  0  0  0  0  0  0  0  0  0  0  0
  -20.8687   -6.9717   22.8711 C   0  0  0  0  0  0  0  0  0  0  0  0
  -19.3607   -6.8809   25.2163 C   0  0  0  0  0  0  0  0  0  0  0  0
  -19.8682   -7.9177   23.0939 C   0  0  0  0  0  0  0  0  0  0  0  0
  -24.5957  -11.6401   20.7043 C   0  0  0  0  0  0  0  0  0  0  0  0
  -25.2589  -13.7245   20.4798 C   0  0  0  0  0  0  0  0  0  0  0  0
  -22.8980  -13.4885   21.2663 C   0  0  0  0  0  0  0  0  0  0  0  0
  -20.1084  -19.8154   20.3467 C   0  0  0  0  0  0  0  0  0  0  0  0
  -19.7350  -19.0210   17.2239 C   0  0  0  0  0  0  0  0  0  0  0  0
  -21.1893  -18.3748   14.2049 C   0  0  0  0  0  0  0  0  0  0  0  0
  -30.7424  -14.7466   20.6586 C   0  0  0  0  0  0  0  0  0  0  0  0
  -15.8233  -20.2754   23.0822 C   0  0  0  0  0  0  0  0  0  0  0  0
  -21.4518  -21.6175   19.2048 C   0  0  0  0  0  0  0  0  0  0  0  0
  -22.0852  -18.9335   18.1373 C   0  0  0  0  0  0  0  0  0  0  0  0
  -16.2841  -19.4098   21.9123 C   0  0  0  0  0  0  0  0  0  0  0  0
  -29.6016  -12.3640   18.2714 C   0  0  0  0  0  0  0  0  0  0  0  0
  -17.6464  -18.7914   22.2099 C   0  0  0  0  0  0  0  0  0  0  0  0
  -28.1652  -12.0690   18.7068 C   0  0  0  0  0  0  0  0  0  0  0  0
  -30.5210  -12.5841   19.4707 C   0  0  0  0  0  0  0  0  0  0  0  0
  -28.6215  -13.3125   20.8618 C   0  0  0  0  0  0  0  0  0  0  0  0
  -18.7133  -19.8753   22.4060 C   0  0  1  0  0  0  0  0  0  0  0  0
  -20.3831  -20.5387   19.0586 C   0  0  1  0  0  0  0  0  0  0  0  0
  -27.6451  -13.1386   19.6859 C   0  0  2  0  0  0  0  0  0  0  0  0
  -20.6289  -17.7163   11.8491 C   0  0  0  0  0  0  0  0  0  0  0  0
  -19.2731  -16.1473   18.1396 C   0  0  0  0  0  0  0  0  0  0  0  0
  -19.6676  -15.4060   15.7810 C   0  0  0  0  0  0  0  0  0  0  0  0
  -17.7531  -16.9157   16.3083 C   0  0  0  0  0  0  0  0  0  0  0  0
  -22.3314  -20.8763   13.1108 C   0  0  0  0  0  0  0  0  0  0  0  0
  -30.8094  -16.8958   21.8977 C   0  0  0  0  0  0  0  0  0  0  0  0
  -27.7076  -20.4183   20.1525 C   0  0  0  0  0  0  0  0  0  1  0  0
  -20.1084  -17.8326   16.3710 C   0  0  1  0  0  0  0  0  0  0  0  0
  -20.8713  -18.8727   12.8065 C   0  0  2  0  0  0  0  0  0  0  0  0
  -19.2203  -16.5905   16.6639 C   0  0  0  0  0  0  0  0  0  0  0  0
  -25.8598  -11.5454   20.2835 N   0  0  0  0  0  0  0  0  0  0  0  0
  -26.2357  -12.8294   20.1558 N   0  0  0  0  0  0  0  0  0  0  0  0
  -20.7379  -19.5226   18.0656 N   0  0  0  0  0  0  0  0  0  0  0  0
  -29.9715  -13.6113   20.3589 N   0  0  0  0  0  0  0  0  0  0  0  0
  -25.4684  -15.0561   20.4078 N   0  0  0  0  0  0  0  0  0  0  0  0
  -21.8873  -12.5783   21.6046 N   0  0  0  0  0  0  0  0  0  0  0  0
  -19.1341  -20.4073   21.1276 N   0  0  0  0  0  0  0  0  0  0  0  0
  -20.0568  -18.2912   14.9870 N   0  0  0  0  0  0  0  0  0  0  0  0
  -30.1444  -15.6741   21.5028 N   0  0  0  0  0  0  0  0  0  0  0  0
  -21.9997  -19.6910   12.2790 N   0  3  0  0  0  0  0  0  0  0  0  0
  -22.6611  -14.7189   21.3255 O   0  0  0  0  0  0  0  0  0  0  0  0
  -20.7332  -18.7950   20.6117 O   0  0  0  0  0  0  0  0  0  0  0  0
  -18.5977  -19.4914   17.1409 O   0  0  0  0  0  0  0  0  0  0  0  0
  -22.3278  -18.0853   14.5660 O   0  0  0  0  0  0  0  0  0  0  0  0
  -31.8774  -14.9233   20.2029 O   0  0  0  0  0  0  0  0  0  0  0  0
  -21.6176   -7.0149   21.7070 O   0  0  0  0  0  0  0  0  0  0  0  0
  -26.7269  -19.5802   19.5424 O   0  0  0  0  0  0  0  0  0  1  0  0
  -18.6357   -6.8363   26.3417 F   0  0  0  0  0  0  0  0  0  0  0  0
  -19.6259   -8.8717   22.1845 F   0  0  0  0  0  0  0  0  0  0  0  0
  1  2  1  0  0  0  0
  1  6  2  0  0  0  0
  2  7  2  0  0  0  0
  3  9  1  0  0  0  0
  3 10  2  0  0  0  0
  4 11  2  0  0  0  0
  4 19  1  0  0  0  0
  5 12  1  0  0  0  0
  5 19  2  0  0  0  0
  6 21  1  0  0  0  0
  7 23  1  0  0  0  0
  8 13  2  0  0  0  0
  8 22  1  0  0  0  0
  9 25  2  0  0  0  0
 10 26  1  0  0  0  0
 11 27  1  0  0  0  0
 12 27  2  0  0  0  0
 13 28  1  0  0  0  0
 14 15  2  0  0  0  0
 14 29  1  0  0  0  0
 15 30  1  0  0  0  0
 16 24  1  0  0  0  0
 16 28  2  0  0  0  0
 17 25  1  0  0  0  0
 17 26  2  0  0  0  0
 18 30  2  0  0  0  0
 18 31  1  0  0  0  0
 19 32  1  0  0  0  0
 20 32  1  0  0  0  0
 20 33  2  0  0  0  0
 20 34  1  0  0  0  0
 21 23  2  0  0  0  0
 21 39  1  0  0  0  0
 22 24  2  0  0  0  0
 22 40  1  0  0  0  0
 23 48  1  0  0  0  0
 24 41  1  0  0  0  0
 25 56  1  0  0  0  0
 26 57  1  0  0  0  0
 27 76  1  0  0  0  0
 28 77  1  0  0  0  0
 29 31  2  0  0  0  0
 29 76  1  0  0  0  0
 30 78  1  0  0  0  0
 31 79  1  0  0  0  0
 32 61  2  0  0  0  0
 33 62  1  0  0  0  0
 33 65  1  0  0  0  0
 34 66  1  0  0  0  0
 34 71  2  0  0  0  0
 35 49  1  0  0  0  0
 35 67  1  0  0  0  0
 35 72  2  0  0  0  0
 36 58  1  0  0  0  0
 36 63  1  0  0  0  0
 36 73  2  0  0  0  0
 37 59  1  0  0  0  0
 37 68  1  0  0  0  0
 37 74  2  0  0  0  0
 38 64  1  0  0  0  0
 38 69  1  0  0  0  0
 38 75  2  0  0  0  0
 39 42  1  0  0  0  0
 40 49  1  0  0  0  0
 41 63  1  0  0  0  0
 42 44  1  0  0  0  0
 43 45  1  0  0  0  0
 43 46  1  0  0  0  0
 44 48  1  0  0  0  0
 45 50  1  0  0  0  0
 46 64  1  0  0  0  0
 47 50  1  0  0  0  0
 47 64  1  0  0  0  0
 48 67  1  0  0  0  0
 49 63  1  0  0  0  0
 50 62  1  0  0  0  0
 51 59  1  0  0  0  0
 52 60  1  0  0  0  0
 53 60  1  0  0  0  0
 54 60  1  0  0  0  0
 55 70  1  0  0  0  0
 56 69  1  0  0  0  0
 57 77  1  0  0  0  0
 58 60  1  0  0  0  0
 58 68  1  0  0  0  0
 59 70  1  0  0  0  0
 61 62  1  0  0  0  0
M  CHG  1  70   1
M  ISO  4  38 100  57 101  69 100  77 101
M  END
> <Batch ID>
0001

> <Smiles>
CNC(C)C(=O)NC(C(=O)N1Cc2cc([101O:1][101CH2:1]c3cccc(C[100NH:0][100C:0](=O)N4CCCC(n5nc(-c6ccc(Oc7ccc(F)cc7F)cc6)c(C(N)=O)c5N)C4)c3)ccc2CC1C(=O)NC1CCCc2ccccc21)C(C)(C)C

> <Shape>
0.192

> <Color>
0.200

> <Negative vol penalty>
0.000

$$$$

  -OEChem-04042320143D

 73 80  0     1  0  0  0  0  0999 V2000
  -28.7807  -11.4027   19.8413 C   0  0  0  0  0  0  0  0  0  0  0  0
  -28.8747  -12.6791   19.2960 C   0  0  0  0  0  0  0  0  0  0  0  0
  -25.9114  -28.9143   20.8188 C   0  0  0  0  0  0  0  0  0  0  0  0
  -25.2447  -26.5922   20.8056 C   0  0  0  0  0  0  0  0  0  0  0  0
  -27.5741  -10.9659   20.3863 C   0  0  0  0  0  0  0  0  0  0  0  0
  -27.7616  -13.5191   19.2943 C   0  0  0  0  0  0  0  0  0  0  0  0
  -28.8908  -18.2435   20.7261 C   0  0  0  0  0  0  0  0  0  0  0  0
  -24.5811  -29.2972   20.6476 C   0  0  0  0  0  0  0  0  0  0  0  0
  -23.9144  -26.9751   20.6344 C   0  0  0  0  0  0  0  0  0  0  0  0
  -29.5037  -19.0657   19.7816 C   0  0  0  0  0  0  0  0  0  0  0  0
  -20.2991  -27.3512   20.5553 C   0  0  0  0  0  0  0  0  0  0  0  0
  -19.3346  -26.7145   21.3363 C   0  0  0  0  0  0  0  0  0  0  0  0
  -27.3782  -20.1087   19.3193 C   0  0  0  0  0  0  0  0  0  0  0  0
  -20.4277  -27.5133   23.3374 C   0  0  0  0  0  0  0  0  0  0  0  0
  -26.2432  -27.5618   20.8978 C   0  0  0  0  0  0  0  0  0  0  0  0
  -28.2943  -26.9641   22.2918 C   0  0  0  0  0  0  0  0  0  0  0  0
  -26.4483  -11.8044   20.4000 C   0  0  0  0  0  0  0  0  0  0  0  0
  -27.5128  -18.3403   20.9669 C   0  0  0  0  0  0  0  0  0  0  0  0
  -26.5384  -13.0925   19.8388 C   0  0  0  0  0  0  0  0  0  0  0  0
  -26.7507  -19.2883   20.2692 C   0  0  0  0  0  0  0  0  0  0  0  0
  -23.5826  -28.3276   20.5554 C   0  0  0  0  0  0  0  0  0  0  0  0
  -28.7469  -19.9965   19.0760 C   0  0  0  0  0  0  0  0  0  0  0  0
  -21.3280  -28.0688   21.1653 C   0  0  0  0  0  0  0  0  0  0  0  0
  -19.3988  -26.7956   22.7274 C   0  0  0  0  0  0  0  0  0  0  0  0
  -21.3923  -28.1499   22.5564 C   0  0  0  0  0  0  0  0  0  0  0  0
  -27.6173  -27.1656   21.0741 C   0  0  0  0  0  0  0  0  0  0  0  0
  -29.5659  -26.6003   21.9215 C   0  0  0  0  0  0  0  0  0  0  0  0
  -27.8165  -27.0941   23.6374 C   0  0  0  0  0  0  0  0  0  0  0  0
  -25.0394  -16.3661   20.6693 C   0  0  0  0  0  0  0  0  0  0  0  0
  -23.4301  -18.7916   22.1009 C   0  0  0  0  0  0  0  0  0  0  0  0
  -23.2352  -22.1273   22.7949 C   0  0  0  0  0  0  0  0  0  0  0  0
  -31.8053  -24.0606   16.9833 C   0  0  0  0  0  0  0  0  0  0  0  0
  -25.1525  -11.2708   20.9575 C   0  0  0  0  0  0  0  0  0  0  0  0
  -26.8716  -17.4645   22.0082 C   0  0  0  0  0  0  0  0  0  0  0  0
  -25.2716  -19.4460   20.5052 C   0  0  0  0  0  0  0  0  0  0  0  0
  -24.1234  -12.3586   21.2544 C   0  0  0  0  0  0  0  0  0  0  0  0
  -32.7528  -27.1859   18.4013 C   0  0  0  0  0  0  0  0  0  0  0  0
  -24.0228  -13.3319   20.0842 C   0  0  0  0  0  0  0  0  0  0  0  0
  -31.6052  -27.5169   19.3570 C   0  0  0  0  0  0  0  0  0  0  0  0
  -32.2517  -26.4924   17.1365 C   0  0  0  0  0  0  0  0  0  0  0  0
  -30.2768  -25.6255   18.3290 C   0  0  0  0  0  0  0  0  0  0  0  0
  -25.3600  -14.0420   19.8407 C   0  0  1  0  0  0  0  0  0  0  0  0
  -25.3693  -17.2948   21.8034 C   0  0  1  0  0  0  0  0  0  0  0  0
  -30.7390  -26.2758   19.6442 C   0  0  2  0  0  0  0  0  0  0  0  0
  -21.7856  -23.8170   23.9528 C   0  0  0  0  0  0  0  0  0  0  0  0
  -21.4554  -18.6861   19.7772 C   0  0  0  0  0  0  0  0  0  0  0  0
  -20.6243  -20.9432   20.4723 C   0  0  0  0  0  0  0  0  0  0  0  0
  -20.4056  -19.0030   22.0249 C   0  0  0  0  0  0  0  0  0  0  0  0
  -25.3980  -22.8660   24.6752 C   0  0  0  0  0  0  0  0  0  0  0  0
  -31.2354  -21.6456   16.9357 C   0  0  0  0  0  0  0  0  0  0  0  0
  -30.7465  -20.6355   17.9583 C   0  0  0  0  0  0  0  0  0  1  0  0
  -22.6870  -20.0136   21.6176 C   0  0  1  0  0  0  0  0  0  0  0  0
  -22.9697  -22.8728   24.0904 C   0  0  2  0  0  0  0  0  0  0  0  0
  -21.3206  -19.6574   20.9669 C   0  0  0  0  0  0  0  0  0  0  0  0
  -28.3944  -26.9480   20.0099 N   0  0  0  0  0  0  0  0  0  0  0  0
  -29.5730  -26.6061   20.5576 N   0  0  0  0  0  0  0  0  0  0  0  0
  -24.6895  -18.5623   21.5289 N   0  0  0  0  0  0  0  0  0  0  0  0
  -31.4385  -25.3228   17.4784 N   0  0  0  0  0  0  0  0  0  0  0  0
  -30.6675  -26.2792   22.6327 N   0  0  0  0  0  0  0  0  0  0  0  0
  -26.4833  -27.4765   23.8389 N   0  0  0  0  0  0  0  0  0  0  0  0
  -25.5584  -15.0937   20.8148 N   0  0  0  0  0  0  0  0  0  0  0  0
  -22.5873  -20.9105   22.7639 N   0  0  0  0  0  0  0  0  0  0  0  0
  -30.9843  -23.0048   17.3602 N   0  0  0  0  0  0  0  0  0  0  0  0
  -24.1650  -23.6719   24.4825 N   0  3  0  0  0  0  0  0  0  0  0  0
  -28.5547  -26.8935   24.6315 O   0  0  0  0  0  0  0  0  0  0  0  0
  -24.3627  -16.7733   19.7323 O   0  0  0  0  0  0  0  0  0  0  0  0
  -22.9152  -18.0710   22.9596 O   0  0  0  0  0  0  0  0  0  0  0  0
  -23.9432  -22.5808   21.8985 O   0  0  0  0  0  0  0  0  0  0  0  0
  -32.7944  -23.8864   16.2633 O   0  0  0  0  0  0  0  0  0  0  0  0
  -22.2844  -28.7009   20.3885 O   0  0  0  0  0  0  0  0  0  0  0  0
  -29.3424  -20.7999   18.1530 O   0  0  0  0  0  0  0  0  0  1  0  0
  -18.4716  -26.1855   23.4772 F   0  0  0  0  0  0  0  0  0  0  0  0
  -22.3777  -28.8388   23.1481 F   0  0  0  0  0  0  0  0  0  0  0  0
  1  2  1  0  0  0  0
  1  5  2  0  0  0  0
  2  6  2  0  0  0  0
  3  8  2  0  0  0  0
  3 15  1  0  0  0  0
  4  9  1  0  0  0  0
  4 15  2  0  0  0  0
  5 17  1  0  0  0  0
  6 19  1  0  0  0  0
  7 10  2  0  0  0  0
  7 18  1  0  0  0  0
  8 21  1  0  0  0  0
  9 21  2  0  0  0  0
 10 22  1  0  0  0  0
 11 12  2  0  0  0  0
 11 23  1  0  0  0  0
 12 24  1  0  0  0  0
 13 20  1  0  0  0  0
 13 22  2  0  0  0  0
 14 24  2  0  0  0  0
 14 25  1  0  0  0  0
 15 26  1  0  0  0  0
 16 26  1  0  0  0  0
 16 27  2  0  0  0  0
 16 28  1  0  0  0  0
 17 19  2  0  0  0  0
 17 33  1  0  0  0  0
 18 20  2  0  0  0  0
 18 34  1  0  0  0  0
 19 42  1  0  0  0  0
 20 35  1  0  0  0  0
 21 70  1  0  0  0  0
 22 71  1  0  0  0  0
 23 25  2  0  0  0  0
 23 70  1  0  0  0  0
 24 72  1  0  0  0  0
 25 73  1  0  0  0  0
 26 55  2  0  0  0  0
 27 56  1  0  0  0  0
 27 59  1  0  0  0  0
 28 60  1  0  0  0  0
 28 65  2  0  0  0  0
 29 43  1  0  0  0  0
 29 61  1  0  0  0  0
 29 66  2  0  0  0  0
 30 52  1  0  0  0  0
 30 57  1  0  0  0  0
 30 67  2  0  0  0  0
 31 53  1  0  0  0  0
 31 62  1  0  0  0  0
 31 68  2  0  0  0  0
 32 58  1  0  0  0  0
 32 63  1  0  0  0  0
 32 69  2  0  0  0  0
 33 36  1  0  0  0  0
 34 43  1  0  0  0  0
 35 57  1  0  0  0  0
 36 38  1  0  0  0  0
 37 39  1  0  0  0  0
 37 40  1  0  0  0  0
 38 42  1  0  0  0  0
 39 44  1  0  0  0  0
 40 58  1  0  0  0  0
 41 44  1  0  0  0  0
 41 58  1  0  0  0  0
 42 61  1  0  0  0  0
 43 57  1  0  0  0  0
 44 56  1  0  0  0  0
 45 53  1  0  0  0  0
 46 54  1  0  0  0  0
 47 54  1  0  0  0  0
 48 54  1  0  0  0  0
 49 64  1  0  0  0  0
 50 51  1  0  0  0  0
 50 63  1  0  0  0  0
 51 71  1  0  0  0  0
 52 54  1  0  0  0  0
 52 62  1  0  0  0  0
 53 64  1  0  0  0  0
 55 56  1  0  0  0  0
M  CHG  1  64   1
M  ISO  4  32 100  51 101  63 100  71 101
M  END
> <Batch ID>
0001

> <Smiles>
CNC(C)C(=O)NC(C(=O)N1Cc2cc([101O:1][101CH2:1]C[100NH:0][100C:0](=O)N3CCCC(n4nc(-c5ccc(Oc6ccc(F)cc6F)cc5)c(C(N)=O)c4N)C3)ccc2CC1C(=O)NC1CCCc2ccccc21)C(C)(C)C

> <Shape>
0.226

> <Color>
0.066

> <Negative vol penalty>
0.000

$$$$

  -OEChem-04042320143D

 84 92  0     1  0  0  0  0  0999 V2000
  -30.8275  -28.3669   18.4800 C   0  0  0  0  0  0  0  0  0  0  0  0
  -31.0018  -27.4922   19.5477 C   0  0  0  0  0  0  0  0  0  0  0  0
  -32.6519  -17.4883   23.4594 C   0  0  0  0  0  0  0  0  0  0  0  0
  -23.0751   -9.8682   19.9394 C   0  0  0  0  0  0  0  0  0  0  0  0
  -23.8348   -9.8732   22.2329 C   0  0  0  0  0  0  0  0  0  0  0  0
  -31.8539  -18.3545   24.2066 C   0  0  0  0  0  0  0  0  0  0  0  0
  -31.9301  -28.7868   17.7372 C   0  0  0  0  0  0  0  0  0  0  0  0
  -32.2789  -27.0360   19.8725 C   0  0  0  0  0  0  0  0  0  0  0  0
  -33.1825  -27.1731   24.8534 C   0  0  0  0  0  0  0  0  0  0  0  0
  -32.0642  -16.6047   22.5540 C   0  0  0  0  0  0  0  0  0  0  0  0
  -22.3308   -8.7151   20.1884 C   0  0  0  0  0  0  0  0  0  0  0  0
  -23.0904   -8.7201   22.4819 C   0  0  0  0  0  0  0  0  0  0  0  0
  -32.6295  -26.1552   25.6291 C   0  0  0  0  0  0  0  0  0  0  0  0
  -19.8620   -7.9229   23.0835 C   0  0  0  0  0  0  0  0  0  0  0  0
  -19.1049   -7.8823   24.2543 C   0  0  0  0  0  0  0  0  0  0  0  0
  -29.8804  -17.4537   23.1433 C   0  0  0  0  0  0  0  0  0  0  0  0
  -34.7587  -25.0215   25.6486 C   0  0  0  0  0  0  0  0  0  0  0  0
  -20.3456   -5.9439   24.9894 C   0  0  0  0  0  0  0  0  0  0  0  0
  -23.8271  -10.4473   20.9616 C   0  0  0  0  0  0  0  0  0  0  0  0
  -30.4682  -18.3372   24.0486 C   0  0  0  0  0  0  0  0  0  0  0  0
  -24.1698  -12.9724   20.8436 C   0  0  0  0  0  0  0  0  0  0  0  0
  -33.2225  -28.3431   18.0590 C   0  0  0  0  0  0  0  0  0  0  0  0
  -34.5273  -27.1173   24.4596 C   0  0  0  0  0  0  0  0  0  0  0  0
  -33.3997  -27.4492   19.1324 C   0  0  0  0  0  0  0  0  0  0  0  0
  -35.3271  -26.0412   24.8701 C   0  0  0  0  0  0  0  0  0  0  0  0
  -30.6784  -16.5874   22.3960 C   0  0  0  0  0  0  0  0  0  0  0  0
  -22.3385   -8.1411   21.4596 C   0  0  0  0  0  0  0  0  0  0  0  0
  -33.4168  -25.0777   26.0244 C   0  0  0  0  0  0  0  0  0  0  0  0
  -20.8608   -6.9739   22.8656 C   0  0  0  0  0  0  0  0  0  0  0  0
  -19.3467   -6.8928   25.2072 C   0  0  0  0  0  0  0  0  0  0  0  0
  -21.1026   -5.9845   23.8185 C   0  0  0  0  0  0  0  0  0  0  0  0
  -24.5966  -11.6381   20.7049 C   0  0  0  0  0  0  0  0  0  0  0  0
  -25.2622  -13.7218   20.4810 C   0  0  0  0  0  0  0  0  0  0  0  0
  -29.6195  -19.2605   24.8451 C   0  0  0  0  0  0  0  0  0  0  0  0
  -22.8994  -13.4883   21.2628 C   0  0  0  0  0  0  0  0  0  0  0  0
  -36.0436  -26.9751   21.6696 C   0  0  0  0  0  0  0  0  0  0  0  0
  -38.6818  -27.2969   23.5294 C   0  0  0  0  0  0  0  0  0  0  0  0
  -40.1284  -26.9153   26.5967 C   0  0  0  0  0  0  0  0  0  0  0  0
  -30.7287  -14.7654   20.6570 C   0  0  0  0  0  0  0  0  0  0  0  0
  -34.3780  -28.7872   17.1975 C   0  0  0  0  0  0  0  0  0  0  0  0
  -35.1157  -28.2367   23.6453 C   0  0  0  0  0  0  0  0  0  0  0  0
  -36.7815  -25.9443   24.4909 C   0  0  0  0  0  0  0  0  0  0  0  0
  -35.7425  -28.5520   17.8402 C   0  0  0  0  0  0  0  0  0  0  0  0
  -29.6138  -12.3538   18.2868 C   0  0  0  0  0  0  0  0  0  0  0  0
  -35.8203  -27.1469   18.4288 C   0  0  0  0  0  0  0  0  0  0  0  0
  -28.1740  -12.0624   18.7160 C   0  0  0  0  0  0  0  0  0  0  0  0
  -30.5288  -12.5814   19.4887 C   0  0  0  0  0  0  0  0  0  0  0  0
  -28.6220  -13.3054   20.8703 C   0  0  0  0  0  0  0  0  0  0  0  0
  -34.7721  -26.9517   19.5310 C   0  0  1  0  0  0  0  0  0  0  0  0
  -36.3621  -27.8205   22.8702 C   0  0  1  0  0  0  0  0  0  0  0  0
  -27.6492  -13.1334   19.6923 C   0  0  2  0  0  0  0  0  0  0  0  0
  -42.3083  -27.2297   27.7995 C   0  0  0  0  0  0  0  0  0  0  0  0
  -39.7835  -24.7903   22.1829 C   0  0  0  0  0  0  0  0  0  0  0  0
  -41.4577  -24.6151   24.0362 C   0  0  0  0  0  0  0  0  0  0  0  0
  -41.4637  -26.6086   22.5367 C   0  0  0  0  0  0  0  0  0  0  0  0
  -38.9369  -28.8520   28.4910 C   0  0  0  0  0  0  0  0  0  0  0  0
  -29.7269  -22.0089   26.7107 C   0  0  0  0  0  0  0  0  0  0  0  0
  -31.2055  -22.3461   26.9054 C   0  0  0  0  0  0  0  0  0  0  0  0
  -29.4252  -20.5353   26.9648 C   0  0  0  0  0  0  0  0  0  0  0  0
  -31.4889  -23.8129   26.6069 C   0  0  0  0  0  0  0  0  0  1  0  0
  -39.6128  -26.3433   24.2384 C   0  0  1  0  0  0  0  0  0  0  0  0
  -40.9713  -27.8574   27.4371 C   0  0  2  0  0  0  0  0  0  0  0  0
  -40.5515  -25.5899   23.2542 C   0  0  0  0  0  0  0  0  0  0  0  0
  -25.8615  -11.5421   20.2866 N   0  0  0  0  0  0  0  0  0  0  0  0
  -26.2388  -12.8257   20.1593 N   0  0  0  0  0  0  0  0  0  0  0  0
  -37.3090  -27.0604   23.6886 N   0  0  0  0  0  0  0  0  0  0  0  0
  -29.9701  -13.6117   20.3668 N   0  0  0  0  0  0  0  0  0  0  0  0
  -25.4731  -15.0532   20.4090 N   0  0  0  0  0  0  0  0  0  0  0  0
  -21.8872  -12.5792   21.5993 N   0  0  0  0  0  0  0  0  0  0  0  0
  -30.0816  -15.6901   21.4761 N   0  0  0  0  0  0  0  0  0  0  0  0
  -30.1371  -19.6642   26.0705 N   0  0  0  0  0  0  0  0  0  0  0  0
  -35.2044  -27.5864   20.7577 N   0  0  0  0  0  0  0  0  0  0  0  0
  -40.3130  -27.1308   25.2473 N   0  0  0  0  0  0  0  0  0  0  0  0
  -40.2580  -28.2050   28.6986 N   0  3  0  0  0  0  0  0  0  0  0  0
  -28.5232  -19.5974   24.4056 O   0  0  0  0  0  0  0  0  0  0  0  0
  -22.6636  -14.7189   21.3210 O   0  0  0  0  0  0  0  0  0  0  0  0
  -36.5248  -25.8519   21.5767 O   0  0  0  0  0  0  0  0  0  0  0  0
  -39.1550  -28.2221   22.8647 O   0  0  0  0  0  0  0  0  0  0  0  0
  -39.3837  -26.0699   27.0880 O   0  0  0  0  0  0  0  0  0  0  0  0
  -31.8579  -14.9341   20.1896 O   0  0  0  0  0  0  0  0  0  0  0  0
  -21.6121   -7.0160   21.7030 O   0  0  0  0  0  0  0  0  0  0  0  0
  -32.8793  -24.0825   26.7810 O   0  0  0  0  0  0  0  0  0  1  0  0
  -18.6206   -6.8549   26.3322 F   0  0  0  0  0  0  0  0  0  0  0  0
  -22.0617   -5.0708   23.6153 F   0  0  0  0  0  0  0  0  0  0  0  0
  1  2  1  0  0  0  0
  1  7  2  0  0  0  0
  2  8  2  0  0  0  0
  3  6  2  0  0  0  0
  3 10  1  0  0  0  0
  4 11  2  0  0  0  0
  4 19  1  0  0  0  0
  5 12  1  0  0  0  0
  5 19  2  0  0  0  0
  6 20  1  0  0  0  0
  7 22  1  0  0  0  0
  8 24  1  0  0  0  0
  9 13  2  0  0  0  0
  9 23  1  0  0  0  0
 10 26  2  0  0  0  0
 11 27  1  0  0  0  0
 12 27  2  0  0  0  0
 13 28  1  0  0  0  0
 14 15  2  0  0  0  0
 14 29  1  0  0  0  0
 15 30  1  0  0  0  0
 16 20  2  0  0  0  0
 16 26  1  0  0  0  0
 17 25  1  0  0  0  0
 17 28  2  0  0  0  0
 18 30  2  0  0  0  0
 18 31  1  0  0  0  0
 19 32  1  0  0  0  0
 20 34  1  0  0  0  0
 21 32  1  0  0  0  0
 21 33  2  0  0  0  0
 21 35  1  0  0  0  0
 22 24  2  0  0  0  0
 22 40  1  0  0  0  0
 23 25  2  0  0  0  0
 23 41  1  0  0  0  0
 24 49  1  0  0  0  0
 25 42  1  0  0  0  0
 26 70  1  0  0  0  0
 27 81  1  0  0  0  0
 28 82  1  0  0  0  0
 29 31  2  0  0  0  0
 29 81  1  0  0  0  0
 30 83  1  0  0  0  0
 31 84  1  0  0  0  0
 32 64  2  0  0  0  0
 33 65  1  0  0  0  0
 33 68  1  0  0  0  0
 34 71  1  0  0  0  0
 34 75  2  0  0  0  0
 35 69  1  0  0  0  0
 35 76  2  0  0  0  0
 36 50  1  0  0  0  0
 36 72  1  0  0  0  0
 36 77  2  0  0  0  0
 37 61  1  0  0  0  0
 37 66  1  0  0  0  0
 37 78  2  0  0  0  0
 38 62  1  0  0  0  0
 38 73  1  0  0  0  0
 38 79  2  0  0  0  0
 39 67  1  0  0  0  0
 39 70  1  0  0  0  0
 39 80  2  0  0  0  0
 40 43  1  0  0  0  0
 41 50  1  0  0  0  0
 42 66  1  0  0  0  0
 43 45  1  0  0  0  0
 44 46  1  0  0  0  0
 44 47  1  0  0  0  0
 45 49  1  0  0  0  0
 46 51  1  0  0  0  0
 47 67  1  0  0  0  0
 48 51  1  0  0  0  0
 48 67  1  0  0  0  0
 49 72  1  0  0  0  0
 50 66  1  0  0  0  0
 51 65  1  0  0  0  0
 52 62  1  0  0  0  0
 53 63  1  0  0  0  0
 54 63  1  0  0  0  0
 55 63  1  0  0  0  0
 56 74  1  0  0  0  0
 57 58  1  0  0  0  0
 57 59  1  0  0  0  0
 58 60  1  0  0  0  0
 59 71  1  0  0  0  0
 60 82  1  0  0  0  0
 61 63  1  0  0  0  0
 61 73  1  0  0  0  0
 62 74  1  0  0  0  0
 64 65  1  0  0  0  0
M  CHG  1  74   1
M  ISO  4  39 100  60 101  70 100  82 101
M  END
> <Batch ID>
0001

> <Smiles>
CNC(C)C(=O)NC(C(=O)N1Cc2cc([101O:1][101CH2:1]CCCNC(=O)c3cccc([100NH:0][100C:0](=O)N4CCCC(n5nc(-c6ccc(Oc7ccc(F)cc7F)cc6)c(C(N)=O)c5N)C4)c3)ccc2CC1C(=O)NC1CCCc2ccccc21)C(C)(C)C

> <Shape>
0.179

> <Color>
0.192

> <Negative vol penalty>
0.000

$$$$

  -OEChem-04042320143D

 80 88  0     1  0  0  0  0  0999 V2000
  -30.4986  -26.5607    8.3086 C   0  0  0  0  0  0  0  0  0  0  0  0
  -30.3226  -25.5545    9.2531 C   0  0  0  0  0  0  0  0  0  0  0  0
  -22.9864   -9.9071   19.9846 C   0  0  0  0  0  0  0  0  0  0  0  0
  -23.7196   -9.9489   22.2863 C   0  0  0  0  0  0  0  0  0  0  0  0
  -31.3779  -19.3183   19.1088 C   0  0  0  0  0  0  0  0  0  0  0  0
  -29.1591  -19.6267   20.0138 C   0  0  0  0  0  0  0  0  0  0  0  0
  -30.8783  -27.8389    8.7159 C   0  0  0  0  0  0  0  0  0  0  0  0
  -30.5274  -25.8257   10.6055 C   0  0  0  0  0  0  0  0  0  0  0  0
  -27.4715  -23.4347   15.3436 C   0  0  0  0  0  0  0  0  0  0  0  0
  -31.6031  -18.2816   20.0143 C   0  0  0  0  0  0  0  0  0  0  0  0
  -29.3844  -18.5899   20.9193 C   0  0  0  0  0  0  0  0  0  0  0  0
  -22.2152   -8.7758   20.2508 C   0  0  0  0  0  0  0  0  0  0  0  0
  -22.9483   -8.8176   22.5525 C   0  0  0  0  0  0  0  0  0  0  0  0
  -27.7648  -22.3886   16.2173 C   0  0  0  0  0  0  0  0  0  0  0  0
  -23.1744   -5.4786   22.0717 C   0  0  0  0  0  0  0  0  0  0  0  0
  -23.7594   -4.4567   22.8194 C   0  0  0  0  0  0  0  0  0  0  0  0
  -28.6360  -23.9739   17.8133 C   0  0  0  0  0  0  0  0  0  0  0  0
  -22.0424   -4.7041   24.5010 C   0  0  0  0  0  0  0  0  0  0  0  0
  -23.7387  -10.4936   21.0023 C   0  0  0  0  0  0  0  0  0  0  0  0
  -30.1558  -19.9909   19.1085 C   0  0  0  0  0  0  0  0  0  0  0  0
  -24.1359  -13.0077   20.8310 C   0  0  0  0  0  0  0  0  0  0  0  0
  -31.0784  -28.1284   10.0749 C   0  0  0  0  0  0  0  0  0  0  0  0
  -27.7686  -24.7595   15.6943 C   0  0  0  0  0  0  0  0  0  0  0  0
  -30.9115  -27.1087   11.0312 C   0  0  0  0  0  0  0  0  0  0  0  0
  -28.3430  -25.0352   16.9433 C   0  0  0  0  0  0  0  0  0  0  0  0
  -30.6064  -17.9173   20.9196 C   0  0  0  0  0  0  0  0  0  0  0  0
  -22.1961   -8.2310   21.5347 C   0  0  0  0  0  0  0  0  0  0  0  0
  -28.3498  -22.6578   17.4512 C   0  0  0  0  0  0  0  0  0  0  0  0
  -22.0234   -6.1134   22.5387 C   0  0  0  0  0  0  0  0  0  0  0  0
  -23.1934   -4.0694   24.0340 C   0  0  0  0  0  0  0  0  0  0  0  0
  -21.4574   -5.7261   23.7534 C   0  0  0  0  0  0  0  0  0  0  0  0
  -24.5361  -11.6619   20.7278 C   0  0  0  0  0  0  0  0  0  0  0  0
  -25.2481  -13.7256   20.4646 C   0  0  0  0  0  0  0  0  0  0  0  0
  -22.8720  -13.5595   21.2232 C   0  0  0  0  0  0  0  0  0  0  0  0
  -29.9146  -21.0949   18.1442 C   0  0  0  0  0  0  0  0  0  1  0  0
  -29.6527  -27.0262   14.5043 C   0  0  0  0  0  0  0  0  0  0  0  0
  -28.2331  -28.8547   16.7765 C   0  0  0  0  0  0  0  0  0  0  0  0
  -26.5878  -29.0062   19.7627 C   0  0  0  0  0  0  0  0  0  0  0  0
  -30.7498  -14.6323   20.6968 C   0  0  0  0  0  0  0  0  0  0  0  0
  -31.5343  -29.5128   10.4627 C   0  0  0  0  0  0  0  0  0  0  0  0
  -27.4214  -25.8791   14.7517 C   0  0  0  0  0  0  0  0  0  0  0  0
  -28.6631  -26.4420   17.3758 C   0  0  0  0  0  0  0  0  0  0  0  0
  -31.3670  -29.8149   11.9497 C   0  0  0  0  0  0  0  0  0  0  0  0
  -29.5892  -12.2200   18.3494 C   0  0  0  0  0  0  0  0  0  0  0  0
  -31.8882  -28.6550   12.7921 C   0  0  0  0  0  0  0  0  0  0  0  0
  -28.1408  -11.9665   18.7712 C   0  0  0  0  0  0  0  0  0  0  0  0
  -30.4968  -12.4480   19.5561 C   0  0  0  0  0  0  0  0  0  0  0  0
  -28.5952  -13.2498   20.9033 C   0  0  0  0  0  0  0  0  0  0  0  0
  -31.1000  -27.3703   12.5098 C   0  0  1  0  0  0  0  0  0  0  0  0
  -28.2387  -27.1433   14.9987 C   0  0  1  0  0  0  0  0  0  0  0  0
  -27.6313  -13.0697   19.7181 C   0  0  2  0  0  0  0  0  0  0  0  0
  -25.5890  -30.6439   21.3806 C   0  0  0  0  0  0  0  0  0  0  0  0
  -31.0287  -29.5939   17.7504 C   0  0  0  0  0  0  0  0  0  0  0  0
  -29.9943  -30.4192   19.8757 C   0  0  0  0  0  0  0  0  0  0  0  0
  -29.4038  -31.4944   17.7037 C   0  0  0  0  0  0  0  0  0  0  0  0
  -23.8852  -27.8402   19.4538 C   0  0  0  0  0  0  0  0  0  0  0  0
  -30.8474  -16.8079   21.8869 C   0  0  0  0  0  0  0  0  0  0  0  0
  -28.5239  -29.1815   18.2214 C   0  0  1  0  0  0  0  0  0  0  0  0
  -25.3291  -29.7434   20.1830 C   0  0  2  0  0  0  0  0  0  0  0  0
  -29.7335  -30.1455   18.3791 C   0  0  0  0  0  0  0  0  0  0  0  0
  -25.8034  -11.5301   20.3270 N   0  0  0  0  0  0  0  0  0  0  0  0
  -26.2092  -12.8022   20.1751 N   0  0  0  0  0  0  0  0  0  0  0  0
  -28.3106  -27.5018   16.4167 N   0  0  0  0  0  0  0  0  0  0  0  0
  -29.9582  -13.5073   20.4126 N   0  0  0  0  0  0  0  0  0  0  0  0
  -25.4878  -15.0504   20.3650 N   0  0  0  0  0  0  0  0  0  0  0  0
  -21.8370  -12.6796   21.5681 N   0  0  0  0  0  0  0  0  0  0  0  0
  -29.8207  -27.4034   13.1856 N   0  0  0  0  0  0  0  0  0  0  0  0
  -27.2774  -29.6899   18.7837 N   0  0  0  0  0  0  0  0  0  0  0  0
  -30.1610  -15.5921   21.5110 N   0  0  0  0  0  0  0  0  0  0  0  0
  -24.2582  -28.7735   20.5479 N   0  3  0  0  0  0  0  0  0  0  0  0
  -22.6615  -14.7958   21.2506 O   0  0  0  0  0  0  0  0  0  0  0  0
  -30.7449  -21.4619   17.3263 O   0  0  0  0  0  0  0  0  0  0  0  0
  -30.5270  -26.6247   15.2634 O   0  0  0  0  0  0  0  0  0  0  0  0
  -27.9408  -29.7654   15.9975 O   0  0  0  0  0  0  0  0  0  0  0  0
  -26.9275  -27.9331   20.2562 O   0  0  0  0  0  0  0  0  0  0  0  0
  -31.8945  -14.7736   20.2532 O   0  0  0  0  0  0  0  0  0  0  0  0
  -21.4434   -7.1272   21.7949 O   0  0  0  0  0  0  0  0  0  0  0  0
  -28.6379  -21.6386   18.3056 O   0  0  0  0  0  0  0  0  0  1  0  0
  -23.7544   -3.0870   24.7512 F   0  0  0  0  0  0  0  0  0  0  0  0
  -20.3511   -6.3314   24.2066 F   0  0  0  0  0  0  0  0  0  0  0  0
  1  2  1  0  0  0  0
  1  7  2  0  0  0  0
  2  8  2  0  0  0  0
  3 12  2  0  0  0  0
  3 19  1  0  0  0  0
  4 13  1  0  0  0  0
  4 19  2  0  0  0  0
  5 10  2  0  0  0  0
  5 20  1  0  0  0  0
  6 11  1  0  0  0  0
  6 20  2  0  0  0  0
  7 22  1  0  0  0  0
  8 24  1  0  0  0  0
  9 14  2  0  0  0  0
  9 23  1  0  0  0  0
 10 26  1  0  0  0  0
 11 26  2  0  0  0  0
 12 27  1  0  0  0  0
 13 27  2  0  0  0  0
 14 28  1  0  0  0  0
 15 16  2  0  0  0  0
 15 29  1  0  0  0  0
 16 30  1  0  0  0  0
 17 25  1  0  0  0  0
 17 28  2  0  0  0  0
 18 30  2  0  0  0  0
 18 31  1  0  0  0  0
 19 32  1  0  0  0  0
 20 35  1  0  0  0  0
 21 32  1  0  0  0  0
 21 33  2  0  0  0  0
 21 34  1  0  0  0  0
 22 24  2  0  0  0  0
 22 40  1  0  0  0  0
 23 25  2  0  0  0  0
 23 41  1  0  0  0  0
 24 49  1  0  0  0  0
 25 42  1  0  0  0  0
 26 57  1  0  0  0  0
 27 77  1  0  0  0  0
 28 78  1  0  0  0  0
 29 31  2  0  0  0  0
 29 77  1  0  0  0  0
 30 79  1  0  0  0  0
 31 80  1  0  0  0  0
 32 61  2  0  0  0  0
 33 62  1  0  0  0  0
 33 65  1  0  0  0  0
 34 66  1  0  0  0  0
 34 71  2  0  0  0  0
 35 72  2  0  0  0  0
 35 78  1  0  0  0  0
 36 50  1  0  0  0  0
 36 67  1  0  0  0  0
 36 73  2  0  0  0  0
 37 58  1  0  0  0  0
 37 63  1  0  0  0  0
 37 74  2  0  0  0  0
 38 59  1  0  0  0  0
 38 68  1  0  0  0  0
 38 75  2  0  0  0  0
 39 64  1  0  0  0  0
 39 69  1  0  0  0  0
 39 76  2  0  0  0  0
 40 43  1  0  0  0  0
 41 50  1  0  0  0  0
 42 63  1  0  0  0  0
 43 45  1  0  0  0  0
 44 46  1  0  0  0  0
 44 47  1  0  0  0  0
 45 49  1  0  0  0  0
 46 51  1  0  0  0  0
 47 64  1  0  0  0  0
 48 51  1  0  0  0  0
 48 64  1  0  0  0  0
 49 67  1  0  0  0  0
 50 63  1  0  0  0  0
 51 62  1  0  0  0  0
 52 59  1  0  0  0  0
 53 60  1  0  0  0  0
 54 60  1  0  0  0  0
 55 60  1  0  0  0  0
 56 70  1  0  0  0  0
 57 69  1  0  0  0  0
 58 60  1  0  0  0  0
 58 68  1  0  0  0  0
 59 70  1  0  0  0  0
 61 62  1  0  0  0  0
M  CHG  1  70   1
M  ISO  4  35 101  39 100  69 100  78 101
M  END
> <Batch ID>
0001

> <Smiles>
CNC(C)C(=O)NC(C(=O)N1Cc2cc([101O:1][101C:1](=O)c3ccc(C[100NH:0][100C:0](=O)N4CCCC(n5nc(-c6ccc(Oc7ccc(F)cc7F)cc6)c(C(N)=O)c5N)C4)cc3)ccc2CC1C(=O)NC1CCCc2ccccc21)C(C)(C)C

> <Shape>
0.255

> <Color>
0.207

> <Negative vol penalty>
0.000

$$$$

  -OEChem-04042320143D

 82 90  0     1  0  0  0  0  0999 V2000
  -28.4353  -32.7061   28.2182 C   0  0  0  0  0  0  0  0  0  0  0  0
  -28.3458  -31.6820   27.2809 C   0  0  0  0  0  0  0  0  0  0  0  0
  -24.6068   -8.6828   21.4336 C   0  0  0  0  0  0  0  0  0  0  0  0
  -23.1647  -10.6099   21.2236 C   0  0  0  0  0  0  0  0  0  0  0  0
  -27.3849  -33.6115   28.3622 C   0  0  0  0  0  0  0  0  0  0  0  0
  -27.2053  -31.5621   26.4876 C   0  0  0  0  0  0  0  0  0  0  0  0
  -28.3058  -30.6897   21.6222 C   0  0  0  0  0  0  0  0  0  0  0  0
  -26.1556  -18.0367   19.7879 C   0  0  0  0  0  0  0  0  0  0  0  0
  -28.3999  -18.4803   20.5646 C   0  0  0  0  0  0  0  0  0  0  0  0
  -23.7770   -8.1705   22.4309 C   0  0  0  0  0  0  0  0  0  0  0  0
  -22.3349  -10.0975   22.2208 C   0  0  0  0  0  0  0  0  0  0  0  0
  -28.6745  -29.3905   21.2758 C   0  0  0  0  0  0  0  0  0  0  0  0
  -25.7701  -19.3223   20.1677 C   0  0  0  0  0  0  0  0  0  0  0  0
  -28.0144  -19.7659   20.9444 C   0  0  0  0  0  0  0  0  0  0  0  0
  -20.8206   -6.5402   22.6173 C   0  0  0  0  0  0  0  0  0  0  0  0
  -20.4844   -5.1882   22.5496 C   0  0  0  0  0  0  0  0  0  0  0  0
  -26.4414  -28.9805   20.4607 C   0  0  0  0  0  0  0  0  0  0  0  0
  -21.5037   -4.8265   24.7100 C   0  0  0  0  0  0  0  0  0  0  0  0
  -24.3007   -9.9026   20.8300 C   0  0  0  0  0  0  0  0  0  0  0  0
  -25.0599  -10.2084   18.4139 C   0  0  0  0  0  0  0  0  0  0  0  0
  -26.2350  -33.5084   27.5636 C   0  0  0  0  0  0  0  0  0  0  0  0
  -26.9969  -31.1413   21.4000 C   0  0  0  0  0  0  0  0  0  0  0  0
  -26.1379  -32.4662   26.6220 C   0  0  0  0  0  0  0  0  0  0  0  0
  -26.0593  -30.2867   20.8028 C   0  0  0  0  0  0  0  0  0  0  0  0
  -27.4705  -17.6157   19.9865 C   0  0  0  0  0  0  0  0  0  0  0  0
  -22.6410   -8.8778   22.8245 C   0  0  0  0  0  0  0  0  0  0  0  0
  -26.6994  -20.1869   20.7459 C   0  0  0  0  0  0  0  0  0  0  0  0
  -27.7415  -28.5347   20.6976 C   0  0  0  0  0  0  0  0  0  0  0  0
  -21.4985   -7.0354   23.7313 C   0  0  0  0  0  0  0  0  0  0  0  0
  -20.8259   -4.3313   23.5960 C   0  0  0  0  0  0  0  0  0  0  0  0
  -21.8400   -6.1786   24.7777 C   0  0  0  0  0  0  0  0  0  0  0  0
  -25.1578  -10.4326   19.8002 C   0  0  0  0  0  0  0  0  0  0  0  0
  -26.0985  -10.9280   17.8755 C   0  0  0  0  0  0  0  0  0  0  0  0
  -24.1145   -9.4203   17.6785 C   0  0  0  0  0  0  0  0  0  0  0  0
  -24.6350  -32.1752   23.2590 C   0  0  0  0  0  0  0  0  0  0  0  0
  -23.1907  -32.7871   20.4197 C   0  0  0  0  0  0  0  0  0  0  0  0
  -22.9348  -32.0878   17.0892 C   0  0  0  0  0  0  0  0  0  0  0  0
  -29.1265  -15.7349   19.7276 C   0  0  0  0  0  0  0  0  0  0  0  0
  -25.1055  -34.4823   27.7882 C   0  0  0  0  0  0  0  0  0  0  0  0
  -26.6224  -32.5541   21.7548 C   0  0  0  0  0  0  0  0  0  0  0  0
  -24.6469  -30.7295   20.5247 C   0  0  0  0  0  0  0  0  0  0  0  0
  -24.0901  -34.5107   26.6487 C   0  0  0  0  0  0  0  0  0  0  0  0
  -30.4822  -12.5399   18.9334 C   0  0  0  0  0  0  0  0  0  0  0  0
  -23.7074  -33.0920   26.2391 C   0  0  0  0  0  0  0  0  0  0  0  0
  -29.2609  -11.6176   18.9334 C   0  0  0  0  0  0  0  0  0  0  0  0
  -30.3839  -13.6113   20.0179 C   0  0  0  0  0  0  0  0  0  0  0  0
  -27.9240  -13.4777   20.0009 C   0  0  0  0  0  0  0  0  0  0  0  0
  -24.9276  -32.3180   25.7258 C   0  0  1  0  0  0  0  0  0  0  0  0
  -25.1217  -32.7420   21.9554 C   0  0  1  0  0  0  0  0  0  0  0  0
  -27.9472  -12.4222   18.8833 C   0  0  2  0  0  0  0  0  0  0  0  0
  -21.6379  -32.7230   15.0369 C   0  0  0  0  0  0  0  0  0  0  0  0
  -20.8142  -31.1552   21.4192 C   0  0  0  0  0  0  0  0  0  0  0  0
  -19.9998  -31.0231   19.0554 C   0  0  0  0  0  0  0  0  0  0  0  0
  -20.2013  -33.2399   20.1813 C   0  0  0  0  0  0  0  0  0  0  0  0
  -25.3721  -33.0292   15.6991 C   0  0  0  0  0  0  0  0  0  0  0  0
  -26.6764  -23.8123   20.7993 C   0  0  0  0  0  0  0  0  0  0  0  0
  -27.7164  -24.9244   20.7195 C   0  0  0  0  0  0  0  0  0  0  0  0
  -27.3204  -22.4594   21.0714 C   0  0  0  0  0  0  0  0  0  0  0  0
  -27.0778  -26.2698   20.4050 C   0  0  0  0  0  0  0  0  0  1  0  0
  -22.2967  -32.0084   19.4852 C   0  0  1  0  0  0  0  0  0  0  0  0
  -22.8805  -32.9923   15.8712 C   0  0  2  0  0  0  0  0  0  0  0  0
  -20.8540  -31.8474   20.0422 C   0  0  0  0  0  0  0  0  0  0  0  0
  -26.1782  -11.2319   20.1225 N   0  0  0  0  0  0  0  0  0  0  0  0
  -26.7310  -11.5163   18.9310 N   0  0  0  0  0  0  0  0  0  0  0  0
  -24.3273  -32.1181   20.8953 N   0  0  0  0  0  0  0  0  0  0  0  0
  -29.1157  -14.3353   19.9056 N   0  0  0  0  0  0  0  0  0  0  0  0
  -26.5234  -11.1086   16.6069 N   0  0  0  0  0  0  0  0  0  0  0  0
  -23.1114   -8.7460   18.3881 N   0  0  0  0  0  0  0  0  0  0  0  0
  -27.8623  -16.3097   19.6008 N   0  0  0  0  0  0  0  0  0  0  0  0
  -25.2473  -32.7184   24.3723 N   0  0  0  0  0  0  0  0  0  0  0  0
  -22.3669  -32.6850   18.1946 N   0  0  0  0  0  0  0  0  0  0  0  0
  -24.0791  -32.7769   15.0123 N   0  3  0  0  0  0  0  0  0  0  0  0
  -24.1679   -9.3037   16.4307 O   0  0  0  0  0  0  0  0  0  0  0  0
  -23.7670  -31.3102   23.2552 O   0  0  0  0  0  0  0  0  0  0  0  0
  -22.8953  -33.9488   20.7110 O   0  0  0  0  0  0  0  0  0  0  0  0
  -23.4280  -30.9624   17.0617 O   0  0  0  0  0  0  0  0  0  0  0  0
  -30.1805  -16.3728   19.6632 O   0  0  0  0  0  0  0  0  0  0  0  0
  -21.8309   -8.3781   23.7974 O   0  0  0  0  0  0  0  0  0  0  0  0
  -26.3207  -21.4501   21.1190 O   0  0  0  0  0  0  0  0  0  0  0  0
  -28.0986  -27.2660   20.3592 O   0  0  0  0  0  0  0  0  0  1  0  0
  -20.5016   -3.0333   23.5315 F   0  0  0  0  0  0  0  0  0  0  0  0
  -22.4902   -6.6487   25.8510 F   0  0  0  0  0  0  0  0  0  0  0  0
  1  2  1  0  0  0  0
  1  5  2  0  0  0  0
  2  6  2  0  0  0  0
  3 10  2  0  0  0  0
  3 19  1  0  0  0  0
  4 11  1  0  0  0  0
  4 19  2  0  0  0  0
  5 21  1  0  0  0  0
  6 23  1  0  0  0  0
  7 12  2  0  0  0  0
  7 22  1  0  0  0  0
  8 13  2  0  0  0  0
  8 25  1  0  0  0  0
  9 14  1  0  0  0  0
  9 25  2  0  0  0  0
 10 26  1  0  0  0  0
 11 26  2  0  0  0  0
 12 28  1  0  0  0  0
 13 27  1  0  0  0  0
 14 27  2  0  0  0  0
 15 16  2  0  0  0  0
 15 29  1  0  0  0  0
 16 30  1  0  0  0  0
 17 24  1  0  0  0  0
 17 28  2  0  0  0  0
 18 30  2  0  0  0  0
 18 31  1  0  0  0  0
 19 32  1  0  0  0  0
 20 32  1  0  0  0  0
 20 33  2  0  0  0  0
 20 34  1  0  0  0  0
 21 23  2  0  0  0  0
 21 39  1  0  0  0  0
 22 24  2  0  0  0  0
 22 40  1  0  0  0  0
 23 48  1  0  0  0  0
 24 41  1  0  0  0  0
 25 69  1  0  0  0  0
 26 78  1  0  0  0  0
 27 79  1  0  0  0  0
 28 80  1  0  0  0  0
 29 31  2  0  0  0  0
 29 78  1  0  0  0  0
 30 81  1  0  0  0  0
 31 82  1  0  0  0  0
 32 63  2  0  0  0  0
 33 64  1  0  0  0  0
 33 67  1  0  0  0  0
 34 68  1  0  0  0  0
 34 73  2  0  0  0  0
 35 49  1  0  0  0  0
 35 70  1  0  0  0  0
 35 74  2  0  0  0  0
 36 60  1  0  0  0  0
 36 65  1  0  0  0  0
 36 75  2  0  0  0  0
 37 61  1  0  0  0  0
 37 71  1  0  0  0  0
 37 76  2  0  0  0  0
 38 66  1  0  0  0  0
 38 69  1  0  0  0  0
 38 77  2  0  0  0  0
 39 42  1  0  0  0  0
 40 49  1  0  0  0  0
 41 65  1  0  0  0  0
 42 44  1  0  0  0  0
 43 45  1  0  0  0  0
 43 46  1  0  0  0  0
 44 48  1  0  0  0  0
 45 50  1  0  0  0  0
 46 66  1  0  0  0  0
 47 50  1  0  0  0  0
 47 66  1  0  0  0  0
 48 70  1  0  0  0  0
 49 65  1  0  0  0  0
 50 64  1  0  0  0  0
 51 61  1  0  0  0  0
 52 62  1  0  0  0  0
 53 62  1  0  0  0  0
 54 62  1  0  0  0  0
 55 72  1  0  0  0  0
 56 57  1  0  0  0  0
 56 58  1  0  0  0  0
 57 59  1  0  0  0  0
 58 79  1  0  0  0  0
 59 80  1  0  0  0  0
 60 62  1  0  0  0  0
 60 71  1  0  0  0  0
 61 72  1  0  0  0  0
 63 64  1  0  0  0  0
M  CHG  1  72   1
M  ISO  4  38 100  59 101  69 100  80 101
M  END
> <Batch ID>
0001

> <Smiles>
CNC(C)C(=O)NC(C(=O)N1Cc2cc([101O:1][101CH2:1]CCCOc3ccc([100NH:0][100C:0](=O)N4CCCC(n5nc(-c6ccc(Oc7ccc(F)cc7F)cc6)c(C(N)=O)c5N)C4)cc3)ccc2CC1C(=O)NC1CCCc2ccccc21)C(C)(C)C

> <Shape>
0.243

> <Color>
0.082

> <Negative vol penalty>
0.000

$$$$

  -OEChem-04042320143D

 90 99  0     1  0  0  0  0  0999 V2000
  -28.9667  -24.5391   17.1284 C   0  0  0  0  0  0  0  0  0  0  0  0
  -27.7498  -24.6566   17.7923 C   0  0  0  0  0  0  0  0  0  0  0  0
  -17.3649  -22.7174   22.8134 C   0  0  0  0  0  0  0  0  0  0  0  0
  -30.3004  -17.4631   23.6690 C   0  0  0  0  0  0  0  0  0  0  0  0
  -28.2260  -16.8536   22.5907 C   0  0  0  0  0  0  0  0  0  0  0  0
  -18.3425  -21.7571   23.0733 C   0  0  0  0  0  0  0  0  0  0  0  0
  -30.0991  -25.1774   17.6325 C   0  0  0  0  0  0  0  0  0  0  0  0
  -27.6649  -25.4116   18.9615 C   0  0  0  0  0  0  0  0  0  0  0  0
  -23.5957  -28.4252   19.0367 C   0  0  0  0  0  0  0  0  0  0  0  0
  -24.1723  -20.4162   21.4866 C   0  0  0  0  0  0  0  0  0  0  0  0
  -25.3757  -21.5813   23.2276 C   0  0  0  0  0  0  0  0  0  0  0  0
  -17.7330  -23.9774   22.3415 C   0  0  0  0  0  0  0  0  0  0  0  0
  -25.2316  -20.6370   20.6065 C   0  0  0  0  0  0  0  0  0  0  0  0
  -26.4351  -21.8021   22.3475 C   0  0  0  0  0  0  0  0  0  0  0  0
  -29.7215  -17.2272   24.9159 C   0  0  0  0  0  0  0  0  0  0  0  0
  -27.6472  -16.6177   23.8377 C   0  0  0  0  0  0  0  0  0  0  0  0
  -22.3703  -27.8329   19.3387 C   0  0  0  0  0  0  0  0  0  0  0  0
  -25.5130  -16.2010   26.7500 C   0  0  0  0  0  0  0  0  0  0  0  0
  -24.2305  -16.7013   26.9746 C   0  0  0  0  0  0  0  0  0  0  0  0
  -20.0564  -23.3168   22.3898 C   0  0  0  0  0  0  0  0  0  0  0  0
  -22.5481  -28.6356   21.6066 C   0  0  0  0  0  0  0  0  0  0  0  0
  -25.0366  -18.9444   26.5796 C   0  0  0  0  0  0  0  0  0  0  0  0
  -29.5526  -17.2764   22.5063 C   0  0  0  0  0  0  0  0  0  0  0  0
  -19.6882  -22.0567   22.8615 C   0  0  0  0  0  0  0  0  0  0  0  0
  -30.8403  -16.5954   20.4121 C   0  0  0  0  0  0  0  0  0  0  0  0
  -30.0258  -25.9486   18.8032 C   0  0  0  0  0  0  0  0  0  0  0  0
  -24.3130  -29.1190   20.0219 C   0  0  0  0  0  0  0  0  0  0  0  0
  -28.7976  -26.0598   19.4826 C   0  0  0  0  0  0  0  0  0  0  0  0
  -23.7812  -29.2379   21.3139 C   0  0  0  0  0  0  0  0  0  0  0  0
  -24.2443  -20.8883   22.7972 C   0  0  0  0  0  0  0  0  0  0  0  0
  -26.3631  -21.3300   21.0369 C   0  0  0  0  0  0  0  0  0  0  0  0
  -19.0787  -24.2771   22.1298 C   0  0  0  0  0  0  0  0  0  0  0  0
  -28.3950  -16.8045   25.0003 C   0  0  0  0  0  0  0  0  0  0  0  0
  -21.8477  -27.9356   20.6246 C   0  0  0  0  0  0  0  0  0  0  0  0
  -26.5573  -17.0723   26.4403 C   0  0  0  0  0  0  0  0  0  0  0  0
  -23.9923  -18.0731   26.8893 C   0  0  0  0  0  0  0  0  0  0  0  0
  -26.3191  -18.4440   26.3551 C   0  0  0  0  0  0  0  0  0  0  0  0
  -30.1498  -17.5204   21.2180 C   0  0  0  0  0  0  0  0  0  0  0  0
  -31.2059  -17.3144   19.3004 C   0  0  0  0  0  0  0  0  0  0  0  0
  -20.7064  -21.0546   23.1329 C   0  0  0  0  0  0  0  0  0  0  0  0
  -31.1255  -15.2102   20.6473 C   0  0  0  0  0  0  0  0  0  0  0  0
  -27.1568  -28.7614   21.3962 C   0  0  0  0  0  0  0  0  0  0  0  0
  -26.4090  -31.5967   22.7833 C   0  0  0  0  0  0  0  0  0  0  0  0
  -23.9877  -33.7887   23.7726 C   0  0  0  0  0  0  0  0  0  0  0  0
  -28.6337  -22.2235   20.4114 C   0  0  0  0  0  0  0  0  0  0  0  0
  -20.7230  -26.0248   21.3853 C   0  0  0  0  0  0  0  0  0  1  0  0
  -31.2871  -26.5812   19.3359 C   0  0  0  0  0  0  0  0  0  0  0  0
  -25.6208  -29.7750   19.6731 C   0  0  0  0  0  0  0  0  0  0  0  0
  -24.5022  -29.9892   22.4021 C   0  0  0  0  0  0  0  0  0  0  0  0
  -31.0307  -27.6697   20.3749 C   0  0  0  0  0  0  0  0  0  0  0  0
  -32.1849  -21.4285   19.9645 C   0  0  0  0  0  0  0  0  0  0  0  0
  -30.0084  -27.1960   21.4032 C   0  0  0  0  0  0  0  0  0  0  0  0
  -32.2088  -20.4914   18.7634 C   0  0  0  0  0  0  0  0  0  0  0  0
  -31.0378  -22.4217   19.8554 C   0  0  0  0  0  0  0  0  0  0  0  0
  -29.6816  -20.7631   18.5791 C   0  0  0  0  0  0  0  0  0  0  0  0
  -28.6599  -26.8903   20.7401 C   0  0  1  0  0  0  0  0  0  0  0  0
  -26.5099  -30.0189   20.8886 C   0  0  1  0  0  0  0  0  0  0  0  0
  -30.8660  -19.7723   18.5636 C   0  0  2  0  0  0  0  0  0  0  0  0
  -23.6818  -36.0033   24.9125 C   0  0  0  0  0  0  0  0  0  0  0  0
  -26.9750  -30.2845   25.4792 C   0  0  0  0  0  0  0  0  0  0  0  0
  -25.7658  -32.1816   26.5778 C   0  0  0  0  0  0  0  0  0  0  0  0
  -27.8348  -32.6223   25.2558 C   0  0  0  0  0  0  0  0  0  0  0  0
  -22.6996  -34.9709   21.3847 C   0  0  0  0  0  0  0  0  0  0  0  0
  -23.1039  -20.6506   23.7444 C   0  0  0  0  0  0  0  0  0  0  0  0
  -25.6986  -32.0136   24.0484 C   0  0  1  0  0  0  0  0  0  0  0  0
  -23.8468  -35.2880   23.5807 C   0  0  2  0  0  0  0  0  0  0  0  0
  -26.5556  -31.7596   25.3205 C   0  0  0  0  0  0  0  0  0  0  0  0
  -30.0798  -18.7344   20.6654 N   0  0  0  0  0  0  0  0  0  0  0  0
  -30.7311  -18.5772   19.5004 N   0  0  0  0  0  0  0  0  0  0  0  0
  -25.7803  -30.6079   22.0134 N   0  0  0  0  0  0  0  0  0  0  0  0
  -29.7438  -21.7632   19.6610 N   0  0  0  0  0  0  0  0  0  0  0  0
  -31.8842  -16.9833   18.1811 N   0  0  0  0  0  0  0  0  0  0  0  0
  -30.6767  -14.6289   21.8410 N   0  0  0  0  0  0  0  0  0  0  0  0
  -27.4394  -21.5542   20.1433 N   0  0  0  0  0  0  0  0  0  0  0  0
  -19.4514  -25.5538   21.6514 N   0  0  0  0  0  0  0  0  0  0  0  0
  -21.9827  -21.5203   23.4700 N   0  0  0  0  0  0  0  0  0  0  0  0
  -27.9442  -28.1168   20.4613 N   0  0  0  0  0  0  0  0  0  0  0  0
  -25.3098  -33.4068   23.8581 N   0  0  0  0  0  0  0  0  0  0  0  0
  -22.6591  -35.5924   22.7335 N   0  3  0  0  0  0  0  0  0  0  0  0
  -20.4395  -19.8429   23.0434 O   0  0  0  0  0  0  0  0  0  0  0  0
  -31.7739  -14.5128   19.8307 O   0  0  0  0  0  0  0  0  0  0  0  0
  -26.9575  -28.4031   22.5511 O   0  0  0  0  0  0  0  0  0  0  0  0
  -27.4787  -32.1339   22.4854 O   0  0  0  0  0  0  0  0  0  0  0  0
  -23.0214  -33.0326   23.8437 O   0  0  0  0  0  0  0  0  0  0  0  0
  -28.7319  -23.1548   21.2146 O   0  0  0  0  0  0  0  0  0  0  0  0
  -21.7852  -25.4264   21.5118 O   0  0  0  0  0  0  0  0  0  0  0  0
  -27.8299  -16.5739   26.2169 O   0  0  0  0  0  0  0  0  0  0  0  0
  -20.6520  -27.3578   20.9222 O   0  0  0  0  0  0  0  0  0  1  0  0
  -22.7603  -18.5533   27.1035 F   0  0  0  0  0  0  0  0  0  0  0  0
  -27.3181  -19.2860   26.0567 F   0  0  0  0  0  0  0  0  0  0  0  0
  1  2  1  0  0  0  0
  1  7  2  0  0  0  0
  2  8  2  0  0  0  0
  3  6  1  0  0  0  0
  3 12  2  0  0  0  0
  4 15  2  0  0  0  0
  4 23  1  0  0  0  0
  5 16  1  0  0  0  0
  5 23  2  0  0  0  0
  6 24  2  0  0  0  0
  7 26  1  0  0  0  0
  8 28  1  0  0  0  0
  9 17  2  0  0  0  0
  9 27  1  0  0  0  0
 10 13  2  0  0  0  0
 10 30  1  0  0  0  0
 11 14  1  0  0  0  0
 11 30  2  0  0  0  0
 12 32  1  0  0  0  0
 13 31  1  0  0  0  0
 14 31  2  0  0  0  0
 15 33  1  0  0  0  0
 16 33  2  0  0  0  0
 17 34  1  0  0  0  0
 18 19  2  0  0  0  0
 18 35  1  0  0  0  0
 19 36  1  0  0  0  0
 20 24  1  0  0  0  0
 20 32  2  0  0  0  0
 21 29  1  0  0  0  0
 21 34  2  0  0  0  0
 22 36  2  0  0  0  0
 22 37  1  0  0  0  0
 23 38  1  0  0  0  0
 24 40  1  0  0  0  0
 25 38  1  0  0  0  0
 25 39  2  0  0  0  0
 25 41  1  0  0  0  0
 26 28  2  0  0  0  0
 26 47  1  0  0  0  0
 27 29  2  0  0  0  0
 27 48  1  0  0  0  0
 28 56  1  0  0  0  0
 29 49  1  0  0  0  0
 30 64  1  0  0  0  0
 31 74  1  0  0  0  0
 32 75  1  0  0  0  0
 33 87  1  0  0  0  0
 34 88  1  0  0  0  0
 35 37  2  0  0  0  0
 35 87  1  0  0  0  0
 36 89  1  0  0  0  0
 37 90  1  0  0  0  0
 38 68  2  0  0  0  0
 39 69  1  0  0  0  0
 39 72  1  0  0  0  0
 40 76  1  0  0  0  0
 40 80  2  0  0  0  0
 41 73  1  0  0  0  0
 41 81  2  0  0  0  0
 42 57  1  0  0  0  0
 42 77  1  0  0  0  0
 42 82  2  0  0  0  0
 43 65  1  0  0  0  0
 43 70  1  0  0  0  0
 43 83  2  0  0  0  0
 44 66  1  0  0  0  0
 44 78  1  0  0  0  0
 44 84  2  0  0  0  0
 45 71  1  0  0  0  0
 45 74  1  0  0  0  0
 45 85  2  0  0  0  0
 46 75  1  0  0  0  0
 46 86  2  0  0  0  0
 46 88  1  0  0  0  0
 47 50  1  0  0  0  0
 48 57  1  0  0  0  0
 49 70  1  0  0  0  0
 50 52  1  0  0  0  0
 51 53  1  0  0  0  0
 51 54  1  0  0  0  0
 52 56  1  0  0  0  0
 53 58  1  0  0  0  0
 54 71  1  0  0  0  0
 55 58  1  0  0  0  0
 55 71  1  0  0  0  0
 56 77  1  0  0  0  0
 57 70  1  0  0  0  0
 58 69  1  0  0  0  0
 59 66  1  0  0  0  0
 60 67  1  0  0  0  0
 61 67  1  0  0  0  0
 62 67  1  0  0  0  0
 63 79  1  0  0  0  0
 64 76  1  0  0  0  0
 65 67  1  0  0  0  0
 65 78  1  0  0  0  0
 66 79  1  0  0  0  0
 68 69  1  0  0  0  0
M  CHG  1  79   1
M  ISO  4  45 100  46 101  74 100  88 101
M  END
> <Batch ID>
0001

> <Smiles>
CNC(C)C(=O)NC(C(=O)N1Cc2cc([101O:1][101C:1](=O)Nc3cccc(C(=O)NCc4ccc([100NH:0][100C:0](=O)N5CCCC(n6nc(-c7ccc(Oc8ccc(F)cc8F)cc7)c(C(N)=O)c6N)C5)cc4)c3)ccc2CC1C(=O)NC1CCCc2ccccc21)C(C)(C)C

> <Shape>
0.260

> <Color>
0.070

> <Negative vol penalty>
0.000

$$$$

  -OEChem-04042320143D

 85 94  0     1  0  0  0  0  0999 V2000
  -25.0713  -27.7742   11.1419 C   0  0  0  0  0  0  0  0  0  0  0  0
  -25.9728  -27.3752   12.1234 C   0  0  0  0  0  0  0  0  0  0  0  0
  -23.0697   -9.8633   19.9085 C   0  0  0  0  0  0  0  0  0  0  0  0
  -23.8601   -9.7982   22.1906 C   0  0  0  0  0  0  0  0  0  0  0  0
  -23.8484  -28.3357   11.5068 C   0  0  0  0  0  0  0  0  0  0  0  0
  -25.6524  -27.5384   13.4707 C   0  0  0  0  0  0  0  0  0  0  0  0
  -26.7654  -23.4486   16.2419 C   0  0  0  0  0  0  0  0  0  0  0  0
  -31.2461  -19.1290   20.7918 C   0  0  0  0  0  0  0  0  0  0  0  0
  -31.0799  -17.7423   20.7337 C   0  0  0  0  0  0  0  0  0  0  0  0
  -22.3396   -8.6953   20.1280 C   0  0  0  0  0  0  0  0  0  0  0  0
  -23.1299   -8.6301   22.4101 C   0  0  0  0  0  0  0  0  0  0  0  0
  -28.1022  -23.2600   16.5901 C   0  0  0  0  0  0  0  0  0  0  0  0
  -19.9174   -7.7817   23.0267 C   0  0  0  0  0  0  0  0  0  0  0  0
  -19.1765   -7.6941   24.2053 C   0  0  0  0  0  0  0  0  0  0  0  0
  -27.6531  -24.1657   18.7804 C   0  0  0  0  0  0  0  0  0  0  0  0
  -29.4808  -17.8538   22.5309 C   0  0  0  0  0  0  0  0  0  0  0  0
  -20.4450   -5.7441   24.8578 C   0  0  0  0  0  0  0  0  0  0  0  0
  -23.8300  -10.4148   20.9398 C   0  0  0  0  0  0  0  0  0  0  0  0
  -24.1476  -12.9456   20.9030 C   0  0  0  0  0  0  0  0  0  0  0  0
  -23.5088  -28.4971   12.8593 C   0  0  0  0  0  0  0  0  0  0  0  0
  -25.8633  -24.0082   17.1581 C   0  0  0  0  0  0  0  0  0  0  0  0
  -24.4244  -28.1039   13.8541 C   0  0  0  0  0  0  0  0  0  0  0  0
  -26.3049  -24.3580   18.4422 C   0  0  0  0  0  0  0  0  0  0  0  0
  -30.5219  -19.8975   21.7152 C   0  0  0  0  0  0  0  0  0  0  0  0
  -30.2000  -17.1049   21.6038 C   0  0  0  0  0  0  0  0  0  0  0  0
  -29.6325  -19.2425   22.5751 C   0  0  0  0  0  0  0  0  0  0  0  0
  -22.3696   -8.0787   21.3788 C   0  0  0  0  0  0  0  0  0  0  0  0
  -28.5469  -23.6212   17.8585 C   0  0  0  0  0  0  0  0  0  0  0  0
  -20.9220   -6.8504   22.7636 C   0  0  0  0  0  0  0  0  0  0  0  0
  -19.4403   -6.6754   25.1209 C   0  0  0  0  0  0  0  0  0  0  0  0
  -21.1858   -5.8316   23.6792 C   0  0  0  0  0  0  0  0  0  0  0  0
  -24.5849  -11.6210   20.7135 C   0  0  0  0  0  0  0  0  0  0  0  0
  -25.2281  -13.7175   20.5517 C   0  0  0  0  0  0  0  0  0  0  0  0
  -29.8609  -22.0389   22.6813 C   0  0  0  0  0  0  0  0  0  0  0  0
  -22.8783  -13.4347   21.3562 C   0  0  0  0  0  0  0  0  0  0  0  0
  -24.0781  -26.6372   17.2278 C   0  0  0  0  0  0  0  0  0  0  0  0
  -22.9234  -25.3114   19.9539 C   0  0  0  0  0  0  0  0  0  0  0  0
  -23.4126  -23.1741   22.5691 C   0  0  0  0  0  0  0  0  0  0  0  0
  -30.6865  -14.8077   20.6912 C   0  0  0  0  0  0  0  0  0  0  0  0
  -22.1951  -29.1525   13.2047 C   0  0  0  0  0  0  0  0  0  0  0  0
  -24.4188  -24.1804   16.7761 C   0  0  0  0  0  0  0  0  0  0  0  0
  -25.3720  -24.9438   19.4693 C   0  0  0  0  0  0  0  0  0  0  0  0
  -28.6815  -21.2521   23.2165 C   0  0  0  0  0  0  0  0  0  0  0  0
  -21.7750  -28.9464   14.6578 C   0  0  0  0  0  0  0  0  0  0  0  0
  -29.5622  -12.4669   18.2554 C   0  0  0  0  0  0  0  0  0  0  0  0
  -22.9478  -29.2142   15.5956 C   0  0  0  0  0  0  0  0  0  0  0  0
  -28.1311  -12.1471   18.6933 C   0  0  0  0  0  0  0  0  0  0  0  0
  -30.4912  -12.6626   19.4522 C   0  0  0  0  0  0  0  0  0  0  0  0
  -28.5965  -13.3209   20.8825 C   0  0  0  0  0  0  0  0  0  0  0  0
  -24.1026  -28.2418   15.3264 C   0  0  1  0  0  0  0  0  0  0  0  0
  -23.7010  -25.2347   17.6131 C   0  0  1  0  0  0  0  0  0  0  0  0
  -27.6096  -13.1793   19.7122 C   0  0  2  0  0  0  0  0  0  0  0  0
  -22.3062  -22.3312   24.6578 C   0  0  0  0  0  0  0  0  0  0  0  0
  -23.5971  -27.9315   21.3651 C   0  0  0  0  0  0  0  0  0  0  0  0
  -23.3745  -26.7306   23.5507 C   0  0  0  0  0  0  0  0  0  0  0  0
  -21.4073  -26.9221   22.0288 C   0  0  0  0  0  0  0  0  0  0  0  0
  -23.3960  -20.3868   21.5743 C   0  0  0  0  0  0  0  0  0  0  0  0
  -31.3639  -22.2921   19.6690 C   0  0  0  0  0  0  0  0  0  0  0  0
  -31.7597  -21.9754   21.1049 C   0  0  0  0  0  0  0  0  0  0  0  0
  -30.1323  -23.1848   19.5766 C   0  0  0  0  0  0  0  0  0  1  0  0
  -23.3033  -25.3668   21.4139 C   0  0  1  0  0  0  0  0  0  0  0  0
  -22.5257  -22.0992   23.1709 C   0  0  2  0  0  0  0  0  0  0  0  0
  -22.9388  -26.7285   22.0698 C   0  0  0  0  0  0  0  0  0  0  0  0
  -25.8448  -11.5516   20.2757 N   0  0  0  0  0  0  0  0  0  0  0  0
  -26.2085  -12.8423   20.1871 N   0  0  0  0  0  0  0  0  0  0  0  0
  -30.6937  -21.3059   21.8392 N   0  0  0  0  0  0  0  0  0  0  0  0
  -23.9704  -25.0985   19.0460 N   0  0  0  0  0  0  0  0  0  0  0  0
  -29.9348  -13.6571   20.3720 N   0  0  0  0  0  0  0  0  0  0  0  0
  -25.4256  -15.0526   20.5222 N   0  0  0  0  0  0  0  0  0  0  0  0
  -21.8791  -12.5049   21.6749 N   0  0  0  0  0  0  0  0  0  0  0  0
  -30.0419  -15.6978   21.5496 N   0  0  0  0  0  0  0  0  0  0  0  0
  -23.8185  -26.9467   15.9063 N   0  0  0  0  0  0  0  0  0  0  0  0
  -22.6724  -24.2121   22.0439 N   0  0  0  0  0  0  0  0  0  0  0  0
  -23.1454  -20.7558   22.9914 N   0  3  0  0  0  0  0  0  0  0  0  0
  -29.9766  -23.2384   22.9315 O   0  0  0  0  0  0  0  0  0  0  0  0
  -22.6318  -14.6603   21.4592 O   0  0  0  0  0  0  0  0  0  0  0  0
  -24.5669  -27.3838   18.0676 O   0  0  0  0  0  0  0  0  0  0  0  0
  -21.7403  -25.4448   19.6314 O   0  0  0  0  0  0  0  0  0  0  0  0
  -24.6396  -23.1021   22.5685 O   0  0  0  0  0  0  0  0  0  0  0  0
  -31.8077  -15.0031   20.2150 O   0  0  0  0  0  0  0  0  0  0  0  0
  -28.9211  -19.9002   23.5406 O   0  0  0  0  0  0  0  0  0  0  0  0
  -21.6571   -6.9390   21.5934 O   0  0  0  0  0  0  0  0  0  0  0  0
  -29.8513  -23.4388   18.2008 O   0  0  0  0  0  0  0  0  0  1  0  0
  -18.7299   -6.5924   26.2534 F   0  0  0  0  0  0  0  0  0  0  0  0
  -22.1504   -4.9348   23.4325 F   0  0  0  0  0  0  0  0  0  0  0  0
  1  2  1  0  0  0  0
  1  5  2  0  0  0  0
  2  6  2  0  0  0  0
  3 10  2  0  0  0  0
  3 18  1  0  0  0  0
  4 11  1  0  0  0  0
  4 18  2  0  0  0  0
  5 20  1  0  0  0  0
  6 22  1  0  0  0  0
  7 12  2  0  0  0  0
  7 21  1  0  0  0  0
  8  9  2  0  0  0  0
  8 24  1  0  0  0  0
  9 25  1  0  0  0  0
 10 27  1  0  0  0  0
 11 27  2  0  0  0  0
 12 28  1  0  0  0  0
 13 14  2  0  0  0  0
 13 29  1  0  0  0  0
 14 30  1  0  0  0  0
 15 23  1  0  0  0  0
 15 28  2  0  0  0  0
 16 25  2  0  0  0  0
 16 26  1  0  0  0  0
 17 30  2  0  0  0  0
 17 31  1  0  0  0  0
 18 32  1  0  0  0  0
 19 32  1  0  0  0  0
 19 33  2  0  0  0  0
 19 35  1  0  0  0  0
 20 22  2  0  0  0  0
 20 40  1  0  0  0  0
 21 23  2  0  0  0  0
 21 41  1  0  0  0  0
 22 50  1  0  0  0  0
 23 42  1  0  0  0  0
 24 26  2  0  0  0  0
 24 66  1  0  0  0  0
 25 71  1  0  0  0  0
 26 81  1  0  0  0  0
 27 82  1  0  0  0  0
 28 83  1  0  0  0  0
 29 31  2  0  0  0  0
 29 82  1  0  0  0  0
 30 84  1  0  0  0  0
 31 85  1  0  0  0  0
 32 64  2  0  0  0  0
 33 65  1  0  0  0  0
 33 69  1  0  0  0  0
 34 43  1  0  0  0  0
 34 66  1  0  0  0  0
 34 75  2  0  0  0  0
 35 70  1  0  0  0  0
 35 76  2  0  0  0  0
 36 51  1  0  0  0  0
 36 72  1  0  0  0  0
 36 77  2  0  0  0  0
 37 61  1  0  0  0  0
 37 67  1  0  0  0  0
 37 78  2  0  0  0  0
 38 62  1  0  0  0  0
 38 73  1  0  0  0  0
 38 79  2  0  0  0  0
 39 68  1  0  0  0  0
 39 71  1  0  0  0  0
 39 80  2  0  0  0  0
 40 44  1  0  0  0  0
 41 51  1  0  0  0  0
 42 67  1  0  0  0  0
 43 81  1  0  0  0  0
 44 46  1  0  0  0  0
 45 47  1  0  0  0  0
 45 48  1  0  0  0  0
 46 50  1  0  0  0  0
 47 52  1  0  0  0  0
 48 68  1  0  0  0  0
 49 52  1  0  0  0  0
 49 68  1  0  0  0  0
 50 72  1  0  0  0  0
 51 67  1  0  0  0  0
 52 65  1  0  0  0  0
 53 62  1  0  0  0  0
 54 63  1  0  0  0  0
 55 63  1  0  0  0  0
 56 63  1  0  0  0  0
 57 74  1  0  0  0  0
 58 59  1  0  0  0  0
 58 60  1  0  0  0  0
 59 66  1  0  0  0  0
 60 83  1  0  0  0  0
 61 63  1  0  0  0  0
 61 73  1  0  0  0  0
 62 74  1  0  0  0  0
 64 65  1  0  0  0  0
M  CHG  1  74   1
M  ISO  4  39 100  60 101  71 100  83 101
M  END
> <Batch ID>
0001

> <Smiles>
CNC(C)C(=O)NC(C(=O)N1Cc2cc([101O:1][101CH2:1]CCN3C(=O)COc4cc([100NH:0][100C:0](=O)N5CCCC(n6nc(-c7ccc(Oc8ccc(F)cc8F)cc7)c(C(N)=O)c6N)C5)ccc43)ccc2CC1C(=O)NC1CCCc2ccccc21)C(C)(C)C

> <Shape>
0.226

> <Color>
0.192

> <Negative vol penalty>
0.000

$$$$

  -OEChem-04042320143D

 93101  0     1  0  0  0  0  0999 V2000
  -30.6610  -35.5434   23.2692 C   0  0  0  0  0  0  0  0  0  0  0  0
  -30.5726  -34.6469   22.2090 C   0  0  0  0  0  0  0  0  0  0  0  0
  -26.2427  -12.8670   21.6990 C   0  0  0  0  0  0  0  0  0  0  0  0
  -25.9432  -13.3589   19.3527 C   0  0  0  0  0  0  0  0  0  0  0  0
  -30.0765  -35.2305   24.4957 C   0  0  0  0  0  0  0  0  0  0  0  0
  -29.9006  -33.4364   22.3752 C   0  0  0  0  0  0  0  0  0  0  0  0
  -25.8981  -28.7296   18.7500 C   0  0  0  0  0  0  0  0  0  0  0  0
  -25.6753  -20.6820   19.7171 C   0  0  0  0  0  0  0  0  0  0  0  0
  -23.8469  -21.1293   18.2026 C   0  0  0  0  0  0  0  0  0  0  0  0
  -25.6314  -22.0038   20.1605 C   0  0  0  0  0  0  0  0  0  0  0  0
  -23.8029  -22.4511   18.6460 C   0  0  0  0  0  0  0  0  0  0  0  0
  -25.0244  -12.1878   21.7121 C   0  0  0  0  0  0  0  0  0  0  0  0
  -24.7250  -12.6797   19.3657 C   0  0  0  0  0  0  0  0  0  0  0  0
  -25.8343  -27.3672   18.4611 C   0  0  0  0  0  0  0  0  0  0  0  0
  -21.5488  -13.2794   20.3573 C   0  0  0  0  0  0  0  0  0  0  0  0
  -20.4627  -13.8843   19.7247 C   0  0  0  0  0  0  0  0  0  0  0  0
  -24.7951  -26.9682   20.6012 C   0  0  0  0  0  0  0  0  0  0  0  0
  -20.2770  -11.9919   18.2341 C   0  0  0  0  0  0  0  0  0  0  0  0
  -26.7021  -13.4526   20.5193 C   0  0  0  0  0  0  0  0  0  0  0  0
  -29.2313  -13.6162   20.2299 C   0  0  0  0  0  0  0  0  0  0  0  0
  -29.3887  -34.0199   24.6741 C   0  0  0  0  0  0  0  0  0  0  0  0
  -25.4200  -29.2210   19.9733 C   0  0  0  0  0  0  0  0  0  0  0  0
  -29.3075  -33.1065   23.6057 C   0  0  0  0  0  0  0  0  0  0  0  0
  -24.8516  -28.3377   20.9021 C   0  0  0  0  0  0  0  0  0  0  0  0
  -24.7831  -20.2448   18.7381 C   0  0  0  0  0  0  0  0  0  0  0  0
  -24.6952  -22.8883   19.6250 C   0  0  0  0  0  0  0  0  0  0  0  0
  -24.2656  -12.0941   20.5455 C   0  0  0  0  0  0  0  0  0  0  0  0
  -25.2853  -26.4859   19.3879 C   0  0  0  0  0  0  0  0  0  0  0  0
  -21.9990  -12.0308   19.9283 C   0  0  0  0  0  0  0  0  0  0  0  0
  -19.8268  -13.2405   18.6632 C   0  0  0  0  0  0  0  0  0  0  0  0
  -21.3631  -11.3871   18.8667 C   0  0  0  0  0  0  0  0  0  0  0  0
  -27.9601  -14.1548   20.5053 C   0  0  0  0  0  0  0  0  0  0  0  0
  -30.0884  -14.6835   20.3434 C   0  0  0  0  0  0  0  0  0  0  0  0
  -29.6040  -12.2714   19.9008 C   0  0  0  0  0  0  0  0  0  0  0  0
  -26.7236  -30.7332   22.4467 C   0  0  0  0  0  0  0  0  0  0  0  0
  -23.6467  -30.9155   23.4578 C   0  0  0  0  0  0  0  0  0  0  0  0
  -20.4824  -29.6416   23.3531 C   0  0  0  0  0  0  0  0  0  0  0  0
  -29.3352  -20.5962   19.7742 C   0  0  0  0  0  0  0  0  0  0  0  0
  -28.8137  -33.7049   26.0324 C   0  0  0  0  0  0  0  0  0  0  0  0
  -25.4718  -30.6969   20.2586 C   0  0  0  0  0  0  0  0  0  0  0  0
  -24.3059  -28.8173   22.2214 C   0  0  0  0  0  0  0  0  0  0  0  0
  -27.7974  -32.5660   26.0145 C   0  0  0  0  0  0  0  0  0  0  0  0
  -30.5846  -18.8615   22.6214 C   0  0  0  0  0  0  0  0  0  0  0  0
  -28.3273  -31.3905   25.1995 C   0  0  0  0  0  0  0  0  0  0  0  0
  -30.1684  -17.4099   22.3770 C   0  0  0  0  0  0  0  0  0  0  0  0
  -29.5249  -19.8434   22.1266 C   0  0  0  0  0  0  0  0  0  0  0  0
  -28.7024  -18.2081   20.4764 C   0  0  0  0  0  0  0  0  0  0  0  0
  -28.5657  -31.7943   23.7395 C   0  0  1  0  0  0  0  0  0  0  0  0
  -25.4240  -31.0194   21.7489 C   0  0  1  0  0  0  0  0  0  0  0  0
  -29.7642  -17.1822   20.9080 C   0  0  2  0  0  0  0  0  0  0  0  0
  -18.1899  -29.9798   24.3161 C   0  0  0  0  0  0  0  0  0  0  0  0
  -24.5657  -29.6572   26.0812 C   0  0  0  0  0  0  0  0  0  0  0  0
  -22.1685  -29.1533   26.5985 C   0  0  0  0  0  0  0  0  0  0  0  0
  -22.9159  -31.5190   26.3387 C   0  0  0  0  0  0  0  0  0  0  0  0
  -19.3091  -30.1474   20.6836 C   0  0  0  0  0  0  0  0  0  0  0  0
  -24.8294  -18.8318   18.2635 C   0  0  0  0  0  0  0  0  0  0  0  0
  -24.6474  -24.3095   20.1037 C   0  0  0  0  0  0  0  0  0  1  0  0
  -25.7758  -18.6547   17.0680 C   0  0  0  0  0  0  0  0  0  0  0  0
  -29.1044  -21.1972   17.3774 C   0  0  0  0  0  0  0  0  0  0  0  0
  -25.7864  -17.2230   16.5506 C   0  0  0  0  0  0  0  0  0  0  0  0
  -30.4715  -21.1475   16.7187 C   0  0  0  0  0  0  0  0  0  0  0  0
  -26.7472  -15.8173   14.9308 C   0  0  0  0  0  0  0  0  0  0  0  0
  -31.9775  -19.7433   15.5860 C   0  0  0  0  0  0  0  0  0  0  0  0
  -27.7094  -15.7939   13.7588 C   0  0  0  0  0  0  0  0  0  0  0  0
  -32.1783  -18.3241   15.0908 C   0  0  0  0  0  0  0  0  0  0  0  0
  -29.9402  -16.2055   13.1447 C   0  0  0  0  0  0  0  0  0  0  0  0
  -31.2804  -16.6771   13.6751 C   0  0  0  0  0  0  0  0  0  0  0  0
  -22.7427  -30.0423   24.2939 C   0  0  1  0  0  0  0  0  0  0  0  0
  -19.1325  -30.3113   23.1696 C   0  0  2  0  0  0  0  0  0  0  0  0
  -23.1102  -30.0833   25.8041 C   0  0  0  0  0  0  0  0  0  0  0  0
  -28.0014  -15.4626   20.7737 N   0  0  0  0  0  0  0  0  0  0  0  0
  -29.3088  -15.7547   20.6676 N   0  0  0  0  0  0  0  0  0  0  0  0
  -24.3850  -30.2685   22.4567 N   0  0  0  0  0  0  0  0  0  0  0  0
  -29.1875  -19.5744   20.7267 N   0  0  0  0  0  0  0  0  0  0  0  0
  -31.4252  -14.8007   20.1967 N   0  0  0  0  0  0  0  0  0  0  0  0
  -28.5980  -11.2985   19.8260 N   0  0  0  0  0  0  0  0  0  0  0  0
  -27.3122  -31.8452   23.0180 N   0  0  0  0  0  0  0  0  0  0  0  0
  -21.3784  -30.4669   23.9992 N   0  0  0  0  0  0  0  0  0  0  0  0
  -28.9995  -20.2555   18.4696 N   0  0  0  0  0  0  0  0  0  0  0  0
  -18.5004  -29.8627   21.8968 N   0  3  0  0  0  0  0  0  0  0  0  0
  -30.7961  -11.9389   19.6958 O   0  0  0  0  0  0  0  0  0  0  0  0
  -27.1592  -29.5880   22.4665 O   0  0  0  0  0  0  0  0  0  0  0  0
  -23.6908  -32.1281   23.6799 O   0  0  0  0  0  0  0  0  0  0  0  0
  -20.7173  -28.4991   22.9656 O   0  0  0  0  0  0  0  0  0  0  0  0
  -29.7417  -21.7265   20.0639 O   0  0  0  0  0  0  0  0  0  0  0  0
  -23.0769  -11.4312   20.5579 O   0  0  0  0  0  0  0  0  0  0  0  0
  -25.2224  -25.1555   19.1087 O   0  0  0  0  0  0  0  0  0  1  0  0
  -26.6925  -17.1355   15.4597 O   0  0  0  0  0  0  0  0  0  0  0  0
  -30.7050  -19.8400   16.2143 O   0  0  0  0  0  0  0  0  0  0  0  0
  -28.9949  -16.2083   14.2053 O   0  0  0  0  0  0  0  0  0  0  0  0
  -31.1419  -18.0021   14.1739 O   0  0  0  0  0  0  0  0  0  0  0  0
  -18.7829  -13.8208   18.0568 F   0  0  0  0  0  0  0  0  0  0  0  0
  -21.7904  -10.1869   18.4509 F   0  0  0  0  0  0  0  0  0  0  0  0
  1  2  1  0  0  0  0
  1  5  2  0  0  0  0
  2  6  2  0  0  0  0
  3 12  2  0  0  0  0
  3 19  1  0  0  0  0
  4 13  1  0  0  0  0
  4 19  2  0  0  0  0
  5 21  1  0  0  0  0
  6 23  1  0  0  0  0
  7 14  2  0  0  0  0
  7 22  1  0  0  0  0
  8 10  2  0  0  0  0
  8 25  1  0  0  0  0
  9 11  1  0  0  0  0
  9 25  2  0  0  0  0
 10 26  1  0  0  0  0
 11 26  2  0  0  0  0
 12 27  1  0  0  0  0
 13 27  2  0  0  0  0
 14 28  1  0  0  0  0
 15 16  2  0  0  0  0
 15 29  1  0  0  0  0
 16 30  1  0  0  0  0
 17 24  1  0  0  0  0
 17 28  2  0  0  0  0
 18 30  2  0  0  0  0
 18 31  1  0  0  0  0
 19 32  1  0  0  0  0
 20 32  1  0  0  0  0
 20 33  2  0  0  0  0
 20 34  1  0  0  0  0
 21 23  2  0  0  0  0
 21 39  1  0  0  0  0
 22 24  2  0  0  0  0
 22 40  1  0  0  0  0
 23 48  1  0  0  0  0
 24 41  1  0  0  0  0
 25 56  1  0  0  0  0
 26 57  1  0  0  0  0
 27 86  1  0  0  0  0
 28 87  1  0  0  0  0
 29 31  2  0  0  0  0
 29 86  1  0  0  0  0
 30 92  1  0  0  0  0
 31 93  1  0  0  0  0
 32 71  2  0  0  0  0
 33 72  1  0  0  0  0
 33 75  1  0  0  0  0
 34 76  1  0  0  0  0
 34 81  2  0  0  0  0
 35 49  1  0  0  0  0
 35 77  1  0  0  0  0
 35 82  2  0  0  0  0
 36 68  1  0  0  0  0
 36 73  1  0  0  0  0
 36 83  2  0  0  0  0
 37 69  1  0  0  0  0
 37 78  1  0  0  0  0
 37 84  2  0  0  0  0
 38 74  1  0  0  0  0
 38 79  1  0  0  0  0
 38 85  2  0  0  0  0
 39 42  1  0  0  0  0
 40 49  1  0  0  0  0
 41 73  1  0  0  0  0
 42 44  1  0  0  0  0
 43 45  1  0  0  0  0
 43 46  1  0  0  0  0
 44 48  1  0  0  0  0
 45 50  1  0  0  0  0
 46 74  1  0  0  0  0
 47 50  1  0  0  0  0
 47 74  1  0  0  0  0
 48 77  1  0  0  0  0
 49 73  1  0  0  0  0
 50 72  1  0  0  0  0
 51 69  1  0  0  0  0
 52 70  1  0  0  0  0
 53 70  1  0  0  0  0
 54 70  1  0  0  0  0
 55 80  1  0  0  0  0
 56 58  1  0  0  0  0
 57 87  1  0  0  0  0
 58 60  1  0  0  0  0
 59 61  1  0  0  0  0
 59 79  1  0  0  0  0
 60 88  1  0  0  0  0
 61 89  1  0  0  0  0
 62 64  1  0  0  0  0
 62 88  1  0  0  0  0
 63 65  1  0  0  0  0
 63 89  1  0  0  0  0
 64 90  1  0  0  0  0
 65 91  1  0  0  0  0
 66 67  1  0  0  0  0
 66 90  1  0  0  0  0
 67 91  1  0  0  0  0
 68 70  1  0  0  0  0
 68 78  1  0  0  0  0
 69 80  1  0  0  0  0
 71 72  1  0  0  0  0
M  CHG  1  80   1
M  ISO  4  38 100  57 101  79 100  87 101
M  END
> <Batch ID>
0001

> <Smiles>
CNC(C)C(=O)NC(C(=O)N1Cc2cc([101O:1][101CH2:1]c3ccc(CCCOCCOCCOCCOCC[100NH:0][100C:0](=O)N4CCCC(n5nc(-c6ccc(Oc7ccc(F)cc7F)cc6)c(C(N)=O)c5N)C4)cc3)ccc2CC1C(=O)NC1CCCc2ccccc21)C(C)(C)C

> <Shape>
0.248

> <Color>
0.077

> <Negative vol penalty>
0.000

$$$$

  -OEChem-04042320143D

 81 89  0     1  0  0  0  0  0999 V2000
  -21.0027   -7.5050   23.6390 C   0  0  0  0  0  0  0  0  0  0  0  0
  -21.8937   -8.1427   24.4963 C   0  0  0  0  0  0  0  0  0  0  0  0
  -22.0736  -28.0730   21.0658 C   0  0  0  0  0  0  0  0  0  0  0  0
  -23.3308  -27.5675   23.0660 C   0  0  0  0  0  0  0  0  0  0  0  0
  -21.0970   -7.7054   22.2625 C   0  0  0  0  0  0  0  0  0  0  0  0
  -22.8803   -8.9803   23.9774 C   0  0  0  0  0  0  0  0  0  0  0  0
  -26.5541  -14.9242   25.5555 C   0  0  0  0  0  0  0  0  0  0  0  0
  -30.8429  -20.5191   21.9178 C   0  0  0  0  0  0  0  0  0  0  0  0
  -30.6715  -22.1352   23.7055 C   0  0  0  0  0  0  0  0  0  0  0  0
  -30.2599  -21.4308   21.0377 C   0  0  0  0  0  0  0  0  0  0  0  0
  -30.0885  -23.0469   22.8253 C   0  0  0  0  0  0  0  0  0  0  0  0
  -20.8840  -27.9638   21.7859 C   0  0  0  0  0  0  0  0  0  0  0  0
  -22.1412  -27.4583   23.7861 C   0  0  0  0  0  0  0  0  0  0  0  0
  -27.8656  -15.3908   25.6340 C   0  0  0  0  0  0  0  0  0  0  0  0
  -19.0896  -29.8606   23.9342 C   0  0  0  0  0  0  0  0  0  0  0  0
  -18.1210  -30.8450   23.7389 C   0  0  0  0  0  0  0  0  0  0  0  0
  -27.8835  -15.7245   23.2450 C   0  0  0  0  0  0  0  0  0  0  0  0
  -16.5622  -29.1611   22.9828 C   0  0  0  0  0  0  0  0  0  0  0  0
  -23.2970  -27.8748   21.7059 C   0  0  0  0  0  0  0  0  0  0  0  0
  -25.3002  -29.1468   20.7694 C   0  0  0  0  0  0  0  0  0  0  0  0
  -22.0792   -8.5535   21.7271 C   0  0  0  0  0  0  0  0  0  0  0  0
  -25.9002  -14.8438   24.3176 C   0  0  0  0  0  0  0  0  0  0  0  0
  -22.9888   -9.1912   22.5923 C   0  0  0  0  0  0  0  0  0  0  0  0
  -26.5629  -15.2589   23.1538 C   0  0  0  0  0  0  0  0  0  0  0  0
  -31.0486  -20.8713   23.2517 C   0  0  0  0  0  0  0  0  0  0  0  0
  -29.8828  -22.6947   21.4914 C   0  0  0  0  0  0  0  0  0  0  0  0
  -20.9178  -27.6565   23.1460 C   0  0  0  0  0  0  0  0  0  0  0  0
  -28.5314  -15.7884   24.4783 C   0  0  0  0  0  0  0  0  0  0  0  0
  -18.7946  -28.5264   23.6538 C   0  0  0  0  0  0  0  0  0  0  0  0
  -16.8572  -30.4953   23.2632 C   0  0  0  0  0  0  0  0  0  0  0  0
  -17.5309  -28.1766   23.1782 C   0  0  0  0  0  0  0  0  0  0  0  0
  -24.5262  -27.9869   20.9624 C   0  0  0  0  0  0  0  0  0  0  0  0
  -26.3584  -28.7293   19.9998 C   0  0  0  0  0  0  0  0  0  0  0  0
  -25.0821  -30.4823   21.2435 C   0  0  0  0  0  0  0  0  0  0  0  0
  -24.6642  -12.4845   22.5827 C   0  0  0  0  0  0  0  0  0  0  0  0
  -23.6464  -14.9237   20.7021 C   0  0  0  0  0  0  0  0  0  0  0  0
  -24.0625  -18.1467   19.6600 C   0  0  0  0  0  0  0  0  0  0  0  0
  -29.0166  -23.4315   19.2435 C   0  0  0  0  0  0  0  0  0  0  0  0
  -22.1720   -8.7020   20.2291 C   0  0  0  0  0  0  0  0  0  0  0  0
  -24.4763  -14.3633   24.2533 C   0  0  0  0  0  0  0  0  0  0  0  0
  -25.8983  -15.2113   21.8030 C   0  0  0  0  0  0  0  0  0  0  0  0
  -23.0091   -9.8993   19.7864 C   0  0  0  0  0  0  0  0  0  0  0  0
  -27.5350  -25.4511   16.7130 C   0  0  0  0  0  0  0  0  0  0  0  0
  -24.3179   -9.9540   20.5681 C   0  0  0  0  0  0  0  0  0  0  0  0
  -26.6705  -26.4400   17.4983 C   0  0  0  0  0  0  0  0  0  0  0  0
  -27.5333  -24.0638   17.3527 C   0  0  0  0  0  0  0  0  0  0  0  0
  -27.0235  -25.0256   19.5628 C   0  0  0  0  0  0  0  0  0  0  0  0
  -24.0570  -10.1269   22.0693 C   0  0  1  0  0  0  0  0  0  0  0  0
  -24.0842  -13.8394   22.8751 C   0  0  1  0  0  0  0  0  0  0  0  0
  -27.0461  -26.4534   18.9931 C   0  0  2  0  0  0  0  0  0  0  0  0
  -23.0993  -19.8483   18.0871 C   0  0  0  0  0  0  0  0  0  0  0  0
  -24.9775  -13.5023   18.3531 C   0  0  0  0  0  0  0  0  0  0  0  0
  -24.8202  -15.6405   17.0603 C   0  0  0  0  0  0  0  0  0  0  0  0
  -22.7427  -14.4998   17.8382 C   0  0  0  0  0  0  0  0  0  0  0  0
  -23.3940  -19.9888   21.8778 C   0  0  0  0  0  0  0  0  0  0  0  0
  -31.6757  -19.8905   24.1984 C   0  0  0  0  0  0  0  0  0  0  0  0
  -30.1982  -16.9031   25.7570 C   0  0  0  0  0  0  0  0  0  1  0  0
  -31.2604  -17.9370   25.4370 C   0  0  0  0  0  0  0  0  0  0  0  0
  -24.2169  -15.6745   19.5231 C   0  0  1  0  0  0  0  0  0  0  0  0
  -23.0758  -19.2893   19.5012 C   0  0  2  0  0  0  0  0  0  0  0  0
  -24.2028  -14.8285   18.2187 C   0  0  0  0  0  0  0  0  0  0  0  0
  -25.0482  -26.9131   20.3636 N   0  0  0  0  0  0  0  0  0  0  0  0
  -26.1614  -27.3967   19.7866 N   0  0  0  0  0  0  0  0  0  0  0  0
  -24.5076  -14.7281   21.7911 N   0  0  0  0  0  0  0  0  0  0  0  0
  -27.9024  -24.1543   18.7671 N   0  0  0  0  0  0  0  0  0  0  0  0
  -27.4288  -29.3759   19.4912 N   0  0  0  0  0  0  0  0  0  0  0  0
  -23.9449  -30.7376   22.0218 N   0  0  0  0  0  0  0  0  0  0  0  0
  -29.2908  -23.6211   20.5975 N   0  0  0  0  0  0  0  0  0  0  0  0
  -23.7171  -11.5014   22.3682 N   0  0  0  0  0  0  0  0  0  0  0  0
  -23.4681  -16.9234   19.4335 N   0  0  0  0  0  0  0  0  0  0  0  0
  -23.4038  -20.3924   20.4481 N   0  3  0  0  0  0  0  0  0  0  0  0
  -25.8636  -31.4248   20.9707 O   0  0  0  0  0  0  0  0  0  0  0  0
  -25.8809  -12.3419   22.5524 O   0  0  0  0  0  0  0  0  0  0  0  0
  -22.4776  -14.5317   20.6613 O   0  0  0  0  0  0  0  0  0  0  0  0
  -25.2434  -18.3221   19.9518 O   0  0  0  0  0  0  0  0  0  0  0  0
  -29.6950  -22.7195   18.4986 O   0  0  0  0  0  0  0  0  0  0  0  0
  -19.7572  -27.5501   23.8491 O   0  0  0  0  0  0  0  0  0  0  0  0
  -29.8117  -16.2436   24.5520 O   0  0  0  0  0  0  0  0  0  1  0  0
  -30.7185  -18.8971   24.5383 O   0  0  0  0  0  0  0  0  0  0  0  0
  -15.9266  -31.4405   23.0771 F   0  0  0  0  0  0  0  0  0  0  0  0
  -17.2412  -26.8964   22.9081 F   0  0  0  0  0  0  0  0  0  0  0  0
  1  2  1  0  0  0  0
  1  5  2  0  0  0  0
  2  6  2  0  0  0  0
  3 12  2  0  0  0  0
  3 19  1  0  0  0  0
  4 13  1  0  0  0  0
  4 19  2  0  0  0  0
  5 21  1  0  0  0  0
  6 23  1  0  0  0  0
  7 14  2  0  0  0  0
  7 22  1  0  0  0  0
  8 10  2  0  0  0  0
  8 25  1  0  0  0  0
  9 11  1  0  0  0  0
  9 25  2  0  0  0  0
 10 26  1  0  0  0  0
 11 26  2  0  0  0  0
 12 27  1  0  0  0  0
 13 27  2  0  0  0  0
 14 28  1  0  0  0  0
 15 16  2  0  0  0  0
 15 29  1  0  0  0  0
 16 30  1  0  0  0  0
 17 24  1  0  0  0  0
 17 28  2  0  0  0  0
 18 30  2  0  0  0  0
 18 31  1  0  0  0  0
 19 32  1  0  0  0  0
 20 32  1  0  0  0  0
 20 33  2  0  0  0  0
 20 34  1  0  0  0  0
 21 23  2  0  0  0  0
 21 39  1  0  0  0  0
 22 24  2  0  0  0  0
 22 40  1  0  0  0  0
 23 48  1  0  0  0  0
 24 41  1  0  0  0  0
 25 56  1  0  0  0  0
 26 68  1  0  0  0  0
 27 77  1  0  0  0  0
 28 78  1  0  0  0  0
 29 31  2  0  0  0  0
 29 77  1  0  0  0  0
 30 80  1  0  0  0  0
 31 81  1  0  0  0  0
 32 62  2  0  0  0  0
 33 63  1  0  0  0  0
 33 66  1  0  0  0  0
 34 67  1  0  0  0  0
 34 72  2  0  0  0  0
 35 49  1  0  0  0  0
 35 69  1  0  0  0  0
 35 73  2  0  0  0  0
 36 59  1  0  0  0  0
 36 64  1  0  0  0  0
 36 74  2  0  0  0  0
 37 60  1  0  0  0  0
 37 70  1  0  0  0  0
 37 75  2  0  0  0  0
 38 65  1  0  0  0  0
 38 68  1  0  0  0  0
 38 76  2  0  0  0  0
 39 42  1  0  0  0  0
 40 49  1  0  0  0  0
 41 64  1  0  0  0  0
 42 44  1  0  0  0  0
 43 45  1  0  0  0  0
 43 46  1  0  0  0  0
 44 48  1  0  0  0  0
 45 50  1  0  0  0  0
 46 65  1  0  0  0  0
 47 50  1  0  0  0  0
 47 65  1  0  0  0  0
 48 69  1  0  0  0  0
 49 64  1  0  0  0  0
 50 63  1  0  0  0  0
 51 60  1  0  0  0  0
 52 61  1  0  0  0  0
 53 61  1  0  0  0  0
 54 61  1  0  0  0  0
 55 71  1  0  0  0  0
 56 79  1  0  0  0  0
 57 58  1  0  0  0  0
 57 78  1  0  0  0  0
 58 79  1  0  0  0  0
 59 61  1  0  0  0  0
 59 70  1  0  0  0  0
 60 71  1  0  0  0  0
 62 63  1  0  0  0  0
M  CHG  1  71   1
M  ISO  4  38 100  57 101  68 100  78 101
M  END
> <Batch ID>
0001

> <Smiles>
CNC(C)C(=O)NC(C(=O)N1Cc2cc([101O:1][101CH2:1]COCc3ccc([100NH:0][100C:0](=O)N4CCCC(n5nc(-c6ccc(Oc7ccc(F)cc7F)cc6)c(C(N)=O)c5N)C4)cc3)ccc2CC1C(=O)NC1CCCc2ccccc21)C(C)(C)C

> <Shape>
0.217

> <Color>
0.081

> <Negative vol penalty>
0.000

$$$$

  -OEChem-04042320143D

 83 91  0     1  0  0  0  0  0999 V2000
  -29.9787  -25.4040   17.3573 C   0  0  0  0  0  0  0  0  0  0  0  0
  -28.6670  -25.2354   17.7889 C   0  0  0  0  0  0  0  0  0  0  0  0
  -28.5735  -12.8928   19.1835 C   0  0  0  0  0  0  0  0  0  0  0  0
  -28.2659  -14.0556   21.2789 C   0  0  0  0  0  0  0  0  0  0  0  0
  -19.6748  -19.8186   21.9317 C   0  0  0  0  0  0  0  0  0  0  0  0
  -20.9804  -18.9994   23.7921 C   0  0  0  0  0  0  0  0  0  0  0  0
  -30.8727  -26.1513   18.1230 C   0  0  0  0  0  0  0  0  0  0  0  0
  -28.2487  -25.8130   18.9871 C   0  0  0  0  0  0  0  0  0  0  0  0
  -22.7080  -28.1059   20.2319 C   0  0  0  0  0  0  0  0  0  0  0  0
  -19.9907  -18.6710   21.2046 C   0  0  0  0  0  0  0  0  0  0  0  0
  -21.2963  -17.8516   23.0650 C   0  0  0  0  0  0  0  0  0  0  0  0
  -29.9018  -13.3165   19.1434 C   0  0  0  0  0  0  0  0  0  0  0  0
  -29.5942  -14.4793   21.2388 C   0  0  0  0  0  0  0  0  0  0  0  0
  -21.6033  -27.5792   20.8997 C   0  0  0  0  0  0  0  0  0  0  0  0
  -31.4021  -16.8639   19.6653 C   0  0  0  0  0  0  0  0  0  0  0  0
  -31.6657  -18.1997   19.9684 C   0  0  0  0  0  0  0  0  0  0  0  0
  -22.3129  -28.6771   22.9271 C   0  0  0  0  0  0  0  0  0  0  0  0
  -33.0661  -17.5053   21.8107 C   0  0  0  0  0  0  0  0  0  0  0  0
  -27.7555  -13.2624   20.2513 C   0  0  0  0  0  0  0  0  0  0  0  0
  -20.1697  -19.9829   23.2254 C   0  0  0  0  0  0  0  0  0  0  0  0
  -25.8842  -11.6448   20.8752 C   0  0  0  0  0  0  0  0  0  0  0  0
  -30.4625  -26.7465   19.3264 C   0  0  0  0  0  0  0  0  0  0  0  0
  -23.6309  -28.9147   20.9106 C   0  0  0  0  0  0  0  0  0  0  0  0
  -29.1384  -26.5679   19.7704 C   0  0  0  0  0  0  0  0  0  0  0  0
  -23.4271  -29.2150   22.2650 C   0  0  0  0  0  0  0  0  0  0  0  0
  -20.8014  -17.6875   21.7713 C   0  0  0  0  0  0  0  0  0  0  0  0
  -30.4122  -14.1097   20.1710 C   0  0  0  0  0  0  0  0  0  0  0  0
  -21.4072  -27.8624   22.2482 C   0  0  0  0  0  0  0  0  0  0  0  0
  -31.9704  -15.8488   20.4350 C   0  0  0  0  0  0  0  0  0  0  0  0
  -32.4977  -18.5204   21.0411 C   0  0  0  0  0  0  0  0  0  0  0  0
  -32.8024  -16.1695   21.5076 C   0  0  0  0  0  0  0  0  0  0  0  0
  -26.3831  -12.8255   20.2930 C   0  0  0  0  0  0  0  0  0  0  0  0
  -24.5304  -11.6960   20.6490 C   0  0  0  0  0  0  0  0  0  0  0  0
  -19.8361  -21.1936   23.9941 C   0  0  0  0  0  0  0  0  0  0  0  0
  -19.4071  -22.3511   23.4672 C   0  0  0  0  0  0  0  0  0  0  0  0
  -26.5820  -10.5957   21.5593 C   0  0  0  0  0  0  0  0  0  0  0  0
  -26.7293  -28.7004   21.5873 C   0  0  0  0  0  0  0  0  0  0  0  0
  -26.2915  -31.7083   22.7203 C   0  0  0  0  0  0  0  0  0  0  0  0
  -24.1451  -34.0516   23.9647 C   0  0  0  0  0  0  0  0  0  0  0  0
  -20.7109  -16.2004   19.7398 C   0  0  0  0  0  0  0  0  0  0  0  0
  -31.4776  -27.5058   20.1436 C   0  0  0  0  0  0  0  0  0  0  0  0
  -24.8030  -29.4970   20.1692 C   0  0  0  0  0  0  0  0  0  0  0  0
  -24.3777  -30.0945   23.0340 C   0  0  0  0  0  0  0  0  0  0  0  0
  -30.8537  -28.3979   21.2138 C   0  0  0  0  0  0  0  0  0  0  0  0
  -21.3126  -13.4468   17.5643 C   0  0  0  0  0  0  0  0  0  0  0  0
  -29.7781  -27.6370   21.9825 C   0  0  0  0  0  0  0  0  0  0  0  0
  -22.6327  -12.8638   18.0740 C   0  0  0  0  0  0  0  0  0  0  0  0
  -21.2916  -14.9713   17.6596 C   0  0  0  0  0  0  0  0  0  0  0  0
  -22.9350  -14.9321   19.4945 C   0  0  0  0  0  0  0  0  0  0  0  0
  -28.6402  -27.1996   21.0521 C   0  0  1  0  0  0  0  0  0  0  0  0
  -25.9564  -29.8883   21.0879 C   0  0  1  0  0  0  0  0  0  0  0  0
  -22.9784  -13.3954   19.4788 C   0  0  2  0  0  0  0  0  0  0  0  0
  -24.0867  -36.4042   24.8363 C   0  0  0  0  0  0  0  0  0  0  0  0
  -27.5187  -30.7624   25.3488 C   0  0  0  0  0  0  0  0  0  0  0  0
  -26.5797  -32.8091   26.4431 C   0  0  0  0  0  0  0  0  0  0  0  0
  -28.2572  -33.0349   24.6108 C   0  0  0  0  0  0  0  0  0  0  0  0
  -22.2948  -34.9217   21.8251 C   0  0  0  0  0  0  0  0  0  0  0  0
  -19.0668  -23.5518   24.2916 C   0  0  0  0  0  0  0  0  0  0  0  0
  -19.5486  -25.9669   24.7086 C   0  0  0  0  0  0  0  0  0  0  0  0
  -20.4807  -27.0897   24.2977 C   0  0  0  0  0  0  0  0  0  1  0  0
  -25.9026  -32.3029   24.0522 C   0  0  1  0  0  0  0  0  0  0  0  0
  -23.9355  -35.5134   23.6130 C   0  0  2  0  0  0  0  0  0  0  0  0
  -27.0475  -32.2091   25.1000 C   0  0  0  0  0  0  0  0  0  0  0  0
  -25.4243  -13.5720   19.7385 N   0  0  0  0  0  0  0  0  0  0  0  0
  -24.3094  -12.8587   19.9712 N   0  0  0  0  0  0  0  0  0  0  0  0
  -25.5120  -30.6348   22.2666 N   0  0  0  0  0  0  0  0  0  0  0  0
  -21.6241  -15.4017   19.0194 N   0  0  0  0  0  0  0  0  0  0  0  0
  -23.5194  -10.8593   20.9657 N   0  0  0  0  0  0  0  0  0  0  0  0
  -27.9721  -10.7015   21.7038 N   0  0  0  0  0  0  0  0  0  0  0  0
  -21.1207  -16.5205   21.0337 N   0  0  0  0  0  0  0  0  0  0  0  0
  -27.7679  -28.3169   20.7605 N   0  0  0  0  0  0  0  0  0  0  0  0
  -25.4549  -33.6638   23.7766 N   0  0  0  0  0  0  0  0  0  0  0  0
  -22.5724  -35.7197   23.0470 N   0  3  0  0  0  0  0  0  0  0  0  0
  -19.8981  -24.7382   23.9520 N   0  3  0  0  0  0  0  0  0  0  0  0
  -25.9926   -9.5861   22.0141 O   0  0  0  0  0  0  0  0  0  0  0  0
  -26.4080  -28.1720   22.6452 O   0  0  0  0  0  0  0  0  0  0  0  0
  -27.2471  -32.1835   22.1017 O   0  0  0  0  0  0  0  0  0  0  0  0
  -23.2385  -33.3273   24.3697 O   0  0  0  0  0  0  0  0  0  0  0  0
  -19.6318  -16.5503   19.2550 O   0  0  0  0  0  0  0  0  0  0  0  0
  -31.7084  -14.5232   20.1323 O   0  0  0  0  0  0  0  0  0  0  0  0
  -20.3301  -27.3490   22.9026 O   0  0  0  0  0  0  0  0  0  1  0  0
  -32.7520  -19.8031   21.3310 F   0  0  0  0  0  0  0  0  0  0  0  0
  -33.3523  -15.1987   22.2499 F   0  0  0  0  0  0  0  0  0  0  0  0
  1  2  1  0  0  0  0
  1  7  2  0  0  0  0
  2  8  2  0  0  0  0
  3 12  2  0  0  0  0
  3 19  1  0  0  0  0
  4 13  1  0  0  0  0
  4 19  2  0  0  0  0
  5 10  2  0  0  0  0
  5 20  1  0  0  0  0
  6 11  1  0  0  0  0
  6 20  2  0  0  0  0
  7 22  1  0  0  0  0
  8 24  1  0  0  0  0
  9 14  2  0  0  0  0
  9 23  1  0  0  0  0
 10 26  1  0  0  0  0
 11 26  2  0  0  0  0
 12 27  1  0  0  0  0
 13 27  2  0  0  0  0
 14 28  1  0  0  0  0
 15 16  2  0  0  0  0
 15 29  1  0  0  0  0
 16 30  1  0  0  0  0
 17 25  1  0  0  0  0
 17 28  2  0  0  0  0
 18 30  2  0  0  0  0
 18 31  1  0  0  0  0
 19 32  1  0  0  0  0
 20 34  1  0  0  0  0
 21 32  1  0  0  0  0
 21 33  2  0  0  0  0
 21 36  1  0  0  0  0
 22 24  2  0  0  0  0
 22 41  1  0  0  0  0
 23 25  2  0  0  0  0
 23 42  1  0  0  0  0
 24 50  1  0  0  0  0
 25 43  1  0  0  0  0
 26 70  1  0  0  0  0
 27 80  1  0  0  0  0
 28 81  1  0  0  0  0
 29 31  2  0  0  0  0
 29 80  1  0  0  0  0
 30 82  1  0  0  0  0
 31 83  1  0  0  0  0
 32 64  2  0  0  0  0
 33 65  1  0  0  0  0
 33 68  1  0  0  0  0
 34 35  2  0  0  0  0
 35 58  1  0  0  0  0
 36 69  1  0  0  0  0
 36 75  2  0  0  0  0
 37 51  1  0  0  0  0
 37 71  1  0  0  0  0
 37 76  2  0  0  0  0
 38 61  1  0  0  0  0
 38 66  1  0  0  0  0
 38 77  2  0  0  0  0
 39 62  1  0  0  0  0
 39 72  1  0  0  0  0
 39 78  2  0  0  0  0
 40 67  1  0  0  0  0
 40 70  1  0  0  0  0
 40 79  2  0  0  0  0
 41 44  1  0  0  0  0
 42 51  1  0  0  0  0
 43 66  1  0  0  0  0
 44 46  1  0  0  0  0
 45 47  1  0  0  0  0
 45 48  1  0  0  0  0
 46 50  1  0  0  0  0
 47 52  1  0  0  0  0
 48 67  1  0  0  0  0
 49 52  1  0  0  0  0
 49 67  1  0  0  0  0
 50 71  1  0  0  0  0
 51 66  1  0  0  0  0
 52 65  1  0  0  0  0
 53 62  1  0  0  0  0
 54 63  1  0  0  0  0
 55 63  1  0  0  0  0
 56 63  1  0  0  0  0
 57 73  1  0  0  0  0
 58 74  1  0  0  0  0
 59 60  1  0  0  0  0
 59 74  1  0  0  0  0
 60 81  1  0  0  0  0
 61 63  1  0  0  0  0
 61 72  1  0  0  0  0
 62 73  1  0  0  0  0
 64 65  1  0  0  0  0
M  CHG  2  73   1  74   1
M  ISO  4  40 100  60 101  70 100  81 101
M  END
> <Batch ID>
0001

> <Smiles>
CNC(C)C(=O)NC(C(=O)N1Cc2cc([101O:1][101CH2:1]CNCC=Cc3ccc([100NH:0][100C:0](=O)N4CCCC(n5nc(-c6ccc(Oc7ccc(F)cc7F)cc6)c(C(N)=O)c5N)C4)cc3)ccc2CC1C(=O)NC1CCCc2ccccc21)C(C)(C)C

> <Shape>
0.289

> <Color>
0.077

> <Negative vol penalty>
0.000

$$$$

  -OEChem-04042320143D

 80 88  0     1  0  0  0  0  0999 V2000
  -23.6037  -32.7327   26.6389 C   0  0  0  0  0  0  0  0  0  0  0  0
  -24.8776  -32.2842   26.3049 C   0  0  0  0  0  0  0  0  0  0  0  0
  -24.0384   -9.7255   21.7182 C   0  0  0  0  0  0  0  0  0  0  0  0
  -24.6425  -10.9968   23.6819 C   0  0  0  0  0  0  0  0  0  0  0  0
  -22.4822  -32.0179   26.2204 C   0  0  0  0  0  0  0  0  0  0  0  0
  -25.0306  -31.1199   25.5529 C   0  0  0  0  0  0  0  0  0  0  0  0
  -29.3094  -28.1866   20.6129 C   0  0  0  0  0  0  0  0  0  0  0  0
  -28.4287  -19.3882   20.5060 C   0  0  0  0  0  0  0  0  0  0  0  0
  -30.7877  -18.9562   20.2141 C   0  0  0  0  0  0  0  0  0  0  0  0
  -23.6100   -8.6752   22.5300 C   0  0  0  0  0  0  0  0  0  0  0  0
  -24.2141   -9.9465   24.4937 C   0  0  0  0  0  0  0  0  0  0  0  0
  -30.0416  -27.0241   20.3755 C   0  0  0  0  0  0  0  0  0  0  0  0
  -28.7132  -20.7096   20.8503 C   0  0  0  0  0  0  0  0  0  0  0  0
  -31.0723  -20.2777   20.5583 C   0  0  0  0  0  0  0  0  0  0  0  0
  -20.8982   -7.9212   24.4037 C   0  0  0  0  0  0  0  0  0  0  0  0
  -19.6779   -7.3201   24.0957 C   0  0  0  0  0  0  0  0  0  0  0  0
  -28.0298  -25.9145   19.6402 C   0  0  0  0  0  0  0  0  0  0  0  0
  -20.7990   -5.2023   23.7872 C   0  0  0  0  0  0  0  0  0  0  0  0
  -24.5547  -10.8863   22.2942 C   0  0  0  0  0  0  0  0  0  0  0  0
  -24.2291  -13.0552   20.9913 C   0  0  0  0  0  0  0  0  0  0  0  0
  -22.6213  -30.8496   25.4547 C   0  0  0  0  0  0  0  0  0  0  0  0
  -27.9277  -28.2185   20.3757 C   0  0  0  0  0  0  0  0  0  0  0  0
  -23.9099  -30.3881   25.1249 C   0  0  0  0  0  0  0  0  0  0  0  0
  -27.2828  -27.0794   19.8730 C   0  0  0  0  0  0  0  0  0  0  0  0
  -29.4659  -18.5115   20.1880 C   0  0  0  0  0  0  0  0  0  0  0  0
  -23.6979   -8.7857   23.9177 C   0  0  0  0  0  0  0  0  0  0  0  0
  -30.0350  -21.1544   20.8764 C   0  0  0  0  0  0  0  0  0  0  0  0
  -29.4013  -25.8869   19.8918 C   0  0  0  0  0  0  0  0  0  0  0  0
  -22.0690   -7.1629   24.4033 C   0  0  0  0  0  0  0  0  0  0  0  0
  -19.6282   -5.9606   23.7875 C   0  0  0  0  0  0  0  0  0  0  0  0
  -22.0194   -5.8035   24.0952 C   0  0  0  0  0  0  0  0  0  0  0  0
  -24.9979  -11.9714   21.4562 C   0  0  0  0  0  0  0  0  0  0  0  0
  -25.1050  -13.8005   20.2404 C   0  0  0  0  0  0  0  0  0  0  0  0
  -22.8468  -13.3610   21.2181 C   0  0  0  0  0  0  0  0  0  0  0  0
  -25.3524  -28.6868   22.1791 C   0  0  0  0  0  0  0  0  0  0  0  0
  -23.8160  -28.5983   19.3236 C   0  0  0  0  0  0  0  0  0  0  0  0
  -23.8009  -27.5601   16.0727 C   0  0  0  0  0  0  0  0  0  0  0  0
  -30.0881  -16.1705   19.4959 C   0  0  0  0  0  0  0  0  0  0  0  0
  -21.3810  -30.0848   25.0655 C   0  0  0  0  0  0  0  0  0  0  0  0
  -27.1569  -29.4884   20.6116 C   0  0  0  0  0  0  0  0  0  0  0  0
  -25.8050  -27.0680   19.5827 C   0  0  0  0  0  0  0  0  0  0  0  0
  -21.6176  -29.0659   23.9537 C   0  0  0  0  0  0  0  0  0  0  0  0
  -29.7771  -12.7363   18.6092 C   0  0  0  0  0  0  0  0  0  0  0  0
  -22.8728  -28.2471   24.2383 C   0  0  0  0  0  0  0  0  0  0  0  0
  -28.4427  -12.3203   19.2326 C   0  0  0  0  0  0  0  0  0  0  0  0
  -30.5327  -13.7256   19.4945 C   0  0  0  0  0  0  0  0  0  0  0  0
  -28.4296  -14.4937   20.5222 C   0  0  0  0  0  0  0  0  0  0  0  0
  -24.1161  -29.1431   24.2896 C   0  0  1  0  0  0  0  0  0  0  0  0
  -25.6647  -29.2513   20.8221 C   0  0  1  0  0  0  0  0  0  0  0  0
  -27.6025  -13.5476   19.6365 C   0  0  2  0  0  0  0  0  0  0  0  0
  -22.3923  -27.6068   13.9963 C   0  0  0  0  0  0  0  0  0  0  0  0
  -22.0062  -26.4448   20.5056 C   0  0  0  0  0  0  0  0  0  0  0  0
  -21.2844  -25.8720   18.1778 C   0  0  0  0  0  0  0  0  0  0  0  0
  -20.8257  -28.1437   19.1006 C   0  0  0  0  0  0  0  0  0  0  0  0
  -25.8720  -29.0381   14.5612 C   0  0  0  0  0  0  0  0  0  0  0  0
  -31.4746  -23.0311   20.6290 C   0  0  0  0  0  0  0  0  0  0  0  0
  -31.2605  -24.5247   20.4780 C   0  0  0  0  0  0  0  0  0  1  0  0
  -23.1936  -27.5139   18.4776 C   0  0  1  0  0  0  0  0  0  0  0  0
  -23.4968  -28.2975   14.7811 C   0  0  2  0  0  0  0  0  0  0  0  0
  -21.8550  -26.9929   19.0726 C   0  0  0  0  0  0  0  0  0  0  0  0
  -26.2647  -12.0199   21.0356 N   0  0  0  0  0  0  0  0  0  0  0  0
  -26.2986  -13.1431   20.2986 N   0  0  0  0  0  0  0  0  0  0  0  0
  -25.0938  -28.3320   19.8355 N   0  0  0  0  0  0  0  0  0  0  0  0
  -29.6758  -14.8640   19.8332 N   0  0  0  0  0  0  0  0  0  0  0  0
  -24.9629  -14.9473   19.5425 N   0  0  0  0  0  0  0  0  0  0  0  0
  -22.0914  -12.4891   22.0140 N   0  0  0  0  0  0  0  0  0  0  0  0
  -29.1770  -17.1691   19.8384 N   0  0  0  0  0  0  0  0  0  0  0  0
  -24.5408  -29.4954   22.9517 N   0  0  0  0  0  0  0  0  0  0  0  0
  -23.0753  -28.0638   17.1314 N   0  0  0  0  0  0  0  0  0  0  0  0
  -24.7133  -28.3622   13.9228 N   0  3  0  0  0  0  0  0  0  0  0  0
  -22.2936  -14.3687   20.7159 O   0  0  0  0  0  0  0  0  0  0  0  0
  -25.8125  -27.5975   22.5008 O   0  0  0  0  0  0  0  0  0  0  0  0
  -23.1943  -29.6461   19.5170 O   0  0  0  0  0  0  0  0  0  0  0  0
  -24.5992  -26.6277   16.1352 O   0  0  0  0  0  0  0  0  0  0  0  0
  -31.1575  -16.3850   18.9194 O   0  0  0  0  0  0  0  0  0  0  0  0
  -23.2797   -7.7611   24.7101 O   0  0  0  0  0  0  0  0  0  0  0  0
  -30.3146  -22.4523   21.2145 O   0  0  0  0  0  0  0  0  0  0  0  0
  -30.1134  -24.7508   19.6598 O   0  0  0  0  0  0  0  0  0  1  0  0
  -18.4560   -5.3831   23.4933 F   0  0  0  0  0  0  0  0  0  0  0  0
  -23.1406   -5.0696   24.0944 F   0  0  0  0  0  0  0  0  0  0  0  0
  1  2  1  0  0  0  0
  1  5  2  0  0  0  0
  2  6  2  0  0  0  0
  3 10  2  0  0  0  0
  3 19  1  0  0  0  0
  4 11  1  0  0  0  0
  4 19  2  0  0  0  0
  5 21  1  0  0  0  0
  6 23  1  0  0  0  0
  7 12  2  0  0  0  0
  7 22  1  0  0  0  0
  8 13  2  0  0  0  0
  8 25  1  0  0  0  0
  9 14  1  0  0  0  0
  9 25  2  0  0  0  0
 10 26  1  0  0  0  0
 11 26  2  0  0  0  0
 12 28  1  0  0  0  0
 13 27  1  0  0  0  0
 14 27  2  0  0  0  0
 15 16  2  0  0  0  0
 15 29  1  0  0  0  0
 16 30  1  0  0  0  0
 17 24  1  0  0  0  0
 17 28  2  0  0  0  0
 18 30  2  0  0  0  0
 18 31  1  0  0  0  0
 19 32  1  0  0  0  0
 20 32  1  0  0  0  0
 20 33  2  0  0  0  0
 20 34  1  0  0  0  0
 21 23  2  0  0  0  0
 21 39  1  0  0  0  0
 22 24  2  0  0  0  0
 22 40  1  0  0  0  0
 23 48  1  0  0  0  0
 24 41  1  0  0  0  0
 25 67  1  0  0  0  0
 26 76  1  0  0  0  0
 27 77  1  0  0  0  0
 28 78  1  0  0  0  0
 29 31  2  0  0  0  0
 29 76  1  0  0  0  0
 30 79  1  0  0  0  0
 31 80  1  0  0  0  0
 32 61  2  0  0  0  0
 33 62  1  0  0  0  0
 33 65  1  0  0  0  0
 34 66  1  0  0  0  0
 34 71  2  0  0  0  0
 35 49  1  0  0  0  0
 35 68  1  0  0  0  0
 35 72  2  0  0  0  0
 36 58  1  0  0  0  0
 36 63  1  0  0  0  0
 36 73  2  0  0  0  0
 37 59  1  0  0  0  0
 37 69  1  0  0  0  0
 37 74  2  0  0  0  0
 38 64  1  0  0  0  0
 38 67  1  0  0  0  0
 38 75  2  0  0  0  0
 39 42  1  0  0  0  0
 40 49  1  0  0  0  0
 41 63  1  0  0  0  0
 42 44  1  0  0  0  0
 43 45  1  0  0  0  0
 43 46  1  0  0  0  0
 44 48  1  0  0  0  0
 45 50  1  0  0  0  0
 46 64  1  0  0  0  0
 47 50  1  0  0  0  0
 47 64  1  0  0  0  0
 48 68  1  0  0  0  0
 49 63  1  0  0  0  0
 50 62  1  0  0  0  0
 51 59  1  0  0  0  0
 52 60  1  0  0  0  0
 53 60  1  0  0  0  0
 54 60  1  0  0  0  0
 55 70  1  0  0  0  0
 56 57  1  0  0  0  0
 56 77  1  0  0  0  0
 57 78  1  0  0  0  0
 58 60  1  0  0  0  0
 58 69  1  0  0  0  0
 59 70  1  0  0  0  0
 61 62  1  0  0  0  0
M  CHG  1  70   1
M  ISO  4  38 100  57 101  67 100  78 101
M  END
> <Batch ID>
0001

> <Smiles>
CNC(C)C(=O)NC(C(=O)N1Cc2cc([101O:1][101CH2:1]COc3ccc([100NH:0][100C:0](=O)N4CCCC(n5nc(-c6ccc(Oc7ccc(F)cc7F)cc6)c(C(N)=O)c5N)C4)cc3)ccc2CC1C(=O)NC1CCCc2ccccc21)C(C)(C)C

> <Shape>
0.290

> <Color>
0.124

> <Negative vol penalty>
0.000

$$$$

  -OEChem-04042320143D

 79 87  0     1  0  0  0  0  0999 V2000
  -20.5128  -31.2846   22.5658 C   0  0  0  0  0  0  0  0  0  0  0  0
  -21.7397  -30.6379   22.4566 C   0  0  0  0  0  0  0  0  0  0  0  0
  -33.0926  -27.1483   20.4219 C   0  0  0  0  0  0  0  0  0  0  0  0
  -32.6325  -27.2221   19.1073 C   0  0  0  0  0  0  0  0  0  0  0  0
  -26.8861  -18.2500   19.6531 C   0  0  0  0  0  0  0  0  0  0  0  0
  -26.6301  -17.4825   21.9295 C   0  0  0  0  0  0  0  0  0  0  0  0
  -19.3407  -30.5384   22.6811 C   0  0  0  0  0  0  0  0  0  0  0  0
  -21.7953  -29.2446   22.4638 C   0  0  0  0  0  0  0  0  0  0  0  0
  -24.8723  -27.4046   18.8873 C   0  0  0  0  0  0  0  0  0  0  0  0
  -32.1894  -27.2231   21.4823 C   0  0  0  0  0  0  0  0  0  0  0  0
  -31.2691  -27.3708   18.8528 C   0  0  0  0  0  0  0  0  0  0  0  0
  -26.1084  -17.1822   19.2055 C   0  0  0  0  0  0  0  0  0  0  0  0
  -25.8523  -16.4146   21.4820 C   0  0  0  0  0  0  0  0  0  0  0  0
  -26.2426  -27.4533   19.1396 C   0  0  0  0  0  0  0  0  0  0  0  0
  -26.3560  -13.3954   20.0461 C   0  0  0  0  0  0  0  0  0  0  0  0
  -26.6223  -12.1329   20.5759 C   0  0  0  0  0  0  0  0  0  0  0  0
  -26.2015  -25.1277   19.7790 C   0  0  0  0  0  0  0  0  0  0  0  0
  -24.3672  -12.0179   21.4353 C   0  0  0  0  0  0  0  0  0  0  0  0
  -27.1470  -18.4002   21.0151 C   0  0  0  0  0  0  0  0  0  0  0  0
  -29.2846  -19.7877   21.1292 C   0  0  0  0  0  0  0  0  0  0  0  0
  -19.3810  -29.1352   22.6800 C   0  0  0  0  0  0  0  0  0  0  0  0
  -24.1531  -26.2179   19.0898 C   0  0  0  0  0  0  0  0  0  0  0  0
  -20.6227  -28.4790   22.5806 C   0  0  0  0  0  0  0  0  0  0  0  0
  -24.8226  -25.0658   19.5261 C   0  0  0  0  0  0  0  0  0  0  0  0
  -30.8260  -27.3718   21.2278 C   0  0  0  0  0  0  0  0  0  0  0  0
  -30.3659  -27.4457   19.9131 C   0  0  0  0  0  0  0  0  0  0  0  0
  -25.5914  -16.2644   20.1199 C   0  0  0  0  0  0  0  0  0  0  0  0
  -26.9069  -26.3156   19.5883 C   0  0  0  0  0  0  0  0  0  0  0  0
  -25.0953  -13.9692   20.2109 C   0  0  0  0  0  0  0  0  0  0  0  0
  -25.6279  -11.4442   21.2705 C   0  0  0  0  0  0  0  0  0  0  0  0
  -24.1009  -13.2805   20.9055 C   0  0  0  0  0  0  0  0  0  0  0  0
  -27.9508  -19.5028   21.4780 C   0  0  0  0  0  0  0  0  0  0  0  0
  -29.5860  -20.9301   21.8297 C   0  0  0  0  0  0  0  0  0  0  0  0
  -30.1717  -19.0829   20.2507 C   0  0  0  0  0  0  0  0  0  0  0  0
  -21.7505  -25.3457   20.9794 C   0  0  0  0  0  0  0  0  0  0  0  0
  -21.9130  -22.5972   19.2643 C   0  0  0  0  0  0  0  0  0  0  0  0
  -23.7077  -19.9533   17.5892 C   0  0  0  0  0  0  0  0  0  0  0  0
  -28.2405  -26.0458   23.6087 C   0  0  0  0  0  0  0  0  0  0  0  0
  -18.0921  -28.3718   22.8546 C   0  0  0  0  0  0  0  0  0  0  0  0
  -22.6803  -26.1745   18.7875 C   0  0  0  0  0  0  0  0  0  0  0  0
  -24.1001  -23.7617   19.7398 C   0  0  0  0  0  0  0  0  0  0  0  0
  -18.2019  -26.8968   22.4772 C   0  0  0  0  0  0  0  0  0  0  0  0
  -27.0642  -23.2868   25.5273 C   0  0  0  0  0  0  0  0  0  0  0  0
  -19.4569  -26.2814   23.0880 C   0  0  0  0  0  0  0  0  0  0  0  0
  -27.2942  -22.0815   24.6139 C   0  0  0  0  0  0  0  0  0  0  0  0
  -26.6441  -24.5231   24.7353 C   0  0  0  0  0  0  0  0  0  0  0  0
  -27.7795  -23.6820   22.7161 C   0  0  0  0  0  0  0  0  0  0  0  0
  -20.7217  -26.9691   22.5596 C   0  0  1  0  0  0  0  0  0  0  0  0
  -21.9528  -25.0513   19.5199 C   0  0  1  0  0  0  0  0  0  0  0  0
  -28.2591  -22.4259   23.4634 C   0  0  2  0  0  0  0  0  0  0  0  0
  -22.8658  -17.9866   16.2774 C   0  0  0  0  0  0  0  0  0  0  0  0
  -22.1332  -21.1030   21.9154 C   0  0  0  0  0  0  0  0  0  0  0  0
  -22.9423  -19.1049   20.6422 C   0  0  0  0  0  0  0  0  0  0  0  0
  -20.6556  -20.0082   20.2205 C   0  0  0  0  0  0  0  0  0  0  0  0
  -25.3207  -20.6947   15.2212 C   0  0  0  0  0  0  0  0  0  0  0  0
  -29.8772  -27.4485   22.3787 C   0  0  0  0  0  0  0  0  0  0  0  0
  -28.9042  -27.6063   19.6146 C   0  0  0  0  0  0  0  0  0  1  0  0
  -22.6688  -21.2972   19.3972 C   0  0  1  0  0  0  0  0  0  0  0  0
  -23.4254  -19.3988   16.2045 C   0  0  2  0  0  0  0  0  0  0  0  0
  -22.1135  -20.4033   20.5418 C   0  0  0  0  0  0  0  0  0  0  0  0
  -27.4402  -20.3923   22.3336 N   0  0  0  0  0  0  0  0  0  0  0  0
  -28.4585  -21.2474   22.5284 N   0  0  0  0  0  0  0  0  0  0  0  0
  -22.6594  -23.7715   19.4365 N   0  0  0  0  0  0  0  0  0  0  0  0
  -27.6016  -24.7959   23.6608 N   0  0  0  0  0  0  0  0  0  0  0  0
  -30.7030  -21.6841   21.9099 N   0  0  0  0  0  0  0  0  0  0  0  0
  -30.1916  -19.4385   18.8951 N   0  0  0  0  0  0  0  0  0  0  0  0
  -21.0323  -26.5002   21.2262 N   0  0  0  0  0  0  0  0  0  0  0  0
  -22.6371  -20.6701   18.0803 N   0  0  0  0  0  0  0  0  0  0  0  0
  -29.1377  -26.2195   22.5620 N   0  0  0  0  0  0  0  0  0  0  0  0
  -24.6757  -19.3677   15.3942 N   0  3  0  0  0  0  0  0  0  0  0  0
  -30.9125  -18.1538   20.6526 O   0  0  0  0  0  0  0  0  0  0  0  0
  -22.2106  -24.5813   21.8194 O   0  0  0  0  0  0  0  0  0  0  0  0
  -20.7062  -22.5719   19.0098 O   0  0  0  0  0  0  0  0  0  0  0  0
  -24.7702  -19.7659   18.1779 O   0  0  0  0  0  0  0  0  0  0  0  0
  -28.0311  -26.9386   24.4369 O   0  0  0  0  0  0  0  0  0  0  0  0
  -24.8323  -15.2224   19.6836 O   0  0  0  0  0  0  0  0  0  0  0  0
  -28.2443  -26.3606   19.8359 O   0  0  0  0  0  0  0  0  0  1  0  0
  -25.8833  -10.2311   21.7780 F   0  0  0  0  0  0  0  0  0  0  0  0
  -22.8875  -13.8261   21.0660 F   0  0  0  0  0  0  0  0  0  0  0  0
  1  2  1  0  0  0  0
  1  7  2  0  0  0  0
  2  8  2  0  0  0  0
  3  4  1  0  0  0  0
  3 10  2  0  0  0  0
  4 11  2  0  0  0  0
  5 12  2  0  0  0  0
  5 19  1  0  0  0  0
  6 13  1  0  0  0  0
  6 19  2  0  0  0  0
  7 21  1  0  0  0  0
  8 23  1  0  0  0  0
  9 14  2  0  0  0  0
  9 22  1  0  0  0  0
 10 25  1  0  0  0  0
 11 26  1  0  0  0  0
 12 27  1  0  0  0  0
 13 27  2  0  0  0  0
 14 28  1  0  0  0  0
 15 16  2  0  0  0  0
 15 29  1  0  0  0  0
 16 30  1  0  0  0  0
 17 24  1  0  0  0  0
 17 28  2  0  0  0  0
 18 30  2  0  0  0  0
 18 31  1  0  0  0  0
 19 32  1  0  0  0  0
 20 32  1  0  0  0  0
 20 33  2  0  0  0  0
 20 34  1  0  0  0  0
 21 23  2  0  0  0  0
 21 39  1  0  0  0  0
 22 24  2  0  0  0  0
 22 40  1  0  0  0  0
 23 48  1  0  0  0  0
 24 41  1  0  0  0  0
 25 26  2  0  0  0  0
 25 56  1  0  0  0  0
 26 57  1  0  0  0  0
 27 76  1  0  0  0  0
 28 77  1  0  0  0  0
 29 31  2  0  0  0  0
 29 76  1  0  0  0  0
 30 78  1  0  0  0  0
 31 79  1  0  0  0  0
 32 61  2  0  0  0  0
 33 62  1  0  0  0  0
 33 65  1  0  0  0  0
 34 66  1  0  0  0  0
 34 71  2  0  0  0  0
 35 49  1  0  0  0  0
 35 67  1  0  0  0  0
 35 72  2  0  0  0  0
 36 58  1  0  0  0  0
 36 63  1  0  0  0  0
 36 73  2  0  0  0  0
 37 59  1  0  0  0  0
 37 68  1  0  0  0  0
 37 74  2  0  0  0  0
 38 64  1  0  0  0  0
 38 69  1  0  0  0  0
 38 75  2  0  0  0  0
 39 42  1  0  0  0  0
 40 49  1  0  0  0  0
 41 63  1  0  0  0  0
 42 44  1  0  0  0  0
 43 45  1  0  0  0  0
 43 46  1  0  0  0  0
 44 48  1  0  0  0  0
 45 50  1  0  0  0  0
 46 64  1  0  0  0  0
 47 50  1  0  0  0  0
 47 64  1  0  0  0  0
 48 67  1  0  0  0  0
 49 63  1  0  0  0  0
 50 62  1  0  0  0  0
 51 59  1  0  0  0  0
 52 60  1  0  0  0  0
 53 60  1  0  0  0  0
 54 60  1  0  0  0  0
 55 70  1  0  0  0  0
 56 69  1  0  0  0  0
 57 77  1  0  0  0  0
 58 60  1  0  0  0  0
 58 68  1  0  0  0  0
 59 70  1  0  0  0  0
 61 62  1  0  0  0  0
M  CHG  1  70   1
M  ISO  4  38 100  57 101  69 100  77 101
M  END
> <Batch ID>
0001

> <Smiles>
CNC(C)C(=O)NC(C(=O)N1Cc2cc([101O:1][101CH2:1]c3ccccc3C[100NH:0][100C:0](=O)N3CCCC(n4nc(-c5ccc(Oc6ccc(F)cc6F)cc5)c(C(N)=O)c4N)C3)ccc2CC1C(=O)NC1CCCc2ccccc21)C(C)(C)C

> <Shape>
0.195

> <Color>
0.071

> <Negative vol penalty>
0.000

$$$$

  -OEChem-04042320143D

 81 89  0     1  0  0  0  0  0999 V2000
  -21.0027   -7.5050   23.6390 C   0  0  0  0  0  0  0  0  0  0  0  0
  -21.8937   -8.1427   24.4963 C   0  0  0  0  0  0  0  0  0  0  0  0
  -22.0736  -28.0730   21.0658 C   0  0  0  0  0  0  0  0  0  0  0  0
  -23.3308  -27.5675   23.0660 C   0  0  0  0  0  0  0  0  0  0  0  0
  -21.0970   -7.7054   22.2625 C   0  0  0  0  0  0  0  0  0  0  0  0
  -22.8803   -8.9803   23.9774 C   0  0  0  0  0  0  0  0  0  0  0  0
  -26.5541  -14.9242   25.5555 C   0  0  0  0  0  0  0  0  0  0  0  0
  -30.8429  -20.5191   21.9178 C   0  0  0  0  0  0  0  0  0  0  0  0
  -30.6715  -22.1352   23.7055 C   0  0  0  0  0  0  0  0  0  0  0  0
  -30.2599  -21.4308   21.0377 C   0  0  0  0  0  0  0  0  0  0  0  0
  -30.0885  -23.0469   22.8253 C   0  0  0  0  0  0  0  0  0  0  0  0
  -20.8840  -27.9638   21.7859 C   0  0  0  0  0  0  0  0  0  0  0  0
  -22.1412  -27.4583   23.7861 C   0  0  0  0  0  0  0  0  0  0  0  0
  -27.8656  -15.3908   25.6340 C   0  0  0  0  0  0  0  0  0  0  0  0
  -19.0896  -29.8606   23.9342 C   0  0  0  0  0  0  0  0  0  0  0  0
  -18.1210  -30.8450   23.7389 C   0  0  0  0  0  0  0  0  0  0  0  0
  -27.8835  -15.7245   23.2450 C   0  0  0  0  0  0  0  0  0  0  0  0
  -16.5622  -29.1611   22.9828 C   0  0  0  0  0  0  0  0  0  0  0  0
  -23.2970  -27.8748   21.7059 C   0  0  0  0  0  0  0  0  0  0  0  0
  -25.3002  -29.1468   20.7694 C   0  0  0  0  0  0  0  0  0  0  0  0
  -22.0792   -8.5535   21.7271 C   0  0  0  0  0  0  0  0  0  0  0  0
  -25.9002  -14.8438   24.3176 C   0  0  0  0  0  0  0  0  0  0  0  0
  -22.9888   -9.1912   22.5923 C   0  0  0  0  0  0  0  0  0  0  0  0
  -26.5629  -15.2589   23.1538 C   0  0  0  0  0  0  0  0  0  0  0  0
  -31.0486  -20.8713   23.2517 C   0  0  0  0  0  0  0  0  0  0  0  0
  -29.8828  -22.6947   21.4914 C   0  0  0  0  0  0  0  0  0  0  0  0
  -20.9178  -27.6565   23.1460 C   0  0  0  0  0  0  0  0  0  0  0  0
  -28.5314  -15.7884   24.4783 C   0  0  0  0  0  0  0  0  0  0  0  0
  -18.7946  -28.5264   23.6538 C   0  0  0  0  0  0  0  0  0  0  0  0
  -16.8572  -30.4953   23.2632 C   0  0  0  0  0  0  0  0  0  0  0  0
  -17.5309  -28.1766   23.1782 C   0  0  0  0  0  0  0  0  0  0  0  0
  -24.5262  -27.9869   20.9624 C   0  0  0  0  0  0  0  0  0  0  0  0
  -26.3584  -28.7293   19.9998 C   0  0  0  0  0  0  0  0  0  0  0  0
  -25.0821  -30.4823   21.2435 C   0  0  0  0  0  0  0  0  0  0  0  0
  -24.6642  -12.4845   22.5827 C   0  0  0  0  0  0  0  0  0  0  0  0
  -23.6464  -14.9237   20.7021 C   0  0  0  0  0  0  0  0  0  0  0  0
  -24.0625  -18.1467   19.6600 C   0  0  0  0  0  0  0  0  0  0  0  0
  -29.0166  -23.4315   19.2435 C   0  0  0  0  0  0  0  0  0  0  0  0
  -22.1720   -8.7020   20.2291 C   0  0  0  0  0  0  0  0  0  0  0  0
  -24.4763  -14.3633   24.2533 C   0  0  0  0  0  0  0  0  0  0  0  0
  -25.8983  -15.2113   21.8030 C   0  0  0  0  0  0  0  0  0  0  0  0
  -23.0091   -9.8993   19.7864 C   0  0  0  0  0  0  0  0  0  0  0  0
  -27.5350  -25.4511   16.7130 C   0  0  0  0  0  0  0  0  0  0  0  0
  -24.3179   -9.9540   20.5681 C   0  0  0  0  0  0  0  0  0  0  0  0
  -26.6705  -26.4400   17.4983 C   0  0  0  0  0  0  0  0  0  0  0  0
  -27.5333  -24.0638   17.3527 C   0  0  0  0  0  0  0  0  0  0  0  0
  -27.0235  -25.0256   19.5628 C   0  0  0  0  0  0  0  0  0  0  0  0
  -24.0570  -10.1269   22.0693 C   0  0  1  0  0  0  0  0  0  0  0  0
  -24.0842  -13.8394   22.8751 C   0  0  1  0  0  0  0  0  0  0  0  0
  -27.0461  -26.4534   18.9931 C   0  0  2  0  0  0  0  0  0  0  0  0
  -23.0993  -19.8483   18.0871 C   0  0  0  0  0  0  0  0  0  0  0  0
  -24.9775  -13.5023   18.3531 C   0  0  0  0  0  0  0  0  0  0  0  0
  -24.8202  -15.6405   17.0603 C   0  0  0  0  0  0  0  0  0  0  0  0
  -22.7427  -14.4998   17.8382 C   0  0  0  0  0  0  0  0  0  0  0  0
  -23.3940  -19.9888   21.8778 C   0  0  0  0  0  0  0  0  0  0  0  0
  -31.6757  -19.8905   24.1984 C   0  0  0  0  0  0  0  0  0  0  0  0
  -30.1982  -16.9031   25.7570 C   0  0  0  0  0  0  0  0  0  1  0  0
  -31.2604  -17.9370   25.4370 C   0  0  0  0  0  0  0  0  0  0  0  0
  -24.2169  -15.6745   19.5231 C   0  0  1  0  0  0  0  0  0  0  0  0
  -23.0758  -19.2893   19.5012 C   0  0  2  0  0  0  0  0  0  0  0  0
  -24.2028  -14.8285   18.2187 C   0  0  0  0  0  0  0  0  0  0  0  0
  -25.0482  -26.9131   20.3636 N   0  0  0  0  0  0  0  0  0  0  0  0
  -26.1614  -27.3967   19.7866 N   0  0  0  0  0  0  0  0  0  0  0  0
  -24.5076  -14.7281   21.7911 N   0  0  0  0  0  0  0  0  0  0  0  0
  -27.9024  -24.1543   18.7671 N   0  0  0  0  0  0  0  0  0  0  0  0
  -27.4288  -29.3759   19.4912 N   0  0  0  0  0  0  0  0  0  0  0  0
  -23.9449  -30.7376   22.0218 N   0  0  0  0  0  0  0  0  0  0  0  0
  -29.2908  -23.6211   20.5975 N   0  0  0  0  0  0  0  0  0  0  0  0
  -23.7171  -11.5014   22.3682 N   0  0  0  0  0  0  0  0  0  0  0  0
  -23.4681  -16.9234   19.4335 N   0  0  0  0  0  0  0  0  0  0  0  0
  -23.4038  -20.3924   20.4481 N   0  3  0  0  0  0  0  0  0  0  0  0
  -25.8636  -31.4248   20.9707 O   0  0  0  0  0  0  0  0  0  0  0  0
  -25.8809  -12.3419   22.5524 O   0  0  0  0  0  0  0  0  0  0  0  0
  -22.4776  -14.5317   20.6613 O   0  0  0  0  0  0  0  0  0  0  0  0
  -25.2434  -18.3221   19.9518 O   0  0  0  0  0  0  0  0  0  0  0  0
  -29.6950  -22.7195   18.4986 O   0  0  0  0  0  0  0  0  0  0  0  0
  -19.7572  -27.5501   23.8491 O   0  0  0  0  0  0  0  0  0  0  0  0
  -29.8117  -16.2436   24.5520 O   0  0  0  0  0  0  0  0  0  1  0  0
  -30.7185  -18.8971   24.5383 O   0  0  0  0  0  0  0  0  0  0  0  0
  -15.9266  -31.4405   23.0771 F   0  0  0  0  0  0  0  0  0  0  0  0
  -17.2412  -26.8964   22.9081 F   0  0  0  0  0  0  0  0  0  0  0  0
  1  2  1  0  0  0  0
  1  5  2  0  0  0  0
  2  6  2  0  0  0  0
  3 12  2  0  0  0  0
  3 19  1  0  0  0  0
  4 13  1  0  0  0  0
  4 19  2  0  0  0  0
  5 21  1  0  0  0  0
  6 23  1  0  0  0  0
  7 14  2  0  0  0  0
  7 22  1  0  0  0  0
  8 10  2  0  0  0  0
  8 25  1  0  0  0  0
  9 11  1  0  0  0  0
  9 25  2  0  0  0  0
 10 26  1  0  0  0  0
 11 26  2  0  0  0  0
 12 27  1  0  0  0  0
 13 27  2  0  0  0  0
 14 28  1  0  0  0  0
 15 16  2  0  0  0  0
 15 29  1  0  0  0  0
 16 30  1  0  0  0  0
 17 24  1  0  0  0  0
 17 28  2  0  0  0  0
 18 30  2  0  0  0  0
 18 31  1  0  0  0  0
 19 32  1  0  0  0  0
 20 32  1  0  0  0  0
 20 33  2  0  0  0  0
 20 34  1  0  0  0  0
 21 23  2  0  0  0  0
 21 39  1  0  0  0  0
 22 24  2  0  0  0  0
 22 40  1  0  0  0  0
 23 48  1  0  0  0  0
 24 41  1  0  0  0  0
 25 56  1  0  0  0  0
 26 68  1  0  0  0  0
 27 77  1  0  0  0  0
 28 78  1  0  0  0  0
 29 31  2  0  0  0  0
 29 77  1  0  0  0  0
 30 80  1  0  0  0  0
 31 81  1  0  0  0  0
 32 62  2  0  0  0  0
 33 63  1  0  0  0  0
 33 66  1  0  0  0  0
 34 67  1  0  0  0  0
 34 72  2  0  0  0  0
 35 49  1  0  0  0  0
 35 69  1  0  0  0  0
 35 73  2  0  0  0  0
 36 59  1  0  0  0  0
 36 64  1  0  0  0  0
 36 74  2  0  0  0  0
 37 60  1  0  0  0  0
 37 70  1  0  0  0  0
 37 75  2  0  0  0  0
 38 65  1  0  0  0  0
 38 68  1  0  0  0  0
 38 76  2  0  0  0  0
 39 42  1  0  0  0  0
 40 49  1  0  0  0  0
 41 64  1  0  0  0  0
 42 44  1  0  0  0  0
 43 45  1  0  0  0  0
 43 46  1  0  0  0  0
 44 48  1  0  0  0  0
 45 50  1  0  0  0  0
 46 65  1  0  0  0  0
 47 50  1  0  0  0  0
 47 65  1  0  0  0  0
 48 69  1  0  0  0  0
 49 64  1  0  0  0  0
 50 63  1  0  0  0  0
 51 60  1  0  0  0  0
 52 61  1  0  0  0  0
 53 61  1  0  0  0  0
 54 61  1  0  0  0  0
 55 71  1  0  0  0  0
 56 79  1  0  0  0  0
 57 58  1  0  0  0  0
 57 78  1  0  0  0  0
 58 79  1  0  0  0  0
 59 61  1  0  0  0  0
 59 70  1  0  0  0  0
 60 71  1  0  0  0  0
 62 63  1  0  0  0  0
M  CHG  1  71   1
M  ISO  4  38 100  57 101  68 100  78 101
M  END
> <Batch ID>
0001

> <Smiles>
CNC(C)C(=O)NC(C(=O)N1Cc2cc([101O:1][101CH2:1]COCc3ccc([100NH:0][100C:0](=O)N4CCCC(n5nc(-c6ccc(Oc7ccc(F)cc7F)cc6)c(C(N)=O)c5N)C4)cc3)ccc2CC1C(=O)NC1CCCc2ccccc21)C(C)(C)C

> <Shape>
0.217

> <Color>
0.081

> <Negative vol penalty>
0.000

$$$$

  -OEChem-04042320143D

 82 90  0     1  0  0  0  0  0999 V2000
  -18.1133  -25.5315   23.0315 C   0  0  0  0  0  0  0  0  0  0  0  0
  -19.2196  -25.4769   22.1897 C   0  0  0  0  0  0  0  0  0  0  0  0
  -26.0370  -16.2643   20.4737 C   0  0  0  0  0  0  0  0  0  0  0  0
  -25.9626  -16.6509   18.0900 C   0  0  0  0  0  0  0  0  0  0  0  0
  -17.6105  -26.7658   23.4408 C   0  0  0  0  0  0  0  0  0  0  0  0
  -19.8231  -26.6568   21.7559 C   0  0  0  0  0  0  0  0  0  0  0  0
  -25.7893  -27.5768   20.7242 C   0  0  0  0  0  0  0  0  0  0  0  0
  -24.0518  -24.9853   15.2817 C   0  0  0  0  0  0  0  0  0  0  0  0
  -22.5176  -26.5401   16.3141 C   0  0  0  0  0  0  0  0  0  0  0  0
  -25.8837  -14.8951   20.2565 C   0  0  0  0  0  0  0  0  0  0  0  0
  -25.8094  -15.2816   17.8727 C   0  0  0  0  0  0  0  0  0  0  0  0
  -26.5513  -27.5697   19.5568 C   0  0  0  0  0  0  0  0  0  0  0  0
  -24.9193  -26.0371   14.9868 C   0  0  0  0  0  0  0  0  0  0  0  0
  -23.3851  -27.5919   16.0193 C   0  0  0  0  0  0  0  0  0  0  0  0
  -27.8238  -12.2892   19.3193 C   0  0  0  0  0  0  0  0  0  0  0  0
  -28.6485  -11.4227   20.0367 C   0  0  0  0  0  0  0  0  0  0  0  0
  -26.3425  -29.9687   19.4131 C   0  0  0  0  0  0  0  0  0  0  0  0
  -26.7020  -10.3921   21.0297 C   0  0  0  0  0  0  0  0  0  0  0  0
  -26.0763  -17.1423   19.3904 C   0  0  0  0  0  0  0  0  0  0  0  0
  -27.4419  -19.2757   19.6929 C   0  0  0  0  0  0  0  0  0  0  0  0
  -18.2141  -27.9612   23.0196 C   0  0  0  0  0  0  0  0  0  0  0  0
  -25.2881  -28.7807   21.2398 C   0  0  0  0  0  0  0  0  0  0  0  0
  -19.3271  -27.9083   22.1590 C   0  0  0  0  0  0  0  0  0  0  0  0
  -25.5765  -29.9886   20.5886 C   0  0  0  0  0  0  0  0  0  0  0  0
  -22.8509  -25.2369   15.9452 C   0  0  0  0  0  0  0  0  0  0  0  0
  -25.7700  -14.4037   18.9560 C   0  0  0  0  0  0  0  0  0  0  0  0
  -24.5860  -27.3403   15.3557 C   0  0  0  0  0  0  0  0  0  0  0  0
  -26.8256  -28.7654   18.8994 C   0  0  0  0  0  0  0  0  0  0  0  0
  -26.4381  -12.2072   19.4572 C   0  0  0  0  0  0  0  0  0  0  0  0
  -28.0877  -10.4742   20.8919 C   0  0  0  0  0  0  0  0  0  0  0  0
  -25.8773  -11.2586   20.3123 C   0  0  0  0  0  0  0  0  0  0  0  0
  -26.2341  -18.5569   19.6142 C   0  0  0  0  0  0  0  0  0  0  0  0
  -27.0547  -20.5746   19.9148 C   0  0  0  0  0  0  0  0  0  0  0  0
  -28.7932  -18.8107   19.5758 C   0  0  0  0  0  0  0  0  0  0  0  0
  -22.3833  -29.9508   21.7848 C   0  0  0  0  0  0  0  0  0  0  0  0
  -24.0432  -32.3816   23.1481 C   0  0  0  0  0  0  0  0  0  0  0  0
  -26.9620  -34.1375   23.3571 C   0  0  0  0  0  0  0  0  0  0  0  0
  -22.0354  -23.5994   18.6866 C   0  0  0  0  0  0  0  0  0  0  0  0
  -17.6060  -29.2724   23.4504 C   0  0  0  0  0  0  0  0  0  0  0  0
  -24.4902  -28.7743   22.5148 C   0  0  0  0  0  0  0  0  0  0  0  0
  -25.0789  -31.3103   21.1122 C   0  0  0  0  0  0  0  0  0  0  0  0
  -18.5319  -30.4690   23.2475 C   0  0  0  0  0  0  0  0  0  0  0  0
  -23.5349  -23.1482   21.8842 C   0  0  0  0  0  0  0  0  0  0  0  0
  -19.1659  -30.4244   21.8608 C   0  0  0  0  0  0  0  0  0  0  0  0
  -24.5057  -21.9852   21.6721 C   0  0  0  0  0  0  0  0  0  0  0  0
  -22.2539  -22.9693   21.0723 C   0  0  0  0  0  0  0  0  0  0  0  0
  -23.4326  -21.5726   19.4189 C   0  0  0  0  0  0  0  0  0  0  0  0
  -20.0244  -29.1657   21.6870 C   0  0  1  0  0  0  0  0  0  0  0  0
  -23.5981  -30.0024   22.6676 C   0  0  1  0  0  0  0  0  0  0  0  0
  -24.7629  -21.7356   20.1738 C   0  0  2  0  0  0  0  0  0  0  0  0
  -28.0037  -36.0946   24.5328 C   0  0  0  0  0  0  0  0  0  0  0  0
  -22.4831  -34.2895   21.3492 C   0  0  0  0  0  0  0  0  0  0  0  0
  -24.1864  -36.0521   21.8592 C   0  0  0  0  0  0  0  0  0  0  0  0
  -22.7987  -35.0924   23.6966 C   0  0  0  0  0  0  0  0  0  0  0  0
  -29.0444  -32.4354   24.5922 C   0  0  0  0  0  0  0  0  0  0  0  0
  -21.9236  -24.1125   16.2610 C   0  0  0  0  0  0  0  0  0  0  0  0
  -27.6395  -29.2913   15.4065 C   0  0  0  0  0  0  0  0  0  0  0  0
  -26.8259  -28.0659   15.0210 C   0  0  0  0  0  0  0  0  0  0  0  0
  -27.2969  -29.7853   16.8033 C   0  0  0  0  0  0  0  0  0  1  0  0
  -24.6249  -33.6857   22.6584 C   0  0  1  0  0  0  0  0  0  0  0  0
  -27.7819  -34.5902   24.5519 C   0  0  2  0  0  0  0  0  0  0  0  0
  -23.5312  -34.7550   22.3797 C   0  0  0  0  0  0  0  0  0  0  0  0
  -25.1599  -19.3347   19.7733 N   0  0  0  0  0  0  0  0  0  0  0  0
  -25.6915  -20.5556   19.9543 N   0  0  0  0  0  0  0  0  0  0  0  0
  -24.2977  -31.2512   22.3587 N   0  0  0  0  0  0  0  0  0  0  0  0
  -22.5675  -22.7380   19.6602 N   0  0  0  0  0  0  0  0  0  0  0  0
  -27.7507  -21.7198   20.0780 N   0  0  0  0  0  0  0  0  0  0  0  0
  -29.0126  -17.4453   19.3483 N   0  0  0  0  0  0  0  0  0  0  0  0
  -21.2952  -29.3236   22.3610 N   0  0  0  0  0  0  0  0  0  0  0  0
  -25.6156  -34.0889   23.6506 N   0  0  0  0  0  0  0  0  0  0  0  0
  -22.3873  -23.3132   17.3732 N   0  0  0  0  0  0  0  0  0  0  0  0
  -29.1124  -33.9189   24.5514 N   0  3  0  0  0  0  0  0  0  0  0  0
  -29.7773  -19.5806   19.6865 O   0  0  0  0  0  0  0  0  0  0  0  0
  -22.4294  -30.4449   20.6643 O   0  0  0  0  0  0  0  0  0  0  0  0
  -23.3931  -32.3652   24.1963 O   0  0  0  0  0  0  0  0  0  0  0  0
  -27.4653  -33.8588   22.2710 O   0  0  0  0  0  0  0  0  0  0  0  0
  -21.3055  -24.5561   18.9675 O   0  0  0  0  0  0  0  0  0  0  0  0
  -25.6207  -13.0676   18.7436 O   0  0  0  0  0  0  0  0  0  0  0  0
  -25.4391  -28.3735   15.0671 O   0  0  0  0  0  0  0  0  0  0  0  0
  -27.5686  -28.7613   17.7593 O   0  0  0  0  0  0  0  0  0  1  0  0
  -28.8797   -9.6412   21.5795 F   0  0  0  0  0  0  0  0  0  0  0  0
  -24.5467  -11.1742   20.4480 F   0  0  0  0  0  0  0  0  0  0  0  0
  1  2  1  0  0  0  0
  1  5  2  0  0  0  0
  2  6  2  0  0  0  0
  3 10  2  0  0  0  0
  3 19  1  0  0  0  0
  4 11  1  0  0  0  0
  4 19  2  0  0  0  0
  5 21  1  0  0  0  0
  6 23  1  0  0  0  0
  7 12  2  0  0  0  0
  7 22  1  0  0  0  0
  8 13  2  0  0  0  0
  8 25  1  0  0  0  0
  9 14  1  0  0  0  0
  9 25  2  0  0  0  0
 10 26  1  0  0  0  0
 11 26  2  0  0  0  0
 12 28  1  0  0  0  0
 13 27  1  0  0  0  0
 14 27  2  0  0  0  0
 15 16  2  0  0  0  0
 15 29  1  0  0  0  0
 16 30  1  0  0  0  0
 17 24  1  0  0  0  0
 17 28  2  0  0  0  0
 18 30  2  0  0  0  0
 18 31  1  0  0  0  0
 19 32  1  0  0  0  0
 20 32  1  0  0  0  0
 20 33  2  0  0  0  0
 20 34  1  0  0  0  0
 21 23  2  0  0  0  0
 21 39  1  0  0  0  0
 22 24  2  0  0  0  0
 22 40  1  0  0  0  0
 23 48  1  0  0  0  0
 24 41  1  0  0  0  0
 25 56  1  0  0  0  0
 26 78  1  0  0  0  0
 27 79  1  0  0  0  0
 28 80  1  0  0  0  0
 29 31  2  0  0  0  0
 29 78  1  0  0  0  0
 30 81  1  0  0  0  0
 31 82  1  0  0  0  0
 32 63  2  0  0  0  0
 33 64  1  0  0  0  0
 33 67  1  0  0  0  0
 34 68  1  0  0  0  0
 34 73  2  0  0  0  0
 35 49  1  0  0  0  0
 35 69  1  0  0  0  0
 35 74  2  0  0  0  0
 36 60  1  0  0  0  0
 36 65  1  0  0  0  0
 36 75  2  0  0  0  0
 37 61  1  0  0  0  0
 37 70  1  0  0  0  0
 37 76  2  0  0  0  0
 38 66  1  0  0  0  0
 38 71  1  0  0  0  0
 38 77  2  0  0  0  0
 39 42  1  0  0  0  0
 40 49  1  0  0  0  0
 41 65  1  0  0  0  0
 42 44  1  0  0  0  0
 43 45  1  0  0  0  0
 43 46  1  0  0  0  0
 44 48  1  0  0  0  0
 45 50  1  0  0  0  0
 46 66  1  0  0  0  0
 47 50  1  0  0  0  0
 47 66  1  0  0  0  0
 48 69  1  0  0  0  0
 49 65  1  0  0  0  0
 50 64  1  0  0  0  0
 51 61  1  0  0  0  0
 52 62  1  0  0  0  0
 53 62  1  0  0  0  0
 54 62  1  0  0  0  0
 55 72  1  0  0  0  0
 56 71  1  0  0  0  0
 57 58  1  0  0  0  0
 57 59  1  0  0  0  0
 58 79  1  0  0  0  0
 59 80  1  0  0  0  0
 60 62  1  0  0  0  0
 60 70  1  0  0  0  0
 61 72  1  0  0  0  0
 63 64  1  0  0  0  0
M  CHG  1  72   1
M  ISO  4  38 100  59 101  71 100  80 101
M  END
> <Batch ID>
0001

> <Smiles>
CNC(C)C(=O)NC(C(=O)N1Cc2cc([101O:1][101CH2:1]CCOc3ccc(C[100NH:0][100C:0](=O)N4CCCC(n5nc(-c6ccc(Oc7ccc(F)cc7F)cc6)c(C(N)=O)c5N)C4)cc3)ccc2CC1C(=O)NC1CCCc2ccccc21)C(C)(C)C

> <Shape>
0.230

> <Color>
0.098

> <Negative vol penalty>
0.000

$$$$

  -OEChem-04042320143D

 75 82  0     1  0  0  0  0  0999 V2000
  -21.6576  -26.0082   22.2550 C   0  0  0  0  0  0  0  0  0  0  0  0
  -22.5356  -24.9529   22.0299 C   0  0  0  0  0  0  0  0  0  0  0  0
  -23.8221  -10.0103   22.1423 C   0  0  0  0  0  0  0  0  0  0  0  0
  -24.3934  -11.4271   24.0141 C   0  0  0  0  0  0  0  0  0  0  0  0
  -22.0394  -27.3110   21.9374 C   0  0  0  0  0  0  0  0  0  0  0  0
  -23.7956  -25.1996   21.4859 C   0  0  0  0  0  0  0  0  0  0  0  0
  -27.4742  -22.6745   23.8810 C   0  0  0  0  0  0  0  0  0  0  0  0
  -23.3018   -9.0598   23.0206 C   0  0  0  0  0  0  0  0  0  0  0  0
  -23.8731  -10.4766   24.8924 C   0  0  0  0  0  0  0  0  0  0  0  0
  -27.6174  -21.3207   23.5801 C   0  0  0  0  0  0  0  0  0  0  0  0
  -24.8491   -7.5351   26.2437 C   0  0  0  0  0  0  0  0  0  0  0  0
  -25.5983   -7.2219   27.3778 C   0  0  0  0  0  0  0  0  0  0  0  0
  -29.4494  -21.8491   22.1024 C   0  0  0  0  0  0  0  0  0  0  0  0
  -23.7739   -7.9504   28.7842 C   0  0  0  0  0  0  0  0  0  0  0  0
  -24.3679  -11.1940   22.6391 C   0  0  0  0  0  0  0  0  0  0  0  0
  -24.2169  -13.2470   21.1323 C   0  0  0  0  0  0  0  0  0  0  0  0
  -23.3083  -27.5750   21.3982 C   0  0  0  0  0  0  0  0  0  0  0  0
  -28.3119  -23.6285   23.2855 C   0  0  0  0  0  0  0  0  0  0  0  0
  -24.1942  -26.5070   21.1594 C   0  0  0  0  0  0  0  0  0  0  0  0
  -29.3165  -23.2141   22.3994 C   0  0  0  0  0  0  0  0  0  0  0  0
  -23.3273   -9.2929   24.3956 C   0  0  0  0  0  0  0  0  0  0  0  0
  -28.6032  -20.9081   22.6885 C   0  0  0  0  0  0  0  0  0  0  0  0
  -23.5623   -8.0560   26.3798 C   0  0  0  0  0  0  0  0  0  0  0  0
  -25.0607   -7.4295   28.6481 C   0  0  0  0  0  0  0  0  0  0  0  0
  -23.0247   -8.2636   27.6500 C   0  0  0  0  0  0  0  0  0  0  0  0
  -24.9060  -12.1760   21.7323 C   0  0  0  0  0  0  0  0  0  0  0  0
  -25.1651  -13.8790   20.3656 C   0  0  0  0  0  0  0  0  0  0  0  0
  -22.8425  -13.6357   21.2570 C   0  0  0  0  0  0  0  0  0  0  0  0
  -27.8632  -26.1195   21.3628 C   0  0  0  0  0  0  0  0  0  0  0  0
  -31.0302  -26.5937   21.8798 C   0  0  0  0  0  0  0  0  0  0  0  0
  -34.0557  -25.2690   22.7393 C   0  0  0  0  0  0  0  0  0  0  0  0
  -31.1355  -14.1863   20.6987 C   0  0  0  0  0  0  0  0  0  0  0  0
  -23.6583  -28.9942   21.0268 C   0  0  0  0  0  0  0  0  0  0  0  0
  -28.1620  -25.0822   23.6411 C   0  0  0  0  0  0  0  0  0  0  0  0
  -30.2547  -24.1964   21.7488 C   0  0  0  0  0  0  0  0  0  0  0  0
  -25.1521  -29.2144   20.8024 C   0  0  0  0  0  0  0  0  0  0  0  0
  -29.2021  -13.0226   17.9448 C   0  0  0  0  0  0  0  0  0  0  0  0
  -25.7287  -28.1085   19.9240 C   0  0  0  0  0  0  0  0  0  0  0  0
  -27.8196  -12.7703   18.5491 C   0  0  0  0  0  0  0  0  0  0  0  0
  -30.3192  -12.6648   18.9225 C   0  0  0  0  0  0  0  0  0  0  0  0
  -28.8331  -13.0581   20.8488 C   0  0  0  0  0  0  0  0  0  0  0  0
  -25.5789  -26.7373   20.5939 C   0  0  1  0  0  0  0  0  0  0  0  0
  -28.7355  -26.0186   22.5820 C   0  0  1  0  0  0  0  0  0  0  0  0
  -27.6733  -13.4569   19.9203 C   0  0  2  0  0  0  0  0  0  0  0  0
  -36.4673  -25.8955   23.0376 C   0  0  0  0  0  0  0  0  0  0  0  0
  -31.3900  -26.6419   18.8502 C   0  0  0  0  0  0  0  0  0  0  0  0
  -33.8462  -26.3127   19.2065 C   0  0  0  0  0  0  0  0  0  0  0  0
  -32.7232  -28.3590   20.0866 C   0  0  0  0  0  0  0  0  0  0  0  0
  -34.0184  -24.5131   25.6005 C   0  0  0  0  0  0  0  0  0  0  0  0
  -31.6127  -17.1488   22.1275 C   0  0  0  0  0  0  0  0  0  0  0  0
  -30.2124  -17.6705   22.4514 C   0  0  0  0  0  0  0  0  0  0  0  0
  -31.8074  -15.6961   22.5503 C   0  0  0  0  0  0  0  0  0  0  0  0
  -30.0554  -19.1337   22.0572 C   0  0  0  0  0  0  0  0  0  1  0  0
  -32.3032  -26.1339   21.2112 C   0  0  1  0  0  0  0  0  0  0  0  0
  -35.1174  -25.7346   23.7193 C   0  0  2  0  0  0  0  0  0  0  0  0
  -32.5469  -26.8433   19.8492 C   0  0  0  0  0  0  0  0  0  0  0  0
  -26.1927  -12.1272   21.3772 N   0  0  0  0  0  0  0  0  0  0  0  0
  -26.3196  -13.1754   20.5457 N   0  0  0  0  0  0  0  0  0  0  0  0
  -30.0641  -25.6073   22.1236 N   0  0  0  0  0  0  0  0  0  0  0  0
  -30.1222  -13.3497   20.2023 N   0  0  0  0  0  0  0  0  0  0  0  0
  -25.1157  -14.9623   19.5616 N   0  0  0  0  0  0  0  0  0  0  0  0
  -22.0059  -12.8763   22.0863 N   0  0  0  0  0  0  0  0  0  0  0  0
  -26.5815  -26.5654   21.6233 N   0  0  0  0  0  0  0  0  0  0  0  0
  -33.3704  -26.3301   22.1864 N   0  0  0  0  0  0  0  0  0  0  0  0
  -30.8653  -14.8020   21.9147 N   0  0  0  0  0  0  0  0  0  0  0  0
  -35.2654  -24.7508   24.8288 N   0  3  0  0  0  0  0  0  0  0  0  0
  -22.3663  -14.6175   20.6382 O   0  0  0  0  0  0  0  0  0  0  0  0
  -28.3196  -25.8167   20.2665 O   0  0  0  0  0  0  0  0  0  0  0  0
  -30.9009  -27.7828   22.1813 O   0  0  0  0  0  0  0  0  0  0  0  0
  -33.8568  -24.0828   22.4866 O   0  0  0  0  0  0  0  0  0  0  0  0
  -32.1998  -14.3751   20.0998 O   0  0  0  0  0  0  0  0  0  0  0  0
  -22.8195   -8.3657   25.2529 O   0  0  0  0  0  0  0  0  0  0  0  0
  -28.7447  -19.5874   22.3925 O   0  0  0  0  0  0  0  0  0  1  0  0
  -25.7797   -7.1273   29.7370 F   0  0  0  0  0  0  0  0  0  0  0  0
  -21.7886   -8.7626   27.7871 F   0  0  0  0  0  0  0  0  0  0  0  0
  1  2  1  0  0  0  0
  1  5  2  0  0  0  0
  2  6  2  0  0  0  0
  3  8  2  0  0  0  0
  3 15  1  0  0  0  0
  4  9  1  0  0  0  0
  4 15  2  0  0  0  0
  5 17  1  0  0  0  0
  6 19  1  0  0  0  0
  7 10  2  0  0  0  0
  7 18  1  0  0  0  0
  8 21  1  0  0  0  0
  9 21  2  0  0  0  0
 10 22  1  0  0  0  0
 11 12  2  0  0  0  0
 11 23  1  0  0  0  0
 12 24  1  0  0  0  0
 13 20  1  0  0  0  0
 13 22  2  0  0  0  0
 14 24  2  0  0  0  0
 14 25  1  0  0  0  0
 15 26  1  0  0  0  0
 16 26  1  0  0  0  0
 16 27  2  0  0  0  0
 16 28  1  0  0  0  0
 17 19  2  0  0  0  0
 17 33  1  0  0  0  0
 18 20  2  0  0  0  0
 18 34  1  0  0  0  0
 19 42  1  0  0  0  0
 20 35  1  0  0  0  0
 21 72  1  0  0  0  0
 22 73  1  0  0  0  0
 23 25  2  0  0  0  0
 23 72  1  0  0  0  0
 24 74  1  0  0  0  0
 25 75  1  0  0  0  0
 26 57  2  0  0  0  0
 27 58  1  0  0  0  0
 27 61  1  0  0  0  0
 28 62  1  0  0  0  0
 28 67  2  0  0  0  0
 29 43  1  0  0  0  0
 29 63  1  0  0  0  0
 29 68  2  0  0  0  0
 30 54  1  0  0  0  0
 30 59  1  0  0  0  0
 30 69  2  0  0  0  0
 31 55  1  0  0  0  0
 31 64  1  0  0  0  0
 31 70  2  0  0  0  0
 32 60  1  0  0  0  0
 32 65  1  0  0  0  0
 32 71  2  0  0  0  0
 33 36  1  0  0  0  0
 34 43  1  0  0  0  0
 35 59  1  0  0  0  0
 36 38  1  0  0  0  0
 37 39  1  0  0  0  0
 37 40  1  0  0  0  0
 38 42  1  0  0  0  0
 39 44  1  0  0  0  0
 40 60  1  0  0  0  0
 41 44  1  0  0  0  0
 41 60  1  0  0  0  0
 42 63  1  0  0  0  0
 43 59  1  0  0  0  0
 44 58  1  0  0  0  0
 45 55  1  0  0  0  0
 46 56  1  0  0  0  0
 47 56  1  0  0  0  0
 48 56  1  0  0  0  0
 49 66  1  0  0  0  0
 50 51  1  0  0  0  0
 50 52  1  0  0  0  0
 51 53  1  0  0  0  0
 52 65  1  0  0  0  0
 53 73  1  0  0  0  0
 54 56  1  0  0  0  0
 54 64  1  0  0  0  0
 55 66  1  0  0  0  0
 57 58  1  0  0  0  0
M  CHG  1  66   1
M  ISO  4  32 100  53 101  65 100  73 101
M  END
> <Batch ID>
0001

> <Smiles>
CNC(C)C(=O)NC(C(=O)N1Cc2cc([101O:1][101CH2:1]CCC[100NH:0][100C:0](=O)N3CCCC(n4nc(-c5ccc(Oc6ccc(F)cc6F)cc5)c(C(N)=O)c4N)C3)ccc2CC1C(=O)NC1CCCc2ccccc21)C(C)(C)C

> <Shape>
0.193

> <Color>
0.131

> <Negative vol penalty>
0.000

$$$$

  -OEChem-04042320143D

 80 88  0     1  0  0  0  0  0999 V2000
  -18.5482  -31.7530   26.1753 C   0  0  0  0  0  0  0  0  0  0  0  0
  -19.8982  -31.4404   26.2986 C   0  0  0  0  0  0  0  0  0  0  0  0
  -24.7287  -10.0532   22.3144 C   0  0  0  0  0  0  0  0  0  0  0  0
  -24.7897  -11.5591   24.2027 C   0  0  0  0  0  0  0  0  0  0  0  0
  -17.8021  -31.2149   25.1276 C   0  0  0  0  0  0  0  0  0  0  0  0
  -20.5027  -30.5886   25.3747 C   0  0  0  0  0  0  0  0  0  0  0  0
  -26.7719  -29.4482   22.1016 C   0  0  0  0  0  0  0  0  0  0  0  0
  -27.2058  -20.3174   20.6978 C   0  0  0  0  0  0  0  0  0  0  0  0
  -29.6207  -20.3774   20.7345 C   0  0  0  0  0  0  0  0  0  0  0  0
  -27.1679  -21.6897   20.9445 C   0  0  0  0  0  0  0  0  0  0  0  0
  -29.5829  -21.7498   20.9811 C   0  0  0  0  0  0  0  0  0  0  0  0
  -24.4137   -8.9958   23.1677 C   0  0  0  0  0  0  0  0  0  0  0  0
  -24.4747  -10.5017   25.0561 C   0  0  0  0  0  0  0  0  0  0  0  0
  -27.6934  -28.4293   21.8645 C   0  0  0  0  0  0  0  0  0  0  0  0
  -23.2387   -5.9701   24.8046 C   0  0  0  0  0  0  0  0  0  0  0  0
  -22.2209   -5.1009   24.4120 C   0  0  0  0  0  0  0  0  0  0  0  0
  -26.3245  -27.6218   20.0497 C   0  0  0  0  0  0  0  0  0  0  0  0
  -20.6604   -6.9450   24.3749 C   0  0  0  0  0  0  0  0  0  0  0  0
  -24.9168  -11.3349   22.8318 C   0  0  0  0  0  0  0  0  0  0  0  0
  -24.3424  -13.2877   21.2942 C   0  0  0  0  0  0  0  0  0  0  0  0
  -18.4000  -30.3637   24.1849 C   0  0  0  0  0  0  0  0  0  0  0  0
  -25.6124  -29.5553   21.3203 C   0  0  0  0  0  0  0  0  0  0  0  0
  -19.7636  -30.0376   24.3142 C   0  0  0  0  0  0  0  0  0  0  0  0
  -25.3911  -28.6446   20.2773 C   0  0  0  0  0  0  0  0  0  0  0  0
  -28.4322  -19.6612   20.5928 C   0  0  0  0  0  0  0  0  0  0  0  0
  -28.3564  -22.4059   21.0862 C   0  0  0  0  0  0  0  0  0  0  0  0
  -24.2867   -9.2200   24.5386 C   0  0  0  0  0  0  0  0  0  0  0  0
  -27.4684  -27.5141   20.8403 C   0  0  0  0  0  0  0  0  0  0  0  0
  -22.9674   -7.3267   24.9825 C   0  0  0  0  0  0  0  0  0  0  0  0
  -20.9317   -5.5884   24.1971 C   0  0  0  0  0  0  0  0  0  0  0  0
  -21.6782   -7.8142   24.7676 C   0  0  0  0  0  0  0  0  0  0  0  0
  -25.2427  -12.4274   21.9509 C   0  0  0  0  0  0  0  0  0  0  0  0
  -25.1446  -14.1471   20.5840 C   0  0  0  0  0  0  0  0  0  0  0  0
  -22.9091  -13.3081   21.3236 C   0  0  0  0  0  0  0  0  0  0  0  0
  -22.4917  -29.4018   21.9046 C   0  0  0  0  0  0  0  0  0  0  0  0
  -22.2608  -30.2569   18.7840 C   0  0  0  0  0  0  0  0  0  0  0  0
  -23.6991  -30.3465   15.6905 C   0  0  0  0  0  0  0  0  0  0  0  0
  -29.6020  -17.4630   20.2114 C   0  0  0  0  0  0  0  0  0  0  0  0
  -17.5418  -29.7687   23.0968 C   0  0  0  0  0  0  0  0  0  0  0  0
  -24.6413  -30.6762   21.5716 C   0  0  0  0  0  0  0  0  0  0  0  0
  -24.1720  -28.7281   19.3968 C   0  0  0  0  0  0  0  0  0  0  0  0
  -18.3459  -29.1726   21.9443 C   0  0  0  0  0  0  0  0  0  0  0  0
  -30.1137  -13.9872   19.6330 C   0  0  0  0  0  0  0  0  0  0  0  0
  -19.4826  -28.3068   22.4781 C   0  0  0  0  0  0  0  0  0  0  0  0
  -28.8180  -13.3423   20.1305 C   0  0  0  0  0  0  0  0  0  0  0  0
  -30.5260  -15.1745   20.5014 C   0  0  0  0  0  0  0  0  0  0  0  0
  -28.1908  -15.5488   21.1912 C   0  0  0  0  0  0  0  0  0  0  0  0
  -20.4610  -29.1371   23.3177 C   0  0  1  0  0  0  0  0  0  0  0  0
  -23.2398  -30.3818   21.0458 C   0  0  1  0  0  0  0  0  0  0  0  0
  -27.7004  -14.3885   20.3097 C   0  0  2  0  0  0  0  0  0  0  0  0
  -23.2520  -31.0729   13.3305 C   0  0  0  0  0  0  0  0  0  0  0  0
  -20.4516  -27.8328   18.3832 C   0  0  0  0  0  0  0  0  0  0  0  0
  -20.8141  -28.0576   15.9162 C   0  0  0  0  0  0  0  0  0  0  0  0
  -19.7085  -29.8986   17.1854 C   0  0  0  0  0  0  0  0  0  0  0  0
  -25.9723  -32.2414   15.7202 C   0  0  0  0  0  0  0  0  0  0  0  0
  -29.4983  -24.5873   21.4902 C   0  0  0  0  0  0  0  0  0  0  0  0
  -29.1071  -26.0364   21.7273 C   0  0  0  0  0  0  0  0  0  1  0  0
  -22.1901  -29.5109   17.4735 C   0  0  1  0  0  0  0  0  0  0  0  0
  -23.8389  -31.4677   14.6768 C   0  0  2  0  0  0  0  0  0  0  0  0
  -20.8132  -28.8220   17.2572 C   0  0  0  0  0  0  0  0  0  0  0  0
  -26.5192  -12.7141   21.6816 N   0  0  0  0  0  0  0  0  0  0  0  0
  -26.4267  -13.7641   20.8479 N   0  0  0  0  0  0  0  0  0  0  0  0
  -23.2489  -29.8380   19.6862 N   0  0  0  0  0  0  0  0  0  0  0  0
  -29.4192  -16.1258   20.6230 N   0  0  0  0  0  0  0  0  0  0  0  0
  -24.8713  -15.1854   19.7657 N   0  0  0  0  0  0  0  0  0  0  0  0
  -22.2432  -12.3540   22.1051 N   0  0  0  0  0  0  0  0  0  0  0  0
  -28.4703  -18.2668   20.3438 N   0  0  0  0  0  0  0  0  0  0  0  0
  -28.3183  -23.7688   21.3303 N   0  0  0  0  0  0  0  0  0  0  0  0
  -21.3331  -29.9104   22.4599 N   0  0  0  0  0  0  0  0  0  0  0  0
  -22.5463  -30.4731   16.4364 N   0  0  0  0  0  0  0  0  0  0  0  0
  -25.2754  -31.8123   14.4803 N   0  3  0  0  0  0  0  0  0  0  0  0
  -22.2383  -14.1372   20.6632 O   0  0  0  0  0  0  0  0  0  0  0  0
  -22.9321  -28.2677   22.0513 O   0  0  0  0  0  0  0  0  0  0  0  0
  -21.4730  -31.1821   18.9964 O   0  0  0  0  0  0  0  0  0  0  0  0
  -24.5277  -29.4462   15.8064 O   0  0  0  0  0  0  0  0  0  0  0  0
  -30.6749  -17.8585   19.7484 O   0  0  0  0  0  0  0  0  0  0  0  0
  -23.9791   -8.1885   25.3716 O   0  0  0  0  0  0  0  0  0  0  0  0
  -28.3660  -26.5182   20.6071 O   0  0  0  0  0  0  0  0  0  1  0  0
  -19.9548   -4.7539   23.8185 F   0  0  0  0  0  0  0  0  0  0  0  0
  -21.4118   -9.1167   24.9358 F   0  0  0  0  0  0  0  0  0  0  0  0
  1  2  1  0  0  0  0
  1  5  2  0  0  0  0
  2  6  2  0  0  0  0
  3 12  2  0  0  0  0
  3 19  1  0  0  0  0
  4 13  1  0  0  0  0
  4 19  2  0  0  0  0
  5 21  1  0  0  0  0
  6 23  1  0  0  0  0
  7 14  2  0  0  0  0
  7 22  1  0  0  0  0
  8 10  2  0  0  0  0
  8 25  1  0  0  0  0
  9 11  1  0  0  0  0
  9 25  2  0  0  0  0
 10 26  1  0  0  0  0
 11 26  2  0  0  0  0
 12 27  1  0  0  0  0
 13 27  2  0  0  0  0
 14 28  1  0  0  0  0
 15 16  2  0  0  0  0
 15 29  1  0  0  0  0
 16 30  1  0  0  0  0
 17 24  1  0  0  0  0
 17 28  2  0  0  0  0
 18 30  2  0  0  0  0
 18 31  1  0  0  0  0
 19 32  1  0  0  0  0
 20 32  1  0  0  0  0
 20 33  2  0  0  0  0
 20 34  1  0  0  0  0
 21 23  2  0  0  0  0
 21 39  1  0  0  0  0
 22 24  2  0  0  0  0
 22 40  1  0  0  0  0
 23 48  1  0  0  0  0
 24 41  1  0  0  0  0
 25 67  1  0  0  0  0
 26 68  1  0  0  0  0
 27 77  1  0  0  0  0
 28 78  1  0  0  0  0
 29 31  2  0  0  0  0
 29 77  1  0  0  0  0
 30 79  1  0  0  0  0
 31 80  1  0  0  0  0
 32 61  2  0  0  0  0
 33 62  1  0  0  0  0
 33 65  1  0  0  0  0
 34 66  1  0  0  0  0
 34 72  2  0  0  0  0
 35 49  1  0  0  0  0
 35 69  1  0  0  0  0
 35 73  2  0  0  0  0
 36 58  1  0  0  0  0
 36 63  1  0  0  0  0
 36 74  2  0  0  0  0
 37 59  1  0  0  0  0
 37 70  1  0  0  0  0
 37 75  2  0  0  0  0
 38 64  1  0  0  0  0
 38 67  1  0  0  0  0
 38 76  2  0  0  0  0
 39 42  1  0  0  0  0
 40 49  1  0  0  0  0
 41 63  1  0  0  0  0
 42 44  1  0  0  0  0
 43 45  1  0  0  0  0
 43 46  1  0  0  0  0
 44 48  1  0  0  0  0
 45 50  1  0  0  0  0
 46 64  1  0  0  0  0
 47 50  1  0  0  0  0
 47 64  1  0  0  0  0
 48 69  1  0  0  0  0
 49 63  1  0  0  0  0
 50 62  1  0  0  0  0
 51 59  1  0  0  0  0
 52 60  1  0  0  0  0
 53 60  1  0  0  0  0
 54 60  1  0  0  0  0
 55 71  1  0  0  0  0
 56 57  1  0  0  0  0
 56 68  1  0  0  0  0
 57 78  1  0  0  0  0
 58 60  1  0  0  0  0
 58 70  1  0  0  0  0
 59 71  1  0  0  0  0
 61 62  1  0  0  0  0
M  CHG  1  71   1
M  ISO  4  38 100  57 101  67 100  78 101
M  END
> <Batch ID>
0001

> <Smiles>
CNC(C)C(=O)NC(C(=O)N1Cc2cc([101O:1][101CH2:1]CNc3ccc([100NH:0][100C:0](=O)N4CCCC(n5nc(-c6ccc(Oc7ccc(F)cc7F)cc6)c(C(N)=O)c5N)C4)cc3)ccc2CC1C(=O)NC1CCCc2ccccc21)C(C)(C)C

> <Shape>
0.286

> <Color>
0.137

> <Negative vol penalty>
0.000

$$$$

  -OEChem-04042320143D

 83 90  0     1  0  0  0  0  0999 V2000
  -29.5433  -19.5730   24.1510 C   0  0  0  0  0  0  0  0  0  0  0  0
  -28.1785  -19.5380   23.8841 C   0  0  0  0  0  0  0  0  0  0  0  0
  -28.2171  -25.6245   18.5515 C   0  0  0  0  0  0  0  0  0  0  0  0
  -26.0851  -24.4890   18.5987 C   0  0  0  0  0  0  0  0  0  0  0  0
  -30.4101  -18.7297   23.4572 C   0  0  0  0  0  0  0  0  0  0  0  0
  -27.6796  -18.6603   22.9222 C   0  0  0  0  0  0  0  0  0  0  0  0
  -23.5138  -16.2371   24.4775 C   0  0  0  0  0  0  0  0  0  0  0  0
  -28.8726  -24.3989   18.6692 C   0  0  0  0  0  0  0  0  0  0  0  0
  -26.7406  -23.2633   18.7163 C   0  0  0  0  0  0  0  0  0  0  0  0
  -22.3140  -16.9463   24.4421 C   0  0  0  0  0  0  0  0  0  0  0  0
  -29.5982  -22.1881   21.1208 C   0  0  0  0  0  0  0  0  0  0  0  0
  -30.6530  -22.1027   22.0294 C   0  0  0  0  0  0  0  0  0  0  0  0
  -21.7328  -15.8483   22.3743 C   0  0  0  0  0  0  0  0  0  0  0  0
  -32.1547  -21.5136   20.2308 C   0  0  0  0  0  0  0  0  0  0  0  0
  -26.8234  -25.6696   18.5163 C   0  0  0  0  0  0  0  0  0  0  0  0
  -25.7712  -27.5889   17.2061 C   0  0  0  0  0  0  0  0  0  0  0  0
  -29.9204  -17.8343   22.4932 C   0  0  0  0  0  0  0  0  0  0  0  0
  -23.8376  -15.3346   23.4542 C   0  0  0  0  0  0  0  0  0  0  0  0
  -28.5408  -17.8051   22.2138 C   0  0  0  0  0  0  0  0  0  0  0  0
  -22.9362  -15.1269   22.4004 C   0  0  0  0  0  0  0  0  0  0  0  0
  -28.1343  -23.2183   18.7515 C   0  0  0  0  0  0  0  0  0  0  0  0
  -21.4246  -16.7541   23.3889 C   0  0  0  0  0  0  0  0  0  0  0  0
  -29.8216  -21.9362   19.7671 C   0  0  0  0  0  0  0  0  0  0  0  0
  -31.9313  -21.7655   21.5845 C   0  0  0  0  0  0  0  0  0  0  0  0
  -31.0999  -21.5990   19.3222 C   0  0  0  0  0  0  0  0  0  0  0  0
  -26.1458  -26.9354   18.3954 C   0  0  0  0  0  0  0  0  0  0  0  0
  -25.1631  -28.7462   17.6271 C   0  0  0  0  0  0  0  0  0  0  0  0
  -25.9563  -27.1857   15.8426 C   0  0  0  0  0  0  0  0  0  0  0  0
  -26.1625  -15.1302   21.2963 C   0  0  0  0  0  0  0  0  0  0  0  0
  -24.7775  -12.2697   20.6470 C   0  0  0  0  0  0  0  0  0  0  0  0
  -19.5951  -26.0233   23.5587 C   0  0  0  0  0  0  0  0  0  0  0  0
  -21.9802  -10.3170   20.7423 C   0  0  0  0  0  0  0  0  0  0  0  0
  -22.3662  -30.2713   22.6969 C   0  0  0  0  0  0  0  0  0  0  0  0
  -30.9017  -16.9756   21.7352 C   0  0  0  0  0  0  0  0  0  0  0  0
  -25.1237  -14.5575   23.5209 C   0  0  0  0  0  0  0  0  0  0  0  0
  -23.2275  -14.1545   21.2878 C   0  0  0  0  0  0  0  0  0  0  0  0
  -30.2480  -15.8096   20.9980 C   0  0  0  0  0  0  0  0  0  0  0  0
  -25.1825  -31.8873   21.2360 C   0  0  0  0  0  0  0  0  0  0  0  0
  -29.0138  -16.2837   20.2372 C   0  0  0  0  0  0  0  0  0  0  0  0
  -25.7149  -30.8604   20.2350 C   0  0  0  0  0  0  0  0  0  0  0  0
  -24.6468  -31.2182   22.4999 C   0  0  0  0  0  0  0  0  0  0  0  0
  -24.1723  -29.1396   21.2637 C   0  0  0  0  0  0  0  0  0  0  0  0
  -27.9585  -16.8492   21.1953 C   0  0  1  0  0  0  0  0  0  0  0  0
  -25.5835  -14.0452   22.1595 C   0  0  1  0  0  0  0  0  0  0  0  0
  -24.6721  -29.7630   19.9492 C   0  0  2  0  0  0  0  0  0  0  0  0
  -21.1459   -8.0382   20.1034 C   0  0  0  0  0  0  0  0  0  0  0  0
  -24.6322  -13.1441   17.7274 C   0  0  0  0  0  0  0  0  0  0  0  0
  -22.9812  -11.3043   17.3310 C   0  0  0  0  0  0  0  0  0  0  0  0
  -25.3004  -10.7586   18.0699 C   0  0  0  0  0  0  0  0  0  0  0  0
  -21.3596   -9.6289   23.5530 C   0  0  0  0  0  0  0  0  0  0  0  0
  -20.3310  -24.7020   23.4934 C   0  0  0  0  0  0  0  0  0  0  0  0
  -19.9879  -28.4257   24.0785 C   0  0  0  0  0  0  0  0  0  0  0  0
  -20.1245  -29.2101   22.7838 C   0  0  0  0  0  0  0  0  0  0  0  0
  -19.7146  -17.7419   22.0638 C   0  0  0  0  0  0  0  0  0  1  0  0
  -20.1292  -22.4085   23.0222 C   0  0  0  0  0  0  0  0  0  0  0  0
  -18.9367  -19.0414   22.1393 C   0  0  0  0  0  0  0  0  0  0  0  0
  -19.1406  -21.3347   22.6104 C   0  0  0  0  0  0  0  0  0  0  0  0
  -23.6869  -11.7966   19.7165 C   0  0  1  0  0  0  0  0  0  0  0  0
  -21.7655   -8.8866   21.2029 C   0  0  2  0  0  0  0  0  0  0  0  0
  -24.1453  -11.7708   18.2310 C   0  0  0  0  0  0  0  0  0  0  0  0
  -25.8044  -27.6207   19.4898 N   0  0  0  0  0  0  0  0  0  0  0  0
  -25.2089  -28.7169   18.9899 N   0  0  0  0  0  0  0  0  0  0  0  0
  -24.5008  -13.4231   21.3946 N   0  0  0  0  0  0  0  0  0  0  0  0
  -23.6614  -30.1891   22.1595 N   0  0  0  0  0  0  0  0  0  0  0  0
  -24.5991  -29.7760   16.9608 N   0  0  0  0  0  0  0  0  0  0  0  0
  -26.6004  -25.9674   15.5877 N   0  0  0  0  0  0  0  0  0  0  0  0
  -27.2487  -15.7752   21.8564 N   0  0  0  0  0  0  0  0  0  0  0  0
  -20.4347  -27.0587   23.9387 N   0  0  0  0  0  0  0  0  0  0  0  0
  -23.2460  -10.5036   20.2284 N   0  0  0  0  0  0  0  0  0  0  0  0
  -21.4926  -29.2592   22.3184 N   0  0  0  0  0  0  0  0  0  0  0  0
  -20.8617   -8.8540   22.3874 N   0  3  0  0  0  0  0  0  0  0  0  0
  -25.5767  -27.8930   14.8786 O   0  0  0  0  0  0  0  0  0  0  0  0
  -25.6619  -15.3639   20.2025 O   0  0  0  0  0  0  0  0  0  0  0  0
  -25.8331  -11.6350   20.7136 O   0  0  0  0  0  0  0  0  0  0  0  0
  -18.3996  -26.1311   23.2997 O   0  0  0  0  0  0  0  0  0  0  0  0
  -21.1106  -11.1815   20.8263 O   0  0  0  0  0  0  0  0  0  0  0  0
  -22.0129  -31.1823   23.4533 O   0  0  0  0  0  0  0  0  0  0  0  0
  -28.7735  -22.0221   18.8661 O   0  0  0  0  0  0  0  0  0  0  0  0
  -20.2531  -17.4456   23.3516 O   0  0  0  0  0  0  0  0  0  1  0  0
  -19.4548  -23.6591   23.0894 O   0  0  0  0  0  0  0  0  0  0  0  0
  -19.8186  -20.0892   22.5235 O   0  0  0  0  0  0  0  0  0  0  0  0
  -32.9444  -21.6851   22.4570 F   0  0  0  0  0  0  0  0  0  0  0  0
  -31.3209  -21.3570   18.0228 F   0  0  0  0  0  0  0  0  0  0  0  0
  1  2  1  0  0  0  0
  1  5  2  0  0  0  0
  2  6  2  0  0  0  0
  3  8  2  0  0  0  0
  3 15  1  0  0  0  0
  4  9  1  0  0  0  0
  4 15  2  0  0  0  0
  5 17  1  0  0  0  0
  6 19  1  0  0  0  0
  7 10  2  0  0  0  0
  7 18  1  0  0  0  0
  8 21  1  0  0  0  0
  9 21  2  0  0  0  0
 10 22  1  0  0  0  0
 11 12  2  0  0  0  0
 11 23  1  0  0  0  0
 12 24  1  0  0  0  0
 13 20  1  0  0  0  0
 13 22  2  0  0  0  0
 14 24  2  0  0  0  0
 14 25  1  0  0  0  0
 15 26  1  0  0  0  0
 16 26  1  0  0  0  0
 16 27  2  0  0  0  0
 16 28  1  0  0  0  0
 17 19  2  0  0  0  0
 17 34  1  0  0  0  0
 18 20  2  0  0  0  0
 18 35  1  0  0  0  0
 19 43  1  0  0  0  0
 20 36  1  0  0  0  0
 21 78  1  0  0  0  0
 22 79  1  0  0  0  0
 23 25  2  0  0  0  0
 23 78  1  0  0  0  0
 24 82  1  0  0  0  0
 25 83  1  0  0  0  0
 26 61  2  0  0  0  0
 27 62  1  0  0  0  0
 27 65  1  0  0  0  0
 28 66  1  0  0  0  0
 28 72  2  0  0  0  0
 29 44  1  0  0  0  0
 29 67  1  0  0  0  0
 29 73  2  0  0  0  0
 30 58  1  0  0  0  0
 30 63  1  0  0  0  0
 30 74  2  0  0  0  0
 31 51  1  0  0  0  0
 31 68  1  0  0  0  0
 31 75  2  0  0  0  0
 32 59  1  0  0  0  0
 32 69  1  0  0  0  0
 32 76  2  0  0  0  0
 33 64  1  0  0  0  0
 33 70  1  0  0  0  0
 33 77  2  0  0  0  0
 34 37  1  0  0  0  0
 35 44  1  0  0  0  0
 36 63  1  0  0  0  0
 37 39  1  0  0  0  0
 38 40  1  0  0  0  0
 38 41  1  0  0  0  0
 39 43  1  0  0  0  0
 40 45  1  0  0  0  0
 41 64  1  0  0  0  0
 42 45  1  0  0  0  0
 42 64  1  0  0  0  0
 43 67  1  0  0  0  0
 44 63  1  0  0  0  0
 45 62  1  0  0  0  0
 46 59  1  0  0  0  0
 47 60  1  0  0  0  0
 48 60  1  0  0  0  0
 49 60  1  0  0  0  0
 50 71  1  0  0  0  0
 51 80  1  0  0  0  0
 52 53  1  0  0  0  0
 52 68  1  0  0  0  0
 53 70  1  0  0  0  0
 54 56  1  0  0  0  0
 54 79  1  0  0  0  0
 55 57  1  0  0  0  0
 55 80  1  0  0  0  0
 56 81  1  0  0  0  0
 57 81  1  0  0  0  0
 58 60  1  0  0  0  0
 58 69  1  0  0  0  0
 59 71  1  0  0  0  0
 61 62  1  0  0  0  0
M  CHG  1  71   1
M  ISO  4  33 100  54 101  70 100  79 101
M  END
> <Batch ID>
0001

> <Smiles>
CNC(C)C(=O)NC(C(=O)N1Cc2cc([101O:1][101CH2:1]COCCOCC(=O)NCC[100NH:0][100C:0](=O)N3CCCC(n4nc(-c5ccc(Oc6ccc(F)cc6F)cc5)c(C(N)=O)c4N)C3)ccc2CC1C(=O)NC1CCCc2ccccc21)C(C)(C)C

> <Shape>
0.209

> <Color>
0.078

> <Negative vol penalty>
0.000

$$$$

  -OEChem-04042320143D

 79 87  0     1  0  0  0  0  0999 V2000
  -29.7327  -34.6434   22.7549 C   0  0  0  0  0  0  0  0  0  0  0  0
  -29.5544  -33.2639   22.7336 C   0  0  0  0  0  0  0  0  0  0  0  0
  -26.8887  -12.5110   21.8991 C   0  0  0  0  0  0  0  0  0  0  0  0
  -26.0687  -14.3352   20.5437 C   0  0  0  0  0  0  0  0  0  0  0  0
  -29.4533  -23.7469   23.2642 C   0  0  0  0  0  0  0  0  0  0  0  0
  -28.5350  -23.1344   21.1150 C   0  0  0  0  0  0  0  0  0  0  0  0
  -28.6569  -35.4798   23.0499 C   0  0  0  0  0  0  0  0  0  0  0  0
  -28.3002  -32.7198   23.0085 C   0  0  0  0  0  0  0  0  0  0  0  0
  -27.0187  -29.0534   19.7589 C   0  0  0  0  0  0  0  0  0  0  0  0
  -30.0016  -22.4710   23.3936 C   0  0  0  0  0  0  0  0  0  0  0  0
  -29.0835  -21.8584   21.2444 C   0  0  0  0  0  0  0  0  0  0  0  0
  -25.5959  -11.9949   21.9867 C   0  0  0  0  0  0  0  0  0  0  0  0
  -24.7758  -13.8191   20.6313 C   0  0  0  0  0  0  0  0  0  0  0  0
  -27.5971  -27.7998   19.9529 C   0  0  0  0  0  0  0  0  0  0  0  0
  -22.5699   -9.9999   22.2665 C   0  0  0  0  0  0  0  0  0  0  0  0
  -22.4052   -8.6277   22.0779 C   0  0  0  0  0  0  0  0  0  0  0  0
  -25.5769  -27.0413   21.0313 C   0  0  0  0  0  0  0  0  0  0  0  0
  -23.3291   -8.8225   19.8541 C   0  0  0  0  0  0  0  0  0  0  0  0
  -27.1252  -13.6812   21.1776 C   0  0  0  0  0  0  0  0  0  0  0  0
  -28.7199  -24.0786   22.1249 C   0  0  0  0  0  0  0  0  0  0  0  0
  -29.4283  -13.9227   20.1077 C   0  0  0  0  0  0  0  0  0  0  0  0
  -27.3867  -34.9461   23.3190 C   0  0  0  0  0  0  0  0  0  0  0  0
  -25.7168  -29.3141   20.2100 C   0  0  0  0  0  0  0  0  0  0  0  0
  -27.2067  -33.5497   23.3087 C   0  0  0  0  0  0  0  0  0  0  0  0
  -24.9833  -28.2982   20.8394 C   0  0  0  0  0  0  0  0  0  0  0  0
  -29.8168  -21.5267   22.3837 C   0  0  0  0  0  0  0  0  0  0  0  0
  -24.5394  -12.6489   21.3528 C   0  0  0  0  0  0  0  0  0  0  0  0
  -26.8772  -26.7944   20.5918 C   0  0  0  0  0  0  0  0  0  0  0  0
  -23.1141  -10.7834   21.2489 C   0  0  0  0  0  0  0  0  0  0  0  0
  -22.7848   -8.0390   20.8717 C   0  0  0  0  0  0  0  0  0  0  0  0
  -23.4938  -10.1947   20.0427 C   0  0  0  0  0  0  0  0  0  0  0  0
  -28.4604  -14.2151   21.0872 C   0  0  0  0  0  0  0  0  0  0  0  0
  -30.5177  -14.6790   20.4650 C   0  0  0  0  0  0  0  0  0  0  0  0
  -29.3497  -13.0459   18.9760 C   0  0  0  0  0  0  0  0  0  0  0  0
  -28.1357  -25.4375   21.9872 C   0  0  0  0  0  0  0  0  0  1  0  0
  -24.4308  -31.3255   22.3087 C   0  0  0  0  0  0  0  0  0  0  0  0
  -21.6432  -30.1350   21.1535 C   0  0  0  0  0  0  0  0  0  0  0  0
  -20.0094  -27.5714   19.6026 C   0  0  0  0  0  0  0  0  0  0  0  0
  -31.1283  -19.7404   23.5818 C   0  0  0  0  0  0  0  0  0  0  0  0
  -26.2650  -35.8878   23.6792 C   0  0  0  0  0  0  0  0  0  0  0  0
  -25.0974  -30.6635   19.9692 C   0  0  0  0  0  0  0  0  0  0  0  0
  -23.5749  -28.5210   21.3244 C   0  0  0  0  0  0  0  0  0  0  0  0
  -24.8814  -35.2491   23.5910 C   0  0  0  0  0  0  0  0  0  0  0  0
  -32.6469  -16.6011   24.2999 C   0  0  0  0  0  0  0  0  0  0  0  0
  -24.8801  -33.8825   24.2687 C   0  0  0  0  0  0  0  0  0  0  0  0
  -31.8376  -15.6072   23.4637 C   0  0  0  0  0  0  0  0  0  0  0  0
  -31.7666  -17.7127   24.8686 C   0  0  0  0  0  0  0  0  0  0  0  0
  -30.1374  -17.4290   23.0426 C   0  0  0  0  0  0  0  0  0  0  0  0
  -25.8558  -32.9228   23.5771 C   0  0  1  0  0  0  0  0  0  0  0  0
  -23.9525  -30.9752   20.9280 C   0  0  1  0  0  0  0  0  0  0  0  0
  -30.9920  -16.3271   22.3950 C   0  0  2  0  0  0  0  0  0  0  0  0
  -17.7269  -26.8713   18.8296 C   0  0  0  0  0  0  0  0  0  0  0  0
  -20.8631  -29.5050   24.0352 C   0  0  0  0  0  0  0  0  0  0  0  0
  -19.0763  -27.9926   23.1474 C   0  0  0  0  0  0  0  0  0  0  0  0
  -19.0121  -30.4326   22.6324 C   0  0  0  0  0  0  0  0  0  0  0  0
  -20.8864  -27.4139   16.7804 C   0  0  0  0  0  0  0  0  0  0  0  0
  -20.7466  -28.9743   21.5112 C   0  0  1  0  0  0  0  0  0  0  0  0
  -19.0287  -27.5564   18.4439 C   0  0  2  0  0  0  0  0  0  0  0  0
  -19.9517  -29.2222   22.8242 C   0  0  0  0  0  0  0  0  0  0  0  0
  -28.8965  -15.0889   21.9984 N   0  0  0  0  0  0  0  0  0  0  0  0
  -30.1505  -15.3520   21.5930 N   0  0  0  0  0  0  0  0  0  0  0  0
  -23.0154  -29.8591   21.0712 N   0  0  0  0  0  0  0  0  0  0  0  0
  -30.9983  -18.3523   23.7983 N   0  0  0  0  0  0  0  0  0  0  0  0
  -31.7444  -14.8274   19.9212 N   0  0  0  0  0  0  0  0  0  0  0  0
  -28.1563  -12.3448   18.7557 N   0  0  0  0  0  0  0  0  0  0  0  0
  -30.3745  -20.2309   22.5161 N   0  0  0  0  0  0  0  0  0  0  0  0
  -25.2805  -32.4144   22.3503 N   0  0  0  0  0  0  0  0  0  0  0  0
  -19.9084  -28.7307   20.3422 N   0  0  0  0  0  0  0  0  0  0  0  0
  -19.6136  -26.8329   17.2797 N   0  3  0  0  0  0  0  0  0  0  0  0
  -30.3149  -12.8763   18.1930 O   0  0  0  0  0  0  0  0  0  0  0  0
  -28.2612  -26.3087   22.8347 O   0  0  0  0  0  0  0  0  0  0  0  0
  -24.0555  -30.6582   23.2656 O   0  0  0  0  0  0  0  0  0  0  0  0
  -21.1437  -31.2439   20.9475 O   0  0  0  0  0  0  0  0  0  0  0  0
  -20.7847  -26.6455   19.8311 O   0  0  0  0  0  0  0  0  0  0  0  0
  -31.8757  -20.4377   24.2725 O   0  0  0  0  0  0  0  0  0  0  0  0
  -23.2777  -12.1455   21.4380 O   0  0  0  0  0  0  0  0  0  0  0  0
  -27.4397  -25.5700   20.7831 O   0  0  0  0  0  0  0  0  0  1  0  0
  -22.6281   -6.7210   20.6913 F   0  0  0  0  0  0  0  0  0  0  0  0
  -24.0183  -10.9421   19.0618 F   0  0  0  0  0  0  0  0  0  0  0  0
  1  2  1  0  0  0  0
  1  7  2  0  0  0  0
  2  8  2  0  0  0  0
  3 12  2  0  0  0  0
  3 19  1  0  0  0  0
  4 13  1  0  0  0  0
  4 19  2  0  0  0  0
  5 10  2  0  0  0  0
  5 20  1  0  0  0  0
  6 11  1  0  0  0  0
  6 20  2  0  0  0  0
  7 22  1  0  0  0  0
  8 24  1  0  0  0  0
  9 14  2  0  0  0  0
  9 23  1  0  0  0  0
 10 26  1  0  0  0  0
 11 26  2  0  0  0  0
 12 27  1  0  0  0  0
 13 27  2  0  0  0  0
 14 28  1  0  0  0  0
 15 16  2  0  0  0  0
 15 29  1  0  0  0  0
 16 30  1  0  0  0  0
 17 25  1  0  0  0  0
 17 28  2  0  0  0  0
 18 30  2  0  0  0  0
 18 31  1  0  0  0  0
 19 32  1  0  0  0  0
 20 35  1  0  0  0  0
 21 32  1  0  0  0  0
 21 33  2  0  0  0  0
 21 34  1  0  0  0  0
 22 24  2  0  0  0  0
 22 40  1  0  0  0  0
 23 25  2  0  0  0  0
 23 41  1  0  0  0  0
 24 49  1  0  0  0  0
 25 42  1  0  0  0  0
 26 66  1  0  0  0  0
 27 76  1  0  0  0  0
 28 77  1  0  0  0  0
 29 31  2  0  0  0  0
 29 76  1  0  0  0  0
 30 78  1  0  0  0  0
 31 79  1  0  0  0  0
 32 60  2  0  0  0  0
 33 61  1  0  0  0  0
 33 64  1  0  0  0  0
 34 65  1  0  0  0  0
 34 70  2  0  0  0  0
 35 71  2  0  0  0  0
 35 77  1  0  0  0  0
 36 50  1  0  0  0  0
 36 67  1  0  0  0  0
 36 72  2  0  0  0  0
 37 57  1  0  0  0  0
 37 62  1  0  0  0  0
 37 73  2  0  0  0  0
 38 58  1  0  0  0  0
 38 68  1  0  0  0  0
 38 74  2  0  0  0  0
 39 63  1  0  0  0  0
 39 66  1  0  0  0  0
 39 75  2  0  0  0  0
 40 43  1  0  0  0  0
 41 50  1  0  0  0  0
 42 62  1  0  0  0  0
 43 45  1  0  0  0  0
 44 46  1  0  0  0  0
 44 47  1  0  0  0  0
 45 49  1  0  0  0  0
 46 51  1  0  0  0  0
 47 63  1  0  0  0  0
 48 51  1  0  0  0  0
 48 63  1  0  0  0  0
 49 67  1  0  0  0  0
 50 62  1  0  0  0  0
 51 61  1  0  0  0  0
 52 58  1  0  0  0  0
 53 59  1  0  0  0  0
 54 59  1  0  0  0  0
 55 59  1  0  0  0  0
 56 69  1  0  0  0  0
 57 59  1  0  0  0  0
 57 68  1  0  0  0  0
 58 69  1  0  0  0  0
 60 61  1  0  0  0  0
M  CHG  1  69   1
M  ISO  4  35 101  39 100  66 100  77 101
M  END
> <Batch ID>
0001

> <Smiles>
CNC(C)C(=O)NC(C(=O)N1Cc2cc([101O:1][101C:1](=O)c3ccc([100NH:0][100C:0](=O)N4CCCC(n5nc(-c6ccc(Oc7ccc(F)cc7F)cc6)c(C(N)=O)c5N)C4)cc3)ccc2CC1C(=O)NC1CCCc2ccccc21)C(C)(C)C

> <Shape>
0.296

> <Color>
0.076

> <Negative vol penalty>
0.000

$$$$

  -OEChem-04042320143D

 83 92  0     1  0  0  0  0  0999 V2000
  -27.1636  -37.9496   23.2949 C   0  0  0  0  0  0  0  0  0  0  0  0
  -27.7653  -37.0444   22.4266 C   0  0  0  0  0  0  0  0  0  0  0  0
  -25.1093   -9.3688   20.2340 C   0  0  0  0  0  0  0  0  0  0  0  0
  -24.4516   -9.7984   22.5187 C   0  0  0  0  0  0  0  0  0  0  0  0
  -26.4225  -37.4851   24.3807 C   0  0  0  0  0  0  0  0  0  0  0  0
  -27.6272  -35.6740   22.6443 C   0  0  0  0  0  0  0  0  0  0  0  0
  -31.1830  -22.7784   19.3171 C   0  0  0  0  0  0  0  0  0  0  0  0
  -28.9375  -21.9885   18.9037 C   0  0  0  0  0  0  0  0  0  0  0  0
  -27.1529  -29.4757   19.0845 C   0  0  0  0  0  0  0  0  0  0  0  0
  -30.7335  -24.0966   19.2404 C   0  0  0  0  0  0  0  0  0  0  0  0
  -28.4879  -23.3067   18.8271 C   0  0  0  0  0  0  0  0  0  0  0  0
  -24.9278   -8.0011   20.4389 C   0  0  0  0  0  0  0  0  0  0  0  0
  -24.2701   -8.4306   22.7236 C   0  0  0  0  0  0  0  0  0  0  0  0
  -27.7369  -28.2104   19.0424 C   0  0  0  0  0  0  0  0  0  0  0  0
  -21.9301   -6.0968   22.0175 C   0  0  0  0  0  0  0  0  0  0  0  0
  -20.7744   -5.6908   22.6846 C   0  0  0  0  0  0  0  0  0  0  0  0
  -26.3674  -27.5229   20.9054 C   0  0  0  0  0  0  0  0  0  0  0  0
  -22.1270   -4.6770   24.4108 C   0  0  0  0  0  0  0  0  0  0  0  0
  -24.8712  -10.2674   21.2739 C   0  0  0  0  0  0  0  0  0  0  0  0
  -24.1002  -12.6076   20.6129 C   0  0  0  0  0  0  0  0  0  0  0  0
  -30.2851  -21.7243   19.1486 C   0  0  0  0  0  0  0  0  0  0  0  0
  -26.2672  -36.1083   24.6063 C   0  0  0  0  0  0  0  0  0  0  0  0
  -26.1779  -29.7780   20.0460 C   0  0  0  0  0  0  0  0  0  0  0  0
  -26.8844  -35.1907   23.7349 C   0  0  0  0  0  0  0  0  0  0  0  0
  -25.7707  -28.7920   20.9560 C   0  0  0  0  0  0  0  0  0  0  0  0
  -29.3859  -24.3607   18.9955 C   0  0  0  0  0  0  0  0  0  0  0  0
  -24.5082   -7.5320   21.6837 C   0  0  0  0  0  0  0  0  0  0  0  0
  -27.3463  -27.2347   19.9548 C   0  0  0  0  0  0  0  0  0  0  0  0
  -23.1843   -5.7929   22.5470 C   0  0  0  0  0  0  0  0  0  0  0  0
  -20.8728   -4.9809   23.8813 C   0  0  0  0  0  0  0  0  0  0  0  0
  -23.2827   -5.0830   23.7437 C   0  0  0  0  0  0  0  0  0  0  0  0
  -25.0591  -11.6804   21.0631 C   0  0  0  0  0  0  0  0  0  0  0  0
  -24.7701  -13.8062   20.5813 C   0  0  0  0  0  0  0  0  0  0  0  0
  -22.7268  -12.4036   20.2554 C   0  0  0  0  0  0  0  0  0  0  0  0
  -25.9582  -31.8556   22.4416 C   0  0  0  0  0  0  0  0  0  0  0  0
  -22.9252  -30.7213   22.6321 C   0  0  0  0  0  0  0  0  0  0  0  0
  -20.7385  -28.1776   22.0036 C   0  0  0  0  0  0  0  0  0  0  0  0
  -29.4545  -16.4216   18.9052 C   0  0  0  0  0  0  0  0  0  0  0  0
  -25.4962  -35.6541   25.8203 C   0  0  0  0  0  0  0  0  0  0  0  0
  -25.5384  -31.1393   20.0611 C   0  0  0  0  0  0  0  0  0  0  0  0
  -24.7136  -29.0596   21.9949 C   0  0  0  0  0  0  0  0  0  0  0  0
  -25.0858  -34.1847   25.7666 C   0  0  0  0  0  0  0  0  0  0  0  0
  -29.2869  -15.1222   22.4116 C   0  0  0  0  0  0  0  0  0  0  0  0
  -26.2628  -33.3173   25.3317 C   0  0  0  0  0  0  0  0  0  0  0  0
  -28.1285  -14.1325   22.2992 C   0  0  0  0  0  0  0  0  0  0  0  0
  -30.1195  -19.5256   20.3968 C   0  0  0  0  0  0  0  0  0  0  0  0
  -30.5729  -19.5337   17.9061 C   0  0  0  0  0  0  0  0  0  0  0  0
  -30.0163  -15.2739   21.0819 C   0  0  0  0  0  0  0  0  0  0  0  0
  -30.5920  -18.0703   20.4555 C   0  0  0  0  0  0  0  0  0  0  0  0
  -31.0579  -18.0919   18.0280 C   0  0  0  0  0  0  0  0  0  0  0  0
  -27.9661  -14.6812   19.8288 C   0  0  0  0  0  0  0  0  0  0  0  0
  -30.7732  -20.2903   19.2318 C   0  0  0  0  0  0  0  0  0  0  0  0
  -26.7368  -33.6964   23.9235 C   0  0  1  0  0  0  0  0  0  0  0  0
  -24.9250  -31.4963   21.4115 C   0  0  1  0  0  0  0  0  0  0  0  0
  -27.1879  -14.5165   21.1444 C   0  0  1  0  0  0  0  0  0  0  0  0
  -18.3343  -27.5262   22.3084 C   0  0  0  0  0  0  0  0  0  0  0  0
  -23.4546  -30.1578   25.5837 C   0  0  0  0  0  0  0  0  0  0  0  0
  -21.4340  -28.6795   25.5922 C   0  0  0  0  0  0  0  0  0  0  0  0
  -21.1956  -31.1119   25.0926 C   0  0  0  0  0  0  0  0  0  0  0  0
  -20.3087  -27.9524   19.0841 C   0  0  0  0  0  0  0  0  0  0  0  0
  -28.9057  -25.7705   18.9155 C   0  0  0  0  0  0  0  0  0  1  0  0
  -22.2511  -29.5906   23.3710 C   0  0  1  0  0  0  0  0  0  0  0  0
  -19.3537  -28.1703   21.3817 C   0  0  2  0  0  0  0  0  0  0  0  0
  -22.1052  -29.8802   24.8917 C   0  0  0  0  0  0  0  0  0  0  0  0
  -26.2476  -12.2417   21.3002 N   0  0  0  0  0  0  0  0  0  0  0  0
  -26.0401  -13.5346   20.9978 N   0  0  0  0  0  0  0  0  0  0  0  0
  -24.1225  -30.4079   21.9733 N   0  0  0  0  0  0  0  0  0  0  0  0
  -29.0916  -15.6045   19.9889 N   0  0  0  0  0  0  0  0  0  0  0  0
  -30.4146  -17.4141   19.1533 N   0  0  0  0  0  0  0  0  0  0  0  0
  -24.3907  -15.0555   20.2379 N   0  0  0  0  0  0  0  0  0  0  0  0
  -22.1981  -11.1088   20.3459 N   0  0  0  0  0  0  0  0  0  0  0  0
  -25.8460  -33.1453   22.9249 N   0  0  0  0  0  0  0  0  0  0  0  0
  -20.9864  -29.3508   22.6844 N   0  0  0  0  0  0  0  0  0  0  0  0
  -19.3663  -27.4133   20.0981 N   0  3  0  0  0  0  0  0  0  0  0  0
  -21.9948  -13.3388   19.8516 O   0  0  0  0  0  0  0  0  0  0  0  0
  -26.7944  -31.0239   22.7743 O   0  0  0  0  0  0  0  0  0  0  0  0
  -22.4047  -31.8397   22.6331 O   0  0  0  0  0  0  0  0  0  0  0  0
  -21.5205  -27.2353   21.8992 O   0  0  0  0  0  0  0  0  0  0  0  0
  -28.9481  -16.2747   17.7859 O   0  0  0  0  0  0  0  0  0  0  0  0
  -24.3308   -6.1974   21.8839 O   0  0  0  0  0  0  0  0  0  0  0  0
  -27.9191  -25.9906   19.9160 O   0  0  0  0  0  0  0  0  0  1  0  0
  -19.7629   -4.5924   24.5226 F   0  0  0  0  0  0  0  0  0  0  0  0
  -24.4848   -4.7892   24.2579 F   0  0  0  0  0  0  0  0  0  0  0  0
  1  2  1  0  0  0  0
  1  5  2  0  0  0  0
  2  6  2  0  0  0  0
  3 12  2  0  0  0  0
  3 19  1  0  0  0  0
  4 13  1  0  0  0  0
  4 19  2  0  0  0  0
  5 22  1  0  0  0  0
  6 24  1  0  0  0  0
  7 10  2  0  0  0  0
  7 21  1  0  0  0  0
  8 11  1  0  0  0  0
  8 21  2  0  0  0  0
  9 14  2  0  0  0  0
  9 23  1  0  0  0  0
 10 26  1  0  0  0  0
 11 26  2  0  0  0  0
 12 27  1  0  0  0  0
 13 27  2  0  0  0  0
 14 28  1  0  0  0  0
 15 16  2  0  0  0  0
 15 29  1  0  0  0  0
 16 30  1  0  0  0  0
 17 25  1  0  0  0  0
 17 28  2  0  0  0  0
 18 30  2  0  0  0  0
 18 31  1  0  0  0  0
 19 32  1  0  0  0  0
 20 32  1  0  0  0  0
 20 33  2  0  0  0  0
 20 34  1  0  0  0  0
 21 52  1  0  0  0  0
 22 24  2  0  0  0  0
 22 39  1  0  0  0  0
 23 25  2  0  0  0  0
 23 40  1  0  0  0  0
 24 53  1  0  0  0  0
 25 41  1  0  0  0  0
 26 61  1  0  0  0  0
 27 80  1  0  0  0  0
 28 81  1  0  0  0  0
 29 31  2  0  0  0  0
 29 80  1  0  0  0  0
 30 82  1  0  0  0  0
 31 83  1  0  0  0  0
 32 65  2  0  0  0  0
 33 66  1  0  0  0  0
 33 70  1  0  0  0  0
 34 71  1  0  0  0  0
 34 75  2  0  0  0  0
 35 54  1  0  0  0  0
 35 72  1  0  0  0  0
 35 76  2  0  0  0  0
 36 62  1  0  0  0  0
 36 67  1  0  0  0  0
 36 77  2  0  0  0  0
 37 63  1  0  0  0  0
 37 73  1  0  0  0  0
 37 78  2  0  0  0  0
 38 68  1  0  0  0  0
 38 69  1  0  0  0  0
 38 79  2  0  0  0  0
 39 42  1  0  0  0  0
 40 54  1  0  0  0  0
 41 67  1  0  0  0  0
 42 44  1  0  0  0  0
 43 45  1  0  0  0  0
 43 48  1  0  0  0  0
 44 53  1  0  0  0  0
 45 55  1  0  0  0  0
 46 49  1  0  0  0  0
 46 52  1  0  0  0  0
 47 50  1  0  0  0  0
 47 52  1  0  0  0  0
 48 68  1  0  0  0  0
 49 69  1  0  0  0  0
 50 69  1  0  0  0  0
 51 55  1  0  0  0  0
 51 68  1  0  0  0  0
 53 72  1  0  0  0  0
 54 67  1  0  0  0  0
 55 66  1  0  0  0  0
 56 63  1  0  0  0  0
 57 64  1  0  0  0  0
 58 64  1  0  0  0  0
 59 64  1  0  0  0  0
 60 74  1  0  0  0  0
 61 81  1  0  0  0  0
 62 64  1  0  0  0  0
 62 73  1  0  0  0  0
 63 74  1  0  0  0  0
 65 66  1  0  0  0  0
M  CHG  1  74   1
M  ISO  4  38 100  61 101  69 100  81 101
M  END
> <Batch ID>
0001

> <Smiles>
CNC(C)C(=O)NC(C(=O)N1Cc2cc([101O:1][101CH2:1]c3ccc(C4CC[100N:0]([100C:0](=O)N5CCCC(n6nc(-c7ccc(Oc8ccc(F)cc8F)cc7)c(C(N)=O)c6N)C5)CC4)cc3)ccc2CC1C(=O)NC1CCCc2ccccc21)C(C)(C)C

> <Shape>
0.351

> <Color>
0.116

> <Negative vol penalty>
0.000

$$$$

  -OEChem-04042320143D

 78 86  0     1  0  0  0  0  0999 V2000
  -26.7739  -32.6995   28.1675 C   0  0  0  0  0  0  0  0  0  0  0  0
  -27.2042  -31.6974   27.3039 C   0  0  0  0  0  0  0  0  0  0  0  0
  -27.9925  -22.3141   16.9447 C   0  0  0  0  0  0  0  0  0  0  0  0
  -26.5064  -12.7174   21.6170 C   0  0  0  0  0  0  0  0  0  0  0  0
  -26.0125  -13.7464   19.4877 C   0  0  0  0  0  0  0  0  0  0  0  0
  -25.4236  -33.0436   28.2165 C   0  0  0  0  0  0  0  0  0  0  0  0
  -26.2843  -31.0379   26.4894 C   0  0  0  0  0  0  0  0  0  0  0  0
  -27.2352  -28.9309   20.8182 C   0  0  0  0  0  0  0  0  0  0  0  0
  -27.8815  -23.5924   17.4918 C   0  0  0  0  0  0  0  0  0  0  0  0
  -28.5263  -21.2739   17.7054 C   0  0  0  0  0  0  0  0  0  0  0  0
  -25.2502  -12.1112   21.6155 C   0  0  0  0  0  0  0  0  0  0  0  0
  -24.7563  -13.1402   19.4860 C   0  0  0  0  0  0  0  0  0  0  0  0
  -27.5382  -27.6615   20.3277 C   0  0  0  0  0  0  0  0  0  0  0  0
  -23.7752   -9.4401   20.1584 C   0  0  0  0  0  0  0  0  0  0  0  0
  -23.7052   -8.0929   20.5128 C   0  0  0  0  0  0  0  0  0  0  0  0
  -25.1982  -27.2824   19.8806 C   0  0  0  0  0  0  0  0  0  0  0  0
  -28.8381  -22.7902   19.5602 C   0  0  0  0  0  0  0  0  0  0  0  0
  -22.2435   -8.6529   22.3531 C   0  0  0  0  0  0  0  0  0  0  0  0
  -26.8875  -13.5351   20.5531 C   0  0  0  0  0  0  0  0  0  0  0  0
  -29.3811  -13.6417   20.0253 C   0  0  0  0  0  0  0  0  0  0  0  0
  -24.4882  -32.3946   27.3953 C   0  0  0  0  0  0  0  0  0  0  0  0
  -25.9080  -29.3822   20.8538 C   0  0  0  0  0  0  0  0  0  0  0  0
  -24.9201  -31.3726   26.5285 C   0  0  0  0  0  0  0  0  0  0  0  0
  -24.8813  -28.5589   20.3697 C   0  0  0  0  0  0  0  0  0  0  0  0
  -28.3043  -23.8305   18.7995 C   0  0  0  0  0  0  0  0  0  0  0  0
  -28.9491  -21.5119   19.0131 C   0  0  0  0  0  0  0  0  0  0  0  0
  -24.3751  -12.3225   20.5500 C   0  0  0  0  0  0  0  0  0  0  0  0
  -26.5193  -26.8359   19.8615 C   0  0  0  0  0  0  0  0  0  0  0  0
  -23.0795  -10.3938   20.9015 C   0  0  0  0  0  0  0  0  0  0  0  0
  -22.9393   -7.6992   21.6101 C   0  0  0  0  0  0  0  0  0  0  0  0
  -22.3136  -10.0001   21.9988 C   0  0  0  0  0  0  0  0  0  0  0  0
  -28.1848  -14.1621   20.5545 C   0  0  0  0  0  0  0  0  0  0  0  0
  -30.3189  -14.6133   20.2763 C   0  0  0  0  0  0  0  0  0  0  0  0
  -29.6229  -12.3918   19.3657 C   0  0  0  0  0  0  0  0  0  0  0  0
  -23.8999  -30.2656   23.1541 C   0  0  0  0  0  0  0  0  0  0  0  0
  -21.9913  -31.0484   20.6508 C   0  0  0  0  0  0  0  0  0  0  0  0
  -21.1684  -30.5681   17.3737 C   0  0  0  0  0  0  0  0  0  0  0  0
  -29.9572  -20.5208   21.0983 C   0  0  0  0  0  0  0  0  0  0  0  0
  -23.0321  -32.7683   27.5176 C   0  0  0  0  0  0  0  0  0  0  0  0
  -25.6007  -30.7644   21.3612 C   0  0  0  0  0  0  0  0  0  0  0  0
  -23.4424  -29.0040   20.3674 C   0  0  0  0  0  0  0  0  0  0  0  0
  -22.1777  -32.2795   26.3509 C   0  0  0  0  0  0  0  0  0  0  0  0
  -31.3281  -18.1363   23.3592 C   0  0  0  0  0  0  0  0  0  0  0  0
  -22.4919  -30.8209   26.0335 C   0  0  0  0  0  0  0  0  0  0  0  0
  -30.7915  -16.7986   22.8447 C   0  0  0  0  0  0  0  0  0  0  0  0
  -30.2992  -19.2555   23.2095 C   0  0  0  0  0  0  0  0  0  0  0  0
  -29.2062  -18.0732   21.3449 C   0  0  0  0  0  0  0  0  0  0  0  0
  -23.9563  -30.6512   25.6115 C   0  0  1  0  0  0  0  0  0  0  0  0
  -24.1568  -30.9225   21.8274 C   0  0  1  0  0  0  0  0  0  0  0  0
  -30.2305  -16.9288   21.4151 C   0  0  2  0  0  0  0  0  0  0  0  0
  -19.5398  -31.3237   15.6205 C   0  0  0  0  0  0  0  0  0  0  0  0
  -19.8198  -29.3285   21.9301 C   0  0  0  0  0  0  0  0  0  0  0  0
  -18.6126  -29.3443   19.7367 C   0  0  0  0  0  0  0  0  0  0  0  0
  -19.0056  -31.4839   20.9576 C   0  0  0  0  0  0  0  0  0  0  0  0
  -23.3324  -31.6255   15.6538 C   0  0  0  0  0  0  0  0  0  0  0  0
  -28.1847  -25.2057   19.3875 C   0  0  0  0  0  0  0  0  0  1  0  0
  -20.9499  -30.3236   19.8328 C   0  0  1  0  0  0  0  0  0  0  0  0
  -20.9071  -31.5505   16.2463 C   0  0  2  0  0  0  0  0  0  0  0  0
  -19.6238  -30.1106   20.6160 C   0  0  0  0  0  0  0  0  0  0  0  0
  -28.3453  -15.3704   21.1006 N   0  0  0  0  0  0  0  0  0  0  0  0
  -29.6533  -15.6173   20.9160 N   0  0  0  0  0  0  0  0  0  0  0  0
  -23.1921  -30.3615   20.8793 N   0  0  0  0  0  0  0  0  0  0  0  0
  -29.8156  -19.3219   21.8287 N   0  0  0  0  0  0  0  0  0  0  0  0
  -31.6396  -14.6981   20.0102 N   0  0  0  0  0  0  0  0  0  0  0  0
  -28.5477  -11.5102   19.1899 N   0  0  0  0  0  0  0  0  0  0  0  0
  -29.4906  -20.4548   19.7858 N   0  0  0  0  0  0  0  0  0  0  0  0
  -24.1410  -31.0823   24.2423 N   0  0  0  0  0  0  0  0  0  0  0  0
  -20.7987  -31.0848   18.5974 N   0  0  0  0  0  0  0  0  0  0  0  0
  -21.9408  -31.4053   15.1827 N   0  3  0  0  0  0  0  0  0  0  0  0
  -30.7622  -12.0595   18.9593 O   0  0  0  0  0  0  0  0  0  0  0  0
  -23.5105  -29.1042   23.1878 O   0  0  0  0  0  0  0  0  0  0  0  0
  -21.7511  -32.1850   21.0655 O   0  0  0  0  0  0  0  0  0  0  0  0
  -21.6488  -29.4523   17.1870 O   0  0  0  0  0  0  0  0  0  0  0  0
  -30.4803  -21.5233   21.5915 O   0  0  0  0  0  0  0  0  0  0  0  0
  -23.1494  -11.7309   20.5480 O   0  0  0  0  0  0  0  0  0  0  0  0
  -26.8122  -25.5962   19.3828 O   0  0  0  0  0  0  0  0  0  1  0  0
  -22.8709   -6.4052   21.9493 F   0  0  0  0  0  0  0  0  0  0  0  0
  -21.6420  -10.9116   22.7158 F   0  0  0  0  0  0  0  0  0  0  0  0
  1  2  1  0  0  0  0
  1  6  2  0  0  0  0
  2  7  2  0  0  0  0
  3  9  2  0  0  0  0
  3 10  1  0  0  0  0
  4 11  2  0  0  0  0
  4 19  1  0  0  0  0
  5 12  1  0  0  0  0
  5 19  2  0  0  0  0
  6 21  1  0  0  0  0
  7 23  1  0  0  0  0
  8 13  2  0  0  0  0
  8 22  1  0  0  0  0
  9 25  1  0  0  0  0
 10 26  2  0  0  0  0
 11 27  1  0  0  0  0
 12 27  2  0  0  0  0
 13 28  1  0  0  0  0
 14 15  2  0  0  0  0
 14 29  1  0  0  0  0
 15 30  1  0  0  0  0
 16 24  1  0  0  0  0
 16 28  2  0  0  0  0
 17 25  2  0  0  0  0
 17 26  1  0  0  0  0
 18 30  2  0  0  0  0
 18 31  1  0  0  0  0
 19 32  1  0  0  0  0
 20 32  1  0  0  0  0
 20 33  2  0  0  0  0
 20 34  1  0  0  0  0
 21 23  2  0  0  0  0
 21 39  1  0  0  0  0
 22 24  2  0  0  0  0
 22 40  1  0  0  0  0
 23 48  1  0  0  0  0
 24 41  1  0  0  0  0
 25 56  1  0  0  0  0
 26 66  1  0  0  0  0
 27 75  1  0  0  0  0
 28 76  1  0  0  0  0
 29 31  2  0  0  0  0
 29 75  1  0  0  0  0
 30 77  1  0  0  0  0
 31 78  1  0  0  0  0
 32 60  2  0  0  0  0
 33 61  1  0  0  0  0
 33 64  1  0  0  0  0
 34 65  1  0  0  0  0
 34 70  2  0  0  0  0
 35 49  1  0  0  0  0
 35 67  1  0  0  0  0
 35 71  2  0  0  0  0
 36 57  1  0  0  0  0
 36 62  1  0  0  0  0
 36 72  2  0  0  0  0
 37 58  1  0  0  0  0
 37 68  1  0  0  0  0
 37 73  2  0  0  0  0
 38 63  1  0  0  0  0
 38 66  1  0  0  0  0
 38 74  2  0  0  0  0
 39 42  1  0  0  0  0
 40 49  1  0  0  0  0
 41 62  1  0  0  0  0
 42 44  1  0  0  0  0
 43 45  1  0  0  0  0
 43 46  1  0  0  0  0
 44 48  1  0  0  0  0
 45 50  1  0  0  0  0
 46 63  1  0  0  0  0
 47 50  1  0  0  0  0
 47 63  1  0  0  0  0
 48 67  1  0  0  0  0
 49 62  1  0  0  0  0
 50 61  1  0  0  0  0
 51 58  1  0  0  0  0
 52 59  1  0  0  0  0
 53 59  1  0  0  0  0
 54 59  1  0  0  0  0
 55 69  1  0  0  0  0
 56 76  1  0  0  0  0
 57 59  1  0  0  0  0
 57 68  1  0  0  0  0
 58 69  1  0  0  0  0
 60 61  1  0  0  0  0
M  CHG  1  69   1
M  ISO  4  38 100  56 101  66 100  76 101
M  END
> <Batch ID>
0001

> <Smiles>
CNC(C)C(=O)NC(C(=O)N1Cc2cc([101O:1][101CH2:1]c3cccc([100NH:0][100C:0](=O)N4CCCC(n5nc(-c6ccc(Oc7ccc(F)cc7F)cc6)c(C(N)=O)c5N)C4)c3)ccc2CC1C(=O)NC1CCCc2ccccc21)C(C)(C)C

> <Shape>
0.294

> <Color>
0.112

> <Negative vol penalty>
0.000

$$$$

  -OEChem-04042320143D

 76 83  0     1  0  0  0  0  0999 V2000
  -16.1600  -22.7176   22.5581 C   0  0  0  0  0  0  0  0  0  0  0  0
  -17.4333  -22.6316   22.0043 C   0  0  0  0  0  0  0  0  0  0  0  0
  -23.0622   -9.9075   19.9658 C   0  0  0  0  0  0  0  0  0  0  0  0
  -23.8771   -9.8683   22.2399 C   0  0  0  0  0  0  0  0  0  0  0  0
  -15.9799  -22.5083   23.9248 C   0  0  0  0  0  0  0  0  0  0  0  0
  -18.5275  -22.3372   22.8170 C   0  0  0  0  0  0  0  0  0  0  0  0
  -23.4690  -19.0565   21.2924 C   0  0  0  0  0  0  0  0  0  0  0  0
  -22.3096   -8.7601   20.2158 C   0  0  0  0  0  0  0  0  0  0  0  0
  -23.1244   -8.7209   22.4899 C   0  0  0  0  0  0  0  0  0  0  0  0
  -24.7491  -19.4249   20.8811 C   0  0  0  0  0  0  0  0  0  0  0  0
  -21.1365   -5.9883   23.8314 C   0  0  0  0  0  0  0  0  0  0  0  0
  -20.4082   -5.9357   25.0198 C   0  0  0  0  0  0  0  0  0  0  0  0
  -25.5335  -19.2128   23.1524 C   0  0  0  0  0  0  0  0  0  0  0  0
  -19.1718   -7.9001   24.3490 C   0  0  0  0  0  0  0  0  0  0  0  0
  -23.8461  -10.4616   20.9779 C   0  0  0  0  0  0  0  0  0  0  0  0
  -24.2180  -12.9838   20.8890 C   0  0  0  0  0  0  0  0  0  0  0  0
  -17.0711  -22.2017   24.7530 C   0  0  0  0  0  0  0  0  0  0  0  0
  -23.2086  -18.7736   22.6410 C   0  0  0  0  0  0  0  0  0  0  0  0
  -18.3620  -22.1249   24.1962 C   0  0  0  0  0  0  0  0  0  0  0  0
  -24.2498  -18.8385   23.5779 C   0  0  0  0  0  0  0  0  0  0  0  0
  -22.3406   -8.1668   21.4778 C   0  0  0  0  0  0  0  0  0  0  0  0
  -25.7810  -19.5059   21.8115 C   0  0  0  0  0  0  0  0  0  0  0  0
  -20.8826   -6.9968   22.9018 C   0  0  0  0  0  0  0  0  0  0  0  0
  -19.4258   -6.8916   25.2786 C   0  0  0  0  0  0  0  0  0  0  0  0
  -19.9003   -7.9527   23.1606 C   0  0  0  0  0  0  0  0  0  0  0  0
  -24.6243  -11.6466   20.7202 C   0  0  0  0  0  0  0  0  0  0  0  0
  -25.3108  -13.7250   20.5111 C   0  0  0  0  0  0  0  0  0  0  0  0
  -22.9648  -13.5090   21.3467 C   0  0  0  0  0  0  0  0  0  0  0  0
  -21.3315  -20.0335   24.8754 C   0  0  0  0  0  0  0  0  0  0  0  0
  -22.3526  -17.4923   26.6138 C   0  0  0  0  0  0  0  0  0  0  0  0
  -24.7431  -15.1140   27.1391 C   0  0  0  0  0  0  0  0  0  0  0  0
  -30.8103  -14.6711   20.5822 C   0  0  0  0  0  0  0  0  0  0  0  0
  -16.8338  -22.0303   26.2325 C   0  0  0  0  0  0  0  0  0  0  0  0
  -21.8283  -18.3516   23.0642 C   0  0  0  0  0  0  0  0  0  0  0  0
  -24.0270  -18.5250   25.0341 C   0  0  0  0  0  0  0  0  0  0  0  0
  -17.9922  -21.3534   26.9608 C   0  0  0  0  0  0  0  0  0  0  0  0
  -29.5845  -12.3396   18.1868 C   0  0  0  0  0  0  0  0  0  0  0  0
  -19.3214  -21.9737   26.5420 C   0  0  0  0  0  0  0  0  0  0  0  0
  -28.1542  -12.0573   18.6499 C   0  0  0  0  0  0  0  0  0  0  0  0
  -30.5331  -12.5296   19.3684 C   0  0  0  0  0  0  0  0  0  0  0  0
  -28.6750  -13.2626   20.8120 C   0  0  0  0  0  0  0  0  0  0  0  0
  -19.5703  -21.7833   25.0409 C   0  0  1  0  0  0  0  0  0  0  0  0
  -21.5607  -18.5851   24.5479 C   0  0  1  0  0  0  0  0  0  0  0  0
  -27.6706  -13.1192   19.6558 C   0  0  2  0  0  0  0  0  0  0  0  0
  -25.3188  -13.2016   28.6585 C   0  0  0  0  0  0  0  0  0  0  0  0
  -23.1824  -19.4698   28.7844 C   0  0  0  0  0  0  0  0  0  0  0  0
  -24.5722  -17.6562   29.8078 C   0  0  0  0  0  0  0  0  0  0  0  0
  -22.0989  -17.3821   29.6341 C   0  0  0  0  0  0  0  0  0  0  0  0
  -24.7054  -13.1748   24.9037 C   0  0  0  0  0  0  0  0  0  0  0  0
  -30.9341  -16.8007   21.8505 C   0  0  0  0  0  0  0  0  0  0  0  0
  -30.6370  -17.9563   20.9116 C   0  0  0  0  0  0  0  0  0  0  0  0
  -27.4127  -19.5218   20.0814 C   0  0  0  0  0  0  0  0  0  1  0  0
  -28.9109  -19.2914   20.0394 C   0  0  0  0  0  0  0  0  0  0  0  0
  -23.5127  -17.2298   27.5436 C   0  0  1  0  0  0  0  0  0  0  0  0
  -24.6416  -13.6157   27.3614 C   0  0  2  0  0  0  0  0  0  0  0  0
  -23.3456  -17.9423   28.9154 C   0  0  0  0  0  0  0  0  0  0  0  0
  -25.8773  -11.5413   20.2699 N   0  0  0  0  0  0  0  0  0  0  0  0
  -26.2678  -12.8219   20.1525 N   0  0  0  0  0  0  0  0  0  0  0  0
  -22.6586  -18.1233   25.3997 N   0  0  0  0  0  0  0  0  0  0  0  0
  -30.0175  -13.5508   20.2834 N   0  0  0  0  0  0  0  0  0  0  0  0
  -25.5368  -15.0547   20.4538 N   0  0  0  0  0  0  0  0  0  0  0  0
  -21.9495  -12.6075   21.6942 N   0  0  0  0  0  0  0  0  0  0  0  0
  -20.0127  -20.4324   24.7692 N   0  0  0  0  0  0  0  0  0  0  0  0
  -23.6422  -15.7796   27.6353 N   0  0  0  0  0  0  0  0  0  0  0  0
  -30.2438  -15.5940   21.4529 N   0  0  0  0  0  0  0  0  0  0  0  0
  -25.2884  -12.8805   26.2380 N   0  3  0  0  0  0  0  0  0  0  0  0
  -22.7461  -14.7414   21.4289 O   0  0  0  0  0  0  0  0  0  0  0  0
  -22.2805  -20.7367   25.2018 O   0  0  0  0  0  0  0  0  0  0  0  0
  -21.2179  -17.1438   26.9493 O   0  0  0  0  0  0  0  0  0  0  0  0
  -25.7046  -15.6415   26.5844 O   0  0  0  0  0  0  0  0  0  0  0  0
  -31.9372  -14.8393   20.1039 O   0  0  0  0  0  0  0  0  0  0  0  0
  -21.6061   -7.0472   21.7221 O   0  0  0  0  0  0  0  0  0  0  0  0
  -27.0313  -19.8659   21.4128 O   0  0  0  0  0  0  0  0  0  1  0  0
  -29.2397  -18.2135   20.9073 O   0  0  0  0  0  0  0  0  0  0  0  0
  -18.7254   -6.8400   26.4191 F   0  0  0  0  0  0  0  0  0  0  0  0
  -19.6510   -8.9232   22.2708 F   0  0  0  0  0  0  0  0  0  0  0  0
  1  2  1  0  0  0  0
  1  5  2  0  0  0  0
  2  6  2  0  0  0  0
  3  8  2  0  0  0  0
  3 15  1  0  0  0  0
  4  9  1  0  0  0  0
  4 15  2  0  0  0  0
  5 17  1  0  0  0  0
  6 19  1  0  0  0  0
  7 10  2  0  0  0  0
  7 18  1  0  0  0  0
  8 21  1  0  0  0  0
  9 21  2  0  0  0  0
 10 22  1  0  0  0  0
 11 12  2  0  0  0  0
 11 23  1  0  0  0  0
 12 24  1  0  0  0  0
 13 20  1  0  0  0  0
 13 22  2  0  0  0  0
 14 24  2  0  0  0  0
 14 25  1  0  0  0  0
 15 26  1  0  0  0  0
 16 26  1  0  0  0  0
 16 27  2  0  0  0  0
 16 28  1  0  0  0  0
 17 19  2  0  0  0  0
 17 33  1  0  0  0  0
 18 20  2  0  0  0  0
 18 34  1  0  0  0  0
 19 42  1  0  0  0  0
 20 35  1  0  0  0  0
 21 72  1  0  0  0  0
 22 73  1  0  0  0  0
 23 25  2  0  0  0  0
 23 72  1  0  0  0  0
 24 75  1  0  0  0  0
 25 76  1  0  0  0  0
 26 57  2  0  0  0  0
 27 58  1  0  0  0  0
 27 61  1  0  0  0  0
 28 62  1  0  0  0  0
 28 67  2  0  0  0  0
 29 43  1  0  0  0  0
 29 63  1  0  0  0  0
 29 68  2  0  0  0  0
 30 54  1  0  0  0  0
 30 59  1  0  0  0  0
 30 69  2  0  0  0  0
 31 55  1  0  0  0  0
 31 64  1  0  0  0  0
 31 70  2  0  0  0  0
 32 60  1  0  0  0  0
 32 65  1  0  0  0  0
 32 71  2  0  0  0  0
 33 36  1  0  0  0  0
 34 43  1  0  0  0  0
 35 59  1  0  0  0  0
 36 38  1  0  0  0  0
 37 39  1  0  0  0  0
 37 40  1  0  0  0  0
 38 42  1  0  0  0  0
 39 44  1  0  0  0  0
 40 60  1  0  0  0  0
 41 44  1  0  0  0  0
 41 60  1  0  0  0  0
 42 63  1  0  0  0  0
 43 59  1  0  0  0  0
 44 58  1  0  0  0  0
 45 55  1  0  0  0  0
 46 56  1  0  0  0  0
 47 56  1  0  0  0  0
 48 56  1  0  0  0  0
 49 66  1  0  0  0  0
 50 51  1  0  0  0  0
 50 65  1  0  0  0  0
 51 74  1  0  0  0  0
 52 53  1  0  0  0  0
 52 73  1  0  0  0  0
 53 74  1  0  0  0  0
 54 56  1  0  0  0  0
 54 64  1  0  0  0  0
 55 66  1  0  0  0  0
 57 58  1  0  0  0  0
M  CHG  1  66   1
M  ISO  4  32 100  52 101  65 100  73 101
M  END
> <Batch ID>
0001

> <Smiles>
CNC(C)C(=O)NC(C(=O)N1Cc2cc([101O:1][101CH2:1]COCC[100NH:0][100C:0](=O)N3CCCC(n4nc(-c5ccc(Oc6ccc(F)cc6F)cc5)c(C(N)=O)c4N)C3)ccc2CC1C(=O)NC1CCCc2ccccc21)C(C)(C)C

> <Shape>
0.186

> <Color>
0.201

> <Negative vol penalty>
0.000

$$$$

  -OEChem-04042320143D

 78 86  0     1  0  0  0  0  0999 V2000
  -26.6841  -10.9203   17.4068 C   0  0  0  0  0  0  0  0  0  0  0  0
  -25.9165  -12.0441   17.6955 C   0  0  0  0  0  0  0  0  0  0  0  0
  -19.9748  -20.0918   15.6358 C   0  0  0  0  0  0  0  0  0  0  0  0
  -26.2164  -29.3106   20.5870 C   0  0  0  0  0  0  0  0  0  0  0  0
  -23.8093  -29.2573   20.3869 C   0  0  0  0  0  0  0  0  0  0  0  0
  -27.9824  -10.8178   17.9046 C   0  0  0  0  0  0  0  0  0  0  0  0
  -26.4464  -13.0655   18.4831 C   0  0  0  0  0  0  0  0  0  0  0  0
  -25.4958  -17.6671   16.5943 C   0  0  0  0  0  0  0  0  0  0  0  0
  -20.6014  -20.8556   14.6511 C   0  0  0  0  0  0  0  0  0  0  0  0
  -20.6913  -19.6775   16.7585 C   0  0  0  0  0  0  0  0  0  0  0  0
  -26.1283  -30.4847   21.3348 C   0  0  0  0  0  0  0  0  0  0  0  0
  -23.7211  -30.4314   21.1348 C   0  0  0  0  0  0  0  0  0  0  0  0
  -24.2173  -18.1859   16.7945 C   0  0  0  0  0  0  0  0  0  0  0  0
  -26.5161  -33.2993   23.6026 C   0  0  0  0  0  0  0  0  0  0  0  0
  -27.2957  -33.3941   24.7552 C   0  0  0  0  0  0  0  0  0  0  0  0
  -25.0503  -19.5155   18.6269 C   0  0  0  0  0  0  0  0  0  0  0  0
  -22.6613  -20.7908   15.9118 C   0  0  0  0  0  0  0  0  0  0  0  0
  -26.1775  -31.4580   25.6708 C   0  0  0  0  0  0  0  0  0  0  0  0
  -25.0569  -28.6969   20.1130 C   0  0  0  0  0  0  0  0  0  0  0  0
  -25.1360  -26.1633   19.8263 C   0  0  0  0  0  0  0  0  0  0  0  0
  -28.5320  -11.8429   18.6907 C   0  0  0  0  0  0  0  0  0  0  0  0
  -26.5607  -18.0611   17.4173 C   0  0  0  0  0  0  0  0  0  0  0  0
  -27.7528  -12.9760   18.9929 C   0  0  0  0  0  0  0  0  0  0  0  0
  -26.3419  -19.0022   18.4334 C   0  0  0  0  0  0  0  0  0  0  0  0
  -21.9447  -21.2051   14.7892 C   0  0  0  0  0  0  0  0  0  0  0  0
  -24.8807  -31.0451   21.6087 C   0  0  0  0  0  0  0  0  0  0  0  0
  -23.9938  -19.1080   17.8127 C   0  0  0  0  0  0  0  0  0  0  0  0
  -22.0346  -20.0270   16.8965 C   0  0  0  0  0  0  0  0  0  1  0  0
  -25.5670  -32.2839   23.4840 C   0  0  0  0  0  0  0  0  0  0  0  0
  -27.1265  -32.4734   25.7893 C   0  0  0  0  0  0  0  0  0  0  0  0
  -25.3978  -31.3633   24.5181 C   0  0  0  0  0  0  0  0  0  0  0  0
  -25.1473  -27.4843   19.3400 C   0  0  0  0  0  0  0  0  0  0  0  0
  -25.2459  -25.3824   18.7017 C   0  0  0  0  0  0  0  0  0  0  0  0
  -25.0350  -25.6848   21.1741 C   0  0  0  0  0  0  0  0  0  0  0  0
  -28.5059  -16.5659   19.4382 C   0  0  0  0  0  0  0  0  0  0  0  0
  -29.9681  -19.4589   19.5605 C   0  0  0  0  0  0  0  0  0  0  0  0
  -29.7385  -22.8404   19.1610 C   0  0  0  0  0  0  0  0  0  0  0  0
  -23.7955  -24.1852   13.4474 C   0  0  0  0  0  0  0  0  0  0  0  0
  -29.9231  -11.6657   19.2455 C   0  0  0  0  0  0  0  0  0  0  0  0
  -27.9394  -17.5124   17.1713 C   0  0  0  0  0  0  0  0  0  0  0  0
  -27.4556  -19.4731   19.3314 C   0  0  0  0  0  0  0  0  0  0  0  0
  -30.5429  -12.9620   19.7612 C   0  0  0  0  0  0  0  0  0  0  0  0
  -26.3418  -26.6277   13.9232 C   0  0  0  0  0  0  0  0  0  0  0  0
  -29.5451  -13.7225   20.6288 C   0  0  0  0  0  0  0  0  0  0  0  0
  -26.2528  -26.9636   15.4129 C   0  0  0  0  0  0  0  0  0  0  0  0
  -24.9634  -26.3660   13.3203 C   0  0  0  0  0  0  0  0  0  0  0  0
  -24.0734  -25.6835   15.5147 C   0  0  0  0  0  0  0  0  0  0  0  0
  -28.3012  -14.1163   19.8231 C   0  0  1  0  0  0  0  0  0  0  0  0
  -28.8433  -17.5957   18.3974 C   0  0  1  0  0  0  0  0  0  0  0  0
  -25.4433  -25.9007   16.1799 C   0  0  2  0  0  0  0  0  0  0  0  0
  -31.0889  -24.9450   19.3711 C   0  0  0  0  0  0  0  0  0  0  0  0
  -29.6895  -19.3316   22.5963 C   0  0  0  0  0  0  0  0  0  0  0  0
  -30.1591  -21.7896   22.6727 C   0  0  0  0  0  0  0  0  0  0  0  0
  -31.8828  -20.2193   21.7863 C   0  0  0  0  0  0  0  0  0  0  0  0
  -29.4207  -23.4692   16.2865 C   0  0  0  0  0  0  0  0  0  0  0  0
  -22.6139  -22.0219   13.7363 C   0  0  0  0  0  0  0  0  0  0  0  0
  -29.8171  -20.6981   20.4094 C   0  0  1  0  0  0  0  0  0  0  0  0
  -30.6330  -23.8325   18.4399 C   0  0  2  0  0  0  0  0  0  0  0  0
  -30.3655  -20.4995   21.8507 C   0  0  0  0  0  0  0  0  0  0  0  0
  -25.2560  -27.5432   18.0100 N   0  0  0  0  0  0  0  0  0  0  0  0
  -25.3141  -26.2495   17.6511 N   0  0  0  0  0  0  0  0  0  0  0  0
  -28.7845  -18.9027   19.0551 N   0  0  0  0  0  0  0  0  0  0  0  0
  -24.2485  -25.3474   14.0931 N   0  0  0  0  0  0  0  0  0  0  0  0
  -25.2899  -24.0456   18.5190 N   0  0  0  0  0  0  0  0  0  0  0  0
  -24.9289  -26.6229   22.2099 N   0  0  0  0  0  0  0  0  0  0  0  0
  -28.5833  -15.2625   18.9859 N   0  0  0  0  0  0  0  0  0  0  0  0
  -30.4581  -21.7801   19.6700 N   0  0  0  0  0  0  0  0  0  0  0  0
  -23.1329  -23.2682   14.2542 N   0  0  0  0  0  0  0  0  0  0  0  0
  -29.9058  -24.4476   17.2936 N   0  3  0  0  0  0  0  0  0  0  0  0
  -25.0553  -24.4619   21.4530 O   0  0  0  0  0  0  0  0  0  0  0  0
  -28.1997  -16.9270   20.5685 O   0  0  0  0  0  0  0  0  0  0  0  0
  -31.0953  -19.0054   19.3476 O   0  0  0  0  0  0  0  0  0  0  0  0
  -28.5234  -22.9928   19.2657 O   0  0  0  0  0  0  0  0  0  0  0  0
  -23.9733  -23.9774   12.2423 O   0  0  0  0  0  0  0  0  0  0  0  0
  -24.7943  -32.1907   22.3386 O   0  0  0  0  0  0  0  0  0  0  0  0
  -22.7467  -19.6154   18.0107 O   0  0  0  0  0  0  0  0  0  1  0  0
  -27.8763  -32.5636   26.8956 F   0  0  0  0  0  0  0  0  0  0  0  0
  -24.4885  -30.3849   24.4094 F   0  0  0  0  0  0  0  0  0  0  0  0
  1  2  1  0  0  0  0
  1  6  2  0  0  0  0
  2  7  2  0  0  0  0
  3  9  1  0  0  0  0
  3 10  2  0  0  0  0
  4 11  2  0  0  0  0
  4 19  1  0  0  0  0
  5 12  1  0  0  0  0
  5 19  2  0  0  0  0
  6 21  1  0  0  0  0
  7 23  1  0  0  0  0
  8 13  2  0  0  0  0
  8 22  1  0  0  0  0
  9 25  2  0  0  0  0
 10 28  1  0  0  0  0
 11 26  1  0  0  0  0
 12 26  2  0  0  0  0
 13 27  1  0  0  0  0
 14 15  2  0  0  0  0
 14 29  1  0  0  0  0
 15 30  1  0  0  0  0
 16 24  1  0  0  0  0
 16 27  2  0  0  0  0
 17 25  1  0  0  0  0
 17 28  2  0  0  0  0
 18 30  2  0  0  0  0
 18 31  1  0  0  0  0
 19 32  1  0  0  0  0
 20 32  1  0  0  0  0
 20 33  2  0  0  0  0
 20 34  1  0  0  0  0
 21 23  2  0  0  0  0
 21 39  1  0  0  0  0
 22 24  2  0  0  0  0
 22 40  1  0  0  0  0
 23 48  1  0  0  0  0
 24 41  1  0  0  0  0
 25 56  1  0  0  0  0
 26 75  1  0  0  0  0
 27 76  1  0  0  0  0
 28 76  1  0  0  0  0
 29 31  2  0  0  0  0
 29 75  1  0  0  0  0
 30 77  1  0  0  0  0
 31 78  1  0  0  0  0
 32 60  2  0  0  0  0
 33 61  1  0  0  0  0
 33 64  1  0  0  0  0
 34 65  1  0  0  0  0
 34 70  2  0  0  0  0
 35 49  1  0  0  0  0
 35 66  1  0  0  0  0
 35 71  2  0  0  0  0
 36 57  1  0  0  0  0
 36 62  1  0  0  0  0
 36 72  2  0  0  0  0
 37 58  1  0  0  0  0
 37 67  1  0  0  0  0
 37 73  2  0  0  0  0
 38 63  1  0  0  0  0
 38 68  1  0  0  0  0
 38 74  2  0  0  0  0
 39 42  1  0  0  0  0
 40 49  1  0  0  0  0
 41 62  1  0  0  0  0
 42 44  1  0  0  0  0
 43 45  1  0  0  0  0
 43 46  1  0  0  0  0
 44 48  1  0  0  0  0
 45 50  1  0  0  0  0
 46 63  1  0  0  0  0
 47 50  1  0  0  0  0
 47 63  1  0  0  0  0
 48 66  1  0  0  0  0
 49 62  1  0  0  0  0
 50 61  1  0  0  0  0
 51 58  1  0  0  0  0
 52 59  1  0  0  0  0
 53 59  1  0  0  0  0
 54 59  1  0  0  0  0
 55 69  1  0  0  0  0
 56 68  1  0  0  0  0
 57 59  1  0  0  0  0
 57 67  1  0  0  0  0
 58 69  1  0  0  0  0
 60 61  1  0  0  0  0
M  CHG  1  69   1
M  ISO  4  28 101  38 100  68 100  76 101
M  END
> <Batch ID>
0001

> <Smiles>
CNC(C)C(=O)NC(C(=O)N1Cc2cc([101O:1][101c:1]3cccc(C[100NH:0][100C:0](=O)N4CCCC(n5nc(-c6ccc(Oc7ccc(F)cc7F)cc6)c(C(N)=O)c5N)C4)c3)ccc2CC1C(=O)NC1CCCc2ccccc21)C(C)(C)C

> <Shape>
0.233

> <Color>
0.052

> <Negative vol penalty>
0.000

$$$$

  -OEChem-04042320143D

 82 90  0     1  0  0  0  0  0999 V2000
  -29.5411  -34.8415   23.5502 C   0  0  0  0  0  0  0  0  0  0  0  0
  -29.9327  -33.5180   23.3760 C   0  0  0  0  0  0  0  0  0  0  0  0
  -24.1414   -9.5351   21.6682 C   0  0  0  0  0  0  0  0  0  0  0  0
  -24.6035  -10.7807   23.6861 C   0  0  0  0  0  0  0  0  0  0  0  0
  -29.9639  -19.9918   21.7856 C   0  0  0  0  0  0  0  0  0  0  0  0
  -30.3135  -20.4947   24.1226 C   0  0  0  0  0  0  0  0  0  0  0  0
  -29.5936  -21.3167   21.5558 C   0  0  0  0  0  0  0  0  0  0  0  0
  -29.9431  -21.8198   23.8929 C   0  0  0  0  0  0  0  0  0  0  0  0
  -28.1923  -35.1518   23.7185 C   0  0  0  0  0  0  0  0  0  0  0  0
  -28.9757  -32.5038   23.3710 C   0  0  0  0  0  0  0  0  0  0  0  0
  -29.0734  -27.3663   20.0390 C   0  0  0  0  0  0  0  0  0  0  0  0
  -23.7337   -8.4437   22.4351 C   0  0  0  0  0  0  0  0  0  0  0  0
  -24.1958   -9.6893   24.4531 C   0  0  0  0  0  0  0  0  0  0  0  0
  -29.4553  -26.0598   20.3407 C   0  0  0  0  0  0  0  0  0  0  0  0
  -22.2299   -5.4571   23.8612 C   0  0  0  0  0  0  0  0  0  0  0  0
  -21.0560   -4.8036   23.4867 C   0  0  0  0  0  0  0  0  0  0  0  0
  -27.1547  -25.5004   20.8028 C   0  0  0  0  0  0  0  0  0  0  0  0
  -19.8151   -6.8527   23.8004 C   0  0  0  0  0  0  0  0  0  0  0  0
  -24.5763  -10.7036   22.2937 C   0  0  0  0  0  0  0  0  0  0  0  0
  -30.3238  -19.5807   23.0690 C   0  0  0  0  0  0  0  0  0  0  0  0
  -29.5832  -22.2308   22.6094 C   0  0  0  0  0  0  0  0  0  0  0  0
  -24.1956  -12.8886   21.0333 C   0  0  0  0  0  0  0  0  0  0  0  0
  -27.2173  -34.1420   23.7058 C   0  0  0  0  0  0  0  0  0  0  0  0
  -27.7284  -27.7531   20.1277 C   0  0  0  0  0  0  0  0  0  0  0  0
  -27.6127  -32.8008   23.5405 C   0  0  0  0  0  0  0  0  0  0  0  0
  -26.7580  -26.8117   20.4993 C   0  0  0  0  0  0  0  0  0  0  0  0
  -23.7609   -8.5208   23.8276 C   0  0  0  0  0  0  0  0  0  0  0  0
  -28.4963  -25.1274   20.7254 C   0  0  0  0  0  0  0  0  0  0  0  0
  -22.1965   -6.8085   24.2054 C   0  0  0  0  0  0  0  0  0  0  0  0
  -19.8486   -5.5014   23.4562 C   0  0  0  0  0  0  0  0  0  0  0  0
  -20.9891   -7.5063   24.1750 C   0  0  0  0  0  0  0  0  0  0  0  0
  -24.9981  -11.8312   21.5019 C   0  0  0  0  0  0  0  0  0  0  0  0
  -25.0626  -13.6954   20.3377 C   0  0  0  0  0  0  0  0  0  0  0  0
  -30.7099  -18.1990   23.3094 C   0  0  0  0  0  0  0  0  0  0  0  0
  -31.1286  -17.3189   22.3714 C   0  0  0  0  0  0  0  0  0  0  0  0
  -22.7919  -13.1208   21.2109 C   0  0  0  0  0  0  0  0  0  0  0  0
  -29.1902  -23.6422   22.3638 C   0  0  0  0  0  0  0  0  0  1  0  0
  -26.1129  -29.8694   21.8642 C   0  0  0  0  0  0  0  0  0  0  0  0
  -23.6488  -28.9716   19.9550 C   0  0  0  0  0  0  0  0  0  0  0  0
  -22.2675  -26.5948   17.9328 C   0  0  0  0  0  0  0  0  0  0  0  0
  -30.9783  -14.5608   20.6639 C   0  0  0  0  0  0  0  0  0  0  0  0
  -25.7763  -34.5212   23.9389 C   0  0  0  0  0  0  0  0  0  0  0  0
  -27.3292  -29.1593   19.7731 C   0  0  0  0  0  0  0  0  0  0  0  0
  -25.2982  -27.1713   20.5902 C   0  0  0  0  0  0  0  0  0  0  0  0
  -24.7873  -33.4267   23.5465 C   0  0  0  0  0  0  0  0  0  0  0  0
  -29.1199  -13.5286   17.8077 C   0  0  0  0  0  0  0  0  0  0  0  0
  -25.2424  -32.0760   24.0901 C   0  0  0  0  0  0  0  0  0  0  0  0
  -27.7804  -13.0720   18.3883 C   0  0  0  0  0  0  0  0  0  0  0  0
  -30.2845  -13.1762   18.7305 C   0  0  0  0  0  0  0  0  0  0  0  0
  -28.8020  -13.1974   20.6991 C   0  0  0  0  0  0  0  0  0  0  0  0
  -26.6017  -31.6753   23.5044 C   0  0  1  0  0  0  0  0  0  0  0  0
  -26.0002  -29.5778   20.3945 C   0  0  1  0  0  0  0  0  0  0  0  0
  -27.5917  -13.5805   19.8302 C   0  0  2  0  0  0  0  0  0  0  0  0
  -20.2286  -26.1319   16.5451 C   0  0  0  0  0  0  0  0  0  0  0  0
  -22.0532  -28.4040   22.4931 C   0  0  0  0  0  0  0  0  0  0  0  0
  -20.4433  -27.0841   21.1024 C   0  0  0  0  0  0  0  0  0  0  0  0
  -20.7536  -29.5215   20.6719 C   0  0  0  0  0  0  0  0  0  0  0  0
  -23.8652  -26.3688   15.4518 C   0  0  0  0  0  0  0  0  0  0  0  0
  -31.5309  -15.9106   22.6718 C   0  0  0  0  0  0  0  0  0  0  0  0
  -22.5830  -27.9043   20.0161 C   0  0  1  0  0  0  0  0  0  0  0  0
  -21.6449  -26.6857   16.5513 C   0  0  2  0  0  0  0  0  0  0  0  0
  -21.4859  -28.2219   21.0711 C   0  0  0  0  0  0  0  0  0  0  0  0
  -26.2766  -11.9524   21.1349 N   0  0  0  0  0  0  0  0  0  0  0  0
  -26.2841  -13.0954   20.4282 N   0  0  0  0  0  0  0  0  0  0  0  0
  -24.9586  -28.5603   20.2397 N   0  0  0  0  0  0  0  0  0  0  0  0
  -30.0440  -13.6884   20.0817 N   0  0  0  0  0  0  0  0  0  0  0  0
  -24.8916  -14.8525   19.6636 N   0  0  0  0  0  0  0  0  0  0  0  0
  -22.0497  -12.1921   21.9532 N   0  0  0  0  0  0  0  0  0  0  0  0
  -26.4438  -31.1793   22.1541 N   0  0  0  0  0  0  0  0  0  0  0  0
  -22.0779  -27.7535   18.6557 N   0  0  0  0  0  0  0  0  0  0  0  0
  -30.6706  -15.0043   21.9443 N   0  0  0  0  0  0  0  0  0  0  0  0
  -22.4552  -25.9149   15.5662 N   0  3  0  0  0  0  0  0  0  0  0  0
  -22.2099  -14.1136   20.7119 O   0  0  0  0  0  0  0  0  0  0  0  0
  -29.1605  -24.4908   23.2425 O   0  0  0  0  0  0  0  0  0  0  0  0
  -25.9128  -28.9727   22.6751 O   0  0  0  0  0  0  0  0  0  0  0  0
  -23.3320  -30.1263   19.6585 O   0  0  0  0  0  0  0  0  0  0  0  0
  -22.8595  -25.5944   18.3321 O   0  0  0  0  0  0  0  0  0  0  0  0
  -32.0076  -14.9221   20.0835 O   0  0  0  0  0  0  0  0  0  0  0  0
  -23.3630   -7.4561   24.5763 O   0  0  0  0  0  0  0  0  0  0  0  0
  -28.8664  -23.8516   21.0211 O   0  0  0  0  0  0  0  0  0  1  0  0
  -18.7216   -4.8740   23.0950 F   0  0  0  0  0  0  0  0  0  0  0  0
  -20.9509   -8.8049   24.5034 F   0  0  0  0  0  0  0  0  0  0  0  0
  1  2  1  0  0  0  0
  1  9  2  0  0  0  0
  2 10  2  0  0  0  0
  3 12  2  0  0  0  0
  3 19  1  0  0  0  0
  4 13  1  0  0  0  0
  4 19  2  0  0  0  0
  5  7  2  0  0  0  0
  5 20  1  0  0  0  0
  6  8  1  0  0  0  0
  6 20  2  0  0  0  0
  7 21  1  0  0  0  0
  8 21  2  0  0  0  0
  9 23  1  0  0  0  0
 10 25  1  0  0  0  0
 11 14  2  0  0  0  0
 11 24  1  0  0  0  0
 12 27  1  0  0  0  0
 13 27  2  0  0  0  0
 14 28  1  0  0  0  0
 15 16  2  0  0  0  0
 15 29  1  0  0  0  0
 16 30  1  0  0  0  0
 17 26  1  0  0  0  0
 17 28  2  0  0  0  0
 18 30  2  0  0  0  0
 18 31  1  0  0  0  0
 19 32  1  0  0  0  0
 20 34  1  0  0  0  0
 21 37  1  0  0  0  0
 22 32  1  0  0  0  0
 22 33  2  0  0  0  0
 22 36  1  0  0  0  0
 23 25  2  0  0  0  0
 23 42  1  0  0  0  0
 24 26  2  0  0  0  0
 24 43  1  0  0  0  0
 25 51  1  0  0  0  0
 26 44  1  0  0  0  0
 27 79  1  0  0  0  0
 28 80  1  0  0  0  0
 29 31  2  0  0  0  0
 29 79  1  0  0  0  0
 30 81  1  0  0  0  0
 31 82  1  0  0  0  0
 32 63  2  0  0  0  0
 33 64  1  0  0  0  0
 33 67  1  0  0  0  0
 34 35  2  0  0  0  0
 35 59  1  0  0  0  0
 36 68  1  0  0  0  0
 36 73  2  0  0  0  0
 37 74  2  0  0  0  0
 37 80  1  0  0  0  0
 38 52  1  0  0  0  0
 38 69  1  0  0  0  0
 38 75  2  0  0  0  0
 39 60  1  0  0  0  0
 39 65  1  0  0  0  0
 39 76  2  0  0  0  0
 40 61  1  0  0  0  0
 40 70  1  0  0  0  0
 40 77  2  0  0  0  0
 41 66  1  0  0  0  0
 41 71  1  0  0  0  0
 41 78  2  0  0  0  0
 42 45  1  0  0  0  0
 43 52  1  0  0  0  0
 44 65  1  0  0  0  0
 45 47  1  0  0  0  0
 46 48  1  0  0  0  0
 46 49  1  0  0  0  0
 47 51  1  0  0  0  0
 48 53  1  0  0  0  0
 49 66  1  0  0  0  0
 50 53  1  0  0  0  0
 50 66  1  0  0  0  0
 51 69  1  0  0  0  0
 52 65  1  0  0  0  0
 53 64  1  0  0  0  0
 54 61  1  0  0  0  0
 55 62  1  0  0  0  0
 56 62  1  0  0  0  0
 57 62  1  0  0  0  0
 58 72  1  0  0  0  0
 59 71  1  0  0  0  0
 60 62  1  0  0  0  0
 60 70  1  0  0  0  0
 61 72  1  0  0  0  0
 63 64  1  0  0  0  0
M  CHG  1  72   1
M  ISO  4  37 101  41 100  71 100  80 101
M  END
> <Batch ID>
0001

> <Smiles>
CNC(C)C(=O)NC(C(=O)N1Cc2cc([101O:1][101C:1](=O)c3ccc(C=CC[100NH:0][100C:0](=O)N4CCCC(n5nc(-c6ccc(Oc7ccc(F)cc7F)cc6)c(C(N)=O)c5N)C4)cc3)ccc2CC1C(=O)NC1CCCc2ccccc21)C(C)(C)C

> <Shape>
0.312

> <Color>
0.136

> <Negative vol penalty>
0.000

$$$$

  -OEChem-04042320143D

 81 89  0     1  0  0  0  0  0999 V2000
  -20.2839  -34.7522   21.8265 C   0  0  0  0  0  0  0  0  0  0  0  0
  -21.5197  -34.2352   21.4512 C   0  0  0  0  0  0  0  0  0  0  0  0
  -26.0219  -22.7170   17.5877 C   0  0  0  0  0  0  0  0  0  0  0  0
  -26.4309  -12.2361   20.7809 C   0  0  0  0  0  0  0  0  0  0  0  0
  -24.7691  -13.6634   19.7618 C   0  0  0  0  0  0  0  0  0  0  0  0
  -19.4932  -34.0662   22.7474 C   0  0  0  0  0  0  0  0  0  0  0  0
  -21.9660  -33.0322   21.9973 C   0  0  0  0  0  0  0  0  0  0  0  0
  -25.3247  -28.7415   19.2020 C   0  0  0  0  0  0  0  0  0  0  0  0
  -26.2981  -21.6776   18.4758 C   0  0  0  0  0  0  0  0  0  0  0  0
  -26.9659  -23.7216   17.3744 C   0  0  0  0  0  0  0  0  0  0  0  0
  -25.4186  -11.4380   21.3138 C   0  0  0  0  0  0  0  0  0  0  0  0
  -23.7569  -12.8653   20.2947 C   0  0  0  0  0  0  0  0  0  0  0  0
  -26.6900  -28.4597   19.2199 C   0  0  0  0  0  0  0  0  0  0  0  0
  -23.2780   -8.8176   22.6428 C   0  0  0  0  0  0  0  0  0  0  0  0
  -23.4223   -7.4339   22.5422 C   0  0  0  0  0  0  0  0  0  0  0  0
  -26.3184  -26.7974   20.9281 C   0  0  0  0  0  0  0  0  0  0  0  0
  -28.4623  -22.6471   18.9375 C   0  0  0  0  0  0  0  0  0  0  0  0
  -23.4834   -7.6153   20.1338 C   0  0  0  0  0  0  0  0  0  0  0  0
  -26.1061  -13.3488   20.0049 C   0  0  0  0  0  0  0  0  0  0  0  0
  -27.7860  -14.0226   18.2072 C   0  0  0  0  0  0  0  0  0  0  0  0
  -19.9257  -32.8494   23.2978 C   0  0  0  0  0  0  0  0  0  0  0  0
  -24.4460  -28.0598   20.0562 C   0  0  0  0  0  0  0  0  0  0  0  0
  -21.1808  -32.3300   22.9274 C   0  0  0  0  0  0  0  0  0  0  0  0
  -24.9420  -27.0706   20.9172 C   0  0  0  0  0  0  0  0  0  0  0  0
  -27.5183  -21.6426   19.1507 C   0  0  0  0  0  0  0  0  0  0  0  0
  -24.0816  -11.7526   21.0707 C   0  0  0  0  0  0  0  0  0  0  0  0
  -27.1874  -27.4896   20.0851 C   0  0  0  0  0  0  0  0  0  0  0  0
  -28.1861  -23.6866   18.0493 C   0  0  0  0  0  0  0  0  0  0  0  0
  -23.2362   -9.6002   21.4888 C   0  0  0  0  0  0  0  0  0  0  0  0
  -23.5251   -6.8328   21.2877 C   0  0  0  0  0  0  0  0  0  0  0  0
  -23.3389   -8.9990   20.2344 C   0  0  0  0  0  0  0  0  0  0  0  0
  -27.1513  -14.1740   19.4546 C   0  0  0  0  0  0  0  0  0  0  0  0
  -28.6968  -15.0495   18.1585 C   0  0  0  0  0  0  0  0  0  0  0  0
  -27.5714  -13.0414   17.1840 C   0  0  0  0  0  0  0  0  0  0  0  0
  -22.4982  -28.9156   22.4178 C   0  0  0  0  0  0  0  0  0  0  0  0
  -21.6049  -25.7999   22.2876 C   0  0  0  0  0  0  0  0  0  0  0  0
  -22.3957  -22.5927   21.4301 C   0  0  0  0  0  0  0  0  0  0  0  0
  -28.9596  -20.4016   20.8026 C   0  0  0  0  0  0  0  0  0  0  0  0
  -19.0570  -32.1679   24.3253 C   0  0  0  0  0  0  0  0  0  0  0  0
  -22.9723  -28.3566   20.0056 C   0  0  0  0  0  0  0  0  0  0  0  0
  -24.0377  -26.2961   21.8397 C   0  0  0  0  0  0  0  0  0  0  0  0
  -19.4370  -30.7106   24.5741 C   0  0  0  0  0  0  0  0  0  0  0  0
  -31.3884  -17.8059   21.0031 C   0  0  0  0  0  0  0  0  0  0  0  0
  -20.9465  -30.5745   24.7465 C   0  0  0  0  0  0  0  0  0  0  0  0
  -30.6370  -16.5674   20.5095 C   0  0  0  0  0  0  0  0  0  0  0  0
  -30.4866  -18.7272   21.8225 C   0  0  0  0  0  0  0  0  0  0  0  0
  -28.4820  -17.8777   20.6696 C   0  0  0  0  0  0  0  0  0  0  0  0
  -21.6886  -31.0154   23.4790 C   0  0  1  0  0  0  0  0  0  0  0  0
  -22.2394  -27.9635   21.2846 C   0  0  1  0  0  0  0  0  0  0  0  0
  -29.3322  -16.9515   19.7847 C   0  0  2  0  0  0  0  0  0  0  0  0
  -21.4790  -20.2572   21.4801 C   0  0  0  0  0  0  0  0  0  0  0  0
  -22.1896  -25.6371   25.2778 C   0  0  0  0  0  0  0  0  0  0  0  0
  -22.1828  -23.1419   25.0724 C   0  0  0  0  0  0  0  0  0  0  0  0
  -20.1168  -24.4399   24.5534 C   0  0  0  0  0  0  0  0  0  0  0  0
  -22.5022  -22.3636   18.4813 C   0  0  0  0  0  0  0  0  0  0  0  0
  -30.4184  -26.4363   18.8350 C   0  0  0  0  0  0  0  0  0  0  0  0
  -29.2392  -27.3951   18.8863 C   0  0  0  0  0  0  0  0  0  1  0  0
  -29.9755  -24.9845   18.9264 C   0  0  0  0  0  0  0  0  0  0  0  0
  -22.0700  -24.5258   22.9504 C   0  0  1  0  0  0  0  0  0  0  0  0
  -21.6209  -21.5341   20.6663 C   0  0  2  0  0  0  0  0  0  0  0  0
  -21.6573  -24.4520   24.4476 C   0  0  0  0  0  0  0  0  0  0  0  0
  -27.6194  -15.2150   20.1483 N   0  0  0  0  0  0  0  0  0  0  0  0
  -28.5579  -15.7270   19.3340 N   0  0  0  0  0  0  0  0  0  0  0  0
  -22.6055  -26.6270   21.7578 N   0  0  0  0  0  0  0  0  0  0  0  0
  -29.2723  -19.0521   21.0709 N   0  0  0  0  0  0  0  0  0  0  0  0
  -29.5949  -15.4300   17.2252 N   0  0  0  0  0  0  0  0  0  0  0  0
  -26.5968  -12.0569   17.3962 N   0  0  0  0  0  0  0  0  0  0  0  0
  -27.7986  -20.5863   20.0526 N   0  0  0  0  0  0  0  0  0  0  0  0
  -21.6207  -29.9819   22.4683 N   0  0  0  0  0  0  0  0  0  0  0  0
  -21.5571  -23.4305   22.1345 N   0  0  0  0  0  0  0  0  0  0  0  0
  -22.3159  -21.2033   19.3902 N   0  3  0  0  0  0  0  0  0  0  0  0
  -28.2361  -13.0281   16.1202 O   0  0  0  0  0  0  0  0  0  0  0  0
  -23.4244  -28.6981   23.1901 O   0  0  0  0  0  0  0  0  0  0  0  0
  -20.3978  -26.0486   22.2352 O   0  0  0  0  0  0  0  0  0  0  0  0
  -23.6223  -22.6666   21.4073 O   0  0  0  0  0  0  0  0  0  0  0  0
  -29.6841  -21.3240   21.1851 O   0  0  0  0  0  0  0  0  0  0  0  0
  -23.0936  -10.9739   21.5903 O   0  0  0  0  0  0  0  0  0  0  0  0
  -28.5197  -27.2131   20.1052 O   0  0  0  0  0  0  0  0  0  1  0  0
  -29.1137  -24.6737   17.8399 O   0  0  0  0  0  0  0  0  0  0  0  0
  -23.6653   -5.5042   21.1914 F   0  0  0  0  0  0  0  0  0  0  0  0
  -23.3007   -9.7458   19.1223 F   0  0  0  0  0  0  0  0  0  0  0  0
  1  2  1  0  0  0  0
  1  6  2  0  0  0  0
  2  7  2  0  0  0  0
  3  9  1  0  0  0  0
  3 10  2  0  0  0  0
  4 11  2  0  0  0  0
  4 19  1  0  0  0  0
  5 12  1  0  0  0  0
  5 19  2  0  0  0  0
  6 21  1  0  0  0  0
  7 23  1  0  0  0  0
  8 13  2  0  0  0  0
  8 22  1  0  0  0  0
  9 25  2  0  0  0  0
 10 28  1  0  0  0  0
 11 26  1  0  0  0  0
 12 26  2  0  0  0  0
 13 27  1  0  0  0  0
 14 15  2  0  0  0  0
 14 29  1  0  0  0  0
 15 30  1  0  0  0  0
 16 24  1  0  0  0  0
 16 27  2  0  0  0  0
 17 25  1  0  0  0  0
 17 28  2  0  0  0  0
 18 30  2  0  0  0  0
 18 31  1  0  0  0  0
 19 32  1  0  0  0  0
 20 32  1  0  0  0  0
 20 33  2  0  0  0  0
 20 34  1  0  0  0  0
 21 23  2  0  0  0  0
 21 39  1  0  0  0  0
 22 24  2  0  0  0  0
 22 40  1  0  0  0  0
 23 48  1  0  0  0  0
 24 41  1  0  0  0  0
 25 68  1  0  0  0  0
 26 77  1  0  0  0  0
 27 78  1  0  0  0  0
 28 79  1  0  0  0  0
 29 31  2  0  0  0  0
 29 77  1  0  0  0  0
 30 80  1  0  0  0  0
 31 81  1  0  0  0  0
 32 62  2  0  0  0  0
 33 63  1  0  0  0  0
 33 66  1  0  0  0  0
 34 67  1  0  0  0  0
 34 72  2  0  0  0  0
 35 49  1  0  0  0  0
 35 69  1  0  0  0  0
 35 73  2  0  0  0  0
 36 59  1  0  0  0  0
 36 64  1  0  0  0  0
 36 74  2  0  0  0  0
 37 60  1  0  0  0  0
 37 70  1  0  0  0  0
 37 75  2  0  0  0  0
 38 65  1  0  0  0  0
 38 68  1  0  0  0  0
 38 76  2  0  0  0  0
 39 42  1  0  0  0  0
 40 49  1  0  0  0  0
 41 64  1  0  0  0  0
 42 44  1  0  0  0  0
 43 45  1  0  0  0  0
 43 46  1  0  0  0  0
 44 48  1  0  0  0  0
 45 50  1  0  0  0  0
 46 65  1  0  0  0  0
 47 50  1  0  0  0  0
 47 65  1  0  0  0  0
 48 69  1  0  0  0  0
 49 64  1  0  0  0  0
 50 63  1  0  0  0  0
 51 60  1  0  0  0  0
 52 61  1  0  0  0  0
 53 61  1  0  0  0  0
 54 61  1  0  0  0  0
 55 71  1  0  0  0  0
 56 57  1  0  0  0  0
 56 58  1  0  0  0  0
 57 78  1  0  0  0  0
 58 79  1  0  0  0  0
 59 61  1  0  0  0  0
 59 70  1  0  0  0  0
 60 71  1  0  0  0  0
 62 63  1  0  0  0  0
M  CHG  1  71   1
M  ISO  4  38 100  57 101  68 100  78 101
M  END
> <Batch ID>
0001

> <Smiles>
CNC(C)C(=O)NC(C(=O)N1Cc2cc([101O:1][101CH2:1]CCOc3cccc([100NH:0][100C:0](=O)N4CCCC(n5nc(-c6ccc(Oc7ccc(F)cc7F)cc6)c(C(N)=O)c5N)C4)c3)ccc2CC1C(=O)NC1CCCc2ccccc21)C(C)(C)C

> <Shape>
0.241

> <Color>
0.090

> <Negative vol penalty>
0.000

$$$$

  -OEChem-04042320143D

 88 96  0     1  0  0  0  0  0999 V2000
  -16.6369  -30.4038   23.3490 C   0  0  0  0  0  0  0  0  0  0  0  0
  -17.8414  -30.9934   22.9790 C   0  0  0  0  0  0  0  0  0  0  0  0
  -23.0440  -13.8790   20.2170 C   0  0  0  0  0  0  0  0  0  0  0  0
  -24.9579  -12.5860   20.9257 C   0  0  0  0  0  0  0  0  0  0  0  0
  -16.6129  -29.0746   23.7693 C   0  0  0  0  0  0  0  0  0  0  0  0
  -19.0228  -30.2545   23.0301 C   0  0  0  0  0  0  0  0  0  0  0  0
  -25.3239  -29.5630   19.6932 C   0  0  0  0  0  0  0  0  0  0  0  0
  -32.8707  -25.6449   20.2163 C   0  0  0  0  0  0  0  0  0  0  0  0
  -22.4511  -12.7231   19.7091 C   0  0  0  0  0  0  0  0  0  0  0  0
  -24.3649  -11.4300   20.4179 C   0  0  0  0  0  0  0  0  0  0  0  0
  -26.6909  -29.5426   19.9665 C   0  0  0  0  0  0  0  0  0  0  0  0
  -33.1669  -24.2824   20.2538 C   0  0  0  0  0  0  0  0  0  0  0  0
  -21.9720   -9.2387   21.3625 C   0  0  0  0  0  0  0  0  0  0  0  0
  -22.0059   -8.0923   22.1563 C   0  0  0  0  0  0  0  0  0  0  0  0
  -26.5170  -27.2307   20.6329 C   0  0  0  0  0  0  0  0  0  0  0  0
  -31.7642  -25.3459   18.0894 C   0  0  0  0  0  0  0  0  0  0  0  0
  -23.2300   -6.9310   20.4271 C   0  0  0  0  0  0  0  0  0  0  0  0
  -24.2974  -13.8104   20.8253 C   0  0  0  0  0  0  0  0  0  0  0  0
  -24.7810  -15.5253   22.6510 C   0  0  0  0  0  0  0  0  0  0  0  0
  -17.7932  -28.3161   23.8163 C   0  0  0  0  0  0  0  0  0  0  0  0
  -24.5398  -28.4187   19.8984 C   0  0  0  0  0  0  0  0  0  0  0  0
  -19.0148  -28.9143   23.4527 C   0  0  0  0  0  0  0  0  0  0  0  0
  -25.1407  -27.2384   20.3590 C   0  0  0  0  0  0  0  0  0  0  0  0
  -32.1693  -26.1766   19.1341 C   0  0  0  0  0  0  0  0  0  0  0  0
  -32.0605  -23.9833   18.1269 C   0  0  0  0  0  0  0  0  0  0  0  0
  -23.1116  -11.4986   19.8095 C   0  0  0  0  0  0  0  0  0  0  0  0
  -27.2871  -28.3771   20.4392 C   0  0  0  0  0  0  0  0  0  0  0  0
  -32.7618  -23.4516   19.2091 C   0  0  0  0  0  0  0  0  0  0  0  0
  -22.5670   -9.2313   20.1009 C   0  0  0  0  0  0  0  0  0  0  0  0
  -22.6349   -6.9385   21.6887 C   0  0  0  0  0  0  0  0  0  0  0  0
  -23.1960   -8.0775   19.6332 C   0  0  0  0  0  0  0  0  0  0  0  0
  -24.9106  -15.0042   21.3496 C   0  0  0  0  0  0  0  0  0  0  0  0
  -25.5524  -16.6617   22.6442 C   0  0  0  0  0  0  0  0  0  0  0  0
  -24.0305  -15.0266   23.7662 C   0  0  0  0  0  0  0  0  0  0  0  0
  -22.0661  -27.6987   21.7601 C   0  0  0  0  0  0  0  0  0  0  0  0
  -22.1087  -24.9238   20.0806 C   0  0  0  0  0  0  0  0  0  0  0  0
  -23.8909  -22.7024   18.2003 C   0  0  0  0  0  0  0  0  0  0  0  0
  -30.2446  -18.2115   19.4137 C   0  0  0  0  0  0  0  0  0  0  0  0
  -29.4390  -27.9783   19.6241 C   0  0  0  0  0  0  0  0  0  1  0  0
  -17.7245  -26.8970   24.3224 C   0  0  0  0  0  0  0  0  0  0  0  0
  -23.0716  -28.4493   19.5734 C   0  0  0  0  0  0  0  0  0  0  0  0
  -24.3469  -25.9771   20.5767 C   0  0  0  0  0  0  0  0  0  0  0  0
  -18.9648  -26.0713   23.9907 C   0  0  0  0  0  0  0  0  0  0  0  0
  -27.1588  -20.0799   19.7044 C   0  0  0  0  0  0  0  0  0  0  0  0
  -20.2315  -26.8582   24.3116 C   0  0  0  0  0  0  0  0  0  0  0  0
  -26.2181  -19.0244   20.2884 C   0  0  0  0  0  0  0  0  0  0  0  0
  -28.1217  -19.4636   18.6938 C   0  0  0  0  0  0  0  0  0  0  0  0
  -27.9864  -17.2691   19.8071 C   0  0  0  0  0  0  0  0  0  0  0  0
  -20.3137  -28.1381   23.4710 C   0  0  1  0  0  0  0  0  0  0  0  0
  -22.2746  -27.3754   20.3076 C   0  0  1  0  0  0  0  0  0  0  0  0
  -27.0027  -17.8251   20.8526 C   0  0  2  0  0  0  0  0  0  0  0  0
  -32.2606  -23.5077   15.6596 C   0  0  0  0  0  0  0  0  0  0  0  0
  -30.0857  -23.0673   16.8559 C   0  0  0  0  0  0  0  0  0  0  0  0
  -23.6645  -20.5100   17.0005 C   0  0  0  0  0  0  0  0  0  0  0  0
  -22.2093  -23.4539   22.7526 C   0  0  0  0  0  0  0  0  0  0  0  0
  -22.9306  -21.3998   21.5161 C   0  0  0  0  0  0  0  0  0  0  0  0
  -20.7016  -22.4172   21.0477 C   0  0  0  0  0  0  0  0  0  0  0  0
  -24.5462  -23.9315   15.5890 C   0  0  0  0  0  0  0  0  0  0  0  0
  -31.8494  -27.6431   19.0950 C   0  0  0  0  0  0  0  0  0  0  0  0
  -32.9655  -19.9282   20.2243 C   0  0  0  0  0  0  0  0  0  0  0  0
  -32.4362  -19.2798   18.9523 C   0  0  0  0  0  0  0  0  0  0  0  0
  -32.5436  -21.3856   20.3666 C   0  0  0  0  0  0  0  0  0  0  0  0
  -31.6181  -23.1083   17.0007 C   0  0  0  0  0  0  0  0  0  0  0  0
  -22.7924  -23.5875   20.2410 C   0  0  1  0  0  0  0  0  0  0  0  0
  -23.5793  -22.0235   16.8788 C   0  0  2  0  0  0  0  0  0  0  0  0
  -22.1733  -22.7388   21.3872 C   0  0  0  0  0  0  0  0  0  0  0  0
  -25.7019  -15.7486   20.5726 N   0  0  0  0  0  0  0  0  0  0  0  0
  -26.0764  -16.7490   21.3881 N   0  0  0  0  0  0  0  0  0  0  0  0
  -22.9136  -26.0592   20.2506 N   0  0  0  0  0  0  0  0  0  0  0  0
  -28.8504  -18.3400   19.2993 N   0  0  0  0  0  0  0  0  0  0  0  0
  -25.8266  -17.5848   23.5903 N   0  0  0  0  0  0  0  0  0  0  0  0
  -23.2932  -13.8461   23.6011 N   0  0  0  0  0  0  0  0  0  0  0  0
  -20.7391  -27.8305   22.1223 N   0  0  0  0  0  0  0  0  0  0  0  0
  -22.7475  -22.9462   18.9313 N   0  0  0  0  0  0  0  0  0  0  0  0
  -30.9911  -19.2658   18.9020 N   0  0  0  0  0  0  0  0  0  0  0  0
  -30.7689  -27.9848   19.9910 N   0  0  0  0  0  0  0  0  0  0  0  0
  -24.5413  -22.4655   15.8299 N   0  3  0  0  0  0  0  0  0  0  0  0
  -24.0011  -15.6193   24.8714 O   0  0  0  0  0  0  0  0  0  0  0  0
  -23.0372  -27.8181   22.4979 O   0  0  0  0  0  0  0  0  0  0  0  0
  -20.9063  -24.9590   19.8074 O   0  0  0  0  0  0  0  0  0  0  0  0
  -25.0346  -22.9845   18.5508 O   0  0  0  0  0  0  0  0  0  0  0  0
  -30.7847  -17.2316   19.9384 O   0  0  0  0  0  0  0  0  0  0  0  0
  -29.0047  -27.6887   18.5132 O   0  0  0  0  0  0  0  0  0  0  0  0
  -22.5332  -10.3704   19.3143 O   0  0  0  0  0  0  0  0  0  0  0  0
  -28.6211  -28.3547   20.7074 O   0  0  0  0  0  0  0  0  0  1  0  0
  -33.0611  -22.1233   19.2613 O   0  0  0  0  0  0  0  0  0  0  0  0
  -22.6687   -5.8382   22.4518 F   0  0  0  0  0  0  0  0  0  0  0  0
  -23.7705   -8.0646   18.4226 F   0  0  0  0  0  0  0  0  0  0  0  0
  1  2  1  0  0  0  0
  1  5  2  0  0  0  0
  2  6  2  0  0  0  0
  3  9  2  0  0  0  0
  3 18  1  0  0  0  0
  4 10  1  0  0  0  0
  4 18  2  0  0  0  0
  5 20  1  0  0  0  0
  6 22  1  0  0  0  0
  7 11  2  0  0  0  0
  7 21  1  0  0  0  0
  8 12  2  0  0  0  0
  8 24  1  0  0  0  0
  9 26  1  0  0  0  0
 10 26  2  0  0  0  0
 11 27  1  0  0  0  0
 12 28  1  0  0  0  0
 13 14  2  0  0  0  0
 13 29  1  0  0  0  0
 14 30  1  0  0  0  0
 15 23  1  0  0  0  0
 15 27  2  0  0  0  0
 16 24  2  0  0  0  0
 16 25  1  0  0  0  0
 17 30  2  0  0  0  0
 17 31  1  0  0  0  0
 18 32  1  0  0  0  0
 19 32  1  0  0  0  0
 19 33  2  0  0  0  0
 19 34  1  0  0  0  0
 20 22  2  0  0  0  0
 20 40  1  0  0  0  0
 21 23  2  0  0  0  0
 21 41  1  0  0  0  0
 22 49  1  0  0  0  0
 23 42  1  0  0  0  0
 24 59  1  0  0  0  0
 25 28  2  0  0  0  0
 25 63  1  0  0  0  0
 26 84  1  0  0  0  0
 27 85  1  0  0  0  0
 28 86  1  0  0  0  0
 29 31  2  0  0  0  0
 29 84  1  0  0  0  0
 30 87  1  0  0  0  0
 31 88  1  0  0  0  0
 32 67  2  0  0  0  0
 33 68  1  0  0  0  0
 33 71  1  0  0  0  0
 34 72  1  0  0  0  0
 34 78  2  0  0  0  0
 35 50  1  0  0  0  0
 35 73  1  0  0  0  0
 35 79  2  0  0  0  0
 36 64  1  0  0  0  0
 36 69  1  0  0  0  0
 36 80  2  0  0  0  0
 37 65  1  0  0  0  0
 37 74  1  0  0  0  0
 37 81  2  0  0  0  0
 38 70  1  0  0  0  0
 38 75  1  0  0  0  0
 38 82  2  0  0  0  0
 39 76  1  0  0  0  0
 39 83  2  0  0  0  0
 39 85  1  0  0  0  0
 40 43  1  0  0  0  0
 41 50  1  0  0  0  0
 42 69  1  0  0  0  0
 43 45  1  0  0  0  0
 44 46  1  0  0  0  0
 44 47  1  0  0  0  0
 45 49  1  0  0  0  0
 46 51  1  0  0  0  0
 47 70  1  0  0  0  0
 48 51  1  0  0  0  0
 48 70  1  0  0  0  0
 49 73  1  0  0  0  0
 50 69  1  0  0  0  0
 51 68  1  0  0  0  0
 52 63  1  0  0  0  0
 53 63  1  0  0  0  0
 54 65  1  0  0  0  0
 55 66  1  0  0  0  0
 56 66  1  0  0  0  0
 57 66  1  0  0  0  0
 58 77  1  0  0  0  0
 59 76  1  0  0  0  0
 60 61  1  0  0  0  0
 60 62  1  0  0  0  0
 61 75  1  0  0  0  0
 62 86  1  0  0  0  0
 64 66  1  0  0  0  0
 64 74  1  0  0  0  0
 65 77  1  0  0  0  0
 67 68  1  0  0  0  0
M  CHG  1  77   1
M  ISO  4  38 100  39 101  75 100  85 101
M  END
> <Batch ID>
0001

> <Smiles>
CNC(C)C(=O)NC(C(=O)N1Cc2cc([101O:1][101C:1](=O)NCc3ccc(OCCC[100NH:0][100C:0](=O)N4CCCC(n5nc(-c6ccc(Oc7ccc(F)cc7F)cc6)c(C(N)=O)c5N)C4)c(C(C)C)c3)ccc2CC1C(=O)NC1CCCc2ccccc21)C(C)(C)C

> <Shape>
0.233

> <Color>
0.074

> <Negative vol penalty>
0.000

$$$$

  -OEChem-04042320143D

 82 90  0     1  0  0  0  0  0999 V2000
  -27.2893  -33.5383   26.5883 C   0  0  0  0  0  0  0  0  0  0  0  0
  -27.6078  -32.4121   25.8362 C   0  0  0  0  0  0  0  0  0  0  0  0
  -31.6347  -21.6715   17.9168 C   0  0  0  0  0  0  0  0  0  0  0  0
  -24.7544  -12.6098   21.6301 C   0  0  0  0  0  0  0  0  0  0  0  0
  -25.6287  -12.6882   19.3792 C   0  0  0  0  0  0  0  0  0  0  0  0
  -25.9617  -33.7963   26.9271 C   0  0  0  0  0  0  0  0  0  0  0  0
  -26.5989  -31.5426   25.4234 C   0  0  0  0  0  0  0  0  0  0  0  0
  -27.0867  -30.1626   20.5755 C   0  0  0  0  0  0  0  0  0  0  0  0
  -31.3274  -22.8330   17.2082 C   0  0  0  0  0  0  0  0  0  0  0  0
  -30.6381  -21.0052   18.6299 C   0  0  0  0  0  0  0  0  0  0  0  0
  -24.1259  -11.3980   21.3438 C   0  0  0  0  0  0  0  0  0  0  0  0
  -25.0002  -11.4763   19.0929 C   0  0  0  0  0  0  0  0  0  0  0  0
  -28.0379  -29.1858   20.2841 C   0  0  0  0  0  0  0  0  0  0  0  0
  -24.9955   -8.1405   21.0873 C   0  0  0  0  0  0  0  0  0  0  0  0
  -25.1020   -7.1169   22.0287 C   0  0  0  0  0  0  0  0  0  0  0  0
  -26.2935  -27.5218   20.1974 C   0  0  0  0  0  0  0  0  0  0  0  0
  -29.0268  -22.6621   17.9259 C   0  0  0  0  0  0  0  0  0  0  0  0
  -22.6971   -7.0773   22.2576 C   0  0  0  0  0  0  0  0  0  0  0  0
  -25.5058  -13.2550   20.6478 C   0  0  0  0  0  0  0  0  0  0  0  0
  -27.4535  -14.6919   21.4534 C   0  0  0  0  0  0  0  0  0  0  0  0
  -24.9349  -32.9347   26.5101 C   0  0  0  0  0  0  0  0  0  0  0  0
  -25.7309  -29.8239   20.6909 C   0  0  0  0  0  0  0  0  0  0  0  0
  -25.2565  -31.7885   25.7581 C   0  0  0  0  0  0  0  0  0  0  0  0
  -25.3269  -28.4966   20.4877 C   0  0  0  0  0  0  0  0  0  0  0  0
  -30.0235  -23.3283   17.2128 C   0  0  0  0  0  0  0  0  0  0  0  0
  -29.3341  -21.5006   18.6345 C   0  0  0  0  0  0  0  0  0  0  0  0
  -24.2488  -10.8312   20.0753 C   0  0  0  0  0  0  0  0  0  0  0  0
  -27.6417  -27.8646   20.0979 C   0  0  0  0  0  0  0  0  0  0  0  0
  -23.7399   -8.6327   20.7310 C   0  0  0  0  0  0  0  0  0  0  0  0
  -23.9528   -6.5852   22.6139 C   0  0  0  0  0  0  0  0  0  0  0  0
  -22.5907   -8.1011   21.3162 C   0  0  0  0  0  0  0  0  0  0  0  0
  -26.1547  -14.5072   20.9427 C   0  0  0  0  0  0  0  0  0  0  0  0
  -27.5924  -16.0547   21.5538 C   0  0  0  0  0  0  0  0  0  0  0  0
  -28.4458  -13.7187   21.8054 C   0  0  0  0  0  0  0  0  0  0  0  0
  -23.5766  -29.9561   23.0244 C   0  0  0  0  0  0  0  0  0  0  0  0
  -21.5441  -29.0311   20.6716 C   0  0  0  0  0  0  0  0  0  0  0  0
  -21.1114  -27.4949   17.6550 C   0  0  0  0  0  0  0  0  0  0  0  0
  -26.9782  -21.1803   19.4672 C   0  0  0  0  0  0  0  0  0  0  0  0
  -23.5200  -33.2296   26.9409 C   0  0  0  0  0  0  0  0  0  0  0  0
  -24.7140  -30.8940   20.9793 C   0  0  0  0  0  0  0  0  0  0  0  0
  -23.8811  -28.0847   20.5807 C   0  0  0  0  0  0  0  0  0  0  0  0
  -22.4683  -32.4597   26.1462 C   0  0  0  0  0  0  0  0  0  0  0  0
  -24.1660  -19.7554   21.1220 C   0  0  0  0  0  0  0  0  0  0  0  0
  -22.8610  -30.9907   26.0243 C   0  0  0  0  0  0  0  0  0  0  0  0
  -24.5395  -18.2782   21.2649 C   0  0  0  0  0  0  0  0  0  0  0  0
  -24.6633  -20.3410   19.8016 C   0  0  0  0  0  0  0  0  0  0  0  0
  -26.4677  -18.6682   19.6784 C   0  0  0  0  0  0  0  0  0  0  0  0
  -24.1873  -30.8349   25.2706 C   0  0  1  0  0  0  0  0  0  0  0  0
  -23.4239  -30.3457   21.5813 C   0  0  1  0  0  0  0  0  0  0  0  0
  -26.0445  -18.0514   21.0215 C   0  0  2  0  0  0  0  0  0  0  0  0
  -28.6123  -24.3634   15.3879 C   0  0  0  0  0  0  0  0  0  0  0  0
  -19.3301  -26.8590   16.0058 C   0  0  0  0  0  0  0  0  0  0  0  0
  -20.6858  -26.7345   22.4878 C   0  0  0  0  0  0  0  0  0  0  0  0
  -19.6625  -25.6280   20.4886 C   0  0  0  0  0  0  0  0  0  0  0  0
  -18.8145  -27.8452   21.2553 C   0  0  0  0  0  0  0  0  0  0  0  0
  -22.3274  -29.1531   15.5264 C   0  0  0  0  0  0  0  0  0  0  0  0
  -30.2763  -26.1550   18.2987 C   0  0  0  0  0  0  0  0  0  0  0  0
  -29.7291  -27.3232   19.0950 C   0  0  0  0  0  0  0  0  0  1  0  0
  -29.6910  -24.5868   16.4448 C   0  0  1  0  0  0  0  0  0  0  0  0
  -21.0724  -27.7046   20.1266 C   0  0  1  0  0  0  0  0  0  0  0  0
  -20.3477  -27.9138   16.4117 C   0  0  2  0  0  0  0  0  0  0  0  0
  -20.0864  -26.9852   21.0897 C   0  0  0  0  0  0  0  0  0  0  0  0
  -25.5141  -15.6603   20.7335 N   0  0  0  0  0  0  0  0  0  0  0  0
  -26.4140  -16.5828   21.1147 N   0  0  0  0  0  0  0  0  0  0  0  0
  -22.9254  -29.1663   20.8710 N   0  0  0  0  0  0  0  0  0  0  0  0
  -26.0976  -20.0918   19.6415 N   0  0  0  0  0  0  0  0  0  0  0  0
  -28.6061  -16.8408   21.9742 N   0  0  0  0  0  0  0  0  0  0  0  0
  -28.1387  -12.3613   21.6396 N   0  0  0  0  0  0  0  0  0  0  0  0
  -28.3218  -20.8232   19.3584 N   0  0  0  0  0  0  0  0  0  0  0  0
  -23.9808  -30.9905   23.8467 N   0  0  0  0  0  0  0  0  0  0  0  0
  -20.5221  -27.9793   18.8037 N   0  0  0  0  0  0  0  0  0  0  0  0
  -21.2864  -28.1238   15.2734 N   0  3  0  0  0  0  0  0  0  0  0  0
  -29.2488  -25.6989   17.3288 N   0  3  0  0  0  0  0  0  0  0  0  0
  -29.5655  -14.0427   22.2690 O   0  0  0  0  0  0  0  0  0  0  0  0
  -23.3435  -28.8028   23.3668 O   0  0  0  0  0  0  0  0  0  0  0  0
  -20.7183  -29.9172   20.9048 O   0  0  0  0  0  0  0  0  0  0  0  0
  -22.1268  -26.8039   17.6118 O   0  0  0  0  0  0  0  0  0  0  0  0
  -26.5734  -22.3455   19.4453 O   0  0  0  0  0  0  0  0  0  0  0  0
  -23.6359   -9.6485   19.7956 O   0  0  0  0  0  0  0  0  0  0  0  0
  -28.5681  -26.9091   19.8141 O   0  0  0  0  0  0  0  0  0  1  0  0
  -24.0551   -5.6011   23.5168 F   0  0  0  0  0  0  0  0  0  0  0  0
  -21.3816   -8.5690   20.9771 F   0  0  0  0  0  0  0  0  0  0  0  0
  1  2  1  0  0  0  0
  1  6  2  0  0  0  0
  2  7  2  0  0  0  0
  3  9  2  0  0  0  0
  3 10  1  0  0  0  0
  4 11  2  0  0  0  0
  4 19  1  0  0  0  0
  5 12  1  0  0  0  0
  5 19  2  0  0  0  0
  6 21  1  0  0  0  0
  7 23  1  0  0  0  0
  8 13  2  0  0  0  0
  8 22  1  0  0  0  0
  9 25  1  0  0  0  0
 10 26  2  0  0  0  0
 11 27  1  0  0  0  0
 12 27  2  0  0  0  0
 13 28  1  0  0  0  0
 14 15  2  0  0  0  0
 14 29  1  0  0  0  0
 15 30  1  0  0  0  0
 16 24  1  0  0  0  0
 16 28  2  0  0  0  0
 17 25  2  0  0  0  0
 17 26  1  0  0  0  0
 18 30  2  0  0  0  0
 18 31  1  0  0  0  0
 19 32  1  0  0  0  0
 20 32  1  0  0  0  0
 20 33  2  0  0  0  0
 20 34  1  0  0  0  0
 21 23  2  0  0  0  0
 21 39  1  0  0  0  0
 22 24  2  0  0  0  0
 22 40  1  0  0  0  0
 23 48  1  0  0  0  0
 24 41  1  0  0  0  0
 25 59  1  0  0  0  0
 26 69  1  0  0  0  0
 27 79  1  0  0  0  0
 28 80  1  0  0  0  0
 29 31  2  0  0  0  0
 29 79  1  0  0  0  0
 30 81  1  0  0  0  0
 31 82  1  0  0  0  0
 32 63  2  0  0  0  0
 33 64  1  0  0  0  0
 33 67  1  0  0  0  0
 34 68  1  0  0  0  0
 34 74  2  0  0  0  0
 35 49  1  0  0  0  0
 35 70  1  0  0  0  0
 35 75  2  0  0  0  0
 36 60  1  0  0  0  0
 36 65  1  0  0  0  0
 36 76  2  0  0  0  0
 37 61  1  0  0  0  0
 37 71  1  0  0  0  0
 37 77  2  0  0  0  0
 38 66  1  0  0  0  0
 38 69  1  0  0  0  0
 38 78  2  0  0  0  0
 39 42  1  0  0  0  0
 40 49  1  0  0  0  0
 41 65  1  0  0  0  0
 42 44  1  0  0  0  0
 43 45  1  0  0  0  0
 43 46  1  0  0  0  0
 44 48  1  0  0  0  0
 45 50  1  0  0  0  0
 46 66  1  0  0  0  0
 47 50  1  0  0  0  0
 47 66  1  0  0  0  0
 48 70  1  0  0  0  0
 49 65  1  0  0  0  0
 50 64  1  0  0  0  0
 51 59  1  0  0  0  0
 52 61  1  0  0  0  0
 53 62  1  0  0  0  0
 54 62  1  0  0  0  0
 55 62  1  0  0  0  0
 56 72  1  0  0  0  0
 57 58  1  0  0  0  0
 57 73  1  0  0  0  0
 58 80  1  0  0  0  0
 59 73  1  0  0  0  0
 60 62  1  0  0  0  0
 60 71  1  0  0  0  0
 61 72  1  0  0  0  0
 63 64  1  0  0  0  0
M  CHG  2  72   1  73   1
M  ISO  4  38 100  58 101  69 100  80 101
M  END
> <Batch ID>
0001

> <Smiles>
CNC(C)C(=O)NC(C(=O)N1Cc2cc([101O:1][101CH2:1]CNC(C)c3cccc([100NH:0][100C:0](=O)N4CCCC(n5nc(-c6ccc(Oc7ccc(F)cc7F)cc6)c(C(N)=O)c5N)C4)c3)ccc2CC1C(=O)NC1CCCc2ccccc21)C(C)(C)C

> <Shape>
0.291

> <Color>
0.081

> <Negative vol penalty>
0.000

$$$$

  -OEChem-04042320143D

 79 87  0     1  0  0  0  0  0999 V2000
  -22.6837  -23.7367   18.7786 C   0  0  0  0  0  0  0  0  0  0  0  0
  -23.6648  -22.7662   18.6095 C   0  0  0  0  0  0  0  0  0  0  0  0
  -22.3639  -27.7155   20.7586 C   0  0  0  0  0  0  0  0  0  0  0  0
  -22.9955  -25.9581   22.2915 C   0  0  0  0  0  0  0  0  0  0  0  0
  -21.6395  -23.5180   19.6747 C   0  0  0  0  0  0  0  0  0  0  0  0
  -23.5955  -21.5718   19.3276 C   0  0  0  0  0  0  0  0  0  0  0  0
  -26.8702  -18.0831   18.1835 C   0  0  0  0  0  0  0  0  0  0  0  0
  -30.5064  -21.1243   20.6151 C   0  0  0  0  0  0  0  0  0  0  0  0
  -32.4263  -20.3030   19.4001 C   0  0  0  0  0  0  0  0  0  0  0  0
  -21.0672  -27.6974   21.2721 C   0  0  0  0  0  0  0  0  0  0  0  0
  -21.6987  -25.9401   22.8051 C   0  0  0  0  0  0  0  0  0  0  0  0
  -28.2211  -18.1798   18.5143 C   0  0  0  0  0  0  0  0  0  0  0  0
  -29.9370  -19.8516   20.5757 C   0  0  0  0  0  0  0  0  0  0  0  0
  -31.8569  -19.0303   19.3606 C   0  0  0  0  0  0  0  0  0  0  0  0
  -19.4505  -28.8776   23.9973 C   0  0  0  0  0  0  0  0  0  0  0  0
  -18.8471  -30.1036   24.2774 C   0  0  0  0  0  0  0  0  0  0  0  0
  -27.8850  -16.6154   20.3195 C   0  0  0  0  0  0  0  0  0  0  0  0
  -17.0814  -29.5926   22.7095 C   0  0  0  0  0  0  0  0  0  0  0  0
  -23.3281  -26.8458   21.2683 C   0  0  0  0  0  0  0  0  0  0  0  0
  -25.7496  -27.6441   21.1872 C   0  0  0  0  0  0  0  0  0  0  0  0
  -21.5650  -22.3254   20.4130 C   0  0  0  0  0  0  0  0  0  0  0  0
  -26.0128  -17.2587   18.9263 C   0  0  0  0  0  0  0  0  0  0  0  0
  -22.5365  -21.3223   20.2191 C   0  0  0  0  0  0  0  0  0  0  0  0
  -26.5241  -16.5080   19.9945 C   0  0  0  0  0  0  0  0  0  0  0  0
  -31.7510  -21.3501   20.0273 C   0  0  0  0  0  0  0  0  0  0  0  0
  -20.7346  -26.8097   22.2954 C   0  0  0  0  0  0  0  0  0  0  0  0
  -30.6123  -18.8046   19.9484 C   0  0  0  0  0  0  0  0  0  1  0  0
  -28.7281  -17.4481   19.5842 C   0  0  0  0  0  0  0  0  0  0  0  0
  -18.8695  -28.0091   23.0733 C   0  0  0  0  0  0  0  0  0  0  0  0
  -17.6625  -30.4611   23.6335 C   0  0  0  0  0  0  0  0  0  0  0  0
  -17.6849  -28.3666   22.4294 C   0  0  0  0  0  0  0  0  0  0  0  0
  -24.6677  -26.8636   20.7379 C   0  0  0  0  0  0  0  0  0  0  0  0
  -26.7903  -27.2964   20.3611 C   0  0  0  0  0  0  0  0  0  0  0  0
  -25.8086  -28.5981   22.2559 C   0  0  0  0  0  0  0  0  0  0  0  0
  -23.4261  -17.7404   20.7098 C   0  0  0  0  0  0  0  0  0  0  0  0
  -23.3763  -14.4988   20.8209 C   0  0  0  0  0  0  0  0  0  0  0  0
  -25.1024  -11.5648   20.5786 C   0  0  0  0  0  0  0  0  0  0  0  0
  -29.8030  -23.4302   17.6924 C   0  0  0  0  0  0  0  0  0  0  0  0
  -20.4089  -22.1376   21.3634 C   0  0  0  0  0  0  0  0  0  0  0  0
  -24.5636  -17.1449   18.5401 C   0  0  0  0  0  0  0  0  0  0  0  0
  -25.6497  -15.5929   20.8109 C   0  0  0  0  0  0  0  0  0  0  0  0
  -20.6604  -21.0446   22.3970 C   0  0  0  0  0  0  0  0  0  0  0  0
  -26.8399  -24.5848   16.0913 C   0  0  0  0  0  0  0  0  0  0  0  0
  -21.1540  -19.7812   21.7078 C   0  0  0  0  0  0  0  0  0  0  0  0
  -26.0975  -25.3392   17.1957 C   0  0  0  0  0  0  0  0  0  0  0  0
  -27.5637  -23.3554   16.6359 C   0  0  0  0  0  0  0  0  0  0  0  0
  -27.7274  -24.3757   18.8733 C   0  0  0  0  0  0  0  0  0  0  0  0
  -22.4984  -20.0284   21.0119 C   0  0  1  0  0  0  0  0  0  0  0  0
  -23.6755  -16.6694   19.6858 C   0  0  1  0  0  0  0  0  0  0  0  0
  -27.0281  -25.6548   18.3822 C   0  0  2  0  0  0  0  0  0  0  0  0
  -24.7983   -9.0801   20.7553 C   0  0  0  0  0  0  0  0  0  0  0  0
  -23.2799  -14.7293   23.8619 C   0  0  0  0  0  0  0  0  0  0  0  0
  -23.9308  -12.3155   23.9958 C   0  0  0  0  0  0  0  0  0  0  0  0
  -21.7864  -12.9683   22.9013 C   0  0  0  0  0  0  0  0  0  0  0  0
  -25.9362  -11.1463   17.7700 C   0  0  0  0  0  0  0  0  0  0  0  0
  -32.3601  -22.7104   20.0695 C   0  0  0  0  0  0  0  0  0  0  0  0
  -31.9800  -23.5912   18.8730 C   0  0  0  0  0  0  0  0  0  0  0  0
  -23.9736  -13.4509   21.7287 C   0  0  1  0  0  0  0  0  0  0  0  0
  -24.8068  -10.2816   19.8232 C   0  0  2  0  0  0  0  0  0  0  0  0
  -23.2590  -13.3847   23.1080 C   0  0  0  0  0  0  0  0  0  0  0  0
  -24.9910  -26.0793   19.7062 N   0  0  0  0  0  0  0  0  0  0  0  0
  -26.2879  -26.3652   19.5005 N   0  0  0  0  0  0  0  0  0  0  0  0
  -24.2384  -15.5205   20.3980 N   0  0  0  0  0  0  0  0  0  0  0  0
  -28.4308  -23.7233   17.7577 N   0  0  0  0  0  0  0  0  0  0  0  0
  -28.0770  -27.6994   20.2942 N   0  0  0  0  0  0  0  0  0  0  0  0
  -24.6479  -28.8352   23.0048 N   0  0  0  0  0  0  0  0  0  0  0  0
  -22.8286  -18.8775   20.2005 N   0  0  0  0  0  0  0  0  0  0  0  0
  -23.9458  -12.1988   20.9805 N   0  0  0  0  0  0  0  0  0  0  0  0
  -30.5542  -23.8185   18.7950 N   0  0  0  0  0  0  0  0  0  0  0  0
  -25.8356  -10.0520   18.7697 N   0  3  0  0  0  0  0  0  0  0  0  0
  -26.8552  -29.2339   22.5279 O   0  0  0  0  0  0  0  0  0  0  0  0
  -23.7503  -17.5486   21.8759 O   0  0  0  0  0  0  0  0  0  0  0  0
  -22.1904  -14.4101   20.4932 O   0  0  0  0  0  0  0  0  0  0  0  0
  -26.2450  -11.9627   20.7941 O   0  0  0  0  0  0  0  0  0  0  0  0
  -30.3213  -22.8692   16.7210 O   0  0  0  0  0  0  0  0  0  0  0  0
  -30.0462  -17.5412   19.9095 O   0  0  0  0  0  0  0  0  0  1  0  0
  -19.4694  -26.7920   22.7969 O   0  0  0  0  0  0  0  0  0  0  0  0
  -17.0823  -31.6377   23.9037 F   0  0  0  0  0  0  0  0  0  0  0  0
  -17.1213  -27.5360   21.5416 F   0  0  0  0  0  0  0  0  0  0  0  0
  1  2  1  0  0  0  0
  1  5  2  0  0  0  0
  2  6  2  0  0  0  0
  3 10  2  0  0  0  0
  3 19  1  0  0  0  0
  4 11  1  0  0  0  0
  4 19  2  0  0  0  0
  5 21  1  0  0  0  0
  6 23  1  0  0  0  0
  7 12  2  0  0  0  0
  7 22  1  0  0  0  0
  8 13  2  0  0  0  0
  8 25  1  0  0  0  0
  9 14  1  0  0  0  0
  9 25  2  0  0  0  0
 10 26  1  0  0  0  0
 11 26  2  0  0  0  0
 12 28  1  0  0  0  0
 13 27  1  0  0  0  0
 14 27  2  0  0  0  0
 15 16  2  0  0  0  0
 15 29  1  0  0  0  0
 16 30  1  0  0  0  0
 17 24  1  0  0  0  0
 17 28  2  0  0  0  0
 18 30  2  0  0  0  0
 18 31  1  0  0  0  0
 19 32  1  0  0  0  0
 20 32  1  0  0  0  0
 20 33  2  0  0  0  0
 20 34  1  0  0  0  0
 21 23  2  0  0  0  0
 21 39  1  0  0  0  0
 22 24  2  0  0  0  0
 22 40  1  0  0  0  0
 23 48  1  0  0  0  0
 24 41  1  0  0  0  0
 25 56  1  0  0  0  0
 26 77  1  0  0  0  0
 27 76  1  0  0  0  0
 28 76  1  0  0  0  0
 29 31  2  0  0  0  0
 29 77  1  0  0  0  0
 30 78  1  0  0  0  0
 31 79  1  0  0  0  0
 32 61  2  0  0  0  0
 33 62  1  0  0  0  0
 33 65  1  0  0  0  0
 34 66  1  0  0  0  0
 34 71  2  0  0  0  0
 35 49  1  0  0  0  0
 35 67  1  0  0  0  0
 35 72  2  0  0  0  0
 36 58  1  0  0  0  0
 36 63  1  0  0  0  0
 36 73  2  0  0  0  0
 37 59  1  0  0  0  0
 37 68  1  0  0  0  0
 37 74  2  0  0  0  0
 38 64  1  0  0  0  0
 38 69  1  0  0  0  0
 38 75  2  0  0  0  0
 39 42  1  0  0  0  0
 40 49  1  0  0  0  0
 41 63  1  0  0  0  0
 42 44  1  0  0  0  0
 43 45  1  0  0  0  0
 43 46  1  0  0  0  0
 44 48  1  0  0  0  0
 45 50  1  0  0  0  0
 46 64  1  0  0  0  0
 47 50  1  0  0  0  0
 47 64  1  0  0  0  0
 48 67  1  0  0  0  0
 49 63  1  0  0  0  0
 50 62  1  0  0  0  0
 51 59  1  0  0  0  0
 52 60  1  0  0  0  0
 53 60  1  0  0  0  0
 54 60  1  0  0  0  0
 55 70  1  0  0  0  0
 56 57  1  0  0  0  0
 57 69  1  0  0  0  0
 58 60  1  0  0  0  0
 58 68  1  0  0  0  0
 59 70  1  0  0  0  0
 61 62  1  0  0  0  0
M  CHG  1  70   1
M  ISO  4  27 101  38 100  69 100  76 101
M  END
> <Batch ID>
0001

> <Smiles>
CNC(C)C(=O)NC(C(=O)N1Cc2cc([101O:1][101c:1]3ccc(CC[100NH:0][100C:0](=O)N4CCCC(n5nc(-c6ccc(Oc7ccc(F)cc7F)cc6)c(C(N)=O)c5N)C4)cc3)ccc2CC1C(=O)NC1CCCc2ccccc21)C(C)(C)C

> <Shape>
0.212

> <Color>
0.077

> <Negative vol penalty>
0.000

$$$$

  -OEChem-04042320143D

 77 84  0     1  0  0  0  0  0999 V2000
  -20.1550   -8.6591   23.3234 C   0  0  0  0  0  0  0  0  0  0  0  0
  -20.7377   -9.8456   23.7570 C   0  0  0  0  0  0  0  0  0  0  0  0
  -26.8842  -25.8367   17.6685 C   0  0  0  0  0  0  0  0  0  0  0  0
  -27.5167  -25.9618   19.9969 C   0  0  0  0  0  0  0  0  0  0  0  0
  -20.7522   -7.9236   22.3006 C   0  0  0  0  0  0  0  0  0  0  0  0
  -21.9188  -10.2967   23.1687 C   0  0  0  0  0  0  0  0  0  0  0  0
  -23.5450  -16.1158   22.1689 C   0  0  0  0  0  0  0  0  0  0  0  0
  -25.7559  -26.6128   17.9333 C   0  0  0  0  0  0  0  0  0  0  0  0
  -26.3884  -26.7380   20.2617 C   0  0  0  0  0  0  0  0  0  0  0  0
  -24.3708  -16.9928   22.8709 C   0  0  0  0  0  0  0  0  0  0  0  0
  -23.8664  -29.0544   21.4829 C   0  0  0  0  0  0  0  0  0  0  0  0
  -24.0290  -30.1841   22.2846 C   0  0  0  0  0  0  0  0  0  0  0  0
  -26.2067  -16.4201   21.4146 C   0  0  0  0  0  0  0  0  0  0  0  0
  -25.5996  -31.0909   20.6883 C   0  0  0  0  0  0  0  0  0  0  0  0
  -27.7646  -25.5111   18.7003 C   0  0  0  0  0  0  0  0  0  0  0  0
  -30.2086  -25.1660   18.0558 C   0  0  0  0  0  0  0  0  0  0  0  0
  -21.9360   -8.3708   21.6929 C   0  0  0  0  0  0  0  0  0  0  0  0
  -24.0476  -15.3750   21.0896 C   0  0  0  0  0  0  0  0  0  0  0  0
  -22.5332   -9.5657   22.1378 C   0  0  0  0  0  0  0  0  0  0  0  0
  -25.3846  -15.5363   20.6990 C   0  0  0  0  0  0  0  0  0  0  0  0
  -25.5080  -27.0635   19.2299 C   0  0  0  0  0  0  0  0  0  0  0  0
  -25.7026  -17.1429   22.4956 C   0  0  0  0  0  0  0  0  0  0  0  0
  -24.5704  -28.9429   20.2838 C   0  0  0  0  0  0  0  0  0  0  0  0
  -24.8956  -31.2024   21.8874 C   0  0  0  0  0  0  0  0  0  0  0  0
  -25.4369  -29.9611   19.8866 C   0  0  0  0  0  0  0  0  0  0  0  0
  -28.9300  -24.7089   18.4275 C   0  0  0  0  0  0  0  0  0  0  0  0
  -30.9549  -24.0215   17.9155 C   0  0  0  0  0  0  0  0  0  0  0  0
  -30.6796  -26.5053   17.8555 C   0  0  0  0  0  0  0  0  0  0  0  0
  -24.4045  -12.2784   20.4668 C   0  0  0  0  0  0  0  0  0  0  0  0
  -25.3106  -13.3683   17.5490 C   0  0  0  0  0  0  0  0  0  0  0  0
  -26.5684  -15.9280   15.6747 C   0  0  0  0  0  0  0  0  0  0  0  0
  -27.1860  -17.4105   24.2662 C   0  0  0  0  0  0  0  0  0  1  0  0
  -30.4814  -18.5319   20.2588 C   0  0  0  0  0  0  0  0  0  0  0  0
  -22.5702   -7.5173   20.6233 C   0  0  0  0  0  0  0  0  0  0  0  0
  -23.1369  -14.4531   20.3259 C   0  0  0  0  0  0  0  0  0  0  0  0
  -25.9675  -14.7794   19.5346 C   0  0  0  0  0  0  0  0  0  0  0  0
  -23.6190   -8.2566   19.7964 C   0  0  0  0  0  0  0  0  0  0  0  0
  -30.5307  -19.3875   16.8031 C   0  0  0  0  0  0  0  0  0  0  0  0
  -24.5621   -9.0380   20.7056 C   0  0  0  0  0  0  0  0  0  0  0  0
  -30.2414  -20.8896   16.7940 C   0  0  0  0  0  0  0  0  0  0  0  0
  -29.7453  -18.6682   17.8975 C   0  0  0  0  0  0  0  0  0  0  0  0
  -29.6259  -20.7299   19.2423 C   0  0  0  0  0  0  0  0  0  0  0  0
  -23.8008  -10.1006   21.5076 C   0  0  1  0  0  0  0  0  0  0  0  0
  -23.8889  -13.3648   19.5659 C   0  0  1  0  0  0  0  0  0  0  0  0
  -30.4376  -21.5069   18.1918 C   0  0  2  0  0  0  0  0  0  0  0  0
  -27.2322  -16.5078   13.3251 C   0  0  0  0  0  0  0  0  0  0  0  0
  -27.8651  -11.7305   17.8691 C   0  0  0  0  0  0  0  0  0  0  0  0
  -28.8707  -13.0636   16.0037 C   0  0  0  0  0  0  0  0  0  0  0  0
  -26.8564  -11.6538   15.5819 C   0  0  0  0  0  0  0  0  0  0  0  0
  -24.5715  -18.1072   15.5249 C   0  0  0  0  0  0  0  0  0  0  0  0
  -28.0495  -18.4515   24.9461 C   0  0  0  0  0  0  0  0  0  0  0  0
  -29.1207  -19.0371   24.0256 C   0  0  0  0  0  0  0  0  0  0  0  0
  -30.0935  -17.9692   23.5096 C   0  0  0  0  0  0  0  0  0  0  0  0
  -31.1968  -18.5570   22.6351 C   0  0  0  0  0  0  0  0  0  0  0  0
  -26.6195  -13.7843   16.9223 C   0  0  1  0  0  0  0  0  0  0  0  0
  -26.1147  -16.5286   14.3564 C   0  0  2  0  0  0  0  0  0  0  0  0
  -27.5428  -12.5710   16.6175 C   0  0  0  0  0  0  0  0  0  0  0  0
  -28.8642  -23.3779   18.5175 N   0  0  0  0  0  0  0  0  0  0  0  0
  -30.1108  -22.9888   18.2002 N   0  0  0  0  0  0  0  0  0  0  0  0
  -25.0386  -13.8855   18.8235 N   0  0  0  0  0  0  0  0  0  0  0  0
  -29.9763  -19.3016   19.1980 N   0  0  0  0  0  0  0  0  0  0  0  0
  -32.2443  -23.8079   17.5774 N   0  0  0  0  0  0  0  0  0  0  0  0
  -29.7809  -27.5645   18.0419 N   0  0  0  0  0  0  0  0  0  0  0  0
  -23.5079  -11.2480   20.6756 N   0  0  0  0  0  0  0  0  0  0  0  0
  -26.2756  -14.5827   15.7507 N   0  0  0  0  0  0  0  0  0  0  0  0
  -30.6770  -19.2113   21.4551 N   0  0  0  0  0  0  0  0  0  0  0  0
  -25.6822  -17.9412   14.5524 N   0  3  0  0  0  0  0  0  0  0  0  0
  -31.8580  -26.7544   17.5050 O   0  0  0  0  0  0  0  0  0  0  0  0
  -25.5329  -12.3677   20.9363 O   0  0  0  0  0  0  0  0  0  0  0  0
  -24.5541  -12.6180   16.9275 O   0  0  0  0  0  0  0  0  0  0  0  0
  -27.1299  -16.5856   16.5481 O   0  0  0  0  0  0  0  0  0  0  0  0
  -27.0692  -16.2456   24.6223 O   0  0  0  0  0  0  0  0  0  0  0  0
  -30.7441  -17.3297   20.1466 O   0  0  0  0  0  0  0  0  0  0  0  0
  -24.4072  -27.8210   19.4886 O   0  0  0  0  0  0  0  0  0  0  0  0
  -26.5110  -17.9977   23.1794 O   0  0  0  0  0  0  0  0  0  1  0  0
  -25.0505  -32.2879   22.6567 F   0  0  0  0  0  0  0  0  0  0  0  0
  -26.1151  -29.8602   18.7352 F   0  0  0  0  0  0  0  0  0  0  0  0
  1  2  1  0  0  0  0
  1  5  2  0  0  0  0
  2  6  2  0  0  0  0
  3  8  2  0  0  0  0
  3 15  1  0  0  0  0
  4  9  1  0  0  0  0
  4 15  2  0  0  0  0
  5 17  1  0  0  0  0
  6 19  1  0  0  0  0
  7 10  2  0  0  0  0
  7 18  1  0  0  0  0
  8 21  1  0  0  0  0
  9 21  2  0  0  0  0
 10 22  1  0  0  0  0
 11 12  2  0  0  0  0
 11 23  1  0  0  0  0
 12 24  1  0  0  0  0
 13 20  1  0  0  0  0
 13 22  2  0  0  0  0
 14 24  2  0  0  0  0
 14 25  1  0  0  0  0
 15 26  1  0  0  0  0
 16 26  1  0  0  0  0
 16 27  2  0  0  0  0
 16 28  1  0  0  0  0
 17 19  2  0  0  0  0
 17 34  1  0  0  0  0
 18 20  2  0  0  0  0
 18 35  1  0  0  0  0
 19 43  1  0  0  0  0
 20 36  1  0  0  0  0
 21 74  1  0  0  0  0
 22 75  1  0  0  0  0
 23 25  2  0  0  0  0
 23 74  1  0  0  0  0
 24 76  1  0  0  0  0
 25 77  1  0  0  0  0
 26 58  2  0  0  0  0
 27 59  1  0  0  0  0
 27 62  1  0  0  0  0
 28 63  1  0  0  0  0
 28 68  2  0  0  0  0
 29 44  1  0  0  0  0
 29 64  1  0  0  0  0
 29 69  2  0  0  0  0
 30 55  1  0  0  0  0
 30 60  1  0  0  0  0
 30 70  2  0  0  0  0
 31 56  1  0  0  0  0
 31 65  1  0  0  0  0
 31 71  2  0  0  0  0
 32 51  1  0  0  0  0
 32 72  2  0  0  0  0
 32 75  1  0  0  0  0
 33 61  1  0  0  0  0
 33 66  1  0  0  0  0
 33 73  2  0  0  0  0
 34 37  1  0  0  0  0
 35 44  1  0  0  0  0
 36 60  1  0  0  0  0
 37 39  1  0  0  0  0
 38 40  1  0  0  0  0
 38 41  1  0  0  0  0
 39 43  1  0  0  0  0
 40 45  1  0  0  0  0
 41 61  1  0  0  0  0
 42 45  1  0  0  0  0
 42 61  1  0  0  0  0
 43 64  1  0  0  0  0
 44 60  1  0  0  0  0
 45 59  1  0  0  0  0
 46 56  1  0  0  0  0
 47 57  1  0  0  0  0
 48 57  1  0  0  0  0
 49 57  1  0  0  0  0
 50 67  1  0  0  0  0
 51 52  1  0  0  0  0
 52 53  1  0  0  0  0
 53 54  1  0  0  0  0
 54 66  1  0  0  0  0
 55 57  1  0  0  0  0
 55 65  1  0  0  0  0
 56 67  1  0  0  0  0
 58 59  1  0  0  0  0
M  CHG  1  67   1
M  ISO  4  32 101  33 100  66 100  75 101
M  END
> <Batch ID>
0001

> <Smiles>
CNC(C)C(=O)NC(C(=O)N1Cc2cc([101O:1][101C:1](=O)CCCC[100NH:0][100C:0](=O)N3CCCC(n4nc(-c5ccc(Oc6ccc(F)cc6F)cc5)c(C(N)=O)c4N)C3)ccc2CC1C(=O)NC1CCCc2ccccc21)C(C)(C)C

> <Shape>
0.217

> <Color>
0.077

> <Negative vol penalty>
0.000

$$$$

  -OEChem-04042320143D

 80 88  0     1  0  0  0  0  0999 V2000
  -23.6037  -32.7327   26.6389 C   0  0  0  0  0  0  0  0  0  0  0  0
  -24.8776  -32.2842   26.3049 C   0  0  0  0  0  0  0  0  0  0  0  0
  -24.0384   -9.7255   21.7182 C   0  0  0  0  0  0  0  0  0  0  0  0
  -24.6425  -10.9968   23.6819 C   0  0  0  0  0  0  0  0  0  0  0  0
  -22.4822  -32.0179   26.2204 C   0  0  0  0  0  0  0  0  0  0  0  0
  -25.0306  -31.1199   25.5529 C   0  0  0  0  0  0  0  0  0  0  0  0
  -29.3094  -28.1866   20.6129 C   0  0  0  0  0  0  0  0  0  0  0  0
  -28.4287  -19.3882   20.5060 C   0  0  0  0  0  0  0  0  0  0  0  0
  -30.7877  -18.9562   20.2141 C   0  0  0  0  0  0  0  0  0  0  0  0
  -23.6100   -8.6752   22.5300 C   0  0  0  0  0  0  0  0  0  0  0  0
  -24.2141   -9.9465   24.4937 C   0  0  0  0  0  0  0  0  0  0  0  0
  -30.0416  -27.0241   20.3755 C   0  0  0  0  0  0  0  0  0  0  0  0
  -28.7132  -20.7096   20.8503 C   0  0  0  0  0  0  0  0  0  0  0  0
  -31.0723  -20.2777   20.5583 C   0  0  0  0  0  0  0  0  0  0  0  0
  -20.8982   -7.9212   24.4037 C   0  0  0  0  0  0  0  0  0  0  0  0
  -19.6779   -7.3201   24.0957 C   0  0  0  0  0  0  0  0  0  0  0  0
  -28.0298  -25.9145   19.6402 C   0  0  0  0  0  0  0  0  0  0  0  0
  -20.7990   -5.2023   23.7872 C   0  0  0  0  0  0  0  0  0  0  0  0
  -24.5547  -10.8863   22.2942 C   0  0  0  0  0  0  0  0  0  0  0  0
  -24.2291  -13.0552   20.9913 C   0  0  0  0  0  0  0  0  0  0  0  0
  -22.6213  -30.8496   25.4547 C   0  0  0  0  0  0  0  0  0  0  0  0
  -27.9277  -28.2185   20.3757 C   0  0  0  0  0  0  0  0  0  0  0  0
  -23.9099  -30.3881   25.1249 C   0  0  0  0  0  0  0  0  0  0  0  0
  -27.2828  -27.0794   19.8730 C   0  0  0  0  0  0  0  0  0  0  0  0
  -29.4659  -18.5115   20.1880 C   0  0  0  0  0  0  0  0  0  0  0  0
  -23.6979   -8.7857   23.9177 C   0  0  0  0  0  0  0  0  0  0  0  0
  -30.0350  -21.1544   20.8764 C   0  0  0  0  0  0  0  0  0  0  0  0
  -29.4013  -25.8869   19.8918 C   0  0  0  0  0  0  0  0  0  0  0  0
  -22.0690   -7.1629   24.4033 C   0  0  0  0  0  0  0  0  0  0  0  0
  -19.6282   -5.9606   23.7875 C   0  0  0  0  0  0  0  0  0  0  0  0
  -22.0194   -5.8035   24.0952 C   0  0  0  0  0  0  0  0  0  0  0  0
  -24.9979  -11.9714   21.4562 C   0  0  0  0  0  0  0  0  0  0  0  0
  -25.1050  -13.8005   20.2404 C   0  0  0  0  0  0  0  0  0  0  0  0
  -22.8468  -13.3610   21.2181 C   0  0  0  0  0  0  0  0  0  0  0  0
  -25.3524  -28.6868   22.1791 C   0  0  0  0  0  0  0  0  0  0  0  0
  -23.8160  -28.5983   19.3236 C   0  0  0  0  0  0  0  0  0  0  0  0
  -23.8009  -27.5601   16.0727 C   0  0  0  0  0  0  0  0  0  0  0  0
  -30.0881  -16.1705   19.4959 C   0  0  0  0  0  0  0  0  0  0  0  0
  -21.3810  -30.0848   25.0655 C   0  0  0  0  0  0  0  0  0  0  0  0
  -27.1569  -29.4884   20.6116 C   0  0  0  0  0  0  0  0  0  0  0  0
  -25.8050  -27.0680   19.5827 C   0  0  0  0  0  0  0  0  0  0  0  0
  -21.6176  -29.0659   23.9537 C   0  0  0  0  0  0  0  0  0  0  0  0
  -29.7771  -12.7363   18.6092 C   0  0  0  0  0  0  0  0  0  0  0  0
  -22.8728  -28.2471   24.2383 C   0  0  0  0  0  0  0  0  0  0  0  0
  -28.4427  -12.3203   19.2326 C   0  0  0  0  0  0  0  0  0  0  0  0
  -30.5327  -13.7256   19.4945 C   0  0  0  0  0  0  0  0  0  0  0  0
  -28.4296  -14.4937   20.5222 C   0  0  0  0  0  0  0  0  0  0  0  0
  -24.1161  -29.1431   24.2896 C   0  0  1  0  0  0  0  0  0  0  0  0
  -25.6647  -29.2513   20.8221 C   0  0  1  0  0  0  0  0  0  0  0  0
  -27.6025  -13.5476   19.6365 C   0  0  2  0  0  0  0  0  0  0  0  0
  -22.3923  -27.6068   13.9963 C   0  0  0  0  0  0  0  0  0  0  0  0
  -22.0062  -26.4448   20.5056 C   0  0  0  0  0  0  0  0  0  0  0  0
  -21.2844  -25.8720   18.1778 C   0  0  0  0  0  0  0  0  0  0  0  0
  -20.8257  -28.1437   19.1006 C   0  0  0  0  0  0  0  0  0  0  0  0
  -25.8720  -29.0381   14.5612 C   0  0  0  0  0  0  0  0  0  0  0  0
  -31.4746  -23.0311   20.6290 C   0  0  0  0  0  0  0  0  0  0  0  0
  -31.2605  -24.5247   20.4780 C   0  0  0  0  0  0  0  0  0  1  0  0
  -23.1936  -27.5139   18.4776 C   0  0  1  0  0  0  0  0  0  0  0  0
  -23.4968  -28.2975   14.7811 C   0  0  2  0  0  0  0  0  0  0  0  0
  -21.8550  -26.9929   19.0726 C   0  0  0  0  0  0  0  0  0  0  0  0
  -26.2647  -12.0199   21.0356 N   0  0  0  0  0  0  0  0  0  0  0  0
  -26.2986  -13.1431   20.2986 N   0  0  0  0  0  0  0  0  0  0  0  0
  -25.0938  -28.3320   19.8355 N   0  0  0  0  0  0  0  0  0  0  0  0
  -29.6758  -14.8640   19.8332 N   0  0  0  0  0  0  0  0  0  0  0  0
  -24.9629  -14.9473   19.5425 N   0  0  0  0  0  0  0  0  0  0  0  0
  -22.0914  -12.4891   22.0140 N   0  0  0  0  0  0  0  0  0  0  0  0
  -29.1770  -17.1691   19.8384 N   0  0  0  0  0  0  0  0  0  0  0  0
  -24.5408  -29.4954   22.9517 N   0  0  0  0  0  0  0  0  0  0  0  0
  -23.0753  -28.0638   17.1314 N   0  0  0  0  0  0  0  0  0  0  0  0
  -24.7133  -28.3622   13.9228 N   0  3  0  0  0  0  0  0  0  0  0  0
  -22.2936  -14.3687   20.7159 O   0  0  0  0  0  0  0  0  0  0  0  0
  -25.8125  -27.5975   22.5008 O   0  0  0  0  0  0  0  0  0  0  0  0
  -23.1943  -29.6461   19.5170 O   0  0  0  0  0  0  0  0  0  0  0  0
  -24.5992  -26.6277   16.1352 O   0  0  0  0  0  0  0  0  0  0  0  0
  -31.1575  -16.3850   18.9194 O   0  0  0  0  0  0  0  0  0  0  0  0
  -23.2797   -7.7611   24.7101 O   0  0  0  0  0  0  0  0  0  0  0  0
  -30.3146  -22.4523   21.2145 O   0  0  0  0  0  0  0  0  0  0  0  0
  -30.1134  -24.7508   19.6598 O   0  0  0  0  0  0  0  0  0  1  0  0
  -18.4560   -5.3831   23.4933 F   0  0  0  0  0  0  0  0  0  0  0  0
  -23.1406   -5.0696   24.0944 F   0  0  0  0  0  0  0  0  0  0  0  0
  1  2  1  0  0  0  0
  1  5  2  0  0  0  0
  2  6  2  0  0  0  0
  3 10  2  0  0  0  0
  3 19  1  0  0  0  0
  4 11  1  0  0  0  0
  4 19  2  0  0  0  0
  5 21  1  0  0  0  0
  6 23  1  0  0  0  0
  7 12  2  0  0  0  0
  7 22  1  0  0  0  0
  8 13  2  0  0  0  0
  8 25  1  0  0  0  0
  9 14  1  0  0  0  0
  9 25  2  0  0  0  0
 10 26  1  0  0  0  0
 11 26  2  0  0  0  0
 12 28  1  0  0  0  0
 13 27  1  0  0  0  0
 14 27  2  0  0  0  0
 15 16  2  0  0  0  0
 15 29  1  0  0  0  0
 16 30  1  0  0  0  0
 17 24  1  0  0  0  0
 17 28  2  0  0  0  0
 18 30  2  0  0  0  0
 18 31  1  0  0  0  0
 19 32  1  0  0  0  0
 20 32  1  0  0  0  0
 20 33  2  0  0  0  0
 20 34  1  0  0  0  0
 21 23  2  0  0  0  0
 21 39  1  0  0  0  0
 22 24  2  0  0  0  0
 22 40  1  0  0  0  0
 23 48  1  0  0  0  0
 24 41  1  0  0  0  0
 25 67  1  0  0  0  0
 26 76  1  0  0  0  0
 27 77  1  0  0  0  0
 28 78  1  0  0  0  0
 29 31  2  0  0  0  0
 29 76  1  0  0  0  0
 30 79  1  0  0  0  0
 31 80  1  0  0  0  0
 32 61  2  0  0  0  0
 33 62  1  0  0  0  0
 33 65  1  0  0  0  0
 34 66  1  0  0  0  0
 34 71  2  0  0  0  0
 35 49  1  0  0  0  0
 35 68  1  0  0  0  0
 35 72  2  0  0  0  0
 36 58  1  0  0  0  0
 36 63  1  0  0  0  0
 36 73  2  0  0  0  0
 37 59  1  0  0  0  0
 37 69  1  0  0  0  0
 37 74  2  0  0  0  0
 38 64  1  0  0  0  0
 38 67  1  0  0  0  0
 38 75  2  0  0  0  0
 39 42  1  0  0  0  0
 40 49  1  0  0  0  0
 41 63  1  0  0  0  0
 42 44  1  0  0  0  0
 43 45  1  0  0  0  0
 43 46  1  0  0  0  0
 44 48  1  0  0  0  0
 45 50  1  0  0  0  0
 46 64  1  0  0  0  0
 47 50  1  0  0  0  0
 47 64  1  0  0  0  0
 48 68  1  0  0  0  0
 49 63  1  0  0  0  0
 50 62  1  0  0  0  0
 51 59  1  0  0  0  0
 52 60  1  0  0  0  0
 53 60  1  0  0  0  0
 54 60  1  0  0  0  0
 55 70  1  0  0  0  0
 56 57  1  0  0  0  0
 56 77  1  0  0  0  0
 57 78  1  0  0  0  0
 58 60  1  0  0  0  0
 58 69  1  0  0  0  0
 59 70  1  0  0  0  0
 61 62  1  0  0  0  0
M  CHG  1  70   1
M  ISO  4  38 100  57 101  67 100  78 101
M  END
> <Batch ID>
0001

> <Smiles>
CNC(C)C(=O)NC(C(=O)N1Cc2cc([101O:1][101CH2:1]COc3ccc([100NH:0][100C:0](=O)N4CCCC(n5nc(-c6ccc(Oc7ccc(F)cc7F)cc6)c(C(N)=O)c5N)C4)cc3)ccc2CC1C(=O)NC1CCCc2ccccc21)C(C)(C)C

> <Shape>
0.290

> <Color>
0.124

> <Negative vol penalty>
0.000

$$$$

  -OEChem-04042320143D

 81 89  0     1  0  0  0  0  0999 V2000
  -21.0027   -7.5050   23.6390 C   0  0  0  0  0  0  0  0  0  0  0  0
  -21.8937   -8.1427   24.4963 C   0  0  0  0  0  0  0  0  0  0  0  0
  -22.0736  -28.0730   21.0658 C   0  0  0  0  0  0  0  0  0  0  0  0
  -23.3308  -27.5675   23.0660 C   0  0  0  0  0  0  0  0  0  0  0  0
  -21.0970   -7.7054   22.2625 C   0  0  0  0  0  0  0  0  0  0  0  0
  -22.8803   -8.9803   23.9774 C   0  0  0  0  0  0  0  0  0  0  0  0
  -26.5541  -14.9242   25.5555 C   0  0  0  0  0  0  0  0  0  0  0  0
  -30.8429  -20.5191   21.9178 C   0  0  0  0  0  0  0  0  0  0  0  0
  -30.6715  -22.1352   23.7055 C   0  0  0  0  0  0  0  0  0  0  0  0
  -30.2599  -21.4308   21.0377 C   0  0  0  0  0  0  0  0  0  0  0  0
  -30.0885  -23.0469   22.8253 C   0  0  0  0  0  0  0  0  0  0  0  0
  -20.8840  -27.9638   21.7859 C   0  0  0  0  0  0  0  0  0  0  0  0
  -22.1412  -27.4583   23.7861 C   0  0  0  0  0  0  0  0  0  0  0  0
  -27.8656  -15.3908   25.6340 C   0  0  0  0  0  0  0  0  0  0  0  0
  -19.0896  -29.8606   23.9342 C   0  0  0  0  0  0  0  0  0  0  0  0
  -18.1210  -30.8450   23.7389 C   0  0  0  0  0  0  0  0  0  0  0  0
  -27.8835  -15.7245   23.2450 C   0  0  0  0  0  0  0  0  0  0  0  0
  -16.5622  -29.1611   22.9828 C   0  0  0  0  0  0  0  0  0  0  0  0
  -23.2970  -27.8748   21.7059 C   0  0  0  0  0  0  0  0  0  0  0  0
  -25.3002  -29.1468   20.7694 C   0  0  0  0  0  0  0  0  0  0  0  0
  -22.0792   -8.5535   21.7271 C   0  0  0  0  0  0  0  0  0  0  0  0
  -25.9002  -14.8438   24.3176 C   0  0  0  0  0  0  0  0  0  0  0  0
  -22.9888   -9.1912   22.5923 C   0  0  0  0  0  0  0  0  0  0  0  0
  -26.5629  -15.2589   23.1538 C   0  0  0  0  0  0  0  0  0  0  0  0
  -31.0486  -20.8713   23.2517 C   0  0  0  0  0  0  0  0  0  0  0  0
  -29.8828  -22.6947   21.4914 C   0  0  0  0  0  0  0  0  0  0  0  0
  -20.9178  -27.6565   23.1460 C   0  0  0  0  0  0  0  0  0  0  0  0
  -28.5314  -15.7884   24.4783 C   0  0  0  0  0  0  0  0  0  0  0  0
  -18.7946  -28.5264   23.6538 C   0  0  0  0  0  0  0  0  0  0  0  0
  -16.8572  -30.4953   23.2632 C   0  0  0  0  0  0  0  0  0  0  0  0
  -17.5309  -28.1766   23.1782 C   0  0  0  0  0  0  0  0  0  0  0  0
  -24.5262  -27.9869   20.9624 C   0  0  0  0  0  0  0  0  0  0  0  0
  -26.3584  -28.7293   19.9998 C   0  0  0  0  0  0  0  0  0  0  0  0
  -25.0821  -30.4823   21.2435 C   0  0  0  0  0  0  0  0  0  0  0  0
  -24.6642  -12.4845   22.5827 C   0  0  0  0  0  0  0  0  0  0  0  0
  -23.6464  -14.9237   20.7021 C   0  0  0  0  0  0  0  0  0  0  0  0
  -24.0625  -18.1467   19.6600 C   0  0  0  0  0  0  0  0  0  0  0  0
  -29.0166  -23.4315   19.2435 C   0  0  0  0  0  0  0  0  0  0  0  0
  -22.1720   -8.7020   20.2291 C   0  0  0  0  0  0  0  0  0  0  0  0
  -24.4763  -14.3633   24.2533 C   0  0  0  0  0  0  0  0  0  0  0  0
  -25.8983  -15.2113   21.8030 C   0  0  0  0  0  0  0  0  0  0  0  0
  -23.0091   -9.8993   19.7864 C   0  0  0  0  0  0  0  0  0  0  0  0
  -27.5350  -25.4511   16.7130 C   0  0  0  0  0  0  0  0  0  0  0  0
  -24.3179   -9.9540   20.5681 C   0  0  0  0  0  0  0  0  0  0  0  0
  -26.6705  -26.4400   17.4983 C   0  0  0  0  0  0  0  0  0  0  0  0
  -27.5333  -24.0638   17.3527 C   0  0  0  0  0  0  0  0  0  0  0  0
  -27.0235  -25.0256   19.5628 C   0  0  0  0  0  0  0  0  0  0  0  0
  -24.0570  -10.1269   22.0693 C   0  0  1  0  0  0  0  0  0  0  0  0
  -24.0842  -13.8394   22.8751 C   0  0  1  0  0  0  0  0  0  0  0  0
  -27.0461  -26.4534   18.9931 C   0  0  2  0  0  0  0  0  0  0  0  0
  -23.0993  -19.8483   18.0871 C   0  0  0  0  0  0  0  0  0  0  0  0
  -24.9775  -13.5023   18.3531 C   0  0  0  0  0  0  0  0  0  0  0  0
  -24.8202  -15.6405   17.0603 C   0  0  0  0  0  0  0  0  0  0  0  0
  -22.7427  -14.4998   17.8382 C   0  0  0  0  0  0  0  0  0  0  0  0
  -23.3940  -19.9888   21.8778 C   0  0  0  0  0  0  0  0  0  0  0  0
  -31.6757  -19.8905   24.1984 C   0  0  0  0  0  0  0  0  0  0  0  0
  -30.1982  -16.9031   25.7570 C   0  0  0  0  0  0  0  0  0  1  0  0
  -31.2604  -17.9370   25.4370 C   0  0  0  0  0  0  0  0  0  0  0  0
  -24.2169  -15.6745   19.5231 C   0  0  1  0  0  0  0  0  0  0  0  0
  -23.0758  -19.2893   19.5012 C   0  0  2  0  0  0  0  0  0  0  0  0
  -24.2028  -14.8285   18.2187 C   0  0  0  0  0  0  0  0  0  0  0  0
  -25.0482  -26.9131   20.3636 N   0  0  0  0  0  0  0  0  0  0  0  0
  -26.1614  -27.3967   19.7866 N   0  0  0  0  0  0  0  0  0  0  0  0
  -24.5076  -14.7281   21.7911 N   0  0  0  0  0  0  0  0  0  0  0  0
  -27.9024  -24.1543   18.7671 N   0  0  0  0  0  0  0  0  0  0  0  0
  -27.4288  -29.3759   19.4912 N   0  0  0  0  0  0  0  0  0  0  0  0
  -23.9449  -30.7376   22.0218 N   0  0  0  0  0  0  0  0  0  0  0  0
  -29.2908  -23.6211   20.5975 N   0  0  0  0  0  0  0  0  0  0  0  0
  -23.7171  -11.5014   22.3682 N   0  0  0  0  0  0  0  0  0  0  0  0
  -23.4681  -16.9234   19.4335 N   0  0  0  0  0  0  0  0  0  0  0  0
  -23.4038  -20.3924   20.4481 N   0  3  0  0  0  0  0  0  0  0  0  0
  -25.8636  -31.4248   20.9707 O   0  0  0  0  0  0  0  0  0  0  0  0
  -25.8809  -12.3419   22.5524 O   0  0  0  0  0  0  0  0  0  0  0  0
  -22.4776  -14.5317   20.6613 O   0  0  0  0  0  0  0  0  0  0  0  0
  -25.2434  -18.3221   19.9518 O   0  0  0  0  0  0  0  0  0  0  0  0
  -29.6950  -22.7195   18.4986 O   0  0  0  0  0  0  0  0  0  0  0  0
  -19.7572  -27.5501   23.8491 O   0  0  0  0  0  0  0  0  0  0  0  0
  -29.8117  -16.2436   24.5520 O   0  0  0  0  0  0  0  0  0  1  0  0
  -30.7185  -18.8971   24.5383 O   0  0  0  0  0  0  0  0  0  0  0  0
  -15.9266  -31.4405   23.0771 F   0  0  0  0  0  0  0  0  0  0  0  0
  -17.2412  -26.8964   22.9081 F   0  0  0  0  0  0  0  0  0  0  0  0
  1  2  1  0  0  0  0
  1  5  2  0  0  0  0
  2  6  2  0  0  0  0
  3 12  2  0  0  0  0
  3 19  1  0  0  0  0
  4 13  1  0  0  0  0
  4 19  2  0  0  0  0
  5 21  1  0  0  0  0
  6 23  1  0  0  0  0
  7 14  2  0  0  0  0
  7 22  1  0  0  0  0
  8 10  2  0  0  0  0
  8 25  1  0  0  0  0
  9 11  1  0  0  0  0
  9 25  2  0  0  0  0
 10 26  1  0  0  0  0
 11 26  2  0  0  0  0
 12 27  1  0  0  0  0
 13 27  2  0  0  0  0
 14 28  1  0  0  0  0
 15 16  2  0  0  0  0
 15 29  1  0  0  0  0
 16 30  1  0  0  0  0
 17 24  1  0  0  0  0
 17 28  2  0  0  0  0
 18 30  2  0  0  0  0
 18 31  1  0  0  0  0
 19 32  1  0  0  0  0
 20 32  1  0  0  0  0
 20 33  2  0  0  0  0
 20 34  1  0  0  0  0
 21 23  2  0  0  0  0
 21 39  1  0  0  0  0
 22 24  2  0  0  0  0
 22 40  1  0  0  0  0
 23 48  1  0  0  0  0
 24 41  1  0  0  0  0
 25 56  1  0  0  0  0
 26 68  1  0  0  0  0
 27 77  1  0  0  0  0
 28 78  1  0  0  0  0
 29 31  2  0  0  0  0
 29 77  1  0  0  0  0
 30 80  1  0  0  0  0
 31 81  1  0  0  0  0
 32 62  2  0  0  0  0
 33 63  1  0  0  0  0
 33 66  1  0  0  0  0
 34 67  1  0  0  0  0
 34 72  2  0  0  0  0
 35 49  1  0  0  0  0
 35 69  1  0  0  0  0
 35 73  2  0  0  0  0
 36 59  1  0  0  0  0
 36 64  1  0  0  0  0
 36 74  2  0  0  0  0
 37 60  1  0  0  0  0
 37 70  1  0  0  0  0
 37 75  2  0  0  0  0
 38 65  1  0  0  0  0
 38 68  1  0  0  0  0
 38 76  2  0  0  0  0
 39 42  1  0  0  0  0
 40 49  1  0  0  0  0
 41 64  1  0  0  0  0
 42 44  1  0  0  0  0
 43 45  1  0  0  0  0
 43 46  1  0  0  0  0
 44 48  1  0  0  0  0
 45 50  1  0  0  0  0
 46 65  1  0  0  0  0
 47 50  1  0  0  0  0
 47 65  1  0  0  0  0
 48 69  1  0  0  0  0
 49 64  1  0  0  0  0
 50 63  1  0  0  0  0
 51 60  1  0  0  0  0
 52 61  1  0  0  0  0
 53 61  1  0  0  0  0
 54 61  1  0  0  0  0
 55 71  1  0  0  0  0
 56 79  1  0  0  0  0
 57 58  1  0  0  0  0
 57 78  1  0  0  0  0
 58 79  1  0  0  0  0
 59 61  1  0  0  0  0
 59 70  1  0  0  0  0
 60 71  1  0  0  0  0
 62 63  1  0  0  0  0
M  CHG  1  71   1
M  ISO  4  38 100  57 101  68 100  78 101
M  END
> <Batch ID>
0001

> <Smiles>
CNC(C)C(=O)NC(C(=O)N1Cc2cc([101O:1][101CH2:1]COCc3ccc([100NH:0][100C:0](=O)N4CCCC(n5nc(-c6ccc(Oc7ccc(F)cc7F)cc6)c(C(N)=O)c5N)C4)cc3)ccc2CC1C(=O)NC1CCCc2ccccc21)C(C)(C)C

> <Shape>
0.217

> <Color>
0.081

> <Negative vol penalty>
0.000

$$$$

  -OEChem-04042320143D

 78 86  0     1  0  0  0  0  0999 V2000
  -26.7739  -32.6995   28.1675 C   0  0  0  0  0  0  0  0  0  0  0  0
  -27.2042  -31.6974   27.3039 C   0  0  0  0  0  0  0  0  0  0  0  0
  -27.9925  -22.3141   16.9447 C   0  0  0  0  0  0  0  0  0  0  0  0
  -26.5064  -12.7174   21.6170 C   0  0  0  0  0  0  0  0  0  0  0  0
  -26.0125  -13.7464   19.4877 C   0  0  0  0  0  0  0  0  0  0  0  0
  -25.4236  -33.0436   28.2165 C   0  0  0  0  0  0  0  0  0  0  0  0
  -26.2843  -31.0379   26.4894 C   0  0  0  0  0  0  0  0  0  0  0  0
  -27.2352  -28.9309   20.8182 C   0  0  0  0  0  0  0  0  0  0  0  0
  -27.8815  -23.5924   17.4918 C   0  0  0  0  0  0  0  0  0  0  0  0
  -28.5263  -21.2739   17.7054 C   0  0  0  0  0  0  0  0  0  0  0  0
  -25.2502  -12.1112   21.6155 C   0  0  0  0  0  0  0  0  0  0  0  0
  -24.7563  -13.1402   19.4860 C   0  0  0  0  0  0  0  0  0  0  0  0
  -27.5382  -27.6615   20.3277 C   0  0  0  0  0  0  0  0  0  0  0  0
  -23.7752   -9.4401   20.1584 C   0  0  0  0  0  0  0  0  0  0  0  0
  -23.7052   -8.0929   20.5128 C   0  0  0  0  0  0  0  0  0  0  0  0
  -25.1982  -27.2824   19.8806 C   0  0  0  0  0  0  0  0  0  0  0  0
  -28.8381  -22.7902   19.5602 C   0  0  0  0  0  0  0  0  0  0  0  0
  -22.2435   -8.6529   22.3531 C   0  0  0  0  0  0  0  0  0  0  0  0
  -26.8875  -13.5351   20.5531 C   0  0  0  0  0  0  0  0  0  0  0  0
  -29.3811  -13.6417   20.0253 C   0  0  0  0  0  0  0  0  0  0  0  0
  -24.4882  -32.3946   27.3953 C   0  0  0  0  0  0  0  0  0  0  0  0
  -25.9080  -29.3822   20.8538 C   0  0  0  0  0  0  0  0  0  0  0  0
  -24.9201  -31.3726   26.5285 C   0  0  0  0  0  0  0  0  0  0  0  0
  -24.8813  -28.5589   20.3697 C   0  0  0  0  0  0  0  0  0  0  0  0
  -28.3043  -23.8305   18.7995 C   0  0  0  0  0  0  0  0  0  0  0  0
  -28.9491  -21.5119   19.0131 C   0  0  0  0  0  0  0  0  0  0  0  0
  -24.3751  -12.3225   20.5500 C   0  0  0  0  0  0  0  0  0  0  0  0
  -26.5193  -26.8359   19.8615 C   0  0  0  0  0  0  0  0  0  0  0  0
  -23.0795  -10.3938   20.9015 C   0  0  0  0  0  0  0  0  0  0  0  0
  -22.9393   -7.6992   21.6101 C   0  0  0  0  0  0  0  0  0  0  0  0
  -22.3136  -10.0001   21.9988 C   0  0  0  0  0  0  0  0  0  0  0  0
  -28.1848  -14.1621   20.5545 C   0  0  0  0  0  0  0  0  0  0  0  0
  -30.3189  -14.6133   20.2763 C   0  0  0  0  0  0  0  0  0  0  0  0
  -29.6229  -12.3918   19.3657 C   0  0  0  0  0  0  0  0  0  0  0  0
  -23.8999  -30.2656   23.1541 C   0  0  0  0  0  0  0  0  0  0  0  0
  -21.9913  -31.0484   20.6508 C   0  0  0  0  0  0  0  0  0  0  0  0
  -21.1684  -30.5681   17.3737 C   0  0  0  0  0  0  0  0  0  0  0  0
  -29.9572  -20.5208   21.0983 C   0  0  0  0  0  0  0  0  0  0  0  0
  -23.0321  -32.7683   27.5176 C   0  0  0  0  0  0  0  0  0  0  0  0
  -25.6007  -30.7644   21.3612 C   0  0  0  0  0  0  0  0  0  0  0  0
  -23.4424  -29.0040   20.3674 C   0  0  0  0  0  0  0  0  0  0  0  0
  -22.1777  -32.2795   26.3509 C   0  0  0  0  0  0  0  0  0  0  0  0
  -31.3281  -18.1363   23.3592 C   0  0  0  0  0  0  0  0  0  0  0  0
  -22.4919  -30.8209   26.0335 C   0  0  0  0  0  0  0  0  0  0  0  0
  -30.7915  -16.7986   22.8447 C   0  0  0  0  0  0  0  0  0  0  0  0
  -30.2992  -19.2555   23.2095 C   0  0  0  0  0  0  0  0  0  0  0  0
  -29.2062  -18.0732   21.3449 C   0  0  0  0  0  0  0  0  0  0  0  0
  -23.9563  -30.6512   25.6115 C   0  0  1  0  0  0  0  0  0  0  0  0
  -24.1568  -30.9225   21.8274 C   0  0  1  0  0  0  0  0  0  0  0  0
  -30.2305  -16.9288   21.4151 C   0  0  2  0  0  0  0  0  0  0  0  0
  -19.5398  -31.3237   15.6205 C   0  0  0  0  0  0  0  0  0  0  0  0
  -19.8198  -29.3285   21.9301 C   0  0  0  0  0  0  0  0  0  0  0  0
  -18.6126  -29.3443   19.7367 C   0  0  0  0  0  0  0  0  0  0  0  0
  -19.0056  -31.4839   20.9576 C   0  0  0  0  0  0  0  0  0  0  0  0
  -23.3324  -31.6255   15.6538 C   0  0  0  0  0  0  0  0  0  0  0  0
  -28.1847  -25.2057   19.3875 C   0  0  0  0  0  0  0  0  0  1  0  0
  -20.9499  -30.3236   19.8328 C   0  0  1  0  0  0  0  0  0  0  0  0
  -20.9071  -31.5505   16.2463 C   0  0  2  0  0  0  0  0  0  0  0  0
  -19.6238  -30.1106   20.6160 C   0  0  0  0  0  0  0  0  0  0  0  0
  -28.3453  -15.3704   21.1006 N   0  0  0  0  0  0  0  0  0  0  0  0
  -29.6533  -15.6173   20.9160 N   0  0  0  0  0  0  0  0  0  0  0  0
  -23.1921  -30.3615   20.8793 N   0  0  0  0  0  0  0  0  0  0  0  0
  -29.8156  -19.3219   21.8287 N   0  0  0  0  0  0  0  0  0  0  0  0
  -31.6396  -14.6981   20.0102 N   0  0  0  0  0  0  0  0  0  0  0  0
  -28.5477  -11.5102   19.1899 N   0  0  0  0  0  0  0  0  0  0  0  0
  -29.4906  -20.4548   19.7858 N   0  0  0  0  0  0  0  0  0  0  0  0
  -24.1410  -31.0823   24.2423 N   0  0  0  0  0  0  0  0  0  0  0  0
  -20.7987  -31.0848   18.5974 N   0  0  0  0  0  0  0  0  0  0  0  0
  -21.9408  -31.4053   15.1827 N   0  3  0  0  0  0  0  0  0  0  0  0
  -30.7622  -12.0595   18.9593 O   0  0  0  0  0  0  0  0  0  0  0  0
  -23.5105  -29.1042   23.1878 O   0  0  0  0  0  0  0  0  0  0  0  0
  -21.7511  -32.1850   21.0655 O   0  0  0  0  0  0  0  0  0  0  0  0
  -21.6488  -29.4523   17.1870 O   0  0  0  0  0  0  0  0  0  0  0  0
  -30.4803  -21.5233   21.5915 O   0  0  0  0  0  0  0  0  0  0  0  0
  -23.1494  -11.7309   20.5480 O   0  0  0  0  0  0  0  0  0  0  0  0
  -26.8122  -25.5962   19.3828 O   0  0  0  0  0  0  0  0  0  1  0  0
  -22.8709   -6.4052   21.9493 F   0  0  0  0  0  0  0  0  0  0  0  0
  -21.6420  -10.9116   22.7158 F   0  0  0  0  0  0  0  0  0  0  0  0
  1  2  1  0  0  0  0
  1  6  2  0  0  0  0
  2  7  2  0  0  0  0
  3  9  2  0  0  0  0
  3 10  1  0  0  0  0
  4 11  2  0  0  0  0
  4 19  1  0  0  0  0
  5 12  1  0  0  0  0
  5 19  2  0  0  0  0
  6 21  1  0  0  0  0
  7 23  1  0  0  0  0
  8 13  2  0  0  0  0
  8 22  1  0  0  0  0
  9 25  1  0  0  0  0
 10 26  2  0  0  0  0
 11 27  1  0  0  0  0
 12 27  2  0  0  0  0
 13 28  1  0  0  0  0
 14 15  2  0  0  0  0
 14 29  1  0  0  0  0
 15 30  1  0  0  0  0
 16 24  1  0  0  0  0
 16 28  2  0  0  0  0
 17 25  2  0  0  0  0
 17 26  1  0  0  0  0
 18 30  2  0  0  0  0
 18 31  1  0  0  0  0
 19 32  1  0  0  0  0
 20 32  1  0  0  0  0
 20 33  2  0  0  0  0
 20 34  1  0  0  0  0
 21 23  2  0  0  0  0
 21 39  1  0  0  0  0
 22 24  2  0  0  0  0
 22 40  1  0  0  0  0
 23 48  1  0  0  0  0
 24 41  1  0  0  0  0
 25 56  1  0  0  0  0
 26 66  1  0  0  0  0
 27 75  1  0  0  0  0
 28 76  1  0  0  0  0
 29 31  2  0  0  0  0
 29 75  1  0  0  0  0
 30 77  1  0  0  0  0
 31 78  1  0  0  0  0
 32 60  2  0  0  0  0
 33 61  1  0  0  0  0
 33 64  1  0  0  0  0
 34 65  1  0  0  0  0
 34 70  2  0  0  0  0
 35 49  1  0  0  0  0
 35 67  1  0  0  0  0
 35 71  2  0  0  0  0
 36 57  1  0  0  0  0
 36 62  1  0  0  0  0
 36 72  2  0  0  0  0
 37 58  1  0  0  0  0
 37 68  1  0  0  0  0
 37 73  2  0  0  0  0
 38 63  1  0  0  0  0
 38 66  1  0  0  0  0
 38 74  2  0  0  0  0
 39 42  1  0  0  0  0
 40 49  1  0  0  0  0
 41 62  1  0  0  0  0
 42 44  1  0  0  0  0
 43 45  1  0  0  0  0
 43 46  1  0  0  0  0
 44 48  1  0  0  0  0
 45 50  1  0  0  0  0
 46 63  1  0  0  0  0
 47 50  1  0  0  0  0
 47 63  1  0  0  0  0
 48 67  1  0  0  0  0
 49 62  1  0  0  0  0
 50 61  1  0  0  0  0
 51 58  1  0  0  0  0
 52 59  1  0  0  0  0
 53 59  1  0  0  0  0
 54 59  1  0  0  0  0
 55 69  1  0  0  0  0
 56 76  1  0  0  0  0
 57 59  1  0  0  0  0
 57 68  1  0  0  0  0
 58 69  1  0  0  0  0
 60 61  1  0  0  0  0
M  CHG  1  69   1
M  ISO  4  38 100  56 101  66 100  76 101
M  END
> <Batch ID>
0001

> <Smiles>
CNC(C)C(=O)NC(C(=O)N1Cc2cc([101O:1][101CH2:1]c3cccc([100NH:0][100C:0](=O)N4CCCC(n5nc(-c6ccc(Oc7ccc(F)cc7F)cc6)c(C(N)=O)c5N)C4)c3)ccc2CC1C(=O)NC1CCCc2ccccc21)C(C)(C)C

> <Shape>
0.294

> <Color>
0.112

> <Negative vol penalty>
0.000

$$$$

  -OEChem-04042320143D

 89 98  0     1  0  0  0  0  0999 V2000
  -30.7938  -35.6107   26.0305 C   0  0  0  0  0  0  0  0  0  0  0  0
  -30.9933  -34.5329   25.1737 C   0  0  0  0  0  0  0  0  0  0  0  0
  -32.5223  -18.8386   21.4405 C   0  0  0  0  0  0  0  0  0  0  0  0
  -24.2111  -11.4473   23.9283 C   0  0  0  0  0  0  0  0  0  0  0  0
  -24.0954  -13.8587   24.0225 C   0  0  0  0  0  0  0  0  0  0  0  0
  -31.6051  -19.8954   21.5207 C   0  0  0  0  0  0  0  0  0  0  0  0
  -29.6958  -35.6227   26.8897 C   0  0  0  0  0  0  0  0  0  0  0  0
  -30.0955  -33.4659   25.1765 C   0  0  0  0  0  0  0  0  0  0  0  0
  -28.3761  -30.0886   20.3658 C   0  0  0  0  0  0  0  0  0  0  0  0
  -32.1100  -17.5621   21.0456 C   0  0  0  0  0  0  0  0  0  0  0  0
  -23.7349  -11.3732   25.2372 C   0  0  0  0  0  0  0  0  0  0  0  0
  -23.6191  -13.7846   25.3315 C   0  0  0  0  0  0  0  0  0  0  0  0
  -28.7896  -28.8415   19.8995 C   0  0  0  0  0  0  0  0  0  0  0  0
  -20.6863  -13.1368   26.8804 C   0  0  0  0  0  0  0  0  0  0  0  0
  -19.6027  -13.9464   27.2209 C   0  0  0  0  0  0  0  0  0  0  0  0
  -26.9450  -27.8037   21.0567 C   0  0  0  0  0  0  0  0  0  0  0  0
  -20.9445  -15.0307   28.9124 C   0  0  0  0  0  0  0  0  0  0  0  0
  -24.3914  -12.6900   23.3209 C   0  0  0  0  0  0  0  0  0  0  0  0
  -30.2608  -19.6877   21.2135 C   0  0  0  0  0  0  0  0  0  0  0  0
  -24.1211  -12.7770   20.7858 C   0  0  0  0  0  0  0  0  0  0  0  0
  -28.7788  -34.5599   26.8962 C   0  0  0  0  0  0  0  0  0  0  0  0
  -27.2483  -30.2015   21.1915 C   0  0  0  0  0  0  0  0  0  0  0  0
  -28.9850  -33.4632   26.0376 C   0  0  0  0  0  0  0  0  0  0  0  0
  -26.5177  -29.0536   21.5302 C   0  0  0  0  0  0  0  0  0  0  0  0
  -29.8622  -18.4203   20.8161 C   0  0  0  0  0  0  0  0  0  0  0  0
  -30.7744  -17.3684   20.7225 C   0  0  0  0  0  0  0  0  0  0  0  0
  -23.4389  -12.5419   25.9388 C   0  0  0  0  0  0  0  0  0  0  0  0
  -28.0757  -27.6985   20.2472 C   0  0  0  0  0  0  0  0  0  0  0  0
  -21.8990  -13.2740   27.5559 C   0  0  0  0  0  0  0  0  0  0  0  0
  -19.7319  -14.8934   28.2369 C   0  0  0  0  0  0  0  0  0  0  0  0
  -22.0281  -14.2210   28.5718 C   0  0  0  0  0  0  0  0  0  0  0  0
  -24.8838  -12.7672   21.9690 C   0  0  0  0  0  0  0  0  0  0  0  0
  -25.0511  -12.8619   19.7786 C   0  0  0  0  0  0  0  0  0  0  0  0
  -26.7776  -17.9208   17.3310 C   0  0  0  0  0  0  0  0  0  0  0  0
  -27.0793  -16.8734   18.1065 C   0  0  0  0  0  0  0  0  0  0  0  0
  -29.3131  -20.7851   21.3247 C   0  0  0  0  0  0  0  0  0  0  0  0
  -22.6992  -12.7151   20.6126 C   0  0  0  0  0  0  0  0  0  0  0  0
  -26.7344  -31.2124   24.1610 C   0  0  0  0  0  0  0  0  0  0  0  0
  -23.6238  -30.7553   23.3626 C   0  0  0  0  0  0  0  0  0  0  0  0
  -29.2320  -24.2627   20.3955 C   0  0  0  0  0  0  0  0  0  0  0  0
  -21.3441  -29.1606   21.3860 C   0  0  0  0  0  0  0  0  0  0  0  0
  -30.7620  -14.9755   20.0344 C   0  0  0  0  0  0  0  0  0  0  0  0
  -27.6330  -34.5956   27.8763 C   0  0  0  0  0  0  0  0  0  0  0  0
  -26.7997  -31.5571   21.6644 C   0  0  0  0  0  0  0  0  0  0  0  0
  -28.4710  -17.9730   20.5003 C   0  0  0  0  0  0  0  0  0  0  0  0
  -25.2881  -29.1234   22.3973 C   0  0  0  0  0  0  0  0  0  0  0  0
  -26.5225  -33.5999   27.5517 C   0  0  0  0  0  0  0  0  0  0  0  0
  -29.5802  -11.7207   18.7395 C   0  0  0  0  0  0  0  0  0  0  0  0
  -27.1113  -32.2305   27.2275 C   0  0  0  0  0  0  0  0  0  0  0  0
  -28.1953  -11.6012   19.3772 C   0  0  0  0  0  0  0  0  0  0  0  0
  -30.5321  -12.5528   19.5946 C   0  0  0  0  0  0  0  0  0  0  0  0
  -28.6312  -13.7628   20.6018 C   0  0  0  0  0  0  0  0  0  0  0  0
  -28.0195  -32.2986   25.9938 C   0  0  1  0  0  0  0  0  0  0  0  0
  -25.9357  -31.4960   22.9203 C   0  0  1  0  0  0  0  0  0  0  0  0
  -27.6290  -12.9879   19.7349 C   0  0  2  0  0  0  0  0  0  0  0  0
  -28.7038  -16.5413   19.9712 C   0  0  1  0  0  0  0  0  0  0  0  0
  -18.8734  -28.9632   20.9936 C   0  0  0  0  0  0  0  0  0  0  0  0
  -23.3687  -29.0177   25.8578 C   0  0  0  0  0  0  0  0  0  0  0  0
  -21.2334  -28.1068   24.9203 C   0  0  0  0  0  0  0  0  0  0  0  0
  -21.4271  -30.5384   25.4426 C   0  0  0  0  0  0  0  0  0  0  0  0
  -21.5884  -30.1542   18.6090 C   0  0  0  0  0  0  0  0  0  0  0  0
  -28.4765  -16.4736   18.4576 C   0  0  0  0  0  0  0  0  0  0  0  0
  -28.2026  -25.3511   20.6073 C   0  0  0  0  0  0  0  0  0  1  0  0
  -22.6580  -29.5979   23.4444 C   0  0  1  0  0  0  0  0  0  0  0  0
  -20.1549  -29.6807   20.5988 C   0  0  2  0  0  0  0  0  0  0  0  0
  -22.1961  -29.3133   24.9015 C   0  0  0  0  0  0  0  0  0  0  0  0
  -26.1971  -12.8398   21.7366 N   0  0  0  0  0  0  0  0  0  0  0  0
  -26.2669  -12.8960   20.3957 N   0  0  0  0  0  0  0  0  0  0  0  0
  -30.1177  -16.1855   20.3098 N   0  0  0  0  0  0  0  0  0  0  0  0
  -24.8932  -30.4708   22.8399 N   0  0  0  0  0  0  0  0  0  0  0  0
  -29.9381  -13.8431   19.9402 N   0  0  0  0  0  0  0  0  0  0  0  0
  -24.9392  -12.9098   18.4341 N   0  0  0  0  0  0  0  0  0  0  0  0
  -21.8901  -12.6309   21.7539 N   0  0  0  0  0  0  0  0  0  0  0  0
  -29.8087  -22.0707   21.1021 N   0  0  0  0  0  0  0  0  0  0  0  0
  -27.2264  -32.3434   24.7841 N   0  0  0  0  0  0  0  0  0  0  0  0
  -21.5705  -29.9078   22.5226 N   0  0  0  0  0  0  0  0  0  0  0  0
  -28.9654  -23.1523   21.1744 N   0  0  0  0  0  0  0  0  0  0  0  0
  -20.3738  -29.4822   19.1381 N   0  3  0  0  0  0  0  0  0  0  0  0
  -28.1177  -20.5656   21.5914 O   0  0  0  0  0  0  0  0  0  0  0  0
  -22.1628  -12.7173   19.4786 O   0  0  0  0  0  0  0  0  0  0  0  0
  -26.8913  -30.0534   24.5267 O   0  0  0  0  0  0  0  0  0  0  0  0
  -23.2626  -31.8722   23.7418 O   0  0  0  0  0  0  0  0  0  0  0  0
  -30.1778  -24.3821   19.6209 O   0  0  0  0  0  0  0  0  0  0  0  0
  -22.0038  -28.1865   21.0304 O   0  0  0  0  0  0  0  0  0  0  0  0
  -31.9782  -14.8940   19.8293 O   0  0  0  0  0  0  0  0  0  0  0  0
  -22.9740  -12.4700   27.2160 O   0  0  0  0  0  0  0  0  0  0  0  0
  -28.4818  -26.4672   19.7892 O   0  0  0  0  0  0  0  0  0  1  0  0
  -18.6917  -15.6718   28.5628 F   0  0  0  0  0  0  0  0  0  0  0  0
  -23.1910  -14.3583   29.2235 F   0  0  0  0  0  0  0  0  0  0  0  0
  1  2  1  0  0  0  0
  1  7  2  0  0  0  0
  2  8  2  0  0  0  0
  3  6  1  0  0  0  0
  3 10  2  0  0  0  0
  4 11  2  0  0  0  0
  4 18  1  0  0  0  0
  5 12  1  0  0  0  0
  5 18  2  0  0  0  0
  6 19  2  0  0  0  0
  7 21  1  0  0  0  0
  8 23  1  0  0  0  0
  9 13  2  0  0  0  0
  9 22  1  0  0  0  0
 10 26  1  0  0  0  0
 11 27  1  0  0  0  0
 12 27  2  0  0  0  0
 13 28  1  0  0  0  0
 14 15  2  0  0  0  0
 14 29  1  0  0  0  0
 15 30  1  0  0  0  0
 16 24  1  0  0  0  0
 16 28  2  0  0  0  0
 17 30  2  0  0  0  0
 17 31  1  0  0  0  0
 18 32  1  0  0  0  0
 19 25  1  0  0  0  0
 19 36  1  0  0  0  0
 20 32  1  0  0  0  0
 20 33  2  0  0  0  0
 20 37  1  0  0  0  0
 21 23  2  0  0  0  0
 21 43  1  0  0  0  0
 22 24  2  0  0  0  0
 22 44  1  0  0  0  0
 23 53  1  0  0  0  0
 24 46  1  0  0  0  0
 25 26  2  0  0  0  0
 25 45  1  0  0  0  0
 26 69  1  0  0  0  0
 27 86  1  0  0  0  0
 28 87  1  0  0  0  0
 29 31  2  0  0  0  0
 29 86  1  0  0  0  0
 30 88  1  0  0  0  0
 31 89  1  0  0  0  0
 32 67  2  0  0  0  0
 33 68  1  0  0  0  0
 33 72  1  0  0  0  0
 34 35  2  0  0  0  0
 35 62  1  0  0  0  0
 36 74  1  0  0  0  0
 36 79  2  0  0  0  0
 37 73  1  0  0  0  0
 37 80  2  0  0  0  0
 38 54  1  0  0  0  0
 38 75  1  0  0  0  0
 38 81  2  0  0  0  0
 39 64  1  0  0  0  0
 39 70  1  0  0  0  0
 39 82  2  0  0  0  0
 40 63  1  0  0  0  0
 40 77  1  0  0  0  0
 40 83  2  0  0  0  0
 41 65  1  0  0  0  0
 41 76  1  0  0  0  0
 41 84  2  0  0  0  0
 42 69  1  0  0  0  0
 42 71  1  0  0  0  0
 42 85  2  0  0  0  0
 43 47  1  0  0  0  0
 44 54  1  0  0  0  0
 45 56  1  0  0  0  0
 46 70  1  0  0  0  0
 47 49  1  0  0  0  0
 48 50  1  0  0  0  0
 48 51  1  0  0  0  0
 49 53  1  0  0  0  0
 50 55  1  0  0  0  0
 51 71  1  0  0  0  0
 52 55  1  0  0  0  0
 52 71  1  0  0  0  0
 53 75  1  0  0  0  0
 54 70  1  0  0  0  0
 55 68  1  0  0  0  0
 56 62  1  0  0  0  0
 56 69  1  0  0  0  0
 57 65  1  0  0  0  0
 58 66  1  0  0  0  0
 59 66  1  0  0  0  0
 60 66  1  0  0  0  0
 61 78  1  0  0  0  0
 63 87  1  0  0  0  0
 64 66  1  0  0  0  0
 64 76  1  0  0  0  0
 65 78  1  0  0  0  0
 67 68  1  0  0  0  0
 74 77  1  0  0  0  0
M  CHG  1  78   1
M  ISO  4  42 100  63 101  69 100  87 101
M  END
> <Batch ID>
0001

> <Smiles>
C=CCC1Cc2c(C(=O)NNC(=O)[101CH2:1][101O:1]c3ccc4c(c3)CN(C(=O)C(NC(=O)C(C)NC)C(C)(C)C)C(C(=O)NC3CCCc5ccccc53)C4)cccc2[100N:0]1[100C:0](=O)N1CCCC(n2nc(-c3ccc(Oc4ccc(F)cc4F)cc3)c(C(N)=O)c2N)C1

> <Shape>
0.272

> <Color>
0.124

> <Negative vol penalty>
0.000

$$$$

  -OEChem-04042320143D

 79 87  0     1  0  0  0  0  0999 V2000
  -17.4802  -23.1131   24.9873 C   0  0  0  0  0  0  0  0  0  0  0  0
  -18.8266  -22.9147   24.6988 C   0  0  0  0  0  0  0  0  0  0  0  0
  -31.2477  -19.4820   19.1739 C   0  0  0  0  0  0  0  0  0  0  0  0
  -23.0743   -9.8691   19.9414 C   0  0  0  0  0  0  0  0  0  0  0  0
  -23.8387   -9.8740   22.2333 C   0  0  0  0  0  0  0  0  0  0  0  0
  -16.5195  -22.2592   24.4472 C   0  0  0  0  0  0  0  0  0  0  0  0
  -19.2132  -21.8614   23.8707 C   0  0  0  0  0  0  0  0  0  0  0  0
  -23.8641  -21.8265   19.8866 C   0  0  0  0  0  0  0  0  0  0  0  0
  -31.5069  -18.4283   20.0502 C   0  0  0  0  0  0  0  0  0  0  0  0
  -30.0125  -20.1292   19.2073 C   0  0  0  0  0  0  0  0  0  0  0  0
  -22.3316   -8.7152   20.1915 C   0  0  0  0  0  0  0  0  0  0  0  0
  -23.0959   -8.7201   22.4834 C   0  0  0  0  0  0  0  0  0  0  0  0
  -25.1647  -21.3308   19.9673 C   0  0  0  0  0  0  0  0  0  0  0  0
  -21.1153   -5.9803   23.8209 C   0  0  0  0  0  0  0  0  0  0  0  0
  -20.3613   -5.9350   24.9935 C   0  0  0  0  0  0  0  0  0  0  0  0
  -24.4524  -19.3012   18.8753 C   0  0  0  0  0  0  0  0  0  0  0  0
  -29.2957  -18.6688   20.9934 C   0  0  0  0  0  0  0  0  0  0  0  0
  -19.1141   -7.8723   24.2665 C   0  0  0  0  0  0  0  0  0  0  0  0
  -23.8279  -10.4484   20.9622 C   0  0  0  0  0  0  0  0  0  0  0  0
  -24.1680  -12.9739   20.8443 C   0  0  0  0  0  0  0  0  0  0  0  0
  -16.8936  -21.2008   23.6043 C   0  0  0  0  0  0  0  0  0  0  0  0
  -22.8439  -21.0575   19.3084 C   0  0  0  0  0  0  0  0  0  0  0  0
  -18.2566  -20.9917   23.3199 C   0  0  0  0  0  0  0  0  0  0  0  0
  -23.1403  -19.7905   18.7861 C   0  0  0  0  0  0  0  0  0  0  0  0
  -30.5309  -18.0216   20.9600 C   0  0  0  0  0  0  0  0  0  0  0  0
  -29.0365  -19.7226   20.1171 C   0  0  0  0  0  0  0  0  0  0  0  0
  -22.3424   -8.1407   21.4625 C   0  0  0  0  0  0  0  0  0  0  0  0
  -25.4584  -20.0668   19.4643 C   0  0  0  0  0  0  0  0  0  0  0  0
  -20.8687   -6.9717   22.8711 C   0  0  0  0  0  0  0  0  0  0  0  0
  -19.3607   -6.8809   25.2163 C   0  0  0  0  0  0  0  0  0  0  0  0
  -19.8682   -7.9177   23.0939 C   0  0  0  0  0  0  0  0  0  0  0  0
  -24.5957  -11.6401   20.7043 C   0  0  0  0  0  0  0  0  0  0  0  0
  -25.2589  -13.7245   20.4798 C   0  0  0  0  0  0  0  0  0  0  0  0
  -22.8980  -13.4885   21.2663 C   0  0  0  0  0  0  0  0  0  0  0  0
  -20.1084  -19.8154   20.3467 C   0  0  0  0  0  0  0  0  0  0  0  0
  -19.7350  -19.0210   17.2239 C   0  0  0  0  0  0  0  0  0  0  0  0
  -21.1893  -18.3748   14.2049 C   0  0  0  0  0  0  0  0  0  0  0  0
  -30.7424  -14.7466   20.6586 C   0  0  0  0  0  0  0  0  0  0  0  0
  -15.8233  -20.2754   23.0822 C   0  0  0  0  0  0  0  0  0  0  0  0
  -21.4518  -21.6175   19.2048 C   0  0  0  0  0  0  0  0  0  0  0  0
  -22.0852  -18.9335   18.1373 C   0  0  0  0  0  0  0  0  0  0  0  0
  -16.2841  -19.4098   21.9123 C   0  0  0  0  0  0  0  0  0  0  0  0
  -29.6016  -12.3640   18.2714 C   0  0  0  0  0  0  0  0  0  0  0  0
  -17.6464  -18.7914   22.2099 C   0  0  0  0  0  0  0  0  0  0  0  0
  -28.1652  -12.0690   18.7068 C   0  0  0  0  0  0  0  0  0  0  0  0
  -30.5210  -12.5841   19.4707 C   0  0  0  0  0  0  0  0  0  0  0  0
  -28.6215  -13.3125   20.8618 C   0  0  0  0  0  0  0  0  0  0  0  0
  -18.7133  -19.8753   22.4060 C   0  0  1  0  0  0  0  0  0  0  0  0
  -20.3831  -20.5387   19.0586 C   0  0  1  0  0  0  0  0  0  0  0  0
  -27.6451  -13.1386   19.6859 C   0  0  2  0  0  0  0  0  0  0  0  0
  -20.6289  -17.7163   11.8491 C   0  0  0  0  0  0  0  0  0  0  0  0
  -19.2731  -16.1473   18.1396 C   0  0  0  0  0  0  0  0  0  0  0  0
  -19.6676  -15.4060   15.7810 C   0  0  0  0  0  0  0  0  0  0  0  0
  -17.7531  -16.9157   16.3083 C   0  0  0  0  0  0  0  0  0  0  0  0
  -22.3314  -20.8763   13.1108 C   0  0  0  0  0  0  0  0  0  0  0  0
  -30.8094  -16.8958   21.8977 C   0  0  0  0  0  0  0  0  0  0  0  0
  -27.7076  -20.4183   20.1525 C   0  0  0  0  0  0  0  0  0  1  0  0
  -20.1084  -17.8326   16.3710 C   0  0  1  0  0  0  0  0  0  0  0  0
  -20.8713  -18.8727   12.8065 C   0  0  2  0  0  0  0  0  0  0  0  0
  -19.2203  -16.5905   16.6639 C   0  0  0  0  0  0  0  0  0  0  0  0
  -25.8598  -11.5454   20.2835 N   0  0  0  0  0  0  0  0  0  0  0  0
  -26.2357  -12.8294   20.1558 N   0  0  0  0  0  0  0  0  0  0  0  0
  -20.7379  -19.5226   18.0656 N   0  0  0  0  0  0  0  0  0  0  0  0
  -29.9715  -13.6113   20.3589 N   0  0  0  0  0  0  0  0  0  0  0  0
  -25.4684  -15.0561   20.4078 N   0  0  0  0  0  0  0  0  0  0  0  0
  -21.8873  -12.5783   21.6046 N   0  0  0  0  0  0  0  0  0  0  0  0
  -19.1341  -20.4073   21.1276 N   0  0  0  0  0  0  0  0  0  0  0  0
  -20.0568  -18.2912   14.9870 N   0  0  0  0  0  0  0  0  0  0  0  0
  -30.1444  -15.6741   21.5028 N   0  0  0  0  0  0  0  0  0  0  0  0
  -21.9997  -19.6910   12.2790 N   0  3  0  0  0  0  0  0  0  0  0  0
  -22.6611  -14.7189   21.3255 O   0  0  0  0  0  0  0  0  0  0  0  0
  -20.7332  -18.7950   20.6117 O   0  0  0  0  0  0  0  0  0  0  0  0
  -18.5977  -19.4914   17.1409 O   0  0  0  0  0  0  0  0  0  0  0  0
  -22.3278  -18.0853   14.5660 O   0  0  0  0  0  0  0  0  0  0  0  0
  -31.8774  -14.9233   20.2029 O   0  0  0  0  0  0  0  0  0  0  0  0
  -21.6176   -7.0149   21.7070 O   0  0  0  0  0  0  0  0  0  0  0  0
  -26.7269  -19.5802   19.5424 O   0  0  0  0  0  0  0  0  0  1  0  0
  -18.6357   -6.8363   26.3417 F   0  0  0  0  0  0  0  0  0  0  0  0
  -19.6259   -8.8717   22.1845 F   0  0  0  0  0  0  0  0  0  0  0  0
  1  2  1  0  0  0  0
  1  6  2  0  0  0  0
  2  7  2  0  0  0  0
  3  9  1  0  0  0  0
  3 10  2  0  0  0  0
  4 11  2  0  0  0  0
  4 19  1  0  0  0  0
  5 12  1  0  0  0  0
  5 19  2  0  0  0  0
  6 21  1  0  0  0  0
  7 23  1  0  0  0  0
  8 13  2  0  0  0  0
  8 22  1  0  0  0  0
  9 25  2  0  0  0  0
 10 26  1  0  0  0  0
 11 27  1  0  0  0  0
 12 27  2  0  0  0  0
 13 28  1  0  0  0  0
 14 15  2  0  0  0  0
 14 29  1  0  0  0  0
 15 30  1  0  0  0  0
 16 24  1  0  0  0  0
 16 28  2  0  0  0  0
 17 25  1  0  0  0  0
 17 26  2  0  0  0  0
 18 30  2  0  0  0  0
 18 31  1  0  0  0  0
 19 32  1  0  0  0  0
 20 32  1  0  0  0  0
 20 33  2  0  0  0  0
 20 34  1  0  0  0  0
 21 23  2  0  0  0  0
 21 39  1  0  0  0  0
 22 24  2  0  0  0  0
 22 40  1  0  0  0  0
 23 48  1  0  0  0  0
 24 41  1  0  0  0  0
 25 56  1  0  0  0  0
 26 57  1  0  0  0  0
 27 76  1  0  0  0  0
 28 77  1  0  0  0  0
 29 31  2  0  0  0  0
 29 76  1  0  0  0  0
 30 78  1  0  0  0  0
 31 79  1  0  0  0  0
 32 61  2  0  0  0  0
 33 62  1  0  0  0  0
 33 65  1  0  0  0  0
 34 66  1  0  0  0  0
 34 71  2  0  0  0  0
 35 49  1  0  0  0  0
 35 67  1  0  0  0  0
 35 72  2  0  0  0  0
 36 58  1  0  0  0  0
 36 63  1  0  0  0  0
 36 73  2  0  0  0  0
 37 59  1  0  0  0  0
 37 68  1  0  0  0  0
 37 74  2  0  0  0  0
 38 64  1  0  0  0  0
 38 69  1  0  0  0  0
 38 75  2  0  0  0  0
 39 42  1  0  0  0  0
 40 49  1  0  0  0  0
 41 63  1  0  0  0  0
 42 44  1  0  0  0  0
 43 45  1  0  0  0  0
 43 46  1  0  0  0  0
 44 48  1  0  0  0  0
 45 50  1  0  0  0  0
 46 64  1  0  0  0  0
 47 50  1  0  0  0  0
 47 64  1  0  0  0  0
 48 67  1  0  0  0  0
 49 63  1  0  0  0  0
 50 62  1  0  0  0  0
 51 59  1  0  0  0  0
 52 60  1  0  0  0  0
 53 60  1  0  0  0  0
 54 60  1  0  0  0  0
 55 70  1  0  0  0  0
 56 69  1  0  0  0  0
 57 77  1  0  0  0  0
 58 60  1  0  0  0  0
 58 68  1  0  0  0  0
 59 70  1  0  0  0  0
 61 62  1  0  0  0  0
M  CHG  1  70   1
M  ISO  4  38 100  57 101  69 100  77 101
M  END
> <Batch ID>
0001

> <Smiles>
CNC(C)C(=O)NC(C(=O)N1Cc2cc([101O:1][101CH2:1]c3cccc(C[100NH:0][100C:0](=O)N4CCCC(n5nc(-c6ccc(Oc7ccc(F)cc7F)cc6)c(C(N)=O)c5N)C4)c3)ccc2CC1C(=O)NC1CCCc2ccccc21)C(C)(C)C

> <Shape>
0.192

> <Color>
0.200

> <Negative vol penalty>
0.000

$$$$

  -OEChem-04042320143D

 81 89  0     1  0  0  0  0  0999 V2000
  -18.7902  -15.9355   29.7371 C   0  0  0  0  0  0  0  0  0  0  0  0
  -19.7910  -16.8555   29.4414 C   0  0  0  0  0  0  0  0  0  0  0  0
  -31.2466  -19.4813   19.1722 C   0  0  0  0  0  0  0  0  0  0  0  0
  -23.0741   -9.8688   19.9415 C   0  0  0  0  0  0  0  0  0  0  0  0
  -23.8380   -9.8744   22.2335 C   0  0  0  0  0  0  0  0  0  0  0  0
  -18.3683  -15.0296   28.7648 C   0  0  0  0  0  0  0  0  0  0  0  0
  -20.3712  -16.8695   28.1735 C   0  0  0  0  0  0  0  0  0  0  0  0
  -23.2284  -21.3725   23.3907 C   0  0  0  0  0  0  0  0  0  0  0  0
  -31.5064  -18.4286   20.0496 C   0  0  0  0  0  0  0  0  0  0  0  0
  -30.0108  -20.1274   19.2045 C   0  0  0  0  0  0  0  0  0  0  0  0
  -22.3314   -8.7149   20.1918 C   0  0  0  0  0  0  0  0  0  0  0  0
  -23.0953   -8.7205   22.4839 C   0  0  0  0  0  0  0  0  0  0  0  0
  -24.3800  -21.5397   22.6229 C   0  0  0  0  0  0  0  0  0  0  0  0
  -19.8687   -7.9202   23.0914 C   0  0  0  0  0  0  0  0  0  0  0  0
  -19.1139   -7.8788   24.2636 C   0  0  0  0  0  0  0  0  0  0  0  0
  -23.5158  -19.9801   20.9981 C   0  0  0  0  0  0  0  0  0  0  0  0
  -29.2945  -18.6680   20.9917 C   0  0  0  0  0  0  0  0  0  0  0  0
  -20.3578   -5.9416   24.9963 C   0  0  0  0  0  0  0  0  0  0  0  0
  -23.8275  -10.4485   20.9623 C   0  0  0  0  0  0  0  0  0  0  0  0
  -24.1675  -12.9739   20.8437 C   0  0  0  0  0  0  0  0  0  0  0  0
  -18.9369  -15.0389   27.4814 C   0  0  0  0  0  0  0  0  0  0  0  0
  -22.2149  -20.4981   22.9727 C   0  0  0  0  0  0  0  0  0  0  0  0
  -19.9574  -15.9620   27.1836 C   0  0  0  0  0  0  0  0  0  0  0  0
  -22.3512  -19.8056   21.7611 C   0  0  0  0  0  0  0  0  0  0  0  0
  -30.5303  -18.0220   20.9594 C   0  0  0  0  0  0  0  0  0  0  0  0
  -29.0348  -19.7208   20.1142 C   0  0  0  0  0  0  0  0  0  0  0  0
  -22.3420   -8.1408   21.4630 C   0  0  0  0  0  0  0  0  0  0  0  0
  -24.5252  -20.8412   21.4278 C   0  0  0  0  0  0  0  0  0  0  0  0
  -20.8681   -6.9722   22.8716 C   0  0  0  0  0  0  0  0  0  0  0  0
  -19.3584   -6.8895   25.2161 C   0  0  0  0  0  0  0  0  0  0  0  0
  -21.1127   -5.9829   23.8241 C   0  0  0  0  0  0  0  0  0  0  0  0
  -24.5953  -11.6400   20.7042 C   0  0  0  0  0  0  0  0  0  0  0  0
  -25.2585  -13.7244   20.4792 C   0  0  0  0  0  0  0  0  0  0  0  0
  -22.8974  -13.4886   21.2653 C   0  0  0  0  0  0  0  0  0  0  0  0
  -20.9050  -17.8541   24.1546 C   0  0  0  0  0  0  0  0  0  0  0  0
  -18.8814  -18.2008   21.6431 C   0  0  0  0  0  0  0  0  0  0  0  0
  -18.3262  -19.4679   18.5233 C   0  0  0  0  0  0  0  0  0  0  0  0
  -30.7419  -14.7469   20.6587 C   0  0  0  0  0  0  0  0  0  0  0  0
  -26.7061  -20.1128   20.9722 C   0  0  0  0  0  0  0  0  0  1  0  0
  -18.4811  -14.0091   26.4781 C   0  0  0  0  0  0  0  0  0  0  0  0
  -20.9670  -20.3492   23.7990 C   0  0  0  0  0  0  0  0  0  0  0  0
  -21.2833  -18.8703   21.2579 C   0  0  0  0  0  0  0  0  0  0  0  0
  -18.8849  -14.3367   25.0428 C   0  0  0  0  0  0  0  0  0  0  0  0
  -29.6017  -12.3635   18.2720 C   0  0  0  0  0  0  0  0  0  0  0  0
  -20.3498  -14.7578   24.9832 C   0  0  0  0  0  0  0  0  0  0  0  0
  -28.1652  -12.0685   18.7072 C   0  0  0  0  0  0  0  0  0  0  0  0
  -30.5208  -12.5840   19.4715 C   0  0  0  0  0  0  0  0  0  0  0  0
  -28.6210  -13.3127   20.8620 C   0  0  0  0  0  0  0  0  0  0  0  0
  -20.5938  -16.0247   25.8120 C   0  0  1  0  0  0  0  0  0  0  0  0
  -20.2267  -19.0421   23.5331 C   0  0  1  0  0  0  0  0  0  0  0  0
  -27.6448  -13.1384   19.6859 C   0  0  2  0  0  0  0  0  0  0  0  0
  -16.5915  -19.5537   16.7120 C   0  0  0  0  0  0  0  0  0  0  0  0
  -19.5576  -15.3296   20.8629 C   0  0  0  0  0  0  0  0  0  0  0  0
  -18.5833  -15.7881   18.6026 C   0  0  0  0  0  0  0  0  0  0  0  0
  -17.1412  -15.9316   20.6330 C   0  0  0  0  0  0  0  0  0  0  0  0
  -18.1398  -22.4173   18.6814 C   0  0  0  0  0  0  0  0  0  0  0  0
  -30.8085  -16.8965   21.8972 C   0  0  0  0  0  0  0  0  0  0  0  0
  -18.8670  -17.7298   20.2089 C   0  0  1  0  0  0  0  0  0  0  0  0
  -17.1563  -20.2429   17.9444 C   0  0  2  0  0  0  0  0  0  0  0  0
  -18.5584  -16.2108   20.0870 C   0  0  0  0  0  0  0  0  0  0  0  0
  -25.8595  -11.5454   20.2836 N   0  0  0  0  0  0  0  0  0  0  0  0
  -26.2354  -12.8293   20.1557 N   0  0  0  0  0  0  0  0  0  0  0  0
  -20.0845  -18.7536   22.1045 N   0  0  0  0  0  0  0  0  0  0  0  0
  -29.9711  -13.6114   20.3592 N   0  0  0  0  0  0  0  0  0  0  0  0
  -25.4679  -15.0561   20.4068 N   0  0  0  0  0  0  0  0  0  0  0  0
  -21.8867  -12.5785   21.6036 N   0  0  0  0  0  0  0  0  0  0  0  0
  -27.7829  -20.3762   20.1471 N   0  0  0  0  0  0  0  0  0  0  0  0
  -20.1355  -17.1945   25.0939 N   0  0  0  0  0  0  0  0  0  0  0  0
  -17.9209  -18.5900   19.5063 N   0  0  0  0  0  0  0  0  0  0  0  0
  -30.1436  -15.6746   21.5025 N   0  0  0  0  0  0  0  0  0  0  0  0
  -17.5851  -21.6172   17.5593 N   0  3  0  0  0  0  0  0  0  0  0  0
  -22.6604  -14.7190   21.3241 O   0  0  0  0  0  0  0  0  0  0  0  0
  -22.0417  -17.5569   23.8065 O   0  0  0  0  0  0  0  0  0  0  0  0
  -17.8607  -18.0891   22.3266 O   0  0  0  0  0  0  0  0  0  0  0  0
  -19.4833  -19.6230   18.1392 O   0  0  0  0  0  0  0  0  0  0  0  0
  -31.8769  -14.9234   20.2032 O   0  0  0  0  0  0  0  0  0  0  0  0
  -26.6222  -19.2547   21.8434 O   0  0  0  0  0  0  0  0  0  0  0  0
  -21.6172   -7.0151   21.7077 O   0  0  0  0  0  0  0  0  0  0  0  0
  -25.6485  -21.0021   20.6768 O   0  0  0  0  0  0  0  0  0  1  0  0
  -18.6345   -6.8509   26.3424 F   0  0  0  0  0  0  0  0  0  0  0  0
  -22.0722   -5.0702   23.6190 F   0  0  0  0  0  0  0  0  0  0  0  0
  1  2  1  0  0  0  0
  1  6  2  0  0  0  0
  2  7  2  0  0  0  0
  3  9  1  0  0  0  0
  3 10  2  0  0  0  0
  4 11  2  0  0  0  0
  4 19  1  0  0  0  0
  5 12  1  0  0  0  0
  5 19  2  0  0  0  0
  6 21  1  0  0  0  0
  7 23  1  0  0  0  0
  8 13  2  0  0  0  0
  8 22  1  0  0  0  0
  9 25  2  0  0  0  0
 10 26  1  0  0  0  0
 11 27  1  0  0  0  0
 12 27  2  0  0  0  0
 13 28  1  0  0  0  0
 14 15  2  0  0  0  0
 14 29  1  0  0  0  0
 15 30  1  0  0  0  0
 16 24  1  0  0  0  0
 16 28  2  0  0  0  0
 17 25  1  0  0  0  0
 17 26  2  0  0  0  0
 18 30  2  0  0  0  0
 18 31  1  0  0  0  0
 19 32  1  0  0  0  0
 20 32  1  0  0  0  0
 20 33  2  0  0  0  0
 20 34  1  0  0  0  0
 21 23  2  0  0  0  0
 21 40  1  0  0  0  0
 22 24  2  0  0  0  0
 22 41  1  0  0  0  0
 23 49  1  0  0  0  0
 24 42  1  0  0  0  0
 25 57  1  0  0  0  0
 26 67  1  0  0  0  0
 27 78  1  0  0  0  0
 28 79  1  0  0  0  0
 29 31  2  0  0  0  0
 29 78  1  0  0  0  0
 30 80  1  0  0  0  0
 31 81  1  0  0  0  0
 32 61  2  0  0  0  0
 33 62  1  0  0  0  0
 33 65  1  0  0  0  0
 34 66  1  0  0  0  0
 34 72  2  0  0  0  0
 35 50  1  0  0  0  0
 35 68  1  0  0  0  0
 35 73  2  0  0  0  0
 36 58  1  0  0  0  0
 36 63  1  0  0  0  0
 36 74  2  0  0  0  0
 37 59  1  0  0  0  0
 37 69  1  0  0  0  0
 37 75  2  0  0  0  0
 38 64  1  0  0  0  0
 38 70  1  0  0  0  0
 38 76  2  0  0  0  0
 39 67  1  0  0  0  0
 39 77  2  0  0  0  0
 39 79  1  0  0  0  0
 40 43  1  0  0  0  0
 41 50  1  0  0  0  0
 42 63  1  0  0  0  0
 43 45  1  0  0  0  0
 44 46  1  0  0  0  0
 44 47  1  0  0  0  0
 45 49  1  0  0  0  0
 46 51  1  0  0  0  0
 47 64  1  0  0  0  0
 48 51  1  0  0  0  0
 48 64  1  0  0  0  0
 49 68  1  0  0  0  0
 50 63  1  0  0  0  0
 51 62  1  0  0  0  0
 52 59  1  0  0  0  0
 53 60  1  0  0  0  0
 54 60  1  0  0  0  0
 55 60  1  0  0  0  0
 56 71  1  0  0  0  0
 57 70  1  0  0  0  0
 58 60  1  0  0  0  0
 58 69  1  0  0  0  0
 59 71  1  0  0  0  0
 61 62  1  0  0  0  0
M  CHG  1  71   1
M  ISO  4  38 100  39 101  70 100  79 101
M  END
> <Batch ID>
0001

> <Smiles>
CNC(C)C(=O)NC(C(=O)N1Cc2cc([101O:1][101C:1](=O)Nc3cccc(C[100NH:0][100C:0](=O)N4CCCC(n5nc(-c6ccc(Oc7ccc(F)cc7F)cc6)c(C(N)=O)c5N)C4)c3)ccc2CC1C(=O)NC1CCCc2ccccc21)C(C)(C)C

> <Shape>
0.196

> <Color>
0.196

> <Negative vol penalty>
0.000

$$$$

  -OEChem-04042320143D

 83 91  0     1  0  0  0  0  0999 V2000
  -30.0630  -36.4585   21.9919 C   0  0  0  0  0  0  0  0  0  0  0  0
  -30.2228  -35.1625   21.5122 C   0  0  0  0  0  0  0  0  0  0  0  0
  -22.8108  -10.2236   20.9472 C   0  0  0  0  0  0  0  0  0  0  0  0
  -24.5340   -8.9934   22.1110 C   0  0  0  0  0  0  0  0  0  0  0  0
  -29.1455  -36.7157   23.0097 C   0  0  0  0  0  0  0  0  0  0  0  0
  -29.4659  -34.1226   22.0508 C   0  0  0  0  0  0  0  0  0  0  0  0
  -27.2895  -29.2304   19.0783 C   0  0  0  0  0  0  0  0  0  0  0  0
  -30.3409  -17.5039   23.6883 C   0  0  0  0  0  0  0  0  0  0  0  0
  -31.7759  -18.1712   21.8628 C   0  0  0  0  0  0  0  0  0  0  0  0
  -22.0662   -9.0521   20.8113 C   0  0  0  0  0  0  0  0  0  0  0  0
  -23.7892   -7.8218   21.9751 C   0  0  0  0  0  0  0  0  0  0  0  0
  -27.7485  -27.9185   18.9689 C   0  0  0  0  0  0  0  0  0  0  0  0
  -29.9073  -18.8221   23.8294 C   0  0  0  0  0  0  0  0  0  0  0  0
  -31.3422  -19.4894   22.0038 C   0  0  0  0  0  0  0  0  0  0  0  0
  -21.1242   -6.3788   23.4704 C   0  0  0  0  0  0  0  0  0  0  0  0
  -21.0045   -5.5553   24.5897 C   0  0  0  0  0  0  0  0  0  0  0  0
  -26.2734  -27.2595   20.7603 C   0  0  0  0  0  0  0  0  0  0  0  0
  -22.0569   -3.7514   23.3749 C   0  0  0  0  0  0  0  0  0  0  0  0
  -24.0448  -10.1943   21.5970 C   0  0  0  0  0  0  0  0  0  0  0  0
  -24.7595  -12.3289   22.7971 C   0  0  0  0  0  0  0  0  0  0  0  0
  -28.3700  -35.6800   23.5544 C   0  0  0  0  0  0  0  0  0  0  0  0
  -26.3254  -29.5695   20.0385 C   0  0  0  0  0  0  0  0  0  0  0  0
  -28.5381  -34.3659   23.0778 C   0  0  0  0  0  0  0  0  0  0  0  0
  -25.8020  -28.5759   20.8781 C   0  0  0  0  0  0  0  0  0  0  0  0
  -31.2752  -17.1784   22.7051 C   0  0  0  0  0  0  0  0  0  0  0  0
  -22.5553   -7.8512   21.3252 C   0  0  0  0  0  0  0  0  0  0  0  0
  -30.4079  -19.8149   22.9871 C   0  0  0  0  0  0  0  0  0  0  0  0
  -27.2425  -26.9334   19.8119 C   0  0  0  0  0  0  0  0  0  0  0  0
  -21.7101   -5.8887   22.3032 C   0  0  0  0  0  0  0  0  0  0  0  0
  -21.4709   -4.2415   24.5420 C   0  0  0  0  0  0  0  0  0  0  0  0
  -22.1764   -4.5750   22.2555 C   0  0  0  0  0  0  0  0  0  0  0  0
  -24.8148  -11.4040   21.7372 C   0  0  0  0  0  0  0  0  0  0  0  0
  -25.6773  -13.2933   22.4595 C   0  0  0  0  0  0  0  0  0  0  0  0
  -23.9509  -12.3172   23.9811 C   0  0  0  0  0  0  0  0  0  0  0  0
  -26.2504  -31.5121   22.5533 C   0  0  0  0  0  0  0  0  0  0  0  0
  -23.1177  -30.6730   22.6174 C   0  0  0  0  0  0  0  0  0  0  0  0
  -20.7098  -28.3995   21.7927 C   0  0  0  0  0  0  0  0  0  0  0  0
  -30.7035  -14.7666   20.5330 C   0  0  0  0  0  0  0  0  0  0  0  0
  -27.4251  -35.9987   24.6859 C   0  0  0  0  0  0  0  0  0  0  0  0
  -25.8212  -30.9839   20.1258 C   0  0  0  0  0  0  0  0  0  0  0  0
  -24.7509  -28.8841   21.9119 C   0  0  0  0  0  0  0  0  0  0  0  0
  -26.3928  -34.9042   24.9440 C   0  0  0  0  0  0  0  0  0  0  0  0
  -28.1634  -14.1001   18.1288 C   0  0  0  0  0  0  0  0  0  0  0  0
  -27.0625  -33.5339   24.9689 C   0  0  0  0  0  0  0  0  0  0  0  0
  -27.0646  -13.4103   18.9393 C   0  0  0  0  0  0  0  0  0  0  0  0
  -29.5560  -13.7022   18.6130 C   0  0  0  0  0  0  0  0  0  0  0  0
  -28.6902  -13.2073   20.8667 C   0  0  0  0  0  0  0  0  0  0  0  0
  -27.7176  -33.2154   23.6195 C   0  0  1  0  0  0  0  0  0  0  0  0
  -25.2126  -31.3185   21.4841 C   0  0  1  0  0  0  0  0  0  0  0  0
  -27.2677  -13.6205   20.4519 C   0  0  2  0  0  0  0  0  0  0  0  0
  -18.2469  -27.9713   22.0123 C   0  0  0  0  0  0  0  0  0  0  0  0
  -23.5175  -29.8850   25.5378 C   0  0  0  0  0  0  0  0  0  0  0  0
  -21.3631  -28.6153   25.4177 C   0  0  0  0  0  0  0  0  0  0  0  0
  -21.3747  -31.0848   25.0650 C   0  0  0  0  0  0  0  0  0  0  0  0
  -20.3316  -28.3922   18.8574 C   0  0  0  0  0  0  0  0  0  0  0  0
  -31.7384  -15.7691   22.5537 C   0  0  0  0  0  0  0  0  0  0  0  0
  -28.8744  -22.9666   22.0586 C   0  0  0  0  0  0  0  0  0  0  0  0
  -28.8062  -23.8350   20.8072 C   0  0  0  0  0  0  0  0  0  0  0  0
  -29.9636  -21.9078   21.9489 C   0  0  0  0  0  0  0  0  0  0  0  0
  -27.6898  -24.8656   20.8983 C   0  0  0  0  0  0  0  0  0  1  0  0
  -22.3189  -29.5723   23.2725 C   0  0  1  0  0  0  0  0  0  0  0  0
  -19.3465  -28.5659   21.1461 C   0  0  2  0  0  0  0  0  0  0  0  0
  -22.1648  -29.7836   24.8052 C   0  0  0  0  0  0  0  0  0  0  0  0
  -25.6978  -11.7500   20.7966 N   0  0  0  0  0  0  0  0  0  0  0  0
  -26.2057  -12.9029   21.2643 N   0  0  0  0  0  0  0  0  0  0  0  0
  -24.2946  -30.2829   21.9627 N   0  0  0  0  0  0  0  0  0  0  0  0
  -29.6836  -13.9275   20.0548 N   0  0  0  0  0  0  0  0  0  0  0  0
  -26.0757  -14.4288   23.0714 N   0  0  0  0  0  0  0  0  0  0  0  0
  -23.0605  -11.2517   24.1715 N   0  0  0  0  0  0  0  0  0  0  0  0
  -26.7177  -32.8085   22.6557 N   0  0  0  0  0  0  0  0  0  0  0  0
  -21.0540  -29.4997   22.5492 N   0  0  0  0  0  0  0  0  0  0  0  0
  -30.7500  -14.9313   21.9120 N   0  0  0  0  0  0  0  0  0  0  0  0
  -19.3167  -27.8892   19.8187 N   0  3  0  0  0  0  0  0  0  0  0  0
  -24.0042  -13.2331   24.8365 O   0  0  0  0  0  0  0  0  0  0  0  0
  -26.6003  -30.5564   23.2359 O   0  0  0  0  0  0  0  0  0  0  0  0
  -22.7086  -31.8352   22.6779 O   0  0  0  0  0  0  0  0  0  0  0  0
  -21.3988  -27.3925   21.6448 O   0  0  0  0  0  0  0  0  0  0  0  0
  -31.5095  -15.3318   19.7860 O   0  0  0  0  0  0  0  0  0  0  0  0
  -21.8288   -6.7078   21.1930 O   0  0  0  0  0  0  0  0  0  0  0  0
  -29.9808  -21.1098   23.1250 O   0  0  0  0  0  0  0  0  0  0  0  0
  -27.6893  -25.6522   19.7077 O   0  0  0  0  0  0  0  0  0  1  0  0
  -21.3574   -3.4512   25.6175 F   0  0  0  0  0  0  0  0  0  0  0  0
  -22.7413   -4.0988   21.1375 F   0  0  0  0  0  0  0  0  0  0  0  0
  1  2  1  0  0  0  0
  1  5  2  0  0  0  0
  2  6  2  0  0  0  0
  3 10  2  0  0  0  0
  3 19  1  0  0  0  0
  4 11  1  0  0  0  0
  4 19  2  0  0  0  0
  5 21  1  0  0  0  0
  6 23  1  0  0  0  0
  7 12  2  0  0  0  0
  7 22  1  0  0  0  0
  8 13  2  0  0  0  0
  8 25  1  0  0  0  0
  9 14  1  0  0  0  0
  9 25  2  0  0  0  0
 10 26  1  0  0  0  0
 11 26  2  0  0  0  0
 12 28  1  0  0  0  0
 13 27  1  0  0  0  0
 14 27  2  0  0  0  0
 15 16  2  0  0  0  0
 15 29  1  0  0  0  0
 16 30  1  0  0  0  0
 17 24  1  0  0  0  0
 17 28  2  0  0  0  0
 18 30  2  0  0  0  0
 18 31  1  0  0  0  0
 19 32  1  0  0  0  0
 20 32  1  0  0  0  0
 20 33  2  0  0  0  0
 20 34  1  0  0  0  0
 21 23  2  0  0  0  0
 21 39  1  0  0  0  0
 22 24  2  0  0  0  0
 22 40  1  0  0  0  0
 23 48  1  0  0  0  0
 24 41  1  0  0  0  0
 25 56  1  0  0  0  0
 26 79  1  0  0  0  0
 27 80  1  0  0  0  0
 28 81  1  0  0  0  0
 29 31  2  0  0  0  0
 29 79  1  0  0  0  0
 30 82  1  0  0  0  0
 31 83  1  0  0  0  0
 32 64  2  0  0  0  0
 33 65  1  0  0  0  0
 33 68  1  0  0  0  0
 34 69  1  0  0  0  0
 34 74  2  0  0  0  0
 35 49  1  0  0  0  0
 35 70  1  0  0  0  0
 35 75  2  0  0  0  0
 36 61  1  0  0  0  0
 36 66  1  0  0  0  0
 36 76  2  0  0  0  0
 37 62  1  0  0  0  0
 37 71  1  0  0  0  0
 37 77  2  0  0  0  0
 38 67  1  0  0  0  0
 38 72  1  0  0  0  0
 38 78  2  0  0  0  0
 39 42  1  0  0  0  0
 40 49  1  0  0  0  0
 41 66  1  0  0  0  0
 42 44  1  0  0  0  0
 43 45  1  0  0  0  0
 43 46  1  0  0  0  0
 44 48  1  0  0  0  0
 45 50  1  0  0  0  0
 46 67  1  0  0  0  0
 47 50  1  0  0  0  0
 47 67  1  0  0  0  0
 48 70  1  0  0  0  0
 49 66  1  0  0  0  0
 50 65  1  0  0  0  0
 51 62  1  0  0  0  0
 52 63  1  0  0  0  0
 53 63  1  0  0  0  0
 54 63  1  0  0  0  0
 55 73  1  0  0  0  0
 56 72  1  0  0  0  0
 57 58  1  0  0  0  0
 57 59  1  0  0  0  0
 58 60  1  0  0  0  0
 59 80  1  0  0  0  0
 60 81  1  0  0  0  0
 61 63  1  0  0  0  0
 61 71  1  0  0  0  0
 62 73  1  0  0  0  0
 64 65  1  0  0  0  0
M  CHG  1  73   1
M  ISO  4  38 100  60 101  72 100  81 101
M  END
> <Batch ID>
0001

> <Smiles>
CNC(C)C(=O)NC(C(=O)N1Cc2cc([101O:1][101CH2:1]CCCOc3ccc(C[100NH:0][100C:0](=O)N4CCCC(n5nc(-c6ccc(Oc7ccc(F)cc7F)cc6)c(C(N)=O)c5N)C4)cc3)ccc2CC1C(=O)NC1CCCc2ccccc21)C(C)(C)C

> <Shape>
0.319

> <Color>
0.147

> <Negative vol penalty>
0.000

$$$$

  -OEChem-04042320143D

 84 92  0     1  0  0  0  0  0999 V2000
  -31.7957  -26.7259   14.3162 C   0  0  0  0  0  0  0  0  0  0  0  0
  -30.9279  -25.9112   15.0364 C   0  0  0  0  0  0  0  0  0  0  0  0
  -20.6123  -25.1853   22.7066 C   0  0  0  0  0  0  0  0  0  0  0  0
  -28.9999  -18.0729   20.2237 C   0  0  0  0  0  0  0  0  0  0  0  0
  -26.7469  -18.4219   19.4242 C   0  0  0  0  0  0  0  0  0  0  0  0
  -32.3478  -27.8568   14.9162 C   0  0  0  0  0  0  0  0  0  0  0  0
  -30.6126  -26.2265   16.3577 C   0  0  0  0  0  0  0  0  0  0  0  0
  -25.6626  -25.7862   17.3317 C   0  0  0  0  0  0  0  0  0  0  0  0
  -21.2194  -24.6791   23.8558 C   0  0  0  0  0  0  0  0  0  0  0  0
  -20.1389  -24.3134   21.7261 C   0  0  0  0  0  0  0  0  0  0  0  0
  -29.0296  -16.8273   19.5967 C   0  0  0  0  0  0  0  0  0  0  0  0
  -26.7766  -17.1763   18.7970 C   0  0  0  0  0  0  0  0  0  0  0  0
  -25.1643  -24.4989   17.5275 C   0  0  0  0  0  0  0  0  0  0  0  0
  -27.8581  -13.7126   20.1887 C   0  0  0  0  0  0  0  0  0  0  0  0
  -28.3707  -12.6357   20.9120 C   0  0  0  0  0  0  0  0  0  0  0  0
  -25.2263  -24.8445   19.9141 C   0  0  0  0  0  0  0  0  0  0  0  0
  -20.8801  -22.4290   23.0440 C   0  0  0  0  0  0  0  0  0  0  0  0
  -30.0795  -12.3215   19.2333 C   0  0  0  0  0  0  0  0  0  0  0  0
  -27.8586  -18.8701   20.1375 C   0  0  0  0  0  0  0  0  0  0  0  0
  -28.2133  -21.3944   20.2372 C   0  0  0  0  0  0  0  0  0  0  0  0
  -32.0315  -28.1914   16.2424 C   0  0  0  0  0  0  0  0  0  0  0  0
  -25.9573  -26.6098   18.4278 C   0  0  0  0  0  0  0  0  0  0  0  0
  -31.1620  -27.3622   16.9765 C   0  0  0  0  0  0  0  0  0  0  0  0
  -25.7258  -26.1428   19.7295 C   0  0  0  0  0  0  0  0  0  0  0  0
  -21.3534  -23.3010   24.0245 C   0  0  0  0  0  0  0  0  0  0  0  0
  -20.2729  -22.9353   21.8948 C   0  0  0  0  0  0  0  0  0  0  0  0
  -27.9179  -16.3790   18.8833 C   0  0  0  0  0  0  0  0  0  0  0  0
  -24.9487  -24.0269   18.8190 C   0  0  0  0  0  0  0  0  0  0  0  0
  -28.4562  -14.0939   18.9876 C   0  0  0  0  0  0  0  0  0  0  0  0
  -29.4814  -11.9402   20.4343 C   0  0  0  0  0  0  0  0  0  0  0  0
  -29.5669  -13.3984   18.5099 C   0  0  0  0  0  0  0  0  0  0  0  0
  -27.8271  -20.1567   20.7856 C   0  0  0  0  0  0  0  0  0  0  0  0
  -27.9946  -22.3002   21.2463 C   0  0  0  0  0  0  0  0  0  0  0  0
  -28.7239  -21.6982   18.9324 C   0  0  0  0  0  0  0  0  0  0  0  0
  -28.5923  -27.9818   19.5582 C   0  0  0  0  0  0  0  0  0  0  0  0
  -26.5142  -29.3684   21.6273 C   0  0  0  0  0  0  0  0  0  0  0  0
  -23.4982  -29.2497   23.2198 C   0  0  0  0  0  0  0  0  0  0  0  0
  -24.3327  -22.3216   25.9834 C   0  0  0  0  0  0  0  0  0  0  0  0
  -32.6900  -29.3978   16.8635 C   0  0  0  0  0  0  0  0  0  0  0  0
  -26.4691  -28.0055   18.1990 C   0  0  0  0  0  0  0  0  0  0  0  0
  -26.0069  -26.9947   20.9393 C   0  0  0  0  0  0  0  0  0  0  0  0
  -32.0115  -29.8687   18.1472 C   0  0  0  0  0  0  0  0  0  0  0  0
  -27.8791  -22.6350   26.0176 C   0  0  0  0  0  0  0  0  0  0  0  0
  -31.7303  -28.6852   19.0675 C   0  0  0  0  0  0  0  0  0  0  0  0
  -28.3028  -22.1470   24.6311 C   0  0  0  0  0  0  0  0  0  0  0  0
  -26.6934  -21.8388   26.5581 C   0  0  0  0  0  0  0  0  0  0  0  0
  -25.9489  -21.2927   24.2731 C   0  0  0  0  0  0  0  0  0  0  0  0
  -30.7763  -27.6847   18.4038 C   0  0  1  0  0  0  0  0  0  0  0  0
  -27.2192  -28.5714   19.4009 C   0  0  1  0  0  0  0  0  0  0  0  0
  -27.1057  -22.1021   23.6624 C   0  0  2  0  0  0  0  0  0  0  0  0
  -18.6458  -21.0874   21.3763 C   0  0  0  0  0  0  0  0  0  0  0  0
  -22.0961  -30.5053   24.8796 C   0  0  0  0  0  0  0  0  0  0  0  0
  -28.2755  -28.3339   23.8940 C   0  0  0  0  0  0  0  0  0  0  0  0
  -26.3814  -28.7712   25.4719 C   0  0  0  0  0  0  0  0  0  0  0  0
  -27.4190  -30.6612   24.2174 C   0  0  0  0  0  0  0  0  0  0  0  0
  -21.3308  -29.6668   21.2482 C   0  0  0  0  0  0  0  0  0  0  0  0
  -22.0014  -22.7605   25.2543 C   0  0  0  0  0  0  0  0  0  0  0  0
  -23.6076  -22.2414   18.0006 C   0  0  0  0  0  0  0  0  0  1  0  0
  -22.6200  -21.2833   18.6379 C   0  0  0  0  0  0  0  0  0  0  0  0
  -20.8844  -21.1400   20.2158 C   0  0  0  0  0  0  0  0  0  0  0  0
  -19.7575  -21.9848   20.8255 C   0  0  2  0  0  0  0  0  0  0  0  0
  -25.9560  -29.0095   22.9832 C   0  0  1  0  0  0  0  0  0  0  0  0
  -22.4162  -30.2978   23.4075 C   0  0  2  0  0  0  0  0  0  0  0  0
  -27.0044  -29.1769   24.1191 C   0  0  0  0  0  0  0  0  0  0  0  0
  -27.3960  -20.2628   22.0453 N   0  0  0  0  0  0  0  0  0  0  0  0
  -27.5100  -21.5781   22.2969 N   0  0  0  0  0  0  0  0  0  0  0  0
  -26.5121  -28.3498   20.6639 N   0  0  0  0  0  0  0  0  0  0  0  0
  -25.5917  -21.8367   25.5926 N   0  0  0  0  0  0  0  0  0  0  0  0
  -28.1716  -23.6360   21.3285 N   0  0  0  0  0  0  0  0  0  0  0  0
  -28.8868  -20.6489   18.0176 N   0  0  0  0  0  0  0  0  0  0  0  0
  -29.4140  -28.1695   18.4632 N   0  0  0  0  0  0  0  0  0  0  0  0
  -24.7533  -29.8170   23.1563 N   0  0  0  0  0  0  0  0  0  0  0  0
  -23.3459  -22.2900   25.0057 N   0  0  0  0  0  0  0  0  0  0  0  0
  -21.1668  -29.8834   22.7088 N   0  3  0  0  0  0  0  0  0  0  0  0
  -29.0422  -22.8632   18.5932 O   0  0  0  0  0  0  0  0  0  0  0  0
  -28.8851  -27.4010   20.5968 O   0  0  0  0  0  0  0  0  0  0  0  0
  -26.9301  -30.5126   21.4282 O   0  0  0  0  0  0  0  0  0  0  0  0
  -23.2546  -28.0476   23.1415 O   0  0  0  0  0  0  0  0  0  0  0  0
  -24.1063  -22.7560   27.1179 O   0  0  0  0  0  0  0  0  0  0  0  0
  -27.9466  -15.1637   18.2711 O   0  0  0  0  0  0  0  0  0  0  0  0
  -24.4630  -22.7706   19.0129 O   0  0  0  0  0  0  0  0  0  1  0  0
  -21.8307  -21.9919   19.5856 O   0  0  0  0  0  0  0  0  0  0  0  0
  -29.9745  -10.9071   21.1298 F   0  0  0  0  0  0  0  0  0  0  0  0
  -30.1465  -13.7608   17.3573 F   0  0  0  0  0  0  0  0  0  0  0  0
  1  2  1  0  0  0  0
  1  6  2  0  0  0  0
  2  7  2  0  0  0  0
  3  9  1  0  0  0  0
  3 10  2  0  0  0  0
  4 11  2  0  0  0  0
  4 19  1  0  0  0  0
  5 12  1  0  0  0  0
  5 19  2  0  0  0  0
  6 21  1  0  0  0  0
  7 23  1  0  0  0  0
  8 13  2  0  0  0  0
  8 22  1  0  0  0  0
  9 25  2  0  0  0  0
 10 26  1  0  0  0  0
 11 27  1  0  0  0  0
 12 27  2  0  0  0  0
 13 28  1  0  0  0  0
 14 15  2  0  0  0  0
 14 29  1  0  0  0  0
 15 30  1  0  0  0  0
 16 24  1  0  0  0  0
 16 28  2  0  0  0  0
 17 25  1  0  0  0  0
 17 26  2  0  0  0  0
 18 30  2  0  0  0  0
 18 31  1  0  0  0  0
 19 32  1  0  0  0  0
 20 32  1  0  0  0  0
 20 33  2  0  0  0  0
 20 34  1  0  0  0  0
 21 23  2  0  0  0  0
 21 39  1  0  0  0  0
 22 24  2  0  0  0  0
 22 40  1  0  0  0  0
 23 48  1  0  0  0  0
 24 41  1  0  0  0  0
 25 57  1  0  0  0  0
 26 61  1  0  0  0  0
 27 80  1  0  0  0  0
 28 81  1  0  0  0  0
 29 31  2  0  0  0  0
 29 80  1  0  0  0  0
 30 83  1  0  0  0  0
 31 84  1  0  0  0  0
 32 65  2  0  0  0  0
 33 66  1  0  0  0  0
 33 69  1  0  0  0  0
 34 70  1  0  0  0  0
 34 75  2  0  0  0  0
 35 49  1  0  0  0  0
 35 71  1  0  0  0  0
 35 76  2  0  0  0  0
 36 62  1  0  0  0  0
 36 67  1  0  0  0  0
 36 77  2  0  0  0  0
 37 63  1  0  0  0  0
 37 72  1  0  0  0  0
 37 78  2  0  0  0  0
 38 68  1  0  0  0  0
 38 73  1  0  0  0  0
 38 79  2  0  0  0  0
 39 42  1  0  0  0  0
 40 49  1  0  0  0  0
 41 67  1  0  0  0  0
 42 44  1  0  0  0  0
 43 45  1  0  0  0  0
 43 46  1  0  0  0  0
 44 48  1  0  0  0  0
 45 50  1  0  0  0  0
 46 68  1  0  0  0  0
 47 50  1  0  0  0  0
 47 68  1  0  0  0  0
 48 71  1  0  0  0  0
 49 67  1  0  0  0  0
 50 66  1  0  0  0  0
 51 61  1  0  0  0  0
 52 63  1  0  0  0  0
 53 64  1  0  0  0  0
 54 64  1  0  0  0  0
 55 64  1  0  0  0  0
 56 74  1  0  0  0  0
 57 73  1  0  0  0  0
 58 59  1  0  0  0  0
 58 81  1  0  0  0  0
 59 82  1  0  0  0  0
 60 61  1  0  0  0  0
 60 82  1  0  0  0  0
 62 64  1  0  0  0  0
 62 72  1  0  0  0  0
 63 74  1  0  0  0  0
 65 66  1  0  0  0  0
M  CHG  1  74   1
M  ISO  4  38 100  58 101  73 100  81 101
M  END
> <Batch ID>
0001

> <Smiles>
CNC(C)C(=O)NC(C(=O)N1Cc2cc([101O:1][101CH2:1]COCC(C)c3cccc(C[100NH:0][100C:0](=O)N4CCCC(n5nc(-c6ccc(Oc7ccc(F)cc7F)cc6)c(C(N)=O)c5N)C4)c3)ccc2CC1C(=O)NC1CCCc2ccccc21)C(C)(C)C

> <Shape>
0.191

> <Color>
0.071

> <Negative vol penalty>
0.000

$$$$
