
  -OEChem-04042320173D

 84 92  0     1  0  0  0  0  0999 V2000
  -18.8122  -24.8921   33.2284 C   0  0  0  0  0  0  0  0  0  0  0  0
  -19.7629  -25.2133   32.2649 C   0  0  0  0  0  0  0  0  0  0  0  0
  -23.1899   -9.8180   19.9310 C   0  0  0  0  0  0  0  0  0  0  0  0
  -23.5607  -10.0002   22.3114 C   0  0  0  0  0  0  0  0  0  0  0  0
  -18.6885  -23.5763   33.6725 C   0  0  0  0  0  0  0  0  0  0  0  0
  -20.5914  -24.2190   31.7458 C   0  0  0  0  0  0  0  0  0  0  0  0
  -23.9546  -22.3459   25.7045 C   0  0  0  0  0  0  0  0  0  0  0  0
  -30.4254  -19.9485   22.1130 C   0  0  0  0  0  0  0  0  0  0  0  0
  -31.2086  -19.9456   24.3985 C   0  0  0  0  0  0  0  0  0  0  0  0
  -29.2106  -20.4925   22.5300 C   0  0  0  0  0  0  0  0  0  0  0  0
  -29.9938  -20.4897   24.8155 C   0  0  0  0  0  0  0  0  0  0  0  0
  -22.4218   -8.6723   20.1383 C   0  0  0  0  0  0  0  0  0  0  0  0
  -22.7925   -8.8546   22.5188 C   0  0  0  0  0  0  0  0  0  0  0  0
  -25.2206  -21.9881   25.2431 C   0  0  0  0  0  0  0  0  0  0  0  0
  -23.1910   -5.5072   22.2592 C   0  0  0  0  0  0  0  0  0  0  0  0
  -23.6855   -4.5462   23.1410 C   0  0  0  0  0  0  0  0  0  0  0  0
  -24.8633  -19.7351   26.0277 C   0  0  0  0  0  0  0  0  0  0  0  0
  -21.7247   -4.8096   24.5277 C   0  0  0  0  0  0  0  0  0  0  0  0
  -23.7594  -10.4819   21.0175 C   0  0  0  0  0  0  0  0  0  0  0  0
  -24.1015  -12.9980   20.7724 C   0  0  0  0  0  0  0  0  0  0  0  0
  -19.5093  -22.5636   33.1516 C   0  0  0  0  0  0  0  0  0  0  0  0
  -23.1364  -21.4020   26.3418 C   0  0  0  0  0  0  0  0  0  0  0  0
  -20.4795  -22.8887   32.1844 C   0  0  0  0  0  0  0  0  0  0  0  0
  -23.5863  -20.0828   26.4940 C   0  0  0  0  0  0  0  0  0  0  0  0
  -31.4244  -19.6750   23.0473 C   0  0  0  0  0  0  0  0  0  0  0  0
  -28.9948  -20.7632   23.8812 C   0  0  0  0  0  0  0  0  0  0  0  0
  -22.2231   -8.1906   21.4322 C   0  0  0  0  0  0  0  0  0  0  0  0
  -25.6764  -20.6833   25.4072 C   0  0  0  0  0  0  0  0  0  0  0  0
  -21.9633   -6.1195   22.5117 C   0  0  0  0  0  0  0  0  0  0  0  0
  -22.9524   -4.1974   24.2752 C   0  0  0  0  0  0  0  0  0  0  0  0
  -21.2302   -5.7707   23.6459 C   0  0  0  0  0  0  0  0  0  0  0  0
  -24.5535  -11.6651   20.8039 C   0  0  0  0  0  0  0  0  0  0  0  0
  -25.2342  -13.7392   20.5401 C   0  0  0  0  0  0  0  0  0  0  0  0
  -22.7763  -13.5194   20.9385 C   0  0  0  0  0  0  0  0  0  0  0  0
  -21.8593  -21.1334   29.2402 C   0  0  0  0  0  0  0  0  0  0  0  0
  -20.3818  -18.5624   27.9251 C   0  0  0  0  0  0  0  0  0  0  0  0
  -20.3755  -16.1404   25.5208 C   0  0  0  0  0  0  0  0  0  0  0  0
  -30.9271  -12.6925   21.7024 C   0  0  0  0  0  0  0  0  0  0  0  0
  -19.3707  -21.1644   33.6971 C   0  0  0  0  0  0  0  0  0  0  0  0
  -21.7626  -21.7971   26.8100 C   0  0  0  0  0  0  0  0  0  0  0  0
  -22.7385  -19.0268   27.1532 C   0  0  0  0  0  0  0  0  0  0  0  0
  -20.0332  -20.1018   32.8239 C   0  0  0  0  0  0  0  0  0  0  0  0
  -29.5316  -13.4567   18.4519 C   0  0  0  0  0  0  0  0  0  0  0  0
  -21.4328  -20.5466   32.4113 C   0  0  0  0  0  0  0  0  0  0  0  0
  -28.0420  -13.2065   18.6939 C   0  0  0  0  0  0  0  0  0  0  0  0
  -30.3914  -12.4448   19.2035 C   0  0  0  0  0  0  0  0  0  0  0  0
  -28.6445  -12.1351   20.9141 C   0  0  0  0  0  0  0  0  0  0  0  0
  -21.3798  -21.8335   31.5792 C   0  0  1  0  0  0  0  0  0  0  0  0
  -21.2186  -20.8838   27.9042 C   0  0  1  0  0  0  0  0  0  0  0  0
  -27.7224  -13.1394   20.1991 C   0  0  2  0  0  0  0  0  0  0  0  0
  -19.0572  -14.1596   24.7236 C   0  0  0  0  0  0  0  0  0  0  0  0
  -21.4693  -16.9074   30.2464 C   0  0  0  0  0  0  0  0  0  0  0  0
  -20.9505  -14.8439   28.9270 C   0  0  0  0  0  0  0  0  0  0  0  0
  -19.1090  -16.3832   29.6071 C   0  0  0  0  0  0  0  0  0  0  0  0
  -19.8876  -17.3821   22.8790 C   0  0  0  0  0  0  0  0  0  0  0  0
  -32.7235  -19.0933   22.6024 C   0  0  0  0  0  0  0  0  0  0  0  0
  -27.6884  -21.3500   24.3287 C   0  0  0  0  0  0  0  0  0  1  0  0
  -33.3576  -14.7399   22.6650 C   0  0  0  0  0  0  0  0  0  0  0  0
  -33.7335  -15.5826   21.4405 C   0  0  0  0  0  0  0  0  0  0  0  0
  -33.2587  -13.2521   22.3407 C   0  0  0  0  0  0  0  0  0  0  0  0
  -33.9080  -17.0634   21.7567 C   0  0  0  0  0  0  0  0  0  0  0  0
  -20.7110  -17.0958   27.7856 C   0  0  1  0  0  0  0  0  0  0  0  0
  -19.2857  -15.6564   24.5815 C   0  0  2  0  0  0  0  0  0  0  0  0
  -20.5770  -16.3277   29.1308 C   0  0  0  0  0  0  0  0  0  0  0  0
  -25.8706  -11.5625   20.6071 N   0  0  0  0  0  0  0  0  0  0  0  0
  -26.2560  -12.8403   20.4497 N   0  0  0  0  0  0  0  0  0  0  0  0
  -21.4054  -19.4637   27.5998 N   0  0  0  0  0  0  0  0  0  0  0  0
  -30.0505  -12.4440   20.6332 N   0  0  0  0  0  0  0  0  0  0  0  0
  -25.4460  -15.0658   20.4062 N   0  0  0  0  0  0  0  0  0  0  0  0
  -21.7280  -12.6185   21.1700 N   0  0  0  0  0  0  0  0  0  0  0  0
  -20.9751  -21.5408   30.2209 N   0  0  0  0  0  0  0  0  0  0  0  0
  -19.8571  -16.5855   26.7185 N   0  0  0  0  0  0  0  0  0  0  0  0
  -32.2425  -12.9701   21.3513 N   0  0  0  0  0  0  0  0  0  0  0  0
  -19.6562  -15.9431   23.1668 N   0  3  0  0  0  0  0  0  0  0  0  0
  -32.6363  -17.6475   22.2566 N   0  3  0  0  0  0  0  0  0  0  0  0
  -22.5266  -14.7466   20.8668 O   0  0  0  0  0  0  0  0  0  0  0  0
  -23.0662  -20.9672   29.3720 O   0  0  0  0  0  0  0  0  0  0  0  0
  -19.2557  -18.8963   28.3019 O   0  0  0  0  0  0  0  0  0  0  0  0
  -21.5679  -16.1219   25.2234 O   0  0  0  0  0  0  0  0  0  0  0  0
  -30.5632  -12.6736   22.8832 O   0  0  0  0  0  0  0  0  0  0  0  0
  -21.4734   -7.0728   21.6349 O   0  0  0  0  0  0  0  0  0  0  0  0
  -26.9120  -20.3317   24.9584 O   0  0  0  0  0  0  0  0  0  1  0  0
  -23.4267   -3.2734   25.1210 F   0  0  0  0  0  0  0  0  0  0  0  0
  -20.0496   -6.3546   23.8932 F   0  0  0  0  0  0  0  0  0  0  0  0
  1  2  1  0  0  0  0
  1  5  2  0  0  0  0
  2  6  2  0  0  0  0
  3 12  2  0  0  0  0
  3 19  1  0  0  0  0
  4 13  1  0  0  0  0
  4 19  2  0  0  0  0
  5 21  1  0  0  0  0
  6 23  1  0  0  0  0
  7 14  2  0  0  0  0
  7 22  1  0  0  0  0
  8 10  2  0  0  0  0
  8 25  1  0  0  0  0
  9 11  1  0  0  0  0
  9 25  2  0  0  0  0
 10 26  1  0  0  0  0
 11 26  2  0  0  0  0
 12 27  1  0  0  0  0
 13 27  2  0  0  0  0
 14 28  1  0  0  0  0
 15 16  2  0  0  0  0
 15 29  1  0  0  0  0
 16 30  1  0  0  0  0
 17 24  1  0  0  0  0
 17 28  2  0  0  0  0
 18 30  2  0  0  0  0
 18 31  1  0  0  0  0
 19 32  1  0  0  0  0
 20 32  1  0  0  0  0
 20 33  2  0  0  0  0
 20 34  1  0  0  0  0
 21 23  2  0  0  0  0
 21 39  1  0  0  0  0
 22 24  2  0  0  0  0
 22 40  1  0  0  0  0
 23 48  1  0  0  0  0
 24 41  1  0  0  0  0
 25 56  1  0  0  0  0
 26 57  1  0  0  0  0
 27 81  1  0  0  0  0
 28 82  1  0  0  0  0
 29 31  2  0  0  0  0
 29 81  1  0  0  0  0
 30 83  1  0  0  0  0
 31 84  1  0  0  0  0
 32 65  2  0  0  0  0
 33 66  1  0  0  0  0
 33 69  1  0  0  0  0
 34 70  1  0  0  0  0
 34 76  2  0  0  0  0
 35 49  1  0  0  0  0
 35 71  1  0  0  0  0
 35 77  2  0  0  0  0
 36 62  1  0  0  0  0
 36 67  1  0  0  0  0
 36 78  2  0  0  0  0
 37 63  1  0  0  0  0
 37 72  1  0  0  0  0
 37 79  2  0  0  0  0
 38 68  1  0  0  0  0
 38 73  1  0  0  0  0
 38 80  2  0  0  0  0
 39 42  1  0  0  0  0
 40 49  1  0  0  0  0
 41 67  1  0  0  0  0
 42 44  1  0  0  0  0
 43 45  1  0  0  0  0
 43 46  1  0  0  0  0
 44 48  1  0  0  0  0
 45 50  1  0  0  0  0
 46 68  1  0  0  0  0
 47 50  1  0  0  0  0
 47 68  1  0  0  0  0
 48 71  1  0  0  0  0
 49 67  1  0  0  0  0
 50 66  1  0  0  0  0
 51 63  1  0  0  0  0
 52 64  1  0  0  0  0
 53 64  1  0  0  0  0
 54 64  1  0  0  0  0
 55 74  1  0  0  0  0
 56 75  1  0  0  0  0
 57 82  1  0  0  0  0
 58 59  1  0  0  0  0
 58 60  1  0  0  0  0
 59 61  1  0  0  0  0
 60 73  1  0  0  0  0
 61 75  1  0  0  0  0
 62 64  1  0  0  0  0
 62 72  1  0  0  0  0
 63 74  1  0  0  0  0
 65 66  1  0  0  0  0
M  CHG  2  74   1  75   1
M  ISO  4  38 100  57 101  73 100  82 101
M  END
> <Batch ID>
0002

> <Smiles>
CNC(C)C(=O)NC(C(=O)N1Cc2cc([101O:1][101CH2:1]c3ccc(CNCCCC[100NH:0][100C:0](=O)N4CCCC(n5nc(-c6ccc(Oc7ccc(F)cc7F)cc6)c(C(N)=O)c5N)C4)cc3)ccc2CC1C(=O)NC1CCCc2ccccc21)C(C)(C)C

> <Shape>
0.147

> <Color>
0.182

> <Negative vol penalty>
0.000

$$$$

  -OEChem-04042320173D

 79 87  0     1  0  0  0  0  0999 V2000
  -17.4802  -23.1131   24.9873 C   0  0  0  0  0  0  0  0  0  0  0  0
  -18.8266  -22.9147   24.6988 C   0  0  0  0  0  0  0  0  0  0  0  0
  -31.2477  -19.4820   19.1739 C   0  0  0  0  0  0  0  0  0  0  0  0
  -23.0743   -9.8691   19.9414 C   0  0  0  0  0  0  0  0  0  0  0  0
  -23.8387   -9.8740   22.2333 C   0  0  0  0  0  0  0  0  0  0  0  0
  -16.5195  -22.2592   24.4472 C   0  0  0  0  0  0  0  0  0  0  0  0
  -19.2132  -21.8614   23.8707 C   0  0  0  0  0  0  0  0  0  0  0  0
  -23.8641  -21.8265   19.8866 C   0  0  0  0  0  0  0  0  0  0  0  0
  -31.5069  -18.4283   20.0502 C   0  0  0  0  0  0  0  0  0  0  0  0
  -30.0125  -20.1292   19.2073 C   0  0  0  0  0  0  0  0  0  0  0  0
  -22.3316   -8.7152   20.1915 C   0  0  0  0  0  0  0  0  0  0  0  0
  -23.0959   -8.7201   22.4834 C   0  0  0  0  0  0  0  0  0  0  0  0
  -25.1647  -21.3308   19.9673 C   0  0  0  0  0  0  0  0  0  0  0  0
  -21.1153   -5.9803   23.8209 C   0  0  0  0  0  0  0  0  0  0  0  0
  -20.3613   -5.9350   24.9935 C   0  0  0  0  0  0  0  0  0  0  0  0
  -24.4524  -19.3012   18.8753 C   0  0  0  0  0  0  0  0  0  0  0  0
  -29.2957  -18.6688   20.9934 C   0  0  0  0  0  0  0  0  0  0  0  0
  -19.1141   -7.8723   24.2665 C   0  0  0  0  0  0  0  0  0  0  0  0
  -23.8279  -10.4484   20.9622 C   0  0  0  0  0  0  0  0  0  0  0  0
  -24.1680  -12.9739   20.8443 C   0  0  0  0  0  0  0  0  0  0  0  0
  -16.8936  -21.2008   23.6043 C   0  0  0  0  0  0  0  0  0  0  0  0
  -22.8439  -21.0575   19.3084 C   0  0  0  0  0  0  0  0  0  0  0  0
  -18.2566  -20.9917   23.3199 C   0  0  0  0  0  0  0  0  0  0  0  0
  -23.1403  -19.7905   18.7861 C   0  0  0  0  0  0  0  0  0  0  0  0
  -30.5309  -18.0216   20.9600 C   0  0  0  0  0  0  0  0  0  0  0  0
  -29.0365  -19.7226   20.1171 C   0  0  0  0  0  0  0  0  0  0  0  0
  -22.3424   -8.1407   21.4625 C   0  0  0  0  0  0  0  0  0  0  0  0
  -25.4584  -20.0668   19.4643 C   0  0  0  0  0  0  0  0  0  0  0  0
  -20.8687   -6.9717   22.8711 C   0  0  0  0  0  0  0  0  0  0  0  0
  -19.3607   -6.8809   25.2163 C   0  0  0  0  0  0  0  0  0  0  0  0
  -19.8682   -7.9177   23.0939 C   0  0  0  0  0  0  0  0  0  0  0  0
  -24.5957  -11.6401   20.7043 C   0  0  0  0  0  0  0  0  0  0  0  0
  -25.2589  -13.7245   20.4798 C   0  0  0  0  0  0  0  0  0  0  0  0
  -22.8980  -13.4885   21.2663 C   0  0  0  0  0  0  0  0  0  0  0  0
  -20.1084  -19.8154   20.3467 C   0  0  0  0  0  0  0  0  0  0  0  0
  -19.7350  -19.0210   17.2239 C   0  0  0  0  0  0  0  0  0  0  0  0
  -21.1893  -18.3748   14.2049 C   0  0  0  0  0  0  0  0  0  0  0  0
  -30.7424  -14.7466   20.6586 C   0  0  0  0  0  0  0  0  0  0  0  0
  -15.8233  -20.2754   23.0822 C   0  0  0  0  0  0  0  0  0  0  0  0
  -21.4518  -21.6175   19.2048 C   0  0  0  0  0  0  0  0  0  0  0  0
  -22.0852  -18.9335   18.1373 C   0  0  0  0  0  0  0  0  0  0  0  0
  -16.2841  -19.4098   21.9123 C   0  0  0  0  0  0  0  0  0  0  0  0
  -29.6016  -12.3640   18.2714 C   0  0  0  0  0  0  0  0  0  0  0  0
  -17.6464  -18.7914   22.2099 C   0  0  0  0  0  0  0  0  0  0  0  0
  -28.1652  -12.0690   18.7068 C   0  0  0  0  0  0  0  0  0  0  0  0
  -30.5210  -12.5841   19.4707 C   0  0  0  0  0  0  0  0  0  0  0  0
  -28.6215  -13.3125   20.8618 C   0  0  0  0  0  0  0  0  0  0  0  0
  -18.7133  -19.8753   22.4060 C   0  0  1  0  0  0  0  0  0  0  0  0
  -20.3831  -20.5387   19.0586 C   0  0  1  0  0  0  0  0  0  0  0  0
  -27.6451  -13.1386   19.6859 C   0  0  2  0  0  0  0  0  0  0  0  0
  -20.6289  -17.7163   11.8491 C   0  0  0  0  0  0  0  0  0  0  0  0
  -19.2731  -16.1473   18.1396 C   0  0  0  0  0  0  0  0  0  0  0  0
  -19.6676  -15.4060   15.7810 C   0  0  0  0  0  0  0  0  0  0  0  0
  -17.7531  -16.9157   16.3083 C   0  0  0  0  0  0  0  0  0  0  0  0
  -22.3314  -20.8763   13.1108 C   0  0  0  0  0  0  0  0  0  0  0  0
  -30.8094  -16.8958   21.8977 C   0  0  0  0  0  0  0  0  0  0  0  0
  -27.7076  -20.4183   20.1525 C   0  0  0  0  0  0  0  0  0  1  0  0
  -20.1084  -17.8326   16.3710 C   0  0  1  0  0  0  0  0  0  0  0  0
  -20.8713  -18.8727   12.8065 C   0  0  2  0  0  0  0  0  0  0  0  0
  -19.2203  -16.5905   16.6639 C   0  0  0  0  0  0  0  0  0  0  0  0
  -25.8598  -11.5454   20.2835 N   0  0  0  0  0  0  0  0  0  0  0  0
  -26.2357  -12.8294   20.1558 N   0  0  0  0  0  0  0  0  0  0  0  0
  -20.7379  -19.5226   18.0656 N   0  0  0  0  0  0  0  0  0  0  0  0
  -29.9715  -13.6113   20.3589 N   0  0  0  0  0  0  0  0  0  0  0  0
  -25.4684  -15.0561   20.4078 N   0  0  0  0  0  0  0  0  0  0  0  0
  -21.8873  -12.5783   21.6046 N   0  0  0  0  0  0  0  0  0  0  0  0
  -19.1341  -20.4073   21.1276 N   0  0  0  0  0  0  0  0  0  0  0  0
  -20.0568  -18.2912   14.9870 N   0  0  0  0  0  0  0  0  0  0  0  0
  -30.1444  -15.6741   21.5028 N   0  0  0  0  0  0  0  0  0  0  0  0
  -21.9997  -19.6910   12.2790 N   0  3  0  0  0  0  0  0  0  0  0  0
  -22.6611  -14.7189   21.3255 O   0  0  0  0  0  0  0  0  0  0  0  0
  -20.7332  -18.7950   20.6117 O   0  0  0  0  0  0  0  0  0  0  0  0
  -18.5977  -19.4914   17.1409 O   0  0  0  0  0  0  0  0  0  0  0  0
  -22.3278  -18.0853   14.5660 O   0  0  0  0  0  0  0  0  0  0  0  0
  -31.8774  -14.9233   20.2029 O   0  0  0  0  0  0  0  0  0  0  0  0
  -21.6176   -7.0149   21.7070 O   0  0  0  0  0  0  0  0  0  0  0  0
  -26.7269  -19.5802   19.5424 O   0  0  0  0  0  0  0  0  0  1  0  0
  -18.6357   -6.8363   26.3417 F   0  0  0  0  0  0  0  0  0  0  0  0
  -19.6259   -8.8717   22.1845 F   0  0  0  0  0  0  0  0  0  0  0  0
  1  2  1  0  0  0  0
  1  6  2  0  0  0  0
  2  7  2  0  0  0  0
  3  9  1  0  0  0  0
  3 10  2  0  0  0  0
  4 11  2  0  0  0  0
  4 19  1  0  0  0  0
  5 12  1  0  0  0  0
  5 19  2  0  0  0  0
  6 21  1  0  0  0  0
  7 23  1  0  0  0  0
  8 13  2  0  0  0  0
  8 22  1  0  0  0  0
  9 25  2  0  0  0  0
 10 26  1  0  0  0  0
 11 27  1  0  0  0  0
 12 27  2  0  0  0  0
 13 28  1  0  0  0  0
 14 15  2  0  0  0  0
 14 29  1  0  0  0  0
 15 30  1  0  0  0  0
 16 24  1  0  0  0  0
 16 28  2  0  0  0  0
 17 25  1  0  0  0  0
 17 26  2  0  0  0  0
 18 30  2  0  0  0  0
 18 31  1  0  0  0  0
 19 32  1  0  0  0  0
 20 32  1  0  0  0  0
 20 33  2  0  0  0  0
 20 34  1  0  0  0  0
 21 23  2  0  0  0  0
 21 39  1  0  0  0  0
 22 24  2  0  0  0  0
 22 40  1  0  0  0  0
 23 48  1  0  0  0  0
 24 41  1  0  0  0  0
 25 56  1  0  0  0  0
 26 57  1  0  0  0  0
 27 76  1  0  0  0  0
 28 77  1  0  0  0  0
 29 31  2  0  0  0  0
 29 76  1  0  0  0  0
 30 78  1  0  0  0  0
 31 79  1  0  0  0  0
 32 61  2  0  0  0  0
 33 62  1  0  0  0  0
 33 65  1  0  0  0  0
 34 66  1  0  0  0  0
 34 71  2  0  0  0  0
 35 49  1  0  0  0  0
 35 67  1  0  0  0  0
 35 72  2  0  0  0  0
 36 58  1  0  0  0  0
 36 63  1  0  0  0  0
 36 73  2  0  0  0  0
 37 59  1  0  0  0  0
 37 68  1  0  0  0  0
 37 74  2  0  0  0  0
 38 64  1  0  0  0  0
 38 69  1  0  0  0  0
 38 75  2  0  0  0  0
 39 42  1  0  0  0  0
 40 49  1  0  0  0  0
 41 63  1  0  0  0  0
 42 44  1  0  0  0  0
 43 45  1  0  0  0  0
 43 46  1  0  0  0  0
 44 48  1  0  0  0  0
 45 50  1  0  0  0  0
 46 64  1  0  0  0  0
 47 50  1  0  0  0  0
 47 64  1  0  0  0  0
 48 67  1  0  0  0  0
 49 63  1  0  0  0  0
 50 62  1  0  0  0  0
 51 59  1  0  0  0  0
 52 60  1  0  0  0  0
 53 60  1  0  0  0  0
 54 60  1  0  0  0  0
 55 70  1  0  0  0  0
 56 69  1  0  0  0  0
 57 77  1  0  0  0  0
 58 60  1  0  0  0  0
 58 68  1  0  0  0  0
 59 70  1  0  0  0  0
 61 62  1  0  0  0  0
M  CHG  1  70   1
M  ISO  4  38 100  57 101  69 100  77 101
M  END
> <Batch ID>
0002

> <Smiles>
CNC(C)C(=O)NC(C(=O)N1Cc2cc([101O:1][101CH2:1]c3cccc(C[100NH:0][100C:0](=O)N4CCCC(n5nc(-c6ccc(Oc7ccc(F)cc7F)cc6)c(C(N)=O)c5N)C4)c3)ccc2CC1C(=O)NC1CCCc2ccccc21)C(C)(C)C

> <Shape>
0.192

> <Color>
0.200

> <Negative vol penalty>
0.000

$$$$

  -OEChem-04042320173D

 88 96  0     1  0  0  0  0  0999 V2000
  -36.4010  -23.2507   19.1006 C   0  0  0  0  0  0  0  0  0  0  0  0
  -35.4313  -23.9466   19.2315 C   0  0  0  0  0  0  0  0  0  0  0  0
  -18.9772  -33.8083   21.0484 C   0  0  0  0  0  0  0  0  0  0  0  0
  -20.3434  -33.5910   20.9010 C   0  0  0  0  0  0  0  0  0  0  0  0
  -27.0508  -17.4085   19.9505 C   0  0  0  0  0  0  0  0  0  0  0  0
  -29.3792  -16.9782   20.4306 C   0  0  0  0  0  0  0  0  0  0  0  0
  -18.2292  -32.9888   21.8927 C   0  0  0  0  0  0  0  0  0  0  0  0
  -20.9626  -32.5546   21.5989 C   0  0  0  0  0  0  0  0  0  0  0  0
  -25.6346  -29.0954   19.6723 C   0  0  0  0  0  0  0  0  0  0  0  0
  -26.8442  -16.0465   19.7319 C   0  0  0  0  0  0  0  0  0  0  0  0
  -29.1726  -15.6161   20.2120 C   0  0  0  0  0  0  0  0  0  0  0  0
  -27.0065  -29.1533   19.9137 C   0  0  0  0  0  0  0  0  0  0  0  0
  -26.4092  -13.2616   21.5996 C   0  0  0  0  0  0  0  0  0  0  0  0
  -25.2788  -12.6775   22.1710 C   0  0  0  0  0  0  0  0  0  0  0  0
  -31.9374  -26.5092   20.6324 C   0  0  0  0  0  0  0  0  0  0  0  0
  -31.6412  -28.8577   21.1154 C   0  0  0  0  0  0  0  0  0  0  0  0
  -26.7600  -27.5203   21.6720 C   0  0  0  0  0  0  0  0  0  0  0  0
  -33.8277  -27.8497   21.3157 C   0  0  0  0  0  0  0  0  0  0  0  0
  -24.4909  -12.0530   19.9741 C   0  0  0  0  0  0  0  0  0  0  0  0
  -28.3184  -17.8743   20.2999 C   0  0  0  0  0  0  0  0  0  0  0  0
  -31.1099  -27.6280   20.7267 C   0  0  0  0  0  0  0  0  0  0  0  0
  -28.4098  -19.9753   21.7439 C   0  0  0  0  0  0  0  0  0  0  0  0
  -18.8378  -31.9359   22.5938 C   0  0  0  0  0  0  0  0  0  0  0  0
  -24.8121  -28.2562   20.4375 C   0  0  0  0  0  0  0  0  0  0  0  0
  -20.2223  -31.7211   22.4544 C   0  0  0  0  0  0  0  0  0  0  0  0
  -25.3783  -27.4517   21.4366 C   0  0  0  0  0  0  0  0  0  0  0  0
  -33.2964  -26.6200   20.9270 C   0  0  0  0  0  0  0  0  0  0  0  0
  -33.0002  -28.9686   21.4100 C   0  0  0  0  0  0  0  0  0  0  0  0
  -27.9050  -15.1503   19.8626 C   0  0  0  0  0  0  0  0  0  0  0  0
  -27.5690  -28.3678   20.9156 C   0  0  0  0  0  0  0  0  0  0  0  0
  -26.5805  -13.2415   20.2153 C   0  0  0  0  0  0  0  0  0  0  0  0
  -24.3197  -12.0732   21.3584 C   0  0  0  0  0  0  0  0  0  0  0  0
  -25.6213  -12.6372   19.4027 C   0  0  0  0  0  0  0  0  0  0  0  0
  -28.5326  -19.2812   20.5253 C   0  0  0  0  0  0  0  0  0  0  0  0
  -28.7160  -21.2769   21.4301 C   0  0  0  0  0  0  0  0  0  0  0  0
  -28.0511  -19.4870   23.0434 C   0  0  0  0  0  0  0  0  0  0  0  0
  -29.6625  -27.5090   20.4142 C   0  0  0  0  0  0  0  0  0  1  0  0
  -22.3624  -28.7093   22.4117 C   0  0  0  0  0  0  0  0  0  0  0  0
  -22.2516  -25.4674   22.3932 C   0  0  0  0  0  0  0  0  0  0  0  0
  -23.8949  -22.5151   21.9136 C   0  0  0  0  0  0  0  0  0  0  0  0
  -32.2383  -24.3387   18.0048 C   0  0  0  0  0  0  0  0  0  0  0  0
  -17.9967  -31.1062   23.5313 C   0  0  0  0  0  0  0  0  0  0  0  0
  -23.3380  -28.1854   20.1469 C   0  0  0  0  0  0  0  0  0  0  0  0
  -24.5418  -26.5191   22.2727 C   0  0  0  0  0  0  0  0  0  0  0  0
  -18.6599  -29.7953   23.9460 C   0  0  0  0  0  0  0  0  0  0  0  0
  -28.7802  -23.9331   17.2609 C   0  0  0  0  0  0  0  0  0  0  0  0
  -20.1111  -30.0354   24.3496 C   0  0  0  0  0  0  0  0  0  0  0  0
  -28.3524  -22.7567   18.1401 C   0  0  0  0  0  0  0  0  0  0  0  0
  -30.1992  -23.7517   16.7266 C   0  0  0  0  0  0  0  0  0  0  0  0
  -30.7925  -22.3123   18.6371 C   0  0  0  0  0  0  0  0  0  0  0  0
  -20.9256  -30.5916   23.1754 C   0  0  1  0  0  0  0  0  0  0  0  0
  -22.5194  -27.6782   21.3301 C   0  0  1  0  0  0  0  0  0  0  0  0
  -29.3889  -22.4763   19.2448 C   0  0  2  0  0  0  0  0  0  0  0  0
  -33.7660  -24.3496   21.8614 C   0  0  0  0  0  0  0  0  0  0  0  0
  -23.5510  -20.0311   22.0087 C   0  0  0  0  0  0  0  0  0  0  0  0
  -32.8865  -30.8060   23.1295 C   0  0  0  0  0  0  0  0  0  0  0  0
  -33.3610  -31.3649   20.7215 C   0  0  0  0  0  0  0  0  0  0  0  0
  -35.1029  -30.2862   22.1299 C   0  0  0  0  0  0  0  0  0  0  0  0
  -22.3655  -25.5708   25.4405 C   0  0  0  0  0  0  0  0  0  0  0  0
  -22.9728  -23.1419   25.4307 C   0  0  0  0  0  0  0  0  0  0  0  0
  -20.7737  -23.8797   24.5129 C   0  0  0  0  0  0  0  0  0  0  0  0
  -24.5283  -22.2005   19.0398 C   0  0  0  0  0  0  0  0  0  0  0  0
  -34.2437  -24.8069   19.3899 C   0  0  2  0  0  0  0  0  0  0  0  0
  -34.1811  -25.4235   20.8261 C   0  0  1  0  0  0  0  0  0  0  0  0
  -22.8866  -24.3713   23.2144 C   0  0  1  0  0  0  0  0  0  0  0  0
  -23.5220  -21.2707   21.1282 C   0  0  2  0  0  0  0  0  0  0  0  0
  -33.5677  -30.2834   21.8268 C   0  0  0  0  0  0  0  0  0  0  0  0
  -22.2654  -24.2599   24.6353 C   0  0  0  0  0  0  0  0  0  0  0  0
  -28.8888  -20.0762   19.5128 N   0  0  0  0  0  0  0  0  0  0  0  0
  -28.9924  -21.2832   20.0946 N   0  0  0  0  0  0  0  0  0  0  0  0
  -23.1046  -26.4901   21.9545 N   0  0  0  0  0  0  0  0  0  0  0  0
  -31.1332  -23.4906   17.8245 N   0  0  0  0  0  0  0  0  0  0  0  0
  -28.7729  -22.4053   22.1691 N   0  0  0  0  0  0  0  0  0  0  0  0
  -27.7680  -18.1222   23.1896 N   0  0  0  0  0  0  0  0  0  0  0  0
  -21.2647  -29.5328   22.2490 N   0  0  0  0  0  0  0  0  0  0  0  0
  -22.7818  -23.1527   22.4192 N   0  0  0  0  0  0  0  0  0  0  0  0
  -33.0700  -24.0242   19.0726 N   0  0  0  0  0  0  0  0  0  0  0  0
  -24.4723  -21.0670   19.9984 N   0  3  0  0  0  0  0  0  0  0  0  0
  -27.9678  -20.2417   24.0419 O   0  0  0  0  0  0  0  0  0  0  0  0
  -29.2160  -26.7070   19.6076 O   0  0  0  0  0  0  0  0  0  0  0  0
  -23.1760  -28.7535   23.3270 O   0  0  0  0  0  0  0  0  0  0  0  0
  -21.0447  -25.4144   22.1439 O   0  0  0  0  0  0  0  0  0  0  0  0
  -25.0577  -22.8826   22.0667 O   0  0  0  0  0  0  0  0  0  0  0  0
  -32.4639  -25.3077   17.2720 O   0  0  0  0  0  0  0  0  0  0  0  0
  -27.7037  -13.8211   19.6496 O   0  0  0  0  0  0  0  0  0  0  0  0
  -28.9077  -28.4229   21.1537 O   0  0  0  0  0  0  0  0  0  1  0  0
  -23.2350  -11.5110   21.9074 F   0  0  0  0  0  0  0  0  0  0  0  0
  -25.7809  -12.6137   18.0723 F   0  0  0  0  0  0  0  0  0  0  0  0
  1  2  3  0  0  0  0
  2 63  1  0  0  0  0
  3  4  1  0  0  0  0
  3  7  2  0  0  0  0
  4  8  2  0  0  0  0
  5 10  2  0  0  0  0
  5 20  1  0  0  0  0
  6 11  1  0  0  0  0
  6 20  2  0  0  0  0
  7 23  1  0  0  0  0
  8 25  1  0  0  0  0
  9 12  2  0  0  0  0
  9 24  1  0  0  0  0
 10 29  1  0  0  0  0
 11 29  2  0  0  0  0
 12 30  1  0  0  0  0
 13 14  2  0  0  0  0
 13 31  1  0  0  0  0
 14 32  1  0  0  0  0
 15 21  1  0  0  0  0
 15 27  2  0  0  0  0
 16 21  2  0  0  0  0
 16 28  1  0  0  0  0
 17 26  1  0  0  0  0
 17 30  2  0  0  0  0
 18 27  1  0  0  0  0
 18 28  2  0  0  0  0
 19 32  2  0  0  0  0
 19 33  1  0  0  0  0
 20 34  1  0  0  0  0
 21 37  1  0  0  0  0
 22 34  1  0  0  0  0
 22 35  2  0  0  0  0
 22 36  1  0  0  0  0
 23 25  2  0  0  0  0
 23 42  1  0  0  0  0
 24 26  2  0  0  0  0
 24 43  1  0  0  0  0
 25 51  1  0  0  0  0
 26 44  1  0  0  0  0
 27 64  1  0  0  0  0
 28 67  1  0  0  0  0
 29 85  1  0  0  0  0
 30 86  1  0  0  0  0
 31 33  2  0  0  0  0
 31 85  1  0  0  0  0
 32 87  1  0  0  0  0
 33 88  1  0  0  0  0
 34 69  2  0  0  0  0
 35 70  1  0  0  0  0
 35 73  1  0  0  0  0
 36 74  1  0  0  0  0
 36 79  2  0  0  0  0
 37 80  2  0  0  0  0
 37 86  1  0  0  0  0
 38 52  1  0  0  0  0
 38 75  1  0  0  0  0
 38 81  2  0  0  0  0
 39 65  1  0  0  0  0
 39 71  1  0  0  0  0
 39 82  2  0  0  0  0
 40 66  1  0  0  0  0
 40 76  1  0  0  0  0
 40 83  2  0  0  0  0
 41 72  1  0  0  0  0
 41 77  1  0  0  0  0
 41 84  2  0  0  0  0
 42 45  1  0  0  0  0
 43 52  1  0  0  0  0
 44 71  1  0  0  0  0
 45 47  1  0  0  0  0
 46 48  1  0  0  0  0
 46 49  1  0  0  0  0
 47 51  1  0  0  0  0
 48 53  1  0  0  0  0
 49 72  1  0  0  0  0
 50 53  1  0  0  0  0
 50 72  1  0  0  0  0
 51 75  1  0  0  0  0
 52 71  1  0  0  0  0
 53 70  1  0  0  0  0
 54 64  1  0  0  0  0
 55 66  1  0  0  0  0
 56 67  1  0  0  0  0
 57 67  1  0  0  0  0
 58 67  1  0  0  0  0
 59 68  1  0  0  0  0
 60 68  1  0  0  0  0
 61 68  1  0  0  0  0
 62 78  1  0  0  0  0
 63 64  1  0  0  0  0
 63 77  1  0  0  0  0
 65 68  1  0  0  0  0
 65 76  1  0  0  0  0
 66 78  1  0  0  0  0
 69 70  1  0  0  0  0
M  CHG  1  78   1
M  ISO  4  37 101  41 100  77 100  86 101
M  END
> <Batch ID>
0002

> <Smiles>
C#CC([100NH:0][100C:0](=O)N1CCCC(n2nc(-c3ccc(Oc4ccc(F)cc4F)cc3)c(C(N)=O)c2N)C1)C(C)c1cc(C(C)(C)C)cc([101C:1](=O)[101O:1]c2ccc3c(c2)CN(C(=O)C(NC(=O)C(C)NC)C(C)(C)C)C(C(=O)NC2CCCc4ccccc42)C3)c1

> <Shape>
0.213

> <Color>
0.087

> <Negative vol penalty>
0.000

$$$$

  -OEChem-04042320173D

 80 88  0     1  0  0  0  0  0999 V2000
  -30.4986  -26.5607    8.3086 C   0  0  0  0  0  0  0  0  0  0  0  0
  -30.3226  -25.5545    9.2531 C   0  0  0  0  0  0  0  0  0  0  0  0
  -22.9864   -9.9071   19.9846 C   0  0  0  0  0  0  0  0  0  0  0  0
  -23.7196   -9.9489   22.2863 C   0  0  0  0  0  0  0  0  0  0  0  0
  -31.3779  -19.3183   19.1088 C   0  0  0  0  0  0  0  0  0  0  0  0
  -29.1591  -19.6267   20.0138 C   0  0  0  0  0  0  0  0  0  0  0  0
  -30.8783  -27.8389    8.7159 C   0  0  0  0  0  0  0  0  0  0  0  0
  -30.5274  -25.8257   10.6055 C   0  0  0  0  0  0  0  0  0  0  0  0
  -27.4715  -23.4347   15.3436 C   0  0  0  0  0  0  0  0  0  0  0  0
  -31.6031  -18.2816   20.0143 C   0  0  0  0  0  0  0  0  0  0  0  0
  -29.3844  -18.5899   20.9193 C   0  0  0  0  0  0  0  0  0  0  0  0
  -22.2152   -8.7758   20.2508 C   0  0  0  0  0  0  0  0  0  0  0  0
  -22.9483   -8.8176   22.5525 C   0  0  0  0  0  0  0  0  0  0  0  0
  -27.7648  -22.3886   16.2173 C   0  0  0  0  0  0  0  0  0  0  0  0
  -23.1744   -5.4786   22.0717 C   0  0  0  0  0  0  0  0  0  0  0  0
  -23.7594   -4.4567   22.8194 C   0  0  0  0  0  0  0  0  0  0  0  0
  -28.6360  -23.9739   17.8133 C   0  0  0  0  0  0  0  0  0  0  0  0
  -22.0424   -4.7041   24.5010 C   0  0  0  0  0  0  0  0  0  0  0  0
  -23.7387  -10.4936   21.0023 C   0  0  0  0  0  0  0  0  0  0  0  0
  -30.1558  -19.9909   19.1085 C   0  0  0  0  0  0  0  0  0  0  0  0
  -24.1359  -13.0077   20.8310 C   0  0  0  0  0  0  0  0  0  0  0  0
  -31.0784  -28.1284   10.0749 C   0  0  0  0  0  0  0  0  0  0  0  0
  -27.7686  -24.7595   15.6943 C   0  0  0  0  0  0  0  0  0  0  0  0
  -30.9115  -27.1087   11.0312 C   0  0  0  0  0  0  0  0  0  0  0  0
  -28.3430  -25.0352   16.9433 C   0  0  0  0  0  0  0  0  0  0  0  0
  -30.6064  -17.9173   20.9196 C   0  0  0  0  0  0  0  0  0  0  0  0
  -22.1961   -8.2310   21.5347 C   0  0  0  0  0  0  0  0  0  0  0  0
  -28.3498  -22.6578   17.4512 C   0  0  0  0  0  0  0  0  0  0  0  0
  -22.0234   -6.1134   22.5387 C   0  0  0  0  0  0  0  0  0  0  0  0
  -23.1934   -4.0694   24.0340 C   0  0  0  0  0  0  0  0  0  0  0  0
  -21.4574   -5.7261   23.7534 C   0  0  0  0  0  0  0  0  0  0  0  0
  -24.5361  -11.6619   20.7278 C   0  0  0  0  0  0  0  0  0  0  0  0
  -25.2481  -13.7256   20.4646 C   0  0  0  0  0  0  0  0  0  0  0  0
  -22.8720  -13.5595   21.2232 C   0  0  0  0  0  0  0  0  0  0  0  0
  -29.9146  -21.0949   18.1442 C   0  0  0  0  0  0  0  0  0  1  0  0
  -29.6527  -27.0262   14.5043 C   0  0  0  0  0  0  0  0  0  0  0  0
  -28.2331  -28.8547   16.7765 C   0  0  0  0  0  0  0  0  0  0  0  0
  -26.5878  -29.0062   19.7627 C   0  0  0  0  0  0  0  0  0  0  0  0
  -30.7498  -14.6323   20.6968 C   0  0  0  0  0  0  0  0  0  0  0  0
  -31.5343  -29.5128   10.4627 C   0  0  0  0  0  0  0  0  0  0  0  0
  -27.4214  -25.8791   14.7517 C   0  0  0  0  0  0  0  0  0  0  0  0
  -28.6631  -26.4420   17.3758 C   0  0  0  0  0  0  0  0  0  0  0  0
  -31.3670  -29.8149   11.9497 C   0  0  0  0  0  0  0  0  0  0  0  0
  -29.5892  -12.2200   18.3494 C   0  0  0  0  0  0  0  0  0  0  0  0
  -31.8882  -28.6550   12.7921 C   0  0  0  0  0  0  0  0  0  0  0  0
  -28.1408  -11.9665   18.7712 C   0  0  0  0  0  0  0  0  0  0  0  0
  -30.4968  -12.4480   19.5561 C   0  0  0  0  0  0  0  0  0  0  0  0
  -28.5952  -13.2498   20.9033 C   0  0  0  0  0  0  0  0  0  0  0  0
  -31.1000  -27.3703   12.5098 C   0  0  1  0  0  0  0  0  0  0  0  0
  -28.2387  -27.1433   14.9987 C   0  0  1  0  0  0  0  0  0  0  0  0
  -27.6313  -13.0697   19.7181 C   0  0  2  0  0  0  0  0  0  0  0  0
  -25.5890  -30.6439   21.3806 C   0  0  0  0  0  0  0  0  0  0  0  0
  -31.0287  -29.5939   17.7504 C   0  0  0  0  0  0  0  0  0  0  0  0
  -29.9943  -30.4192   19.8757 C   0  0  0  0  0  0  0  0  0  0  0  0
  -29.4038  -31.4944   17.7037 C   0  0  0  0  0  0  0  0  0  0  0  0
  -23.8852  -27.8402   19.4538 C   0  0  0  0  0  0  0  0  0  0  0  0
  -30.8474  -16.8079   21.8869 C   0  0  0  0  0  0  0  0  0  0  0  0
  -28.5239  -29.1815   18.2214 C   0  0  1  0  0  0  0  0  0  0  0  0
  -25.3291  -29.7434   20.1830 C   0  0  2  0  0  0  0  0  0  0  0  0
  -29.7335  -30.1455   18.3791 C   0  0  0  0  0  0  0  0  0  0  0  0
  -25.8034  -11.5301   20.3270 N   0  0  0  0  0  0  0  0  0  0  0  0
  -26.2092  -12.8022   20.1751 N   0  0  0  0  0  0  0  0  0  0  0  0
  -28.3106  -27.5018   16.4167 N   0  0  0  0  0  0  0  0  0  0  0  0
  -29.9582  -13.5073   20.4126 N   0  0  0  0  0  0  0  0  0  0  0  0
  -25.4878  -15.0504   20.3650 N   0  0  0  0  0  0  0  0  0  0  0  0
  -21.8370  -12.6796   21.5681 N   0  0  0  0  0  0  0  0  0  0  0  0
  -29.8207  -27.4034   13.1856 N   0  0  0  0  0  0  0  0  0  0  0  0
  -27.2774  -29.6899   18.7837 N   0  0  0  0  0  0  0  0  0  0  0  0
  -30.1610  -15.5921   21.5110 N   0  0  0  0  0  0  0  0  0  0  0  0
  -24.2582  -28.7735   20.5479 N   0  3  0  0  0  0  0  0  0  0  0  0
  -22.6615  -14.7958   21.2506 O   0  0  0  0  0  0  0  0  0  0  0  0
  -30.7449  -21.4619   17.3263 O   0  0  0  0  0  0  0  0  0  0  0  0
  -30.5270  -26.6247   15.2634 O   0  0  0  0  0  0  0  0  0  0  0  0
  -27.9408  -29.7654   15.9975 O   0  0  0  0  0  0  0  0  0  0  0  0
  -26.9275  -27.9331   20.2562 O   0  0  0  0  0  0  0  0  0  0  0  0
  -31.8945  -14.7736   20.2532 O   0  0  0  0  0  0  0  0  0  0  0  0
  -21.4434   -7.1272   21.7949 O   0  0  0  0  0  0  0  0  0  0  0  0
  -28.6379  -21.6386   18.3056 O   0  0  0  0  0  0  0  0  0  1  0  0
  -23.7544   -3.0870   24.7512 F   0  0  0  0  0  0  0  0  0  0  0  0
  -20.3511   -6.3314   24.2066 F   0  0  0  0  0  0  0  0  0  0  0  0
  1  2  1  0  0  0  0
  1  7  2  0  0  0  0
  2  8  2  0  0  0  0
  3 12  2  0  0  0  0
  3 19  1  0  0  0  0
  4 13  1  0  0  0  0
  4 19  2  0  0  0  0
  5 10  2  0  0  0  0
  5 20  1  0  0  0  0
  6 11  1  0  0  0  0
  6 20  2  0  0  0  0
  7 22  1  0  0  0  0
  8 24  1  0  0  0  0
  9 14  2  0  0  0  0
  9 23  1  0  0  0  0
 10 26  1  0  0  0  0
 11 26  2  0  0  0  0
 12 27  1  0  0  0  0
 13 27  2  0  0  0  0
 14 28  1  0  0  0  0
 15 16  2  0  0  0  0
 15 29  1  0  0  0  0
 16 30  1  0  0  0  0
 17 25  1  0  0  0  0
 17 28  2  0  0  0  0
 18 30  2  0  0  0  0
 18 31  1  0  0  0  0
 19 32  1  0  0  0  0
 20 35  1  0  0  0  0
 21 32  1  0  0  0  0
 21 33  2  0  0  0  0
 21 34  1  0  0  0  0
 22 24  2  0  0  0  0
 22 40  1  0  0  0  0
 23 25  2  0  0  0  0
 23 41  1  0  0  0  0
 24 49  1  0  0  0  0
 25 42  1  0  0  0  0
 26 57  1  0  0  0  0
 27 77  1  0  0  0  0
 28 78  1  0  0  0  0
 29 31  2  0  0  0  0
 29 77  1  0  0  0  0
 30 79  1  0  0  0  0
 31 80  1  0  0  0  0
 32 61  2  0  0  0  0
 33 62  1  0  0  0  0
 33 65  1  0  0  0  0
 34 66  1  0  0  0  0
 34 71  2  0  0  0  0
 35 72  2  0  0  0  0
 35 78  1  0  0  0  0
 36 50  1  0  0  0  0
 36 67  1  0  0  0  0
 36 73  2  0  0  0  0
 37 58  1  0  0  0  0
 37 63  1  0  0  0  0
 37 74  2  0  0  0  0
 38 59  1  0  0  0  0
 38 68  1  0  0  0  0
 38 75  2  0  0  0  0
 39 64  1  0  0  0  0
 39 69  1  0  0  0  0
 39 76  2  0  0  0  0
 40 43  1  0  0  0  0
 41 50  1  0  0  0  0
 42 63  1  0  0  0  0
 43 45  1  0  0  0  0
 44 46  1  0  0  0  0
 44 47  1  0  0  0  0
 45 49  1  0  0  0  0
 46 51  1  0  0  0  0
 47 64  1  0  0  0  0
 48 51  1  0  0  0  0
 48 64  1  0  0  0  0
 49 67  1  0  0  0  0
 50 63  1  0  0  0  0
 51 62  1  0  0  0  0
 52 59  1  0  0  0  0
 53 60  1  0  0  0  0
 54 60  1  0  0  0  0
 55 60  1  0  0  0  0
 56 70  1  0  0  0  0
 57 69  1  0  0  0  0
 58 60  1  0  0  0  0
 58 68  1  0  0  0  0
 59 70  1  0  0  0  0
 61 62  1  0  0  0  0
M  CHG  1  70   1
M  ISO  4  35 101  39 100  69 100  78 101
M  END
> <Batch ID>
0002

> <Smiles>
CNC(C)C(=O)NC(C(=O)N1Cc2cc([101O:1][101C:1](=O)c3ccc(C[100NH:0][100C:0](=O)N4CCCC(n5nc(-c6ccc(Oc7ccc(F)cc7F)cc6)c(C(N)=O)c5N)C4)cc3)ccc2CC1C(=O)NC1CCCc2ccccc21)C(C)(C)C

> <Shape>
0.255

> <Color>
0.207

> <Negative vol penalty>
0.000

$$$$

  -OEChem-04042320173D

 81 89  0     1  0  0  0  0  0999 V2000
  -29.7203  -32.0696   25.8490 C   0  0  0  0  0  0  0  0  0  0  0  0
  -30.0013  -30.7277   25.6129 C   0  0  0  0  0  0  0  0  0  0  0  0
  -23.0785   -9.8505   19.9501 C   0  0  0  0  0  0  0  0  0  0  0  0
  -23.8381   -9.8728   22.2434 C   0  0  0  0  0  0  0  0  0  0  0  0
  -28.5902  -32.6547   25.2794 C   0  0  0  0  0  0  0  0  0  0  0  0
  -29.1517  -29.9698   24.8079 C   0  0  0  0  0  0  0  0  0  0  0  0
  -30.7513  -25.4458   21.0025 C   0  0  0  0  0  0  0  0  0  0  0  0
  -31.2990  -19.0878   20.5595 C   0  0  0  0  0  0  0  0  0  0  0  0
  -31.1359  -17.7026   20.5612 C   0  0  0  0  0  0  0  0  0  0  0  0
  -22.3371   -8.6972   20.2068 C   0  0  0  0  0  0  0  0  0  0  0  0
  -23.0967   -8.7195   22.5002 C   0  0  0  0  0  0  0  0  0  0  0  0
  -30.7353  -24.0581   21.1359 C   0  0  0  0  0  0  0  0  0  0  0  0
  -19.8702   -7.9182   23.1071 C   0  0  0  0  0  0  0  0  0  0  0  0
  -19.1132   -7.8836   24.2781 C   0  0  0  0  0  0  0  0  0  0  0  0
  -28.5913  -23.9828   20.0328 C   0  0  0  0  0  0  0  0  0  0  0  0
  -29.5027  -17.8971   22.3309 C   0  0  0  0  0  0  0  0  0  0  0  0
  -20.3588   -5.9533   25.0263 C   0  0  0  0  0  0  0  0  0  0  0  0
  -23.8290  -10.4383   20.9684 C   0  0  0  0  0  0  0  0  0  0  0  0
  -24.1654  -12.9634   20.8334 C   0  0  0  0  0  0  0  0  0  0  0  0
  -27.7315  -31.9060   24.4591 C   0  0  0  0  0  0  0  0  0  0  0  0
  -29.6806  -26.1145   20.3919 C   0  0  0  0  0  0  0  0  0  0  0  0
  -28.0083  -30.5450   24.2278 C   0  0  0  0  0  0  0  0  0  0  0  0
  -28.5973  -25.3788   19.8905 C   0  0  0  0  0  0  0  0  0  0  0  0
  -30.5640  -19.8778   21.4435 C   0  0  0  0  0  0  0  0  0  0  0  0
  -29.6658  -19.2824   22.3292 C   0  0  0  0  0  0  0  0  0  0  0  0
  -30.2378  -17.1072   21.4469 C   0  0  0  0  0  0  0  0  0  0  0  0
  -22.3462   -8.1318   21.4819 C   0  0  0  0  0  0  0  0  0  0  0  0
  -29.6539  -23.3266   20.6537 C   0  0  0  0  0  0  0  0  0  0  0  0
  -20.8715   -6.9704   22.8956 C   0  0  0  0  0  0  0  0  0  0  0  0
  -19.3575   -6.9012   25.2377 C   0  0  0  0  0  0  0  0  0  0  0  0
  -21.1157   -5.9879   23.8552 C   0  0  0  0  0  0  0  0  0  0  0  0
  -24.5955  -11.6293   20.7037 C   0  0  0  0  0  0  0  0  0  0  0  0
  -25.2559  -13.7131   20.4658 C   0  0  0  0  0  0  0  0  0  0  0  0
  -22.8937  -13.4789   21.2491 C   0  0  0  0  0  0  0  0  0  0  0  0
  -27.5630  -28.2892   21.3354 C   0  0  0  0  0  0  0  0  0  0  0  0
  -26.7075  -28.2462   18.2067 C   0  0  0  0  0  0  0  0  0  0  0  0
  -26.6224  -26.5447   15.2496 C   0  0  0  0  0  0  0  0  0  0  0  0
  -30.7198  -14.7717   20.6348 C   0  0  0  0  0  0  0  0  0  0  0  0
  -26.4964  -32.5698   23.9038 C   0  0  0  0  0  0  0  0  0  0  0  0
  -29.7253  -27.6095   20.2317 C   0  0  0  0  0  0  0  0  0  0  0  0
  -27.4324  -26.0471   19.2088 C   0  0  0  0  0  0  0  0  0  0  0  0
  -25.8506  -31.7941   22.7586 C   0  0  0  0  0  0  0  0  0  0  0  0
  -29.6109  -12.3414   18.2808 C   0  0  0  0  0  0  0  0  0  0  0  0
  -25.7395  -30.3143   23.1119 C   0  0  0  0  0  0  0  0  0  0  0  0
  -28.1719  -12.0492   18.7120 C   0  0  0  0  0  0  0  0  0  0  0  0
  -30.5254  -12.5793   19.4812 C   0  0  0  0  0  0  0  0  0  0  0  0
  -28.6167  -13.3078   20.8579 C   0  0  0  0  0  0  0  0  0  0  0  0
  -27.1242  -29.6962   23.3401 C   0  0  1  0  0  0  0  0  0  0  0  0
  -28.3444  -28.2329   20.0533 C   0  0  1  0  0  0  0  0  0  0  0  0
  -27.6444  -13.1254   19.6811 C   0  0  2  0  0  0  0  0  0  0  0  0
  -29.1832  -19.7775   24.7532 C   0  0  0  0  0  0  0  0  0  0  0  0
  -27.3518  -19.9914   23.0340 C   0  0  0  0  0  0  0  0  0  0  0  0
  -25.8251  -26.7530   12.8793 C   0  0  0  0  0  0  0  0  0  0  0  0
  -23.8458  -27.7205   19.1256 C   0  0  0  0  0  0  0  0  0  0  0  0
  -23.3010  -27.0048   16.7891 C   0  0  0  0  0  0  0  0  0  0  0  0
  -24.0525  -29.3417   17.2327 C   0  0  0  0  0  0  0  0  0  0  0  0
  -29.3711  -26.2971   14.1809 C   0  0  0  0  0  0  0  0  0  0  0  0
  -30.7572  -21.3656   21.4236 C   0  0  0  0  0  0  0  0  0  1  0  0
  -28.8667  -20.1082   23.2832 C   0  0  0  0  0  0  0  0  0  0  0  0
  -25.7268  -27.4529   17.3774 C   0  0  1  0  0  0  0  0  0  0  0  0
  -26.9882  -26.9618   13.8366 C   0  0  2  0  0  0  0  0  0  0  0  0
  -24.2524  -27.8673   17.6457 C   0  0  0  0  0  0  0  0  0  0  0  0
  -25.8607  -11.5337   20.2861 N   0  0  0  0  0  0  0  0  0  0  0  0
  -26.2348  -12.8173   20.1502 N   0  0  0  0  0  0  0  0  0  0  0  0
  -27.5198  -27.5113   19.0820 N   0  0  0  0  0  0  0  0  0  0  0  0
  -29.9641  -13.6142   20.3524 N   0  0  0  0  0  0  0  0  0  0  0  0
  -25.4634  -15.0446   20.3849 N   0  0  0  0  0  0  0  0  0  0  0  0
  -21.8837  -12.5695   21.5917 N   0  0  0  0  0  0  0  0  0  0  0  0
  -30.0703  -15.7002   21.4477 N   0  0  0  0  0  0  0  0  0  0  0  0
  -27.7767  -29.4370   22.0746 N   0  0  0  0  0  0  0  0  0  0  0  0
  -26.1476  -27.6072   15.9890 N   0  0  0  0  0  0  0  0  0  0  0  0
  -28.1493  -26.1667   13.3460 N   0  3  0  0  0  0  0  0  0  0  0  0
  -22.6547  -14.7093   21.2991 O   0  0  0  0  0  0  0  0  0  0  0  0
  -26.8199  -27.3608   21.6314 O   0  0  0  0  0  0  0  0  0  0  0  0
  -26.7562  -29.4719   18.0774 O   0  0  0  0  0  0  0  0  0  0  0  0
  -26.7422  -25.3908   15.6556 O   0  0  0  0  0  0  0  0  0  0  0  0
  -31.8485  -14.9401   20.1663 O   0  0  0  0  0  0  0  0  0  0  0  0
  -21.6227   -7.0065   21.7328 O   0  0  0  0  0  0  0  0  0  0  0  0
  -29.6355  -21.9721   20.7832 O   0  0  0  0  0  0  0  0  0  1  0  0
  -18.6315   -6.8690   26.3629 F   0  0  0  0  0  0  0  0  0  0  0  0
  -22.0771   -5.0753   23.6581 F   0  0  0  0  0  0  0  0  0  0  0  0
  1  2  1  0  0  0  0
  1  5  2  0  0  0  0
  2  6  2  0  0  0  0
  3 10  2  0  0  0  0
  3 18  1  0  0  0  0
  4 11  1  0  0  0  0
  4 18  2  0  0  0  0
  5 20  1  0  0  0  0
  6 22  1  0  0  0  0
  7 12  2  0  0  0  0
  7 21  1  0  0  0  0
  8  9  2  0  0  0  0
  8 24  1  0  0  0  0
  9 26  1  0  0  0  0
 10 27  1  0  0  0  0
 11 27  2  0  0  0  0
 12 28  1  0  0  0  0
 13 14  2  0  0  0  0
 13 29  1  0  0  0  0
 14 30  1  0  0  0  0
 15 23  1  0  0  0  0
 15 28  2  0  0  0  0
 16 25  1  0  0  0  0
 16 26  2  0  0  0  0
 17 30  2  0  0  0  0
 17 31  1  0  0  0  0
 18 32  1  0  0  0  0
 19 32  1  0  0  0  0
 19 33  2  0  0  0  0
 19 34  1  0  0  0  0
 20 22  2  0  0  0  0
 20 39  1  0  0  0  0
 21 23  2  0  0  0  0
 21 40  1  0  0  0  0
 22 48  1  0  0  0  0
 23 41  1  0  0  0  0
 24 25  2  0  0  0  0
 24 58  1  0  0  0  0
 25 59  1  0  0  0  0
 26 69  1  0  0  0  0
 27 78  1  0  0  0  0
 28 79  1  0  0  0  0
 29 31  2  0  0  0  0
 29 78  1  0  0  0  0
 30 80  1  0  0  0  0
 31 81  1  0  0  0  0
 32 63  2  0  0  0  0
 33 64  1  0  0  0  0
 33 67  1  0  0  0  0
 34 68  1  0  0  0  0
 34 73  2  0  0  0  0
 35 49  1  0  0  0  0
 35 70  1  0  0  0  0
 35 74  2  0  0  0  0
 36 60  1  0  0  0  0
 36 65  1  0  0  0  0
 36 75  2  0  0  0  0
 37 61  1  0  0  0  0
 37 71  1  0  0  0  0
 37 76  2  0  0  0  0
 38 66  1  0  0  0  0
 38 69  1  0  0  0  0
 38 77  2  0  0  0  0
 39 42  1  0  0  0  0
 40 49  1  0  0  0  0
 41 65  1  0  0  0  0
 42 44  1  0  0  0  0
 43 45  1  0  0  0  0
 43 46  1  0  0  0  0
 44 48  1  0  0  0  0
 45 50  1  0  0  0  0
 46 66  1  0  0  0  0
 47 50  1  0  0  0  0
 47 66  1  0  0  0  0
 48 70  1  0  0  0  0
 49 65  1  0  0  0  0
 50 64  1  0  0  0  0
 51 59  1  0  0  0  0
 52 59  1  0  0  0  0
 53 61  1  0  0  0  0
 54 62  1  0  0  0  0
 55 62  1  0  0  0  0
 56 62  1  0  0  0  0
 57 72  1  0  0  0  0
 58 79  1  0  0  0  0
 60 62  1  0  0  0  0
 60 71  1  0  0  0  0
 61 72  1  0  0  0  0
 63 64  1  0  0  0  0
M  CHG  1  72   1
M  ISO  4  38 100  58 101  69 100  79 101
M  END
> <Batch ID>
0002

> <Smiles>
CNC(C)C(=O)NC(C(=O)N1Cc2cc([101O:1][101CH2:1]c3ccc([100NH:0][100C:0](=O)N4CCCC(n5nc(-c6ccc(Oc7ccc(F)cc7F)cc6)c(C(N)=O)c5N)C4)cc3C(C)C)ccc2CC1C(=O)NC1CCCc2ccccc21)C(C)(C)C

> <Shape>
0.318

> <Color>
0.197

> <Negative vol penalty>
0.000

$$$$

  -OEChem-04042320173D

 89 98  0     1  0  0  0  0  0999 V2000
  -25.0895  -16.1643   25.4979 C   0  0  0  0  0  0  0  0  0  0  0  0
  -25.7833  -29.3183   25.9114 C   0  0  0  0  0  0  0  0  0  0  0  0
  -25.8522  -28.1627   25.1398 C   0  0  0  0  0  0  0  0  0  0  0  0
  -26.1451  -15.7808   24.6707 C   0  0  0  0  0  0  0  0  0  0  0  0
  -24.3122  -17.2744   25.1674 C   0  0  0  0  0  0  0  0  0  0  0  0
  -22.9260   -9.9784   20.2079 C   0  0  0  0  0  0  0  0  0  0  0  0
  -23.7074  -10.1381   22.4885 C   0  0  0  0  0  0  0  0  0  0  0  0
  -25.3907  -30.5223   25.3280 C   0  0  0  0  0  0  0  0  0  0  0  0
  -25.5275  -28.2102   23.7845 C   0  0  0  0  0  0  0  0  0  0  0  0
  -28.8482  -25.6983   20.9022 C   0  0  0  0  0  0  0  0  0  0  0  0
  -26.4234  -16.5073   23.5131 C   0  0  0  0  0  0  0  0  0  0  0  0
  -24.5905  -18.0009   24.0097 C   0  0  0  0  0  0  0  0  0  0  0  0
  -30.7301  -18.0873   23.6110 C   0  0  0  0  0  0  0  0  0  0  0  0
  -22.1265   -8.8904   20.5580 C   0  0  0  0  0  0  0  0  0  0  0  0
  -22.9078   -9.0502   22.8387 C   0  0  0  0  0  0  0  0  0  0  0  0
  -28.7414  -24.3085   20.8717 C   0  0  0  0  0  0  0  0  0  0  0  0
  -19.1554   -8.3724   22.0869 C   0  0  0  0  0  0  0  0  0  0  0  0
  -17.8433   -8.3535   21.6142 C   0  0  0  0  0  0  0  0  0  0  0  0
  -29.9937  -18.9766   24.3934 C   0  0  0  0  0  0  0  0  0  0  0  0
  -27.5795  -24.4501   18.7623 C   0  0  0  0  0  0  0  0  0  0  0  0
  -29.0181  -18.1677   21.9082 C   0  0  0  0  0  0  0  0  0  0  0  0
  -18.2898   -6.2800   20.4573 C   0  0  0  0  0  0  0  0  0  0  0  0
  -23.7166  -10.6022   21.1731 C   0  0  0  0  0  0  0  0  0  0  0  0
  -24.1862  -13.0872   20.8391 C   0  0  0  0  0  0  0  0  0  0  0  0
  -25.0704  -30.5865   23.9627 C   0  0  0  0  0  0  0  0  0  0  0  0
  -28.3109  -26.4763   19.8666 C   0  0  0  0  0  0  0  0  0  0  0  0
  -25.1290  -29.4159   23.1826 C   0  0  0  0  0  0  0  0  0  0  0  0
  -27.6831  -25.8494   18.7808 C   0  0  0  0  0  0  0  0  0  0  0  0
  -25.6461  -17.6175   23.1825 C   0  0  0  0  0  0  0  0  0  0  0  0
  -30.2424  -17.6828   22.3683 C   0  0  0  0  0  0  0  0  0  0  0  0
  -28.2816  -19.0571   22.6906 C   0  0  0  0  0  0  0  0  0  0  0  0
  -22.1173   -8.4263   21.8734 C   0  0  0  0  0  0  0  0  0  0  0  0
  -28.1045  -23.6844   19.8031 C   0  0  0  0  0  0  0  0  0  0  0  0
  -20.0348   -7.3451   21.7447 C   0  0  0  0  0  0  0  0  0  0  0  0
  -17.4104   -7.3073   20.7994 C   0  0  0  0  0  0  0  0  0  0  0  0
  -19.6020   -6.2989   20.9300 C   0  0  0  0  0  0  0  0  0  0  0  0
  -28.7694  -19.4615   23.9333 C   0  0  0  0  0  0  0  0  0  0  0  0
  -24.5432  -11.7258   20.8119 C   0  0  0  0  0  0  0  0  0  0  0  0
  -25.3118  -13.7459   20.4082 C   0  0  0  0  0  0  0  0  0  0  0  0
  -22.9480  -13.7016   21.2198 C   0  0  0  0  0  0  0  0  0  0  0  0
  -26.0576  -28.7102   19.6765 C   0  0  0  0  0  0  0  0  0  0  0  0
  -27.0967  -28.9452   16.6127 C   0  0  0  0  0  0  0  0  0  0  0  0
  -28.6559  -27.4677   13.9608 C   0  0  0  0  0  0  0  0  0  0  0  0
  -30.8422  -14.4912   20.4810 C   0  0  0  0  0  0  0  0  0  0  0  0
  -24.6057  -31.9009   23.3872 C   0  0  0  0  0  0  0  0  0  0  0  0
  -28.4580  -27.9729   19.9013 C   0  0  0  0  0  0  0  0  0  0  0  0
  -27.1075  -26.6383   17.6341 C   0  0  0  0  0  0  0  0  0  0  0  0
  -24.6396  -31.9438   21.8617 C   0  0  0  0  0  0  0  0  0  0  0  0
  -29.5608  -11.9773   18.3096 C   0  0  0  0  0  0  0  0  0  0  0  0
  -24.0211  -30.6773   21.2781 C   0  0  0  0  0  0  0  0  0  0  0  0
  -28.1145  -11.7959   18.7733 C   0  0  0  0  0  0  0  0  0  0  0  0
  -30.4996  -12.2501   19.4827 C   0  0  0  0  0  0  0  0  0  0  0  0
  -28.6513  -13.1925   20.8129 C   0  0  0  0  0  0  0  0  0  0  0  0
  -24.8086  -29.4322   21.7037 C   0  0  1  0  0  0  0  0  0  0  0  0
  -27.4214  -28.6950   19.0461 C   0  0  1  0  0  0  0  0  0  0  0  0
  -27.6582  -12.9706   19.6593 C   0  0  2  0  0  0  0  0  0  0  0  0
  -29.3228  -27.8951   11.5796 C   0  0  0  0  0  0  0  0  0  0  0  0
  -24.2033  -28.5408   15.7324 C   0  0  0  0  0  0  0  0  0  0  0  0
  -25.0480  -28.0299   13.4315 C   0  0  0  0  0  0  0  0  0  0  0  0
  -25.4549  -30.2761   14.4374 C   0  0  0  0  0  0  0  0  0  0  0  0
  -31.5288  -27.1203   14.5811 C   0  0  0  0  0  0  0  0  0  0  0  0
  -25.9473  -18.4053   21.9285 C   0  0  0  0  0  0  0  0  0  0  0  0
  -31.0301  -16.7316   21.5320 C   0  0  0  0  0  0  0  0  0  0  0  0
  -27.1158  -20.3716   20.8463 C   0  0  0  0  0  0  0  0  0  0  0  0
  -27.9258  -21.6525   21.0260 C   0  0  0  0  0  0  0  0  0  1  0  0
  -26.9512  -19.5632   22.1518 C   0  0  2  0  0  0  0  0  0  0  0  0
  -26.7364  -28.2778   15.3074 C   0  0  1  0  0  0  0  0  0  0  0  0
  -29.7548  -27.9599   13.0363 C   0  0  2  0  0  0  0  0  0  0  0  0
  -25.3697  -28.7661   14.7496 C   0  0  0  0  0  0  0  0  0  0  0  0
  -25.7974  -11.5297   20.3965 N   0  0  0  0  0  0  0  0  0  0  0  0
  -26.2383  -12.7767   20.1585 N   0  0  0  0  0  0  0  0  0  0  0  0
  -27.2708  -28.0991   17.7170 N   0  0  0  0  0  0  0  0  0  0  0  0
  -30.0111  -13.3764   20.2818 N   0  0  0  0  0  0  0  0  0  0  0  0
  -25.5895  -15.0539   20.2222 N   0  0  0  0  0  0  0  0  0  0  0  0
  -21.8941  -12.8777   21.6378 N   0  0  0  0  0  0  0  0  0  0  0  0
  -26.0199  -29.3085   20.9215 N   0  0  0  0  0  0  0  0  0  0  0  0
  -27.8634  -28.5032   14.4089 N   0  0  0  0  0  0  0  0  0  0  0  0
  -30.2996  -15.5172   21.2449 N   0  0  0  0  0  0  0  0  0  0  0  0
  -30.9808  -27.1287   13.2003 N   0  3  0  0  0  0  0  0  0  0  0  0
  -22.7757  -14.9433   21.1745 O   0  0  0  0  0  0  0  0  0  0  0  0
  -25.1094  -28.2169   19.0772 O   0  0  0  0  0  0  0  0  0  0  0  0
  -27.2261  -30.1714   16.6494 O   0  0  0  0  0  0  0  0  0  0  0  0
  -28.5125  -26.2825   14.2530 O   0  0  0  0  0  0  0  0  0  0  0  0
  -31.9812  -14.5688   20.0081 O   0  0  0  0  0  0  0  0  0  0  0  0
  -21.3370   -7.3648   22.2155 O   0  0  0  0  0  0  0  0  0  0  0  0
  -27.9983  -22.3281   19.7711 O   0  0  0  0  0  0  0  0  0  1  0  0
  -16.1499   -7.2885   20.3468 F   0  0  0  0  0  0  0  0  0  0  0  0
  -20.4419   -5.3086   20.5989 F   0  0  0  0  0  0  0  0  0  0  0  0
  -27.8858  -20.5606   24.9284 Cl  0  0  0  0  0  0  0  0  0  0  0  0
  1  4  1  0  0  0  0
  1  5  2  0  0  0  0
  2  3  1  0  0  0  0
  2  8  2  0  0  0  0
  3  9  2  0  0  0  0
  4 11  2  0  0  0  0
  5 12  1  0  0  0  0
  6 14  2  0  0  0  0
  6 23  1  0  0  0  0
  7 15  1  0  0  0  0
  7 23  2  0  0  0  0
  8 25  1  0  0  0  0
  9 27  1  0  0  0  0
 10 16  2  0  0  0  0
 10 26  1  0  0  0  0
 11 29  1  0  0  0  0
 12 29  2  0  0  0  0
 13 19  2  0  0  0  0
 13 30  1  0  0  0  0
 14 32  1  0  0  0  0
 15 32  2  0  0  0  0
 16 33  1  0  0  0  0
 17 18  2  0  0  0  0
 17 34  1  0  0  0  0
 18 35  1  0  0  0  0
 19 37  1  0  0  0  0
 20 28  1  0  0  0  0
 20 33  2  0  0  0  0
 21 30  2  0  0  0  0
 21 31  1  0  0  0  0
 22 35  2  0  0  0  0
 22 36  1  0  0  0  0
 23 38  1  0  0  0  0
 24 38  1  0  0  0  0
 24 39  2  0  0  0  0
 24 40  1  0  0  0  0
 25 27  2  0  0  0  0
 25 45  1  0  0  0  0
 26 28  2  0  0  0  0
 26 46  1  0  0  0  0
 27 54  1  0  0  0  0
 28 47  1  0  0  0  0
 29 62  1  0  0  0  0
 30 63  1  0  0  0  0
 31 37  2  0  0  0  0
 31 66  1  0  0  0  0
 32 85  1  0  0  0  0
 33 86  1  0  0  0  0
 34 36  2  0  0  0  0
 34 85  1  0  0  0  0
 35 87  1  0  0  0  0
 36 88  1  0  0  0  0
 37 89  1  0  0  0  0
 38 70  2  0  0  0  0
 39 71  1  0  0  0  0
 39 74  1  0  0  0  0
 40 75  1  0  0  0  0
 40 80  2  0  0  0  0
 41 55  1  0  0  0  0
 41 76  1  0  0  0  0
 41 81  2  0  0  0  0
 42 67  1  0  0  0  0
 42 72  1  0  0  0  0
 42 82  2  0  0  0  0
 43 68  1  0  0  0  0
 43 77  1  0  0  0  0
 43 83  2  0  0  0  0
 44 73  1  0  0  0  0
 44 78  1  0  0  0  0
 44 84  2  0  0  0  0
 45 48  1  0  0  0  0
 46 55  1  0  0  0  0
 47 72  1  0  0  0  0
 48 50  1  0  0  0  0
 49 51  1  0  0  0  0
 49 52  1  0  0  0  0
 50 54  1  0  0  0  0
 51 56  1  0  0  0  0
 52 73  1  0  0  0  0
 53 56  1  0  0  0  0
 53 73  1  0  0  0  0
 54 76  1  0  0  0  0
 55 72  1  0  0  0  0
 56 71  1  0  0  0  0
 57 68  1  0  0  0  0
 58 69  1  0  0  0  0
 59 69  1  0  0  0  0
 60 69  1  0  0  0  0
 61 79  1  0  0  0  0
 62 66  1  0  0  0  0
 63 78  1  0  0  0  0
 64 65  1  0  0  0  0
 64 66  1  0  0  0  0
 65 86  1  0  0  0  0
 67 69  1  0  0  0  0
 67 77  1  0  0  0  0
 68 79  1  0  0  0  0
 70 71  1  0  0  0  0
M  CHG  1  79   1
M  ISO  4  44 100  65 101  78 100  86 101
M  END
> <Batch ID>
0002

> <Smiles>
CNC(C)C(=O)NC(C(=O)N1Cc2cc([101O:1][101CH2:1]CC(Cc3ccccc3)c3cc(C[100NH:0][100C:0](=O)N4CCCC(n5nc(-c6ccc(Oc7ccc(F)cc7F)cc6)c(C(N)=O)c5N)C4)ccc3Cl)ccc2CC1C(=O)NC1CCCc2ccccc21)C(C)(C)C

> <Shape>
0.257

> <Color>
0.181

> <Negative vol penalty>
0.000

$$$$

  -OEChem-04042320173D

 73 80  0     1  0  0  0  0  0999 V2000
  -28.7807  -11.4027   19.8413 C   0  0  0  0  0  0  0  0  0  0  0  0
  -28.8747  -12.6791   19.2960 C   0  0  0  0  0  0  0  0  0  0  0  0
  -25.9114  -28.9143   20.8188 C   0  0  0  0  0  0  0  0  0  0  0  0
  -25.2447  -26.5922   20.8056 C   0  0  0  0  0  0  0  0  0  0  0  0
  -27.5741  -10.9659   20.3863 C   0  0  0  0  0  0  0  0  0  0  0  0
  -27.7616  -13.5191   19.2943 C   0  0  0  0  0  0  0  0  0  0  0  0
  -28.8908  -18.2435   20.7261 C   0  0  0  0  0  0  0  0  0  0  0  0
  -24.5811  -29.2972   20.6476 C   0  0  0  0  0  0  0  0  0  0  0  0
  -23.9144  -26.9751   20.6344 C   0  0  0  0  0  0  0  0  0  0  0  0
  -29.5037  -19.0657   19.7816 C   0  0  0  0  0  0  0  0  0  0  0  0
  -20.2991  -27.3512   20.5553 C   0  0  0  0  0  0  0  0  0  0  0  0
  -19.3346  -26.7145   21.3363 C   0  0  0  0  0  0  0  0  0  0  0  0
  -27.3782  -20.1087   19.3193 C   0  0  0  0  0  0  0  0  0  0  0  0
  -20.4277  -27.5133   23.3374 C   0  0  0  0  0  0  0  0  0  0  0  0
  -26.2432  -27.5618   20.8978 C   0  0  0  0  0  0  0  0  0  0  0  0
  -28.2943  -26.9641   22.2918 C   0  0  0  0  0  0  0  0  0  0  0  0
  -26.4483  -11.8044   20.4000 C   0  0  0  0  0  0  0  0  0  0  0  0
  -27.5128  -18.3403   20.9669 C   0  0  0  0  0  0  0  0  0  0  0  0
  -26.5384  -13.0925   19.8388 C   0  0  0  0  0  0  0  0  0  0  0  0
  -26.7507  -19.2883   20.2692 C   0  0  0  0  0  0  0  0  0  0  0  0
  -23.5826  -28.3276   20.5554 C   0  0  0  0  0  0  0  0  0  0  0  0
  -28.7469  -19.9965   19.0760 C   0  0  0  0  0  0  0  0  0  0  0  0
  -21.3280  -28.0688   21.1653 C   0  0  0  0  0  0  0  0  0  0  0  0
  -19.3988  -26.7956   22.7274 C   0  0  0  0  0  0  0  0  0  0  0  0
  -21.3923  -28.1499   22.5564 C   0  0  0  0  0  0  0  0  0  0  0  0
  -27.6173  -27.1656   21.0741 C   0  0  0  0  0  0  0  0  0  0  0  0
  -29.5659  -26.6003   21.9215 C   0  0  0  0  0  0  0  0  0  0  0  0
  -27.8165  -27.0941   23.6374 C   0  0  0  0  0  0  0  0  0  0  0  0
  -25.0394  -16.3661   20.6693 C   0  0  0  0  0  0  0  0  0  0  0  0
  -23.4301  -18.7916   22.1009 C   0  0  0  0  0  0  0  0  0  0  0  0
  -23.2352  -22.1273   22.7949 C   0  0  0  0  0  0  0  0  0  0  0  0
  -31.8053  -24.0606   16.9833 C   0  0  0  0  0  0  0  0  0  0  0  0
  -25.1525  -11.2708   20.9575 C   0  0  0  0  0  0  0  0  0  0  0  0
  -26.8716  -17.4645   22.0082 C   0  0  0  0  0  0  0  0  0  0  0  0
  -25.2716  -19.4460   20.5052 C   0  0  0  0  0  0  0  0  0  0  0  0
  -24.1234  -12.3586   21.2544 C   0  0  0  0  0  0  0  0  0  0  0  0
  -32.7528  -27.1859   18.4013 C   0  0  0  0  0  0  0  0  0  0  0  0
  -24.0228  -13.3319   20.0842 C   0  0  0  0  0  0  0  0  0  0  0  0
  -31.6052  -27.5169   19.3570 C   0  0  0  0  0  0  0  0  0  0  0  0
  -32.2517  -26.4924   17.1365 C   0  0  0  0  0  0  0  0  0  0  0  0
  -30.2768  -25.6255   18.3290 C   0  0  0  0  0  0  0  0  0  0  0  0
  -25.3600  -14.0420   19.8407 C   0  0  1  0  0  0  0  0  0  0  0  0
  -25.3693  -17.2948   21.8034 C   0  0  1  0  0  0  0  0  0  0  0  0
  -30.7390  -26.2758   19.6442 C   0  0  2  0  0  0  0  0  0  0  0  0
  -21.7856  -23.8170   23.9528 C   0  0  0  0  0  0  0  0  0  0  0  0
  -21.4554  -18.6861   19.7772 C   0  0  0  0  0  0  0  0  0  0  0  0
  -20.6243  -20.9432   20.4723 C   0  0  0  0  0  0  0  0  0  0  0  0
  -20.4056  -19.0030   22.0249 C   0  0  0  0  0  0  0  0  0  0  0  0
  -25.3980  -22.8660   24.6752 C   0  0  0  0  0  0  0  0  0  0  0  0
  -31.2354  -21.6456   16.9357 C   0  0  0  0  0  0  0  0  0  0  0  0
  -30.7465  -20.6355   17.9583 C   0  0  0  0  0  0  0  0  0  1  0  0
  -22.6870  -20.0136   21.6176 C   0  0  1  0  0  0  0  0  0  0  0  0
  -22.9697  -22.8728   24.0904 C   0  0  2  0  0  0  0  0  0  0  0  0
  -21.3206  -19.6574   20.9669 C   0  0  0  0  0  0  0  0  0  0  0  0
  -28.3944  -26.9480   20.0099 N   0  0  0  0  0  0  0  0  0  0  0  0
  -29.5730  -26.6061   20.5576 N   0  0  0  0  0  0  0  0  0  0  0  0
  -24.6895  -18.5623   21.5289 N   0  0  0  0  0  0  0  0  0  0  0  0
  -31.4385  -25.3228   17.4784 N   0  0  0  0  0  0  0  0  0  0  0  0
  -30.6675  -26.2792   22.6327 N   0  0  0  0  0  0  0  0  0  0  0  0
  -26.4833  -27.4765   23.8389 N   0  0  0  0  0  0  0  0  0  0  0  0
  -25.5584  -15.0937   20.8148 N   0  0  0  0  0  0  0  0  0  0  0  0
  -22.5873  -20.9105   22.7639 N   0  0  0  0  0  0  0  0  0  0  0  0
  -30.9843  -23.0048   17.3602 N   0  0  0  0  0  0  0  0  0  0  0  0
  -24.1650  -23.6719   24.4825 N   0  3  0  0  0  0  0  0  0  0  0  0
  -28.5547  -26.8935   24.6315 O   0  0  0  0  0  0  0  0  0  0  0  0
  -24.3627  -16.7733   19.7323 O   0  0  0  0  0  0  0  0  0  0  0  0
  -22.9152  -18.0710   22.9596 O   0  0  0  0  0  0  0  0  0  0  0  0
  -23.9432  -22.5808   21.8985 O   0  0  0  0  0  0  0  0  0  0  0  0
  -32.7944  -23.8864   16.2633 O   0  0  0  0  0  0  0  0  0  0  0  0
  -22.2844  -28.7009   20.3885 O   0  0  0  0  0  0  0  0  0  0  0  0
  -29.3424  -20.7999   18.1530 O   0  0  0  0  0  0  0  0  0  1  0  0
  -18.4716  -26.1855   23.4772 F   0  0  0  0  0  0  0  0  0  0  0  0
  -22.3777  -28.8388   23.1481 F   0  0  0  0  0  0  0  0  0  0  0  0
  1  2  1  0  0  0  0
  1  5  2  0  0  0  0
  2  6  2  0  0  0  0
  3  8  2  0  0  0  0
  3 15  1  0  0  0  0
  4  9  1  0  0  0  0
  4 15  2  0  0  0  0
  5 17  1  0  0  0  0
  6 19  1  0  0  0  0
  7 10  2  0  0  0  0
  7 18  1  0  0  0  0
  8 21  1  0  0  0  0
  9 21  2  0  0  0  0
 10 22  1  0  0  0  0
 11 12  2  0  0  0  0
 11 23  1  0  0  0  0
 12 24  1  0  0  0  0
 13 20  1  0  0  0  0
 13 22  2  0  0  0  0
 14 24  2  0  0  0  0
 14 25  1  0  0  0  0
 15 26  1  0  0  0  0
 16 26  1  0  0  0  0
 16 27  2  0  0  0  0
 16 28  1  0  0  0  0
 17 19  2  0  0  0  0
 17 33  1  0  0  0  0
 18 20  2  0  0  0  0
 18 34  1  0  0  0  0
 19 42  1  0  0  0  0
 20 35  1  0  0  0  0
 21 70  1  0  0  0  0
 22 71  1  0  0  0  0
 23 25  2  0  0  0  0
 23 70  1  0  0  0  0
 24 72  1  0  0  0  0
 25 73  1  0  0  0  0
 26 55  2  0  0  0  0
 27 56  1  0  0  0  0
 27 59  1  0  0  0  0
 28 60  1  0  0  0  0
 28 65  2  0  0  0  0
 29 43  1  0  0  0  0
 29 61  1  0  0  0  0
 29 66  2  0  0  0  0
 30 52  1  0  0  0  0
 30 57  1  0  0  0  0
 30 67  2  0  0  0  0
 31 53  1  0  0  0  0
 31 62  1  0  0  0  0
 31 68  2  0  0  0  0
 32 58  1  0  0  0  0
 32 63  1  0  0  0  0
 32 69  2  0  0  0  0
 33 36  1  0  0  0  0
 34 43  1  0  0  0  0
 35 57  1  0  0  0  0
 36 38  1  0  0  0  0
 37 39  1  0  0  0  0
 37 40  1  0  0  0  0
 38 42  1  0  0  0  0
 39 44  1  0  0  0  0
 40 58  1  0  0  0  0
 41 44  1  0  0  0  0
 41 58  1  0  0  0  0
 42 61  1  0  0  0  0
 43 57  1  0  0  0  0
 44 56  1  0  0  0  0
 45 53  1  0  0  0  0
 46 54  1  0  0  0  0
 47 54  1  0  0  0  0
 48 54  1  0  0  0  0
 49 64  1  0  0  0  0
 50 51  1  0  0  0  0
 50 63  1  0  0  0  0
 51 71  1  0  0  0  0
 52 54  1  0  0  0  0
 52 62  1  0  0  0  0
 53 64  1  0  0  0  0
 55 56  1  0  0  0  0
M  CHG  1  64   1
M  ISO  4  32 100  51 101  63 100  71 101
M  END
> <Batch ID>
0002

> <Smiles>
CNC(C)C(=O)NC(C(=O)N1Cc2cc([101O:1][101CH2:1]C[100NH:0][100C:0](=O)N3CCCC(n4nc(-c5ccc(Oc6ccc(F)cc6F)cc5)c(C(N)=O)c4N)C3)ccc2CC1C(=O)NC1CCCc2ccccc21)C(C)(C)C

> <Shape>
0.226

> <Color>
0.066

> <Negative vol penalty>
0.000

$$$$

  -OEChem-04042320173D

 82 90  0     1  0  0  0  0  0999 V2000
  -40.3712  -24.0141   28.3017 C   0  0  0  0  0  0  0  0  0  0  0  0
  -39.5320  -23.1530   27.6021 C   0  0  0  0  0  0  0  0  0  0  0  0
  -23.2905   -9.7977   19.9136 C   0  0  0  0  0  0  0  0  0  0  0  0
  -23.7409   -9.9399   22.2830 C   0  0  0  0  0  0  0  0  0  0  0  0
  -40.0642  -25.3717   28.3829 C   0  0  0  0  0  0  0  0  0  0  0  0
  -38.3845  -23.6489   26.9841 C   0  0  0  0  0  0  0  0  0  0  0  0
  -37.7681  -21.8408   22.2942 C   0  0  0  0  0  0  0  0  0  0  0  0
  -31.8308  -17.3144   24.7337 C   0  0  0  0  0  0  0  0  0  0  0  0
  -22.5655   -8.6244   20.1218 C   0  0  0  0  0  0  0  0  0  0  0  0
  -23.0159   -8.7666   22.4912 C   0  0  0  0  0  0  0  0  0  0  0  0
  -37.2657  -20.5460   22.1718 C   0  0  0  0  0  0  0  0  0  0  0  0
  -19.7700   -7.8516   22.7088 C   0  0  0  0  0  0  0  0  0  0  0  0
  -30.7432  -16.5453   25.1474 C   0  0  0  0  0  0  0  0  0  0  0  0
  -18.8676   -7.8293   23.7721 C   0  0  0  0  0  0  0  0  0  0  0  0
  -35.0746  -21.4458   21.7151 C   0  0  0  0  0  0  0  0  0  0  0  0
  -32.8109  -15.3678   23.6910 C   0  0  0  0  0  0  0  0  0  0  0  0
  -20.0756   -5.9840   24.7585 C   0  0  0  0  0  0  0  0  0  0  0  0
  -23.8782  -10.4554   20.9942 C   0  0  0  0  0  0  0  0  0  0  0  0
  -24.1345  -12.9857   20.7945 C   0  0  0  0  0  0  0  0  0  0  0  0
  -38.9175  -25.8861   27.7575 C   0  0  0  0  0  0  0  0  0  0  0  0
  -36.9237  -22.9495   22.1384 C   0  0  0  0  0  0  0  0  0  0  0  0
  -38.0611  -25.0144   27.0582 C   0  0  0  0  0  0  0  0  0  0  0  0
  -35.5692  -22.7536   21.8334 C   0  0  0  0  0  0  0  0  0  0  0  0
  -31.7233  -14.5986   24.1047 C   0  0  0  0  0  0  0  0  0  0  0  0
  -32.8647  -16.7257   24.0054 C   0  0  0  0  0  0  0  0  0  0  0  0
  -22.4282   -8.1088   21.4106 C   0  0  0  0  0  0  0  0  0  0  0  0
  -35.9182  -20.3483   21.8851 C   0  0  0  0  0  0  0  0  0  0  0  0
  -20.8252   -6.9401   22.6702 C   0  0  0  0  0  0  0  0  0  0  0  0
  -19.0204   -6.8955   24.7970 C   0  0  0  0  0  0  0  0  0  0  0  0
  -30.6895  -15.1874   24.8330 C   0  0  0  0  0  0  0  0  0  0  0  0
  -20.9780   -6.0063   23.6950 C   0  0  0  0  0  0  0  0  0  0  0  0
  -24.6277  -11.6672   20.7797 C   0  0  0  0  0  0  0  0  0  0  0  0
  -25.2350  -13.7668   20.5392 C   0  0  0  0  0  0  0  0  0  0  0  0
  -22.8009  -13.4617   21.0190 C   0  0  0  0  0  0  0  0  0  0  0  0
  -35.9926  -25.3410   24.0139 C   0  0  0  0  0  0  0  0  0  0  0  0
  -34.5848  -26.4099   21.2940 C   0  0  0  0  0  0  0  0  0  0  0  0
  -33.2957  -25.6807   18.2194 C   0  0  0  0  0  0  0  0  0  0  0  0
  -31.1070  -12.9313   21.3596 C   0  0  0  0  0  0  0  0  0  0  0  0
  -38.6020  -27.3527   27.9128 C   0  0  0  0  0  0  0  0  0  0  0  0
  -37.4867  -24.3401   22.2470 C   0  0  0  0  0  0  0  0  0  0  0  0
  -34.6252  -23.9106   21.6368 C   0  0  0  0  0  0  0  0  0  0  0  0
  -37.5659  -27.8620   26.9141 C   0  0  0  0  0  0  0  0  0  0  0  0
  -29.4574  -13.6674   18.2914 C   0  0  0  0  0  0  0  0  0  0  0  0
  -36.3805  -26.9048   26.8399 C   0  0  0  0  0  0  0  0  0  0  0  0
  -27.9880  -13.3572   18.5825 C   0  0  0  0  0  0  0  0  0  0  0  0
  -30.3918  -12.6894   19.0002 C   0  0  0  0  0  0  0  0  0  0  0  0
  -28.7056  -12.2588   20.7452 C   0  0  0  0  0  0  0  0  0  0  0  0
  -36.8204  -25.5186   26.3536 C   0  0  1  0  0  0  0  0  0  0  0  0
  -36.4290  -25.3888   22.5769 C   0  0  1  0  0  0  0  0  0  0  0  0
  -27.7265  -13.2525   20.0971 C   0  0  2  0  0  0  0  0  0  0  0  0
  -32.1830  -26.7567   16.2442 C   0  0  0  0  0  0  0  0  0  0  0  0
  -31.9730  -26.5817   22.8621 C   0  0  0  0  0  0  0  0  0  0  0  0
  -30.7538  -26.7279   20.6802 C   0  0  0  0  0  0  0  0  0  0  0  0
  -32.3889  -28.5018   21.3146 C   0  0  0  0  0  0  0  0  0  0  0  0
  -35.4891  -24.8802   16.4008 C   0  0  0  0  0  0  0  0  0  0  0  0
  -31.6685  -13.1468   23.7674 C   0  0  0  0  0  0  0  0  0  0  0  0
  -35.0573  -16.9632   22.8385 C   0  0  0  0  0  0  0  0  0  0  0  0
  -36.0588  -18.0654   22.5366 C   0  0  0  0  0  0  0  0  0  1  0  0
  -33.2375  -26.2175   20.6408 C   0  0  1  0  0  0  0  0  0  0  0  0
  -33.5044  -26.3253   16.8610 C   0  0  2  0  0  0  0  0  0  0  0  0
  -32.1054  -26.9852   21.3800 C   0  0  0  0  0  0  0  0  0  0  0  0
  -25.9394  -11.6100   20.5342 N   0  0  0  0  0  0  0  0  0  0  0  0
  -26.2797  -12.9024   20.3924 N   0  0  0  0  0  0  0  0  0  0  0  0
  -35.2220  -25.2509   21.7594 N   0  0  0  0  0  0  0  0  0  0  0  0
  -30.0925  -12.6383   20.4333 N   0  0  0  0  0  0  0  0  0  0  0  0
  -25.4013  -15.1019   20.4282 N   0  0  0  0  0  0  0  0  0  0  0  0
  -21.7894  -12.5237   21.2668 N   0  0  0  0  0  0  0  0  0  0  0  0
  -33.9445  -17.4898   23.5951 N   0  0  0  0  0  0  0  0  0  0  0  0
  -37.0193  -25.5255   24.9201 N   0  0  0  0  0  0  0  0  0  0  0  0
  -33.4037  -26.5989   19.2424 N   0  0  0  0  0  0  0  0  0  0  0  0
  -30.7373  -12.8659   22.6974 N   0  0  0  0  0  0  0  0  0  0  0  0
  -34.1674  -25.3688   15.9301 N   0  3  0  0  0  0  0  0  0  0  0  0
  -22.5115  -14.6818   20.9842 O   0  0  0  0  0  0  0  0  0  0  0  0
  -34.8116  -25.1522   24.2807 O   0  0  0  0  0  0  0  0  0  0  0  0
  -35.0577  -27.5458   21.3816 O   0  0  0  0  0  0  0  0  0  0  0  0
  -33.0568  -24.4832   18.3588 O   0  0  0  0  0  0  0  0  0  0  0  0
  -32.2557  -13.2344   21.0194 O   0  0  0  0  0  0  0  0  0  0  0  0
  -21.7207   -6.9640   21.6142 O   0  0  0  0  0  0  0  0  0  0  0  0
  -35.4251  -19.0856   21.7659 O   0  0  0  0  0  0  0  0  0  1  0  0
  -18.1546   -6.8752   25.8189 F   0  0  0  0  0  0  0  0  0  0  0  0
  -29.6395  -14.4567   25.2335 F   0  0  0  0  0  0  0  0  0  0  0  0
  -21.9904   -5.1289   23.6641 F   0  0  0  0  0  0  0  0  0  0  0  0
  1  2  1  0  0  0  0
  1  5  2  0  0  0  0
  2  6  2  0  0  0  0
  3  9  2  0  0  0  0
  3 18  1  0  0  0  0
  4 10  1  0  0  0  0
  4 18  2  0  0  0  0
  5 20  1  0  0  0  0
  6 22  1  0  0  0  0
  7 11  2  0  0  0  0
  7 21  1  0  0  0  0
  8 13  2  0  0  0  0
  8 25  1  0  0  0  0
  9 26  1  0  0  0  0
 10 26  2  0  0  0  0
 11 27  1  0  0  0  0
 12 14  2  0  0  0  0
 12 28  1  0  0  0  0
 13 30  1  0  0  0  0
 14 29  1  0  0  0  0
 15 23  1  0  0  0  0
 15 27  2  0  0  0  0
 16 24  1  0  0  0  0
 16 25  2  0  0  0  0
 17 29  2  0  0  0  0
 17 31  1  0  0  0  0
 18 32  1  0  0  0  0
 19 32  1  0  0  0  0
 19 33  2  0  0  0  0
 19 34  1  0  0  0  0
 20 22  2  0  0  0  0
 20 39  1  0  0  0  0
 21 23  2  0  0  0  0
 21 40  1  0  0  0  0
 22 48  1  0  0  0  0
 23 41  1  0  0  0  0
 24 30  2  0  0  0  0
 24 56  1  0  0  0  0
 25 68  1  0  0  0  0
 26 78  1  0  0  0  0
 27 79  1  0  0  0  0
 28 31  2  0  0  0  0
 28 78  1  0  0  0  0
 29 80  1  0  0  0  0
 30 81  1  0  0  0  0
 31 82  1  0  0  0  0
 32 62  2  0  0  0  0
 33 63  1  0  0  0  0
 33 66  1  0  0  0  0
 34 67  1  0  0  0  0
 34 73  2  0  0  0  0
 35 49  1  0  0  0  0
 35 69  1  0  0  0  0
 35 74  2  0  0  0  0
 36 59  1  0  0  0  0
 36 64  1  0  0  0  0
 36 75  2  0  0  0  0
 37 60  1  0  0  0  0
 37 70  1  0  0  0  0
 37 76  2  0  0  0  0
 38 65  1  0  0  0  0
 38 71  1  0  0  0  0
 38 77  2  0  0  0  0
 39 42  1  0  0  0  0
 40 49  1  0  0  0  0
 41 64  1  0  0  0  0
 42 44  1  0  0  0  0
 43 45  1  0  0  0  0
 43 46  1  0  0  0  0
 44 48  1  0  0  0  0
 45 50  1  0  0  0  0
 46 65  1  0  0  0  0
 47 50  1  0  0  0  0
 47 65  1  0  0  0  0
 48 69  1  0  0  0  0
 49 64  1  0  0  0  0
 50 63  1  0  0  0  0
 51 60  1  0  0  0  0
 52 61  1  0  0  0  0
 53 61  1  0  0  0  0
 54 61  1  0  0  0  0
 55 72  1  0  0  0  0
 56 71  1  0  0  0  0
 57 58  1  0  0  0  0
 57 68  1  0  0  0  0
 58 79  1  0  0  0  0
 59 61  1  0  0  0  0
 59 70  1  0  0  0  0
 60 72  1  0  0  0  0
 62 63  1  0  0  0  0
M  CHG  1  72   1
M  ISO  4  38 100  58 101  71 100  79 101
M  END
> <Batch ID>
0002

> <Smiles>
CNC(C)C(=O)NC(C(=O)N1Cc2cc([101O:1][101CH2:1]CNc3ccc(F)c(C[100NH:0][100C:0](=O)N4CCCC(n5nc(-c6ccc(Oc7ccc(F)cc7F)cc6)c(C(N)=O)c5N)C4)c3)ccc2CC1C(=O)NC1CCCc2ccccc21)C(C)(C)C

> <Shape>
0.149

> <Color>
0.178

> <Negative vol penalty>
0.000

$$$$

  -OEChem-04042320173D

 84 92  0     1  0  0  0  0  0999 V2000
  -20.1776  -10.1936   22.8505 C   0  0  0  0  0  0  0  0  0  0  0  0
  -20.9726  -11.1391   23.4904 C   0  0  0  0  0  0  0  0  0  0  0  0
  -24.2636  -32.1771   21.1069 C   0  0  0  0  0  0  0  0  0  0  0  0
  -23.9937  -30.4655   22.7906 C   0  0  0  0  0  0  0  0  0  0  0  0
  -20.7215   -9.3898   21.8495 C   0  0  0  0  0  0  0  0  0  0  0  0
  -22.3123  -11.2806   23.1304 C   0  0  0  0  0  0  0  0  0  0  0  0
  -23.6875  -16.1284   22.6283 C   0  0  0  0  0  0  0  0  0  0  0  0
  -29.6204  -23.1025   20.8132 C   0  0  0  0  0  0  0  0  0  0  0  0
  -22.8811  -32.3577   21.0688 C   0  0  0  0  0  0  0  0  0  0  0  0
  -22.6111  -30.6461   22.7526 C   0  0  0  0  0  0  0  0  0  0  0  0
  -23.9339  -16.8449   23.7987 C   0  0  0  0  0  0  0  0  0  0  0  0
  -20.3526  -32.8396   23.9807 C   0  0  0  0  0  0  0  0  0  0  0  0
  -29.4083  -21.7744   21.1833 C   0  0  0  0  0  0  0  0  0  0  0  0
  -19.6762  -32.9114   25.1984 C   0  0  0  0  0  0  0  0  0  0  0  0
  -28.7072  -23.8370   22.9260 C   0  0  0  0  0  0  0  0  0  0  0  0
  -26.3046  -16.5251   23.4883 C   0  0  0  0  0  0  0  0  0  0  0  0
  -18.3599  -30.9818   24.5812 C   0  0  0  0  0  0  0  0  0  0  0  0
  -24.8200  -31.2309   21.9678 C   0  0  0  0  0  0  0  0  0  0  0  0
  -28.4951  -22.5089   23.2960 C   0  0  0  0  0  0  0  0  0  0  0  0
  -27.1706  -31.7115   22.8344 C   0  0  0  0  0  0  0  0  0  0  0  0
  -22.0660   -9.5281   21.4704 C   0  0  0  0  0  0  0  0  0  0  0  0
  -24.7492  -15.5947   21.8837 C   0  0  0  0  0  0  0  0  0  0  0  0
  -22.8750  -10.4770   22.1243 C   0  0  0  0  0  0  0  0  0  0  0  0
  -26.0692  -15.8044   22.3075 C   0  0  0  0  0  0  0  0  0  0  0  0
  -29.2699  -24.1338   21.6846 C   0  0  0  0  0  0  0  0  0  0  0  0
  -22.0548  -31.5922   21.8917 C   0  0  0  0  0  0  0  0  0  0  0  0
  -25.2424  -17.0409   24.2304 C   0  0  0  0  0  0  0  0  0  0  0  0
  -20.0326  -31.8389   23.0631 C   0  0  0  0  0  0  0  0  0  0  0  0
  -18.6799  -31.9825   25.4987 C   0  0  0  0  0  0  0  0  0  0  0  0
  -28.8457  -21.4777   22.4246 C   0  0  0  0  0  0  0  0  0  0  0  0
  -19.0364  -30.9099   23.3634 C   0  0  0  0  0  0  0  0  0  0  0  0
  -26.2480  -31.0435   22.0072 C   0  0  0  0  0  0  0  0  0  0  0  0
  -28.3890  -31.1793   22.4898 C   0  0  0  0  0  0  0  0  0  0  0  0
  -27.8955  -22.1961   24.6188 C   0  0  0  0  0  0  0  0  0  0  0  0
  -26.9463  -32.7228   23.8258 C   0  0  0  0  0  0  0  0  0  0  0  0
  -25.6510  -12.6641   21.0459 C   0  0  0  0  0  0  0  0  0  0  0  0
  -27.8699  -14.2659   19.3043 C   0  0  0  0  0  0  0  0  0  0  0  0
  -29.7023  -17.1103   18.8587 C   0  0  0  0  0  0  0  0  0  0  0  0
  -30.0339  -25.9491   20.1139 C   0  0  0  0  0  0  0  0  0  0  0  0
  -22.6216   -8.6042   20.4157 C   0  0  0  0  0  0  0  0  0  0  0  0
  -24.4680  -14.8471   20.6092 C   0  0  0  0  0  0  0  0  0  0  0  0
  -27.2451  -15.2694   21.5332 C   0  0  0  0  0  0  0  0  0  0  0  0
  -23.9521   -9.0744   19.8336 C   0  0  0  0  0  0  0  0  0  0  0  0
  -30.6962  -29.1894   18.7951 C   0  0  0  0  0  0  0  0  0  0  0  0
  -24.9021   -9.5000   20.9486 C   0  0  0  0  0  0  0  0  0  0  0  0
  -29.7188  -30.0943   19.5488 C   0  0  0  0  0  0  0  0  0  0  0  0
  -30.0823  -27.8252   18.4852 C   0  0  0  0  0  0  0  0  0  0  0  0
  -28.5420  -28.0250   20.3975 C   0  0  0  0  0  0  0  0  0  0  0  0
  -24.3262  -10.6773   21.7447 C   0  0  1  0  0  0  0  0  0  0  0  0
  -25.6004  -13.9082   20.2049 C   0  0  1  0  0  0  0  0  0  0  0  0
  -29.1380  -29.3871   20.7890 C   0  0  2  0  0  0  0  0  0  0  0  0
  -31.4595  -18.1088   17.3713 C   0  0  0  0  0  0  0  0  0  0  0  0
  -29.9952  -12.5556   20.6711 C   0  0  0  0  0  0  0  0  0  0  0  0
  -31.7174  -14.1977   19.8930 C   0  0  0  0  0  0  0  0  0  0  0  0
  -30.3672  -12.9249   18.2258 C   0  0  0  0  0  0  0  0  0  0  0  0
  -27.9091  -19.3115   18.0229 C   0  0  0  0  0  0  0  0  0  0  0  0
  -26.5044  -19.7009   26.3068 C   0  0  0  0  0  0  0  0  0  0  0  0
  -27.7677  -20.5372   26.4593 C   0  0  0  0  0  0  0  0  0  0  0  0
  -26.7132  -18.4635   25.4423 C   0  0  0  0  0  0  0  0  0  1  0  0
  -29.2695  -14.7705   19.5603 C   0  0  1  0  0  0  0  0  0  0  0  0
  -29.9681  -17.9544   17.6253 C   0  0  2  0  0  0  0  0  0  0  0  0
  -30.3153  -13.6207   19.6034 C   0  0  0  0  0  0  0  0  0  0  0  0
  -26.8305  -30.1548   21.1978 N   0  0  0  0  0  0  0  0  0  0  0  0
  -28.1322  -30.2608   21.5148 N   0  0  0  0  0  0  0  0  0  0  0  0
  -26.9183  -14.5397   20.2970 N   0  0  0  0  0  0  0  0  0  0  0  0
  -29.5568  -27.2132   19.7075 N   0  0  0  0  0  0  0  0  0  0  0  0
  -29.6442  -31.4120   22.9287 N   0  0  0  0  0  0  0  0  0  0  0  0
  -25.6328  -33.1552   24.0538 N   0  0  0  0  0  0  0  0  0  0  0  0
  -29.4858  -25.4827   21.3083 N   0  0  0  0  0  0  0  0  0  0  0  0
  -28.2792  -20.9906   25.1956 N   0  0  0  0  0  0  0  0  0  0  0  0
  -24.4916  -11.9132   21.0100 N   0  0  0  0  0  0  0  0  0  0  0  0
  -29.5326  -15.7796   18.5400 N   0  0  0  0  0  0  0  0  0  0  0  0
  -29.3763  -19.3123   17.7896 N   0  3  0  0  0  0  0  0  0  0  0  0
  -27.0962  -22.9845   25.1168 O   0  0  0  0  0  0  0  0  0  0  0  0
  -27.8848  -33.2396   24.4782 O   0  0  0  0  0  0  0  0  0  0  0  0
  -26.6673  -12.4038   21.6792 O   0  0  0  0  0  0  0  0  0  0  0  0
  -27.6281  -13.6577   18.2587 O   0  0  0  0  0  0  0  0  0  0  0  0
  -29.6539  -17.5835   19.9920 O   0  0  0  0  0  0  0  0  0  0  0  0
  -30.8875  -25.3385   19.4654 O   0  0  0  0  0  0  0  0  0  0  0  0
  -20.7056  -31.7684   21.8549 O   0  0  0  0  0  0  0  0  0  0  0  0
  -25.4856  -17.7392   25.3728 O   0  0  0  0  0  0  0  0  0  1  0  0
  -18.0315  -32.0507   26.6688 F   0  0  0  0  0  0  0  0  0  0  0  0
  -28.6463  -20.1980   22.7701 F   0  0  0  0  0  0  0  0  0  0  0  0
  -18.7254  -29.9456   22.4864 F   0  0  0  0  0  0  0  0  0  0  0  0
  1  2  1  0  0  0  0
  1  5  2  0  0  0  0
  2  6  2  0  0  0  0
  3  9  2  0  0  0  0
  3 18  1  0  0  0  0
  4 10  1  0  0  0  0
  4 18  2  0  0  0  0
  5 21  1  0  0  0  0
  6 23  1  0  0  0  0
  7 11  2  0  0  0  0
  7 22  1  0  0  0  0
  8 13  2  0  0  0  0
  8 25  1  0  0  0  0
  9 26  1  0  0  0  0
 10 26  2  0  0  0  0
 11 27  1  0  0  0  0
 12 14  2  0  0  0  0
 12 28  1  0  0  0  0
 13 30  1  0  0  0  0
 14 29  1  0  0  0  0
 15 19  1  0  0  0  0
 15 25  2  0  0  0  0
 16 24  1  0  0  0  0
 16 27  2  0  0  0  0
 17 29  2  0  0  0  0
 17 31  1  0  0  0  0
 18 32  1  0  0  0  0
 19 30  2  0  0  0  0
 19 34  1  0  0  0  0
 20 32  1  0  0  0  0
 20 33  2  0  0  0  0
 20 35  1  0  0  0  0
 21 23  2  0  0  0  0
 21 40  1  0  0  0  0
 22 24  2  0  0  0  0
 22 41  1  0  0  0  0
 23 49  1  0  0  0  0
 24 42  1  0  0  0  0
 25 69  1  0  0  0  0
 26 80  1  0  0  0  0
 27 81  1  0  0  0  0
 28 31  2  0  0  0  0
 28 80  1  0  0  0  0
 29 82  1  0  0  0  0
 30 83  1  0  0  0  0
 31 84  1  0  0  0  0
 32 63  2  0  0  0  0
 33 64  1  0  0  0  0
 33 67  1  0  0  0  0
 34 70  1  0  0  0  0
 34 74  2  0  0  0  0
 35 68  1  0  0  0  0
 35 75  2  0  0  0  0
 36 50  1  0  0  0  0
 36 71  1  0  0  0  0
 36 76  2  0  0  0  0
 37 60  1  0  0  0  0
 37 65  1  0  0  0  0
 37 77  2  0  0  0  0
 38 61  1  0  0  0  0
 38 72  1  0  0  0  0
 38 78  2  0  0  0  0
 39 66  1  0  0  0  0
 39 69  1  0  0  0  0
 39 79  2  0  0  0  0
 40 43  1  0  0  0  0
 41 50  1  0  0  0  0
 42 65  1  0  0  0  0
 43 45  1  0  0  0  0
 44 46  1  0  0  0  0
 44 47  1  0  0  0  0
 45 49  1  0  0  0  0
 46 51  1  0  0  0  0
 47 66  1  0  0  0  0
 48 51  1  0  0  0  0
 48 66  1  0  0  0  0
 49 71  1  0  0  0  0
 50 65  1  0  0  0  0
 51 64  1  0  0  0  0
 52 61  1  0  0  0  0
 53 62  1  0  0  0  0
 54 62  1  0  0  0  0
 55 62  1  0  0  0  0
 56 73  1  0  0  0  0
 57 58  1  0  0  0  0
 57 59  1  0  0  0  0
 58 70  1  0  0  0  0
 59 81  1  0  0  0  0
 60 62  1  0  0  0  0
 60 72  1  0  0  0  0
 61 73  1  0  0  0  0
 63 64  1  0  0  0  0
M  CHG  1  73   1
M  ISO  4  39 100  59 101  69 100  81 101
M  END
> <Batch ID>
0002

> <Smiles>
CNC(C)C(=O)NC(C(=O)N1Cc2cc([101O:1][101CH2:1]CCNC(=O)c3cc([100NH:0][100C:0](=O)N4CCCC(n5nc(-c6ccc(Oc7ccc(F)cc7F)cc6)c(C(N)=O)c5N)C4)ccc3F)ccc2CC1C(=O)NC1CCCc2ccccc21)C(C)(C)C

> <Shape>
0.259

> <Color>
0.058

> <Negative vol penalty>
0.000

$$$$

  -OEChem-04042320173D

 81 89  0     1  0  0  0  0  0999 V2000
  -16.6897  -29.4611   23.1319 C   0  0  0  0  0  0  0  0  0  0  0  0
  -17.6537  -29.5874   22.1369 C   0  0  0  0  0  0  0  0  0  0  0  0
  -26.5850  -12.6865   21.9931 C   0  0  0  0  0  0  0  0  0  0  0  0
  -25.7693  -14.3575   20.4506 C   0  0  0  0  0  0  0  0  0  0  0  0
  -17.0736  -29.1677   24.4398 C   0  0  0  0  0  0  0  0  0  0  0  0
  -19.0025  -29.4214   22.4495 C   0  0  0  0  0  0  0  0  0  0  0  0
  -25.1332  -27.0212   19.6262 C   0  0  0  0  0  0  0  0  0  0  0  0
  -28.8220  -22.0323   20.5317 C   0  0  0  0  0  0  0  0  0  0  0  0
  -30.6671  -22.6487   21.9643 C   0  0  0  0  0  0  0  0  0  0  0  0
  -25.3403  -12.0575   21.9700 C   0  0  0  0  0  0  0  0  0  0  0  0
  -24.5245  -13.7284   20.4274 C   0  0  0  0  0  0  0  0  0  0  0  0
  -26.4510  -27.4234   19.4131 C   0  0  0  0  0  0  0  0  0  0  0  0
  -29.1192  -23.1028   19.6883 C   0  0  0  0  0  0  0  0  0  0  0  0
  -30.9644  -23.7192   21.1209 C   0  0  0  0  0  0  0  0  0  0  0  0
  -22.4870   -9.8060   22.0365 C   0  0  0  0  0  0  0  0  0  0  0  0
  -22.4646   -8.4169   21.9129 C   0  0  0  0  0  0  0  0  0  0  0  0
  -26.9909  -26.8404   21.6907 C   0  0  0  0  0  0  0  0  0  0  0  0
  -23.6152   -8.5868   19.7952 C   0  0  0  0  0  0  0  0  0  0  0  0
  -26.7995  -13.8366   21.2335 C   0  0  0  0  0  0  0  0  0  0  0  0
  -29.1797  -14.2381   20.4083 C   0  0  0  0  0  0  0  0  0  0  0  0
  -18.4270  -28.9886   24.7666 C   0  0  0  0  0  0  0  0  0  0  0  0
  -24.7311  -26.5350   20.8786 C   0  0  0  0  0  0  0  0  0  0  0  0
  -19.4050  -29.1267   23.7632 C   0  0  0  0  0  0  0  0  0  0  0  0
  -25.6680  -26.4303   21.9165 C   0  0  0  0  0  0  0  0  0  0  0  0
  -29.5959  -21.8053   21.6698 C   0  0  0  0  0  0  0  0  0  0  0  0
  -24.3101  -12.5784   21.1871 C   0  0  0  0  0  0  0  0  0  0  0  0
  -30.1904  -23.9462   19.9829 C   0  0  0  0  0  0  0  0  0  0  0  0
  -27.3794  -27.3357   20.4462 C   0  0  0  0  0  0  0  0  0  0  0  0
  -23.0734  -10.5856   21.0395 C   0  0  0  0  0  0  0  0  0  0  0  0
  -23.0288   -7.8072   20.7923 C   0  0  0  0  0  0  0  0  0  0  0  0
  -23.6375   -9.9760   19.9189 C   0  0  0  0  0  0  0  0  0  0  0  0
  -28.0849  -14.4872   21.2574 C   0  0  0  0  0  0  0  0  0  0  0  0
  -30.1515  -15.1091   20.8365 C   0  0  0  0  0  0  0  0  0  0  0  0
  -29.3069  -13.3031   19.3288 C   0  0  0  0  0  0  0  0  0  0  0  0
  -22.6340  -27.4660   23.0784 C   0  0  0  0  0  0  0  0  0  0  0  0
  -23.4563  -24.6625   24.4878 C   0  0  0  0  0  0  0  0  0  0  0  0
  -25.7688  -22.1825   24.8734 C   0  0  0  0  0  0  0  0  0  0  0  0
  -29.9615  -20.3528   23.6953 C   0  0  0  0  0  0  0  0  0  0  0  0
  -18.7973  -28.7192   26.2036 C   0  0  0  0  0  0  0  0  0  0  0  0
  -23.3122  -26.0803   21.0845 C   0  0  0  0  0  0  0  0  0  0  0  0
  -25.2918  -25.8963   23.2735 C   0  0  0  0  0  0  0  0  0  0  0  0
  -20.2180  -28.1885   26.3773 C   0  0  0  0  0  0  0  0  0  0  0  0
  -31.6554  -17.4075   24.7596 C   0  0  0  0  0  0  0  0  0  0  0  0
  -21.2010  -29.0149   25.5542 C   0  0  0  0  0  0  0  0  0  0  0  0
  -31.0359  -16.3026   23.9007 C   0  0  0  0  0  0  0  0  0  0  0  0
  -30.6229  -18.4591   25.1620 C   0  0  0  0  0  0  0  0  0  0  0  0
  -29.2429  -17.9355   23.1896 C   0  0  0  0  0  0  0  0  0  0  0  0
  -20.8762  -28.9294   24.0580 C   0  0  1  0  0  0  0  0  0  0  0  0
  -22.8907  -26.0828   22.5507 C   0  0  1  0  0  0  0  0  0  0  0  0
  -30.2581  -16.8873   22.7054 C   0  0  2  0  0  0  0  0  0  0  0  0
  -26.7383  -20.0040   25.6554 C   0  0  0  0  0  0  0  0  0  0  0  0
  -24.0606  -26.2563   27.0185 C   0  0  0  0  0  0  0  0  0  0  0  0
  -25.3278  -24.2761   27.8794 C   0  0  0  0  0  0  0  0  0  0  0  0
  -22.8855  -24.0837   27.4097 C   0  0  0  0  0  0  0  0  0  0  0  0
  -24.6824  -20.7270   22.5367 C   0  0  0  0  0  0  0  0  0  0  0  0
  -30.6908  -27.3904   18.9728 C   0  0  0  0  0  0  0  0  0  0  0  0
  -31.0716  -26.1434   19.7552 C   0  0  0  0  0  0  0  0  0  0  0  0
  -29.1843  -27.5901   18.9186 C   0  0  0  0  0  0  0  0  0  1  0  0
  -24.5109  -24.2332   25.4790 C   0  0  1  0  0  0  0  0  0  0  0  0
  -25.6386  -20.6703   24.8434 C   0  0  2  0  0  0  0  0  0  0  0  0
  -24.2031  -24.7242   26.9218 C   0  0  0  0  0  0  0  0  0  0  0  0
  -28.3369  -15.4416   22.1572 N   0  0  0  0  0  0  0  0  0  0  0  0
  -29.6013  -15.7998   21.8759 N   0  0  0  0  0  0  0  0  0  0  0  0
  -23.8910  -25.4702   23.4273 N   0  0  0  0  0  0  0  0  0  0  0  0
  -29.9288  -18.9709   23.9784 N   0  0  0  0  0  0  0  0  0  0  0  0
  -31.4146  -15.3439   20.4217 N   0  0  0  0  0  0  0  0  0  0  0  0
  -28.2117  -12.4841   19.0219 N   0  0  0  0  0  0  0  0  0  0  0  0
  -29.2941  -20.7179   22.5266 N   0  0  0  0  0  0  0  0  0  0  0  0
  -21.3380  -27.6713   23.5117 N   0  0  0  0  0  0  0  0  0  0  0  0
  -24.6244  -22.7842   25.3524 N   0  0  0  0  0  0  0  0  0  0  0  0
  -25.7210  -20.1710   23.4417 N   0  3  0  0  0  0  0  0  0  0  0  0
  -30.3659  -13.1856   18.6670 O   0  0  0  0  0  0  0  0  0  0  0  0
  -23.5446  -28.2859   23.0928 O   0  0  0  0  0  0  0  0  0  0  0  0
  -22.2912  -24.2890   24.6446 O   0  0  0  0  0  0  0  0  0  0  0  0
  -26.7855  -22.7708   24.5118 O   0  0  0  0  0  0  0  0  0  0  0  0
  -30.5621  -21.1498   24.4207 O   0  0  0  0  0  0  0  0  0  0  0  0
  -23.0954  -11.9646   21.1640 O   0  0  0  0  0  0  0  0  0  0  0  0
  -30.4825  -24.9982   19.1542 O   0  0  0  0  0  0  0  0  0  0  0  0
  -28.6662  -27.7281   20.2411 O   0  0  0  0  0  0  0  0  0  1  0  0
  -23.0086   -6.4731   20.6744 F   0  0  0  0  0  0  0  0  0  0  0  0
  -24.2034  -10.7197   18.9583 F   0  0  0  0  0  0  0  0  0  0  0  0
  1  2  1  0  0  0  0
  1  5  2  0  0  0  0
  2  6  2  0  0  0  0
  3 10  2  0  0  0  0
  3 19  1  0  0  0  0
  4 11  1  0  0  0  0
  4 19  2  0  0  0  0
  5 21  1  0  0  0  0
  6 23  1  0  0  0  0
  7 12  2  0  0  0  0
  7 22  1  0  0  0  0
  8 13  2  0  0  0  0
  8 25  1  0  0  0  0
  9 14  1  0  0  0  0
  9 25  2  0  0  0  0
 10 26  1  0  0  0  0
 11 26  2  0  0  0  0
 12 28  1  0  0  0  0
 13 27  1  0  0  0  0
 14 27  2  0  0  0  0
 15 16  2  0  0  0  0
 15 29  1  0  0  0  0
 16 30  1  0  0  0  0
 17 24  1  0  0  0  0
 17 28  2  0  0  0  0
 18 30  2  0  0  0  0
 18 31  1  0  0  0  0
 19 32  1  0  0  0  0
 20 32  1  0  0  0  0
 20 33  2  0  0  0  0
 20 34  1  0  0  0  0
 21 23  2  0  0  0  0
 21 39  1  0  0  0  0
 22 24  2  0  0  0  0
 22 40  1  0  0  0  0
 23 48  1  0  0  0  0
 24 41  1  0  0  0  0
 25 68  1  0  0  0  0
 26 77  1  0  0  0  0
 27 78  1  0  0  0  0
 28 79  1  0  0  0  0
 29 31  2  0  0  0  0
 29 77  1  0  0  0  0
 30 80  1  0  0  0  0
 31 81  1  0  0  0  0
 32 62  2  0  0  0  0
 33 63  1  0  0  0  0
 33 66  1  0  0  0  0
 34 67  1  0  0  0  0
 34 72  2  0  0  0  0
 35 49  1  0  0  0  0
 35 69  1  0  0  0  0
 35 73  2  0  0  0  0
 36 59  1  0  0  0  0
 36 64  1  0  0  0  0
 36 74  2  0  0  0  0
 37 60  1  0  0  0  0
 37 70  1  0  0  0  0
 37 75  2  0  0  0  0
 38 65  1  0  0  0  0
 38 68  1  0  0  0  0
 38 76  2  0  0  0  0
 39 42  1  0  0  0  0
 40 49  1  0  0  0  0
 41 64  1  0  0  0  0
 42 44  1  0  0  0  0
 43 45  1  0  0  0  0
 43 46  1  0  0  0  0
 44 48  1  0  0  0  0
 45 50  1  0  0  0  0
 46 65  1  0  0  0  0
 47 50  1  0  0  0  0
 47 65  1  0  0  0  0
 48 69  1  0  0  0  0
 49 64  1  0  0  0  0
 50 63  1  0  0  0  0
 51 60  1  0  0  0  0
 52 61  1  0  0  0  0
 53 61  1  0  0  0  0
 54 61  1  0  0  0  0
 55 71  1  0  0  0  0
 56 57  1  0  0  0  0
 56 58  1  0  0  0  0
 57 78  1  0  0  0  0
 58 79  1  0  0  0  0
 59 61  1  0  0  0  0
 59 70  1  0  0  0  0
 60 71  1  0  0  0  0
 62 63  1  0  0  0  0
M  CHG  1  71   1
M  ISO  4  38 100  58 101  68 100  79 101
M  END
> <Batch ID>
0002

> <Smiles>
CNC(C)C(=O)NC(C(=O)N1Cc2cc([101O:1][101CH2:1]CCOc3ccc([100NH:0][100C:0](=O)N4CCCC(n5nc(-c6ccc(Oc7ccc(F)cc7F)cc6)c(C(N)=O)c5N)C4)cc3)ccc2CC1C(=O)NC1CCCc2ccccc21)C(C)(C)C

> <Shape>
0.239

> <Color>
0.096

> <Negative vol penalty>
0.000

$$$$

  -OEChem-04042320173D

 95105  0     1  0  0  0  0  0999 V2000
  -32.3524  -23.7556   13.2811 C   0  0  0  0  0  0  0  0  0  0  0  0
  -32.7757  -23.4415   14.5725 C   0  0  0  0  0  0  0  0  0  0  0  0
  -30.9928  -23.9129   13.0117 C   0  0  0  0  0  0  0  0  0  0  0  0
  -16.9506  -28.1593   20.4408 C   0  0  0  0  0  0  0  0  0  0  0  0
  -18.2240  -28.0363   19.8943 C   0  0  0  0  0  0  0  0  0  0  0  0
  -26.4865  -11.2089   20.9595 C   0  0  0  0  0  0  0  0  0  0  0  0
  -25.2805  -13.0889   20.0385 C   0  0  0  0  0  0  0  0  0  0  0  0
  -31.8396  -23.2844   15.5945 C   0  0  0  0  0  0  0  0  0  0  0  0
  -30.0566  -23.7559   14.0338 C   0  0  0  0  0  0  0  0  0  0  0  0
  -16.7950  -28.6312   21.7435 C   0  0  0  0  0  0  0  0  0  0  0  0
  -19.3426  -28.3862   20.6498 C   0  0  0  0  0  0  0  0  0  0  0  0
  -24.8545  -25.7203   20.5187 C   0  0  0  0  0  0  0  0  0  0  0  0
  -25.2898  -10.6759   21.4385 C   0  0  0  0  0  0  0  0  0  0  0  0
  -24.0838  -12.5559   20.5175 C   0  0  0  0  0  0  0  0  0  0  0  0
  -26.0432  -26.0551   19.8717 C   0  0  0  0  0  0  0  0  0  0  0  0
  -22.5085   -8.6385   22.5910 C   0  0  0  0  0  0  0  0  0  0  0  0
  -22.2825   -7.2757   22.3984 C   0  0  0  0  0  0  0  0  0  0  0  0
  -26.8203  -27.1471   21.8775 C   0  0  0  0  0  0  0  0  0  0  0  0
  -22.4310   -7.5889   20.0074 C   0  0  0  0  0  0  0  0  0  0  0  0
  -26.4818  -12.4155   20.2595 C   0  0  0  0  0  0  0  0  0  0  0  0
  -28.6095  -12.3714   18.8528 C   0  0  0  0  0  0  0  0  0  0  0  0
  -30.4800  -23.4416   15.3252 C   0  0  0  0  0  0  0  0  0  0  0  0
  -17.9127  -28.9779   22.5188 C   0  0  0  0  0  0  0  0  0  0  0  0
  -24.6349  -26.1065   21.8488 C   0  0  0  0  0  0  0  0  0  0  0  0
  -19.2017  -28.8644   21.9636 C   0  0  0  0  0  0  0  0  0  0  0  0
  -25.6290  -26.8137   22.5399 C   0  0  0  0  0  0  0  0  0  0  0  0
  -24.0885  -11.3493   21.2175 C   0  0  0  0  0  0  0  0  0  0  0  0
  -27.0252  -26.7711   20.5502 C   0  0  0  0  0  0  0  0  0  0  0  0
  -22.6956   -9.4767   21.4918 C   0  0  0  0  0  0  0  0  0  0  0  0
  -22.2438   -6.7508   21.1067 C   0  0  0  0  0  0  0  0  0  0  0  0
  -22.6569   -8.9518   20.2000 C   0  0  0  0  0  0  0  0  0  0  0  0
  -27.7177  -12.9669   19.7649 C   0  0  0  0  0  0  0  0  0  0  0  0
  -29.6198  -13.2909   18.7103 C   0  0  0  0  0  0  0  0  0  0  0  0
  -28.5315  -11.1007   18.1933 C   0  0  0  0  0  0  0  0  0  0  0  0
  -22.5138  -27.9562   23.3265 C   0  0  0  0  0  0  0  0  0  0  0  0
  -23.9887  -26.8485   25.9948 C   0  0  0  0  0  0  0  0  0  0  0  0
  -25.3898  -26.1773   29.0334 C   0  0  0  0  0  0  0  0  0  0  0  0
  -29.3178  -19.3676   20.0908 C   0  0  0  0  0  0  0  0  0  0  0  0
  -17.6919  -29.5281   23.9056 C   0  0  0  0  0  0  0  0  0  0  0  0
  -23.3583  -25.7143   22.5409 C   0  0  0  0  0  0  0  0  0  0  0  0
  -25.4506  -27.2343   23.9751 C   0  0  0  0  0  0  0  0  0  0  0  0
  -18.9498  -29.5228   24.7704 C   0  0  0  0  0  0  0  0  0  0  0  0
  -31.6437  -16.8119   21.3546 C   0  0  0  0  0  0  0  0  0  0  0  0
  -32.1722  -25.5070   21.1427 C   0  0  0  0  0  0  0  0  0  0  0  0
  -20.1372  -30.0762   23.9890 C   0  0  0  0  0  0  0  0  0  0  0  0
  -31.1238  -15.4717   20.8312 C   0  0  0  0  0  0  0  0  0  0  0  0
  -31.8853  -26.9237   20.6790 C   0  0  0  0  0  0  0  0  0  0  0  0
  -31.3392  -17.9732   20.4183 C   0  0  0  0  0  0  0  0  0  0  0  0
  -29.1542  -16.8334   19.9736 C   0  0  0  0  0  0  0  0  0  0  0  0
  -31.7309  -24.6710   19.9625 C   0  0  0  0  0  0  0  0  0  0  0  0
  -28.9597  -21.8318   16.5743 C   0  0  0  0  0  0  0  0  0  0  0  0
  -28.9002  -23.0007   18.7226 C   0  0  0  0  0  0  0  0  0  0  0  0
  -29.4652  -23.2714   16.4319 C   0  0  1  0  0  0  0  0  0  0  0  0
  -20.4409  -29.2104   22.7603 C   0  0  1  0  0  0  0  0  0  0  0  0
  -23.0281  -26.6047   23.7349 C   0  0  1  0  0  0  0  0  0  0  0  0
  -29.9710  -23.6226   17.8387 C   0  0  1  0  0  0  0  0  0  0  0  0
  -30.0681  -15.6239   19.7234 C   0  0  2  0  0  0  0  0  0  0  0  0
  -30.5720  -26.8264   19.9028 C   0  0  2  0  0  0  0  0  0  0  0  0
  -25.5829  -27.0974   31.3601 C   0  0  0  0  0  0  0  0  0  0  0  0
  -25.9985  -28.9205   25.0060 C   0  0  0  0  0  0  0  0  0  0  0  0
  -26.8340  -29.1298   27.3568 C   0  0  0  0  0  0  0  0  0  0  0  0
  -24.4733  -29.7276   26.8162 C   0  0  0  0  0  0  0  0  0  0  0  0
  -24.9850  -21.7618   20.3054 C   0  0  0  0  0  0  0  0  0  0  0  0
  -24.9232  -19.4101   19.4552 C   0  0  0  0  0  0  0  0  0  0  0  0
  -25.7801  -19.9013   21.7554 C   0  0  0  0  0  0  0  0  0  0  0  0
  -24.0879  -23.7935   30.2089 C   0  0  0  0  0  0  0  0  0  0  0  0
  -30.1199  -25.1179   18.0802 C   0  0  0  0  0  0  0  0  0  0  0  0
  -29.3551  -27.2122   20.7315 C   0  0  0  0  0  0  0  0  0  1  0  0
  -27.2567  -21.1354   18.3155 C   0  0  0  0  0  0  0  0  0  0  0  0
  -25.1638  -27.2955   26.8305 C   0  0  1  0  0  0  0  0  0  0  0  0
  -24.8047  -26.1756   30.4342 C   0  0  2  0  0  0  0  0  0  0  0  0
  -27.1892  -20.5996   19.7514 C   0  0  1  0  0  0  0  0  0  0  0  0
  -25.6172  -28.7431   26.4893 C   0  0  0  0  0  0  0  0  0  0  0  0
  -25.7336  -20.4129   20.2983 C   0  0  0  0  0  0  0  0  0  0  0  0
  -28.1257  -14.1714   20.1732 N   0  0  0  0  0  0  0  0  0  0  0  0
  -29.2849  -14.3402   19.5147 N   0  0  0  0  0  0  0  0  0  0  0  0
  -24.1826  -26.8327   24.6063 N   0  0  0  0  0  0  0  0  0  0  0  0
  -29.9020  -18.0878   20.1577 N   0  0  0  0  0  0  0  0  0  0  0  0
  -30.7530  -13.2961   17.9767 N   0  0  0  0  0  0  0  0  0  0  0  0
  -27.8875  -11.0315   16.9504 N   0  0  0  0  0  0  0  0  0  0  0  0
  -21.1442  -28.0074   23.1511 N   0  0  0  0  0  0  0  0  0  0  0  0
  -24.7708  -27.1049   28.2225 N   0  0  0  0  0  0  0  0  0  0  0  0
  -27.9475  -19.3731   19.8452 N   0  0  0  0  0  0  0  0  0  0  0  0
  -28.6240  -21.6767   18.0478 N   0  3  1  0  0  0  0  0  0  0  0  0
  -30.4583  -25.3533   19.5181 N   0  3  1  0  0  0  0  0  0  0  0  0
  -24.8349  -24.7999   31.0065 N   0  3  0  0  0  0  0  0  0  0  0  0
  -29.0041  -10.0546   18.6989 O   0  0  0  0  0  0  0  0  0  0  0  0
  -23.3012  -28.8841   23.1826 O   0  0  0  0  0  0  0  0  0  0  0  0
  -22.9398  -26.5185   26.5539 O   0  0  0  0  0  0  0  0  0  0  0  0
  -26.3070  -25.4330   28.6938 O   0  0  0  0  0  0  0  0  0  0  0  0
  -29.9615  -20.4104   20.2421 O   0  0  0  0  0  0  0  0  0  0  0  0
  -22.9206  -10.8294   21.6846 O   0  0  0  0  0  0  0  0  0  0  0  0
  -28.1861  -27.0998   19.9208 O   0  0  0  0  0  0  0  0  0  1  0  0
  -22.0284   -5.4418   20.9220 F   0  0  0  0  0  0  0  0  0  0  0  0
  -22.8372   -9.7518   19.1401 F   0  0  0  0  0  0  0  0  0  0  0  0
  1  2  1  0  0  0  0
  1  3  2  0  0  0  0
  2  8  2  0  0  0  0
  3  9  1  0  0  0  0
  4  5  1  0  0  0  0
  4 10  2  0  0  0  0
  5 11  2  0  0  0  0
  6 13  2  0  0  0  0
  6 20  1  0  0  0  0
  7 14  1  0  0  0  0
  7 20  2  0  0  0  0
  8 22  1  0  0  0  0
  9 22  2  0  0  0  0
 10 23  1  0  0  0  0
 11 25  1  0  0  0  0
 12 15  2  0  0  0  0
 12 24  1  0  0  0  0
 13 27  1  0  0  0  0
 14 27  2  0  0  0  0
 15 28  1  0  0  0  0
 16 17  2  0  0  0  0
 16 29  1  0  0  0  0
 17 30  1  0  0  0  0
 18 26  1  0  0  0  0
 18 28  2  0  0  0  0
 19 30  2  0  0  0  0
 19 31  1  0  0  0  0
 20 32  1  0  0  0  0
 21 32  1  0  0  0  0
 21 33  2  0  0  0  0
 21 34  1  0  0  0  0
 22 53  1  0  0  0  0
 23 25  2  0  0  0  0
 23 39  1  0  0  0  0
 24 26  2  0  0  0  0
 24 40  1  0  0  0  0
 25 54  1  0  0  0  0
 26 41  1  0  0  0  0
 27 92  1  0  0  0  0
 28 93  1  0  0  0  0
 29 31  2  0  0  0  0
 29 92  1  0  0  0  0
 30 94  1  0  0  0  0
 31 95  1  0  0  0  0
 32 75  2  0  0  0  0
 33 76  1  0  0  0  0
 33 79  1  0  0  0  0
 34 80  1  0  0  0  0
 34 87  2  0  0  0  0
 35 55  1  0  0  0  0
 35 81  1  0  0  0  0
 35 88  2  0  0  0  0
 36 70  1  0  0  0  0
 36 77  1  0  0  0  0
 36 89  2  0  0  0  0
 37 71  1  0  0  0  0
 37 82  1  0  0  0  0
 37 90  2  0  0  0  0
 38 78  1  0  0  0  0
 38 83  1  0  0  0  0
 38 91  2  0  0  0  0
 39 42  1  0  0  0  0
 40 55  1  0  0  0  0
 41 77  1  0  0  0  0
 42 45  1  0  0  0  0
 43 46  1  0  0  0  0
 43 48  1  0  0  0  0
 44 47  1  0  0  0  0
 44 50  1  0  0  0  0
 45 54  1  0  0  0  0
 46 57  1  0  0  0  0
 47 58  1  0  0  0  0
 48 78  1  0  0  0  0
 49 57  1  0  0  0  0
 49 78  1  0  0  0  0
 50 85  1  0  0  0  0
 51 53  1  0  0  0  0
 51 84  1  0  0  0  0
 52 56  1  0  0  0  0
 52 84  1  0  0  0  0
 53 56  1  0  0  0  0
 54 81  1  0  0  0  0
 55 77  1  0  0  0  0
 56 67  1  0  0  0  0
 57 76  1  0  0  0  0
 58 68  1  0  0  0  0
 58 85  1  0  0  0  0
 59 71  1  0  0  0  0
 60 73  1  0  0  0  0
 61 73  1  0  0  0  0
 62 73  1  0  0  0  0
 63 74  1  0  0  0  0
 64 74  1  0  0  0  0
 65 74  1  0  0  0  0
 66 86  1  0  0  0  0
 67 85  1  0  0  0  0
 68 93  1  0  0  0  0
 69 72  1  0  0  0  0
 69 84  1  0  0  0  0
 70 73  1  0  0  0  0
 70 82  1  0  0  0  0
 71 86  1  0  0  0  0
 72 74  1  0  0  0  0
 72 83  1  0  0  0  0
 75 76  1  0  0  0  0
M  CHG  3  84   1  85   1  86   1
M  ISO  4  38 100  68 101  83 100  93 101
M  END
> <Batch ID>
0002

> <Smiles>
CNC(C)C(=O)NC(C(=O)N1Cc2cc([101O:1][101CH2:1]C3CCCN3CC3CN(CC([100NH:0][100C:0](=O)N4CCCC(n5nc(-c6ccc(Oc7ccc(F)cc7F)cc6)c(C(N)=O)c5N)C4)C(C)(C)C)CC3c3ccccc3)ccc2CC1C(=O)NC1CCCc2ccccc21)C(C)(C)C

> <Shape>
0.288

> <Color>
0.072

> <Negative vol penalty>
0.000

$$$$

  -OEChem-04042320173D

 82 90  0     1  0  0  0  0  0999 V2000
  -28.4353  -32.7061   28.2182 C   0  0  0  0  0  0  0  0  0  0  0  0
  -28.3458  -31.6820   27.2809 C   0  0  0  0  0  0  0  0  0  0  0  0
  -24.6068   -8.6828   21.4336 C   0  0  0  0  0  0  0  0  0  0  0  0
  -23.1647  -10.6099   21.2236 C   0  0  0  0  0  0  0  0  0  0  0  0
  -27.3849  -33.6115   28.3622 C   0  0  0  0  0  0  0  0  0  0  0  0
  -27.2053  -31.5621   26.4876 C   0  0  0  0  0  0  0  0  0  0  0  0
  -28.3058  -30.6897   21.6222 C   0  0  0  0  0  0  0  0  0  0  0  0
  -26.1556  -18.0367   19.7879 C   0  0  0  0  0  0  0  0  0  0  0  0
  -28.3999  -18.4803   20.5646 C   0  0  0  0  0  0  0  0  0  0  0  0
  -23.7770   -8.1705   22.4309 C   0  0  0  0  0  0  0  0  0  0  0  0
  -22.3349  -10.0975   22.2208 C   0  0  0  0  0  0  0  0  0  0  0  0
  -28.6745  -29.3905   21.2758 C   0  0  0  0  0  0  0  0  0  0  0  0
  -25.7701  -19.3223   20.1677 C   0  0  0  0  0  0  0  0  0  0  0  0
  -28.0144  -19.7659   20.9444 C   0  0  0  0  0  0  0  0  0  0  0  0
  -20.8206   -6.5402   22.6173 C   0  0  0  0  0  0  0  0  0  0  0  0
  -20.4844   -5.1882   22.5496 C   0  0  0  0  0  0  0  0  0  0  0  0
  -26.4414  -28.9805   20.4607 C   0  0  0  0  0  0  0  0  0  0  0  0
  -21.5037   -4.8265   24.7100 C   0  0  0  0  0  0  0  0  0  0  0  0
  -24.3007   -9.9026   20.8300 C   0  0  0  0  0  0  0  0  0  0  0  0
  -25.0599  -10.2084   18.4139 C   0  0  0  0  0  0  0  0  0  0  0  0
  -26.2350  -33.5084   27.5636 C   0  0  0  0  0  0  0  0  0  0  0  0
  -26.9969  -31.1413   21.4000 C   0  0  0  0  0  0  0  0  0  0  0  0
  -26.1379  -32.4662   26.6220 C   0  0  0  0  0  0  0  0  0  0  0  0
  -26.0593  -30.2867   20.8028 C   0  0  0  0  0  0  0  0  0  0  0  0
  -27.4705  -17.6157   19.9865 C   0  0  0  0  0  0  0  0  0  0  0  0
  -22.6410   -8.8778   22.8245 C   0  0  0  0  0  0  0  0  0  0  0  0
  -26.6994  -20.1869   20.7459 C   0  0  0  0  0  0  0  0  0  0  0  0
  -27.7415  -28.5347   20.6976 C   0  0  0  0  0  0  0  0  0  0  0  0
  -21.4985   -7.0354   23.7313 C   0  0  0  0  0  0  0  0  0  0  0  0
  -20.8259   -4.3313   23.5960 C   0  0  0  0  0  0  0  0  0  0  0  0
  -21.8400   -6.1786   24.7777 C   0  0  0  0  0  0  0  0  0  0  0  0
  -25.1578  -10.4326   19.8002 C   0  0  0  0  0  0  0  0  0  0  0  0
  -26.0985  -10.9280   17.8755 C   0  0  0  0  0  0  0  0  0  0  0  0
  -24.1145   -9.4203   17.6785 C   0  0  0  0  0  0  0  0  0  0  0  0
  -24.6350  -32.1752   23.2590 C   0  0  0  0  0  0  0  0  0  0  0  0
  -23.1907  -32.7871   20.4197 C   0  0  0  0  0  0  0  0  0  0  0  0
  -22.9348  -32.0878   17.0892 C   0  0  0  0  0  0  0  0  0  0  0  0
  -29.1265  -15.7349   19.7276 C   0  0  0  0  0  0  0  0  0  0  0  0
  -25.1055  -34.4823   27.7882 C   0  0  0  0  0  0  0  0  0  0  0  0
  -26.6224  -32.5541   21.7548 C   0  0  0  0  0  0  0  0  0  0  0  0
  -24.6469  -30.7295   20.5247 C   0  0  0  0  0  0  0  0  0  0  0  0
  -24.0901  -34.5107   26.6487 C   0  0  0  0  0  0  0  0  0  0  0  0
  -30.4822  -12.5399   18.9334 C   0  0  0  0  0  0  0  0  0  0  0  0
  -23.7074  -33.0920   26.2391 C   0  0  0  0  0  0  0  0  0  0  0  0
  -29.2609  -11.6176   18.9334 C   0  0  0  0  0  0  0  0  0  0  0  0
  -30.3839  -13.6113   20.0179 C   0  0  0  0  0  0  0  0  0  0  0  0
  -27.9240  -13.4777   20.0009 C   0  0  0  0  0  0  0  0  0  0  0  0
  -24.9276  -32.3180   25.7258 C   0  0  1  0  0  0  0  0  0  0  0  0
  -25.1217  -32.7420   21.9554 C   0  0  1  0  0  0  0  0  0  0  0  0
  -27.9472  -12.4222   18.8833 C   0  0  2  0  0  0  0  0  0  0  0  0
  -21.6379  -32.7230   15.0369 C   0  0  0  0  0  0  0  0  0  0  0  0
  -20.8142  -31.1552   21.4192 C   0  0  0  0  0  0  0  0  0  0  0  0
  -19.9998  -31.0231   19.0554 C   0  0  0  0  0  0  0  0  0  0  0  0
  -20.2013  -33.2399   20.1813 C   0  0  0  0  0  0  0  0  0  0  0  0
  -25.3721  -33.0292   15.6991 C   0  0  0  0  0  0  0  0  0  0  0  0
  -26.6764  -23.8123   20.7993 C   0  0  0  0  0  0  0  0  0  0  0  0
  -27.7164  -24.9244   20.7195 C   0  0  0  0  0  0  0  0  0  0  0  0
  -27.3204  -22.4594   21.0714 C   0  0  0  0  0  0  0  0  0  0  0  0
  -27.0778  -26.2698   20.4050 C   0  0  0  0  0  0  0  0  0  1  0  0
  -22.2967  -32.0084   19.4852 C   0  0  1  0  0  0  0  0  0  0  0  0
  -22.8805  -32.9923   15.8712 C   0  0  2  0  0  0  0  0  0  0  0  0
  -20.8540  -31.8474   20.0422 C   0  0  0  0  0  0  0  0  0  0  0  0
  -26.1782  -11.2319   20.1225 N   0  0  0  0  0  0  0  0  0  0  0  0
  -26.7310  -11.5163   18.9310 N   0  0  0  0  0  0  0  0  0  0  0  0
  -24.3273  -32.1181   20.8953 N   0  0  0  0  0  0  0  0  0  0  0  0
  -29.1157  -14.3353   19.9056 N   0  0  0  0  0  0  0  0  0  0  0  0
  -26.5234  -11.1086   16.6069 N   0  0  0  0  0  0  0  0  0  0  0  0
  -23.1114   -8.7460   18.3881 N   0  0  0  0  0  0  0  0  0  0  0  0
  -27.8623  -16.3097   19.6008 N   0  0  0  0  0  0  0  0  0  0  0  0
  -25.2473  -32.7184   24.3723 N   0  0  0  0  0  0  0  0  0  0  0  0
  -22.3669  -32.6850   18.1946 N   0  0  0  0  0  0  0  0  0  0  0  0
  -24.0791  -32.7769   15.0123 N   0  3  0  0  0  0  0  0  0  0  0  0
  -24.1679   -9.3037   16.4307 O   0  0  0  0  0  0  0  0  0  0  0  0
  -23.7670  -31.3102   23.2552 O   0  0  0  0  0  0  0  0  0  0  0  0
  -22.8953  -33.9488   20.7110 O   0  0  0  0  0  0  0  0  0  0  0  0
  -23.4280  -30.9624   17.0617 O   0  0  0  0  0  0  0  0  0  0  0  0
  -30.1805  -16.3728   19.6632 O   0  0  0  0  0  0  0  0  0  0  0  0
  -21.8309   -8.3781   23.7974 O   0  0  0  0  0  0  0  0  0  0  0  0
  -26.3207  -21.4501   21.1190 O   0  0  0  0  0  0  0  0  0  0  0  0
  -28.0986  -27.2660   20.3592 O   0  0  0  0  0  0  0  0  0  1  0  0
  -20.5016   -3.0333   23.5315 F   0  0  0  0  0  0  0  0  0  0  0  0
  -22.4902   -6.6487   25.8510 F   0  0  0  0  0  0  0  0  0  0  0  0
  1  2  1  0  0  0  0
  1  5  2  0  0  0  0
  2  6  2  0  0  0  0
  3 10  2  0  0  0  0
  3 19  1  0  0  0  0
  4 11  1  0  0  0  0
  4 19  2  0  0  0  0
  5 21  1  0  0  0  0
  6 23  1  0  0  0  0
  7 12  2  0  0  0  0
  7 22  1  0  0  0  0
  8 13  2  0  0  0  0
  8 25  1  0  0  0  0
  9 14  1  0  0  0  0
  9 25  2  0  0  0  0
 10 26  1  0  0  0  0
 11 26  2  0  0  0  0
 12 28  1  0  0  0  0
 13 27  1  0  0  0  0
 14 27  2  0  0  0  0
 15 16  2  0  0  0  0
 15 29  1  0  0  0  0
 16 30  1  0  0  0  0
 17 24  1  0  0  0  0
 17 28  2  0  0  0  0
 18 30  2  0  0  0  0
 18 31  1  0  0  0  0
 19 32  1  0  0  0  0
 20 32  1  0  0  0  0
 20 33  2  0  0  0  0
 20 34  1  0  0  0  0
 21 23  2  0  0  0  0
 21 39  1  0  0  0  0
 22 24  2  0  0  0  0
 22 40  1  0  0  0  0
 23 48  1  0  0  0  0
 24 41  1  0  0  0  0
 25 69  1  0  0  0  0
 26 78  1  0  0  0  0
 27 79  1  0  0  0  0
 28 80  1  0  0  0  0
 29 31  2  0  0  0  0
 29 78  1  0  0  0  0
 30 81  1  0  0  0  0
 31 82  1  0  0  0  0
 32 63  2  0  0  0  0
 33 64  1  0  0  0  0
 33 67  1  0  0  0  0
 34 68  1  0  0  0  0
 34 73  2  0  0  0  0
 35 49  1  0  0  0  0
 35 70  1  0  0  0  0
 35 74  2  0  0  0  0
 36 60  1  0  0  0  0
 36 65  1  0  0  0  0
 36 75  2  0  0  0  0
 37 61  1  0  0  0  0
 37 71  1  0  0  0  0
 37 76  2  0  0  0  0
 38 66  1  0  0  0  0
 38 69  1  0  0  0  0
 38 77  2  0  0  0  0
 39 42  1  0  0  0  0
 40 49  1  0  0  0  0
 41 65  1  0  0  0  0
 42 44  1  0  0  0  0
 43 45  1  0  0  0  0
 43 46  1  0  0  0  0
 44 48  1  0  0  0  0
 45 50  1  0  0  0  0
 46 66  1  0  0  0  0
 47 50  1  0  0  0  0
 47 66  1  0  0  0  0
 48 70  1  0  0  0  0
 49 65  1  0  0  0  0
 50 64  1  0  0  0  0
 51 61  1  0  0  0  0
 52 62  1  0  0  0  0
 53 62  1  0  0  0  0
 54 62  1  0  0  0  0
 55 72  1  0  0  0  0
 56 57  1  0  0  0  0
 56 58  1  0  0  0  0
 57 59  1  0  0  0  0
 58 79  1  0  0  0  0
 59 80  1  0  0  0  0
 60 62  1  0  0  0  0
 60 71  1  0  0  0  0
 61 72  1  0  0  0  0
 63 64  1  0  0  0  0
M  CHG  1  72   1
M  ISO  4  38 100  59 101  69 100  80 101
M  END
> <Batch ID>
0002

> <Smiles>
CNC(C)C(=O)NC(C(=O)N1Cc2cc([101O:1][101CH2:1]CCCOc3ccc([100NH:0][100C:0](=O)N4CCCC(n5nc(-c6ccc(Oc7ccc(F)cc7F)cc6)c(C(N)=O)c5N)C4)cc3)ccc2CC1C(=O)NC1CCCc2ccccc21)C(C)(C)C

> <Shape>
0.243

> <Color>
0.082

> <Negative vol penalty>
0.000

$$$$

  -OEChem-04042320173D

 81 89  0     1  0  0  0  0  0999 V2000
  -25.0515   -6.7635   23.3734 C   0  0  0  0  0  0  0  0  0  0  0  0
  -26.0923   -7.6582   23.1461 C   0  0  0  0  0  0  0  0  0  0  0  0
  -26.3829  -29.1615   20.6324 C   0  0  0  0  0  0  0  0  0  0  0  0
  -26.0357  -27.2737   22.0997 C   0  0  0  0  0  0  0  0  0  0  0  0
  -23.8281   -6.9408   22.7286 C   0  0  0  0  0  0  0  0  0  0  0  0
  -25.9107   -8.7301   22.2730 C   0  0  0  0  0  0  0  0  0  0  0  0
  -28.3296  -14.3343   22.7706 C   0  0  0  0  0  0  0  0  0  0  0  0
  -30.6022  -19.3588   18.4242 C   0  0  0  0  0  0  0  0  0  0  0  0
  -25.0926  -29.6135   20.9086 C   0  0  0  0  0  0  0  0  0  0  0  0
  -24.7454  -27.7258   22.3759 C   0  0  0  0  0  0  0  0  0  0  0  0
  -29.4402  -14.9327   22.1770 C   0  0  0  0  0  0  0  0  0  0  0  0
  -30.7179  -18.0249   18.8149 C   0  0  0  0  0  0  0  0  0  0  0  0
  -21.7170  -27.6870   20.8732 C   0  0  0  0  0  0  0  0  0  0  0  0
  -20.6847  -26.7491   20.8583 C   0  0  0  0  0  0  0  0  0  0  0  0
  -28.0111  -15.8973   20.4898 C   0  0  0  0  0  0  0  0  0  0  0  0
  -29.6653  -18.5514   20.9248 C   0  0  0  0  0  0  0  0  0  0  0  0
  -20.1983  -27.2477   23.1718 C   0  0  0  0  0  0  0  0  0  0  0  0
  -26.8545  -27.9916   21.2279 C   0  0  0  0  0  0  0  0  0  0  0  0
  -29.3682  -27.8463   21.6373 C   0  0  0  0  0  0  0  0  0  0  0  0
  -23.6282   -8.0209   21.8546 C   0  0  0  0  0  0  0  0  0  0  0  0
  -27.0507  -14.5043   22.2210 C   0  0  0  0  0  0  0  0  0  0  0  0
  -24.6839   -8.9213   21.6149 C   0  0  0  0  0  0  0  0  0  0  0  0
  -26.8856  -15.3021   21.0798 C   0  0  0  0  0  0  0  0  0  0  0  0
  -29.5495  -19.8854   20.5341 C   0  0  0  0  0  0  0  0  0  0  0  0
  -30.0179  -20.2891   19.2838 C   0  0  0  0  0  0  0  0  0  0  0  0
  -24.2738  -28.8957   21.7804 C   0  0  0  0  0  0  0  0  0  0  0  0
  -29.2814  -15.7119   21.0348 C   0  0  0  0  0  0  0  0  0  0  0  0
  -30.2495  -17.6212   20.0652 C   0  0  0  0  0  0  0  0  0  1  0  0
  -21.9900  -28.4052   22.0374 C   0  0  0  0  0  0  0  0  0  0  0  0
  -19.9253  -26.5294   22.0076 C   0  0  0  0  0  0  0  0  0  0  0  0
  -21.2307  -28.1856   23.1866 C   0  0  0  0  0  0  0  0  0  0  0  0
  -28.1871  -27.5238   20.9425 C   0  0  0  0  0  0  0  0  0  0  0  0
  -30.3540  -27.1524   20.9791 C   0  0  0  0  0  0  0  0  0  0  0  0
  -29.5573  -28.6970   22.7758 C   0  0  0  0  0  0  0  0  0  0  0  0
  -24.8644  -12.5573   20.9829 C   0  0  0  0  0  0  0  0  0  0  0  0
  -23.0647  -15.2552   20.9150 C   0  0  0  0  0  0  0  0  0  0  0  0
  -22.9578  -18.6654   20.8376 C   0  0  0  0  0  0  0  0  0  0  0  0
  -30.3275  -22.1865   17.6558 C   0  0  0  0  0  0  0  0  0  0  0  0
  -22.3036   -8.1444   21.1442 C   0  0  0  0  0  0  0  0  0  0  0  0
  -25.8594  -13.8740   22.8887 C   0  0  0  0  0  0  0  0  0  0  0  0
  -25.5312  -15.5324   20.4624 C   0  0  0  0  0  0  0  0  0  0  0  0
  -22.0716   -9.5192   20.5226 C   0  0  0  0  0  0  0  0  0  0  0  0
  -31.4604  -25.4109   16.6574 C   0  0  0  0  0  0  0  0  0  0  0  0
  -23.3102   -9.9754   19.7581 C   0  0  0  0  0  0  0  0  0  0  0  0
  -30.8621  -26.3473   17.7097 C   0  0  0  0  0  0  0  0  0  0  0  0
  -30.5093  -24.2672   16.3095 C   0  0  0  0  0  0  0  0  0  0  0  0
  -29.4175  -24.4349   18.5116 C   0  0  0  0  0  0  0  0  0  0  0  0
  -24.5175  -10.1105   20.6939 C   0  0  1  0  0  0  0  0  0  0  0  0
  -24.6727  -13.6936   21.9471 C   0  0  1  0  0  0  0  0  0  0  0  0
  -30.3655  -25.5662   18.9421 C   0  0  2  0  0  0  0  0  0  0  0  0
  -21.3429  -20.5842   20.7488 C   0  0  0  0  0  0  0  0  0  0  0  0
  -28.4755  -20.1608   22.7960 C   0  0  0  0  0  0  0  0  0  0  0  0
  -27.6497  -21.5116   20.8391 C   0  0  0  0  0  0  0  0  0  0  0  0
  -29.8257  -22.0527   21.9132 C   0  0  0  0  0  0  0  0  0  0  0  0
  -22.5832  -14.7097   17.9519 C   0  0  0  0  0  0  0  0  0  0  0  0
  -21.8024  -17.0766   17.7144 C   0  0  0  0  0  0  0  0  0  0  0  0
  -20.5707  -15.5025   19.2071 C   0  0  0  0  0  0  0  0  0  0  0  0
  -23.9073  -19.7356   23.4284 C   0  0  0  0  0  0  0  0  0  0  0  0
  -22.8389  -16.3649   19.9168 C   0  0  1  0  0  0  0  0  0  0  0  0
  -22.1558  -19.6667   21.6491 C   0  0  2  0  0  0  0  0  0  0  0  0
  -28.9159  -20.8595   21.4736 C   0  0  0  0  0  0  0  0  0  0  0  0
  -21.9747  -15.9077   18.7078 C   0  0  0  0  0  0  0  0  0  0  0  0
  -28.4009  -26.6900   19.9212 N   0  0  0  0  0  0  0  0  0  0  0  0
  -29.7279  -26.4828   19.9693 N   0  0  0  0  0  0  0  0  0  0  0  0
  -24.3981  -14.8897   21.1483 N   0  0  0  0  0  0  0  0  0  0  0  0
  -30.0841  -23.5702   17.5253 N   0  0  0  0  0  0  0  0  0  0  0  0
  -31.6867  -27.0559   21.1715 N   0  0  0  0  0  0  0  0  0  0  0  0
  -28.4372  -29.3332   23.3279 N   0  0  0  0  0  0  0  0  0  0  0  0
  -29.9085  -21.6392   18.8681 N   0  0  0  0  0  0  0  0  0  0  0  0
  -24.4290  -11.3355   21.4594 N   0  0  0  0  0  0  0  0  0  0  0  0
  -22.2733  -17.4806   20.6676 N   0  0  0  0  0  0  0  0  0  0  0  0
  -23.0644  -20.5072   22.4791 N   0  3  0  0  0  0  0  0  0  0  0  0
  -30.6886  -28.9004   23.2782 O   0  0  0  0  0  0  0  0  0  0  0  0
  -25.3687  -12.7733   19.8871 O   0  0  0  0  0  0  0  0  0  0  0  0
  -22.0942  -14.7368   21.4728 O   0  0  0  0  0  0  0  0  0  0  0  0
  -24.0779  -18.9111   20.3954 O   0  0  0  0  0  0  0  0  0  0  0  0
  -30.8923  -21.5405   16.7695 O   0  0  0  0  0  0  0  0  0  0  0  0
  -23.0147  -29.3366   22.0503 O   0  0  0  0  0  0  0  0  0  0  0  0
  -30.3638  -16.2966   20.4530 O   0  0  0  0  0  0  0  0  0  1  0  0
  -18.9330  -25.6298   21.9927 F   0  0  0  0  0  0  0  0  0  0  0  0
  -21.4875  -28.8734   24.3077 F   0  0  0  0  0  0  0  0  0  0  0  0
  1  2  1  0  0  0  0
  1  5  2  0  0  0  0
  2  6  2  0  0  0  0
  3  9  2  0  0  0  0
  3 18  1  0  0  0  0
  4 10  1  0  0  0  0
  4 18  2  0  0  0  0
  5 20  1  0  0  0  0
  6 22  1  0  0  0  0
  7 11  2  0  0  0  0
  7 21  1  0  0  0  0
  8 12  2  0  0  0  0
  8 25  1  0  0  0  0
  9 26  1  0  0  0  0
 10 26  2  0  0  0  0
 11 27  1  0  0  0  0
 12 28  1  0  0  0  0
 13 14  2  0  0  0  0
 13 29  1  0  0  0  0
 14 30  1  0  0  0  0
 15 23  1  0  0  0  0
 15 27  2  0  0  0  0
 16 24  1  0  0  0  0
 16 28  2  0  0  0  0
 17 30  2  0  0  0  0
 17 31  1  0  0  0  0
 18 32  1  0  0  0  0
 19 32  1  0  0  0  0
 19 33  2  0  0  0  0
 19 34  1  0  0  0  0
 20 22  2  0  0  0  0
 20 39  1  0  0  0  0
 21 23  2  0  0  0  0
 21 40  1  0  0  0  0
 22 48  1  0  0  0  0
 23 41  1  0  0  0  0
 24 25  2  0  0  0  0
 24 61  1  0  0  0  0
 25 69  1  0  0  0  0
 26 78  1  0  0  0  0
 27 79  1  0  0  0  0
 28 79  1  0  0  0  0
 29 31  2  0  0  0  0
 29 78  1  0  0  0  0
 30 80  1  0  0  0  0
 31 81  1  0  0  0  0
 32 63  2  0  0  0  0
 33 64  1  0  0  0  0
 33 67  1  0  0  0  0
 34 68  1  0  0  0  0
 34 73  2  0  0  0  0
 35 49  1  0  0  0  0
 35 70  1  0  0  0  0
 35 74  2  0  0  0  0
 36 59  1  0  0  0  0
 36 65  1  0  0  0  0
 36 75  2  0  0  0  0
 37 60  1  0  0  0  0
 37 71  1  0  0  0  0
 37 76  2  0  0  0  0
 38 66  1  0  0  0  0
 38 69  1  0  0  0  0
 38 77  2  0  0  0  0
 39 42  1  0  0  0  0
 40 49  1  0  0  0  0
 41 65  1  0  0  0  0
 42 44  1  0  0  0  0
 43 45  1  0  0  0  0
 43 46  1  0  0  0  0
 44 48  1  0  0  0  0
 45 50  1  0  0  0  0
 46 66  1  0  0  0  0
 47 50  1  0  0  0  0
 47 66  1  0  0  0  0
 48 70  1  0  0  0  0
 49 65  1  0  0  0  0
 50 64  1  0  0  0  0
 51 60  1  0  0  0  0
 52 61  1  0  0  0  0
 53 61  1  0  0  0  0
 54 61  1  0  0  0  0
 55 62  1  0  0  0  0
 56 62  1  0  0  0  0
 57 62  1  0  0  0  0
 58 72  1  0  0  0  0
 59 62  1  0  0  0  0
 59 71  1  0  0  0  0
 60 72  1  0  0  0  0
 63 64  1  0  0  0  0
M  CHG  1  72   1
M  ISO  4  28 101  38 100  69 100  79 101
M  END
> <Batch ID>
0002

> <Smiles>
CNC(C)C(=O)NC(C(=O)N1Cc2cc([101O:1][101c:1]3ccc([100NH:0][100C:0](=O)N4CCCC(n5nc(-c6ccc(Oc7ccc(F)cc7F)cc6)c(C(N)=O)c5N)C4)c(C(C)(C)C)c3)ccc2CC1C(=O)NC1CCCc2ccccc21)C(C)(C)C

> <Shape>
0.288

> <Color>
0.056

> <Negative vol penalty>
0.000

$$$$

  -OEChem-04042320173D

 80 88  0     1  0  0  0  0  0999 V2000
  -17.9506  -22.6565   27.1815 C   0  0  0  0  0  0  0  0  0  0  0  0
  -19.2802  -22.4148   26.8513 C   0  0  0  0  0  0  0  0  0  0  0  0
  -31.3556  -19.3434   19.1129 C   0  0  0  0  0  0  0  0  0  0  0  0
  -22.9963   -9.9022   19.9809 C   0  0  0  0  0  0  0  0  0  0  0  0
  -23.7280   -9.9460   22.2831 C   0  0  0  0  0  0  0  0  0  0  0  0
  -30.1315  -20.0121   19.1131 C   0  0  0  0  0  0  0  0  0  0  0  0
  -16.9301  -22.0744   26.4307 C   0  0  0  0  0  0  0  0  0  0  0  0
  -19.5901  -21.5898   25.7706 C   0  0  0  0  0  0  0  0  0  0  0  0
  -24.3222  -22.1786   21.9278 C   0  0  0  0  0  0  0  0  0  0  0  0
  -31.5840  -18.3064   20.0174 C   0  0  0  0  0  0  0  0  0  0  0  0
  -22.2288   -8.7682   20.2464 C   0  0  0  0  0  0  0  0  0  0  0  0
  -22.9603   -8.8120   22.5486 C   0  0  0  0  0  0  0  0  0  0  0  0
  -25.5691  -21.5573   21.8733 C   0  0  0  0  0  0  0  0  0  0  0  0
  -23.1981   -5.4740   22.0673 C   0  0  0  0  0  0  0  0  0  0  0  0
  -23.7862   -4.4539   22.8151 C   0  0  0  0  0  0  0  0  0  0  0  0
  -29.3642  -18.6069   20.9225 C   0  0  0  0  0  0  0  0  0  0  0  0
  -24.7026  -19.9722   20.2746 C   0  0  0  0  0  0  0  0  0  0  0  0
  -22.0673   -4.6951   24.4957 C   0  0  0  0  0  0  0  0  0  0  0  0
  -23.7460  -10.4911   20.9992 C   0  0  0  0  0  0  0  0  0  0  0  0
  -29.1358  -19.6439   20.0179 C   0  0  0  0  0  0  0  0  0  0  0  0
  -24.1348  -13.0065   20.8287 C   0  0  0  0  0  0  0  0  0  0  0  0
  -17.2276  -21.2497   25.3344 C   0  0  0  0  0  0  0  0  0  0  0  0
  -23.2514  -21.6938   21.1632 C   0  0  0  0  0  0  0  0  0  0  0  0
  -18.5727  -20.9951   25.0053 C   0  0  0  0  0  0  0  0  0  0  0  0
  -23.4438  -20.5906   20.3194 C   0  0  0  0  0  0  0  0  0  0  0  0
  -30.5883  -17.9382   20.9222 C   0  0  0  0  0  0  0  0  0  0  0  0
  -22.2107   -8.2231   21.5302 C   0  0  0  0  0  0  0  0  0  0  0  0
  -25.7587  -20.4522   21.0488 C   0  0  0  0  0  0  0  0  0  0  0  0
  -22.0447   -6.1047   22.5337 C   0  0  0  0  0  0  0  0  0  0  0  0
  -23.2207   -4.0645   24.0293 C   0  0  0  0  0  0  0  0  0  0  0  0
  -21.4793   -5.7153   23.7479 C   0  0  0  0  0  0  0  0  0  0  0  0
  -24.5395  -11.6622   20.7255 C   0  0  0  0  0  0  0  0  0  0  0  0
  -25.2446  -13.7283   20.4631 C   0  0  0  0  0  0  0  0  0  0  0  0
  -22.8687  -13.5539   21.2202 C   0  0  0  0  0  0  0  0  0  0  0  0
  -27.8320  -20.3559   20.0174 C   0  0  0  0  0  0  0  0  0  1  0  0
  -20.3868  -20.4865   21.8267 C   0  0  0  0  0  0  0  0  0  0  0  0
  -20.0248  -20.5970   18.6050 C   0  0  0  0  0  0  0  0  0  0  0  0
  -21.4931  -20.6471   15.5246 C   0  0  0  0  0  0  0  0  0  0  0  0
  -30.7431  -14.6537   20.6990 C   0  0  0  0  0  0  0  0  0  0  0  0
  -16.0909  -20.6048   24.5816 C   0  0  0  0  0  0  0  0  0  0  0  0
  -21.9198  -22.3916   21.2131 C   0  0  0  0  0  0  0  0  0  0  0  0
  -22.3320  -20.0437   19.4631 C   0  0  0  0  0  0  0  0  0  0  0  0
  -16.5011  -20.0441   23.2223 C   0  0  0  0  0  0  0  0  0  0  0  0
  -29.5922  -12.2380   18.3503 C   0  0  0  0  0  0  0  0  0  0  0  0
  -17.7925  -19.2413   23.3436 C   0  0  0  0  0  0  0  0  0  0  0  0
  -28.1445  -11.9794   18.7712 C   0  0  0  0  0  0  0  0  0  0  0  0
  -30.4983  -12.4688   19.5577 C   0  0  0  0  0  0  0  0  0  0  0  0
  -28.5931  -13.2638   20.9038 C   0  0  0  0  0  0  0  0  0  0  0  0
  -18.9489  -20.1259   23.8250 C   0  0  1  0  0  0  0  0  0  0  0  0
  -20.7608  -21.4987   20.7810 C   0  0  1  0  0  0  0  0  0  0  0  0
  -27.6305  -13.0807   19.7179 C   0  0  2  0  0  0  0  0  0  0  0  0
  -20.9372  -20.7003   13.0781 C   0  0  0  0  0  0  0  0  0  0  0  0
  -19.2767  -17.6409   18.7131 C   0  0  0  0  0  0  0  0  0  0  0  0
  -19.6638  -17.5242   16.2424 C   0  0  0  0  0  0  0  0  0  0  0  0
  -17.8828  -19.0135   17.1550 C   0  0  0  0  0  0  0  0  0  0  0  0
  -22.8889  -23.2290   15.1451 C   0  0  0  0  0  0  0  0  0  0  0  0
  -30.8325  -16.8294   21.8896 C   0  0  0  0  0  0  0  0  0  0  0  0
  -20.3099  -19.6505   17.4641 C   0  0  1  0  0  0  0  0  0  0  0  0
  -21.2595  -21.5294   14.3116 C   0  0  2  0  0  0  0  0  0  0  0  0
  -19.3039  -18.4661   17.4111 C   0  0  0  0  0  0  0  0  0  0  0  0
  -25.8075  -11.5347   20.3255 N   0  0  0  0  0  0  0  0  0  0  0  0
  -26.2091  -12.8083   20.1741 N   0  0  0  0  0  0  0  0  0  0  0  0
  -21.0469  -20.7566   19.5515 N   0  0  0  0  0  0  0  0  0  0  0  0
  -29.9555  -13.5261   20.4140 N   0  0  0  0  0  0  0  0  0  0  0  0
  -25.4799  -15.0539   20.3639 N   0  0  0  0  0  0  0  0  0  0  0  0
  -21.8365  -12.6705   21.5642 N   0  0  0  0  0  0  0  0  0  0  0  0
  -19.4506  -20.9380   22.7372 N   0  0  0  0  0  0  0  0  0  0  0  0
  -20.3374  -20.4657   16.2545 N   0  0  0  0  0  0  0  0  0  0  0  0
  -30.1505  -15.6113   21.5129 N   0  0  0  0  0  0  0  0  0  0  0  0
  -22.4718  -22.3472   14.0247 N   0  3  0  0  0  0  0  0  0  0  0  0
  -22.6540  -14.7895   21.2477 O   0  0  0  0  0  0  0  0  0  0  0  0
  -27.5699  -21.2710   19.2512 O   0  0  0  0  0  0  0  0  0  0  0  0
  -20.9078  -19.3776   21.8078 O   0  0  0  0  0  0  0  0  0  0  0  0
  -18.9382  -21.1791   18.6507 O   0  0  0  0  0  0  0  0  0  0  0  0
  -22.5902  -20.1638   15.7954 O   0  0  0  0  0  0  0  0  0  0  0  0
  -31.8876  -14.7990   20.2561 O   0  0  0  0  0  0  0  0  0  0  0  0
  -21.4617   -7.1167   21.7897 O   0  0  0  0  0  0  0  0  0  0  0  0
  -26.9746  -19.8435   20.9941 O   0  0  0  0  0  0  0  0  0  1  0  0
  -23.7846   -3.0838   24.7466 F   0  0  0  0  0  0  0  0  0  0  0  0
  -20.3706   -6.3167   24.2005 F   0  0  0  0  0  0  0  0  0  0  0  0
  1  2  1  0  0  0  0
  1  7  2  0  0  0  0
  2  8  2  0  0  0  0
  3  6  2  0  0  0  0
  3 10  1  0  0  0  0
  4 11  2  0  0  0  0
  4 19  1  0  0  0  0
  5 12  1  0  0  0  0
  5 19  2  0  0  0  0
  6 20  1  0  0  0  0
  7 22  1  0  0  0  0
  8 24  1  0  0  0  0
  9 13  2  0  0  0  0
  9 23  1  0  0  0  0
 10 26  2  0  0  0  0
 11 27  1  0  0  0  0
 12 27  2  0  0  0  0
 13 28  1  0  0  0  0
 14 15  2  0  0  0  0
 14 29  1  0  0  0  0
 15 30  1  0  0  0  0
 16 20  2  0  0  0  0
 16 26  1  0  0  0  0
 17 25  1  0  0  0  0
 17 28  2  0  0  0  0
 18 30  2  0  0  0  0
 18 31  1  0  0  0  0
 19 32  1  0  0  0  0
 20 35  1  0  0  0  0
 21 32  1  0  0  0  0
 21 33  2  0  0  0  0
 21 34  1  0  0  0  0
 22 24  2  0  0  0  0
 22 40  1  0  0  0  0
 23 25  2  0  0  0  0
 23 41  1  0  0  0  0
 24 49  1  0  0  0  0
 25 42  1  0  0  0  0
 26 57  1  0  0  0  0
 27 77  1  0  0  0  0
 28 78  1  0  0  0  0
 29 31  2  0  0  0  0
 29 77  1  0  0  0  0
 30 79  1  0  0  0  0
 31 80  1  0  0  0  0
 32 61  2  0  0  0  0
 33 62  1  0  0  0  0
 33 65  1  0  0  0  0
 34 66  1  0  0  0  0
 34 71  2  0  0  0  0
 35 72  2  0  0  0  0
 35 78  1  0  0  0  0
 36 50  1  0  0  0  0
 36 67  1  0  0  0  0
 36 73  2  0  0  0  0
 37 58  1  0  0  0  0
 37 63  1  0  0  0  0
 37 74  2  0  0  0  0
 38 59  1  0  0  0  0
 38 68  1  0  0  0  0
 38 75  2  0  0  0  0
 39 64  1  0  0  0  0
 39 69  1  0  0  0  0
 39 76  2  0  0  0  0
 40 43  1  0  0  0  0
 41 50  1  0  0  0  0
 42 63  1  0  0  0  0
 43 45  1  0  0  0  0
 44 46  1  0  0  0  0
 44 47  1  0  0  0  0
 45 49  1  0  0  0  0
 46 51  1  0  0  0  0
 47 64  1  0  0  0  0
 48 51  1  0  0  0  0
 48 64  1  0  0  0  0
 49 67  1  0  0  0  0
 50 63  1  0  0  0  0
 51 62  1  0  0  0  0
 52 59  1  0  0  0  0
 53 60  1  0  0  0  0
 54 60  1  0  0  0  0
 55 60  1  0  0  0  0
 56 70  1  0  0  0  0
 57 69  1  0  0  0  0
 58 60  1  0  0  0  0
 58 68  1  0  0  0  0
 59 70  1  0  0  0  0
 61 62  1  0  0  0  0
M  CHG  1  70   1
M  ISO  4  35 101  39 100  69 100  78 101
M  END
> <Batch ID>
0002

> <Smiles>
CNC(C)C(=O)NC(C(=O)N1Cc2cc([101O:1][101C:1](=O)c3cccc(C[100NH:0][100C:0](=O)N4CCCC(n5nc(-c6ccc(Oc7ccc(F)cc7F)cc6)c(C(N)=O)c5N)C4)c3)ccc2CC1C(=O)NC1CCCc2ccccc21)C(C)(C)C

> <Shape>
0.206

> <Color>
0.207

> <Negative vol penalty>
0.000

$$$$

  -OEChem-04042320173D

 81 89  0     1  0  0  0  0  0999 V2000
  -31.4788  -26.2108    8.1281 C   0  0  0  0  0  0  0  0  0  0  0  0
  -31.2253  -25.2318    9.0834 C   0  0  0  0  0  0  0  0  0  0  0  0
  -22.9688   -9.9247   19.9847 C   0  0  0  0  0  0  0  0  0  0  0  0
  -23.7127   -9.9442   22.2832 C   0  0  0  0  0  0  0  0  0  0  0  0
  -31.6057  -19.1848   19.1033 C   0  0  0  0  0  0  0  0  0  0  0  0
  -31.8804  -27.4850    8.5270 C   0  0  0  0  0  0  0  0  0  0  0  0
  -31.3742  -25.5261   10.4382 C   0  0  0  0  0  0  0  0  0  0  0  0
  -28.0194  -23.3382   15.0712 C   0  0  0  0  0  0  0  0  0  0  0  0
  -31.7554  -18.1625   20.0403 C   0  0  0  0  0  0  0  0  0  0  0  0
  -22.1902   -8.7973   20.2462 C   0  0  0  0  0  0  0  0  0  0  0  0
  -22.9341   -8.8168   22.5448 C   0  0  0  0  0  0  0  0  0  0  0  0
  -28.2365  -22.3028   15.9793 C   0  0  0  0  0  0  0  0  0  0  0  0
  -23.1327   -5.4799   22.0389 C   0  0  0  0  0  0  0  0  0  0  0  0
  -23.7134   -4.4482   22.7764 C   0  0  0  0  0  0  0  0  0  0  0  0
  -29.3585  -19.5826   19.8961 C   0  0  0  0  0  0  0  0  0  0  0  0
  -29.0820  -23.8945   17.5827 C   0  0  0  0  0  0  0  0  0  0  0  0
  -22.0060   -4.6963   24.4677 C   0  0  0  0  0  0  0  0  0  0  0  0
  -23.7301  -10.4981   21.0032 C   0  0  0  0  0  0  0  0  0  0  0  0
  -30.4073  -19.8949   19.0312 C   0  0  0  0  0  0  0  0  0  0  0  0
  -24.1456  -13.0103   20.8483 C   0  0  0  0  0  0  0  0  0  0  0  0
  -32.0249  -27.7979    9.8878 C   0  0  0  0  0  0  0  0  0  0  0  0
  -28.3427  -24.6604   15.4085 C   0  0  0  0  0  0  0  0  0  0  0  0
  -31.7793  -26.8053   10.8557 C   0  0  0  0  0  0  0  0  0  0  0  0
  -28.8657  -24.9452   16.6780 C   0  0  0  0  0  0  0  0  0  0  0  0
  -30.7066  -17.8501   20.9052 C   0  0  0  0  0  0  0  0  0  0  0  0
  -29.5081  -18.5602   20.8331 C   0  0  0  0  0  0  0  0  0  0  0  0
  -22.1728   -8.2434   21.5263 C   0  0  0  0  0  0  0  0  0  0  0  0
  -28.7705  -22.5805   17.2342 C   0  0  0  0  0  0  0  0  0  0  0  0
  -21.9887   -6.1199   22.5157 C   0  0  0  0  0  0  0  0  0  0  0  0
  -23.1500   -4.0563   23.9908 C   0  0  0  0  0  0  0  0  0  0  0  0
  -21.4253   -5.7281   23.7301 C   0  0  0  0  0  0  0  0  0  0  0  0
  -24.5350  -11.6624   20.7335 C   0  0  0  0  0  0  0  0  0  0  0  0
  -25.2614  -13.7225   20.4820 C   0  0  0  0  0  0  0  0  0  0  0  0
  -22.8877  -13.5687   21.2502 C   0  0  0  0  0  0  0  0  0  0  0  0
  -30.2485  -20.9845   18.0339 C   0  0  0  0  0  0  0  0  0  1  0  0
  -30.3546  -26.8393   14.2647 C   0  0  0  0  0  0  0  0  0  0  0  0
  -28.8889  -28.7616   16.4278 C   0  0  0  0  0  0  0  0  0  0  0  0
  -27.1091  -29.0310   19.3272 C   0  0  0  0  0  0  0  0  0  0  0  0
  -30.7709  -14.5859   20.6954 C   0  0  0  0  0  0  0  0  0  0  0  0
  -32.5069  -29.1753   10.2687 C   0  0  0  0  0  0  0  0  0  0  0  0
  -28.0776  -25.7693   14.4275 C   0  0  0  0  0  0  0  0  0  0  0  0
  -29.2107  -26.3503   17.0965 C   0  0  0  0  0  0  0  0  0  0  0  0
  -32.2789  -29.5153   11.7393 C   0  0  0  0  0  0  0  0  0  0  0  0
  -29.5814  -12.1996   18.3360 C   0  0  0  0  0  0  0  0  0  0  0  0
  -32.7212  -28.3583   12.6296 C   0  0  0  0  0  0  0  0  0  0  0  0
  -28.1331  -11.9539   18.7626 C   0  0  0  0  0  0  0  0  0  0  0  0
  -30.4962  -12.4119   19.5401 C   0  0  0  0  0  0  0  0  0  0  0  0
  -28.6068  -13.2182   20.9018 C   0  0  0  0  0  0  0  0  0  0  0  0
  -31.9057  -27.0933   12.3359 C   0  0  1  0  0  0  0  0  0  0  0  0
  -28.9232  -27.0121   14.6878 C   0  0  1  0  0  0  0  0  0  0  0  0
  -27.6362  -13.0541   19.7197 C   0  0  2  0  0  0  0  0  0  0  0  0
  -28.3721  -18.2446   21.7502 C   0  0  0  0  0  0  0  0  0  0  0  0
  -26.0885  -30.7348   20.8611 C   0  0  0  0  0  0  0  0  0  0  0  0
  -31.6576  -29.4331   17.5202 C   0  0  0  0  0  0  0  0  0  0  0  0
  -30.5508  -30.3375   19.5758 C   0  0  0  0  0  0  0  0  0  0  0  0
  -30.0999  -31.3827   17.3561 C   0  0  0  0  0  0  0  0  0  0  0  0
  -24.3876  -27.9447   18.9122 C   0  0  0  0  0  0  0  0  0  0  0  0
  -30.8903  -16.7520   21.9008 C   0  0  0  0  0  0  0  0  0  0  0  0
  -29.1210  -29.1108   17.8780 C   0  0  1  0  0  0  0  0  0  0  0  0
  -25.8566  -29.8168   19.6710 C   0  0  2  0  0  0  0  0  0  0  0  0
  -30.3527  -30.0392   18.0742 C   0  0  0  0  0  0  0  0  0  0  0  0
  -25.7995  -11.5239   20.3260 N   0  0  0  0  0  0  0  0  0  0  0  0
  -26.2142  -12.7940   20.1814 N   0  0  0  0  0  0  0  0  0  0  0  0
  -28.9391  -27.3994   16.0999 N   0  0  0  0  0  0  0  0  0  0  0  0
  -29.9695  -13.4691   20.4067 N   0  0  0  0  0  0  0  0  0  0  0  0
  -25.5107  -15.0461   20.3908 N   0  0  0  0  0  0  0  0  0  0  0  0
  -21.8476  -12.6942   21.5935 N   0  0  0  0  0  0  0  0  0  0  0  0
  -30.5974  -27.1819   12.9483 N   0  0  0  0  0  0  0  0  0  0  0  0
  -27.8665  -29.6708   18.3690 N   0  0  0  0  0  0  0  0  0  0  0  0
  -30.1930  -15.5442   21.5192 N   0  0  0  0  0  0  0  0  0  0  0  0
  -24.7383  -28.8896   20.0036 N   0  3  0  0  0  0  0  0  0  0  0  0
  -22.6867  -14.8063   21.2876 O   0  0  0  0  0  0  0  0  0  0  0  0
  -31.1284  -21.3068   17.2497 O   0  0  0  0  0  0  0  0  0  0  0  0
  -31.1780  -26.4272   15.0733 O   0  0  0  0  0  0  0  0  0  0  0  0
  -28.6640  -29.6637   15.6171 O   0  0  0  0  0  0  0  0  0  0  0  0
  -27.3895  -27.9588   19.8585 O   0  0  0  0  0  0  0  0  0  0  0  0
  -31.9146  -14.7218   20.2476 O   0  0  0  0  0  0  0  0  0  0  0  0
  -21.4130   -7.1435   21.7819 O   0  0  0  0  0  0  0  0  0  0  0  0
  -28.9840  -21.5717   18.1222 O   0  0  0  0  0  0  0  0  0  1  0  0
  -23.7068   -3.0645   24.6982 F   0  0  0  0  0  0  0  0  0  0  0  0
  -20.3257   -6.3384   24.1928 F   0  0  0  0  0  0  0  0  0  0  0  0
  1  2  1  0  0  0  0
  1  6  2  0  0  0  0
  2  7  2  0  0  0  0
  3 10  2  0  0  0  0
  3 18  1  0  0  0  0
  4 11  1  0  0  0  0
  4 18  2  0  0  0  0
  5  9  2  0  0  0  0
  5 19  1  0  0  0  0
  6 21  1  0  0  0  0
  7 23  1  0  0  0  0
  8 12  2  0  0  0  0
  8 22  1  0  0  0  0
  9 25  1  0  0  0  0
 10 27  1  0  0  0  0
 11 27  2  0  0  0  0
 12 28  1  0  0  0  0
 13 14  2  0  0  0  0
 13 29  1  0  0  0  0
 14 30  1  0  0  0  0
 15 19  2  0  0  0  0
 15 26  1  0  0  0  0
 16 24  1  0  0  0  0
 16 28  2  0  0  0  0
 17 30  2  0  0  0  0
 17 31  1  0  0  0  0
 18 32  1  0  0  0  0
 19 35  1  0  0  0  0
 20 32  1  0  0  0  0
 20 33  2  0  0  0  0
 20 34  1  0  0  0  0
 21 23  2  0  0  0  0
 21 40  1  0  0  0  0
 22 24  2  0  0  0  0
 22 41  1  0  0  0  0
 23 49  1  0  0  0  0
 24 42  1  0  0  0  0
 25 26  2  0  0  0  0
 25 58  1  0  0  0  0
 26 52  1  0  0  0  0
 27 78  1  0  0  0  0
 28 79  1  0  0  0  0
 29 31  2  0  0  0  0
 29 78  1  0  0  0  0
 30 80  1  0  0  0  0
 31 81  1  0  0  0  0
 32 62  2  0  0  0  0
 33 63  1  0  0  0  0
 33 66  1  0  0  0  0
 34 67  1  0  0  0  0
 34 72  2  0  0  0  0
 35 73  2  0  0  0  0
 35 79  1  0  0  0  0
 36 50  1  0  0  0  0
 36 68  1  0  0  0  0
 36 74  2  0  0  0  0
 37 59  1  0  0  0  0
 37 64  1  0  0  0  0
 37 75  2  0  0  0  0
 38 60  1  0  0  0  0
 38 69  1  0  0  0  0
 38 76  2  0  0  0  0
 39 65  1  0  0  0  0
 39 70  1  0  0  0  0
 39 77  2  0  0  0  0
 40 43  1  0  0  0  0
 41 50  1  0  0  0  0
 42 64  1  0  0  0  0
 43 45  1  0  0  0  0
 44 46  1  0  0  0  0
 44 47  1  0  0  0  0
 45 49  1  0  0  0  0
 46 51  1  0  0  0  0
 47 65  1  0  0  0  0
 48 51  1  0  0  0  0
 48 65  1  0  0  0  0
 49 68  1  0  0  0  0
 50 64  1  0  0  0  0
 51 63  1  0  0  0  0
 53 60  1  0  0  0  0
 54 61  1  0  0  0  0
 55 61  1  0  0  0  0
 56 61  1  0  0  0  0
 57 71  1  0  0  0  0
 58 70  1  0  0  0  0
 59 61  1  0  0  0  0
 59 69  1  0  0  0  0
 60 71  1  0  0  0  0
 62 63  1  0  0  0  0
M  CHG  1  71   1
M  ISO  4  35 101  39 100  70 100  79 101
M  END
> <Batch ID>
0002

> <Smiles>
CNC(C)C(=O)NC(C(=O)N1Cc2cc([101O:1][101C:1](=O)c3ccc(C[100NH:0][100C:0](=O)N4CCCC(n5nc(-c6ccc(Oc7ccc(F)cc7F)cc6)c(C(N)=O)c5N)C4)c(C)c3)ccc2CC1C(=O)NC1CCCc2ccccc21)C(C)(C)C

> <Shape>
0.253

> <Color>
0.208

> <Negative vol penalty>
0.000

$$$$

  -OEChem-04042320173D

 85 94  0     1  0  0  0  0  0999 V2000
  -21.7428  -18.3969   22.2756 C   0  0  0  0  0  0  0  0  0  0  0  0
  -22.8171  -19.2807   22.2608 C   0  0  0  0  0  0  0  0  0  0  0  0
  -23.0546   -9.7922   19.9660 C   0  0  0  0  0  0  0  0  0  0  0  0
  -23.7274   -9.9092   22.2834 C   0  0  0  0  0  0  0  0  0  0  0  0
  -20.5090  -18.7926   21.7608 C   0  0  0  0  0  0  0  0  0  0  0  0
  -22.6585  -20.5604   21.7301 C   0  0  0  0  0  0  0  0  0  0  0  0
  -31.2790  -19.0317   20.4994 C   0  0  0  0  0  0  0  0  0  0  0  0
  -29.5822  -19.3034   22.1977 C   0  0  0  0  0  0  0  0  0  0  0  0
  -24.7363  -24.1433   24.6440 C   0  0  0  0  0  0  0  0  0  0  0  0
  -31.1100  -17.6482   20.5518 C   0  0  0  0  0  0  0  0  0  0  0  0
  -29.4131  -17.9199   22.2501 C   0  0  0  0  0  0  0  0  0  0  0  0
  -22.3002   -8.6520   20.2425 C   0  0  0  0  0  0  0  0  0  0  0  0
  -22.9729   -8.7691   22.5601 C   0  0  0  0  0  0  0  0  0  0  0  0
  -26.1206  -24.2950   24.5770 C   0  0  0  0  0  0  0  0  0  0  0  0
  -21.5136   -5.6817   23.8044 C   0  0  0  0  0  0  0  0  0  0  0  0
  -22.0985   -4.6936   24.5964 C   0  0  0  0  0  0  0  0  0  0  0  0
  -25.8364  -26.1813   23.1005 C   0  0  0  0  0  0  0  0  0  0  0  0
  -23.8653   -4.4350   22.9689 C   0  0  0  0  0  0  0  0  0  0  0  0
  -23.7683  -10.4207   20.9864 C   0  0  0  0  0  0  0  0  0  0  0  0
  -24.1180  -12.9374   20.7587 C   0  0  0  0  0  0  0  0  0  0  0  0
  -30.5152  -19.8594   21.3224 C   0  0  0  0  0  0  0  0  0  0  0  0
  -20.3325  -20.0811   21.2324 C   0  0  0  0  0  0  0  0  0  0  0  0
  -23.8906  -25.0042   23.9299 C   0  0  0  0  0  0  0  0  0  0  0  0
  -21.4215  -20.9733   21.2066 C   0  0  0  0  0  0  0  0  0  0  0  0
  -24.4416  -26.0401   23.1622 C   0  0  0  0  0  0  0  0  0  0  0  0
  -30.1770  -17.0922   21.4271 C   0  0  0  0  0  0  0  0  0  0  0  0
  -22.2593   -8.1405   21.5396 C   0  0  0  0  0  0  0  0  0  0  0  0
  -26.6710  -25.3123   23.8028 C   0  0  0  0  0  0  0  0  0  0  0  0
  -22.1045   -6.0464   22.5947 C   0  0  0  0  0  0  0  0  0  0  0  0
  -23.2744   -4.0703   24.1787 C   0  0  0  0  0  0  0  0  0  0  0  0
  -23.2804   -5.4231   22.1769 C   0  0  0  0  0  0  0  0  0  0  0  0
  -24.5482  -11.5982   20.7012 C   0  0  0  0  0  0  0  0  0  0  0  0
  -25.2241  -13.6690   20.4015 C   0  0  0  0  0  0  0  0  0  0  0  0
  -22.8333  -13.4722   21.1042 C   0  0  0  0  0  0  0  0  0  0  0  0
  -21.7542  -24.6315   21.6059 C   0  0  0  0  0  0  0  0  0  0  0  0
  -21.1874  -27.7781   22.1534 C   0  0  0  0  0  0  0  0  0  0  0  0
  -22.3385  -30.7673   23.3310 C   0  0  0  0  0  0  0  0  0  0  0  0
  -30.6813  -14.7239   20.7323 C   0  0  0  0  0  0  0  0  0  0  0  0
  -18.9929  -20.4473   20.6441 C   0  0  0  0  0  0  0  0  0  0  0  0
  -22.3986  -24.8440   24.0340 C   0  0  0  0  0  0  0  0  0  0  0  0
  -23.5766  -27.0035   22.3928 C   0  0  0  0  0  0  0  0  0  0  0  0
  -18.8065  -21.9488   20.4415 C   0  0  0  0  0  0  0  0  0  0  0  0
  -29.6537  -12.1990   18.4418 C   0  0  0  0  0  0  0  0  0  0  0  0
  -20.0401  -22.5553   19.7802 C   0  0  0  0  0  0  0  0  0  0  0  0
  -28.1984  -11.9278   18.8302 C   0  0  0  0  0  0  0  0  0  0  0  0
  -29.3862  -22.0221   20.8372 C   0  0  0  0  0  0  0  0  0  0  0  0
  -31.1588  -21.8735   22.6324 C   0  0  0  0  0  0  0  0  0  0  0  0
  -30.5231  -12.4854   19.6649 C   0  0  0  0  0  0  0  0  0  0  0  0
  -28.5664  -13.2745   20.9368 C   0  0  0  0  0  0  0  0  0  0  0  0
  -29.5142  -23.5400   20.8502 C   0  0  0  0  0  0  0  0  0  0  0  0
  -31.2734  -23.3925   22.6314 C   0  0  0  0  0  0  0  0  0  0  0  0
  -30.6964  -21.3420   21.2661 C   0  0  0  0  0  0  0  0  0  0  0  0
  -21.2821  -22.3783   20.6620 C   0  0  1  0  0  0  0  0  0  0  0  0
  -21.6481  -25.4580   22.8563 C   0  0  1  0  0  0  0  0  0  0  0  0
  -27.6385  -13.0446   19.7328 C   0  0  2  0  0  0  0  0  0  0  0  0
  -21.6610  -33.1674   23.6099 C   0  0  0  0  0  0  0  0  0  0  0  0
  -21.6400  -28.2497   19.1730 C   0  0  0  0  0  0  0  0  0  0  0  0
  -21.8951  -30.6904   19.6689 C   0  0  0  0  0  0  0  0  0  0  0  0
  -19.7362  -29.5395   20.1559 C   0  0  0  0  0  0  0  0  0  0  0  0
  -22.6103  -30.6229   26.2745 C   0  0  0  0  0  0  0  0  0  0  0  0
  -29.9706  -25.4961   22.3267 C   0  0  0  0  0  0  0  0  0  0  0  0
  -28.5557  -26.0020   22.5268 C   0  0  0  0  0  0  0  0  0  1  0  0
  -21.7461  -29.0741   21.6173 C   0  0  1  0  0  0  0  0  0  0  0  0
  -21.7125  -31.7929   24.2587 C   0  0  2  0  0  0  0  0  0  0  0  0
  -21.2710  -29.3692   20.1666 C   0  0  0  0  0  0  0  0  0  0  0  0
  -25.8278  -11.4829   20.3361 N   0  0  0  0  0  0  0  0  0  0  0  0
  -26.2111  -12.7590   20.1608 N   0  0  0  0  0  0  0  0  0  0  0  0
  -22.1239  -26.8018   22.5215 N   0  0  0  0  0  0  0  0  0  0  0  0
  -29.9329  -13.5569   20.4702 N   0  0  0  0  0  0  0  0  0  0  0  0
  -25.4391  -14.9955   20.2728 N   0  0  0  0  0  0  0  0  0  0  0  0
  -21.8081  -12.5798   21.4461 N   0  0  0  0  0  0  0  0  0  0  0  0
  -30.0049  -15.6868   21.4804 N   0  0  0  0  0  0  0  0  0  0  0  0
  -21.2768  -23.3419   21.7418 N   0  0  0  0  0  0  0  0  0  0  0  0
  -21.3866  -30.1049   22.5852 N   0  0  0  0  0  0  0  0  0  0  0  0
  -29.9515  -24.0151   22.2229 N   0  3  0  0  0  0  0  0  0  0  0  0
  -22.4984  -31.8980   25.5205 N   0  3  0  0  0  0  0  0  0  0  0  0
  -22.5968  -14.7040   21.0936 O   0  0  0  0  0  0  0  0  0  0  0  0
  -22.2324  -25.1276   20.5926 O   0  0  0  0  0  0  0  0  0  0  0  0
  -19.9654  -27.6400   22.2488 O   0  0  0  0  0  0  0  0  0  0  0  0
  -23.5511  -30.5757   23.2711 O   0  0  0  0  0  0  0  0  0  0  0  0
  -31.8275  -14.8704   20.3001 O   0  0  0  0  0  0  0  0  0  0  0  0
  -21.5231   -7.0281   21.8099 O   0  0  0  0  0  0  0  0  0  0  0  0
  -28.0218  -25.4621   23.7351 O   0  0  0  0  0  0  0  0  0  1  0  0
  -23.8368   -3.1226   24.9400 F   0  0  0  0  0  0  0  0  0  0  0  0
  -23.8533   -5.7701   21.0163 F   0  0  0  0  0  0  0  0  0  0  0  0
  1  2  1  0  0  0  0
  1  5  2  0  0  0  0
  2  6  2  0  0  0  0
  3 12  2  0  0  0  0
  3 19  1  0  0  0  0
  4 13  1  0  0  0  0
  4 19  2  0  0  0  0
  5 22  1  0  0  0  0
  6 24  1  0  0  0  0
  7 10  2  0  0  0  0
  7 21  1  0  0  0  0
  8 11  1  0  0  0  0
  8 21  2  0  0  0  0
  9 14  2  0  0  0  0
  9 23  1  0  0  0  0
 10 26  1  0  0  0  0
 11 26  2  0  0  0  0
 12 27  1  0  0  0  0
 13 27  2  0  0  0  0
 14 28  1  0  0  0  0
 15 16  2  0  0  0  0
 15 29  1  0  0  0  0
 16 30  1  0  0  0  0
 17 25  1  0  0  0  0
 17 28  2  0  0  0  0
 18 30  2  0  0  0  0
 18 31  1  0  0  0  0
 19 32  1  0  0  0  0
 20 32  1  0  0  0  0
 20 33  2  0  0  0  0
 20 34  1  0  0  0  0
 21 52  1  0  0  0  0
 22 24  2  0  0  0  0
 22 39  1  0  0  0  0
 23 25  2  0  0  0  0
 23 40  1  0  0  0  0
 24 53  1  0  0  0  0
 25 41  1  0  0  0  0
 26 72  1  0  0  0  0
 27 82  1  0  0  0  0
 28 83  1  0  0  0  0
 29 31  2  0  0  0  0
 29 82  1  0  0  0  0
 30 84  1  0  0  0  0
 31 85  1  0  0  0  0
 32 66  2  0  0  0  0
 33 67  1  0  0  0  0
 33 70  1  0  0  0  0
 34 71  1  0  0  0  0
 34 77  2  0  0  0  0
 35 54  1  0  0  0  0
 35 73  1  0  0  0  0
 35 78  2  0  0  0  0
 36 63  1  0  0  0  0
 36 68  1  0  0  0  0
 36 79  2  0  0  0  0
 37 64  1  0  0  0  0
 37 74  1  0  0  0  0
 37 80  2  0  0  0  0
 38 69  1  0  0  0  0
 38 72  1  0  0  0  0
 38 81  2  0  0  0  0
 39 42  1  0  0  0  0
 40 54  1  0  0  0  0
 41 68  1  0  0  0  0
 42 44  1  0  0  0  0
 43 45  1  0  0  0  0
 43 48  1  0  0  0  0
 44 53  1  0  0  0  0
 45 55  1  0  0  0  0
 46 50  1  0  0  0  0
 46 52  1  0  0  0  0
 47 51  1  0  0  0  0
 47 52  1  0  0  0  0
 48 69  1  0  0  0  0
 49 55  1  0  0  0  0
 49 69  1  0  0  0  0
 50 75  1  0  0  0  0
 51 75  1  0  0  0  0
 53 73  1  0  0  0  0
 54 68  1  0  0  0  0
 55 67  1  0  0  0  0
 56 64  1  0  0  0  0
 57 65  1  0  0  0  0
 58 65  1  0  0  0  0
 59 65  1  0  0  0  0
 60 76  1  0  0  0  0
 61 62  1  0  0  0  0
 61 75  1  0  0  0  0
 62 83  1  0  0  0  0
 63 65  1  0  0  0  0
 63 74  1  0  0  0  0
 64 76  1  0  0  0  0
 66 67  1  0  0  0  0
M  CHG  2  75   1  76   1
M  ISO  4  38 100  62 101  72 100  83 101
M  END
> <Batch ID>
0002

> <Smiles>
CNC(C)C(=O)NC(C(=O)N1Cc2cc([101O:1][101CH2:1]CN3CCC(c4ccc([100NH:0][100C:0](=O)N5CCCC(n6nc(-c7ccc(Oc8ccc(F)cc8F)cc7)c(C(N)=O)c6N)C5)cc4)CC3)ccc2CC1C(=O)NC1CCCc2ccccc21)C(C)(C)C

> <Shape>
0.255

> <Color>
0.208

> <Negative vol penalty>
0.000

$$$$

  -OEChem-04042320173D

 85 94  0     1  0  0  0  0  0999 V2000
  -31.8184  -18.4517   20.3002 C   0  0  0  0  0  0  0  0  0  0  0  0
  -30.5440  -18.9743   20.4955 C   0  0  0  0  0  0  0  0  0  0  0  0
  -30.7041  -25.3939   18.5469 C   0  0  0  0  0  0  0  0  0  0  0  0
  -30.9964  -25.3444   20.9447 C   0  0  0  0  0  0  0  0  0  0  0  0
  -31.9719  -17.1727   19.7668 C   0  0  0  0  0  0  0  0  0  0  0  0
  -29.4223  -18.2185   20.1564 C   0  0  0  0  0  0  0  0  0  0  0  0
  -25.8281  -18.3694   23.7207 C   0  0  0  0  0  0  0  0  0  0  0  0
  -18.6963  -26.8507   21.5197 C   0  0  0  0  0  0  0  0  0  0  0  0
  -32.0790  -25.2323   18.3760 C   0  0  0  0  0  0  0  0  0  0  0  0
  -32.3713  -25.1828   20.7737 C   0  0  0  0  0  0  0  0  0  0  0  0
  -25.0324  -19.5130   23.7745 C   0  0  0  0  0  0  0  0  0  0  0  0
  -35.4688  -24.4710   17.3060 C   0  0  0  0  0  0  0  0  0  0  0  0
  -18.8032  -28.1713   21.9558 C   0  0  0  0  0  0  0  0  0  0  0  0
  -35.8998  -23.5478   16.3534 C   0  0  0  0  0  0  0  0  0  0  0  0
  -20.7234  -26.2934   22.7101 C   0  0  0  0  0  0  0  0  0  0  0  0
  -23.2864  -18.3467   22.5868 C   0  0  0  0  0  0  0  0  0  0  0  0
  -34.7570  -21.7843   17.5456 C   0  0  0  0  0  0  0  0  0  0  0  0
  -30.1628  -25.4500   19.8313 C   0  0  0  0  0  0  0  0  0  0  0  0
  -27.7726  -24.6019   20.1060 C   0  0  0  0  0  0  0  0  0  0  0  0
  -19.6564  -25.9117   21.8968 C   0  0  0  0  0  0  0  0  0  0  0  0
  -30.8514  -16.3971   19.4299 C   0  0  0  0  0  0  0  0  0  0  0  0
  -25.3624  -17.2074   23.0888 C   0  0  0  0  0  0  0  0  0  0  0  0
  -29.5610  -16.9285   19.6167 C   0  0  0  0  0  0  0  0  0  0  0  0
  -24.0771  -17.1890   22.5285 C   0  0  0  0  0  0  0  0  0  0  0  0
  -20.8304  -27.6140   23.1462 C   0  0  0  0  0  0  0  0  0  0  0  0
  -32.9126  -25.1268   19.4894 C   0  0  0  0  0  0  0  0  0  0  0  0
  -23.7625  -19.5027   23.2050 C   0  0  0  0  0  0  0  0  0  0  0  0
  -34.6819  -24.0509   18.3785 C   0  0  0  0  0  0  0  0  0  0  0  0
  -35.5439  -22.2044   16.4732 C   0  0  0  0  0  0  0  0  0  0  0  0
  -19.8703  -28.5529   22.7690 C   0  0  0  0  0  0  0  0  0  0  0  0
  -34.3260  -22.7076   18.4982 C   0  0  0  0  0  0  0  0  0  0  0  0
  -28.7427  -25.6174   20.0085 C   0  0  0  0  0  0  0  0  0  0  0  0
  -26.5859  -25.2749   20.2653 C   0  0  0  0  0  0  0  0  0  0  0  0
  -27.9301  -23.1777   20.0569 C   0  0  0  0  0  0  0  0  0  0  0  0
  -26.3041  -15.4810   20.5916 C   0  0  0  0  0  0  0  0  0  0  0  0
  -23.9393  -13.4885   21.5714 C   0  0  0  0  0  0  0  0  0  0  0  0
  -21.0057  -13.0882   23.2687 C   0  0  0  0  0  0  0  0  0  0  0  0
  -23.5695  -29.3269   22.6377 C   0  0  0  0  0  0  0  0  0  0  0  0
  -31.0681  -15.0384   18.8122 C   0  0  0  0  0  0  0  0  0  0  0  0
  -26.2225  -15.9737   23.0627 C   0  0  0  0  0  0  0  0  0  0  0  0
  -23.5226  -15.9605   21.8564 C   0  0  0  0  0  0  0  0  0  0  0  0
  -29.8223  -14.1563   18.8283 C   0  0  0  0  0  0  0  0  0  0  0  0
  -25.4959  -30.1895   19.7704 C   0  0  0  0  0  0  0  0  0  0  0  0
  -28.6045  -14.9436   18.3552 C   0  0  0  0  0  0  0  0  0  0  0  0
  -26.4360  -28.9965   19.5888 C   0  0  0  0  0  0  0  0  0  0  0  0
  -19.4294  -24.2231   19.9544 C   0  0  0  0  0  0  0  0  0  0  0  0
  -25.2524  -30.4966   21.2463 C   0  0  0  0  0  0  0  0  0  0  0  0
  -25.7226  -28.1582   21.8664 C   0  0  0  0  0  0  0  0  0  0  0  0
  -19.5425  -24.5081   21.4338 C   0  0  1  0  0  0  0  0  0  0  0  0
  -28.3193  -16.1297   19.2844 C   0  0  1  0  0  0  0  0  0  0  0  0
  -25.8480  -15.0078   21.9428 C   0  0  1  0  0  0  0  0  0  0  0  0
  -25.9540  -27.7751   20.3946 C   0  0  2  0  0  0  0  0  0  0  0  0
  -20.6952  -23.8822   20.6796 C   0  0  1  0  0  0  0  0  0  0  0  0
  -19.2945  -11.3513   23.8623 C   0  0  0  0  0  0  0  0  0  0  0  0
  -22.8187  -13.6274   18.7368 C   0  0  0  0  0  0  0  0  0  0  0  0
  -20.6685  -12.6933   19.6158 C   0  0  0  0  0  0  0  0  0  0  0  0
  -22.7650  -11.3502   19.7694 C   0  0  0  0  0  0  0  0  0  0  0  0
  -21.4951  -13.4295   26.1675 C   0  0  0  0  0  0  0  0  0  0  0  0
  -21.9726  -28.0189   24.0155 C   0  0  0  0  0  0  0  0  0  0  0  0
  -22.0626  -20.8157   22.1841 C   0  0  0  0  0  0  0  0  0  1  0  0
  -21.8590  -22.3037   21.9745 C   0  0  0  0  0  0  0  0  0  0  0  0
  -22.4641  -13.3554   21.2797 C   0  0  1  0  0  0  0  0  0  0  0  0
  -20.5686  -12.0594   24.2959 C   0  0  2  0  0  0  0  0  0  0  0  0
  -22.1900  -12.7805   19.8613 C   0  0  0  0  0  0  0  0  0  0  0  0
  -28.2178  -26.8423   20.0983 N   0  0  0  0  0  0  0  0  0  0  0  0
  -26.9049  -26.6009   20.2537 N   0  0  0  0  0  0  0  0  0  0  0  0
  -24.4042  -14.7814   21.8510 N   0  0  0  0  0  0  0  0  0  0  0  0
  -24.7957  -29.2976   21.9531 N   0  0  0  0  0  0  0  0  0  0  0  0
  -25.3111  -24.8558   20.4128 N   0  0  0  0  0  0  0  0  0  0  0  0
  -29.2189  -22.6534   19.8882 N   0  0  0  0  0  0  0  0  0  0  0  0
  -27.6684  -15.6779   20.4954 N   0  0  0  0  0  0  0  0  0  0  0  0
  -21.9035  -12.5589   22.3659 N   0  0  0  0  0  0  0  0  0  0  0  0
  -23.2084  -28.1464   23.2756 N   0  0  0  0  0  0  0  0  0  0  0  0
  -20.3179  -12.7145   25.6108 N   0  3  0  0  0  0  0  0  0  0  0  0
  -26.9548  -22.3936   20.1431 O   0  0  0  0  0  0  0  0  0  0  0  0
  -25.4794  -15.6531   19.7016 O   0  0  0  0  0  0  0  0  0  0  0  0
  -24.6515  -12.4814   21.5590 O   0  0  0  0  0  0  0  0  0  0  0  0
  -20.5894  -14.2446   23.2653 O   0  0  0  0  0  0  0  0  0  0  0  0
  -22.8474  -30.3290   22.6730 O   0  0  0  0  0  0  0  0  0  0  0  0
  -34.2542  -24.9689   19.3229 O   0  0  0  0  0  0  0  0  0  0  0  0
  -22.9840  -20.6177   23.2556 O   0  0  0  0  0  0  0  0  0  1  0  0
  -20.9208  -22.5009   20.9238 O   0  0  0  0  0  0  0  0  0  0  0  0
  -35.9566  -21.3182   15.5575 F   0  0  0  0  0  0  0  0  0  0  0  0
  -19.9651  -29.8245   23.1825 F   0  0  0  0  0  0  0  0  0  0  0  0
  -33.5693  -22.2982   19.5257 F   0  0  0  0  0  0  0  0  0  0  0  0
  1  2  1  0  0  0  0
  1  5  2  0  0  0  0
  2  6  2  0  0  0  0
  3  9  2  0  0  0  0
  3 18  1  0  0  0  0
  4 10  1  0  0  0  0
  4 18  2  0  0  0  0
  5 21  1  0  0  0  0
  6 23  1  0  0  0  0
  7 11  2  0  0  0  0
  7 22  1  0  0  0  0
  8 13  2  0  0  0  0
  8 20  1  0  0  0  0
  9 26  1  0  0  0  0
 10 26  2  0  0  0  0
 11 27  1  0  0  0  0
 12 14  2  0  0  0  0
 12 28  1  0  0  0  0
 13 30  1  0  0  0  0
 14 29  1  0  0  0  0
 15 20  2  0  0  0  0
 15 25  1  0  0  0  0
 16 24  1  0  0  0  0
 16 27  2  0  0  0  0
 17 29  2  0  0  0  0
 17 31  1  0  0  0  0
 18 32  1  0  0  0  0
 19 32  1  0  0  0  0
 19 33  2  0  0  0  0
 19 34  1  0  0  0  0
 20 49  1  0  0  0  0
 21 23  2  0  0  0  0
 21 39  1  0  0  0  0
 22 24  2  0  0  0  0
 22 40  1  0  0  0  0
 23 50  1  0  0  0  0
 24 41  1  0  0  0  0
 25 30  2  0  0  0  0
 25 59  1  0  0  0  0
 26 80  1  0  0  0  0
 27 81  1  0  0  0  0
 28 31  2  0  0  0  0
 28 80  1  0  0  0  0
 29 83  1  0  0  0  0
 30 84  1  0  0  0  0
 31 85  1  0  0  0  0
 32 65  2  0  0  0  0
 33 66  1  0  0  0  0
 33 69  1  0  0  0  0
 34 70  1  0  0  0  0
 34 75  2  0  0  0  0
 35 51  1  0  0  0  0
 35 71  1  0  0  0  0
 35 76  2  0  0  0  0
 36 62  1  0  0  0  0
 36 67  1  0  0  0  0
 36 77  2  0  0  0  0
 37 63  1  0  0  0  0
 37 72  1  0  0  0  0
 37 78  2  0  0  0  0
 38 68  1  0  0  0  0
 38 73  1  0  0  0  0
 38 79  2  0  0  0  0
 39 42  1  0  0  0  0
 40 51  1  0  0  0  0
 41 67  1  0  0  0  0
 42 44  1  0  0  0  0
 43 45  1  0  0  0  0
 43 47  1  0  0  0  0
 44 50  1  0  0  0  0
 45 52  1  0  0  0  0
 46 49  1  0  0  0  0
 46 53  1  0  0  0  0
 47 68  1  0  0  0  0
 48 52  1  0  0  0  0
 48 68  1  0  0  0  0
 49 53  1  0  0  0  0
 50 71  1  0  0  0  0
 51 67  1  0  0  0  0
 52 66  1  0  0  0  0
 53 82  1  0  0  0  0
 54 63  1  0  0  0  0
 55 64  1  0  0  0  0
 56 64  1  0  0  0  0
 57 64  1  0  0  0  0
 58 74  1  0  0  0  0
 59 73  1  0  0  0  0
 60 61  1  0  0  0  0
 60 81  1  0  0  0  0
 61 82  1  0  0  0  0
 62 64  1  0  0  0  0
 62 72  1  0  0  0  0
 63 74  1  0  0  0  0
 65 66  1  0  0  0  0
M  CHG  1  74   1
M  ISO  4  38 100  60 101  73 100  81 101
M  END
> <Batch ID>
0002

> <Smiles>
CNC(C)C(=O)NC(C(=O)N1Cc2cc([101O:1][101CH2:1]COC3CC3c3ccc(F)c(C[100NH:0][100C:0](=O)N4CCCC(n5nc(-c6ccc(Oc7ccc(F)cc7F)cc6)c(C(N)=O)c5N)C4)c3)ccc2CC1C(=O)NC1CCCc2ccccc21)C(C)(C)C

> <Shape>
0.214

> <Color>
0.066

> <Negative vol penalty>
0.000

$$$$

  -OEChem-04042320173D

 81 88  0     1  0  0  0  0  0999 V2000
  -33.9459  -28.8381   23.9738 C   0  0  0  0  0  0  0  0  0  0  0  0
  -33.0955  -27.7370   23.9740 C   0  0  0  0  0  0  0  0  0  0  0  0
  -23.2826   -9.7974   19.9230 C   0  0  0  0  0  0  0  0  0  0  0  0
  -23.7364   -9.9472   22.2913 C   0  0  0  0  0  0  0  0  0  0  0  0
  -33.4813  -30.0762   23.5321 C   0  0  0  0  0  0  0  0  0  0  0  0
  -31.7796  -27.8738   23.5335 C   0  0  0  0  0  0  0  0  0  0  0  0
  -30.3579  -24.1072   20.4617 C   0  0  0  0  0  0  0  0  0  0  0  0
  -22.5531   -8.6279   20.1367 C   0  0  0  0  0  0  0  0  0  0  0  0
  -23.0069   -8.7777   22.5050 C   0  0  0  0  0  0  0  0  0  0  0  0
  -30.0246  -22.8914   21.0571 C   0  0  0  0  0  0  0  0  0  0  0  0
  -19.7575   -7.8770   22.7300 C   0  0  0  0  0  0  0  0  0  0  0  0
  -18.8563   -7.8626   23.7945 C   0  0  0  0  0  0  0  0  0  0  0  0
  -27.6845  -23.4420   20.8575 C   0  0  0  0  0  0  0  0  0  0  0  0
  -20.0578   -6.0163   24.7868 C   0  0  0  0  0  0  0  0  0  0  0  0
  -23.8743  -10.4570   21.0003 C   0  0  0  0  0  0  0  0  0  0  0  0
  -24.1407  -12.9854   20.7901 C   0  0  0  0  0  0  0  0  0  0  0  0
  -32.1619  -30.2260   23.0769 C   0  0  0  0  0  0  0  0  0  0  0  0
  -29.3556  -25.0058   20.0690 C   0  0  0  0  0  0  0  0  0  0  0  0
  -31.2965  -29.1154   23.0866 C   0  0  0  0  0  0  0  0  0  0  0  0
  -28.0076  -24.6675   20.2550 C   0  0  0  0  0  0  0  0  0  0  0  0
  -22.4152   -8.1181   21.4278 C   0  0  0  0  0  0  0  0  0  0  0  0
  -28.6879  -22.5599   21.2577 C   0  0  0  0  0  0  0  0  0  0  0  0
  -20.8089   -6.9610   22.6939 C   0  0  0  0  0  0  0  0  0  0  0  0
  -19.0064   -6.9323   24.8229 C   0  0  0  0  0  0  0  0  0  0  0  0
  -20.9590   -6.0307   23.7223 C   0  0  0  0  0  0  0  0  0  0  0  0
  -24.6285  -11.6649   20.7800 C   0  0  0  0  0  0  0  0  0  0  0  0
  -25.2442  -13.7610   20.5305 C   0  0  0  0  0  0  0  0  0  0  0  0
  -22.8093  -13.4678   21.0143 C   0  0  0  0  0  0  0  0  0  0  0  0
  -28.5592  -27.9735   20.8829 C   0  0  0  0  0  0  0  0  0  0  0  0
  -26.4304  -27.6518   18.4566 C   0  0  0  0  0  0  0  0  0  0  0  0
  -28.5733  -19.9869   23.8101 C   0  0  0  0  0  0  0  0  0  0  0  0
  -24.5828  -25.5718   16.4801 C   0  0  0  0  0  0  0  0  0  0  0  0
  -31.1136  -12.9047   21.3473 C   0  0  0  0  0  0  0  0  0  0  0  0
  -31.6911  -31.5948   22.6534 C   0  0  0  0  0  0  0  0  0  0  0  0
  -29.7309  -26.3016   19.4038 C   0  0  0  0  0  0  0  0  0  0  0  0
  -26.8932  -25.5885   19.8328 C   0  0  0  0  0  0  0  0  0  0  0  0
  -30.3931  -31.5711   21.8503 C   0  0  0  0  0  0  0  0  0  0  0  0
  -29.4634  -13.6353   18.2782 C   0  0  0  0  0  0  0  0  0  0  0  0
  -29.3662  -30.6649   22.5221 C   0  0  0  0  0  0  0  0  0  0  0  0
  -27.9932  -13.3323   18.5722 C   0  0  0  0  0  0  0  0  0  0  0  0
  -30.3947  -12.6563   18.9898 C   0  0  0  0  0  0  0  0  0  0  0  0
  -28.7088  -12.2396   20.7385 C   0  0  0  0  0  0  0  0  0  0  0  0
  -29.8697  -29.2182   22.5929 C   0  0  1  0  0  0  0  0  0  0  0  0
  -28.6429  -27.3656   19.5114 C   0  0  1  0  0  0  0  0  0  0  0  0
  -27.7329  -13.2347   20.0875 C   0  0  2  0  0  0  0  0  0  0  0  0
  -22.9084  -25.6030   14.6111 C   0  0  0  0  0  0  0  0  0  0  0  0
  -24.2507  -28.4755   20.4264 C   0  0  0  0  0  0  0  0  0  0  0  0
  -22.5547  -27.5838   18.8151 C   0  0  0  0  0  0  0  0  0  0  0  0
  -24.0307  -29.4805   18.1469 C   0  0  0  0  0  0  0  0  0  0  0  0
  -26.3886  -24.0671   14.6818 C   0  0  0  0  0  0  0  0  0  0  0  0
  -29.2882  -20.8320   22.7776 C   0  0  0  0  0  0  0  0  0  1  0  0
  -30.3906  -16.5876   25.0041 C   0  0  0  0  0  0  0  0  0  0  0  0
  -30.3283  -15.1104   24.6076 C   0  0  0  0  0  0  0  0  0  0  0  0
  -29.0122  -17.1090   25.4212 C   0  0  0  0  0  0  0  0  0  0  0  0
  -31.6985  -14.6006   24.1507 C   0  0  0  0  0  0  0  0  0  0  0  0
  -29.0363  -18.5835   25.8105 C   0  0  0  0  0  0  0  0  0  0  0  0
  -31.6788  -13.1275   23.7536 C   0  0  0  0  0  0  0  0  0  0  0  0
  -25.0089  -27.1571   18.3401 C   0  0  1  0  0  0  0  0  0  0  0  0
  -24.3828  -25.5261   14.9759 C   0  0  2  0  0  0  0  0  0  0  0  0
  -23.9821  -28.1575   18.9420 C   0  0  0  0  0  0  0  0  0  0  0  0
  -25.9396  -11.6013   20.5333 N   0  0  0  0  0  0  0  0  0  0  0  0
  -26.2851  -12.8917   20.3859 N   0  0  0  0  0  0  0  0  0  0  0  0
  -27.3113  -26.8466   19.1924 N   0  0  0  0  0  0  0  0  0  0  0  0
  -30.0968  -12.6121   20.4235 N   0  0  0  0  0  0  0  0  0  0  0  0
  -25.4158  -15.0949   20.4139 N   0  0  0  0  0  0  0  0  0  0  0  0
  -21.7943  -12.5349   21.2671 N   0  0  0  0  0  0  0  0  0  0  0  0
  -29.7311  -28.5712   21.3058 N   0  0  0  0  0  0  0  0  0  0  0  0
  -29.4588  -19.4342   24.7220 N   0  0  0  0  0  0  0  0  0  0  0  0
  -24.7951  -26.8584   16.9282 N   0  0  0  0  0  0  0  0  0  0  0  0
  -30.7452  -12.8462   22.6858 N   0  0  0  0  0  0  0  0  0  0  0  0
  -24.9397  -24.2616   14.4175 N   0  3  0  0  0  0  0  0  0  0  0  0
  -22.5249  -14.6889   20.9749 O   0  0  0  0  0  0  0  0  0  0  0  0
  -27.5087  -27.9065   21.5104 O   0  0  0  0  0  0  0  0  0  0  0  0
  -26.7493  -28.7100   17.9087 O   0  0  0  0  0  0  0  0  0  0  0  0
  -27.3555  -19.8287   23.8114 O   0  0  0  0  0  0  0  0  0  0  0  0
  -24.5500  -24.5672   17.1872 O   0  0  0  0  0  0  0  0  0  0  0  0
  -32.2631  -13.2017   21.0046 O   0  0  0  0  0  0  0  0  0  0  0  0
  -21.7032   -6.9770   21.6367 O   0  0  0  0  0  0  0  0  0  0  0  0
  -28.3598  -21.3741   21.8392 O   0  0  0  0  0  0  0  0  0  1  0  0
  -18.1418   -6.9196   25.8459 F   0  0  0  0  0  0  0  0  0  0  0  0
  -21.9678   -5.1490   23.6937 F   0  0  0  0  0  0  0  0  0  0  0  0
  1  2  1  0  0  0  0
  1  5  2  0  0  0  0
  2  6  2  0  0  0  0
  3  8  2  0  0  0  0
  3 15  1  0  0  0  0
  4  9  1  0  0  0  0
  4 15  2  0  0  0  0
  5 17  1  0  0  0  0
  6 19  1  0  0  0  0
  7 10  2  0  0  0  0
  7 18  1  0  0  0  0
  8 21  1  0  0  0  0
  9 21  2  0  0  0  0
 10 22  1  0  0  0  0
 11 12  2  0  0  0  0
 11 23  1  0  0  0  0
 12 24  1  0  0  0  0
 13 20  1  0  0  0  0
 13 22  2  0  0  0  0
 14 24  2  0  0  0  0
 14 25  1  0  0  0  0
 15 26  1  0  0  0  0
 16 26  1  0  0  0  0
 16 27  2  0  0  0  0
 16 28  1  0  0  0  0
 17 19  2  0  0  0  0
 17 34  1  0  0  0  0
 18 20  2  0  0  0  0
 18 35  1  0  0  0  0
 19 43  1  0  0  0  0
 20 36  1  0  0  0  0
 21 78  1  0  0  0  0
 22 79  1  0  0  0  0
 23 25  2  0  0  0  0
 23 78  1  0  0  0  0
 24 80  1  0  0  0  0
 25 81  1  0  0  0  0
 26 61  2  0  0  0  0
 27 62  1  0  0  0  0
 27 65  1  0  0  0  0
 28 66  1  0  0  0  0
 28 72  2  0  0  0  0
 29 44  1  0  0  0  0
 29 67  1  0  0  0  0
 29 73  2  0  0  0  0
 30 58  1  0  0  0  0
 30 63  1  0  0  0  0
 30 74  2  0  0  0  0
 31 51  1  0  0  0  0
 31 68  1  0  0  0  0
 31 75  2  0  0  0  0
 32 59  1  0  0  0  0
 32 69  1  0  0  0  0
 32 76  2  0  0  0  0
 33 64  1  0  0  0  0
 33 70  1  0  0  0  0
 33 77  2  0  0  0  0
 34 37  1  0  0  0  0
 35 44  1  0  0  0  0
 36 63  1  0  0  0  0
 37 39  1  0  0  0  0
 38 40  1  0  0  0  0
 38 41  1  0  0  0  0
 39 43  1  0  0  0  0
 40 45  1  0  0  0  0
 41 64  1  0  0  0  0
 42 45  1  0  0  0  0
 42 64  1  0  0  0  0
 43 67  1  0  0  0  0
 44 63  1  0  0  0  0
 45 62  1  0  0  0  0
 46 59  1  0  0  0  0
 47 60  1  0  0  0  0
 48 60  1  0  0  0  0
 49 60  1  0  0  0  0
 50 71  1  0  0  0  0
 51 79  1  0  0  0  0
 52 53  1  0  0  0  0
 52 54  1  0  0  0  0
 53 55  1  0  0  0  0
 54 56  1  0  0  0  0
 55 57  1  0  0  0  0
 56 68  1  0  0  0  0
 57 70  1  0  0  0  0
 58 60  1  0  0  0  0
 58 69  1  0  0  0  0
 59 71  1  0  0  0  0
 61 62  1  0  0  0  0
M  CHG  1  71   1
M  ISO  4  33 100  51 101  70 100  79 101
M  END
> <Batch ID>
0002

> <Smiles>
CNC(C)C(=O)NC(C(=O)N1Cc2cc([101O:1][101CH2:1]C(=O)NCCCCCC[100NH:0][100C:0](=O)N3CCCC(n4nc(-c5ccc(Oc6ccc(F)cc6F)cc5)c(C(N)=O)c4N)C3)ccc2CC1C(=O)NC1CCCc2ccccc21)C(C)(C)C

> <Shape>
0.230

> <Color>
0.174

> <Negative vol penalty>
0.000

$$$$

  -OEChem-04042320173D

 79 87  0     1  0  0  0  0  0999 V2000
  -17.4802  -23.1131   24.9873 C   0  0  0  0  0  0  0  0  0  0  0  0
  -18.8266  -22.9147   24.6988 C   0  0  0  0  0  0  0  0  0  0  0  0
  -31.2477  -19.4820   19.1739 C   0  0  0  0  0  0  0  0  0  0  0  0
  -23.0743   -9.8691   19.9414 C   0  0  0  0  0  0  0  0  0  0  0  0
  -23.8387   -9.8740   22.2333 C   0  0  0  0  0  0  0  0  0  0  0  0
  -16.5195  -22.2592   24.4472 C   0  0  0  0  0  0  0  0  0  0  0  0
  -19.2132  -21.8614   23.8707 C   0  0  0  0  0  0  0  0  0  0  0  0
  -23.8641  -21.8265   19.8866 C   0  0  0  0  0  0  0  0  0  0  0  0
  -31.5069  -18.4283   20.0502 C   0  0  0  0  0  0  0  0  0  0  0  0
  -30.0125  -20.1292   19.2073 C   0  0  0  0  0  0  0  0  0  0  0  0
  -22.3316   -8.7152   20.1915 C   0  0  0  0  0  0  0  0  0  0  0  0
  -23.0959   -8.7201   22.4834 C   0  0  0  0  0  0  0  0  0  0  0  0
  -25.1647  -21.3308   19.9673 C   0  0  0  0  0  0  0  0  0  0  0  0
  -21.1153   -5.9803   23.8209 C   0  0  0  0  0  0  0  0  0  0  0  0
  -20.3613   -5.9350   24.9935 C   0  0  0  0  0  0  0  0  0  0  0  0
  -24.4524  -19.3012   18.8753 C   0  0  0  0  0  0  0  0  0  0  0  0
  -29.2957  -18.6688   20.9934 C   0  0  0  0  0  0  0  0  0  0  0  0
  -19.1141   -7.8723   24.2665 C   0  0  0  0  0  0  0  0  0  0  0  0
  -23.8279  -10.4484   20.9622 C   0  0  0  0  0  0  0  0  0  0  0  0
  -24.1680  -12.9739   20.8443 C   0  0  0  0  0  0  0  0  0  0  0  0
  -16.8936  -21.2008   23.6043 C   0  0  0  0  0  0  0  0  0  0  0  0
  -22.8439  -21.0575   19.3084 C   0  0  0  0  0  0  0  0  0  0  0  0
  -18.2566  -20.9917   23.3199 C   0  0  0  0  0  0  0  0  0  0  0  0
  -23.1403  -19.7905   18.7861 C   0  0  0  0  0  0  0  0  0  0  0  0
  -30.5309  -18.0216   20.9600 C   0  0  0  0  0  0  0  0  0  0  0  0
  -29.0365  -19.7226   20.1171 C   0  0  0  0  0  0  0  0  0  0  0  0
  -22.3424   -8.1407   21.4625 C   0  0  0  0  0  0  0  0  0  0  0  0
  -25.4584  -20.0668   19.4643 C   0  0  0  0  0  0  0  0  0  0  0  0
  -20.8687   -6.9717   22.8711 C   0  0  0  0  0  0  0  0  0  0  0  0
  -19.3607   -6.8809   25.2163 C   0  0  0  0  0  0  0  0  0  0  0  0
  -19.8682   -7.9177   23.0939 C   0  0  0  0  0  0  0  0  0  0  0  0
  -24.5957  -11.6401   20.7043 C   0  0  0  0  0  0  0  0  0  0  0  0
  -25.2589  -13.7245   20.4798 C   0  0  0  0  0  0  0  0  0  0  0  0
  -22.8980  -13.4885   21.2663 C   0  0  0  0  0  0  0  0  0  0  0  0
  -20.1084  -19.8154   20.3467 C   0  0  0  0  0  0  0  0  0  0  0  0
  -19.7350  -19.0210   17.2239 C   0  0  0  0  0  0  0  0  0  0  0  0
  -21.1893  -18.3748   14.2049 C   0  0  0  0  0  0  0  0  0  0  0  0
  -30.7424  -14.7466   20.6586 C   0  0  0  0  0  0  0  0  0  0  0  0
  -15.8233  -20.2754   23.0822 C   0  0  0  0  0  0  0  0  0  0  0  0
  -21.4518  -21.6175   19.2048 C   0  0  0  0  0  0  0  0  0  0  0  0
  -22.0852  -18.9335   18.1373 C   0  0  0  0  0  0  0  0  0  0  0  0
  -16.2841  -19.4098   21.9123 C   0  0  0  0  0  0  0  0  0  0  0  0
  -29.6016  -12.3640   18.2714 C   0  0  0  0  0  0  0  0  0  0  0  0
  -17.6464  -18.7914   22.2099 C   0  0  0  0  0  0  0  0  0  0  0  0
  -28.1652  -12.0690   18.7068 C   0  0  0  0  0  0  0  0  0  0  0  0
  -30.5210  -12.5841   19.4707 C   0  0  0  0  0  0  0  0  0  0  0  0
  -28.6215  -13.3125   20.8618 C   0  0  0  0  0  0  0  0  0  0  0  0
  -18.7133  -19.8753   22.4060 C   0  0  1  0  0  0  0  0  0  0  0  0
  -20.3831  -20.5387   19.0586 C   0  0  1  0  0  0  0  0  0  0  0  0
  -27.6451  -13.1386   19.6859 C   0  0  2  0  0  0  0  0  0  0  0  0
  -20.6289  -17.7163   11.8491 C   0  0  0  0  0  0  0  0  0  0  0  0
  -19.2731  -16.1473   18.1396 C   0  0  0  0  0  0  0  0  0  0  0  0
  -19.6676  -15.4060   15.7810 C   0  0  0  0  0  0  0  0  0  0  0  0
  -17.7531  -16.9157   16.3083 C   0  0  0  0  0  0  0  0  0  0  0  0
  -22.3314  -20.8763   13.1108 C   0  0  0  0  0  0  0  0  0  0  0  0
  -30.8094  -16.8958   21.8977 C   0  0  0  0  0  0  0  0  0  0  0  0
  -27.7076  -20.4183   20.1525 C   0  0  0  0  0  0  0  0  0  1  0  0
  -20.1084  -17.8326   16.3710 C   0  0  1  0  0  0  0  0  0  0  0  0
  -20.8713  -18.8727   12.8065 C   0  0  2  0  0  0  0  0  0  0  0  0
  -19.2203  -16.5905   16.6639 C   0  0  0  0  0  0  0  0  0  0  0  0
  -25.8598  -11.5454   20.2835 N   0  0  0  0  0  0  0  0  0  0  0  0
  -26.2357  -12.8294   20.1558 N   0  0  0  0  0  0  0  0  0  0  0  0
  -20.7379  -19.5226   18.0656 N   0  0  0  0  0  0  0  0  0  0  0  0
  -29.9715  -13.6113   20.3589 N   0  0  0  0  0  0  0  0  0  0  0  0
  -25.4684  -15.0561   20.4078 N   0  0  0  0  0  0  0  0  0  0  0  0
  -21.8873  -12.5783   21.6046 N   0  0  0  0  0  0  0  0  0  0  0  0
  -19.1341  -20.4073   21.1276 N   0  0  0  0  0  0  0  0  0  0  0  0
  -20.0568  -18.2912   14.9870 N   0  0  0  0  0  0  0  0  0  0  0  0
  -30.1444  -15.6741   21.5028 N   0  0  0  0  0  0  0  0  0  0  0  0
  -21.9997  -19.6910   12.2790 N   0  3  0  0  0  0  0  0  0  0  0  0
  -22.6611  -14.7189   21.3255 O   0  0  0  0  0  0  0  0  0  0  0  0
  -20.7332  -18.7950   20.6117 O   0  0  0  0  0  0  0  0  0  0  0  0
  -18.5977  -19.4914   17.1409 O   0  0  0  0  0  0  0  0  0  0  0  0
  -22.3278  -18.0853   14.5660 O   0  0  0  0  0  0  0  0  0  0  0  0
  -31.8774  -14.9233   20.2029 O   0  0  0  0  0  0  0  0  0  0  0  0
  -21.6176   -7.0149   21.7070 O   0  0  0  0  0  0  0  0  0  0  0  0
  -26.7269  -19.5802   19.5424 O   0  0  0  0  0  0  0  0  0  1  0  0
  -18.6357   -6.8363   26.3417 F   0  0  0  0  0  0  0  0  0  0  0  0
  -19.6259   -8.8717   22.1845 F   0  0  0  0  0  0  0  0  0  0  0  0
  1  2  1  0  0  0  0
  1  6  2  0  0  0  0
  2  7  2  0  0  0  0
  3  9  1  0  0  0  0
  3 10  2  0  0  0  0
  4 11  2  0  0  0  0
  4 19  1  0  0  0  0
  5 12  1  0  0  0  0
  5 19  2  0  0  0  0
  6 21  1  0  0  0  0
  7 23  1  0  0  0  0
  8 13  2  0  0  0  0
  8 22  1  0  0  0  0
  9 25  2  0  0  0  0
 10 26  1  0  0  0  0
 11 27  1  0  0  0  0
 12 27  2  0  0  0  0
 13 28  1  0  0  0  0
 14 15  2  0  0  0  0
 14 29  1  0  0  0  0
 15 30  1  0  0  0  0
 16 24  1  0  0  0  0
 16 28  2  0  0  0  0
 17 25  1  0  0  0  0
 17 26  2  0  0  0  0
 18 30  2  0  0  0  0
 18 31  1  0  0  0  0
 19 32  1  0  0  0  0
 20 32  1  0  0  0  0
 20 33  2  0  0  0  0
 20 34  1  0  0  0  0
 21 23  2  0  0  0  0
 21 39  1  0  0  0  0
 22 24  2  0  0  0  0
 22 40  1  0  0  0  0
 23 48  1  0  0  0  0
 24 41  1  0  0  0  0
 25 56  1  0  0  0  0
 26 57  1  0  0  0  0
 27 76  1  0  0  0  0
 28 77  1  0  0  0  0
 29 31  2  0  0  0  0
 29 76  1  0  0  0  0
 30 78  1  0  0  0  0
 31 79  1  0  0  0  0
 32 61  2  0  0  0  0
 33 62  1  0  0  0  0
 33 65  1  0  0  0  0
 34 66  1  0  0  0  0
 34 71  2  0  0  0  0
 35 49  1  0  0  0  0
 35 67  1  0  0  0  0
 35 72  2  0  0  0  0
 36 58  1  0  0  0  0
 36 63  1  0  0  0  0
 36 73  2  0  0  0  0
 37 59  1  0  0  0  0
 37 68  1  0  0  0  0
 37 74  2  0  0  0  0
 38 64  1  0  0  0  0
 38 69  1  0  0  0  0
 38 75  2  0  0  0  0
 39 42  1  0  0  0  0
 40 49  1  0  0  0  0
 41 63  1  0  0  0  0
 42 44  1  0  0  0  0
 43 45  1  0  0  0  0
 43 46  1  0  0  0  0
 44 48  1  0  0  0  0
 45 50  1  0  0  0  0
 46 64  1  0  0  0  0
 47 50  1  0  0  0  0
 47 64  1  0  0  0  0
 48 67  1  0  0  0  0
 49 63  1  0  0  0  0
 50 62  1  0  0  0  0
 51 59  1  0  0  0  0
 52 60  1  0  0  0  0
 53 60  1  0  0  0  0
 54 60  1  0  0  0  0
 55 70  1  0  0  0  0
 56 69  1  0  0  0  0
 57 77  1  0  0  0  0
 58 60  1  0  0  0  0
 58 68  1  0  0  0  0
 59 70  1  0  0  0  0
 61 62  1  0  0  0  0
M  CHG  1  70   1
M  ISO  4  38 100  57 101  69 100  77 101
M  END
> <Batch ID>
0002

> <Smiles>
CNC(C)C(=O)NC(C(=O)N1Cc2cc([101O:1][101CH2:1]c3cccc(C[100NH:0][100C:0](=O)N4CCCC(n5nc(-c6ccc(Oc7ccc(F)cc7F)cc6)c(C(N)=O)c5N)C4)c3)ccc2CC1C(=O)NC1CCCc2ccccc21)C(C)(C)C

> <Shape>
0.192

> <Color>
0.200

> <Negative vol penalty>
0.000

$$$$

  -OEChem-04042320173D

 79 87  0     1  0  0  0  0  0999 V2000
  -20.5128  -31.2846   22.5658 C   0  0  0  0  0  0  0  0  0  0  0  0
  -21.7397  -30.6379   22.4566 C   0  0  0  0  0  0  0  0  0  0  0  0
  -33.0926  -27.1483   20.4219 C   0  0  0  0  0  0  0  0  0  0  0  0
  -32.6325  -27.2221   19.1073 C   0  0  0  0  0  0  0  0  0  0  0  0
  -26.8861  -18.2500   19.6531 C   0  0  0  0  0  0  0  0  0  0  0  0
  -26.6301  -17.4825   21.9295 C   0  0  0  0  0  0  0  0  0  0  0  0
  -19.3407  -30.5384   22.6811 C   0  0  0  0  0  0  0  0  0  0  0  0
  -21.7953  -29.2446   22.4638 C   0  0  0  0  0  0  0  0  0  0  0  0
  -24.8723  -27.4046   18.8873 C   0  0  0  0  0  0  0  0  0  0  0  0
  -32.1894  -27.2231   21.4823 C   0  0  0  0  0  0  0  0  0  0  0  0
  -31.2691  -27.3708   18.8528 C   0  0  0  0  0  0  0  0  0  0  0  0
  -26.1084  -17.1822   19.2055 C   0  0  0  0  0  0  0  0  0  0  0  0
  -25.8523  -16.4146   21.4820 C   0  0  0  0  0  0  0  0  0  0  0  0
  -26.2426  -27.4533   19.1396 C   0  0  0  0  0  0  0  0  0  0  0  0
  -26.3560  -13.3954   20.0461 C   0  0  0  0  0  0  0  0  0  0  0  0
  -26.6223  -12.1329   20.5759 C   0  0  0  0  0  0  0  0  0  0  0  0
  -26.2015  -25.1277   19.7790 C   0  0  0  0  0  0  0  0  0  0  0  0
  -24.3672  -12.0179   21.4353 C   0  0  0  0  0  0  0  0  0  0  0  0
  -27.1470  -18.4002   21.0151 C   0  0  0  0  0  0  0  0  0  0  0  0
  -29.2846  -19.7877   21.1292 C   0  0  0  0  0  0  0  0  0  0  0  0
  -19.3810  -29.1352   22.6800 C   0  0  0  0  0  0  0  0  0  0  0  0
  -24.1531  -26.2179   19.0898 C   0  0  0  0  0  0  0  0  0  0  0  0
  -20.6227  -28.4790   22.5806 C   0  0  0  0  0  0  0  0  0  0  0  0
  -24.8226  -25.0658   19.5261 C   0  0  0  0  0  0  0  0  0  0  0  0
  -30.8260  -27.3718   21.2278 C   0  0  0  0  0  0  0  0  0  0  0  0
  -30.3659  -27.4457   19.9131 C   0  0  0  0  0  0  0  0  0  0  0  0
  -25.5914  -16.2644   20.1199 C   0  0  0  0  0  0  0  0  0  0  0  0
  -26.9069  -26.3156   19.5883 C   0  0  0  0  0  0  0  0  0  0  0  0
  -25.0953  -13.9692   20.2109 C   0  0  0  0  0  0  0  0  0  0  0  0
  -25.6279  -11.4442   21.2705 C   0  0  0  0  0  0  0  0  0  0  0  0
  -24.1009  -13.2805   20.9055 C   0  0  0  0  0  0  0  0  0  0  0  0
  -27.9508  -19.5028   21.4780 C   0  0  0  0  0  0  0  0  0  0  0  0
  -29.5860  -20.9301   21.8297 C   0  0  0  0  0  0  0  0  0  0  0  0
  -30.1717  -19.0829   20.2507 C   0  0  0  0  0  0  0  0  0  0  0  0
  -21.7505  -25.3457   20.9794 C   0  0  0  0  0  0  0  0  0  0  0  0
  -21.9130  -22.5972   19.2643 C   0  0  0  0  0  0  0  0  0  0  0  0
  -23.7077  -19.9533   17.5892 C   0  0  0  0  0  0  0  0  0  0  0  0
  -28.2405  -26.0458   23.6087 C   0  0  0  0  0  0  0  0  0  0  0  0
  -18.0921  -28.3718   22.8546 C   0  0  0  0  0  0  0  0  0  0  0  0
  -22.6803  -26.1745   18.7875 C   0  0  0  0  0  0  0  0  0  0  0  0
  -24.1001  -23.7617   19.7398 C   0  0  0  0  0  0  0  0  0  0  0  0
  -18.2019  -26.8968   22.4772 C   0  0  0  0  0  0  0  0  0  0  0  0
  -27.0642  -23.2868   25.5273 C   0  0  0  0  0  0  0  0  0  0  0  0
  -19.4569  -26.2814   23.0880 C   0  0  0  0  0  0  0  0  0  0  0  0
  -27.2942  -22.0815   24.6139 C   0  0  0  0  0  0  0  0  0  0  0  0
  -26.6441  -24.5231   24.7353 C   0  0  0  0  0  0  0  0  0  0  0  0
  -27.7795  -23.6820   22.7161 C   0  0  0  0  0  0  0  0  0  0  0  0
  -20.7217  -26.9691   22.5596 C   0  0  1  0  0  0  0  0  0  0  0  0
  -21.9528  -25.0513   19.5199 C   0  0  1  0  0  0  0  0  0  0  0  0
  -28.2591  -22.4259   23.4634 C   0  0  2  0  0  0  0  0  0  0  0  0
  -22.8658  -17.9866   16.2774 C   0  0  0  0  0  0  0  0  0  0  0  0
  -22.1332  -21.1030   21.9154 C   0  0  0  0  0  0  0  0  0  0  0  0
  -22.9423  -19.1049   20.6422 C   0  0  0  0  0  0  0  0  0  0  0  0
  -20.6556  -20.0082   20.2205 C   0  0  0  0  0  0  0  0  0  0  0  0
  -25.3207  -20.6947   15.2212 C   0  0  0  0  0  0  0  0  0  0  0  0
  -29.8772  -27.4485   22.3787 C   0  0  0  0  0  0  0  0  0  0  0  0
  -28.9042  -27.6063   19.6146 C   0  0  0  0  0  0  0  0  0  1  0  0
  -22.6688  -21.2972   19.3972 C   0  0  1  0  0  0  0  0  0  0  0  0
  -23.4254  -19.3988   16.2045 C   0  0  2  0  0  0  0  0  0  0  0  0
  -22.1135  -20.4033   20.5418 C   0  0  0  0  0  0  0  0  0  0  0  0
  -27.4402  -20.3923   22.3336 N   0  0  0  0  0  0  0  0  0  0  0  0
  -28.4585  -21.2474   22.5284 N   0  0  0  0  0  0  0  0  0  0  0  0
  -22.6594  -23.7715   19.4365 N   0  0  0  0  0  0  0  0  0  0  0  0
  -27.6016  -24.7959   23.6608 N   0  0  0  0  0  0  0  0  0  0  0  0
  -30.7030  -21.6841   21.9099 N   0  0  0  0  0  0  0  0  0  0  0  0
  -30.1916  -19.4385   18.8951 N   0  0  0  0  0  0  0  0  0  0  0  0
  -21.0323  -26.5002   21.2262 N   0  0  0  0  0  0  0  0  0  0  0  0
  -22.6371  -20.6701   18.0803 N   0  0  0  0  0  0  0  0  0  0  0  0
  -29.1377  -26.2195   22.5620 N   0  0  0  0  0  0  0  0  0  0  0  0
  -24.6757  -19.3677   15.3942 N   0  3  0  0  0  0  0  0  0  0  0  0
  -30.9125  -18.1538   20.6526 O   0  0  0  0  0  0  0  0  0  0  0  0
  -22.2106  -24.5813   21.8194 O   0  0  0  0  0  0  0  0  0  0  0  0
  -20.7062  -22.5719   19.0098 O   0  0  0  0  0  0  0  0  0  0  0  0
  -24.7702  -19.7659   18.1779 O   0  0  0  0  0  0  0  0  0  0  0  0
  -28.0311  -26.9386   24.4369 O   0  0  0  0  0  0  0  0  0  0  0  0
  -24.8323  -15.2224   19.6836 O   0  0  0  0  0  0  0  0  0  0  0  0
  -28.2443  -26.3606   19.8359 O   0  0  0  0  0  0  0  0  0  1  0  0
  -25.8833  -10.2311   21.7780 F   0  0  0  0  0  0  0  0  0  0  0  0
  -22.8875  -13.8261   21.0660 F   0  0  0  0  0  0  0  0  0  0  0  0
  1  2  1  0  0  0  0
  1  7  2  0  0  0  0
  2  8  2  0  0  0  0
  3  4  1  0  0  0  0
  3 10  2  0  0  0  0
  4 11  2  0  0  0  0
  5 12  2  0  0  0  0
  5 19  1  0  0  0  0
  6 13  1  0  0  0  0
  6 19  2  0  0  0  0
  7 21  1  0  0  0  0
  8 23  1  0  0  0  0
  9 14  2  0  0  0  0
  9 22  1  0  0  0  0
 10 25  1  0  0  0  0
 11 26  1  0  0  0  0
 12 27  1  0  0  0  0
 13 27  2  0  0  0  0
 14 28  1  0  0  0  0
 15 16  2  0  0  0  0
 15 29  1  0  0  0  0
 16 30  1  0  0  0  0
 17 24  1  0  0  0  0
 17 28  2  0  0  0  0
 18 30  2  0  0  0  0
 18 31  1  0  0  0  0
 19 32  1  0  0  0  0
 20 32  1  0  0  0  0
 20 33  2  0  0  0  0
 20 34  1  0  0  0  0
 21 23  2  0  0  0  0
 21 39  1  0  0  0  0
 22 24  2  0  0  0  0
 22 40  1  0  0  0  0
 23 48  1  0  0  0  0
 24 41  1  0  0  0  0
 25 26  2  0  0  0  0
 25 56  1  0  0  0  0
 26 57  1  0  0  0  0
 27 76  1  0  0  0  0
 28 77  1  0  0  0  0
 29 31  2  0  0  0  0
 29 76  1  0  0  0  0
 30 78  1  0  0  0  0
 31 79  1  0  0  0  0
 32 61  2  0  0  0  0
 33 62  1  0  0  0  0
 33 65  1  0  0  0  0
 34 66  1  0  0  0  0
 34 71  2  0  0  0  0
 35 49  1  0  0  0  0
 35 67  1  0  0  0  0
 35 72  2  0  0  0  0
 36 58  1  0  0  0  0
 36 63  1  0  0  0  0
 36 73  2  0  0  0  0
 37 59  1  0  0  0  0
 37 68  1  0  0  0  0
 37 74  2  0  0  0  0
 38 64  1  0  0  0  0
 38 69  1  0  0  0  0
 38 75  2  0  0  0  0
 39 42  1  0  0  0  0
 40 49  1  0  0  0  0
 41 63  1  0  0  0  0
 42 44  1  0  0  0  0
 43 45  1  0  0  0  0
 43 46  1  0  0  0  0
 44 48  1  0  0  0  0
 45 50  1  0  0  0  0
 46 64  1  0  0  0  0
 47 50  1  0  0  0  0
 47 64  1  0  0  0  0
 48 67  1  0  0  0  0
 49 63  1  0  0  0  0
 50 62  1  0  0  0  0
 51 59  1  0  0  0  0
 52 60  1  0  0  0  0
 53 60  1  0  0  0  0
 54 60  1  0  0  0  0
 55 70  1  0  0  0  0
 56 69  1  0  0  0  0
 57 77  1  0  0  0  0
 58 60  1  0  0  0  0
 58 68  1  0  0  0  0
 59 70  1  0  0  0  0
 61 62  1  0  0  0  0
M  CHG  1  70   1
M  ISO  4  38 100  57 101  69 100  77 101
M  END
> <Batch ID>
0002

> <Smiles>
CNC(C)C(=O)NC(C(=O)N1Cc2cc([101O:1][101CH2:1]c3ccccc3C[100NH:0][100C:0](=O)N3CCCC(n4nc(-c5ccc(Oc6ccc(F)cc6F)cc5)c(C(N)=O)c4N)C3)ccc2CC1C(=O)NC1CCCc2ccccc21)C(C)(C)C

> <Shape>
0.195

> <Color>
0.071

> <Negative vol penalty>
0.000

$$$$

  -OEChem-04042320173D

 85 93  0     1  0  0  0  0  0999 V2000
  -16.2248  -25.6778   22.0391 C   0  0  0  0  0  0  0  0  0  0  0  0
  -17.1749  -24.7635   21.5957 C   0  0  0  0  0  0  0  0  0  0  0  0
  -28.6942  -11.3310   20.5199 C   0  0  0  0  0  0  0  0  0  0  0  0
  -28.5889  -24.2694   18.6194 C   0  0  0  0  0  0  0  0  0  0  0  0
  -30.7354  -23.5893   17.7435 C   0  0  0  0  0  0  0  0  0  0  0  0
  -16.6298  -26.9128   22.5439 C   0  0  0  0  0  0  0  0  0  0  0  0
  -18.5307  -25.0840   21.6560 C   0  0  0  0  0  0  0  0  0  0  0  0
  -21.3479  -21.2809   23.4573 C   0  0  0  0  0  0  0  0  0  0  0  0
  -27.5291  -11.9001   20.0059 C   0  0  0  0  0  0  0  0  0  0  0  0
  -29.8752  -12.0725   20.5568 C   0  0  0  0  0  0  0  0  0  0  0  0
  -28.9159  -25.6047   18.3841 C   0  0  0  0  0  0  0  0  0  0  0  0
  -31.0624  -24.9247   17.5081 C   0  0  0  0  0  0  0  0  0  0  0  0
  -21.6413  -20.2359   22.5823 C   0  0  0  0  0  0  0  0  0  0  0  0
  -29.3302  -29.2173   18.3462 C   0  0  0  0  0  0  0  0  0  0  0  0
  -29.0506  -30.1421   19.3523 C   0  0  0  0  0  0  0  0  0  0  0  0
  -23.8267  -21.1812   22.1957 C   0  0  0  0  0  0  0  0  0  0  0  0
  -28.7258  -13.9521   19.5653 C   0  0  0  0  0  0  0  0  0  0  0  0
  -30.5005  -28.9368   20.8630 C   0  0  0  0  0  0  0  0  0  0  0  0
  -29.4987  -23.2616   18.2992 C   0  0  0  0  0  0  0  0  0  0  0  0
  -28.5198  -20.9949   17.6578 C   0  0  0  0  0  0  0  0  0  0  0  0
  -17.9916  -27.2448   22.6194 C   0  0  0  0  0  0  0  0  0  0  0  0
  -22.2893  -22.2915   23.7001 C   0  0  0  0  0  0  0  0  0  0  0  0
  -18.9542  -26.3251   22.1611 C   0  0  0  0  0  0  0  0  0  0  0  0
  -23.5438  -22.2365   23.0762 C   0  0  0  0  0  0  0  0  0  0  0  0
  -27.5449  -13.2106   19.5285 C   0  0  0  0  0  0  0  0  0  0  0  0
  -29.8909  -13.3830   20.0794 C   0  0  0  0  0  0  0  0  0  0  0  0
  -30.1527  -25.9324   17.8284 C   0  0  0  0  0  0  0  0  0  0  0  0
  -22.8797  -20.1875   21.9490 C   0  0  0  0  0  0  0  0  0  0  0  0
  -30.1948  -28.1522   18.5985 C   0  0  0  0  0  0  0  0  0  0  0  0
  -29.6357  -30.0018   20.6107 C   0  0  0  0  0  0  0  0  0  0  0  0
  -30.7800  -28.0120   19.8569 C   0  0  0  0  0  0  0  0  0  0  0  0
  -29.1617  -21.8820   18.5426 C   0  0  0  0  0  0  0  0  0  0  0  0
  -28.4325  -19.8159   18.3570 C   0  0  0  0  0  0  0  0  0  0  0  0
  -28.0450  -21.2167   16.3233 C   0  0  0  0  0  0  0  0  0  0  0  0
  -22.3743  -25.4355   23.2401 C   0  0  0  0  0  0  0  0  0  0  0  0
  -25.1799  -25.2029   24.8516 C   0  0  0  0  0  0  0  0  0  0  0  0
  -27.8218  -23.2639   25.8041 C   0  0  0  0  0  0  0  0  0  0  0  0
  -30.8716  -15.9913   21.6289 C   0  0  0  0  0  0  0  0  0  0  0  0
  -18.3787  -28.6105   23.1288 C   0  0  0  0  0  0  0  0  0  0  0  0
  -21.9675  -23.3975   24.6673 C   0  0  0  0  0  0  0  0  0  0  0  0
  -24.5968  -23.2859   23.3186 C   0  0  0  0  0  0  0  0  0  0  0  0
  -19.8535  -28.7243   23.5063 C   0  0  0  0  0  0  0  0  0  0  0  0
  -29.2686  -18.7952   23.2315 C   0  0  0  0  0  0  0  0  0  0  0  0
  -20.7319  -28.1197   22.4156 C   0  0  0  0  0  0  0  0  0  0  0  0
  -29.0831  -19.7902   22.0865 C   0  0  0  0  0  0  0  0  0  0  0  0
  -30.5522  -17.9875   23.0678 C   0  0  0  0  0  0  0  0  0  0  0  0
  -30.4660  -18.2689   20.6040 C   0  0  0  0  0  0  0  0  0  0  0  0
  -20.4355  -26.6263   22.2332 C   0  0  1  0  0  0  0  0  0  0  0  0
  -22.8097  -24.6499   24.4447 C   0  0  1  0  0  0  0  0  0  0  0  0
  -29.1662  -19.0834   20.7219 C   0  0  2  0  0  0  0  0  0  0  0  0
  -31.9816  -14.0386   18.8375 C   0  0  0  0  0  0  0  0  0  0  0  0
  -29.9771  -23.3628   27.0856 C   0  0  0  0  0  0  0  0  0  0  0  0
  -26.4964  -26.6658   22.5199 C   0  0  0  0  0  0  0  0  0  0  0  0
  -28.7180  -25.9033   23.3866 C   0  0  0  0  0  0  0  0  0  0  0  0
  -27.2803  -27.3897   24.7817 C   0  0  0  0  0  0  0  0  0  0  0  0
  -26.8963  -21.2294   27.7440 C   0  0  0  0  0  0  0  0  0  0  0  0
  -26.2909  -13.8225   18.9771 C   0  0  0  0  0  0  0  0  0  0  0  0
  -23.9376  -16.4699   20.3889 C   0  0  0  0  0  0  0  0  0  0  0  0
  -22.6645  -17.1527   19.8945 C   0  0  0  0  0  0  0  0  0  0  0  0
  -24.4572  -15.4739   19.3630 C   0  0  0  0  0  0  0  0  0  0  0  0
  -22.1559  -18.1839   20.8919 C   0  0  0  0  0  0  0  0  0  1  0  0
  -31.1539  -14.1756   20.1182 C   0  0  1  0  0  0  0  0  0  0  0  0
  -26.6199  -24.9701   24.4629 C   0  0  1  0  0  0  0  0  0  0  0  0
  -28.4880  -23.0613   27.1530 C   0  0  2  0  0  0  0  0  0  0  0  0
  -27.2583  -26.2133   23.7815 C   0  0  0  0  0  0  0  0  0  0  0  0
  -29.4608  -21.3152   19.7144 N   0  0  0  0  0  0  0  0  0  0  0  0
  -29.0048  -20.0592   19.5709 N   0  0  0  0  0  0  0  0  0  0  0  0
  -24.2321  -24.3504   24.2679 N   0  0  0  0  0  0  0  0  0  0  0  0
  -30.6182  -17.3613   21.7479 N   0  0  0  0  0  0  0  0  0  0  0  0
  -27.9228  -18.6052   18.0458 N   0  0  0  0  0  0  0  0  0  0  0  0
  -28.2151  -22.4870   15.7561 N   0  0  0  0  0  0  0  0  0  0  0  0
  -21.0585  -25.8549   23.2874 N   0  0  0  0  0  0  0  0  0  0  0  0
  -27.3049  -24.5357   25.6756 N   0  0  0  0  0  0  0  0  0  0  0  0
  -28.3137  -21.6538   27.6107 N   0  3  0  0  0  0  0  0  0  0  0  0
  -25.6648  -14.8048   19.9040 N   0  3  0  0  0  0  0  0  0  0  0  0
  -27.4717  -20.3198   15.6597 O   0  0  0  0  0  0  0  0  0  0  0  0
  -23.1735  -25.6469   22.3355 O   0  0  0  0  0  0  0  0  0  0  0  0
  -24.9069  -26.1032   25.6494 O   0  0  0  0  0  0  0  0  0  0  0  0
  -27.7687  -22.3832   24.9484 O   0  0  0  0  0  0  0  0  0  0  0  0
  -31.0516  -15.2347   22.5815 O   0  0  0  0  0  0  0  0  0  0  0  0
  -30.4720  -27.2354   17.5984 O   0  0  0  0  0  0  0  0  0  0  0  0
  -23.1684  -19.1690   21.0940 O   0  0  0  0  0  0  0  0  0  1  0  0
  -30.8996  -15.5698   20.3259 O   0  0  0  0  0  0  0  0  0  0  0  0
  -29.3684  -30.8908   21.5763 F   0  0  0  0  0  0  0  0  0  0  0  0
  -31.6124  -26.9915   20.1049 F   0  0  0  0  0  0  0  0  0  0  0  0
  1  2  1  0  0  0  0
  1  6  2  0  0  0  0
  2  7  2  0  0  0  0
  3  9  2  0  0  0  0
  3 10  1  0  0  0  0
  4 11  2  0  0  0  0
  4 19  1  0  0  0  0
  5 12  1  0  0  0  0
  5 19  2  0  0  0  0
  6 21  1  0  0  0  0
  7 23  1  0  0  0  0
  8 13  2  0  0  0  0
  8 22  1  0  0  0  0
  9 25  1  0  0  0  0
 10 26  2  0  0  0  0
 11 27  1  0  0  0  0
 12 27  2  0  0  0  0
 13 28  1  0  0  0  0
 14 15  2  0  0  0  0
 14 29  1  0  0  0  0
 15 30  1  0  0  0  0
 16 24  1  0  0  0  0
 16 28  2  0  0  0  0
 17 25  2  0  0  0  0
 17 26  1  0  0  0  0
 18 30  2  0  0  0  0
 18 31  1  0  0  0  0
 19 32  1  0  0  0  0
 20 32  1  0  0  0  0
 20 33  2  0  0  0  0
 20 34  1  0  0  0  0
 21 23  2  0  0  0  0
 21 39  1  0  0  0  0
 22 24  2  0  0  0  0
 22 40  1  0  0  0  0
 23 48  1  0  0  0  0
 24 41  1  0  0  0  0
 25 57  1  0  0  0  0
 26 62  1  0  0  0  0
 27 81  1  0  0  0  0
 28 82  1  0  0  0  0
 29 31  2  0  0  0  0
 29 81  1  0  0  0  0
 30 84  1  0  0  0  0
 31 85  1  0  0  0  0
 32 66  2  0  0  0  0
 33 67  1  0  0  0  0
 33 70  1  0  0  0  0
 34 71  1  0  0  0  0
 34 76  2  0  0  0  0
 35 49  1  0  0  0  0
 35 72  1  0  0  0  0
 35 77  2  0  0  0  0
 36 63  1  0  0  0  0
 36 68  1  0  0  0  0
 36 78  2  0  0  0  0
 37 64  1  0  0  0  0
 37 73  1  0  0  0  0
 37 79  2  0  0  0  0
 38 69  1  0  0  0  0
 38 80  2  0  0  0  0
 38 83  1  0  0  0  0
 39 42  1  0  0  0  0
 40 49  1  0  0  0  0
 41 68  1  0  0  0  0
 42 44  1  0  0  0  0
 43 45  1  0  0  0  0
 43 46  1  0  0  0  0
 44 48  1  0  0  0  0
 45 50  1  0  0  0  0
 46 69  1  0  0  0  0
 47 50  1  0  0  0  0
 47 69  1  0  0  0  0
 48 72  1  0  0  0  0
 49 68  1  0  0  0  0
 50 67  1  0  0  0  0
 51 62  1  0  0  0  0
 52 64  1  0  0  0  0
 53 65  1  0  0  0  0
 54 65  1  0  0  0  0
 55 65  1  0  0  0  0
 56 74  1  0  0  0  0
 57 75  1  0  0  0  0
 58 59  1  0  0  0  0
 58 60  1  0  0  0  0
 59 61  1  0  0  0  0
 60 75  1  0  0  0  0
 61 82  1  0  0  0  0
 62 83  1  0  0  0  0
 63 65  1  0  0  0  0
 63 73  1  0  0  0  0
 64 74  1  0  0  0  0
 66 67  1  0  0  0  0
M  CHG  2  74   1  75   1
M  ISO  4  38 100  61 101  82 101  83 100
M  END
> <Batch ID>
0002

> <Smiles>
CNC(C)C(=O)NC(C(=O)N1Cc2cc([101O:1][101CH2:1]CCCNCc3cccc(C(C)[100O:0][100C:0](=O)N4CCCC(n5nc(-c6ccc(Oc7ccc(F)cc7F)cc6)c(C(N)=O)c5N)C4)c3)ccc2CC1C(=O)NC1CCCc2ccccc21)C(C)(C)C

> <Shape>
0.218

> <Color>
0.053

> <Negative vol penalty>
0.000

$$$$

  -OEChem-04042320173D

 92101  0     1  0  0  0  0  0999 V2000
  -22.7208  -25.2163   18.8948 C   0  0  0  0  0  0  0  0  0  0  0  0
  -15.0690  -16.6131   22.3936 C   0  0  0  0  0  0  0  0  0  0  0  0
  -15.3062  -17.8913   21.8982 C   0  0  0  0  0  0  0  0  0  0  0  0
  -22.7942  -26.2866   18.0034 C   0  0  0  0  0  0  0  0  0  0  0  0
  -23.6177  -25.1329   19.9599 C   0  0  0  0  0  0  0  0  0  0  0  0
  -24.6669  -31.8623   19.9946 C   0  0  0  0  0  0  0  0  0  0  0  0
  -29.5295  -17.6653   18.7764 C   0  0  0  0  0  0  0  0  0  0  0  0
  -30.4082  -18.2651   20.9456 C   0  0  0  0  0  0  0  0  0  0  0  0
  -24.1613  -31.7992   21.2931 C   0  0  0  0  0  0  0  0  0  0  0  0
  -15.4850  -16.2775   23.6813 C   0  0  0  0  0  0  0  0  0  0  0  0
  -15.9587  -18.8350   22.6908 C   0  0  0  0  0  0  0  0  0  0  0  0
  -20.4487  -24.3948   22.1964 C   0  0  0  0  0  0  0  0  0  0  0  0
  -23.7646  -27.2735   18.1770 C   0  0  0  0  0  0  0  0  0  0  0  0
  -24.5880  -26.1198   20.1335 C   0  0  0  0  0  0  0  0  0  0  0  0
  -25.1781  -30.7145   19.3887 C   0  0  0  0  0  0  0  0  0  0  0  0
  -29.9735  -16.3556   18.9587 C   0  0  0  0  0  0  0  0  0  0  0  0
  -30.8522  -16.9554   21.1279 C   0  0  0  0  0  0  0  0  0  0  0  0
  -20.5611  -25.7269   22.5921 C   0  0  0  0  0  0  0  0  0  0  0  0
  -30.5564  -12.7677   19.0060 C   0  0  0  0  0  0  0  0  0  0  0  0
  -29.6814  -11.7340   18.6725 C   0  0  0  0  0  0  0  0  0  0  0  0
  -24.6783  -29.4408   21.3799 C   0  0  0  0  0  0  0  0  0  0  0  0
  -21.3051  -25.0104   24.7721 C   0  0  0  0  0  0  0  0  0  0  0  0
  -28.0903  -12.5579   20.2932 C   0  0  0  0  0  0  0  0  0  0  0  0
  -29.7469  -18.6201   19.7699 C   0  0  0  0  0  0  0  0  0  0  0  0
  -24.1670  -30.5885   21.9857 C   0  0  0  0  0  0  0  0  0  0  0  0
  -28.0363  -20.5046   19.9426 C   0  0  0  0  0  0  0  0  0  0  0  0
  -16.1515  -17.2145   24.4865 C   0  0  0  0  0  0  0  0  0  0  0  0
  -20.7537  -23.3586   23.0906 C   0  0  0  0  0  0  0  0  0  0  0  0
  -16.3829  -18.5120   23.9909 C   0  0  0  0  0  0  0  0  0  0  0  0
  -21.1982  -23.6660   24.3844 C   0  0  0  0  0  0  0  0  0  0  0  0
  -24.6615  -27.1901   19.2420 C   0  0  0  0  0  0  0  0  0  0  0  0
  -25.1838  -29.5038   20.0814 C   0  0  0  0  0  0  0  0  0  0  0  0
  -30.6348  -16.0007   20.1344 C   0  0  0  0  0  0  0  0  0  0  0  0
  -20.9866  -26.0349   23.8810 C   0  0  0  0  0  0  0  0  0  0  0  0
  -30.1985  -13.6965   19.9832 C   0  0  0  0  0  0  0  0  0  0  0  0
  -28.4483  -11.6291   19.3161 C   0  0  0  0  0  0  0  0  0  0  0  0
  -28.9654  -13.5916   20.6268 C   0  0  0  0  0  0  0  0  0  0  0  0
  -29.2890  -19.9733   19.5819 C   0  0  0  0  0  0  0  0  0  0  0  0
  -28.0971  -21.8209   19.5550 C   0  0  0  0  0  0  0  0  0  0  0  0
  -23.6279  -30.5217   23.3685 C   0  0  0  0  0  0  0  0  0  0  0  0
  -26.9177  -19.8656   20.5719 C   0  0  0  0  0  0  0  0  0  0  0  0
  -19.1172  -20.9645   24.3922 C   0  0  0  0  0  0  0  0  0  0  0  0
  -22.0281  -20.1178   25.5464 C   0  0  0  0  0  0  0  0  0  0  0  0
  -25.1871  -21.0690   26.4198 C   0  0  0  0  0  0  0  0  0  0  0  0
  -30.8276  -26.6772   19.2296 C   0  0  0  0  0  0  0  0  0  0  0  0
  -16.5403  -16.8201   25.8893 C   0  0  0  0  0  0  0  0  0  0  0  0
  -20.6529  -21.9271   22.6398 C   0  0  0  0  0  0  0  0  0  0  0  0
  -21.5574  -22.5906   25.3759 C   0  0  0  0  0  0  0  0  0  0  0  0
  -17.5583  -17.7622   26.5269 C   0  0  0  0  0  0  0  0  0  0  0  0
  -31.4879  -24.2591   16.7012 C   0  0  0  0  0  0  0  0  0  0  0  0
  -17.1520  -19.2158   26.3058 C   0  0  0  0  0  0  0  0  0  0  0  0
  -30.8771  -22.9718   17.2577 C   0  0  0  0  0  0  0  0  0  0  0  0
  -32.1123  -25.1104   17.8045 C   0  0  0  0  0  0  0  0  0  0  0  0
  -30.6025  -24.1319   19.4887 C   0  0  0  0  0  0  0  0  0  0  0  0
  -17.1096  -19.5556   24.8111 C   0  0  1  0  0  0  0  0  0  0  0  0
  -20.4969  -20.9457   23.7973 C   0  0  1  0  0  0  0  0  0  0  0  0
  -29.9113  -23.2667   18.4211 C   0  0  2  0  0  0  0  0  0  0  0  0
  -27.3262  -20.1620   27.3680 C   0  0  0  0  0  0  0  0  0  0  0  0
  -20.7731  -20.0717   28.3273 C   0  0  0  0  0  0  0  0  0  0  0  0
  -23.0824  -20.1077   29.2938 C   0  0  0  0  0  0  0  0  0  0  0  0
  -22.3591  -18.1935   27.8672 C   0  0  0  0  0  0  0  0  0  0  0  0
  -26.7059  -21.7828   23.9821 C   0  0  0  0  0  0  0  0  0  0  0  0
  -28.2476  -28.6396   19.9619 C   0  0  0  0  0  0  0  0  0  0  0  0
  -27.0270  -27.7170   20.1079 C   0  0  0  0  0  0  0  0  0  0  0  0
  -29.4640  -28.1175   20.7214 C   0  0  0  0  0  0  0  0  0  0  0  0
  -22.5530  -29.0716   25.0707 C   0  0  0  0  0  0  0  0  0  0  0  0
  -22.0888  -27.6372   25.2498 C   0  0  0  0  0  0  0  0  0  1  0  0
  -25.7306  -28.2765   19.4336 C   0  0  1  0  0  0  0  0  0  0  0  0
  -22.8176  -20.4359   26.7932 C   0  0  1  0  0  0  0  0  0  0  0  0
  -26.5443  -20.4689   26.1002 C   0  0  2  0  0  0  0  0  0  0  0  0
  -22.2495  -19.7227   28.0525 C   0  0  0  0  0  0  0  0  0  0  0  0
  -30.0873  -20.8780   19.0090 N   0  0  0  0  0  0  0  0  0  0  0  0
  -29.3343  -21.9912   19.0067 N   0  0  0  0  0  0  0  0  0  0  0  0
  -21.4365  -21.2062   24.8898 N   0  0  0  0  0  0  0  0  0  0  0  0
  -31.1441  -25.3551   18.8762 N   0  0  0  0  0  0  0  0  0  0  0  0
  -27.2125  -22.8376   19.6330 N   0  0  0  0  0  0  0  0  0  0  0  0
  -27.0235  -18.5080   20.9036 N   0  0  0  0  0  0  0  0  0  0  0  0
  -23.1301  -29.2886   23.7707 N   0  0  0  0  0  0  0  0  0  0  0  0
  -18.4486  -19.7587   24.3009 N   0  0  0  0  0  0  0  0  0  0  0  0
  -24.2060  -20.1029   26.4932 N   0  0  0  0  0  0  0  0  0  0  0  0
  -29.8961  -26.8204   20.2507 N   0  0  0  0  0  0  0  0  0  0  0  0
  -27.3457  -21.4128   25.2708 N   0  3  0  0  0  0  0  0  0  0  0  0
  -23.6291  -31.5350   24.0626 O   0  0  0  0  0  0  0  0  0  0  0  0
  -25.8498  -20.4761   20.8175 O   0  0  0  0  0  0  0  0  0  0  0  0
  -18.6914  -21.9963   24.8981 O   0  0  0  0  0  0  0  0  0  0  0  0
  -21.9454  -18.9476   25.1651 O   0  0  0  0  0  0  0  0  0  0  0  0
  -25.0151  -22.2738   26.5913 O   0  0  0  0  0  0  0  0  0  0  0  0
  -31.3334  -27.6575   18.6726 O   0  0  0  0  0  0  0  0  0  0  0  0
  -31.0680  -14.7227   20.3127 O   0  0  0  0  0  0  0  0  0  0  0  0
  -21.0965  -27.3343   24.2700 O   0  0  0  0  0  0  0  0  0  1  0  0
  -27.6075  -10.6372   18.9946 F   0  0  0  0  0  0  0  0  0  0  0  0
  -28.6155  -14.4816   21.5656 F   0  0  0  0  0  0  0  0  0  0  0  0
  1  4  1  0  0  0  0
  1  5  2  0  0  0  0
  2  3  1  0  0  0  0
  2 10  2  0  0  0  0
  3 11  2  0  0  0  0
  4 13  2  0  0  0  0
  5 14  1  0  0  0  0
  6  9  2  0  0  0  0
  6 15  1  0  0  0  0
  7 16  2  0  0  0  0
  7 24  1  0  0  0  0
  8 17  1  0  0  0  0
  8 24  2  0  0  0  0
  9 25  1  0  0  0  0
 10 27  1  0  0  0  0
 11 29  1  0  0  0  0
 12 18  2  0  0  0  0
 12 28  1  0  0  0  0
 13 31  1  0  0  0  0
 14 31  2  0  0  0  0
 15 32  2  0  0  0  0
 16 33  1  0  0  0  0
 17 33  2  0  0  0  0
 18 34  1  0  0  0  0
 19 20  2  0  0  0  0
 19 35  1  0  0  0  0
 20 36  1  0  0  0  0
 21 25  2  0  0  0  0
 21 32  1  0  0  0  0
 22 30  1  0  0  0  0
 22 34  2  0  0  0  0
 23 36  2  0  0  0  0
 23 37  1  0  0  0  0
 24 38  1  0  0  0  0
 25 40  1  0  0  0  0
 26 38  1  0  0  0  0
 26 39  2  0  0  0  0
 26 41  1  0  0  0  0
 27 29  2  0  0  0  0
 27 46  1  0  0  0  0
 28 30  2  0  0  0  0
 28 47  1  0  0  0  0
 29 55  1  0  0  0  0
 30 48  1  0  0  0  0
 31 68  1  0  0  0  0
 32 68  1  0  0  0  0
 33 89  1  0  0  0  0
 34 90  1  0  0  0  0
 35 37  2  0  0  0  0
 35 89  1  0  0  0  0
 36 91  1  0  0  0  0
 37 92  1  0  0  0  0
 38 72  2  0  0  0  0
 39 73  1  0  0  0  0
 39 76  1  0  0  0  0
 40 78  1  0  0  0  0
 40 83  2  0  0  0  0
 41 77  1  0  0  0  0
 41 84  2  0  0  0  0
 42 56  1  0  0  0  0
 42 79  1  0  0  0  0
 42 85  2  0  0  0  0
 43 69  1  0  0  0  0
 43 74  1  0  0  0  0
 43 86  2  0  0  0  0
 44 70  1  0  0  0  0
 44 80  1  0  0  0  0
 44 87  2  0  0  0  0
 45 75  1  0  0  0  0
 45 81  1  0  0  0  0
 45 88  2  0  0  0  0
 46 49  1  0  0  0  0
 47 56  1  0  0  0  0
 48 74  1  0  0  0  0
 49 51  1  0  0  0  0
 50 52  1  0  0  0  0
 50 53  1  0  0  0  0
 51 55  1  0  0  0  0
 52 57  1  0  0  0  0
 53 75  1  0  0  0  0
 54 57  1  0  0  0  0
 54 75  1  0  0  0  0
 55 79  1  0  0  0  0
 56 74  1  0  0  0  0
 57 73  1  0  0  0  0
 58 70  1  0  0  0  0
 59 71  1  0  0  0  0
 60 71  1  0  0  0  0
 61 71  1  0  0  0  0
 62 82  1  0  0  0  0
 63 64  1  0  0  0  0
 63 65  1  0  0  0  0
 64 68  1  0  0  0  0
 65 81  1  0  0  0  0
 66 67  1  0  0  0  0
 66 78  1  0  0  0  0
 67 90  1  0  0  0  0
 69 71  1  0  0  0  0
 69 80  1  0  0  0  0
 70 82  1  0  0  0  0
 72 73  1  0  0  0  0
M  CHG  1  82   1
M  ISO  4  45 100  67 101  81 100  90 101
M  END
> <Batch ID>
0002

> <Smiles>
CNC(C)C(=O)NC(C(=O)N1Cc2cc([101O:1][101CH2:1]CNC(=O)c3cccc(C(CCC[100NH:0][100C:0](=O)N4CCCC(n5nc(-c6ccc(Oc7ccc(F)cc7F)cc6)c(C(N)=O)c5N)C4)c4ccccc4)c3)ccc2CC1C(=O)NC1CCCc2ccccc21)C(C)(C)C

> <Shape>
0.230

> <Color>
0.056

> <Negative vol penalty>
0.000

$$$$

  -OEChem-04042320173D

 82 90  0     1  0  0  0  0  0999 V2000
  -17.4720  -30.8956   24.2232 C   0  0  0  0  0  0  0  0  0  0  0  0
  -18.8413  -31.1410   24.2371 C   0  0  0  0  0  0  0  0  0  0  0  0
  -27.7513  -21.7644   23.7748 C   0  0  0  0  0  0  0  0  0  0  0  0
  -24.6284  -12.3079   19.6558 C   0  0  0  0  0  0  0  0  0  0  0  0
  -25.4403  -13.1353   21.7755 C   0  0  0  0  0  0  0  0  0  0  0  0
  -28.5022  -22.7821   23.1868 C   0  0  0  0  0  0  0  0  0  0  0  0
  -16.9851  -29.6967   23.7041 C   0  0  0  0  0  0  0  0  0  0  0  0
  -19.7246  -30.1871   23.7328 C   0  0  0  0  0  0  0  0  0  0  0  0
  -26.0037  -29.6403   20.3284 C   0  0  0  0  0  0  0  0  0  0  0  0
  -26.8221  -21.0546   23.0142 C   0  0  0  0  0  0  0  0  0  0  0  0
  -25.4268  -11.1725   19.7931 C   0  0  0  0  0  0  0  0  0  0  0  0
  -26.2387  -11.9998   21.9129 C   0  0  0  0  0  0  0  0  0  0  0  0
  -27.2371  -29.0000   20.4398 C   0  0  0  0  0  0  0  0  0  0  0  0
  -26.9786   -7.8852   19.7566 C   0  0  0  0  0  0  0  0  0  0  0  0
  -26.4037   -6.6488   19.4629 C   0  0  0  0  0  0  0  0  0  0  0  0
  -27.3945  -22.3806   21.0775 C   0  0  0  0  0  0  0  0  0  0  0  0
  -26.2768  -26.9987   19.4954 C   0  0  0  0  0  0  0  0  0  0  0  0
  -24.7508   -7.0074   21.1881 C   0  0  0  0  0  0  0  0  0  0  0  0
  -24.6352  -13.2893   20.6470 C   0  0  0  0  0  0  0  0  0  0  0  0
  -28.3238  -23.0903   21.8381 C   0  0  0  0  0  0  0  0  0  0  0  0
  -22.4852  -14.6289   20.9486 C   0  0  0  0  0  0  0  0  0  0  0  0
  -17.8622  -28.7317   23.1843 C   0  0  0  0  0  0  0  0  0  0  0  0
  -24.8930  -28.9600   19.8089 C   0  0  0  0  0  0  0  0  0  0  0  0
  -19.2491  -28.9736   23.2075 C   0  0  0  0  0  0  0  0  0  0  0  0
  -25.0310  -27.6335   19.3761 C   0  0  0  0  0  0  0  0  0  0  0  0
  -26.6437  -21.3627   21.6656 C   0  0  0  0  0  0  0  0  0  0  0  0
  -26.2320  -11.0184   20.9216 C   0  0  0  0  0  0  0  0  0  0  0  0
  -27.3731  -27.6781   20.0260 C   0  0  0  0  0  0  0  0  0  0  0  0
  -26.4396   -8.6828   20.7662 C   0  0  0  0  0  0  0  0  0  0  0  0
  -25.2898   -6.2099   20.1786 C   0  0  0  0  0  0  0  0  0  0  0  0
  -25.3257   -8.2439   21.4819 C   0  0  0  0  0  0  0  0  0  0  0  0
  -23.8110  -14.4627   20.5054 C   0  0  0  0  0  0  0  0  0  0  0  0
  -22.1565  -15.9093   20.5757 C   0  0  0  0  0  0  0  0  0  0  0  0
  -29.1243  -24.1746   21.2131 C   0  0  0  0  0  0  0  0  0  0  0  0
  -21.6276  -13.7082   21.6359 C   0  0  0  0  0  0  0  0  0  0  0  0
  -22.0415  -28.1278   20.9404 C   0  0  0  0  0  0  0  0  0  0  0  0
  -21.5408  -27.1684   17.8825 C   0  0  0  0  0  0  0  0  0  0  0  0
  -22.8735  -26.1454   14.9119 C   0  0  0  0  0  0  0  0  0  0  0  0
  -25.3999  -20.8204   19.5430 C   0  0  0  0  0  0  0  0  0  0  0  0
  -17.2922  -27.4308   22.6770 C   0  0  0  0  0  0  0  0  0  0  0  0
  -23.5760  -29.6733   19.6705 C   0  0  0  0  0  0  0  0  0  0  0  0
  -23.8743  -26.8653   18.7926 C   0  0  0  0  0  0  0  0  0  0  0  0
  -18.2694  -26.6311   21.8192 C   0  0  0  0  0  0  0  0  0  0  0  0
  -23.1702  -19.2245   17.2718 C   0  0  0  0  0  0  0  0  0  0  0  0
  -19.6398  -26.5709   22.4863 C   0  0  0  0  0  0  0  0  0  0  0  0
  -22.9560  -17.8396   17.8868 C   0  0  0  0  0  0  0  0  0  0  0  0
  -24.6040  -19.7151   17.4646 C   0  0  0  0  0  0  0  0  0  0  0  0
  -24.8740  -18.3038   19.4657 C   0  0  0  0  0  0  0  0  0  0  0  0
  -20.2373  -27.9740   22.6469 C   0  0  1  0  0  0  0  0  0  0  0  0
  -22.3853  -28.7219   19.6038 C   0  0  1  0  0  0  0  0  0  0  0  0
  -23.4274  -17.7953   19.3535 C   0  0  2  0  0  0  0  0  0  0  0  0
  -22.2121  -25.3961   12.6101 C   0  0  0  0  0  0  0  0  0  0  0  0
  -20.7519  -24.4409   18.9996 C   0  0  0  0  0  0  0  0  0  0  0  0
  -21.0286  -23.4957   16.6978 C   0  0  0  0  0  0  0  0  0  0  0  0
  -19.3129  -25.2557   17.1235 C   0  0  0  0  0  0  0  0  0  0  0  0
  -24.2917  -28.4109   13.6410 C   0  0  0  0  0  0  0  0  0  0  0  0
  -30.3257  -26.3094   21.6070 C   0  0  0  0  0  0  0  0  0  0  0  0
  -29.4319  -27.4664   21.1975 C   0  0  0  0  0  0  0  0  0  1  0  0
  -21.7608  -25.8877   17.1142 C   0  0  1  0  0  0  0  0  0  0  0  0
  -22.6009  -26.5792   13.4830 C   0  0  2  0  0  0  0  0  0  0  0  0
  -20.7351  -24.7836   17.4965 C   0  0  0  0  0  0  0  0  0  0  0  0
  -24.2916  -15.5505   19.8973 N   0  0  0  0  0  0  0  0  0  0  0  0
  -23.2622  -16.4125   19.9557 N   0  0  0  0  0  0  0  0  0  0  0  0
  -22.6056  -27.6043   18.6837 N   0  0  0  0  0  0  0  0  0  0  0  0
  -24.9796  -19.6488   18.8786 N   0  0  0  0  0  0  0  0  0  0  0  0
  -21.0323  -16.6425   20.7209 N   0  0  0  0  0  0  0  0  0  0  0  0
  -22.1241  -12.4339   21.9423 N   0  0  0  0  0  0  0  0  0  0  0  0
  -25.6999  -20.6414   20.8931 N   0  0  0  0  0  0  0  0  0  0  0  0
  -29.5617  -25.1799   22.0663 N   0  0  0  0  0  0  0  0  0  0  0  0
  -20.7722  -28.4428   21.3865 N   0  0  0  0  0  0  0  0  0  0  0  0
  -21.7481  -26.2517   15.7015 N   0  0  0  0  0  0  0  0  0  0  0  0
  -23.8122  -27.2185   12.8957 N   0  3  0  0  0  0  0  0  0  0  0  0
  -29.3374  -24.1423   20.0039 O   0  0  0  0  0  0  0  0  0  0  0  0
  -20.4500  -14.0011   21.9540 O   0  0  0  0  0  0  0  0  0  0  0  0
  -22.8663  -27.4337   21.5232 O   0  0  0  0  0  0  0  0  0  0  0  0
  -20.4665  -27.7641   17.7701 O   0  0  0  0  0  0  0  0  0  0  0  0
  -23.9737  -25.7481   15.2890 O   0  0  0  0  0  0  0  0  0  0  0  0
  -25.4612  -21.9081   18.9643 O   0  0  0  0  0  0  0  0  0  0  0  0
  -27.0110   -9.9104   21.0561 O   0  0  0  0  0  0  0  0  0  0  0  0
  -28.5757  -27.0506   20.1343 O   0  0  0  0  0  0  0  0  0  1  0  0
  -24.7369   -5.0232   19.8953 F   0  0  0  0  0  0  0  0  0  0  0  0
  -24.8028   -9.0062   22.4521 F   0  0  0  0  0  0  0  0  0  0  0  0
  1  2  1  0  0  0  0
  1  7  2  0  0  0  0
  2  8  2  0  0  0  0
  3  6  2  0  0  0  0
  3 10  1  0  0  0  0
  4 11  2  0  0  0  0
  4 19  1  0  0  0  0
  5 12  1  0  0  0  0
  5 19  2  0  0  0  0
  6 20  1  0  0  0  0
  7 22  1  0  0  0  0
  8 24  1  0  0  0  0
  9 13  2  0  0  0  0
  9 23  1  0  0  0  0
 10 26  2  0  0  0  0
 11 27  1  0  0  0  0
 12 27  2  0  0  0  0
 13 28  1  0  0  0  0
 14 15  2  0  0  0  0
 14 29  1  0  0  0  0
 15 30  1  0  0  0  0
 16 20  2  0  0  0  0
 16 26  1  0  0  0  0
 17 25  1  0  0  0  0
 17 28  2  0  0  0  0
 18 30  2  0  0  0  0
 18 31  1  0  0  0  0
 19 32  1  0  0  0  0
 20 34  1  0  0  0  0
 21 32  1  0  0  0  0
 21 33  2  0  0  0  0
 21 35  1  0  0  0  0
 22 24  2  0  0  0  0
 22 40  1  0  0  0  0
 23 25  2  0  0  0  0
 23 41  1  0  0  0  0
 24 49  1  0  0  0  0
 25 42  1  0  0  0  0
 26 68  1  0  0  0  0
 27 79  1  0  0  0  0
 28 80  1  0  0  0  0
 29 31  2  0  0  0  0
 29 79  1  0  0  0  0
 30 81  1  0  0  0  0
 31 82  1  0  0  0  0
 32 62  2  0  0  0  0
 33 63  1  0  0  0  0
 33 66  1  0  0  0  0
 34 69  1  0  0  0  0
 34 73  2  0  0  0  0
 35 67  1  0  0  0  0
 35 74  2  0  0  0  0
 36 50  1  0  0  0  0
 36 70  1  0  0  0  0
 36 75  2  0  0  0  0
 37 59  1  0  0  0  0
 37 64  1  0  0  0  0
 37 76  2  0  0  0  0
 38 60  1  0  0  0  0
 38 71  1  0  0  0  0
 38 77  2  0  0  0  0
 39 65  1  0  0  0  0
 39 68  1  0  0  0  0
 39 78  2  0  0  0  0
 40 43  1  0  0  0  0
 41 50  1  0  0  0  0
 42 64  1  0  0  0  0
 43 45  1  0  0  0  0
 44 46  1  0  0  0  0
 44 47  1  0  0  0  0
 45 49  1  0  0  0  0
 46 51  1  0  0  0  0
 47 65  1  0  0  0  0
 48 51  1  0  0  0  0
 48 65  1  0  0  0  0
 49 70  1  0  0  0  0
 50 64  1  0  0  0  0
 51 63  1  0  0  0  0
 52 60  1  0  0  0  0
 53 61  1  0  0  0  0
 54 61  1  0  0  0  0
 55 61  1  0  0  0  0
 56 72  1  0  0  0  0
 57 58  1  0  0  0  0
 57 69  1  0  0  0  0
 58 80  1  0  0  0  0
 59 61  1  0  0  0  0
 59 71  1  0  0  0  0
 60 72  1  0  0  0  0
 62 63  1  0  0  0  0
M  CHG  1  72   1
M  ISO  4  39 100  58 101  68 100  80 101
M  END
> <Batch ID>
0002

> <Smiles>
CNC(C)C(=O)NC(C(=O)N1Cc2cc([101O:1][101CH2:1]CNC(=O)c3cccc([100NH:0][100C:0](=O)N4CCCC(n5nc(-c6ccc(Oc7ccc(F)cc7F)cc6)c(C(N)=O)c5N)C4)c3)ccc2CC1C(=O)NC1CCCc2ccccc21)C(C)(C)C

> <Shape>
0.205

> <Color>
0.100

> <Negative vol penalty>
0.000

$$$$

  -OEChem-04042320173D

 80 88  0     1  0  0  0  0  0999 V2000
  -30.4986  -26.5607    8.3086 C   0  0  0  0  0  0  0  0  0  0  0  0
  -30.3226  -25.5545    9.2531 C   0  0  0  0  0  0  0  0  0  0  0  0
  -22.9864   -9.9071   19.9846 C   0  0  0  0  0  0  0  0  0  0  0  0
  -23.7196   -9.9489   22.2863 C   0  0  0  0  0  0  0  0  0  0  0  0
  -31.3779  -19.3183   19.1088 C   0  0  0  0  0  0  0  0  0  0  0  0
  -29.1591  -19.6267   20.0138 C   0  0  0  0  0  0  0  0  0  0  0  0
  -30.8783  -27.8389    8.7159 C   0  0  0  0  0  0  0  0  0  0  0  0
  -30.5274  -25.8257   10.6055 C   0  0  0  0  0  0  0  0  0  0  0  0
  -27.4715  -23.4347   15.3436 C   0  0  0  0  0  0  0  0  0  0  0  0
  -31.6031  -18.2816   20.0143 C   0  0  0  0  0  0  0  0  0  0  0  0
  -29.3844  -18.5899   20.9193 C   0  0  0  0  0  0  0  0  0  0  0  0
  -22.2152   -8.7758   20.2508 C   0  0  0  0  0  0  0  0  0  0  0  0
  -22.9483   -8.8176   22.5525 C   0  0  0  0  0  0  0  0  0  0  0  0
  -27.7648  -22.3886   16.2173 C   0  0  0  0  0  0  0  0  0  0  0  0
  -23.1744   -5.4786   22.0717 C   0  0  0  0  0  0  0  0  0  0  0  0
  -23.7594   -4.4567   22.8194 C   0  0  0  0  0  0  0  0  0  0  0  0
  -28.6360  -23.9739   17.8133 C   0  0  0  0  0  0  0  0  0  0  0  0
  -22.0424   -4.7041   24.5010 C   0  0  0  0  0  0  0  0  0  0  0  0
  -23.7387  -10.4936   21.0023 C   0  0  0  0  0  0  0  0  0  0  0  0
  -30.1558  -19.9909   19.1085 C   0  0  0  0  0  0  0  0  0  0  0  0
  -24.1359  -13.0077   20.8310 C   0  0  0  0  0  0  0  0  0  0  0  0
  -31.0784  -28.1284   10.0749 C   0  0  0  0  0  0  0  0  0  0  0  0
  -27.7686  -24.7595   15.6943 C   0  0  0  0  0  0  0  0  0  0  0  0
  -30.9115  -27.1087   11.0312 C   0  0  0  0  0  0  0  0  0  0  0  0
  -28.3430  -25.0352   16.9433 C   0  0  0  0  0  0  0  0  0  0  0  0
  -30.6064  -17.9173   20.9196 C   0  0  0  0  0  0  0  0  0  0  0  0
  -22.1961   -8.2310   21.5347 C   0  0  0  0  0  0  0  0  0  0  0  0
  -28.3498  -22.6578   17.4512 C   0  0  0  0  0  0  0  0  0  0  0  0
  -22.0234   -6.1134   22.5387 C   0  0  0  0  0  0  0  0  0  0  0  0
  -23.1934   -4.0694   24.0340 C   0  0  0  0  0  0  0  0  0  0  0  0
  -21.4574   -5.7261   23.7534 C   0  0  0  0  0  0  0  0  0  0  0  0
  -24.5361  -11.6619   20.7278 C   0  0  0  0  0  0  0  0  0  0  0  0
  -25.2481  -13.7256   20.4646 C   0  0  0  0  0  0  0  0  0  0  0  0
  -22.8720  -13.5595   21.2232 C   0  0  0  0  0  0  0  0  0  0  0  0
  -29.9146  -21.0949   18.1442 C   0  0  0  0  0  0  0  0  0  1  0  0
  -29.6527  -27.0262   14.5043 C   0  0  0  0  0  0  0  0  0  0  0  0
  -28.2331  -28.8547   16.7765 C   0  0  0  0  0  0  0  0  0  0  0  0
  -26.5878  -29.0062   19.7627 C   0  0  0  0  0  0  0  0  0  0  0  0
  -30.7498  -14.6323   20.6968 C   0  0  0  0  0  0  0  0  0  0  0  0
  -31.5343  -29.5128   10.4627 C   0  0  0  0  0  0  0  0  0  0  0  0
  -27.4214  -25.8791   14.7517 C   0  0  0  0  0  0  0  0  0  0  0  0
  -28.6631  -26.4420   17.3758 C   0  0  0  0  0  0  0  0  0  0  0  0
  -31.3670  -29.8149   11.9497 C   0  0  0  0  0  0  0  0  0  0  0  0
  -29.5892  -12.2200   18.3494 C   0  0  0  0  0  0  0  0  0  0  0  0
  -31.8882  -28.6550   12.7921 C   0  0  0  0  0  0  0  0  0  0  0  0
  -28.1408  -11.9665   18.7712 C   0  0  0  0  0  0  0  0  0  0  0  0
  -30.4968  -12.4480   19.5561 C   0  0  0  0  0  0  0  0  0  0  0  0
  -28.5952  -13.2498   20.9033 C   0  0  0  0  0  0  0  0  0  0  0  0
  -31.1000  -27.3703   12.5098 C   0  0  1  0  0  0  0  0  0  0  0  0
  -28.2387  -27.1433   14.9987 C   0  0  1  0  0  0  0  0  0  0  0  0
  -27.6313  -13.0697   19.7181 C   0  0  2  0  0  0  0  0  0  0  0  0
  -25.5890  -30.6439   21.3806 C   0  0  0  0  0  0  0  0  0  0  0  0
  -31.0287  -29.5939   17.7504 C   0  0  0  0  0  0  0  0  0  0  0  0
  -29.9943  -30.4192   19.8757 C   0  0  0  0  0  0  0  0  0  0  0  0
  -29.4038  -31.4944   17.7037 C   0  0  0  0  0  0  0  0  0  0  0  0
  -23.8852  -27.8402   19.4538 C   0  0  0  0  0  0  0  0  0  0  0  0
  -30.8474  -16.8079   21.8869 C   0  0  0  0  0  0  0  0  0  0  0  0
  -28.5239  -29.1815   18.2214 C   0  0  1  0  0  0  0  0  0  0  0  0
  -25.3291  -29.7434   20.1830 C   0  0  2  0  0  0  0  0  0  0  0  0
  -29.7335  -30.1455   18.3791 C   0  0  0  0  0  0  0  0  0  0  0  0
  -25.8034  -11.5301   20.3270 N   0  0  0  0  0  0  0  0  0  0  0  0
  -26.2092  -12.8022   20.1751 N   0  0  0  0  0  0  0  0  0  0  0  0
  -28.3106  -27.5018   16.4167 N   0  0  0  0  0  0  0  0  0  0  0  0
  -29.9582  -13.5073   20.4126 N   0  0  0  0  0  0  0  0  0  0  0  0
  -25.4878  -15.0504   20.3650 N   0  0  0  0  0  0  0  0  0  0  0  0
  -21.8370  -12.6796   21.5681 N   0  0  0  0  0  0  0  0  0  0  0  0
  -29.8207  -27.4034   13.1856 N   0  0  0  0  0  0  0  0  0  0  0  0
  -27.2774  -29.6899   18.7837 N   0  0  0  0  0  0  0  0  0  0  0  0
  -30.1610  -15.5921   21.5110 N   0  0  0  0  0  0  0  0  0  0  0  0
  -24.2582  -28.7735   20.5479 N   0  3  0  0  0  0  0  0  0  0  0  0
  -22.6615  -14.7958   21.2506 O   0  0  0  0  0  0  0  0  0  0  0  0
  -30.7449  -21.4619   17.3263 O   0  0  0  0  0  0  0  0  0  0  0  0
  -30.5270  -26.6247   15.2634 O   0  0  0  0  0  0  0  0  0  0  0  0
  -27.9408  -29.7654   15.9975 O   0  0  0  0  0  0  0  0  0  0  0  0
  -26.9275  -27.9331   20.2562 O   0  0  0  0  0  0  0  0  0  0  0  0
  -31.8945  -14.7736   20.2532 O   0  0  0  0  0  0  0  0  0  0  0  0
  -21.4434   -7.1272   21.7949 O   0  0  0  0  0  0  0  0  0  0  0  0
  -28.6379  -21.6386   18.3056 O   0  0  0  0  0  0  0  0  0  1  0  0
  -23.7544   -3.0870   24.7512 F   0  0  0  0  0  0  0  0  0  0  0  0
  -20.3511   -6.3314   24.2066 F   0  0  0  0  0  0  0  0  0  0  0  0
  1  2  1  0  0  0  0
  1  7  2  0  0  0  0
  2  8  2  0  0  0  0
  3 12  2  0  0  0  0
  3 19  1  0  0  0  0
  4 13  1  0  0  0  0
  4 19  2  0  0  0  0
  5 10  2  0  0  0  0
  5 20  1  0  0  0  0
  6 11  1  0  0  0  0
  6 20  2  0  0  0  0
  7 22  1  0  0  0  0
  8 24  1  0  0  0  0
  9 14  2  0  0  0  0
  9 23  1  0  0  0  0
 10 26  1  0  0  0  0
 11 26  2  0  0  0  0
 12 27  1  0  0  0  0
 13 27  2  0  0  0  0
 14 28  1  0  0  0  0
 15 16  2  0  0  0  0
 15 29  1  0  0  0  0
 16 30  1  0  0  0  0
 17 25  1  0  0  0  0
 17 28  2  0  0  0  0
 18 30  2  0  0  0  0
 18 31  1  0  0  0  0
 19 32  1  0  0  0  0
 20 35  1  0  0  0  0
 21 32  1  0  0  0  0
 21 33  2  0  0  0  0
 21 34  1  0  0  0  0
 22 24  2  0  0  0  0
 22 40  1  0  0  0  0
 23 25  2  0  0  0  0
 23 41  1  0  0  0  0
 24 49  1  0  0  0  0
 25 42  1  0  0  0  0
 26 57  1  0  0  0  0
 27 77  1  0  0  0  0
 28 78  1  0  0  0  0
 29 31  2  0  0  0  0
 29 77  1  0  0  0  0
 30 79  1  0  0  0  0
 31 80  1  0  0  0  0
 32 61  2  0  0  0  0
 33 62  1  0  0  0  0
 33 65  1  0  0  0  0
 34 66  1  0  0  0  0
 34 71  2  0  0  0  0
 35 72  2  0  0  0  0
 35 78  1  0  0  0  0
 36 50  1  0  0  0  0
 36 67  1  0  0  0  0
 36 73  2  0  0  0  0
 37 58  1  0  0  0  0
 37 63  1  0  0  0  0
 37 74  2  0  0  0  0
 38 59  1  0  0  0  0
 38 68  1  0  0  0  0
 38 75  2  0  0  0  0
 39 64  1  0  0  0  0
 39 69  1  0  0  0  0
 39 76  2  0  0  0  0
 40 43  1  0  0  0  0
 41 50  1  0  0  0  0
 42 63  1  0  0  0  0
 43 45  1  0  0  0  0
 44 46  1  0  0  0  0
 44 47  1  0  0  0  0
 45 49  1  0  0  0  0
 46 51  1  0  0  0  0
 47 64  1  0  0  0  0
 48 51  1  0  0  0  0
 48 64  1  0  0  0  0
 49 67  1  0  0  0  0
 50 63  1  0  0  0  0
 51 62  1  0  0  0  0
 52 59  1  0  0  0  0
 53 60  1  0  0  0  0
 54 60  1  0  0  0  0
 55 60  1  0  0  0  0
 56 70  1  0  0  0  0
 57 69  1  0  0  0  0
 58 60  1  0  0  0  0
 58 68  1  0  0  0  0
 59 70  1  0  0  0  0
 61 62  1  0  0  0  0
M  CHG  1  70   1
M  ISO  4  35 101  39 100  69 100  78 101
M  END
> <Batch ID>
0002

> <Smiles>
CNC(C)C(=O)NC(C(=O)N1Cc2cc([101O:1][101C:1](=O)c3ccc(C[100NH:0][100C:0](=O)N4CCCC(n5nc(-c6ccc(Oc7ccc(F)cc7F)cc6)c(C(N)=O)c5N)C4)cc3)ccc2CC1C(=O)NC1CCCc2ccccc21)C(C)(C)C

> <Shape>
0.255

> <Color>
0.207

> <Negative vol penalty>
0.000

$$$$

  -OEChem-04042320173D

 79 87  0     1  0  0  0  0  0999 V2000
  -30.0450  -11.7217   19.8249 C   0  0  0  0  0  0  0  0  0  0  0  0
  -30.3817  -12.9655   19.3004 C   0  0  0  0  0  0  0  0  0  0  0  0
  -30.2719  -25.0195   13.8636 C   0  0  0  0  0  0  0  0  0  0  0  0
  -23.1137  -29.4849   21.9419 C   0  0  0  0  0  0  0  0  0  0  0  0
  -22.7246  -29.3045   19.5643 C   0  0  0  0  0  0  0  0  0  0  0  0
  -28.7233  -11.4487   20.1751 C   0  0  0  0  0  0  0  0  0  0  0  0
  -29.3966  -13.9367   19.1248 C   0  0  0  0  0  0  0  0  0  0  0  0
  -30.0439  -19.9935   19.7590 C   0  0  0  0  0  0  0  0  0  0  0  0
  -30.2627  -23.9532   14.7627 C   0  0  0  0  0  0  0  0  0  0  0  0
  -30.7236  -26.2739   14.2739 C   0  0  0  0  0  0  0  0  0  0  0  0
  -21.8043  -29.9304   22.1225 C   0  0  0  0  0  0  0  0  0  0  0  0
  -21.4151  -29.7499   19.7449 C   0  0  0  0  0  0  0  0  0  0  0  0
  -30.2455  -21.0172   18.8342 C   0  0  0  0  0  0  0  0  0  0  0  0
  -18.4533  -30.7706   23.2537 C   0  0  0  0  0  0  0  0  0  0  0  0
  -17.7197  -30.2192   24.3041 C   0  0  0  0  0  0  0  0  0  0  0  0
  -27.8736  -21.4561   18.8120 C   0  0  0  0  0  0  0  0  0  0  0  0
  -31.1566  -25.3955   16.4825 C   0  0  0  0  0  0  0  0  0  0  0  0
  -17.9763  -28.0230   23.3303 C   0  0  0  0  0  0  0  0  0  0  0  0
  -23.5739  -29.1720   20.6628 C   0  0  0  0  0  0  0  0  0  0  0  0
  -25.3833  -27.3810   20.5017 C   0  0  0  0  0  0  0  0  0  0  0  0
  -27.7233  -12.4204   20.0128 C   0  0  0  0  0  0  0  0  0  0  0  0
  -28.7522  -19.6857   20.2097 C   0  0  0  0  0  0  0  0  0  0  0  0
  -28.0601  -13.6760   19.4720 C   0  0  0  0  0  0  0  0  0  0  0  0
  -27.6585  -20.4298   19.7444 C   0  0  0  0  0  0  0  0  0  0  0  0
  -30.7050  -24.1412   16.0721 C   0  0  0  0  0  0  0  0  0  0  0  0
  -31.1659  -26.4619   15.5833 C   0  0  0  0  0  0  0  0  0  0  0  0
  -20.9550  -30.0628   21.0240 C   0  0  0  0  0  0  0  0  0  0  0  0
  -29.1600  -21.7468   18.3584 C   0  0  0  0  0  0  0  0  0  0  0  0
  -18.9483  -29.9483   22.2415 C   0  0  0  0  0  0  0  0  0  0  0  0
  -17.4812  -28.8454   24.3424 C   0  0  0  0  0  0  0  0  0  0  0  0
  -18.7099  -28.5745   22.2798 C   0  0  0  0  0  0  0  0  0  0  0  0
  -24.9266  -28.7124   20.4756 C   0  0  0  0  0  0  0  0  0  0  0  0
  -26.7341  -27.4769   20.2725 C   0  0  0  0  0  0  0  0  0  0  0  0
  -24.6519  -26.1663   20.7141 C   0  0  0  0  0  0  0  0  0  0  0  0
  -26.8737  -17.1261   20.0572 C   0  0  0  0  0  0  0  0  0  0  0  0
  -24.9547  -18.9021   21.9769 C   0  0  0  0  0  0  0  0  0  0  0  0
  -24.0107  -21.9952   23.0671 C   0  0  0  0  0  0  0  0  0  0  0  0
  -30.9525  -29.6679   17.3252 C   0  0  0  0  0  0  0  0  0  0  0  0
  -26.3002  -12.0629   20.3615 C   0  0  0  0  0  0  0  0  0  0  0  0
  -28.5545  -18.5961   21.2276 C   0  0  0  0  0  0  0  0  0  0  0  0
  -26.2540  -20.1523   20.2122 C   0  0  0  0  0  0  0  0  0  0  0  0
  -25.3824  -13.2755   20.4938 C   0  0  0  0  0  0  0  0  0  0  0  0
  -29.7995  -31.4896   20.2151 C   0  0  0  0  0  0  0  0  0  0  0  0
  -25.5870  -14.2302   19.3219 C   0  0  0  0  0  0  0  0  0  0  0  0
  -28.4472  -30.8443   20.5157 C   0  0  0  0  0  0  0  0  0  0  0  0
  -30.0797  -31.5281   18.7163 C   0  0  0  0  0  0  0  0  0  0  0  0
  -28.6440  -29.5372   18.3530 C   0  0  0  0  0  0  0  0  0  0  0  0
  -27.0242  -14.7640   19.2897 C   0  0  1  0  0  0  0  0  0  0  0  0
  -27.1382  -18.0292   21.2285 C   0  0  1  0  0  0  0  0  0  0  0  0
  -28.3395  -29.4566   19.8588 C   0  0  2  0  0  0  0  0  0  0  0  0
  -22.3898  -23.1299   24.6107 C   0  0  0  0  0  0  0  0  0  0  0  0
  -22.7067  -18.4117   19.9729 C   0  0  0  0  0  0  0  0  0  0  0  0
  -21.4433  -20.2942   21.0351 C   0  0  0  0  0  0  0  0  0  0  0  0
  -22.0155  -18.2674   22.3720 C   0  0  0  0  0  0  0  0  0  0  0  0
  -26.1936  -23.1754   24.6798 C   0  0  0  0  0  0  0  0  0  0  0  0
  -30.6961  -22.9932   17.0383 C   0  0  0  0  0  0  0  0  0  1  0  0
  -31.6482  -27.8034   16.0221 C   0  0  0  0  0  0  0  0  0  0  0  0
  -23.8439  -19.8991   21.7507 C   0  0  1  0  0  0  0  0  0  0  0  0
  -23.7862  -22.5458   24.4639 C   0  0  2  0  0  0  0  0  0  0  0  0
  -22.5285  -19.2223   21.2722 C   0  0  0  0  0  0  0  0  0  0  0  0
  -25.9077  -29.5897   20.2480 N   0  0  0  0  0  0  0  0  0  0  0  0
  -26.9943  -28.8080   20.1290 N   0  0  0  0  0  0  0  0  0  0  0  0
  -26.1115  -19.0730   21.2033 N   0  0  0  0  0  0  0  0  0  0  0  0
  -29.9310  -30.2028   18.1163 N   0  0  0  0  0  0  0  0  0  0  0  0
  -27.7129  -26.5516   20.1818 N   0  0  0  0  0  0  0  0  0  0  0  0
  -23.2703  -26.2482   20.9348 N   0  0  0  0  0  0  0  0  0  0  0  0
  -27.2001  -15.8023   20.2824 N   0  0  0  0  0  0  0  0  0  0  0  0
  -23.7111  -20.6513   22.9936 N   0  0  0  0  0  0  0  0  0  0  0  0
  -24.7777  -23.6171   24.7639 N   0  3  0  0  0  0  0  0  0  0  0  0
  -25.2098  -25.0428   20.7247 O   0  0  0  0  0  0  0  0  0  0  0  0
  -26.4067  -17.5952   19.0259 O   0  0  0  0  0  0  0  0  0  0  0  0
  -24.8044  -18.0091   22.8145 O   0  0  0  0  0  0  0  0  0  0  0  0
  -24.4082  -22.6888   22.1336 O   0  0  0  0  0  0  0  0  0  0  0  0
  -32.0120  -30.2422   17.0802 O   0  0  0  0  0  0  0  0  0  0  0  0
  -19.6771  -30.4972   21.1998 O   0  0  0  0  0  0  0  0  0  0  0  0
  -29.3540  -22.7461   17.4552 O   0  0  0  0  0  0  0  0  0  1  0  0
  -30.6508  -28.4217   16.8433 O   0  0  0  0  0  0  0  0  0  0  0  0
  -16.7780  -28.3157   25.3519 F   0  0  0  0  0  0  0  0  0  0  0  0
  -19.1839  -27.7793   21.3109 F   0  0  0  0  0  0  0  0  0  0  0  0
  1  2  1  0  0  0  0
  1  6  2  0  0  0  0
  2  7  2  0  0  0  0
  3  9  2  0  0  0  0
  3 10  1  0  0  0  0
  4 11  2  0  0  0  0
  4 19  1  0  0  0  0
  5 12  1  0  0  0  0
  5 19  2  0  0  0  0
  6 21  1  0  0  0  0
  7 23  1  0  0  0  0
  8 13  2  0  0  0  0
  8 22  1  0  0  0  0
  9 25  1  0  0  0  0
 10 26  2  0  0  0  0
 11 27  1  0  0  0  0
 12 27  2  0  0  0  0
 13 28  1  0  0  0  0
 14 15  2  0  0  0  0
 14 29  1  0  0  0  0
 15 30  1  0  0  0  0
 16 24  1  0  0  0  0
 16 28  2  0  0  0  0
 17 25  2  0  0  0  0
 17 26  1  0  0  0  0
 18 30  2  0  0  0  0
 18 31  1  0  0  0  0
 19 32  1  0  0  0  0
 20 32  1  0  0  0  0
 20 33  2  0  0  0  0
 20 34  1  0  0  0  0
 21 23  2  0  0  0  0
 21 39  1  0  0  0  0
 22 24  2  0  0  0  0
 22 40  1  0  0  0  0
 23 48  1  0  0  0  0
 24 41  1  0  0  0  0
 25 56  1  0  0  0  0
 26 57  1  0  0  0  0
 27 75  1  0  0  0  0
 28 76  1  0  0  0  0
 29 31  2  0  0  0  0
 29 75  1  0  0  0  0
 30 78  1  0  0  0  0
 31 79  1  0  0  0  0
 32 61  2  0  0  0  0
 33 62  1  0  0  0  0
 33 65  1  0  0  0  0
 34 66  1  0  0  0  0
 34 70  2  0  0  0  0
 35 49  1  0  0  0  0
 35 67  1  0  0  0  0
 35 71  2  0  0  0  0
 36 58  1  0  0  0  0
 36 63  1  0  0  0  0
 36 72  2  0  0  0  0
 37 59  1  0  0  0  0
 37 68  1  0  0  0  0
 37 73  2  0  0  0  0
 38 64  1  0  0  0  0
 38 74  2  0  0  0  0
 38 77  1  0  0  0  0
 39 42  1  0  0  0  0
 40 49  1  0  0  0  0
 41 63  1  0  0  0  0
 42 44  1  0  0  0  0
 43 45  1  0  0  0  0
 43 46  1  0  0  0  0
 44 48  1  0  0  0  0
 45 50  1  0  0  0  0
 46 64  1  0  0  0  0
 47 50  1  0  0  0  0
 47 64  1  0  0  0  0
 48 67  1  0  0  0  0
 49 63  1  0  0  0  0
 50 62  1  0  0  0  0
 51 59  1  0  0  0  0
 52 60  1  0  0  0  0
 53 60  1  0  0  0  0
 54 60  1  0  0  0  0
 55 69  1  0  0  0  0
 56 76  1  0  0  0  0
 57 77  1  0  0  0  0
 58 60  1  0  0  0  0
 58 68  1  0  0  0  0
 59 69  1  0  0  0  0
 61 62  1  0  0  0  0
M  CHG  1  69   1
M  ISO  4  38 100  56 101  76 101  77 100
M  END
> <Batch ID>
0002

> <Smiles>
CNC(C)C(=O)NC(C(=O)N1Cc2cc([101O:1][101CH2:1]c3cccc(C[100O:0][100C:0](=O)N4CCCC(n5nc(-c6ccc(Oc7ccc(F)cc7F)cc6)c(C(N)=O)c5N)C4)c3)ccc2CC1C(=O)NC1CCCc2ccccc21)C(C)(C)C

> <Shape>
0.203

> <Color>
0.072

> <Negative vol penalty>
0.000

$$$$

  -OEChem-04042320173D

 82 90  0     1  0  0  0  0  0999 V2000
  -22.3666  -23.8065   21.0655 C   0  0  0  0  0  0  0  0  0  0  0  0
  -23.5674  -23.1096   21.1543 C   0  0  0  0  0  0  0  0  0  0  0  0
  -22.6822  -29.4975   21.0161 C   0  0  0  0  0  0  0  0  0  0  0  0
  -24.0059  -29.0653   22.9904 C   0  0  0  0  0  0  0  0  0  0  0  0
  -21.1823  -23.2099   21.4961 C   0  0  0  0  0  0  0  0  0  0  0  0
  -23.5848  -21.8162   21.6749 C   0  0  0  0  0  0  0  0  0  0  0  0
  -26.4108  -18.6483   18.9138 C   0  0  0  0  0  0  0  0  0  0  0  0
  -32.7056  -24.1164   22.8826 C   0  0  0  0  0  0  0  0  0  0  0  0
  -31.6937  -24.6266   22.0694 C   0  0  0  0  0  0  0  0  0  0  0  0
  -21.5860  -29.8110   21.8197 C   0  0  0  0  0  0  0  0  0  0  0  0
  -22.9097  -29.3788   23.7940 C   0  0  0  0  0  0  0  0  0  0  0  0
  -27.7936  -18.7239   19.0747 C   0  0  0  0  0  0  0  0  0  0  0  0
  -18.3345  -30.3771   23.3464 C   0  0  0  0  0  0  0  0  0  0  0  0
  -17.0952  -29.8443   22.9919 C   0  0  0  0  0  0  0  0  0  0  0  0
  -27.7230  -16.8023   20.5313 C   0  0  0  0  0  0  0  0  0  0  0  0
  -31.2566  -22.4071   21.2208 C   0  0  0  0  0  0  0  0  0  0  0  0
  -17.9882  -27.6116   23.2257 C   0  0  0  0  0  0  0  0  0  0  0  0
  -23.8922  -29.1247   21.6015 C   0  0  0  0  0  0  0  0  0  0  0  0
  -26.0148  -29.6835   20.3017 C   0  0  0  0  0  0  0  0  0  0  0  0
  -21.1837  -21.9049   22.0133 C   0  0  0  0  0  0  0  0  0  0  0  0
  -25.6711  -17.6542   19.5703 C   0  0  0  0  0  0  0  0  0  0  0  0
  -22.3996  -21.2021   22.1142 C   0  0  0  0  0  0  0  0  0  0  0  0
  -26.3312  -16.7147   20.3751 C   0  0  0  0  0  0  0  0  0  0  0  0
  -32.9931  -22.7516   22.8649 C   0  0  0  0  0  0  0  0  0  0  0  0
  -32.2686  -21.8970   22.0340 C   0  0  0  0  0  0  0  0  0  0  0  0
  -30.9692  -23.7720   21.2386 C   0  0  0  0  0  0  0  0  0  0  0  0
  -21.6998  -29.7516   23.2086 C   0  0  0  0  0  0  0  0  0  0  0  0
  -28.4495  -17.8025   19.8858 C   0  0  0  0  0  0  0  0  0  0  0  0
  -19.4008  -29.5272   23.6405 C   0  0  0  0  0  0  0  0  0  0  0  0
  -16.9220  -28.4615   22.9316 C   0  0  0  0  0  0  0  0  0  0  0  0
  -19.2276  -28.1444   23.5802 C   0  0  0  0  0  0  0  0  0  0  0  0
  -25.0247  -28.8002   20.7719 C   0  0  0  0  0  0  0  0  0  0  0  0
  -26.8592  -28.8911   19.5631 C   0  0  0  0  0  0  0  0  0  0  0  0
  -26.1585  -31.0943   20.5136 C   0  0  0  0  0  0  0  0  0  0  0  0
  -23.3515  -17.6511   21.7437 C   0  0  0  0  0  0  0  0  0  0  0  0
  -23.3445  -14.4596   21.1638 C   0  0  0  0  0  0  0  0  0  0  0  0
  -25.0448  -11.7097   20.0712 C   0  0  0  0  0  0  0  0  0  0  0  0
  -29.1263  -23.5789   19.5319 C   0  0  0  0  0  0  0  0  0  0  0  0
  -19.8855  -21.3195   22.5100 C   0  0  0  0  0  0  0  0  0  0  0  0
  -24.1834  -17.5699   19.3651 C   0  0  0  0  0  0  0  0  0  0  0  0
  -25.5856  -15.6158   21.0856 C   0  0  0  0  0  0  0  0  0  0  0  0
  -19.9338  -19.8059   22.7018 C   0  0  0  0  0  0  0  0  0  0  0  0
  -26.4576  -24.4815   17.3546 C   0  0  0  0  0  0  0  0  0  0  0  0
  -21.2027  -19.4023   23.4460 C   0  0  0  0  0  0  0  0  0  0  0  0
  -25.9117  -25.7736   17.9665 C   0  0  0  0  0  0  0  0  0  0  0  0
  -26.9019  -23.4892   18.4278 C   0  0  0  0  0  0  0  0  0  0  0  0
  -27.2982  -25.3183   20.0299 C   0  0  0  0  0  0  0  0  0  0  0  0
  -22.4554  -19.7880   22.6501 C   0  0  1  0  0  0  0  0  0  0  0  0
  -23.4660  -16.8305   20.4902 C   0  0  1  0  0  0  0  0  0  0  0  0
  -26.8982  -26.3747   18.9869 C   0  0  2  0  0  0  0  0  0  0  0  0
  -34.0816  -22.2287   23.7438 C   0  0  0  0  0  0  0  0  0  0  0  0
  -24.7888   -9.2340   19.7507 C   0  0  0  0  0  0  0  0  0  0  0  0
  -23.6671  -14.0396   24.1687 C   0  0  0  0  0  0  0  0  0  0  0  0
  -24.3502  -11.6780   23.6948 C   0  0  0  0  0  0  0  0  0  0  0  0
  -22.0699  -12.4660   23.0610 C   0  0  0  0  0  0  0  0  0  0  0  0
  -25.4862  -11.9247   17.1527 C   0  0  0  0  0  0  0  0  0  0  0  0
  -32.5588  -20.4254   21.9998 C   0  0  0  0  0  0  0  0  0  0  0  0
  -31.6284  -18.1453   21.5823 C   0  0  0  0  0  0  0  0  0  0  0  0
  -30.3317  -17.4173   21.2876 C   0  0  0  0  0  0  0  0  0  1  0  0
  -24.0702  -13.2670   21.7383 C   0  0  1  0  0  0  0  0  0  0  0  0
  -24.6584  -10.6046   19.1048 C   0  0  2  0  0  0  0  0  0  0  0  0
  -23.5534  -12.8844   23.1540 C   0  0  0  0  0  0  0  0  0  0  0  0
  -25.2205  -27.5429   20.3660 N   0  0  0  0  0  0  0  0  0  0  0  0
  -26.3434  -27.6304   19.6328 N   0  0  0  0  0  0  0  0  0  0  0  0
  -24.1314  -15.5791   20.8585 N   0  0  0  0  0  0  0  0  0  0  0  0
  -27.8383  -24.1273   19.3556 N   0  0  0  0  0  0  0  0  0  0  0  0
  -27.9851  -29.1566   18.8672 N   0  0  0  0  0  0  0  0  0  0  0  0
  -25.2020  -31.7529   21.2982 N   0  0  0  0  0  0  0  0  0  0  0  0
  -29.9398  -24.2895   20.4138 N   0  0  0  0  0  0  0  0  0  0  0  0
  -22.6800  -18.8469   21.5739 N   0  0  0  0  0  0  0  0  0  0  0  0
  -23.9496  -12.2007   20.7499 N   0  0  0  0  0  0  0  0  0  0  0  0
  -25.5338  -10.6412   17.8993 N   0  3  0  0  0  0  0  0  0  0  0  0
  -31.3607  -19.6022   21.6823 N   0  3  0  0  0  0  0  0  0  0  0  0
  -27.0979  -31.7543   20.0083 O   0  0  0  0  0  0  0  0  0  0  0  0
  -23.8353  -17.2300   22.7878 O   0  0  0  0  0  0  0  0  0  0  0  0
  -22.1255  -14.3975   20.9856 O   0  0  0  0  0  0  0  0  0  0  0  0
  -26.2030  -12.0959   20.2129 O   0  0  0  0  0  0  0  0  0  0  0  0
  -29.4908  -22.5697   18.9231 O   0  0  0  0  0  0  0  0  0  0  0  0
  -20.6304  -30.0577   23.9930 O   0  0  0  0  0  0  0  0  0  0  0  0
  -29.7991  -17.8744   20.0451 O   0  0  0  0  0  0  0  0  0  1  0  0
  -15.7313  -27.9500   22.5927 F   0  0  0  0  0  0  0  0  0  0  0  0
  -20.2479  -27.3228   23.8627 F   0  0  0  0  0  0  0  0  0  0  0  0
  1  2  1  0  0  0  0
  1  5  2  0  0  0  0
  2  6  2  0  0  0  0
  3 10  2  0  0  0  0
  3 18  1  0  0  0  0
  4 11  1  0  0  0  0
  4 18  2  0  0  0  0
  5 20  1  0  0  0  0
  6 22  1  0  0  0  0
  7 12  2  0  0  0  0
  7 21  1  0  0  0  0
  8  9  2  0  0  0  0
  8 24  1  0  0  0  0
  9 26  1  0  0  0  0
 10 27  1  0  0  0  0
 11 27  2  0  0  0  0
 12 28  1  0  0  0  0
 13 14  2  0  0  0  0
 13 29  1  0  0  0  0
 14 30  1  0  0  0  0
 15 23  1  0  0  0  0
 15 28  2  0  0  0  0
 16 25  1  0  0  0  0
 16 26  2  0  0  0  0
 17 30  2  0  0  0  0
 17 31  1  0  0  0  0
 18 32  1  0  0  0  0
 19 32  1  0  0  0  0
 19 33  2  0  0  0  0
 19 34  1  0  0  0  0
 20 22  2  0  0  0  0
 20 39  1  0  0  0  0
 21 23  2  0  0  0  0
 21 40  1  0  0  0  0
 22 48  1  0  0  0  0
 23 41  1  0  0  0  0
 24 25  2  0  0  0  0
 24 51  1  0  0  0  0
 25 57  1  0  0  0  0
 26 69  1  0  0  0  0
 27 79  1  0  0  0  0
 28 80  1  0  0  0  0
 29 31  2  0  0  0  0
 29 79  1  0  0  0  0
 30 81  1  0  0  0  0
 31 82  1  0  0  0  0
 32 63  2  0  0  0  0
 33 64  1  0  0  0  0
 33 67  1  0  0  0  0
 34 68  1  0  0  0  0
 34 74  2  0  0  0  0
 35 49  1  0  0  0  0
 35 70  1  0  0  0  0
 35 75  2  0  0  0  0
 36 60  1  0  0  0  0
 36 65  1  0  0  0  0
 36 76  2  0  0  0  0
 37 61  1  0  0  0  0
 37 71  1  0  0  0  0
 37 77  2  0  0  0  0
 38 66  1  0  0  0  0
 38 69  1  0  0  0  0
 38 78  2  0  0  0  0
 39 42  1  0  0  0  0
 40 49  1  0  0  0  0
 41 65  1  0  0  0  0
 42 44  1  0  0  0  0
 43 45  1  0  0  0  0
 43 46  1  0  0  0  0
 44 48  1  0  0  0  0
 45 50  1  0  0  0  0
 46 66  1  0  0  0  0
 47 50  1  0  0  0  0
 47 66  1  0  0  0  0
 48 70  1  0  0  0  0
 49 65  1  0  0  0  0
 50 64  1  0  0  0  0
 52 61  1  0  0  0  0
 53 62  1  0  0  0  0
 54 62  1  0  0  0  0
 55 62  1  0  0  0  0
 56 72  1  0  0  0  0
 57 73  1  0  0  0  0
 58 59  1  0  0  0  0
 58 73  1  0  0  0  0
 59 80  1  0  0  0  0
 60 62  1  0  0  0  0
 60 71  1  0  0  0  0
 61 72  1  0  0  0  0
 63 64  1  0  0  0  0
M  CHG  2  72   1  73   1
M  ISO  4  38 100  59 101  69 100  80 101
M  END
> <Batch ID>
0002

> <Smiles>
CNC(C)C(=O)NC(C(=O)N1Cc2cc([101O:1][101CH2:1]CNCc3cc([100NH:0][100C:0](=O)N4CCCC(n5nc(-c6ccc(Oc7ccc(F)cc7F)cc6)c(C(N)=O)c5N)C4)ccc3C)ccc2CC1C(=O)NC1CCCc2ccccc21)C(C)(C)C

> <Shape>
0.225

> <Color>
0.088

> <Negative vol penalty>
0.000

$$$$

  -OEChem-04042320173D

 75 82  0     1  0  0  0  0  0999 V2000
  -21.6576  -26.0082   22.2550 C   0  0  0  0  0  0  0  0  0  0  0  0
  -22.5356  -24.9529   22.0299 C   0  0  0  0  0  0  0  0  0  0  0  0
  -23.8221  -10.0103   22.1423 C   0  0  0  0  0  0  0  0  0  0  0  0
  -24.3934  -11.4271   24.0141 C   0  0  0  0  0  0  0  0  0  0  0  0
  -22.0394  -27.3110   21.9374 C   0  0  0  0  0  0  0  0  0  0  0  0
  -23.7956  -25.1996   21.4859 C   0  0  0  0  0  0  0  0  0  0  0  0
  -27.4742  -22.6745   23.8810 C   0  0  0  0  0  0  0  0  0  0  0  0
  -23.3018   -9.0598   23.0206 C   0  0  0  0  0  0  0  0  0  0  0  0
  -23.8731  -10.4766   24.8924 C   0  0  0  0  0  0  0  0  0  0  0  0
  -27.6174  -21.3207   23.5801 C   0  0  0  0  0  0  0  0  0  0  0  0
  -24.8491   -7.5351   26.2437 C   0  0  0  0  0  0  0  0  0  0  0  0
  -25.5983   -7.2219   27.3778 C   0  0  0  0  0  0  0  0  0  0  0  0
  -29.4494  -21.8491   22.1024 C   0  0  0  0  0  0  0  0  0  0  0  0
  -23.7739   -7.9504   28.7842 C   0  0  0  0  0  0  0  0  0  0  0  0
  -24.3679  -11.1940   22.6391 C   0  0  0  0  0  0  0  0  0  0  0  0
  -24.2169  -13.2470   21.1323 C   0  0  0  0  0  0  0  0  0  0  0  0
  -23.3083  -27.5750   21.3982 C   0  0  0  0  0  0  0  0  0  0  0  0
  -28.3119  -23.6285   23.2855 C   0  0  0  0  0  0  0  0  0  0  0  0
  -24.1942  -26.5070   21.1594 C   0  0  0  0  0  0  0  0  0  0  0  0
  -29.3165  -23.2141   22.3994 C   0  0  0  0  0  0  0  0  0  0  0  0
  -23.3273   -9.2929   24.3956 C   0  0  0  0  0  0  0  0  0  0  0  0
  -28.6032  -20.9081   22.6885 C   0  0  0  0  0  0  0  0  0  0  0  0
  -23.5623   -8.0560   26.3798 C   0  0  0  0  0  0  0  0  0  0  0  0
  -25.0607   -7.4295   28.6481 C   0  0  0  0  0  0  0  0  0  0  0  0
  -23.0247   -8.2636   27.6500 C   0  0  0  0  0  0  0  0  0  0  0  0
  -24.9060  -12.1760   21.7323 C   0  0  0  0  0  0  0  0  0  0  0  0
  -25.1651  -13.8790   20.3656 C   0  0  0  0  0  0  0  0  0  0  0  0
  -22.8425  -13.6357   21.2570 C   0  0  0  0  0  0  0  0  0  0  0  0
  -27.8632  -26.1195   21.3628 C   0  0  0  0  0  0  0  0  0  0  0  0
  -31.0302  -26.5937   21.8798 C   0  0  0  0  0  0  0  0  0  0  0  0
  -34.0557  -25.2690   22.7393 C   0  0  0  0  0  0  0  0  0  0  0  0
  -31.1355  -14.1863   20.6987 C   0  0  0  0  0  0  0  0  0  0  0  0
  -23.6583  -28.9942   21.0268 C   0  0  0  0  0  0  0  0  0  0  0  0
  -28.1620  -25.0822   23.6411 C   0  0  0  0  0  0  0  0  0  0  0  0
  -30.2547  -24.1964   21.7488 C   0  0  0  0  0  0  0  0  0  0  0  0
  -25.1521  -29.2144   20.8024 C   0  0  0  0  0  0  0  0  0  0  0  0
  -29.2021  -13.0226   17.9448 C   0  0  0  0  0  0  0  0  0  0  0  0
  -25.7287  -28.1085   19.9240 C   0  0  0  0  0  0  0  0  0  0  0  0
  -27.8196  -12.7703   18.5491 C   0  0  0  0  0  0  0  0  0  0  0  0
  -30.3192  -12.6648   18.9225 C   0  0  0  0  0  0  0  0  0  0  0  0
  -28.8331  -13.0581   20.8488 C   0  0  0  0  0  0  0  0  0  0  0  0
  -25.5789  -26.7373   20.5939 C   0  0  1  0  0  0  0  0  0  0  0  0
  -28.7355  -26.0186   22.5820 C   0  0  1  0  0  0  0  0  0  0  0  0
  -27.6733  -13.4569   19.9203 C   0  0  2  0  0  0  0  0  0  0  0  0
  -36.4673  -25.8955   23.0376 C   0  0  0  0  0  0  0  0  0  0  0  0
  -31.3900  -26.6419   18.8502 C   0  0  0  0  0  0  0  0  0  0  0  0
  -33.8462  -26.3127   19.2065 C   0  0  0  0  0  0  0  0  0  0  0  0
  -32.7232  -28.3590   20.0866 C   0  0  0  0  0  0  0  0  0  0  0  0
  -34.0184  -24.5131   25.6005 C   0  0  0  0  0  0  0  0  0  0  0  0
  -31.6127  -17.1488   22.1275 C   0  0  0  0  0  0  0  0  0  0  0  0
  -30.2124  -17.6705   22.4514 C   0  0  0  0  0  0  0  0  0  0  0  0
  -31.8074  -15.6961   22.5503 C   0  0  0  0  0  0  0  0  0  0  0  0
  -30.0554  -19.1337   22.0572 C   0  0  0  0  0  0  0  0  0  1  0  0
  -32.3032  -26.1339   21.2112 C   0  0  1  0  0  0  0  0  0  0  0  0
  -35.1174  -25.7346   23.7193 C   0  0  2  0  0  0  0  0  0  0  0  0
  -32.5469  -26.8433   19.8492 C   0  0  0  0  0  0  0  0  0  0  0  0
  -26.1927  -12.1272   21.3772 N   0  0  0  0  0  0  0  0  0  0  0  0
  -26.3196  -13.1754   20.5457 N   0  0  0  0  0  0  0  0  0  0  0  0
  -30.0641  -25.6073   22.1236 N   0  0  0  0  0  0  0  0  0  0  0  0
  -30.1222  -13.3497   20.2023 N   0  0  0  0  0  0  0  0  0  0  0  0
  -25.1157  -14.9623   19.5616 N   0  0  0  0  0  0  0  0  0  0  0  0
  -22.0059  -12.8763   22.0863 N   0  0  0  0  0  0  0  0  0  0  0  0
  -26.5815  -26.5654   21.6233 N   0  0  0  0  0  0  0  0  0  0  0  0
  -33.3704  -26.3301   22.1864 N   0  0  0  0  0  0  0  0  0  0  0  0
  -30.8653  -14.8020   21.9147 N   0  0  0  0  0  0  0  0  0  0  0  0
  -35.2654  -24.7508   24.8288 N   0  3  0  0  0  0  0  0  0  0  0  0
  -22.3663  -14.6175   20.6382 O   0  0  0  0  0  0  0  0  0  0  0  0
  -28.3196  -25.8167   20.2665 O   0  0  0  0  0  0  0  0  0  0  0  0
  -30.9009  -27.7828   22.1813 O   0  0  0  0  0  0  0  0  0  0  0  0
  -33.8568  -24.0828   22.4866 O   0  0  0  0  0  0  0  0  0  0  0  0
  -32.1998  -14.3751   20.0998 O   0  0  0  0  0  0  0  0  0  0  0  0
  -22.8195   -8.3657   25.2529 O   0  0  0  0  0  0  0  0  0  0  0  0
  -28.7447  -19.5874   22.3925 O   0  0  0  0  0  0  0  0  0  1  0  0
  -25.7797   -7.1273   29.7370 F   0  0  0  0  0  0  0  0  0  0  0  0
  -21.7886   -8.7626   27.7871 F   0  0  0  0  0  0  0  0  0  0  0  0
  1  2  1  0  0  0  0
  1  5  2  0  0  0  0
  2  6  2  0  0  0  0
  3  8  2  0  0  0  0
  3 15  1  0  0  0  0
  4  9  1  0  0  0  0
  4 15  2  0  0  0  0
  5 17  1  0  0  0  0
  6 19  1  0  0  0  0
  7 10  2  0  0  0  0
  7 18  1  0  0  0  0
  8 21  1  0  0  0  0
  9 21  2  0  0  0  0
 10 22  1  0  0  0  0
 11 12  2  0  0  0  0
 11 23  1  0  0  0  0
 12 24  1  0  0  0  0
 13 20  1  0  0  0  0
 13 22  2  0  0  0  0
 14 24  2  0  0  0  0
 14 25  1  0  0  0  0
 15 26  1  0  0  0  0
 16 26  1  0  0  0  0
 16 27  2  0  0  0  0
 16 28  1  0  0  0  0
 17 19  2  0  0  0  0
 17 33  1  0  0  0  0
 18 20  2  0  0  0  0
 18 34  1  0  0  0  0
 19 42  1  0  0  0  0
 20 35  1  0  0  0  0
 21 72  1  0  0  0  0
 22 73  1  0  0  0  0
 23 25  2  0  0  0  0
 23 72  1  0  0  0  0
 24 74  1  0  0  0  0
 25 75  1  0  0  0  0
 26 57  2  0  0  0  0
 27 58  1  0  0  0  0
 27 61  1  0  0  0  0
 28 62  1  0  0  0  0
 28 67  2  0  0  0  0
 29 43  1  0  0  0  0
 29 63  1  0  0  0  0
 29 68  2  0  0  0  0
 30 54  1  0  0  0  0
 30 59  1  0  0  0  0
 30 69  2  0  0  0  0
 31 55  1  0  0  0  0
 31 64  1  0  0  0  0
 31 70  2  0  0  0  0
 32 60  1  0  0  0  0
 32 65  1  0  0  0  0
 32 71  2  0  0  0  0
 33 36  1  0  0  0  0
 34 43  1  0  0  0  0
 35 59  1  0  0  0  0
 36 38  1  0  0  0  0
 37 39  1  0  0  0  0
 37 40  1  0  0  0  0
 38 42  1  0  0  0  0
 39 44  1  0  0  0  0
 40 60  1  0  0  0  0
 41 44  1  0  0  0  0
 41 60  1  0  0  0  0
 42 63  1  0  0  0  0
 43 59  1  0  0  0  0
 44 58  1  0  0  0  0
 45 55  1  0  0  0  0
 46 56  1  0  0  0  0
 47 56  1  0  0  0  0
 48 56  1  0  0  0  0
 49 66  1  0  0  0  0
 50 51  1  0  0  0  0
 50 52  1  0  0  0  0
 51 53  1  0  0  0  0
 52 65  1  0  0  0  0
 53 73  1  0  0  0  0
 54 56  1  0  0  0  0
 54 64  1  0  0  0  0
 55 66  1  0  0  0  0
 57 58  1  0  0  0  0
M  CHG  1  66   1
M  ISO  4  32 100  53 101  65 100  73 101
M  END
> <Batch ID>
0002

> <Smiles>
CNC(C)C(=O)NC(C(=O)N1Cc2cc([101O:1][101CH2:1]CCC[100NH:0][100C:0](=O)N3CCCC(n4nc(-c5ccc(Oc6ccc(F)cc6F)cc5)c(C(N)=O)c4N)C3)ccc2CC1C(=O)NC1CCCc2ccccc21)C(C)(C)C

> <Shape>
0.193

> <Color>
0.131

> <Negative vol penalty>
0.000

$$$$

  -OEChem-04042320173D

 81 89  0     1  0  0  0  0  0999 V2000
  -17.8540  -29.6878   23.1857 C   0  0  0  0  0  0  0  0  0  0  0  0
  -19.1649  -29.7684   22.7269 C   0  0  0  0  0  0  0  0  0  0  0  0
  -31.7303  -21.4327   15.9982 C   0  0  0  0  0  0  0  0  0  0  0  0
  -26.5309  -12.8368   21.6530 C   0  0  0  0  0  0  0  0  0  0  0  0
  -26.1580  -13.8986   19.5151 C   0  0  0  0  0  0  0  0  0  0  0  0
  -17.4210  -28.5458   23.8584 C   0  0  0  0  0  0  0  0  0  0  0  0
  -20.0440  -28.7074   22.9415 C   0  0  0  0  0  0  0  0  0  0  0  0
  -24.5117  -26.8148   19.2048 C   0  0  0  0  0  0  0  0  0  0  0  0
  -31.6956  -22.8046   16.2476 C   0  0  0  0  0  0  0  0  0  0  0  0
  -31.6002  -20.5287   17.0525 C   0  0  0  0  0  0  0  0  0  0  0  0
  -25.2611  -12.2631   21.5896 C   0  0  0  0  0  0  0  0  0  0  0  0
  -24.8881  -13.3249   19.4516 C   0  0  0  0  0  0  0  0  0  0  0  0
  -25.8862  -27.0482   19.1927 C   0  0  0  0  0  0  0  0  0  0  0  0
  -23.7851   -9.6450   20.0403 C   0  0  0  0  0  0  0  0  0  0  0  0
  -23.6654   -8.2966   20.3767 C   0  0  0  0  0  0  0  0  0  0  0  0
  -26.2427  -24.9745   20.3724 C   0  0  0  0  0  0  0  0  0  0  0  0
  -31.4006  -22.3685   18.6056 C   0  0  0  0  0  0  0  0  0  0  0  0
  -22.1382   -8.8763   22.1569 C   0  0  0  0  0  0  0  0  0  0  0  0
  -26.9793  -13.6546   20.6158 C   0  0  0  0  0  0  0  0  0  0  0  0
  -29.4957  -13.7021   20.1994 C   0  0  0  0  0  0  0  0  0  0  0  0
  -18.2925  -27.4664   24.0728 C   0  0  0  0  0  0  0  0  0  0  0  0
  -23.9907  -25.6628   19.8115 C   0  0  0  0  0  0  0  0  0  0  0  0
  -19.6226  -27.5505   23.6189 C   0  0  0  0  0  0  0  0  0  0  0  0
  -24.8615  -24.7275   20.3887 C   0  0  0  0  0  0  0  0  0  0  0  0
  -31.5307  -23.2726   17.5512 C   0  0  0  0  0  0  0  0  0  0  0  0
  -31.4353  -20.9966   18.3561 C   0  0  0  0  0  0  0  0  0  0  0  0
  -24.4397  -12.5071   20.4889 C   0  0  0  0  0  0  0  0  0  0  0  0
  -26.7517  -26.1294   19.7791 C   0  0  0  0  0  0  0  0  0  0  0  0
  -23.0814  -10.6091   20.7623 C   0  0  0  0  0  0  0  0  0  0  0  0
  -22.8420   -7.9123   21.4350 C   0  0  0  0  0  0  0  0  0  0  0  0
  -22.2580  -10.2247   21.8205 C   0  0  0  0  0  0  0  0  0  0  0  0
  -28.2907  -14.2480   20.6810 C   0  0  0  0  0  0  0  0  0  0  0  0
  -30.4457  -14.6468   20.5020 C   0  0  0  0  0  0  0  0  0  0  0  0
  -29.7348  -12.4528   19.5377 C   0  0  0  0  0  0  0  0  0  0  0  0
  -22.0279  -25.1033   22.2483 C   0  0  0  0  0  0  0  0  0  0  0  0
  -22.2909  -22.0289   21.2477 C   0  0  0  0  0  0  0  0  0  0  0  0
  -24.1085  -19.6701   19.5806 C   0  0  0  0  0  0  0  0  0  0  0  0
  -31.1319  -20.3750   20.7785 C   0  0  0  0  0  0  0  0  0  0  0  0
  -17.7924  -26.2723   24.8466 C   0  0  0  0  0  0  0  0  0  0  0  0
  -22.5077  -25.4125   19.7927 C   0  0  0  0  0  0  0  0  0  0  0  0
  -24.3542  -23.4652   21.0350 C   0  0  0  0  0  0  0  0  0  0  0  0
  -18.6801  -25.0387   24.7039 C   0  0  0  0  0  0  0  0  0  0  0  0
  -30.7288  -18.4002   23.7136 C   0  0  0  0  0  0  0  0  0  0  0  0
  -20.1477  -25.4133   24.8847 C   0  0  0  0  0  0  0  0  0  0  0  0
  -30.1768  -17.0742   23.1854 C   0  0  0  0  0  0  0  0  0  0  0  0
  -30.1776  -19.5940   22.9359 C   0  0  0  0  0  0  0  0  0  0  0  0
  -29.7887  -18.1883   20.9505 C   0  0  0  0  0  0  0  0  0  0  0  0
  -20.5990  -26.4103   23.8106 C   0  0  1  0  0  0  0  0  0  0  0  0
  -22.0487  -24.4586   20.8912 C   0  0  1  0  0  0  0  0  0  0  0  0
  -30.3655  -16.9527   21.6605 C   0  0  2  0  0  0  0  0  0  0  0  0
  -24.0850  -17.2376   18.9640 C   0  0  0  0  0  0  0  0  0  0  0  0
  -23.0930  -21.3006   24.1001 C   0  0  0  0  0  0  0  0  0  0  0  0
  -23.9578  -19.1198   23.2259 C   0  0  0  0  0  0  0  0  0  0  0  0
  -21.5361  -19.6769   23.0074 C   0  0  0  0  0  0  0  0  0  0  0  0
  -24.0927  -20.2848   16.6856 C   0  0  0  0  0  0  0  0  0  0  0  0
  -31.4934  -24.7483   17.8189 C   0  0  0  0  0  0  0  0  0  0  0  0
  -30.0622  -26.7014   18.4321 C   0  0  0  0  0  0  0  0  0  0  0  0
  -28.6190  -27.0994   18.6708 C   0  0  0  0  0  0  0  0  0  1  0  0
  -23.2206  -20.8801   21.5559 C   0  0  1  0  0  0  0  0  0  0  0  0
  -23.7104  -18.6469   18.5322 C   0  0  2  0  0  0  0  0  0  0  0  0
  -22.9616  -20.2690   22.9619 C   0  0  0  0  0  0  0  0  0  0  0  0
  -28.4573  -15.4464   21.2466 N   0  0  0  0  0  0  0  0  0  0  0  0
  -29.7781  -15.6614   21.1225 N   0  0  0  0  0  0  0  0  0  0  0  0
  -22.8956  -23.2687   20.9967 N   0  0  0  0  0  0  0  0  0  0  0  0
  -30.3957  -19.4110   21.4993 N   0  0  0  0  0  0  0  0  0  0  0  0
  -31.7787  -14.7002   20.2952 N   0  0  0  0  0  0  0  0  0  0  0  0
  -28.6466  -11.6008   19.3052 N   0  0  0  0  0  0  0  0  0  0  0  0
  -31.3025  -20.0780   19.4268 N   0  0  0  0  0  0  0  0  0  0  0  0
  -20.8349  -25.7290   22.5557 N   0  0  0  0  0  0  0  0  0  0  0  0
  -23.0763  -19.9320   20.4565 N   0  0  0  0  0  0  0  0  0  0  0  0
  -24.3909  -18.9387   17.2389 N   0  3  0  0  0  0  0  0  0  0  0  0
  -30.1237  -25.2546   18.1043 N   0  3  0  0  0  0  0  0  0  0  0  0
  -30.8822  -12.0952   19.1784 O   0  0  0  0  0  0  0  0  0  0  0  0
  -23.0203  -25.0366   22.9641 O   0  0  0  0  0  0  0  0  0  0  0  0
  -21.0734  -21.8318   21.2233 O   0  0  0  0  0  0  0  0  0  0  0  0
  -25.2248  -20.1827   19.6208 O   0  0  0  0  0  0  0  0  0  0  0  0
  -31.6015  -21.3758   21.3262 O   0  0  0  0  0  0  0  0  0  0  0  0
  -23.2007  -11.9472   20.4266 O   0  0  0  0  0  0  0  0  0  0  0  0
  -28.0936  -26.3552   19.7692 O   0  0  0  0  0  0  0  0  0  1  0  0
  -22.7259   -6.6173   21.7569 F   0  0  0  0  0  0  0  0  0  0  0  0
  -21.5785  -11.1462   22.5169 F   0  0  0  0  0  0  0  0  0  0  0  0
  1  2  1  0  0  0  0
  1  6  2  0  0  0  0
  2  7  2  0  0  0  0
  3  9  2  0  0  0  0
  3 10  1  0  0  0  0
  4 11  2  0  0  0  0
  4 19  1  0  0  0  0
  5 12  1  0  0  0  0
  5 19  2  0  0  0  0
  6 21  1  0  0  0  0
  7 23  1  0  0  0  0
  8 13  2  0  0  0  0
  8 22  1  0  0  0  0
  9 25  1  0  0  0  0
 10 26  2  0  0  0  0
 11 27  1  0  0  0  0
 12 27  2  0  0  0  0
 13 28  1  0  0  0  0
 14 15  2  0  0  0  0
 14 29  1  0  0  0  0
 15 30  1  0  0  0  0
 16 24  1  0  0  0  0
 16 28  2  0  0  0  0
 17 25  2  0  0  0  0
 17 26  1  0  0  0  0
 18 30  2  0  0  0  0
 18 31  1  0  0  0  0
 19 32  1  0  0  0  0
 20 32  1  0  0  0  0
 20 33  2  0  0  0  0
 20 34  1  0  0  0  0
 21 23  2  0  0  0  0
 21 39  1  0  0  0  0
 22 24  2  0  0  0  0
 22 40  1  0  0  0  0
 23 48  1  0  0  0  0
 24 41  1  0  0  0  0
 25 56  1  0  0  0  0
 26 68  1  0  0  0  0
 27 78  1  0  0  0  0
 28 79  1  0  0  0  0
 29 31  2  0  0  0  0
 29 78  1  0  0  0  0
 30 80  1  0  0  0  0
 31 81  1  0  0  0  0
 32 62  2  0  0  0  0
 33 63  1  0  0  0  0
 33 66  1  0  0  0  0
 34 67  1  0  0  0  0
 34 73  2  0  0  0  0
 35 49  1  0  0  0  0
 35 69  1  0  0  0  0
 35 74  2  0  0  0  0
 36 59  1  0  0  0  0
 36 64  1  0  0  0  0
 36 75  2  0  0  0  0
 37 60  1  0  0  0  0
 37 70  1  0  0  0  0
 37 76  2  0  0  0  0
 38 65  1  0  0  0  0
 38 68  1  0  0  0  0
 38 77  2  0  0  0  0
 39 42  1  0  0  0  0
 40 49  1  0  0  0  0
 41 64  1  0  0  0  0
 42 44  1  0  0  0  0
 43 45  1  0  0  0  0
 43 46  1  0  0  0  0
 44 48  1  0  0  0  0
 45 50  1  0  0  0  0
 46 65  1  0  0  0  0
 47 50  1  0  0  0  0
 47 65  1  0  0  0  0
 48 69  1  0  0  0  0
 49 64  1  0  0  0  0
 50 63  1  0  0  0  0
 51 60  1  0  0  0  0
 52 61  1  0  0  0  0
 53 61  1  0  0  0  0
 54 61  1  0  0  0  0
 55 71  1  0  0  0  0
 56 72  1  0  0  0  0
 57 58  1  0  0  0  0
 57 72  1  0  0  0  0
 58 79  1  0  0  0  0
 59 61  1  0  0  0  0
 59 70  1  0  0  0  0
 60 71  1  0  0  0  0
 62 63  1  0  0  0  0
M  CHG  2  71   1  72   1
M  ISO  4  38 100  58 101  68 100  79 101
M  END
> <Batch ID>
0002

> <Smiles>
CNC(C)C(=O)NC(C(=O)N1Cc2cc([101O:1][101CH2:1]CNCc3cccc([100NH:0][100C:0](=O)N4CCCC(n5nc(-c6ccc(Oc7ccc(F)cc7F)cc6)c(C(N)=O)c5N)C4)c3)ccc2CC1C(=O)NC1CCCc2ccccc21)C(C)(C)C

> <Shape>
0.226

> <Color>
0.070

> <Negative vol penalty>
0.000

$$$$

  -OEChem-04042320173D

 90 98  0     1  0  0  0  0  0999 V2000
  -17.5016  -29.0523   25.3592 C   0  0  0  0  0  0  0  0  0  0  0  0
  -18.8051  -28.9187   25.8263 C   0  0  0  0  0  0  0  0  0  0  0  0
  -31.1845  -22.1407   20.1038 C   0  0  0  0  0  0  0  0  0  0  0  0
  -25.6751  -13.7224   21.6961 C   0  0  0  0  0  0  0  0  0  0  0  0
  -26.5341  -13.6236   19.4401 C   0  0  0  0  0  0  0  0  0  0  0  0
  -17.2050  -28.7556   24.0295 C   0  0  0  0  0  0  0  0  0  0  0  0
  -19.8127  -28.4873   24.9643 C   0  0  0  0  0  0  0  0  0  0  0  0
  -25.6778  -30.2500   24.9824 C   0  0  0  0  0  0  0  0  0  0  0  0
  -30.7847  -21.9831   21.4308 C   0  0  0  0  0  0  0  0  0  0  0  0
  -30.3706  -22.8338   19.2077 C   0  0  0  0  0  0  0  0  0  0  0  0
  -25.3680  -12.3631   21.6387 C   0  0  0  0  0  0  0  0  0  0  0  0
  -26.2270  -12.2642   19.3828 C   0  0  0  0  0  0  0  0  0  0  0  0
  -26.8303  -29.6687   25.5092 C   0  0  0  0  0  0  0  0  0  0  0  0
  -22.9427  -10.4111   20.3225 C   0  0  0  0  0  0  0  0  0  0  0  0
  -21.6956  -10.0085   20.8002 C   0  0  0  0  0  0  0  0  0  0  0  0
  -27.3178  -28.6979   23.3554 C   0  0  0  0  0  0  0  0  0  0  0  0
  -28.7570  -23.2116   20.9657 C   0  0  0  0  0  0  0  0  0  0  0  0
  -22.7776   -8.5956   22.4343 C   0  0  0  0  0  0  0  0  0  0  0  0
  -26.2581  -14.3528   20.5967 C   0  0  0  0  0  0  0  0  0  0  0  0
  -27.7813  -16.3391   21.0888 C   0  0  0  0  0  0  0  0  0  0  0  0
  -18.2113  -28.3296   23.1483 C   0  0  0  0  0  0  0  0  0  0  0  0
  -25.3303  -30.0503   23.6386 C   0  0  0  0  0  0  0  0  0  0  0  0
  -19.5291  -28.1833   23.6220 C   0  0  0  0  0  0  0  0  0  0  0  0
  -26.1617  -29.2799   22.8133 C   0  0  0  0  0  0  0  0  0  0  0  0
  -29.5710  -22.5185   21.8617 C   0  0  0  0  0  0  0  0  0  0  0  0
  -29.1569  -23.3692   19.6387 C   0  0  0  0  0  0  0  0  0  0  0  0
  -25.6440  -11.6339   20.4821 C   0  0  0  0  0  0  0  0  0  0  0  0
  -27.6490  -28.8901   24.6964 C   0  0  0  0  0  0  0  0  0  0  0  0
  -24.1073   -9.9060   20.9007 C   0  0  0  0  0  0  0  0  0  0  0  0
  -21.6130   -9.1008   21.8561 C   0  0  0  0  0  0  0  0  0  0  0  0
  -24.0248   -8.9983   21.9566 C   0  0  0  0  0  0  0  0  0  0  0  0
  -26.5750  -15.7571   20.6552 C   0  0  0  0  0  0  0  0  0  0  0  0
  -27.5792  -17.6907   20.9517 C   0  0  0  0  0  0  0  0  0  0  0  0
  -28.9776  -15.7138   21.5721 C   0  0  0  0  0  0  0  0  0  0  0  0
  -22.8677  -28.7196   22.1324 C   0  0  0  0  0  0  0  0  0  0  0  0
  -24.3584  -29.8754   19.4934 C   0  0  0  0  0  0  0  0  0  0  0  0
  -28.8312  -26.5270   18.8870 C   0  0  0  0  0  0  0  0  0  0  0  0
  -27.2596  -30.9110   18.0246 C   0  0  0  0  0  0  0  0  0  0  0  0
  -25.7323  -22.0623   18.0153 C   0  0  0  0  0  0  0  0  0  0  0  0
  -17.8335  -27.9752   21.7318 C   0  0  0  0  0  0  0  0  0  0  0  0
  -24.0979  -30.7063   23.0788 C   0  0  0  0  0  0  0  0  0  0  0  0
  -25.8439  -29.0516   21.3589 C   0  0  0  0  0  0  0  0  0  0  0  0
  -19.0293  -27.8834   20.7874 C   0  0  0  0  0  0  0  0  0  0  0  0
  -23.3562  -20.3088   20.0043 C   0  0  0  0  0  0  0  0  0  0  0  0
  -20.1528  -27.0728   21.4258 C   0  0  0  0  0  0  0  0  0  0  0  0
  -24.0789  -19.0143   20.3811 C   0  0  0  0  0  0  0  0  0  0  0  0
  -23.7053  -20.7581   18.5871 C   0  0  0  0  0  0  0  0  0  0  0  0
  -25.8722  -19.5887   18.6921 C   0  0  0  0  0  0  0  0  0  0  0  0
  -20.6541  -27.7419   22.7112 C   0  0  1  0  0  0  0  0  0  0  0  0
  -23.5683  -30.0133   21.8271 C   0  0  1  0  0  0  0  0  0  0  0  0
  -25.5951  -19.1259   20.1327 C   0  0  2  0  0  0  0  0  0  0  0  0
  -29.5667  -27.6463   18.2279 C   0  0  0  0  0  0  0  0  0  0  0  0
  -28.1702  -31.7624   15.8467 C   0  0  0  0  0  0  0  0  0  0  0  0
  -24.2393  -27.0520   18.3428 C   0  0  0  0  0  0  0  0  0  0  0  0
  -25.9566  -27.7417   16.6566 C   0  0  0  0  0  0  0  0  0  0  0  0
  -23.7321  -28.8696   16.7016 C   0  0  0  0  0  0  0  0  0  0  0  0
  -28.1229  -33.4630   19.2499 C   0  0  0  0  0  0  0  0  0  0  0  0
  -29.1403  -22.3490   23.2963 C   0  0  0  0  0  0  0  0  0  0  0  0
  -29.6367  -23.4989   24.1755 C   0  0  0  0  0  0  0  0  0  0  0  0
  -29.1647  -23.3360   25.6188 C   0  0  0  0  0  0  0  0  0  0  0  0
  -27.8521  -23.2387   17.4846 C   0  0  0  0  0  0  0  0  0  0  0  0
  -29.6887  -24.4526   26.5106 C   0  0  0  0  0  0  0  0  0  0  0  0
  -28.7560  -27.9776   26.5932 C   0  0  0  0  0  0  0  0  0  1  0  0
  -29.6613  -26.7822   26.8189 C   0  0  0  0  0  0  0  0  0  0  0  0
  -28.2863  -24.1098   18.6803 C   0  0  2  0  0  0  0  0  0  0  0  0
  -25.4021  -29.3488   18.5383 C   0  0  1  0  0  0  0  0  0  0  0  0
  -27.5869  -32.1421   17.1988 C   0  0  2  0  0  0  0  0  0  0  0  0
  -24.8378  -28.2556   17.5876 C   0  0  0  0  0  0  0  0  0  0  0  0
  -25.6733  -16.6648   20.2716 N   0  0  0  0  0  0  0  0  0  0  0  0
  -26.3134  -17.8307   20.4637 N   0  0  0  0  0  0  0  0  0  0  0  0
  -24.6247  -29.7089   20.8599 N   0  0  0  0  0  0  0  0  0  0  0  0
  -25.1578  -20.8454   18.4179 N   0  0  0  0  0  0  0  0  0  0  0  0
  -28.3626  -18.7612   21.2024 N   0  0  0  0  0  0  0  0  0  0  0  0
  -29.0161  -14.3148   21.6489 N   0  0  0  0  0  0  0  0  0  0  0  0
  -21.5184  -28.8590   22.3956 N   0  0  0  0  0  0  0  0  0  0  0  0
  -28.9255  -25.3303   18.2131 N   0  0  0  0  0  0  0  0  0  0  0  0
  -25.9509  -30.5129   17.8510 N   0  0  0  0  0  0  0  0  0  0  0  0
  -27.1156  -22.0605   17.8850 N   0  0  0  0  0  0  0  0  0  0  0  0
  -28.5759  -32.9974   17.9138 N   0  3  0  0  0  0  0  0  0  0  0  0
  -29.9766  -16.3766   21.9410 O   0  0  0  0  0  0  0  0  0  0  0  0
  -23.5039  -27.6723   22.1279 O   0  0  0  0  0  0  0  0  0  0  0  0
  -23.3475  -30.4210   19.0438 O   0  0  0  0  0  0  0  0  0  0  0  0
  -28.2244  -26.7349   19.9312 O   0  0  0  0  0  0  0  0  0  0  0  0
  -28.0834  -30.3558   18.7481 O   0  0  0  0  0  0  0  0  0  0  0  0
  -25.0624  -23.0768   17.7938 O   0  0  0  0  0  0  0  0  0  0  0  0
  -25.3447  -10.3073   20.4259 O   0  0  0  0  0  0  0  0  0  0  0  0
  -28.7742  -28.3210   25.2083 O   0  0  0  0  0  0  0  0  0  1  0  0
  -29.2034  -25.6958   26.0231 O   0  0  0  0  0  0  0  0  0  0  0  0
  -20.4154   -8.7154   22.3157 F   0  0  0  0  0  0  0  0  0  0  0  0
  -25.1401   -8.5104   22.5168 F   0  0  0  0  0  0  0  0  0  0  0  0
  1  2  1  0  0  0  0
  1  6  2  0  0  0  0
  2  7  2  0  0  0  0
  3  9  2  0  0  0  0
  3 10  1  0  0  0  0
  4 11  2  0  0  0  0
  4 19  1  0  0  0  0
  5 12  1  0  0  0  0
  5 19  2  0  0  0  0
  6 21  1  0  0  0  0
  7 23  1  0  0  0  0
  8 13  2  0  0  0  0
  8 22  1  0  0  0  0
  9 25  1  0  0  0  0
 10 26  2  0  0  0  0
 11 27  1  0  0  0  0
 12 27  2  0  0  0  0
 13 28  1  0  0  0  0
 14 15  2  0  0  0  0
 14 29  1  0  0  0  0
 15 30  1  0  0  0  0
 16 24  1  0  0  0  0
 16 28  2  0  0  0  0
 17 25  2  0  0  0  0
 17 26  1  0  0  0  0
 18 30  2  0  0  0  0
 18 31  1  0  0  0  0
 19 32  1  0  0  0  0
 20 32  1  0  0  0  0
 20 33  2  0  0  0  0
 20 34  1  0  0  0  0
 21 23  2  0  0  0  0
 21 40  1  0  0  0  0
 22 24  2  0  0  0  0
 22 41  1  0  0  0  0
 23 49  1  0  0  0  0
 24 42  1  0  0  0  0
 25 58  1  0  0  0  0
 26 65  1  0  0  0  0
 27 86  1  0  0  0  0
 28 87  1  0  0  0  0
 29 31  2  0  0  0  0
 29 86  1  0  0  0  0
 30 89  1  0  0  0  0
 31 90  1  0  0  0  0
 32 69  2  0  0  0  0
 33 70  1  0  0  0  0
 33 73  1  0  0  0  0
 34 74  1  0  0  0  0
 34 80  2  0  0  0  0
 35 50  1  0  0  0  0
 35 75  1  0  0  0  0
 35 81  2  0  0  0  0
 36 66  1  0  0  0  0
 36 71  1  0  0  0  0
 36 82  2  0  0  0  0
 37 52  1  0  0  0  0
 37 76  1  0  0  0  0
 37 83  2  0  0  0  0
 38 67  1  0  0  0  0
 38 77  1  0  0  0  0
 38 84  2  0  0  0  0
 39 72  1  0  0  0  0
 39 78  1  0  0  0  0
 39 85  2  0  0  0  0
 40 43  1  0  0  0  0
 41 50  1  0  0  0  0
 42 71  1  0  0  0  0
 43 45  1  0  0  0  0
 44 46  1  0  0  0  0
 44 47  1  0  0  0  0
 45 49  1  0  0  0  0
 46 51  1  0  0  0  0
 47 72  1  0  0  0  0
 48 51  1  0  0  0  0
 48 72  1  0  0  0  0
 49 75  1  0  0  0  0
 50 71  1  0  0  0  0
 51 70  1  0  0  0  0
 53 67  1  0  0  0  0
 54 68  1  0  0  0  0
 55 68  1  0  0  0  0
 56 68  1  0  0  0  0
 57 79  1  0  0  0  0
 58 59  1  0  0  0  0
 59 60  1  0  0  0  0
 60 62  1  0  0  0  0
 61 65  1  0  0  0  0
 61 78  1  0  0  0  0
 62 88  1  0  0  0  0
 63 64  1  0  0  0  0
 63 87  1  0  0  0  0
 64 88  1  0  0  0  0
 65 76  1  0  0  0  0
 66 68  1  0  0  0  0
 66 77  1  0  0  0  0
 67 79  1  0  0  0  0
 69 70  1  0  0  0  0
M  CHG  1  79   1
M  ISO  4  39 100  63 101  78 100  87 101
M  END
> <Batch ID>
0002

> <Smiles>
CNC(C)C(=O)NC(C(=O)N1Cc2cc([101O:1][101CH2:1]COCCCCc3cccc(C(C[100NH:0][100C:0](=O)N4CCCC(n5nc(-c6ccc(Oc7ccc(F)cc7F)cc6)c(C(N)=O)c5N)C4)NC(C)=O)c3)ccc2CC1C(=O)NC1CCCc2ccccc21)C(C)(C)C

> <Shape>
0.260

> <Color>
0.086

> <Negative vol penalty>
0.000

$$$$

  -OEChem-04042320173D

 77 85  0     1  0  0  0  0  0999 V2000
  -17.5192  -25.8185   21.4338 C   0  0  0  0  0  0  0  0  0  0  0  0
  -18.7916  -25.7093   20.8820 C   0  0  0  0  0  0  0  0  0  0  0  0
  -26.6261  -12.5770   21.8119 C   0  0  0  0  0  0  0  0  0  0  0  0
  -25.8412  -14.0497   20.0649 C   0  0  0  0  0  0  0  0  0  0  0  0
  -17.0682  -27.0509   21.9045 C   0  0  0  0  0  0  0  0  0  0  0  0
  -19.6134  -26.8328   20.7996 C   0  0  0  0  0  0  0  0  0  0  0  0
  -24.3691  -25.8720   22.2504 C   0  0  0  0  0  0  0  0  0  0  0  0
  -28.1665  -21.8353   19.6877 C   0  0  0  0  0  0  0  0  0  0  0  0
  -28.7648  -22.8992   21.7725 C   0  0  0  0  0  0  0  0  0  0  0  0
  -25.3753  -11.9612   21.8549 C   0  0  0  0  0  0  0  0  0  0  0  0
  -24.5903  -13.4339   20.1079 C   0  0  0  0  0  0  0  0  0  0  0  0
  -25.1919  -25.2122   21.3387 C   0  0  0  0  0  0  0  0  0  0  0  0
  -27.5414  -23.0095   19.2679 C   0  0  0  0  0  0  0  0  0  0  0  0
  -28.1397  -24.0734   21.3528 C   0  0  0  0  0  0  0  0  0  0  0  0
  -23.6696   -9.6584   20.0604 C   0  0  0  0  0  0  0  0  0  0  0  0
  -23.6343   -8.2648   20.1070 C   0  0  0  0  0  0  0  0  0  0  0  0
  -26.1959  -27.3193   20.7291 C   0  0  0  0  0  0  0  0  0  0  0  0
  -22.4632   -8.3651   22.2179 C   0  0  0  0  0  0  0  0  0  0  0  0
  -26.8591  -13.6213   20.9170 C   0  0  0  0  0  0  0  0  0  0  0  0
  -29.2505  -13.8951   20.0721 C   0  0  0  0  0  0  0  0  0  0  0  0
  -17.8885  -28.1881   21.8366 C   0  0  0  0  0  0  0  0  0  0  0  0
  -24.4460  -27.2641   22.4008 C   0  0  0  0  0  0  0  0  0  0  0  0
  -19.1724  -28.0819   21.2686 C   0  0  0  0  0  0  0  0  0  0  0  0
  -25.3747  -27.9940   21.6453 C   0  0  0  0  0  0  0  0  0  0  0  0
  -28.7782  -21.7802   20.9400 C   0  0  0  0  0  0  0  0  0  0  0  0
  -24.3574  -12.3897   21.0029 C   0  0  0  0  0  0  0  0  0  0  0  0
  -27.5280  -24.1286   20.1005 C   0  0  0  0  0  0  0  0  0  1  0  0
  -26.1035  -25.9362   20.5757 C   0  0  0  0  0  0  0  0  0  0  0  0
  -23.1017  -10.4054   21.0925 C   0  0  0  0  0  0  0  0  0  0  0  0
  -23.0311   -7.6181   21.1857 C   0  0  0  0  0  0  0  0  0  0  0  0
  -22.4985   -9.7587   22.1712 C   0  0  0  0  0  0  0  0  0  0  0  0
  -28.1508  -14.2581   20.8725 C   0  0  0  0  0  0  0  0  0  0  0  0
  -30.2274  -14.8038   20.3982 C   0  0  0  0  0  0  0  0  0  0  0  0
  -29.3776  -12.8315   19.1191 C   0  0  0  0  0  0  0  0  0  0  0  0
  -22.4292  -29.6821   21.9655 C   0  0  0  0  0  0  0  0  0  0  0  0
  -24.8421  -31.4181   23.2642 C   0  0  0  0  0  0  0  0  0  0  0  0
  -28.1808  -31.7092   23.9084 C   0  0  0  0  0  0  0  0  0  0  0  0
  -30.0658  -20.3648   22.5786 C   0  0  0  0  0  0  0  0  0  0  0  0
  -17.3394  -29.5088   22.3151 C   0  0  0  0  0  0  0  0  0  0  0  0
  -23.5701  -27.9576   23.4079 C   0  0  0  0  0  0  0  0  0  0  0  0
  -25.5106  -29.4876   21.7837 C   0  0  0  0  0  0  0  0  0  0  0  0
  -18.4132  -30.5717   22.5332 C   0  0  0  0  0  0  0  0  0  0  0  0
  -31.7199  -17.5601   24.0189 C   0  0  0  0  0  0  0  0  0  0  0  0
  -19.3734  -30.6115   21.3486 C   0  0  0  0  0  0  0  0  0  0  0  0
  -31.0968  -16.3624   23.2983 C   0  0  0  0  0  0  0  0  0  0  0  0
  -30.6948  -18.6630   24.2766 C   0  0  0  0  0  0  0  0  0  0  0  0
  -29.3270  -17.9099   22.3711 C   0  0  0  0  0  0  0  0  0  0  0  0
  -20.1026  -29.2726   21.1843 C   0  0  1  0  0  0  0  0  0  0  0  0
  -23.3741  -29.4406   23.1085 C   0  0  1  0  0  0  0  0  0  0  0  0
  -30.3356  -16.8003   22.0317 C   0  0  2  0  0  0  0  0  0  0  0  0
  -29.8580  -33.2567   24.9521 C   0  0  0  0  0  0  0  0  0  0  0  0
  -24.6822  -33.2365   20.8192 C   0  0  0  0  0  0  0  0  0  0  0  0
  -26.9321  -34.1457   21.4350 C   0  0  0  0  0  0  0  0  0  0  0  0
  -25.0038  -34.4343   22.9909 C   0  0  0  0  0  0  0  0  0  0  0  0
  -28.9726  -29.6842   25.9162 C   0  0  0  0  0  0  0  0  0  0  0  0
  -26.0471  -32.1472   22.7209 C   0  0  1  0  0  0  0  0  0  0  0  0
  -28.9344  -32.0694   25.1759 C   0  0  2  0  0  0  0  0  0  0  0  0
  -25.6626  -33.4630   21.9873 C   0  0  0  0  0  0  0  0  0  0  0  0
  -28.4046  -15.3150   21.6488 N   0  0  0  0  0  0  0  0  0  0  0  0
  -29.6751  -15.6238   21.3377 N   0  0  0  0  0  0  0  0  0  0  0  0
  -24.6277  -30.1209   22.7772 N   0  0  0  0  0  0  0  0  0  0  0  0
  -30.0164  -19.0294   23.0314 N   0  0  0  0  0  0  0  0  0  0  0  0
  -31.4964  -14.9735   19.9700 N   0  0  0  0  0  0  0  0  0  0  0  0
  -28.2769  -11.9905   18.9057 N   0  0  0  0  0  0  0  0  0  0  0  0
  -29.4125  -20.5873   21.3668 N   0  0  0  0  0  0  0  0  0  0  0  0
  -21.1668  -29.1539   22.1578 N   0  0  0  0  0  0  0  0  0  0  0  0
  -26.9534  -32.3348   23.8487 N   0  0  0  0  0  0  0  0  0  0  0  0
  -29.7565  -30.9146   25.6357 N   0  3  0  0  0  0  0  0  0  0  0  0
  -30.4412  -12.6227   18.4877 O   0  0  0  0  0  0  0  0  0  0  0  0
  -22.8162  -30.3030   20.9824 O   0  0  0  0  0  0  0  0  0  0  0  0
  -24.1216  -31.9761   24.0956 O   0  0  0  0  0  0  0  0  0  0  0  0
  -28.6369  -30.9518   23.0547 O   0  0  0  0  0  0  0  0  0  0  0  0
  -30.6680  -21.2406   23.2049 O   0  0  0  0  0  0  0  0  0  0  0  0
  -26.9074  -25.2947   19.6846 O   0  0  0  0  0  0  0  0  0  1  0  0
  -23.1368  -11.7889   21.0443 O   0  0  0  0  0  0  0  0  0  0  0  0
  -22.9960   -6.2798   21.2297 F   0  0  0  0  0  0  0  0  0  0  0  0
  -21.9502  -10.4710   23.1651 F   0  0  0  0  0  0  0  0  0  0  0  0
  1  2  1  0  0  0  0
  1  5  2  0  0  0  0
  2  6  2  0  0  0  0
  3 10  2  0  0  0  0
  3 19  1  0  0  0  0
  4 11  1  0  0  0  0
  4 19  2  0  0  0  0
  5 21  1  0  0  0  0
  6 23  1  0  0  0  0
  7 12  2  0  0  0  0
  7 22  1  0  0  0  0
  8 13  2  0  0  0  0
  8 25  1  0  0  0  0
  9 14  1  0  0  0  0
  9 25  2  0  0  0  0
 10 26  1  0  0  0  0
 11 26  2  0  0  0  0
 12 28  1  0  0  0  0
 13 27  1  0  0  0  0
 14 27  2  0  0  0  0
 15 16  2  0  0  0  0
 15 29  1  0  0  0  0
 16 30  1  0  0  0  0
 17 24  1  0  0  0  0
 17 28  2  0  0  0  0
 18 30  2  0  0  0  0
 18 31  1  0  0  0  0
 19 32  1  0  0  0  0
 20 32  1  0  0  0  0
 20 33  2  0  0  0  0
 20 34  1  0  0  0  0
 21 23  2  0  0  0  0
 21 39  1  0  0  0  0
 22 24  2  0  0  0  0
 22 40  1  0  0  0  0
 23 48  1  0  0  0  0
 24 41  1  0  0  0  0
 25 65  1  0  0  0  0
 26 75  1  0  0  0  0
 27 74  1  0  0  0  0
 28 74  1  0  0  0  0
 29 31  2  0  0  0  0
 29 75  1  0  0  0  0
 30 76  1  0  0  0  0
 31 77  1  0  0  0  0
 32 59  2  0  0  0  0
 33 60  1  0  0  0  0
 33 63  1  0  0  0  0
 34 64  1  0  0  0  0
 34 69  2  0  0  0  0
 35 49  1  0  0  0  0
 35 66  1  0  0  0  0
 35 70  2  0  0  0  0
 36 56  1  0  0  0  0
 36 61  1  0  0  0  0
 36 71  2  0  0  0  0
 37 57  1  0  0  0  0
 37 67  1  0  0  0  0
 37 72  2  0  0  0  0
 38 62  1  0  0  0  0
 38 65  1  0  0  0  0
 38 73  2  0  0  0  0
 39 42  1  0  0  0  0
 40 49  1  0  0  0  0
 41 61  1  0  0  0  0
 42 44  1  0  0  0  0
 43 45  1  0  0  0  0
 43 46  1  0  0  0  0
 44 48  1  0  0  0  0
 45 50  1  0  0  0  0
 46 62  1  0  0  0  0
 47 50  1  0  0  0  0
 47 62  1  0  0  0  0
 48 66  1  0  0  0  0
 49 61  1  0  0  0  0
 50 60  1  0  0  0  0
 51 57  1  0  0  0  0
 52 58  1  0  0  0  0
 53 58  1  0  0  0  0
 54 58  1  0  0  0  0
 55 68  1  0  0  0  0
 56 58  1  0  0  0  0
 56 67  1  0  0  0  0
 57 68  1  0  0  0  0
 59 60  1  0  0  0  0
M  CHG  1  68   1
M  ISO  4  27 101  38 100  65 100  74 101
M  END
> <Batch ID>
0002

> <Smiles>
CNC(C)C(=O)NC(C(=O)N1Cc2cc([101O:1][101c:1]3ccc([100NH:0][100C:0](=O)N4CCCC(n5nc(-c6ccc(Oc7ccc(F)cc7F)cc6)c(C(N)=O)c5N)C4)cc3)ccc2CC1C(=O)NC1CCCc2ccccc21)C(C)(C)C

> <Shape>
0.307

> <Color>
0.082

> <Negative vol penalty>
0.000

$$$$

  -OEChem-04042320173D

 78 86  0     1  0  0  0  0  0999 V2000
  -16.6234  -27.9749   23.4465 C   0  0  0  0  0  0  0  0  0  0  0  0
  -17.5414  -27.4756   22.5281 C   0  0  0  0  0  0  0  0  0  0  0  0
  -25.9814  -13.3256   21.8426 C   0  0  0  0  0  0  0  0  0  0  0  0
  -25.7790  -14.0980   19.5624 C   0  0  0  0  0  0  0  0  0  0  0  0
  -16.9890  -29.0139   24.3013 C   0  0  0  0  0  0  0  0  0  0  0  0
  -18.8253  -28.0159   22.4632 C   0  0  0  0  0  0  0  0  0  0  0  0
  -24.0187  -25.0250   21.2024 C   0  0  0  0  0  0  0  0  0  0  0  0
  -27.1474  -22.6534   16.5243 C   0  0  0  0  0  0  0  0  0  0  0  0
  -24.8309  -12.5533   21.6832 C   0  0  0  0  0  0  0  0  0  0  0  0
  -24.6285  -13.3257   19.4029 C   0  0  0  0  0  0  0  0  0  0  0  0
  -24.7625  -24.8898   20.0310 C   0  0  0  0  0  0  0  0  0  0  0  0
  -26.7875  -23.9404   16.9238 C   0  0  0  0  0  0  0  0  0  0  0  0
  -23.9922   -9.5934   20.2802 C   0  0  0  0  0  0  0  0  0  0  0  0
  -24.0196   -8.2831   20.7577 C   0  0  0  0  0  0  0  0  0  0  0  0
  -26.1907  -26.7016   20.7360 C   0  0  0  0  0  0  0  0  0  0  0  0
  -27.4324  -23.4167   19.1923 C   0  0  0  0  0  0  0  0  0  0  0  0
  -22.1791   -8.7848   22.2403 C   0  0  0  0  0  0  0  0  0  0  0  0
  -26.4555  -14.0980   20.7822 C   0  0  0  0  0  0  0  0  0  0  0  0
  -28.9724  -14.5047   20.6957 C   0  0  0  0  0  0  0  0  0  0  0  0
  -18.2811  -29.5606   24.2535 C   0  0  0  0  0  0  0  0  0  0  0  0
  -24.3491  -26.0084   22.1459 C   0  0  0  0  0  0  0  0  0  0  0  0
  -19.2081  -29.0641   23.3173 C   0  0  0  0  0  0  0  0  0  0  0  0
  -25.4510  -26.8455   21.9198 C   0  0  0  0  0  0  0  0  0  0  0  0
  -27.6499  -21.7480   17.4588 C   0  0  0  0  0  0  0  0  0  0  0  0
  -27.7923  -22.1296   18.7928 C   0  0  0  0  0  0  0  0  0  0  0  0
  -24.1544  -12.5534   20.4633 C   0  0  0  0  0  0  0  0  0  0  0  0
  -25.8470  -25.7301   19.7963 C   0  0  0  0  0  0  0  0  0  0  0  0
  -26.9300  -24.3221   18.2578 C   0  0  0  0  0  0  0  0  0  1  0  0
  -23.0583  -10.4994   20.7829 C   0  0  0  0  0  0  0  0  0  0  0  0
  -23.1131   -7.8788   21.7376 C   0  0  0  0  0  0  0  0  0  0  0  0
  -22.1517  -10.0951   21.7629 C   0  0  0  0  0  0  0  0  0  0  0  0
  -27.6437  -14.8963   20.9465 C   0  0  0  0  0  0  0  0  0  0  0  0
  -29.7213  -15.6140   21.0040 C   0  0  0  0  0  0  0  0  0  0  0  0
  -29.4839  -13.2504   20.2258 C   0  0  0  0  0  0  0  0  0  0  0  0
  -22.8668  -28.5487   23.3513 C   0  0  0  0  0  0  0  0  0  0  0  0
  -25.4692  -28.6642   25.2843 C   0  0  0  0  0  0  0  0  0  0  0  0
  -28.7483  -27.8586   25.7797 C   0  0  0  0  0  0  0  0  0  0  0  0
  -28.4996  -21.4620   21.1167 C   0  0  0  0  0  0  0  0  0  0  0  0
  -18.6152  -30.7146   25.1653 C   0  0  0  0  0  0  0  0  0  0  0  0
  -23.5530  -26.1237   23.4169 C   0  0  0  0  0  0  0  0  0  0  0  0
  -25.8595  -27.9038   22.9106 C   0  0  0  0  0  0  0  0  0  0  0  0
  -20.1135  -30.9791   25.2889 C   0  0  0  0  0  0  0  0  0  0  0  0
  -29.6955  -19.4839   23.8249 C   0  0  0  0  0  0  0  0  0  0  0  0
  -20.7720  -30.9733   23.9130 C   0  0  0  0  0  0  0  0  0  0  0  0
  -29.4315  -18.0472   23.3686 C   0  0  0  0  0  0  0  0  0  0  0  0
  -28.5860  -20.4340   23.3774 C   0  0  0  0  0  0  0  0  0  0  0  0
  -28.0168  -18.9627   21.4852 C   0  0  0  0  0  0  0  0  0  0  0  0
  -20.6181  -29.6072   23.2336 C   0  0  1  0  0  0  0  0  0  0  0  0
  -23.6653  -27.4980   24.0696 C   0  0  1  0  0  0  0  0  0  0  0  0
  -29.1398  -17.9806   21.8567 C   0  0  2  0  0  0  0  0  0  0  0  0
  -28.0277  -20.3763   17.0022 C   0  0  0  0  0  0  0  0  0  0  0  0
  -30.6124  -28.1216   27.4391 C   0  0  0  0  0  0  0  0  0  0  0  0
  -25.8320  -31.5659   24.4134 C   0  0  0  0  0  0  0  0  0  0  0  0
  -28.1651  -31.4724   25.3167 C   0  0  0  0  0  0  0  0  0  0  0  0
  -26.2227  -31.1510   26.8485 C   0  0  0  0  0  0  0  0  0  0  0  0
  -28.9956  -24.9316   26.1405 C   0  0  0  0  0  0  0  0  0  0  0  0
  -26.8265  -29.3211   25.2118 C   0  0  1  0  0  0  0  0  0  0  0  0
  -29.4657  -27.2414   26.9667 C   0  0  2  0  0  0  0  0  0  0  0  0
  -26.7530  -30.8590   25.4278 C   0  0  0  0  0  0  0  0  0  0  0  0
  -27.5506  -16.1560   21.3809 N   0  0  0  0  0  0  0  0  0  0  0  0
  -28.8304  -16.5654   21.4055 N   0  0  0  0  0  0  0  0  0  0  0  0
  -25.0460  -27.9815   24.1352 N   0  0  0  0  0  0  0  0  0  0  0  0
  -28.3682  -20.3192   21.9337 N   0  0  0  0  0  0  0  0  0  0  0  0
  -31.0485  -15.8586   20.9683 N   0  0  0  0  0  0  0  0  0  0  0  0
  -28.5760  -12.2170   19.9572 N   0  0  0  0  0  0  0  0  0  0  0  0
  -28.3015  -21.2246   19.7570 N   0  0  0  0  0  0  0  0  0  0  0  0
  -21.5602  -28.6583   23.7873 N   0  0  0  0  0  0  0  0  0  0  0  0
  -27.6703  -28.6221   26.1751 N   0  0  0  0  0  0  0  0  0  0  0  0
  -30.0177  -25.9063   26.6012 N   0  3  0  0  0  0  0  0  0  0  0  0
  -30.7112  -13.0466   20.0651 O   0  0  0  0  0  0  0  0  0  0  0  0
  -23.3973  -29.2120   22.4680 O   0  0  0  0  0  0  0  0  0  0  0  0
  -24.8118  -28.7476   26.3248 O   0  0  0  0  0  0  0  0  0  0  0  0
  -29.1104  -27.6842   24.6183 O   0  0  0  0  0  0  0  0  0  0  0  0
  -28.7948  -22.5644   21.5855 O   0  0  0  0  0  0  0  0  0  0  0  0
  -23.0318  -11.7997   20.3073 O   0  0  0  0  0  0  0  0  0  0  0  0
  -26.5743  -25.6007   18.6535 O   0  0  0  0  0  0  0  0  0  1  0  0
  -23.1385   -6.6200   22.1949 F   0  0  0  0  0  0  0  0  0  0  0  0
  -21.2514  -10.9607   22.2487 F   0  0  0  0  0  0  0  0  0  0  0  0
  1  2  1  0  0  0  0
  1  5  2  0  0  0  0
  2  6  2  0  0  0  0
  3  9  2  0  0  0  0
  3 18  1  0  0  0  0
  4 10  1  0  0  0  0
  4 18  2  0  0  0  0
  5 20  1  0  0  0  0
  6 22  1  0  0  0  0
  7 11  2  0  0  0  0
  7 21  1  0  0  0  0
  8 12  2  0  0  0  0
  8 24  1  0  0  0  0
  9 26  1  0  0  0  0
 10 26  2  0  0  0  0
 11 27  1  0  0  0  0
 12 28  1  0  0  0  0
 13 14  2  0  0  0  0
 13 29  1  0  0  0  0
 14 30  1  0  0  0  0
 15 23  1  0  0  0  0
 15 27  2  0  0  0  0
 16 25  1  0  0  0  0
 16 28  2  0  0  0  0
 17 30  2  0  0  0  0
 17 31  1  0  0  0  0
 18 32  1  0  0  0  0
 19 32  1  0  0  0  0
 19 33  2  0  0  0  0
 19 34  1  0  0  0  0
 20 22  2  0  0  0  0
 20 39  1  0  0  0  0
 21 23  2  0  0  0  0
 21 40  1  0  0  0  0
 22 48  1  0  0  0  0
 23 41  1  0  0  0  0
 24 25  2  0  0  0  0
 24 51  1  0  0  0  0
 25 66  1  0  0  0  0
 26 75  1  0  0  0  0
 27 76  1  0  0  0  0
 28 76  1  0  0  0  0
 29 31  2  0  0  0  0
 29 75  1  0  0  0  0
 30 77  1  0  0  0  0
 31 78  1  0  0  0  0
 32 60  2  0  0  0  0
 33 61  1  0  0  0  0
 33 64  1  0  0  0  0
 34 65  1  0  0  0  0
 34 70  2  0  0  0  0
 35 49  1  0  0  0  0
 35 67  1  0  0  0  0
 35 71  2  0  0  0  0
 36 57  1  0  0  0  0
 36 62  1  0  0  0  0
 36 72  2  0  0  0  0
 37 58  1  0  0  0  0
 37 68  1  0  0  0  0
 37 73  2  0  0  0  0
 38 63  1  0  0  0  0
 38 66  1  0  0  0  0
 38 74  2  0  0  0  0
 39 42  1  0  0  0  0
 40 49  1  0  0  0  0
 41 62  1  0  0  0  0
 42 44  1  0  0  0  0
 43 45  1  0  0  0  0
 43 46  1  0  0  0  0
 44 48  1  0  0  0  0
 45 50  1  0  0  0  0
 46 63  1  0  0  0  0
 47 50  1  0  0  0  0
 47 63  1  0  0  0  0
 48 67  1  0  0  0  0
 49 62  1  0  0  0  0
 50 61  1  0  0  0  0
 52 58  1  0  0  0  0
 53 59  1  0  0  0  0
 54 59  1  0  0  0  0
 55 59  1  0  0  0  0
 56 69  1  0  0  0  0
 57 59  1  0  0  0  0
 57 68  1  0  0  0  0
 58 69  1  0  0  0  0
 60 61  1  0  0  0  0
M  CHG  1  69   1
M  ISO  4  28 101  38 100  66 100  76 101
M  END
> <Batch ID>
0002

> <Smiles>
CNC(C)C(=O)NC(C(=O)N1Cc2cc([101O:1][101c:1]3ccc(C)c([100NH:0][100C:0](=O)N4CCCC(n5nc(-c6ccc(Oc7ccc(F)cc7F)cc6)c(C(N)=O)c5N)C4)c3)ccc2CC1C(=O)NC1CCCc2ccccc21)C(C)(C)C

> <Shape>
0.256

> <Color>
0.073

> <Negative vol penalty>
0.000

$$$$

  -OEChem-04042320173D

 88 96  0     1  0  0  0  0  0999 V2000
  -30.3347  -25.9216   17.1902 C   0  0  0  0  0  0  0  0  0  0  0  0
  -28.9503  -25.8851   17.3229 C   0  0  0  0  0  0  0  0  0  0  0  0
  -28.9945  -21.1216   20.9888 C   0  0  0  0  0  0  0  0  0  0  0  0
  -27.3720  -21.7587   19.3159 C   0  0  0  0  0  0  0  0  0  0  0  0
  -18.5960  -22.4269   21.3653 C   0  0  0  0  0  0  0  0  0  0  0  0
  -17.0487  -22.7078   19.5312 C   0  0  0  0  0  0  0  0  0  0  0  0
  -18.6235  -23.8087   21.5537 C   0  0  0  0  0  0  0  0  0  0  0  0
  -17.0761  -24.0896   19.7197 C   0  0  0  0  0  0  0  0  0  0  0  0
  -31.1218  -26.4003   18.2368 C   0  0  0  0  0  0  0  0  0  0  0  0
  -28.3523  -26.3263   18.5028 C   0  0  0  0  0  0  0  0  0  0  0  0
  -22.9704  -29.1967   19.0526 C   0  0  0  0  0  0  0  0  0  0  0  0
  -30.0134  -21.6685   20.2089 C   0  0  0  0  0  0  0  0  0  0  0  0
  -28.3909  -22.3058   18.5360 C   0  0  0  0  0  0  0  0  0  0  0  0
  -21.6954  -28.7431   19.3878 C   0  0  0  0  0  0  0  0  0  0  0  0
  -31.8108  -20.7878   17.4853 C   0  0  0  0  0  0  0  0  0  0  0  0
  -32.9783  -20.0408   17.3291 C   0  0  0  0  0  0  0  0  0  0  0  0
  -22.0720  -29.3967   21.6792 C   0  0  0  0  0  0  0  0  0  0  0  0
  -34.2560  -21.8276   18.3351 C   0  0  0  0  0  0  0  0  0  0  0  0
  -27.6738  -21.1666   20.5422 C   0  0  0  0  0  0  0  0  0  0  0  0
  -17.8086  -21.8764   20.3540 C   0  0  0  0  0  0  0  0  0  0  0  0
  -17.8635  -24.6400   20.7310 C   0  0  0  0  0  0  0  0  0  0  0  0
  -25.8602  -21.2564   22.3341 C   0  0  0  0  0  0  0  0  0  0  0  0
  -30.5325  -26.8566   19.4264 C   0  0  0  0  0  0  0  0  0  0  0  0
  -23.8113  -29.7446   20.0320 C   0  0  0  0  0  0  0  0  0  0  0  0
  -29.1323  -26.8103   19.5668 C   0  0  0  0  0  0  0  0  0  0  0  0
  -23.3562  -29.8588   21.3533 C   0  0  0  0  0  0  0  0  0  0  0  0
  -29.7117  -22.2607   18.9826 C   0  0  0  0  0  0  0  0  0  0  0  0
  -21.2471  -28.8405   20.7018 C   0  0  0  0  0  0  0  0  0  0  0  0
  -31.8658  -22.0547   18.0663 C   0  0  0  0  0  0  0  0  0  0  0  0
  -34.2010  -20.5607   17.7540 C   0  0  0  0  0  0  0  0  0  0  0  0
  -33.0884  -22.5746   18.4912 C   0  0  0  0  0  0  0  0  0  0  0  0
  -26.6208  -20.6012   21.3471 C   0  0  0  0  0  0  0  0  0  0  0  0
  -24.9998  -20.2927   22.8004 C   0  0  0  0  0  0  0  0  0  0  0  0
  -17.7798  -20.4355   20.1567 C   0  0  0  0  0  0  0  0  0  0  0  0
  -18.7118  -19.5575   20.5925 C   0  0  0  0  0  0  0  0  0  0  0  0
  -17.8918  -26.1116   20.9331 C   0  0  0  0  0  0  0  0  0  0  0  0
  -25.9256  -22.6146   22.7887 C   0  0  0  0  0  0  0  0  0  0  0  0
  -26.6466  -28.9704   21.2425 C   0  0  0  0  0  0  0  0  0  0  0  0
  -26.3195  -31.7982   22.7978 C   0  0  0  0  0  0  0  0  0  0  0  0
  -24.2357  -34.2136   24.0105 C   0  0  0  0  0  0  0  0  0  0  0  0
  -22.7810  -15.2885   20.3742 C   0  0  0  0  0  0  0  0  0  0  0  0
  -31.4273  -27.3211   20.5481 C   0  0  0  0  0  0  0  0  0  0  0  0
  -25.1738  -30.2538   19.6489 C   0  0  0  0  0  0  0  0  0  0  0  0
  -24.2125  -30.4578   22.4380 C   0  0  0  0  0  0  0  0  0  0  0  0
  -30.6931  -28.1197   21.6221 C   0  0  0  0  0  0  0  0  0  0  0  0
  -24.6469  -15.5584   23.3945 C   0  0  0  0  0  0  0  0  0  0  0  0
  -29.3980  -27.4175   22.0176 C   0  0  0  0  0  0  0  0  0  0  0  0
  -25.2958  -16.9405   23.3013 C   0  0  0  0  0  0  0  0  0  0  0  0
  -24.5760  -14.8752   22.0306 C   0  0  0  0  0  0  0  0  0  0  0  0
  -24.5770  -17.0539   20.8787 C   0  0  0  0  0  0  0  0  0  0  0  0
  -28.4450  -27.3032   20.8217 C   0  0  1  0  0  0  0  0  0  0  0  0
  -26.1393  -30.3226   20.8281 C   0  0  1  0  0  0  0  0  0  0  0  0
  -24.6202  -17.8054   22.2202 C   0  0  2  0  0  0  0  0  0  0  0  0
  -24.2585  -36.3854   25.2675 C   0  0  0  0  0  0  0  0  0  0  0  0
  -26.8367  -30.2856   25.3968 C   0  0  0  0  0  0  0  0  0  0  0  0
  -25.9226  -32.2551   26.6434 C   0  0  0  0  0  0  0  0  0  0  0  0
  -27.9698  -32.5096   25.2409 C   0  0  0  0  0  0  0  0  0  0  0  0
  -23.0003  -35.6691   21.7490 C   0  0  0  0  0  0  0  0  0  0  0  0
  -18.6310  -18.0801   20.3782 C   0  0  0  0  0  0  0  0  0  0  0  0
  -18.2215  -27.9383   22.5794 C   0  0  0  0  0  0  0  0  0  0  0  0
  -21.0395  -15.8551   18.6994 C   0  0  0  0  0  0  0  0  0  0  0  0
  -19.6085  -28.5283   22.3970 C   0  0  0  0  0  0  0  0  0  1  0  0
  -19.7669  -16.2582   19.4227 C   0  0  0  0  0  0  0  0  0  0  0  0
  -25.7231  -32.2309   24.1154 C   0  0  1  0  0  0  0  0  0  0  0  0
  -24.2740  -35.7269   23.8968 C   0  0  2  0  0  0  0  0  0  0  0  0
  -26.5974  -31.8072   25.3293 C   0  0  0  0  0  0  0  0  0  0  0  0
  -26.2742  -19.3204   21.1947 N   0  0  0  0  0  0  0  0  0  0  0  0
  -25.2864  -19.1629   22.0922 N   0  0  0  0  0  0  0  0  0  0  0  0
  -25.5392  -30.9356   22.0148 N   0  0  0  0  0  0  0  0  0  0  0  0
  -23.9230  -15.7472   21.0513 N   0  0  0  0  0  0  0  0  0  0  0  0
  -24.0336  -20.3100   23.7430 N   0  0  0  0  0  0  0  0  0  0  0  0
  -26.8676  -23.4708   22.2023 N   0  0  0  0  0  0  0  0  0  0  0  0
  -18.1814  -26.5455   22.2207 N   0  0  0  0  0  0  0  0  0  0  0  0
  -27.7885  -28.5692   20.5757 N   0  0  0  0  0  0  0  0  0  0  0  0
  -25.5026  -33.6692   24.0109 N   0  0  0  0  0  0  0  0  0  0  0  0
  -22.2204  -16.1801   19.4678 N   0  0  0  0  0  0  0  0  0  0  0  0
  -23.0971  -36.2184   23.1259 N   0  3  0  0  0  0  0  0  0  0  0  0
  -17.6448  -26.8523   19.9850 O   0  0  0  0  0  0  0  0  0  0  0  0
  -25.1822  -23.0515   23.6997 O   0  0  0  0  0  0  0  0  0  0  0  0
  -26.0473  -28.3384   22.1046 O   0  0  0  0  0  0  0  0  0  0  0  0
  -27.4334  -32.2159   22.4719 O   0  0  0  0  0  0  0  0  0  0  0  0
  -23.1870  -33.5782   24.0945 O   0  0  0  0  0  0  0  0  0  0  0  0
  -22.2938  -14.1694   20.5673 O   0  0  0  0  0  0  0  0  0  0  0  0
  -30.7056  -22.7947   18.2214 O   0  0  0  0  0  0  0  0  0  0  0  0
  -20.0032  -28.3979   21.0319 O   0  0  0  0  0  0  0  0  0  1  0  0
  -19.7825  -17.6595   19.6600 O   0  0  0  0  0  0  0  0  0  0  0  0
  -35.3219  -19.8426   17.6053 F   0  0  0  0  0  0  0  0  0  0  0  0
  -33.1474  -23.7906   19.0512 F   0  0  0  0  0  0  0  0  0  0  0  0
  1  2  1  0  0  0  0
  1  9  2  0  0  0  0
  2 10  2  0  0  0  0
  3 12  2  0  0  0  0
  3 19  1  0  0  0  0
  4 13  1  0  0  0  0
  4 19  2  0  0  0  0
  5  7  2  0  0  0  0
  5 20  1  0  0  0  0
  6  8  1  0  0  0  0
  6 20  2  0  0  0  0
  7 21  1  0  0  0  0
  8 21  2  0  0  0  0
  9 23  1  0  0  0  0
 10 25  1  0  0  0  0
 11 14  2  0  0  0  0
 11 24  1  0  0  0  0
 12 27  1  0  0  0  0
 13 27  2  0  0  0  0
 14 28  1  0  0  0  0
 15 16  2  0  0  0  0
 15 29  1  0  0  0  0
 16 30  1  0  0  0  0
 17 26  1  0  0  0  0
 17 28  2  0  0  0  0
 18 30  2  0  0  0  0
 18 31  1  0  0  0  0
 19 32  1  0  0  0  0
 20 34  1  0  0  0  0
 21 36  1  0  0  0  0
 22 32  1  0  0  0  0
 22 33  2  0  0  0  0
 22 37  1  0  0  0  0
 23 25  2  0  0  0  0
 23 42  1  0  0  0  0
 24 26  2  0  0  0  0
 24 43  1  0  0  0  0
 25 51  1  0  0  0  0
 26 44  1  0  0  0  0
 27 84  1  0  0  0  0
 28 85  1  0  0  0  0
 29 31  2  0  0  0  0
 29 84  1  0  0  0  0
 30 87  1  0  0  0  0
 31 88  1  0  0  0  0
 32 67  2  0  0  0  0
 33 68  1  0  0  0  0
 33 71  1  0  0  0  0
 34 35  2  0  0  0  0
 35 59  1  0  0  0  0
 36 73  1  0  0  0  0
 36 78  2  0  0  0  0
 37 72  1  0  0  0  0
 37 79  2  0  0  0  0
 38 52  1  0  0  0  0
 38 74  1  0  0  0  0
 38 80  2  0  0  0  0
 39 64  1  0  0  0  0
 39 69  1  0  0  0  0
 39 81  2  0  0  0  0
 40 65  1  0  0  0  0
 40 75  1  0  0  0  0
 40 82  2  0  0  0  0
 41 70  1  0  0  0  0
 41 76  1  0  0  0  0
 41 83  2  0  0  0  0
 42 45  1  0  0  0  0
 43 52  1  0  0  0  0
 44 69  1  0  0  0  0
 45 47  1  0  0  0  0
 46 48  1  0  0  0  0
 46 49  1  0  0  0  0
 47 51  1  0  0  0  0
 48 53  1  0  0  0  0
 49 70  1  0  0  0  0
 50 53  1  0  0  0  0
 50 70  1  0  0  0  0
 51 74  1  0  0  0  0
 52 69  1  0  0  0  0
 53 68  1  0  0  0  0
 54 65  1  0  0  0  0
 55 66  1  0  0  0  0
 56 66  1  0  0  0  0
 57 66  1  0  0  0  0
 58 77  1  0  0  0  0
 59 86  1  0  0  0  0
 60 62  1  0  0  0  0
 60 73  1  0  0  0  0
 61 63  1  0  0  0  0
 61 76  1  0  0  0  0
 62 85  1  0  0  0  0
 63 86  1  0  0  0  0
 64 66  1  0  0  0  0
 64 75  1  0  0  0  0
 65 77  1  0  0  0  0
 67 68  1  0  0  0  0
M  CHG  1  77   1
M  ISO  4  41 100  62 101  76 100  85 101
M  END
> <Batch ID>
0002

> <Smiles>
CNC(C)C(=O)NC(C(=O)N1Cc2cc([101O:1][101CH2:1]CNC(=O)c3ccc(C=CCOCC[100NH:0][100C:0](=O)N4CCCC(n5nc(-c6ccc(Oc7ccc(F)cc7F)cc6)c(C(N)=O)c5N)C4)cc3)ccc2CC1C(=O)NC1CCCc2ccccc21)C(C)(C)C

> <Shape>
0.256

> <Color>
0.069

> <Negative vol penalty>
0.000

$$$$

  -OEChem-04042320173D

 82 90  0     1  0  0  0  0  0999 V2000
  -17.4720  -30.8956   24.2232 C   0  0  0  0  0  0  0  0  0  0  0  0
  -18.8413  -31.1410   24.2371 C   0  0  0  0  0  0  0  0  0  0  0  0
  -27.7513  -21.7644   23.7748 C   0  0  0  0  0  0  0  0  0  0  0  0
  -24.6284  -12.3079   19.6558 C   0  0  0  0  0  0  0  0  0  0  0  0
  -25.4403  -13.1353   21.7755 C   0  0  0  0  0  0  0  0  0  0  0  0
  -28.5022  -22.7821   23.1868 C   0  0  0  0  0  0  0  0  0  0  0  0
  -16.9851  -29.6967   23.7041 C   0  0  0  0  0  0  0  0  0  0  0  0
  -19.7246  -30.1871   23.7328 C   0  0  0  0  0  0  0  0  0  0  0  0
  -26.0037  -29.6403   20.3284 C   0  0  0  0  0  0  0  0  0  0  0  0
  -26.8221  -21.0546   23.0142 C   0  0  0  0  0  0  0  0  0  0  0  0
  -25.4268  -11.1725   19.7931 C   0  0  0  0  0  0  0  0  0  0  0  0
  -26.2387  -11.9998   21.9129 C   0  0  0  0  0  0  0  0  0  0  0  0
  -27.2371  -29.0000   20.4398 C   0  0  0  0  0  0  0  0  0  0  0  0
  -26.9786   -7.8852   19.7566 C   0  0  0  0  0  0  0  0  0  0  0  0
  -26.4037   -6.6488   19.4629 C   0  0  0  0  0  0  0  0  0  0  0  0
  -27.3945  -22.3806   21.0775 C   0  0  0  0  0  0  0  0  0  0  0  0
  -26.2768  -26.9987   19.4954 C   0  0  0  0  0  0  0  0  0  0  0  0
  -24.7508   -7.0074   21.1881 C   0  0  0  0  0  0  0  0  0  0  0  0
  -24.6352  -13.2893   20.6470 C   0  0  0  0  0  0  0  0  0  0  0  0
  -28.3238  -23.0903   21.8381 C   0  0  0  0  0  0  0  0  0  0  0  0
  -22.4852  -14.6289   20.9486 C   0  0  0  0  0  0  0  0  0  0  0  0
  -17.8622  -28.7317   23.1843 C   0  0  0  0  0  0  0  0  0  0  0  0
  -24.8930  -28.9600   19.8089 C   0  0  0  0  0  0  0  0  0  0  0  0
  -19.2491  -28.9736   23.2075 C   0  0  0  0  0  0  0  0  0  0  0  0
  -25.0310  -27.6335   19.3761 C   0  0  0  0  0  0  0  0  0  0  0  0
  -26.6437  -21.3627   21.6656 C   0  0  0  0  0  0  0  0  0  0  0  0
  -26.2320  -11.0184   20.9216 C   0  0  0  0  0  0  0  0  0  0  0  0
  -27.3731  -27.6781   20.0260 C   0  0  0  0  0  0  0  0  0  0  0  0
  -26.4396   -8.6828   20.7662 C   0  0  0  0  0  0  0  0  0  0  0  0
  -25.2898   -6.2099   20.1786 C   0  0  0  0  0  0  0  0  0  0  0  0
  -25.3257   -8.2439   21.4819 C   0  0  0  0  0  0  0  0  0  0  0  0
  -23.8110  -14.4627   20.5054 C   0  0  0  0  0  0  0  0  0  0  0  0
  -22.1565  -15.9093   20.5757 C   0  0  0  0  0  0  0  0  0  0  0  0
  -29.1243  -24.1746   21.2131 C   0  0  0  0  0  0  0  0  0  0  0  0
  -21.6276  -13.7082   21.6359 C   0  0  0  0  0  0  0  0  0  0  0  0
  -22.0415  -28.1278   20.9404 C   0  0  0  0  0  0  0  0  0  0  0  0
  -21.5408  -27.1684   17.8825 C   0  0  0  0  0  0  0  0  0  0  0  0
  -22.8735  -26.1454   14.9119 C   0  0  0  0  0  0  0  0  0  0  0  0
  -25.3999  -20.8204   19.5430 C   0  0  0  0  0  0  0  0  0  0  0  0
  -17.2922  -27.4308   22.6770 C   0  0  0  0  0  0  0  0  0  0  0  0
  -23.5760  -29.6733   19.6705 C   0  0  0  0  0  0  0  0  0  0  0  0
  -23.8743  -26.8653   18.7926 C   0  0  0  0  0  0  0  0  0  0  0  0
  -18.2694  -26.6311   21.8192 C   0  0  0  0  0  0  0  0  0  0  0  0
  -23.1702  -19.2245   17.2718 C   0  0  0  0  0  0  0  0  0  0  0  0
  -19.6398  -26.5709   22.4863 C   0  0  0  0  0  0  0  0  0  0  0  0
  -22.9560  -17.8396   17.8868 C   0  0  0  0  0  0  0  0  0  0  0  0
  -24.6040  -19.7151   17.4646 C   0  0  0  0  0  0  0  0  0  0  0  0
  -24.8740  -18.3038   19.4657 C   0  0  0  0  0  0  0  0  0  0  0  0
  -20.2373  -27.9740   22.6469 C   0  0  1  0  0  0  0  0  0  0  0  0
  -22.3853  -28.7219   19.6038 C   0  0  1  0  0  0  0  0  0  0  0  0
  -23.4274  -17.7953   19.3535 C   0  0  2  0  0  0  0  0  0  0  0  0
  -22.2121  -25.3961   12.6101 C   0  0  0  0  0  0  0  0  0  0  0  0
  -20.7519  -24.4409   18.9996 C   0  0  0  0  0  0  0  0  0  0  0  0
  -21.0286  -23.4957   16.6978 C   0  0  0  0  0  0  0  0  0  0  0  0
  -19.3129  -25.2557   17.1235 C   0  0  0  0  0  0  0  0  0  0  0  0
  -24.2917  -28.4109   13.6410 C   0  0  0  0  0  0  0  0  0  0  0  0
  -30.3257  -26.3094   21.6070 C   0  0  0  0  0  0  0  0  0  0  0  0
  -29.4319  -27.4664   21.1975 C   0  0  0  0  0  0  0  0  0  1  0  0
  -21.7608  -25.8877   17.1142 C   0  0  1  0  0  0  0  0  0  0  0  0
  -22.6009  -26.5792   13.4830 C   0  0  2  0  0  0  0  0  0  0  0  0
  -20.7351  -24.7836   17.4965 C   0  0  0  0  0  0  0  0  0  0  0  0
  -24.2916  -15.5505   19.8973 N   0  0  0  0  0  0  0  0  0  0  0  0
  -23.2622  -16.4125   19.9557 N   0  0  0  0  0  0  0  0  0  0  0  0
  -22.6056  -27.6043   18.6837 N   0  0  0  0  0  0  0  0  0  0  0  0
  -24.9796  -19.6488   18.8786 N   0  0  0  0  0  0  0  0  0  0  0  0
  -21.0323  -16.6425   20.7209 N   0  0  0  0  0  0  0  0  0  0  0  0
  -22.1241  -12.4339   21.9423 N   0  0  0  0  0  0  0  0  0  0  0  0
  -25.6999  -20.6414   20.8931 N   0  0  0  0  0  0  0  0  0  0  0  0
  -29.5617  -25.1799   22.0663 N   0  0  0  0  0  0  0  0  0  0  0  0
  -20.7722  -28.4428   21.3865 N   0  0  0  0  0  0  0  0  0  0  0  0
  -21.7481  -26.2517   15.7015 N   0  0  0  0  0  0  0  0  0  0  0  0
  -23.8122  -27.2185   12.8957 N   0  3  0  0  0  0  0  0  0  0  0  0
  -29.3374  -24.1423   20.0039 O   0  0  0  0  0  0  0  0  0  0  0  0
  -20.4500  -14.0011   21.9540 O   0  0  0  0  0  0  0  0  0  0  0  0
  -22.8663  -27.4337   21.5232 O   0  0  0  0  0  0  0  0  0  0  0  0
  -20.4665  -27.7641   17.7701 O   0  0  0  0  0  0  0  0  0  0  0  0
  -23.9737  -25.7481   15.2890 O   0  0  0  0  0  0  0  0  0  0  0  0
  -25.4612  -21.9081   18.9643 O   0  0  0  0  0  0  0  0  0  0  0  0
  -27.0110   -9.9104   21.0561 O   0  0  0  0  0  0  0  0  0  0  0  0
  -28.5757  -27.0506   20.1343 O   0  0  0  0  0  0  0  0  0  1  0  0
  -24.7369   -5.0232   19.8953 F   0  0  0  0  0  0  0  0  0  0  0  0
  -24.8028   -9.0062   22.4521 F   0  0  0  0  0  0  0  0  0  0  0  0
  1  2  1  0  0  0  0
  1  7  2  0  0  0  0
  2  8  2  0  0  0  0
  3  6  2  0  0  0  0
  3 10  1  0  0  0  0
  4 11  2  0  0  0  0
  4 19  1  0  0  0  0
  5 12  1  0  0  0  0
  5 19  2  0  0  0  0
  6 20  1  0  0  0  0
  7 22  1  0  0  0  0
  8 24  1  0  0  0  0
  9 13  2  0  0  0  0
  9 23  1  0  0  0  0
 10 26  2  0  0  0  0
 11 27  1  0  0  0  0
 12 27  2  0  0  0  0
 13 28  1  0  0  0  0
 14 15  2  0  0  0  0
 14 29  1  0  0  0  0
 15 30  1  0  0  0  0
 16 20  2  0  0  0  0
 16 26  1  0  0  0  0
 17 25  1  0  0  0  0
 17 28  2  0  0  0  0
 18 30  2  0  0  0  0
 18 31  1  0  0  0  0
 19 32  1  0  0  0  0
 20 34  1  0  0  0  0
 21 32  1  0  0  0  0
 21 33  2  0  0  0  0
 21 35  1  0  0  0  0
 22 24  2  0  0  0  0
 22 40  1  0  0  0  0
 23 25  2  0  0  0  0
 23 41  1  0  0  0  0
 24 49  1  0  0  0  0
 25 42  1  0  0  0  0
 26 68  1  0  0  0  0
 27 79  1  0  0  0  0
 28 80  1  0  0  0  0
 29 31  2  0  0  0  0
 29 79  1  0  0  0  0
 30 81  1  0  0  0  0
 31 82  1  0  0  0  0
 32 62  2  0  0  0  0
 33 63  1  0  0  0  0
 33 66  1  0  0  0  0
 34 69  1  0  0  0  0
 34 73  2  0  0  0  0
 35 67  1  0  0  0  0
 35 74  2  0  0  0  0
 36 50  1  0  0  0  0
 36 70  1  0  0  0  0
 36 75  2  0  0  0  0
 37 59  1  0  0  0  0
 37 64  1  0  0  0  0
 37 76  2  0  0  0  0
 38 60  1  0  0  0  0
 38 71  1  0  0  0  0
 38 77  2  0  0  0  0
 39 65  1  0  0  0  0
 39 68  1  0  0  0  0
 39 78  2  0  0  0  0
 40 43  1  0  0  0  0
 41 50  1  0  0  0  0
 42 64  1  0  0  0  0
 43 45  1  0  0  0  0
 44 46  1  0  0  0  0
 44 47  1  0  0  0  0
 45 49  1  0  0  0  0
 46 51  1  0  0  0  0
 47 65  1  0  0  0  0
 48 51  1  0  0  0  0
 48 65  1  0  0  0  0
 49 70  1  0  0  0  0
 50 64  1  0  0  0  0
 51 63  1  0  0  0  0
 52 60  1  0  0  0  0
 53 61  1  0  0  0  0
 54 61  1  0  0  0  0
 55 61  1  0  0  0  0
 56 72  1  0  0  0  0
 57 58  1  0  0  0  0
 57 69  1  0  0  0  0
 58 80  1  0  0  0  0
 59 61  1  0  0  0  0
 59 71  1  0  0  0  0
 60 72  1  0  0  0  0
 62 63  1  0  0  0  0
M  CHG  1  72   1
M  ISO  4  39 100  58 101  68 100  80 101
M  END
> <Batch ID>
0002

> <Smiles>
CNC(C)C(=O)NC(C(=O)N1Cc2cc([101O:1][101CH2:1]CNC(=O)c3cccc([100NH:0][100C:0](=O)N4CCCC(n5nc(-c6ccc(Oc7ccc(F)cc7F)cc6)c(C(N)=O)c5N)C4)c3)ccc2CC1C(=O)NC1CCCc2ccccc21)C(C)(C)C

> <Shape>
0.205

> <Color>
0.100

> <Negative vol penalty>
0.000

$$$$

  -OEChem-04042320173D

 85 94  0     1  0  0  0  0  0999 V2000
  -26.1820  -33.8444   27.9236 C   0  0  0  0  0  0  0  0  0  0  0  0
  -25.2481  -32.8323   28.1210 C   0  0  0  0  0  0  0  0  0  0  0  0
  -29.8974  -16.5772   25.9049 C   0  0  0  0  0  0  0  0  0  0  0  0
  -23.4855  -11.2567   23.0104 C   0  0  0  0  0  0  0  0  0  0  0  0
  -24.5033   -9.4156   21.8224 C   0  0  0  0  0  0  0  0  0  0  0  0
  -26.5771  -34.1842   26.6304 C   0  0  0  0  0  0  0  0  0  0  0  0
  -24.7079  -32.1601   27.0252 C   0  0  0  0  0  0  0  0  0  0  0  0
  -24.5966  -24.5194   25.4023 C   0  0  0  0  0  0  0  0  0  0  0  0
  -30.6137  -16.0528   24.8291 C   0  0  0  0  0  0  0  0  0  0  0  0
  -28.8737  -17.4974   25.6789 C   0  0  0  0  0  0  0  0  0  0  0  0
  -22.9524  -10.3629   23.9390 C   0  0  0  0  0  0  0  0  0  0  0  0
  -23.9701   -8.5217   22.7511 C   0  0  0  0  0  0  0  0  0  0  0  0
  -24.6524  -23.2082   24.9293 C   0  0  0  0  0  0  0  0  0  0  0  0
  -20.9859   -7.0586   23.3715 C   0  0  0  0  0  0  0  0  0  0  0  0
  -20.3863   -5.8977   22.8832 C   0  0  0  0  0  0  0  0  0  0  0  0
  -24.5315  -24.0131   22.6522 C   0  0  0  0  0  0  0  0  0  0  0  0
  -21.9766   -4.5586   24.1140 C   0  0  0  0  0  0  0  0  0  0  0  0
  -24.2610  -10.7831   21.9521 C   0  0  0  0  0  0  0  0  0  0  0  0
  -24.1007  -12.5878   20.1563 C   0  0  0  0  0  0  0  0  0  0  0  0
  -26.0487  -33.5093   25.5187 C   0  0  0  0  0  0  0  0  0  0  0  0
  -24.5234  -25.5846   24.5004 C   0  0  0  0  0  0  0  0  0  0  0  0
  -25.0953  -32.4921   25.7159 C   0  0  0  0  0  0  0  0  0  0  0  0
  -24.4879  -25.3293   23.1197 C   0  0  0  0  0  0  0  0  0  0  0  0
  -30.3065  -16.4486   23.5273 C   0  0  0  0  0  0  0  0  0  0  0  0
  -29.2828  -17.3688   23.3013 C   0  0  0  0  0  0  0  0  0  0  0  0
  -28.5664  -17.8932   24.3772 C   0  0  0  0  0  0  0  0  0  0  0  0
  -23.1947   -8.9954   23.8094 C   0  0  0  0  0  0  0  0  0  0  0  0
  -24.6197  -22.9557   23.5577 C   0  0  0  0  0  0  0  0  0  0  0  0
  -22.0810   -6.9695   24.2309 C   0  0  0  0  0  0  0  0  0  0  0  0
  -20.8816   -4.6477   23.2544 C   0  0  0  0  0  0  0  0  0  0  0  0
  -22.5763   -5.7195   24.6022 C   0  0  0  0  0  0  0  0  0  0  0  0
  -24.8116  -11.7059   20.9922 C   0  0  0  0  0  0  0  0  0  0  0  0
  -25.0736  -13.2404   19.4393 C   0  0  0  0  0  0  0  0  0  0  0  0
  -22.6874  -12.7984   20.0385 C   0  0  0  0  0  0  0  0  0  0  0  0
  -24.3551  -29.3001   24.0082 C   0  0  0  0  0  0  0  0  0  0  0  0
  -26.2374  -28.1998   21.8503 C   0  0  0  0  0  0  0  0  0  0  0  0
  -28.5668  -26.6443   19.9031 C   0  0  0  0  0  0  0  0  0  0  0  0
  -30.8754  -14.2743   20.6437 C   0  0  0  0  0  0  0  0  0  0  0  0
  -26.4709  -33.9439   24.1375 C   0  0  0  0  0  0  0  0  0  0  0  0
  -24.3993  -27.0097   24.9667 C   0  0  0  0  0  0  0  0  0  0  0  0
  -24.3739  -26.5045   22.1876 C   0  0  0  0  0  0  0  0  0  0  0  0
  -26.1308  -32.9290   23.0491 C   0  0  0  0  0  0  0  0  0  0  0  0
  -29.4947  -12.6703   17.7247 C   0  0  0  0  0  0  0  0  0  0  0  0
  -24.6966  -32.4349   23.2092 C   0  0  0  0  0  0  0  0  0  0  0  0
  -28.0850  -12.2868   18.1732 C   0  0  0  0  0  0  0  0  0  0  0  0
  -25.3252  -19.3697   23.2318 C   0  0  0  0  0  0  0  0  0  0  0  0
  -26.8484  -21.1814   24.0346 C   0  0  0  0  0  0  0  0  0  0  0  0
  -30.4921  -12.5767   18.8748 C   0  0  0  0  0  0  0  0  0  0  0  0
  -26.1644  -18.3323   23.9725 C   0  0  0  0  0  0  0  0  0  0  0  0
  -27.6862  -20.1471   24.7799 C   0  0  0  0  0  0  0  0  0  0  0  0
  -28.6913  -13.0019   20.5281 C   0  0  0  0  0  0  0  0  0  0  0  0
  -24.5051  -31.7231   24.5538 C   0  0  1  0  0  0  0  0  0  0  0  0
  -25.1213  -28.0107   24.0469 C   0  0  1  0  0  0  0  0  0  0  0  0
  -27.6522  -13.1108   19.3988 C   0  0  2  0  0  0  0  0  0  0  0  0
  -25.3965  -20.7377   23.8983 C   0  0  0  0  0  0  0  0  0  1  0  0
  -28.9566  -17.7908   21.9030 C   0  0  0  0  0  0  0  0  0  0  0  0
  -30.2377  -27.1000   18.0871 C   0  0  0  0  0  0  0  0  0  0  0  0
  -23.9721  -28.3756   19.8151 C   0  0  0  0  0  0  0  0  0  0  0  0
  -25.6421  -27.8730   18.0188 C   0  0  0  0  0  0  0  0  0  0  0  0
  -25.8769  -29.9407   19.3944 C   0  0  0  0  0  0  0  0  0  0  0  0
  -30.8240  -25.7515   21.5963 C   0  0  0  0  0  0  0  0  0  0  0  0
  -31.0892  -15.8715   22.3934 C   0  0  0  0  0  0  0  0  0  0  0  0
  -26.3834  -27.6940   20.4374 C   0  0  1  0  0  0  0  0  0  0  0  0
  -30.0102  -26.9921   19.5869 C   0  0  2  0  0  0  0  0  0  0  0  0
  -25.4651  -28.4530   19.4383 C   0  0  0  0  0  0  0  0  0  0  0  0
  -26.1339  -11.7881   20.8228 N   0  0  0  0  0  0  0  0  0  0  0  0
  -26.2617  -12.7293   19.8722 N   0  0  0  0  0  0  0  0  0  0  0  0
  -27.5347  -18.8179   24.1712 N   0  0  0  0  0  0  0  0  0  0  0  0
  -25.2543  -27.5926   22.6410 N   0  0  0  0  0  0  0  0  0  0  0  0
  -30.0331  -13.3379   20.0361 N   0  0  0  0  0  0  0  0  0  0  0  0
  -25.0201  -14.1957   18.4869 N   0  0  0  0  0  0  0  0  0  0  0  0
  -21.9716  -12.0259   19.1138 N   0  0  0  0  0  0  0  0  0  0  0  0
  -25.0548  -30.3854   24.5003 N   0  0  0  0  0  0  0  0  0  0  0  0
  -27.8053  -27.7731   20.1205 N   0  0  0  0  0  0  0  0  0  0  0  0
  -30.9251  -25.9470   20.1271 N   0  3  0  0  0  0  0  0  0  0  0  0
  -22.0801  -13.6579   20.7211 O   0  0  0  0  0  0  0  0  0  0  0  0
  -23.2133  -29.3113   23.5633 O   0  0  0  0  0  0  0  0  0  0  0  0
  -26.9698  -29.1123   22.2430 O   0  0  0  0  0  0  0  0  0  0  0  0
  -28.1550  -25.4872   19.9487 O   0  0  0  0  0  0  0  0  0  0  0  0
  -32.0196  -14.5233   20.2683 O   0  0  0  0  0  0  0  0  0  0  0  0
  -22.6747   -8.1229   24.7155 O   0  0  0  0  0  0  0  0  0  0  0  0
  -24.6790  -21.6734   23.1026 O   0  0  0  0  0  0  0  0  0  1  0  0
  -30.2899  -14.8958   21.7147 O   0  0  0  0  0  0  0  0  0  0  0  0
  -20.3046   -3.5330   22.7867 F   0  0  0  0  0  0  0  0  0  0  0  0
  -23.6272   -5.6275   25.4285 F   0  0  0  0  0  0  0  0  0  0  0  0
  1  2  1  0  0  0  0
  1  6  2  0  0  0  0
  2  7  2  0  0  0  0
  3  9  1  0  0  0  0
  3 10  2  0  0  0  0
  4 11  2  0  0  0  0
  4 18  1  0  0  0  0
  5 12  1  0  0  0  0
  5 18  2  0  0  0  0
  6 20  1  0  0  0  0
  7 22  1  0  0  0  0
  8 13  2  0  0  0  0
  8 21  1  0  0  0  0
  9 24  2  0  0  0  0
 10 26  1  0  0  0  0
 11 27  1  0  0  0  0
 12 27  2  0  0  0  0
 13 28  1  0  0  0  0
 14 15  2  0  0  0  0
 14 29  1  0  0  0  0
 15 30  1  0  0  0  0
 16 23  1  0  0  0  0
 16 28  2  0  0  0  0
 17 30  2  0  0  0  0
 17 31  1  0  0  0  0
 18 32  1  0  0  0  0
 19 32  1  0  0  0  0
 19 33  2  0  0  0  0
 19 34  1  0  0  0  0
 20 22  2  0  0  0  0
 20 39  1  0  0  0  0
 21 23  2  0  0  0  0
 21 40  1  0  0  0  0
 22 52  1  0  0  0  0
 23 41  1  0  0  0  0
 24 25  1  0  0  0  0
 24 62  1  0  0  0  0
 25 26  2  0  0  0  0
 25 56  1  0  0  0  0
 26 68  1  0  0  0  0
 27 81  1  0  0  0  0
 28 82  1  0  0  0  0
 29 31  2  0  0  0  0
 29 81  1  0  0  0  0
 30 84  1  0  0  0  0
 31 85  1  0  0  0  0
 32 66  2  0  0  0  0
 33 67  1  0  0  0  0
 33 71  1  0  0  0  0
 34 72  1  0  0  0  0
 34 76  2  0  0  0  0
 35 53  1  0  0  0  0
 35 73  1  0  0  0  0
 35 77  2  0  0  0  0
 36 63  1  0  0  0  0
 36 69  1  0  0  0  0
 36 78  2  0  0  0  0
 37 64  1  0  0  0  0
 37 74  1  0  0  0  0
 37 79  2  0  0  0  0
 38 70  1  0  0  0  0
 38 80  2  0  0  0  0
 38 83  1  0  0  0  0
 39 42  1  0  0  0  0
 40 53  1  0  0  0  0
 41 69  1  0  0  0  0
 42 44  1  0  0  0  0
 43 45  1  0  0  0  0
 43 48  1  0  0  0  0
 44 52  1  0  0  0  0
 45 54  1  0  0  0  0
 46 49  1  0  0  0  0
 46 55  1  0  0  0  0
 47 50  1  0  0  0  0
 47 55  1  0  0  0  0
 48 70  1  0  0  0  0
 49 68  1  0  0  0  0
 50 68  1  0  0  0  0
 51 54  1  0  0  0  0
 51 70  1  0  0  0  0
 52 73  1  0  0  0  0
 53 69  1  0  0  0  0
 54 67  1  0  0  0  0
 55 82  1  0  0  0  0
 57 64  1  0  0  0  0
 58 65  1  0  0  0  0
 59 65  1  0  0  0  0
 60 65  1  0  0  0  0
 61 75  1  0  0  0  0
 62 83  1  0  0  0  0
 63 65  1  0  0  0  0
 63 74  1  0  0  0  0
 64 75  1  0  0  0  0
 66 67  1  0  0  0  0
M  CHG  1  75   1
M  ISO  4  38 100  55 101  82 101  83 100
M  END
> <Batch ID>
0002

> <Smiles>
CNC(C)C(=O)NC(C(=O)N1Cc2cc([101O:1][101CH:1]3CCN(c4cccc(C[100O:0][100C:0](=O)N5CCCC(n6nc(-c7ccc(Oc8ccc(F)cc8F)cc7)c(C(N)=O)c6N)C5)c4C)CC3)ccc2CC1C(=O)NC1CCCc2ccccc21)C(C)(C)C

> <Shape>
0.271

> <Color>
0.111

> <Negative vol penalty>
0.000

$$$$

  -OEChem-04042320173D

 87 96  0     1  0  0  0  0  0999 V2000
  -18.2131  -28.4050   22.9460 C   0  0  0  0  0  0  0  0  0  0  0  0
  -17.6857  -27.1180   22.9166 C   0  0  0  0  0  0  0  0  0  0  0  0
  -25.8648  -15.9562   22.0909 C   0  0  0  0  0  0  0  0  0  0  0  0
  -27.5015  -14.1832   19.2700 C   0  0  0  0  0  0  0  0  0  0  0  0
  -26.3355  -28.4060   19.0232 C   0  0  0  0  0  0  0  0  0  0  0  0
  -26.9699  -27.5658   21.1977 C   0  0  0  0  0  0  0  0  0  0  0  0
  -19.5240  -28.6297   22.5276 C   0  0  0  0  0  0  0  0  0  0  0  0
  -18.4686  -26.0550   22.4677 C   0  0  0  0  0  0  0  0  0  0  0  0
  -19.5319  -19.0549   23.5561 C   0  0  0  0  0  0  0  0  0  0  0  0
  -25.0412  -14.9528   22.6020 C   0  0  0  0  0  0  0  0  0  0  0  0
  -28.3252  -15.1867   18.7589 C   0  0  0  0  0  0  0  0  0  0  0  0
  -25.4997  -29.3438   19.6293 C   0  0  0  0  0  0  0  0  0  0  0  0
  -26.1341  -28.5036   21.8039 C   0  0  0  0  0  0  0  0  0  0  0  0
  -19.5965  -17.8531   22.8524 C   0  0  0  0  0  0  0  0  0  0  0  0
  -24.4429  -30.9144   23.9361 C   0  0  0  0  0  0  0  0  0  0  0  0
  -24.9428  -31.6169   25.0325 C   0  0  0  0  0  0  0  0  0  0  0  0
  -25.8421  -13.4309   20.9080 C   0  0  0  0  0  0  0  0  0  0  0  0
  -27.5242  -16.7086   20.4529 C   0  0  0  0  0  0  0  0  0  0  0  0
  -21.8737  -18.3478   22.2286 C   0  0  0  0  0  0  0  0  0  0  0  0
  -26.7201  -32.5012   23.6554 C   0  0  0  0  0  0  0  0  0  0  0  0
  -26.6774  -14.4289   20.3803 C   0  0  0  0  0  0  0  0  0  0  0  0
  -26.6889  -15.7105   20.9806 C   0  0  0  0  0  0  0  0  0  0  0  0
  -27.0706  -27.5169   19.8073 C   0  0  0  0  0  0  0  0  0  0  0  0
  -29.2919  -26.7087   18.8480 C   0  0  0  0  0  0  0  0  0  0  0  0
  -20.3265  -27.5674   22.0824 C   0  0  0  0  0  0  0  0  0  0  0  0
  -20.6359  -19.9188   23.5924 C   0  0  0  0  0  0  0  0  0  0  0  0
  -19.7910  -26.2659   22.0416 C   0  0  0  0  0  0  0  0  0  0  0  0
  -21.8213  -19.5588   22.9356 C   0  0  0  0  0  0  0  0  0  0  0  0
  -25.0298  -13.6926   22.0117 C   0  0  0  0  0  0  0  0  0  0  0  0
  -28.3365  -16.4469   19.3492 C   0  0  0  0  0  0  0  0  0  0  0  0
  -25.3989  -29.3926   21.0197 C   0  0  0  0  0  0  0  0  0  0  0  0
  -20.7666  -17.5007   22.1861 C   0  0  0  0  0  0  0  0  0  0  0  0
  -25.0816  -31.0052   22.6993 C   0  0  0  0  0  0  0  0  0  0  0  0
  -26.0814  -32.4104   24.8922 C   0  0  0  0  0  0  0  0  0  0  0  0
  -26.2202  -31.7987   22.5590 C   0  0  0  0  0  0  0  0  0  0  0  0
  -27.9338  -26.5476   19.1817 C   0  0  0  0  0  0  0  0  0  0  0  0
  -29.6507  -25.5102   18.2811 C   0  0  0  0  0  0  0  0  0  0  0  0
  -30.1522  -27.8405   19.0338 C   0  0  0  0  0  0  0  0  0  0  0  0
  -21.1882  -22.8948   22.6219 C   0  0  0  0  0  0  0  0  0  0  0  0
  -24.0224  -22.4476   24.1351 C   0  0  0  0  0  0  0  0  0  0  0  0
  -26.3804  -20.2643   25.2840 C   0  0  0  0  0  0  0  0  0  0  0  0
  -28.6788  -19.9377   18.9245 C   0  0  0  0  0  0  0  0  0  0  0  0
  -21.7222  -27.8666   21.5954 C   0  0  0  0  0  0  0  0  0  0  0  0
  -20.5590  -21.1990   24.3781 C   0  0  0  0  0  0  0  0  0  0  0  0
  -23.0413  -20.4417   22.9606 C   0  0  0  0  0  0  0  0  0  0  0  0
  -22.6081  -26.6282   21.4872 C   0  0  0  0  0  0  0  0  0  0  0  0
  -27.1874  -21.7706   16.1834 C   0  0  0  0  0  0  0  0  0  0  0  0
  -21.8609  -25.4966   20.7887 C   0  0  0  0  0  0  0  0  0  0  0  0
  -27.3641  -23.2160   16.6522 C   0  0  0  0  0  0  0  0  0  0  0  0
  -26.8628  -20.8459   17.3529 C   0  0  0  0  0  0  0  0  0  0  0  0
  -28.0327  -22.3303   18.9344 C   0  0  0  0  0  0  0  0  0  0  0  0
  -20.6170  -25.0831   21.5846 C   0  0  1  0  0  0  0  0  0  0  0  0
  -21.5726  -22.2431   23.9200 C   0  0  1  0  0  0  0  0  0  0  0  0
  -28.3849  -23.3114   17.8015 C   0  0  2  0  0  0  0  0  0  0  0  0
  -28.6047  -20.1978   26.4440 C   0  0  0  0  0  0  0  0  0  0  0  0
  -25.3960  -23.2913   21.5445 C   0  0  0  0  0  0  0  0  0  0  0  0
  -27.5211  -22.3108   22.4337 C   0  0  0  0  0  0  0  0  0  0  0  0
  -26.4340  -24.2144   23.6242 C   0  0  0  0  0  0  0  0  0  0  0  0
  -25.2750  -18.7380   27.5660 C   0  0  0  0  0  0  0  0  0  0  0  0
  -24.1433  -12.6138   22.5633 C   0  0  0  0  0  0  0  0  0  0  0  0
  -29.2177  -17.5187   18.8017 C   0  0  0  0  0  0  0  0  0  0  0  0
  -22.7526  -12.5786   21.9377 C   0  0  0  0  0  0  0  0  0  0  0  0
  -20.6804  -13.9307   21.5963 C   0  0  0  0  0  0  0  0  0  0  0  0
  -20.0342  -15.2476   21.9787 C   0  0  0  0  0  0  0  0  0  1  0  0
  -25.3780  -21.9197   23.7318 C   0  0  1  0  0  0  0  0  0  0  0  0
  -27.0945  -20.1639   26.6198 C   0  0  2  0  0  0  0  0  0  0  0  0
  -26.1588  -22.9181   22.8313 C   0  0  0  0  0  0  0  0  0  0  0  0
  -27.4618  -25.3418   18.8540 N   0  0  0  0  0  0  0  0  0  0  0  0
  -28.5293  -24.7344   18.3084 N   0  0  0  0  0  0  0  0  0  0  0  0
  -22.9144  -21.6860   23.7372 N   0  0  0  0  0  0  0  0  0  0  0  0
  -27.8824  -20.9712   18.4039 N   0  0  0  0  0  0  0  0  0  0  0  0
  -30.8129  -25.0549   17.7669 N   0  0  0  0  0  0  0  0  0  0  0  0
  -29.6221  -28.9916   19.6324 N   0  0  0  0  0  0  0  0  0  0  0  0
  -20.9906  -24.2593   22.7143 N   0  0  0  0  0  0  0  0  0  0  0  0
  -26.0647  -21.5694   24.9704 N   0  0  0  0  0  0  0  0  0  0  0  0
  -28.4697  -18.6796   18.3730 N   0  0  0  0  0  0  0  0  0  0  0  0
  -26.7298  -18.8933   27.3079 N   0  3  0  0  0  0  0  0  0  0  0  0
  -22.0261  -13.8465   22.2177 N   0  3  0  0  0  0  0  0  0  0  0  0
  -31.3510  -27.8372   18.6647 O   0  0  0  0  0  0  0  0  0  0  0  0
  -21.0804  -22.2106   21.6110 O   0  0  0  0  0  0  0  0  0  0  0  0
  -23.9496  -23.4932   24.7855 O   0  0  0  0  0  0  0  0  0  0  0  0
  -26.1312  -19.2835   24.5865 O   0  0  0  0  0  0  0  0  0  0  0  0
  -29.5185  -20.1233   19.8120 O   0  0  0  0  0  0  0  0  0  0  0  0
  -24.5836  -30.3078   21.6116 O   0  0  0  0  0  0  0  0  0  0  0  0
  -20.8322  -16.3286   21.4979 O   0  0  0  0  0  0  0  0  0  1  0  0
  -26.5604  -33.0862   25.9448 F   0  0  0  0  0  0  0  0  0  0  0  0
  -26.8374  -31.8908   21.3731 F   0  0  0  0  0  0  0  0  0  0  0  0
  1  2  1  0  0  0  0
  1  7  2  0  0  0  0
  2  8  2  0  0  0  0
  3 10  2  0  0  0  0
  3 22  1  0  0  0  0
  4 11  2  0  0  0  0
  4 21  1  0  0  0  0
  5 12  2  0  0  0  0
  5 23  1  0  0  0  0
  6 13  1  0  0  0  0
  6 23  2  0  0  0  0
  7 25  1  0  0  0  0
  8 27  1  0  0  0  0
  9 14  2  0  0  0  0
  9 26  1  0  0  0  0
 10 29  1  0  0  0  0
 11 30  1  0  0  0  0
 12 31  1  0  0  0  0
 13 31  2  0  0  0  0
 14 32  1  0  0  0  0
 15 16  2  0  0  0  0
 15 33  1  0  0  0  0
 16 34  1  0  0  0  0
 17 21  1  0  0  0  0
 17 29  2  0  0  0  0
 18 22  1  0  0  0  0
 18 30  2  0  0  0  0
 19 28  1  0  0  0  0
 19 32  2  0  0  0  0
 20 34  2  0  0  0  0
 20 35  1  0  0  0  0
 21 22  2  0  0  0  0
 23 36  1  0  0  0  0
 24 36  1  0  0  0  0
 24 37  2  0  0  0  0
 24 38  1  0  0  0  0
 25 27  2  0  0  0  0
 25 43  1  0  0  0  0
 26 28  2  0  0  0  0
 26 44  1  0  0  0  0
 27 52  1  0  0  0  0
 28 45  1  0  0  0  0
 29 60  1  0  0  0  0
 30 61  1  0  0  0  0
 31 84  1  0  0  0  0
 32 85  1  0  0  0  0
 33 35  2  0  0  0  0
 33 84  1  0  0  0  0
 34 86  1  0  0  0  0
 35 87  1  0  0  0  0
 36 68  2  0  0  0  0
 37 69  1  0  0  0  0
 37 72  1  0  0  0  0
 38 73  1  0  0  0  0
 38 79  2  0  0  0  0
 39 53  1  0  0  0  0
 39 74  1  0  0  0  0
 39 80  2  0  0  0  0
 40 65  1  0  0  0  0
 40 70  1  0  0  0  0
 40 81  2  0  0  0  0
 41 66  1  0  0  0  0
 41 75  1  0  0  0  0
 41 82  2  0  0  0  0
 42 71  1  0  0  0  0
 42 76  1  0  0  0  0
 42 83  2  0  0  0  0
 43 46  1  0  0  0  0
 44 53  1  0  0  0  0
 45 70  1  0  0  0  0
 46 48  1  0  0  0  0
 47 49  1  0  0  0  0
 47 50  1  0  0  0  0
 48 52  1  0  0  0  0
 49 54  1  0  0  0  0
 50 71  1  0  0  0  0
 51 54  1  0  0  0  0
 51 71  1  0  0  0  0
 52 74  1  0  0  0  0
 53 70  1  0  0  0  0
 54 69  1  0  0  0  0
 55 66  1  0  0  0  0
 56 67  1  0  0  0  0
 57 67  1  0  0  0  0
 58 67  1  0  0  0  0
 59 77  1  0  0  0  0
 60 62  1  0  0  0  0
 61 76  1  0  0  0  0
 62 78  1  0  0  0  0
 63 64  1  0  0  0  0
 63 78  1  0  0  0  0
 64 85  1  0  0  0  0
 65 67  1  0  0  0  0
 65 75  1  0  0  0  0
 66 77  1  0  0  0  0
 68 69  1  0  0  0  0
M  CHG  2  77   1  78   1
M  ISO  4  42 100  64 101  76 100  85 101
M  END
> <Batch ID>
0002

> <Smiles>
CNC(C)C(=O)NC(C(=O)N1Cc2cc([101O:1][101CH2:1]CNCCc3ccc4cc(C[100NH:0][100C:0](=O)N5CCCC(n6nc(-c7ccc(Oc8ccc(F)cc8F)cc7)c(C(N)=O)c6N)C5)ccc4c3)ccc2CC1C(=O)NC1CCCc2ccccc21)C(C)(C)C

> <Shape>
0.236

> <Color>
0.054

> <Negative vol penalty>
0.000

$$$$

  -OEChem-04042320173D

 82 90  0     1  0  0  0  0  0999 V2000
  -29.4525  -20.8126   15.7962 C   0  0  0  0  0  0  0  0  0  0  0  0
  -29.0547  -20.8705   17.1280 C   0  0  0  0  0  0  0  0  0  0  0  0
  -23.8429  -14.9252   19.7583 C   0  0  0  0  0  0  0  0  0  0  0  0
  -24.8963  -14.9697   21.9320 C   0  0  0  0  0  0  0  0  0  0  0  0
  -29.8381  -21.9773   15.1338 C   0  0  0  0  0  0  0  0  0  0  0  0
  -29.0432  -22.0931   17.7986 C   0  0  0  0  0  0  0  0  0  0  0  0
  -24.8350  -22.7695   20.5333 C   0  0  0  0  0  0  0  0  0  0  0  0
  -24.9914  -20.3648   28.7471 C   0  0  0  0  0  0  0  0  0  0  0  0
  -23.8238  -20.8049   28.1237 C   0  0  0  0  0  0  0  0  0  0  0  0
  -24.9828  -14.3301   19.2180 C   0  0  0  0  0  0  0  0  0  0  0  0
  -26.0363  -14.3745   21.3917 C   0  0  0  0  0  0  0  0  0  0  0  0
  -24.7573  -22.1059   21.7569 C   0  0  0  0  0  0  0  0  0  0  0  0
  -28.7219  -15.3302   19.5737 C   0  0  0  0  0  0  0  0  0  0  0  0
  -29.9613  -15.8606   19.9315 C   0  0  0  0  0  0  0  0  0  0  0  0
  -25.3795  -24.1408   22.8932 C   0  0  0  0  0  0  0  0  0  0  0  0
  -26.3128  -21.5791   27.1296 C   0  0  0  0  0  0  0  0  0  0  0  0
  -30.6024  -13.7289   20.8706 C   0  0  0  0  0  0  0  0  0  0  0  0
  -23.7996  -15.2450   21.1153 C   0  0  0  0  0  0  0  0  0  0  0  0
  -21.5049  -15.2088   22.2291 C   0  0  0  0  0  0  0  0  0  0  0  0
  -29.8221  -23.2162   15.7937 C   0  0  0  0  0  0  0  0  0  0  0  0
  -25.1968  -24.1233   20.4795 C   0  0  0  0  0  0  0  0  0  0  0  0
  -29.4302  -23.2752   17.1447 C   0  0  0  0  0  0  0  0  0  0  0  0
  -25.4585  -24.8200   21.6679 C   0  0  0  0  0  0  0  0  0  0  0  0
  -26.2359  -20.7520   28.2501 C   0  0  0  0  0  0  0  0  0  0  0  0
  -23.9007  -21.6321   27.0032 C   0  0  0  0  0  0  0  0  0  0  0  0
  -25.1452  -22.0192   26.5061 C   0  0  0  0  0  0  0  0  0  0  0  0
  -26.0795  -14.0547   20.0347 C   0  0  0  0  0  0  0  0  0  0  0  0
  -25.0324  -22.7907   22.9369 C   0  0  0  0  0  0  0  0  0  0  0  0
  -28.4227  -13.9991   19.8644 C   0  0  0  0  0  0  0  0  0  0  0  0
  -30.9016  -15.0600   20.5799 C   0  0  0  0  0  0  0  0  0  0  0  0
  -29.3629  -13.1985   20.5128 C   0  0  0  0  0  0  0  0  0  0  0  0
  -22.6226  -15.8603   21.6739 C   0  0  0  0  0  0  0  0  0  0  0  0
  -20.6693  -16.2286   22.6142 C   0  0  0  0  0  0  0  0  0  0  0  0
  -21.2453  -13.8072   22.3831 C   0  0  0  0  0  0  0  0  0  0  0  0
  -27.5962  -25.7540   19.1807 C   0  0  0  0  0  0  0  0  0  0  0  0
  -25.8806  -28.3187   20.1815 C   0  0  0  0  0  0  0  0  0  0  0  0
  -23.5516  -29.5869   22.3296 C   0  0  0  0  0  0  0  0  0  0  0  0
  -21.6308  -21.9519   24.0874 C   0  0  0  0  0  0  0  0  0  0  0  0
  -30.2927  -24.4410   15.0500 C   0  0  0  0  0  0  0  0  0  0  0  0
  -25.2501  -24.8316   19.1537 C   0  0  0  0  0  0  0  0  0  0  0  0
  -25.8315  -26.2792   21.6659 C   0  0  0  0  0  0  0  0  0  0  0  0
  -29.8944  -25.7523   15.7223 C   0  0  0  0  0  0  0  0  0  0  0  0
  -19.5026  -20.7343   21.5058 C   0  0  0  0  0  0  0  0  0  0  0  0
  -30.1897  -25.6967   17.2178 C   0  0  0  0  0  0  0  0  0  0  0  0
  -19.9600  -19.2883   21.3062 C   0  0  0  0  0  0  0  0  0  0  0  0
  -20.6763  -21.6592   21.8203 C   0  0  0  0  0  0  0  0  0  0  0  0
  -21.9742  -19.7838   22.7541 C   0  0  0  0  0  0  0  0  0  0  0  0
  -29.3807  -24.5863   17.8990 C   0  0  1  0  0  0  0  0  0  0  0  0
  -26.1291  -26.0783   19.1772 C   0  0  1  0  0  0  0  0  0  0  0  0
  -20.8187  -18.8034   22.4898 C   0  0  2  0  0  0  0  0  0  0  0  0
  -28.3222  -21.4416   29.4851 C   0  0  0  0  0  0  0  0  0  0  0  0
  -28.3556  -19.4129   27.9890 C   0  0  0  0  0  0  0  0  0  0  0  0
  -22.3841  -31.7253   22.9309 C   0  0  0  0  0  0  0  0  0  0  0  0
  -28.3993  -29.2913   21.6027 C   0  0  0  0  0  0  0  0  0  0  0  0
  -26.9635  -30.8587   22.9256 C   0  0  0  0  0  0  0  0  0  0  0  0
  -27.0964  -31.0847   20.4449 C   0  0  0  0  0  0  0  0  0  0  0  0
  -20.8958  -28.4563   21.6761 C   0  0  0  0  0  0  0  0  0  0  0  0
  -22.6370  -22.0897   26.3519 C   0  0  0  0  0  0  0  0  0  0  0  0
  -25.2526  -22.9080   25.3020 C   0  0  0  0  0  0  0  0  0  1  0  0
  -27.4841  -20.2809   28.9165 C   0  0  0  0  0  0  0  0  0  0  0  0
  -25.8266  -29.1412   21.4462 C   0  0  1  0  0  0  0  0  0  0  0  0
  -22.3310  -30.4577   22.0924 C   0  0  2  0  0  0  0  0  0  0  0  0
  -27.0663  -30.0660   21.6051 C   0  0  0  0  0  0  0  0  0  0  0  0
  -22.5102  -17.1909   21.7017 N   0  0  0  0  0  0  0  0  0  0  0  0
  -21.3120  -17.3839   22.2789 N   0  0  0  0  0  0  0  0  0  0  0  0
  -25.8764  -26.9261   20.3441 N   0  0  0  0  0  0  0  0  0  0  0  0
  -21.4488  -21.1436   22.9531 N   0  0  0  0  0  0  0  0  0  0  0  0
  -19.4547  -16.2408   23.2033 N   0  0  0  0  0  0  0  0  0  0  0  0
  -22.2102  -12.8956   21.9333 N   0  0  0  0  0  0  0  0  0  0  0  0
  -28.0098  -25.0069   18.0943 N   0  0  0  0  0  0  0  0  0  0  0  0
  -24.5519  -29.8503   21.4178 N   0  0  0  0  0  0  0  0  0  0  0  0
  -22.3699  -21.3844   25.1181 N   0  0  0  0  0  0  0  0  0  0  0  0
  -21.0881  -29.7140   22.4431 N   0  3  0  0  0  0  0  0  0  0  0  0
  -20.1818  -13.3756   22.8892 O   0  0  0  0  0  0  0  0  0  0  0  0
  -28.3011  -26.1535   20.1000 O   0  0  0  0  0  0  0  0  0  0  0  0
  -25.9177  -28.8907   19.0892 O   0  0  0  0  0  0  0  0  0  0  0  0
  -23.6131  -28.7587   23.2356 O   0  0  0  0  0  0  0  0  0  0  0  0
  -21.1643  -23.0926   24.1772 O   0  0  0  0  0  0  0  0  0  0  0  0
  -27.1920  -13.4738   19.5078 O   0  0  0  0  0  0  0  0  0  0  0  0
  -24.9579  -22.1452   24.1326 O   0  0  0  0  0  0  0  0  0  1  0  0
  -32.0924  -15.5690   20.9221 F   0  0  0  0  0  0  0  0  0  0  0  0
  -29.0817  -11.9187   20.7937 F   0  0  0  0  0  0  0  0  0  0  0  0
  1  2  1  0  0  0  0
  1  5  2  0  0  0  0
  2  6  2  0  0  0  0
  3 10  2  0  0  0  0
  3 18  1  0  0  0  0
  4 11  1  0  0  0  0
  4 18  2  0  0  0  0
  5 20  1  0  0  0  0
  6 22  1  0  0  0  0
  7 12  2  0  0  0  0
  7 21  1  0  0  0  0
  8  9  2  0  0  0  0
  8 24  1  0  0  0  0
  9 25  1  0  0  0  0
 10 27  1  0  0  0  0
 11 27  2  0  0  0  0
 12 28  1  0  0  0  0
 13 14  2  0  0  0  0
 13 29  1  0  0  0  0
 14 30  1  0  0  0  0
 15 23  1  0  0  0  0
 15 28  2  0  0  0  0
 16 24  2  0  0  0  0
 16 26  1  0  0  0  0
 17 30  2  0  0  0  0
 17 31  1  0  0  0  0
 18 32  1  0  0  0  0
 19 32  1  0  0  0  0
 19 33  2  0  0  0  0
 19 34  1  0  0  0  0
 20 22  2  0  0  0  0
 20 39  1  0  0  0  0
 21 23  2  0  0  0  0
 21 40  1  0  0  0  0
 22 48  1  0  0  0  0
 23 41  1  0  0  0  0
 24 60  1  0  0  0  0
 25 26  2  0  0  0  0
 25 58  1  0  0  0  0
 26 59  1  0  0  0  0
 27 79  1  0  0  0  0
 28 80  1  0  0  0  0
 29 31  2  0  0  0  0
 29 79  1  0  0  0  0
 30 81  1  0  0  0  0
 31 82  1  0  0  0  0
 32 64  2  0  0  0  0
 33 65  1  0  0  0  0
 33 68  1  0  0  0  0
 34 69  1  0  0  0  0
 34 74  2  0  0  0  0
 35 49  1  0  0  0  0
 35 70  1  0  0  0  0
 35 75  2  0  0  0  0
 36 61  1  0  0  0  0
 36 66  1  0  0  0  0
 36 76  2  0  0  0  0
 37 62  1  0  0  0  0
 37 71  1  0  0  0  0
 37 77  2  0  0  0  0
 38 67  1  0  0  0  0
 38 72  1  0  0  0  0
 38 78  2  0  0  0  0
 39 42  1  0  0  0  0
 40 49  1  0  0  0  0
 41 66  1  0  0  0  0
 42 44  1  0  0  0  0
 43 45  1  0  0  0  0
 43 46  1  0  0  0  0
 44 48  1  0  0  0  0
 45 50  1  0  0  0  0
 46 67  1  0  0  0  0
 47 50  1  0  0  0  0
 47 67  1  0  0  0  0
 48 70  1  0  0  0  0
 49 66  1  0  0  0  0
 50 65  1  0  0  0  0
 51 60  1  0  0  0  0
 52 60  1  0  0  0  0
 53 62  1  0  0  0  0
 54 63  1  0  0  0  0
 55 63  1  0  0  0  0
 56 63  1  0  0  0  0
 57 73  1  0  0  0  0
 58 72  1  0  0  0  0
 59 80  1  0  0  0  0
 61 63  1  0  0  0  0
 61 71  1  0  0  0  0
 62 73  1  0  0  0  0
 64 65  1  0  0  0  0
M  CHG  1  73   1
M  ISO  4  38 100  59 101  72 100  80 101
M  END
> <Batch ID>
0002

> <Smiles>
CNC(C)C(=O)NC(C(=O)N1Cc2cc([101O:1][101CH2:1]c3cc(C(C)C)ccc3C[100NH:0][100C:0](=O)N3CCCC(n4nc(-c5ccc(Oc6ccc(F)cc6F)cc5)c(C(N)=O)c4N)C3)ccc2CC1C(=O)NC1CCCc2ccccc21)C(C)(C)C

> <Shape>
0.178

> <Color>
0.067

> <Negative vol penalty>
0.000

$$$$

  -OEChem-04042320173D

 85 94  0     1  0  0  0  0  0999 V2000
  -36.1189  -15.7537   25.0125 C   0  0  0  0  0  0  0  0  0  0  0  0
  -36.7174  -16.8932   25.5381 C   0  0  0  0  0  0  0  0  0  0  0  0
  -22.9762   -9.9836   19.9798 C   0  0  0  0  0  0  0  0  0  0  0  0
  -23.6284   -9.9722   22.3060 C   0  0  0  0  0  0  0  0  0  0  0  0
  -35.7209  -15.7328   23.6775 C   0  0  0  0  0  0  0  0  0  0  0  0
  -36.9073  -18.0163   24.7322 C   0  0  0  0  0  0  0  0  0  0  0  0
  -31.4460  -18.1908   20.7945 C   0  0  0  0  0  0  0  0  0  0  0  0
  -29.3814  -17.7315   21.9622 C   0  0  0  0  0  0  0  0  0  0  0  0
  -32.9589  -23.9189   21.7615 C   0  0  0  0  0  0  0  0  0  0  0  0
  -22.1432   -8.8884   20.2079 C   0  0  0  0  0  0  0  0  0  0  0  0
  -22.7954   -8.8769   22.5342 C   0  0  0  0  0  0  0  0  0  0  0  0
  -30.8310  -19.2470   20.1225 C   0  0  0  0  0  0  0  0  0  0  0  0
  -28.7663  -18.7878   21.2902 C   0  0  0  0  0  0  0  0  0  0  0  0
  -31.6293  -23.9594   21.3438 C   0  0  0  0  0  0  0  0  0  0  0  0
  -22.8798   -5.5348   22.0296 C   0  0  0  0  0  0  0  0  0  0  0  0
  -23.3887   -4.4803   22.7875 C   0  0  0  0  0  0  0  0  0  0  0  0
  -30.9818  -22.7118   23.3042 C   0  0  0  0  0  0  0  0  0  0  0  0
  -21.6269   -4.7961   24.4102 C   0  0  0  0  0  0  0  0  0  0  0  0
  -23.7188  -10.5255   21.0288 C   0  0  0  0  0  0  0  0  0  0  0  0
  -24.2407  -13.0190   20.8957 C   0  0  0  0  0  0  0  0  0  0  0  0
  -30.7211  -17.4329   21.7144 C   0  0  0  0  0  0  0  0  0  0  0  0
  -35.9177  -16.8522   22.8521 C   0  0  0  0  0  0  0  0  0  0  0  0
  -33.3119  -23.2640   22.9501 C   0  0  0  0  0  0  0  0  0  0  0  0
  -36.4907  -18.0232   23.3887 C   0  0  0  0  0  0  0  0  0  0  0  0
  -32.3161  -22.6666   23.7361 C   0  0  0  0  0  0  0  0  0  0  0  0
  -22.0527   -8.3350   21.4851 C   0  0  0  0  0  0  0  0  0  0  0  0
  -29.4912  -19.5456   20.3704 C   0  0  0  0  0  0  0  0  0  0  0  0
  -30.6409  -23.3533   22.1137 C   0  0  0  0  0  0  0  0  0  0  0  0
  -21.7443   -6.2201   22.4620 C   0  0  0  0  0  0  0  0  0  0  0  0
  -22.7623   -4.1109   23.9777 C   0  0  0  0  0  0  0  0  0  0  0  0
  -21.1179   -5.8507   23.6523 C   0  0  0  0  0  0  0  0  0  0  0  0
  -24.5800  -11.6566   20.7937 C   0  0  0  0  0  0  0  0  0  0  0  0
  -25.3979  -13.6860   20.5754 C   0  0  0  0  0  0  0  0  0  0  0  0
  -22.9913  -13.6274   21.2486 C   0  0  0  0  0  0  0  0  0  0  0  0
  -35.1565  -20.7804   23.6802 C   0  0  0  0  0  0  0  0  0  0  0  0
  -34.4859  -21.6745   26.7254 C   0  0  0  0  0  0  0  0  0  0  0  0
  -32.3794  -23.2827   28.8756 C   0  0  0  0  0  0  0  0  0  0  0  0
  -30.8667  -14.3597   20.9404 C   0  0  0  0  0  0  0  0  0  0  0  0
  -35.4609  -16.7779   21.4165 C   0  0  0  0  0  0  0  0  0  0  0  0
  -34.7470  -23.2522   23.4004 C   0  0  0  0  0  0  0  0  0  0  0  0
  -32.6402  -21.9683   25.0306 C   0  0  0  0  0  0  0  0  0  0  0  0
  -36.1017  -17.8431   20.5328 C   0  0  0  0  0  0  0  0  0  0  0  0
  -31.3105  -15.0211   24.4780 C   0  0  0  0  0  0  0  0  0  0  0  0
  -29.7316  -12.0325   18.5898 C   0  0  0  0  0  0  0  0  0  0  0  0
  -31.3394  -16.4563   23.9677 C   0  0  0  0  0  0  0  0  0  0  0  0
  -35.9756  -19.2090   21.1907 C   0  0  0  0  0  0  0  0  0  0  0  0
  -28.2663  -11.8148   18.9619 C   0  0  0  0  0  0  0  0  0  0  0  0
  -30.5950  -12.1621   19.8383 C   0  0  0  0  0  0  0  0  0  0  0  0
  -30.4395  -14.3151   23.4505 C   0  0  0  0  0  0  0  0  0  0  0  0
  -28.6910  -13.0678   21.1372 C   0  0  0  0  0  0  0  0  0  0  0  0
  -31.3878  -16.2884   22.4433 C   0  0  1  0  0  0  0  0  0  0  0  0
  -36.7352  -19.2458   22.5228 C   0  0  1  0  0  0  0  0  0  0  0  0
  -35.0609  -22.1138   24.3662 C   0  0  1  0  0  0  0  0  0  0  0  0
  -27.7724  -12.9230   19.9066 C   0  0  2  0  0  0  0  0  0  0  0  0
  -32.0766  -23.8117   31.3099 C   0  0  0  0  0  0  0  0  0  0  0  0
  -33.5646  -18.8099   27.2308 C   0  0  0  0  0  0  0  0  0  0  0  0
  -32.4186  -19.6183   29.3048 C   0  0  0  0  0  0  0  0  0  0  0  0
  -34.8957  -19.8211   29.0909 C   0  0  0  0  0  0  0  0  0  0  0  0
  -32.5067  -26.1972   28.3772 C   0  0  0  0  0  0  0  0  0  0  0  0
  -27.8038  -22.7153   19.9720 C   0  0  0  0  0  0  0  0  0  0  0  0
  -27.8394  -21.2564   20.3991 C   0  0  0  0  0  0  0  0  0  0  0  0
  -29.1004  -23.4371   20.3039 C   0  0  0  0  0  0  0  0  0  1  0  0
  -33.4052  -21.3391   27.7248 C   0  0  1  0  0  0  0  0  0  0  0  0
  -32.6442  -24.2880   29.9818 C   0  0  2  0  0  0  0  0  0  0  0  0
  -33.5649  -19.9085   28.3125 C   0  0  0  0  0  0  0  0  0  0  0  0
  -25.8530  -11.4676   20.4363 N   0  0  0  0  0  0  0  0  0  0  0  0
  -26.3238  -12.7201   20.3110 N   0  0  0  0  0  0  0  0  0  0  0  0
  -34.0586  -21.9783   25.4251 N   0  0  0  0  0  0  0  0  0  0  0  0
  -30.0950  -13.2101   20.7290 N   0  0  0  0  0  0  0  0  0  0  0  0
  -30.7609  -14.9823   22.1875 N   0  0  0  0  0  0  0  0  0  0  0  0
  -25.7036  -14.9985   20.4970 N   0  0  0  0  0  0  0  0  0  0  0  0
  -21.9041  -12.7952   21.5485 N   0  0  0  0  0  0  0  0  0  0  0  0
  -36.4208  -20.4781   23.2117 N   0  0  0  0  0  0  0  0  0  0  0  0
  -33.4293  -22.4018   28.7240 N   0  0  0  0  0  0  0  0  0  0  0  0
  -32.0222  -25.6007   29.6486 N   0  3  0  0  0  0  0  0  0  0  0  0
  -22.8388  -14.8721   21.2805 O   0  0  0  0  0  0  0  0  0  0  0  0
  -34.1575  -20.0772   23.5845 O   0  0  0  0  0  0  0  0  0  0  0  0
  -35.6653  -21.6741   27.0871 O   0  0  0  0  0  0  0  0  0  0  0  0
  -31.3432  -23.2771   28.2146 O   0  0  0  0  0  0  0  0  0  0  0  0
  -31.6284  -14.7965   20.0681 O   0  0  0  0  0  0  0  0  0  0  0  0
  -21.2398   -7.2664   21.7081 O   0  0  0  0  0  0  0  0  0  0  0  0
  -28.8916  -20.5772   19.7155 O   0  0  0  0  0  0  0  0  0  0  0  0
  -29.3331  -23.3911   21.7051 O   0  0  0  0  0  0  0  0  0  1  0  0
  -23.2503   -3.0971   24.7046 F   0  0  0  0  0  0  0  0  0  0  0  0
  -20.0261   -6.5045   24.0722 F   0  0  0  0  0  0  0  0  0  0  0  0
  1  2  1  0  0  0  0
  1  5  2  0  0  0  0
  2  6  2  0  0  0  0
  3 10  2  0  0  0  0
  3 19  1  0  0  0  0
  4 11  1  0  0  0  0
  4 19  2  0  0  0  0
  5 22  1  0  0  0  0
  6 24  1  0  0  0  0
  7 12  2  0  0  0  0
  7 21  1  0  0  0  0
  8 13  1  0  0  0  0
  8 21  2  0  0  0  0
  9 14  2  0  0  0  0
  9 23  1  0  0  0  0
 10 26  1  0  0  0  0
 11 26  2  0  0  0  0
 12 27  1  0  0  0  0
 13 27  2  0  0  0  0
 14 28  1  0  0  0  0
 15 16  2  0  0  0  0
 15 29  1  0  0  0  0
 16 30  1  0  0  0  0
 17 25  1  0  0  0  0
 17 28  2  0  0  0  0
 18 30  2  0  0  0  0
 18 31  1  0  0  0  0
 19 32  1  0  0  0  0
 20 32  1  0  0  0  0
 20 33  2  0  0  0  0
 20 34  1  0  0  0  0
 21 51  1  0  0  0  0
 22 24  2  0  0  0  0
 22 39  1  0  0  0  0
 23 25  2  0  0  0  0
 23 40  1  0  0  0  0
 24 52  1  0  0  0  0
 25 41  1  0  0  0  0
 26 81  1  0  0  0  0
 27 82  1  0  0  0  0
 28 83  1  0  0  0  0
 29 31  2  0  0  0  0
 29 81  1  0  0  0  0
 30 84  1  0  0  0  0
 31 85  1  0  0  0  0
 32 66  2  0  0  0  0
 33 67  1  0  0  0  0
 33 71  1  0  0  0  0
 34 72  1  0  0  0  0
 34 76  2  0  0  0  0
 35 53  1  0  0  0  0
 35 73  1  0  0  0  0
 35 77  2  0  0  0  0
 36 63  1  0  0  0  0
 36 68  1  0  0  0  0
 36 78  2  0  0  0  0
 37 64  1  0  0  0  0
 37 74  1  0  0  0  0
 37 79  2  0  0  0  0
 38 69  1  0  0  0  0
 38 70  1  0  0  0  0
 38 80  2  0  0  0  0
 39 42  1  0  0  0  0
 40 53  1  0  0  0  0
 41 68  1  0  0  0  0
 42 46  1  0  0  0  0
 43 45  1  0  0  0  0
 43 49  1  0  0  0  0
 44 47  1  0  0  0  0
 44 48  1  0  0  0  0
 45 51  1  0  0  0  0
 46 52  1  0  0  0  0
 47 54  1  0  0  0  0
 48 69  1  0  0  0  0
 49 70  1  0  0  0  0
 50 54  1  0  0  0  0
 50 69  1  0  0  0  0
 51 70  1  0  0  0  0
 52 73  1  0  0  0  0
 53 68  1  0  0  0  0
 54 67  1  0  0  0  0
 55 64  1  0  0  0  0
 56 65  1  0  0  0  0
 57 65  1  0  0  0  0
 58 65  1  0  0  0  0
 59 75  1  0  0  0  0
 60 61  1  0  0  0  0
 60 62  1  0  0  0  0
 61 82  1  0  0  0  0
 62 83  1  0  0  0  0
 63 65  1  0  0  0  0
 63 74  1  0  0  0  0
 64 75  1  0  0  0  0
 66 67  1  0  0  0  0
M  CHG  1  75   1
M  ISO  4  38 100  62 101  70 100  83 101
M  END
> <Batch ID>
0002

> <Smiles>
CNC(C)C(=O)NC(C(=O)N1Cc2cc([101O:1][101CH2:1]CCOc3ccc(C4CCC[100N:0]4[100C:0](=O)N4CCCC(n5nc(-c6ccc(Oc7ccc(F)cc7F)cc6)c(C(N)=O)c5N)C4)cc3)ccc2CC1C(=O)NC1CCCc2ccccc21)C(C)(C)C

> <Shape>
0.225

> <Color>
0.214

> <Negative vol penalty>
0.000

$$$$

  -OEChem-04042320173D

 80 88  0     1  0  0  0  0  0999 V2000
  -24.4197   -8.4610   35.5882 C   0  0  0  0  0  0  0  0  0  0  0  0
  -25.3259   -8.8436   34.6044 C   0  0  0  0  0  0  0  0  0  0  0  0
  -23.2883   -9.8003   19.9133 C   0  0  0  0  0  0  0  0  0  0  0  0
  -23.7421   -9.9401   22.2822 C   0  0  0  0  0  0  0  0  0  0  0  0
  -23.1430   -9.0208   35.6141 C   0  0  0  0  0  0  0  0  0  0  0  0
  -24.9555   -9.7855   33.6452 C   0  0  0  0  0  0  0  0  0  0  0  0
  -28.5498  -14.0174   31.0610 C   0  0  0  0  0  0  0  0  0  0  0  0
  -32.2041  -14.6062   23.5585 C   0  0  0  0  0  0  0  0  0  0  0  0
  -22.5628   -8.6273   20.1215 C   0  0  0  0  0  0  0  0  0  0  0  0
  -23.0165   -8.7671   22.4904 C   0  0  0  0  0  0  0  0  0  0  0  0
  -29.2239  -14.0574   29.8413 C   0  0  0  0  0  0  0  0  0  0  0  0
  -19.7702   -7.8544   22.7115 C   0  0  0  0  0  0  0  0  0  0  0  0
  -32.6975  -15.3661   24.6191 C   0  0  0  0  0  0  0  0  0  0  0  0
  -18.8692   -7.8318   23.7760 C   0  0  0  0  0  0  0  0  0  0  0  0
  -27.3883  -15.2880   28.8741 C   0  0  0  0  0  0  0  0  0  0  0  0
  -20.0771   -5.9847   24.7591 C   0  0  0  0  0  0  0  0  0  0  0  0
  -23.8780  -10.4566   20.9937 C   0  0  0  0  0  0  0  0  0  0  0  0
  -24.1359  -12.9868   20.7959 C   0  0  0  0  0  0  0  0  0  0  0  0
  -22.7601   -9.9772   34.6606 C   0  0  0  0  0  0  0  0  0  0  0  0
  -27.2830  -14.6039   31.1937 C   0  0  0  0  0  0  0  0  0  0  0  0
  -23.6721  -10.3577   33.6576 C   0  0  0  0  0  0  0  0  0  0  0  0
  -26.7013  -15.2563   30.0972 C   0  0  0  0  0  0  0  0  0  0  0  0
  -31.1468  -14.2790   26.1193 C   0  0  0  0  0  0  0  0  0  0  0  0
  -31.1820  -13.6828   23.7783 C   0  0  0  0  0  0  0  0  0  0  0  0
  -22.4268   -8.1107   21.4100 C   0  0  0  0  0  0  0  0  0  0  0  0
  -28.6419  -14.6903   28.7468 C   0  0  0  0  0  0  0  0  0  0  0  0
  -20.8246   -6.9421   22.6707 C   0  0  0  0  0  0  0  0  0  0  0  0
  -19.0226   -6.8970   24.7999 C   0  0  0  0  0  0  0  0  0  0  0  0
  -32.1689  -15.2024   25.8995 C   0  0  0  0  0  0  0  0  0  0  0  0
  -20.9781   -6.0073   23.6945 C   0  0  0  0  0  0  0  0  0  0  0  0
  -30.6534  -13.5191   25.0587 C   0  0  0  0  0  0  0  0  0  0  0  0
  -24.6281  -11.6680   20.7792 C   0  0  0  0  0  0  0  0  0  0  0  0
  -25.2367  -13.7674   20.5398 C   0  0  0  0  0  0  0  0  0  0  0  0
  -22.8029  -13.4637   21.0226 C   0  0  0  0  0  0  0  0  0  0  0  0
  -24.3753  -13.5279   31.8946 C   0  0  0  0  0  0  0  0  0  0  0  0
  -23.6249  -16.6836   31.8656 C   0  0  0  0  0  0  0  0  0  0  0  0
  -24.3663  -19.8278   30.7652 C   0  0  0  0  0  0  0  0  0  0  0  0
  -31.0985  -12.9556   21.3678 C   0  0  0  0  0  0  0  0  0  0  0  0
  -21.3533  -10.5194   34.7007 C   0  0  0  0  0  0  0  0  0  0  0  0
  -26.5806  -14.5753   32.5234 C   0  0  0  0  0  0  0  0  0  0  0  0
  -25.3522  -15.9189   30.1931 C   0  0  0  0  0  0  0  0  0  0  0  0
  -21.1657  -11.7882   33.8729 C   0  0  0  0  0  0  0  0  0  0  0  0
  -29.4608  -13.6605   18.2859 C   0  0  0  0  0  0  0  0  0  0  0  0
  -21.8048  -11.6275   32.4972 C   0  0  0  0  0  0  0  0  0  0  0  0
  -27.9900  -13.3554   18.5789 C   0  0  0  0  0  0  0  0  0  0  0  0
  -30.3953  -12.6855   18.9998 C   0  0  0  0  0  0  0  0  0  0  0  0
  -28.7045  -12.2558   20.7393 C   0  0  0  0  0  0  0  0  0  0  0  0
  -23.3159  -11.3948   32.6147 C   0  0  1  0  0  0  0  0  0  0  0  0
  -25.0705  -14.7579   32.4056 C   0  0  1  0  0  0  0  0  0  0  0  0
  -27.7269  -13.2516   20.0940 C   0  0  2  0  0  0  0  0  0  0  0  0
  -23.5490  -22.1978   30.8771 C   0  0  0  0  0  0  0  0  0  0  0  0
  -21.4069  -16.0098   29.8815 C   0  0  0  0  0  0  0  0  0  0  0  0
  -21.2666  -18.4452   29.3181 C   0  0  0  0  0  0  0  0  0  0  0  0
  -20.7669  -17.6724   31.6367 C   0  0  0  0  0  0  0  0  0  0  0  0
  -26.8675  -20.7521   32.0491 C   0  0  0  0  0  0  0  0  0  0  0  0
  -30.5781  -14.1035   27.4967 C   0  0  0  0  0  0  0  0  0  1  0  0
  -23.1579  -17.6618   30.8149 C   0  0  1  0  0  0  0  0  0  0  0  0
  -24.4649  -21.1541   31.4972 C   0  0  2  0  0  0  0  0  0  0  0  0
  -21.6742  -17.4332   30.4101 C   0  0  0  0  0  0  0  0  0  0  0  0
  -25.9394  -11.6101   20.5320 N   0  0  0  0  0  0  0  0  0  0  0  0
  -26.2805  -12.9023   20.3909 N   0  0  0  0  0  0  0  0  0  0  0  0
  -24.7023  -15.8586   31.5127 N   0  0  0  0  0  0  0  0  0  0  0  0
  -30.0903  -12.6428   20.4316 N   0  0  0  0  0  0  0  0  0  0  0  0
  -25.4038  -15.1024   20.4298 N   0  0  0  0  0  0  0  0  0  0  0  0
  -21.7911  -12.5262   21.2709 N   0  0  0  0  0  0  0  0  0  0  0  0
  -30.6829  -12.9132   22.6983 N   0  0  0  0  0  0  0  0  0  0  0  0
  -23.9996  -12.6412   32.8856 N   0  0  0  0  0  0  0  0  0  0  0  0
  -23.4345  -18.9927   31.3445 N   0  0  0  0  0  0  0  0  0  0  0  0
  -25.8628  -21.6685   31.4510 N   0  3  0  0  0  0  0  0  0  0  0  0
  -22.5144  -14.6840   20.9892 O   0  0  0  0  0  0  0  0  0  0  0  0
  -24.1918  -13.3938   30.6904 O   0  0  0  0  0  0  0  0  0  0  0  0
  -23.0595  -16.6575   32.9615 O   0  0  0  0  0  0  0  0  0  0  0  0
  -25.0450  -19.5609   29.7759 O   0  0  0  0  0  0  0  0  0  0  0  0
  -32.2387  -13.2666   21.0141 O   0  0  0  0  0  0  0  0  0  0  0  0
  -21.7187   -6.9663   21.6135 O   0  0  0  0  0  0  0  0  0  0  0  0
  -29.2975  -14.7303   27.5549 O   0  0  0  0  0  0  0  0  0  1  0  0
  -18.1582   -6.8764   25.8229 F   0  0  0  0  0  0  0  0  0  0  0  0
  -32.6509  -15.9357   26.9126 F   0  0  0  0  0  0  0  0  0  0  0  0
  -21.9898   -5.1291   23.6615 F   0  0  0  0  0  0  0  0  0  0  0  0
  -29.6697  -12.6318   25.2715 F   0  0  0  0  0  0  0  0  0  0  0  0
  1  2  1  0  0  0  0
  1  5  2  0  0  0  0
  2  6  2  0  0  0  0
  3  9  2  0  0  0  0
  3 17  1  0  0  0  0
  4 10  1  0  0  0  0
  4 17  2  0  0  0  0
  5 19  1  0  0  0  0
  6 21  1  0  0  0  0
  7 11  2  0  0  0  0
  7 20  1  0  0  0  0
  8 13  1  0  0  0  0
  8 24  2  0  0  0  0
  9 25  1  0  0  0  0
 10 25  2  0  0  0  0
 11 26  1  0  0  0  0
 12 14  2  0  0  0  0
 12 27  1  0  0  0  0
 13 29  2  0  0  0  0
 14 28  1  0  0  0  0
 15 22  1  0  0  0  0
 15 26  2  0  0  0  0
 16 28  2  0  0  0  0
 16 30  1  0  0  0  0
 17 32  1  0  0  0  0
 18 32  1  0  0  0  0
 18 33  2  0  0  0  0
 18 34  1  0  0  0  0
 19 21  2  0  0  0  0
 19 39  1  0  0  0  0
 20 22  2  0  0  0  0
 20 40  1  0  0  0  0
 21 48  1  0  0  0  0
 22 41  1  0  0  0  0
 23 29  1  0  0  0  0
 23 31  2  0  0  0  0
 23 56  1  0  0  0  0
 24 31  1  0  0  0  0
 24 66  1  0  0  0  0
 25 75  1  0  0  0  0
 26 76  1  0  0  0  0
 27 30  2  0  0  0  0
 27 75  1  0  0  0  0
 28 77  1  0  0  0  0
 29 78  1  0  0  0  0
 30 79  1  0  0  0  0
 31 80  1  0  0  0  0
 32 60  2  0  0  0  0
 33 61  1  0  0  0  0
 33 64  1  0  0  0  0
 34 65  1  0  0  0  0
 34 70  2  0  0  0  0
 35 49  1  0  0  0  0
 35 67  1  0  0  0  0
 35 71  2  0  0  0  0
 36 57  1  0  0  0  0
 36 62  1  0  0  0  0
 36 72  2  0  0  0  0
 37 58  1  0  0  0  0
 37 68  1  0  0  0  0
 37 73  2  0  0  0  0
 38 63  1  0  0  0  0
 38 66  1  0  0  0  0
 38 74  2  0  0  0  0
 39 42  1  0  0  0  0
 40 49  1  0  0  0  0
 41 62  1  0  0  0  0
 42 44  1  0  0  0  0
 43 45  1  0  0  0  0
 43 46  1  0  0  0  0
 44 48  1  0  0  0  0
 45 50  1  0  0  0  0
 46 63  1  0  0  0  0
 47 50  1  0  0  0  0
 47 63  1  0  0  0  0
 48 67  1  0  0  0  0
 49 62  1  0  0  0  0
 50 61  1  0  0  0  0
 51 58  1  0  0  0  0
 52 59  1  0  0  0  0
 53 59  1  0  0  0  0
 54 59  1  0  0  0  0
 55 69  1  0  0  0  0
 56 76  1  0  0  0  0
 57 59  1  0  0  0  0
 57 68  1  0  0  0  0
 58 69  1  0  0  0  0
 60 61  1  0  0  0  0
M  CHG  1  69   1
M  ISO  4  38 100  56 101  66 100  76 101
M  END
> <Batch ID>
0002

> <Smiles>
CNC(C)C(=O)NC(C(=O)N1Cc2cc([101O:1][101CH2:1]c3c(F)ccc([100NH:0][100C:0](=O)N4CCCC(n5nc(-c6ccc(Oc7ccc(F)cc7F)cc6)c(C(N)=O)c5N)C4)c3F)ccc2CC1C(=O)NC1CCCc2ccccc21)C(C)(C)C

> <Shape>
0.136

> <Color>
0.182

> <Negative vol penalty>
0.000

$$$$

  -OEChem-04042320173D

 82 91  0     1  0  0  0  0  0999 V2000
  -17.0622  -27.5401   23.7422 C   0  0  0  0  0  0  0  0  0  0  0  0
  -18.1695  -26.7904   23.3583 C   0  0  0  0  0  0  0  0  0  0  0  0
  -32.4417  -26.8303   16.9338 C   0  0  0  0  0  0  0  0  0  0  0  0
  -29.2431  -17.6561   19.2953 C   0  0  0  0  0  0  0  0  0  0  0  0
  -31.4730  -17.9029   18.3987 C   0  0  0  0  0  0  0  0  0  0  0  0
  -16.9809  -28.8884   23.3966 C   0  0  0  0  0  0  0  0  0  0  0  0
  -19.1956  -27.3883   22.6276 C   0  0  0  0  0  0  0  0  0  0  0  0
  -32.0496  -26.9567   15.5992 C   0  0  0  0  0  0  0  0  0  0  0  0
  -26.2961  -27.1132   21.7199 C   0  0  0  0  0  0  0  0  0  0  0  0
  -31.4837  -26.7441   17.9559 C   0  0  0  0  0  0  0  0  0  0  0  0
  -29.5794  -16.3938   19.7841 C   0  0  0  0  0  0  0  0  0  0  0  0
  -31.8093  -16.6406   18.8876 C   0  0  0  0  0  0  0  0  0  0  0  0
  -27.2488  -26.9926   20.7093 C   0  0  0  0  0  0  0  0  0  0  0  0
  -29.9195  -13.2601   18.5640 C   0  0  0  0  0  0  0  0  0  0  0  0
  -29.0076  -12.2240   18.3629 C   0  0  0  0  0  0  0  0  0  0  0  0
  -27.0374  -29.3488   20.2371 C   0  0  0  0  0  0  0  0  0  0  0  0
  -28.8286  -11.9178   20.7528 C   0  0  0  0  0  0  0  0  0  0  0  0
  -30.1899  -18.4107   18.6025 C   0  0  0  0  0  0  0  0  0  0  0  0
  -29.9747  -20.9475   18.7632 C   0  0  0  0  0  0  0  0  0  0  0  0
  -18.0111  -29.5055   22.6696 C   0  0  0  0  0  0  0  0  0  0  0  0
  -25.6978  -28.3524   21.9899 C   0  0  0  0  0  0  0  0  0  0  0  0
  -19.1274  -28.7458   22.2708 C   0  0  0  0  0  0  0  0  0  0  0  0
  -30.6948  -26.9880   15.3105 C   0  0  0  0  0  0  0  0  0  0  0  0
  -26.0792  -29.4830   21.2534 C   0  0  0  0  0  0  0  0  0  0  0  0
  -29.7418  -26.9055   16.3316 C   0  0  0  0  0  0  0  0  0  0  0  0
  -30.1203  -26.7843   17.6579 C   0  0  0  0  0  0  0  0  0  0  0  0
  -30.8625  -15.8860   19.5804 C   0  0  0  0  0  0  0  0  0  0  0  0
  -27.6175  -28.1099   19.9657 C   0  0  0  0  0  0  0  0  0  0  0  0
  -30.2861  -13.6250   19.8595 C   0  0  0  0  0  0  0  0  0  0  0  0
  -28.4621  -11.5529   19.4573 C   0  0  0  0  0  0  0  0  0  0  0  0
  -29.7406  -12.9539   20.9538 C   0  0  0  0  0  0  0  0  0  0  0  0
  -29.8430  -19.7145   18.0967 C   0  0  0  0  0  0  0  0  0  0  0  0
  -29.5110  -21.8756   17.8631 C   0  0  0  0  0  0  0  0  0  0  0  0
  -30.4718  -21.2288   20.0783 C   0  0  0  0  0  0  0  0  0  0  0  0
  -22.7279  -29.4801   21.8835 C   0  0  0  0  0  0  0  0  0  0  0  0
  -24.0953  -32.1111   23.1990 C   0  0  0  0  0  0  0  0  0  0  0  0
  -26.9111  -33.9773   23.6838 C   0  0  0  0  0  0  0  0  0  0  0  0
  -29.2652  -23.9275   12.6790 C   0  0  0  0  0  0  0  0  0  0  0  0
  -17.8566  -30.9539   22.2785 C   0  0  0  0  0  0  0  0  0  0  0  0
  -24.6913  -28.4712   23.1013 C   0  0  0  0  0  0  0  0  0  0  0  0
  -25.4816  -30.8400   21.5174 C   0  0  0  0  0  0  0  0  0  0  0  0
  -28.3618  -26.9794   15.7749 C   0  0  0  0  0  0  0  0  0  0  0  0
  -19.1609  -31.6051   21.8258 C   0  0  0  0  0  0  0  0  0  0  0  0
  -27.0363  -21.2729   13.4928 C   0  0  0  0  0  0  0  0  0  0  0  0
  -19.8969  -30.6994   20.8436 C   0  0  0  0  0  0  0  0  0  0  0  0
  -27.5823  -20.7290   14.8142 C   0  0  0  0  0  0  0  0  0  0  0  0
  -28.1595  -21.7141   12.5570 C   0  0  0  0  0  0  0  0  0  0  0  0
  -29.6620  -22.1264   14.4666 C   0  0  0  0  0  0  0  0  0  0  0  0
  -20.2724  -29.3647   21.4988 C   0  0  1  0  0  0  0  0  0  0  0  0
  -30.0244  -27.1371   13.9796 C   0  0  1  0  0  0  0  0  0  0  0  0
  -23.7706  -29.6778   22.9471 C   0  0  1  0  0  0  0  0  0  0  0  0
  -28.5648  -21.7207   15.4656 C   0  0  2  0  0  0  0  0  0  0  0  0
  -27.7083  -36.0949   24.7690 C   0  0  0  0  0  0  0  0  0  0  0  0
  -22.8461  -33.7366   20.9391 C   0  0  0  0  0  0  0  0  0  0  0  0
  -24.4127  -35.6042   21.5102 C   0  0  0  0  0  0  0  0  0  0  0  0
  -22.7400  -34.8243   23.1886 C   0  0  0  0  0  0  0  0  0  0  0  0
  -28.7697  -32.5063   25.4560 C   0  0  0  0  0  0  0  0  0  0  0  0
  -29.1033  -26.6994   18.7578 C   0  0  0  0  0  0  0  0  0  1  0  0
  -30.4334  -26.1007   12.9465 C   0  0  0  0  0  0  0  0  0  0  0  0
  -24.7364  -33.3663   22.6583 C   0  0  1  0  0  0  0  0  0  0  0  0
  -27.5058  -34.5969   24.9355 C   0  0  2  0  0  0  0  0  0  0  0  0
  -23.6938  -34.3571   22.0675 C   0  0  0  0  0  0  0  0  0  0  0  0
  -29.3352  -19.8441   16.8682 N   0  0  0  0  0  0  0  0  0  0  0  0
  -29.1437  -21.1695   16.7555 N   0  0  0  0  0  0  0  0  0  0  0  0
  -24.4971  -30.9038   22.6102 N   0  0  0  0  0  0  0  0  0  0  0  0
  -29.0548  -22.6548   13.2349 N   0  0  0  0  0  0  0  0  0  0  0  0
  -29.3855  -23.2185   17.9190 N   0  0  0  0  0  0  0  0  0  0  0  0
  -30.9081  -20.1583   20.8708 N   0  0  0  0  0  0  0  0  0  0  0  0
  -21.4291  -29.5287   22.3529 N   0  0  0  0  0  0  0  0  0  0  0  0
  -25.5350  -33.9184   23.7473 N   0  0  0  0  0  0  0  0  0  0  0  0
  -30.1230  -24.7593   13.3882 N   0  0  0  0  0  0  0  0  0  0  0  0
  -28.5358  -26.9818   14.2690 N   0  3  0  0  0  0  0  0  0  0  0  0
  -28.8248  -33.9758   25.2445 N   0  3  0  0  0  0  0  0  0  0  0  0
  -30.5121  -22.3932   20.5432 O   0  0  0  0  0  0  0  0  0  0  0  0
  -23.0758  -29.2985   20.7226 O   0  0  0  0  0  0  0  0  0  0  0  0
  -23.2737  -32.1979   24.1150 O   0  0  0  0  0  0  0  0  0  0  0  0
  -27.5984  -33.5881   22.7421 O   0  0  0  0  0  0  0  0  0  0  0  0
  -28.7241  -24.2971   11.6314 O   0  0  0  0  0  0  0  0  0  0  0  0
  -31.1910  -14.6544   20.0575 O   0  0  0  0  0  0  0  0  0  0  0  0
  -28.5468  -27.9948   18.9782 O   0  0  0  0  0  0  0  0  0  1  0  0
  -27.5851  -10.5590   19.2641 F   0  0  0  0  0  0  0  0  0  0  0  0
  -30.0880  -13.3007   22.2008 F   0  0  0  0  0  0  0  0  0  0  0  0
  1  2  1  0  0  0  0
  1  6  2  0  0  0  0
  2  7  2  0  0  0  0
  3  8  1  0  0  0  0
  3 10  2  0  0  0  0
  4 11  2  0  0  0  0
  4 18  1  0  0  0  0
  5 12  1  0  0  0  0
  5 18  2  0  0  0  0
  6 20  1  0  0  0  0
  7 22  1  0  0  0  0
  8 23  2  0  0  0  0
  9 13  2  0  0  0  0
  9 21  1  0  0  0  0
 10 26  1  0  0  0  0
 11 27  1  0  0  0  0
 12 27  2  0  0  0  0
 13 28  1  0  0  0  0
 14 15  2  0  0  0  0
 14 29  1  0  0  0  0
 15 30  1  0  0  0  0
 16 24  1  0  0  0  0
 16 28  2  0  0  0  0
 17 30  2  0  0  0  0
 17 31  1  0  0  0  0
 18 32  1  0  0  0  0
 19 32  1  0  0  0  0
 19 33  2  0  0  0  0
 19 34  1  0  0  0  0
 20 22  2  0  0  0  0
 20 39  1  0  0  0  0
 21 24  2  0  0  0  0
 21 40  1  0  0  0  0
 22 49  1  0  0  0  0
 23 25  1  0  0  0  0
 23 50  1  0  0  0  0
 24 41  1  0  0  0  0
 25 26  2  0  0  0  0
 25 42  1  0  0  0  0
 26 58  1  0  0  0  0
 27 79  1  0  0  0  0
 28 80  1  0  0  0  0
 29 31  2  0  0  0  0
 29 79  1  0  0  0  0
 30 81  1  0  0  0  0
 31 82  1  0  0  0  0
 32 63  2  0  0  0  0
 33 64  1  0  0  0  0
 33 67  1  0  0  0  0
 34 68  1  0  0  0  0
 34 74  2  0  0  0  0
 35 51  1  0  0  0  0
 35 69  1  0  0  0  0
 35 75  2  0  0  0  0
 36 60  1  0  0  0  0
 36 65  1  0  0  0  0
 36 76  2  0  0  0  0
 37 61  1  0  0  0  0
 37 70  1  0  0  0  0
 37 77  2  0  0  0  0
 38 66  1  0  0  0  0
 38 71  1  0  0  0  0
 38 78  2  0  0  0  0
 39 43  1  0  0  0  0
 40 51  1  0  0  0  0
 41 65  1  0  0  0  0
 42 72  1  0  0  0  0
 43 45  1  0  0  0  0
 44 46  1  0  0  0  0
 44 47  1  0  0  0  0
 45 49  1  0  0  0  0
 46 52  1  0  0  0  0
 47 66  1  0  0  0  0
 48 52  1  0  0  0  0
 48 66  1  0  0  0  0
 49 69  1  0  0  0  0
 50 59  1  0  0  0  0
 50 72  1  0  0  0  0
 51 65  1  0  0  0  0
 52 64  1  0  0  0  0
 53 61  1  0  0  0  0
 54 62  1  0  0  0  0
 55 62  1  0  0  0  0
 56 62  1  0  0  0  0
 57 73  1  0  0  0  0
 58 80  1  0  0  0  0
 59 71  1  0  0  0  0
 60 62  1  0  0  0  0
 60 70  1  0  0  0  0
 61 73  1  0  0  0  0
 63 64  1  0  0  0  0
M  CHG  2  72   1  73   1
M  ISO  4  38 100  58 101  71 100  80 101
M  END
> <Batch ID>
0002

> <Smiles>
CNC(C)C(=O)NC(C(=O)N1Cc2cc([101O:1][101CH2:1]c3cccc4c3CNC4C[100NH:0][100C:0](=O)N3CCCC(n4nc(-c5ccc(Oc6ccc(F)cc6F)cc5)c(C(N)=O)c4N)C3)ccc2CC1C(=O)NC1CCCc2ccccc21)C(C)(C)C

> <Shape>
0.250

> <Color>
0.105

> <Negative vol penalty>
0.000

$$$$

  -OEChem-04042320173D

 83 91  0     1  0  0  0  0  0999 V2000
  -19.9467  -34.1280   20.7326 C   0  0  0  0  0  0  0  0  0  0  0  0
  -21.1610  -33.5479   20.3798 C   0  0  0  0  0  0  0  0  0  0  0  0
  -32.5735  -26.8691   20.1651 C   0  0  0  0  0  0  0  0  0  0  0  0
  -24.8209  -14.1371   20.4663 C   0  0  0  0  0  0  0  0  0  0  0  0
  -27.1571  -13.6370   20.8255 C   0  0  0  0  0  0  0  0  0  0  0  0
  -19.2631  -33.6792   21.8618 C   0  0  0  0  0  0  0  0  0  0  0  0
  -21.6929  -32.5193   21.1568 C   0  0  0  0  0  0  0  0  0  0  0  0
  -24.9317  -27.7114   19.1821 C   0  0  0  0  0  0  0  0  0  0  0  0
  -31.2345  -27.2421   20.0482 C   0  0  0  0  0  0  0  0  0  0  0  0
  -33.0850  -25.8466   19.3660 C   0  0  0  0  0  0  0  0  0  0  0  0
  -24.5670  -12.7852   20.2355 C   0  0  0  0  0  0  0  0  0  0  0  0
  -26.9032  -12.2850   20.5947 C   0  0  0  0  0  0  0  0  0  0  0  0
  -26.3018  -27.4568   19.1401 C   0  0  0  0  0  0  0  0  0  0  0  0
  -23.2386   -9.4173   19.9069 C   0  0  0  0  0  0  0  0  0  0  0  0
  -22.1195   -8.8538   20.5199 C   0  0  0  0  0  0  0  0  0  0  0  0
  -26.1368  -26.2579   21.2269 C   0  0  0  0  0  0  0  0  0  0  0  0
  -30.9184  -25.5699   18.3333 C   0  0  0  0  0  0  0  0  0  0  0  0
  -23.0243   -9.4156   22.6885 C   0  0  0  0  0  0  0  0  0  0  0  0
  -26.1160  -14.5631   20.7613 C   0  0  0  0  0  0  0  0  0  0  0  0
  -26.3340  -16.6348   22.2337 C   0  0  0  0  0  0  0  0  0  0  0  0
  -19.7821  -32.6381   22.6475 C   0  0  0  0  0  0  0  0  0  0  0  0
  -24.1545  -27.2497   20.2540 C   0  0  0  0  0  0  0  0  0  0  0  0
  -21.0161  -32.0571   22.2983 C   0  0  0  0  0  0  0  0  0  0  0  0
  -24.7566  -26.5057   21.2788 C   0  0  0  0  0  0  0  0  0  0  0  0
  -30.4070  -26.5925   19.1324 C   0  0  0  0  0  0  0  0  0  0  0  0
  -25.6081  -11.8591   20.2997 C   0  0  0  0  0  0  0  0  0  0  0  0
  -26.9051  -26.7325   20.1640 C   0  0  0  0  0  0  0  0  0  0  0  0
  -32.2574  -25.1970   18.4501 C   0  0  0  0  0  0  0  0  0  0  0  0
  -24.2506   -9.9800   20.6848 C   0  0  0  0  0  0  0  0  0  0  0  0
  -22.0123   -8.8530   21.9106 C   0  0  0  0  0  0  0  0  0  0  0  0
  -24.1434   -9.9791   22.0755 C   0  0  0  0  0  0  0  0  0  0  0  0
  -26.3791  -15.9596   20.9993 C   0  0  0  0  0  0  0  0  0  0  0  0
  -26.6600  -17.9333   21.9270 C   0  0  0  0  0  0  0  0  0  0  0  0
  -26.0252  -16.1331   23.5409 C   0  0  0  0  0  0  0  0  0  0  0  0
  -22.3950  -28.6356   22.5096 C   0  0  0  0  0  0  0  0  0  0  0  0
  -29.7781  -20.3200   17.3780 C   0  0  0  0  0  0  0  0  0  0  0  0
  -21.5967  -25.5732   23.2213 C   0  0  0  0  0  0  0  0  0  0  0  0
  -22.4139  -22.2621   23.0956 C   0  0  0  0  0  0  0  0  0  0  0  0
  -19.0301  -32.2190   23.8859 C   0  0  0  0  0  0  0  0  0  0  0  0
  -22.6731  -27.5098   20.2710 C   0  0  0  0  0  0  0  0  0  0  0  0
  -23.9630  -25.9704   22.4416 C   0  0  0  0  0  0  0  0  0  0  0  0
  -19.4783  -30.8704   24.4434 C   0  0  0  0  0  0  0  0  0  0  0  0
  -26.4312  -21.1209   18.3766 C   0  0  0  0  0  0  0  0  0  0  0  0
  -21.0007  -30.7963   24.5019 C   0  0  0  0  0  0  0  0  0  0  0  0
  -26.0243  -19.9358   19.2513 C   0  0  0  0  0  0  0  0  0  0  0  0
  -27.3367  -20.6833   17.2296 C   0  0  0  0  0  0  0  0  0  0  0  0
  -28.1498  -18.7504   18.5427 C   0  0  0  0  0  0  0  0  0  0  0  0
  -21.6134  -30.9223   23.1018 C   0  0  1  0  0  0  0  0  0  0  0  0
  -22.0690  -27.4331   21.6698 C   0  0  1  0  0  0  0  0  0  0  0  0
  -27.2595  -19.1533   19.7315 C   0  0  2  0  0  0  0  0  0  0  0  0
  -21.5824  -20.0000   23.7948 C   0  0  0  0  0  0  0  0  0  0  0  0
  -22.4473  -26.1511   26.0940 C   0  0  0  0  0  0  0  0  0  0  0  0
  -22.5045  -23.6813   26.5002 C   0  0  0  0  0  0  0  0  0  0  0  0
  -20.3593  -24.7918   25.8777 C   0  0  0  0  0  0  0  0  0  0  0  0
  -22.2679  -21.3214   20.2934 C   0  0  0  0  0  0  0  0  0  0  0  0
  -28.9665  -26.9934   19.0072 C   0  0  0  0  0  0  0  0  0  1  0  0
  -30.9107  -19.4911   17.9294 C   0  0  0  0  0  0  0  0  0  0  0  0
  -32.2541  -20.0321   17.4745 C   0  0  0  0  0  0  0  0  0  0  0  0
  -33.7619  -22.0152   17.6560 C   0  0  0  0  0  0  0  0  0  0  0  0
  -33.8245  -23.4240   18.2122 C   0  0  0  0  0  0  0  0  0  0  0  0
  -22.1599  -24.5043   24.1264 C   0  0  1  0  0  0  0  0  0  0  0  0
  -21.6101  -21.0410   22.6866 C   0  0  2  0  0  0  0  0  0  0  0  0
  -21.8833  -24.7937   25.6288 C   0  0  0  0  0  0  0  0  0  0  0  0
  -26.7077  -16.7628   19.9839 N   0  0  0  0  0  0  0  0  0  0  0  0
  -26.8719  -17.9561   20.5798 N   0  0  0  0  0  0  0  0  0  0  0  0
  -22.5190  -26.2563   22.4161 N   0  0  0  0  0  0  0  0  0  0  0  0
  -28.4862  -19.9241   17.7250 N   0  0  0  0  0  0  0  0  0  0  0  0
  -26.7831  -19.0464   22.6808 N   0  0  0  0  0  0  0  0  0  0  0  0
  -25.7123  -14.7738   23.6781 N   0  0  0  0  0  0  0  0  0  0  0  0
  -21.4908  -29.6727   22.3821 N   0  0  0  0  0  0  0  0  0  0  0  0
  -21.6135  -23.2377   23.6515 N   0  0  0  0  0  0  0  0  0  0  0  0
  -22.2006  -20.4161   21.4693 N   0  3  0  0  0  0  0  0  0  0  0  0
  -32.4479  -21.4125   17.9947 N   0  3  0  0  0  0  0  0  0  0  0  0
  -26.0105  -16.8718   24.5546 O   0  0  0  0  0  0  0  0  0  0  0  0
  -23.3923  -28.6229   23.2216 O   0  0  0  0  0  0  0  0  0  0  0  0
  -30.0359  -21.2918   16.6629 O   0  0  0  0  0  0  0  0  0  0  0  0
  -20.3822  -25.7890   23.2233 O   0  0  0  0  0  0  0  0  0  0  0  0
  -23.6306  -22.3410   22.9412 O   0  0  0  0  0  0  0  0  0  0  0  0
  -25.3606  -10.5397   20.0747 O   0  0  0  0  0  0  0  0  0  0  0  0
  -28.2424  -26.4831   20.1259 O   0  0  0  0  0  0  0  0  0  1  0  0
  -32.7568  -24.1995   17.6700 O   0  0  0  0  0  0  0  0  0  0  0  0
  -20.9369   -8.3131   22.4990 F   0  0  0  0  0  0  0  0  0  0  0  0
  -25.1119  -10.5193   22.8280 F   0  0  0  0  0  0  0  0  0  0  0  0
  1  2  1  0  0  0  0
  1  6  2  0  0  0  0
  2  7  2  0  0  0  0
  3  9  2  0  0  0  0
  3 10  1  0  0  0  0
  4 11  2  0  0  0  0
  4 19  1  0  0  0  0
  5 12  1  0  0  0  0
  5 19  2  0  0  0  0
  6 21  1  0  0  0  0
  7 23  1  0  0  0  0
  8 13  2  0  0  0  0
  8 22  1  0  0  0  0
  9 25  1  0  0  0  0
 10 28  2  0  0  0  0
 11 26  1  0  0  0  0
 12 26  2  0  0  0  0
 13 27  1  0  0  0  0
 14 15  2  0  0  0  0
 14 29  1  0  0  0  0
 15 30  1  0  0  0  0
 16 24  1  0  0  0  0
 16 27  2  0  0  0  0
 17 25  2  0  0  0  0
 17 28  1  0  0  0  0
 18 30  2  0  0  0  0
 18 31  1  0  0  0  0
 19 32  1  0  0  0  0
 20 32  1  0  0  0  0
 20 33  2  0  0  0  0
 20 34  1  0  0  0  0
 21 23  2  0  0  0  0
 21 39  1  0  0  0  0
 22 24  2  0  0  0  0
 22 40  1  0  0  0  0
 23 48  1  0  0  0  0
 24 41  1  0  0  0  0
 25 56  1  0  0  0  0
 26 79  1  0  0  0  0
 27 80  1  0  0  0  0
 28 81  1  0  0  0  0
 29 31  2  0  0  0  0
 29 79  1  0  0  0  0
 30 82  1  0  0  0  0
 31 83  1  0  0  0  0
 32 64  2  0  0  0  0
 33 65  1  0  0  0  0
 33 68  1  0  0  0  0
 34 69  1  0  0  0  0
 34 74  2  0  0  0  0
 35 49  1  0  0  0  0
 35 70  1  0  0  0  0
 35 75  2  0  0  0  0
 36 57  1  0  0  0  0
 36 67  1  0  0  0  0
 36 76  2  0  0  0  0
 37 61  1  0  0  0  0
 37 66  1  0  0  0  0
 37 77  2  0  0  0  0
 38 62  1  0  0  0  0
 38 71  1  0  0  0  0
 38 78  2  0  0  0  0
 39 42  1  0  0  0  0
 40 49  1  0  0  0  0
 41 66  1  0  0  0  0
 42 44  1  0  0  0  0
 43 45  1  0  0  0  0
 43 46  1  0  0  0  0
 44 48  1  0  0  0  0
 45 50  1  0  0  0  0
 46 67  1  0  0  0  0
 47 50  1  0  0  0  0
 47 67  1  0  0  0  0
 48 70  1  0  0  0  0
 49 66  1  0  0  0  0
 50 65  1  0  0  0  0
 51 62  1  0  0  0  0
 52 63  1  0  0  0  0
 53 63  1  0  0  0  0
 54 63  1  0  0  0  0
 55 72  1  0  0  0  0
 56 80  1  0  0  0  0
 57 58  1  0  0  0  0
 58 73  1  0  0  0  0
 59 60  1  0  0  0  0
 59 73  1  0  0  0  0
 60 81  1  0  0  0  0
 61 63  1  0  0  0  0
 61 71  1  0  0  0  0
 62 72  1  0  0  0  0
 64 65  1  0  0  0  0
M  CHG  2  72   1  73   1
M  ISO  4  36 100  56 101  57 100  80 101
M  END
> <Batch ID>
0002

> <Smiles>
CNC(C)C(=O)NC(C(=O)N1Cc2cc([101O:1][101CH2:1]c3cccc(OCCNC[100CH2:0][100C:0](=O)N4CCCC(n5nc(-c6ccc(Oc7ccc(F)cc7F)cc6)c(C(N)=O)c5N)C4)c3)ccc2CC1C(=O)NC1CCCc2ccccc21)C(C)(C)C

> <Shape>
0.184

> <Color>
0.088

> <Negative vol penalty>
0.000

$$$$

  -OEChem-04042320173D

 79 87  0     1  0  0  0  0  0999 V2000
  -17.4802  -23.1131   24.9873 C   0  0  0  0  0  0  0  0  0  0  0  0
  -18.8266  -22.9147   24.6988 C   0  0  0  0  0  0  0  0  0  0  0  0
  -31.2477  -19.4820   19.1739 C   0  0  0  0  0  0  0  0  0  0  0  0
  -23.0743   -9.8691   19.9414 C   0  0  0  0  0  0  0  0  0  0  0  0
  -23.8387   -9.8740   22.2333 C   0  0  0  0  0  0  0  0  0  0  0  0
  -16.5195  -22.2592   24.4472 C   0  0  0  0  0  0  0  0  0  0  0  0
  -19.2132  -21.8614   23.8707 C   0  0  0  0  0  0  0  0  0  0  0  0
  -23.8641  -21.8265   19.8866 C   0  0  0  0  0  0  0  0  0  0  0  0
  -31.5069  -18.4283   20.0502 C   0  0  0  0  0  0  0  0  0  0  0  0
  -30.0125  -20.1292   19.2073 C   0  0  0  0  0  0  0  0  0  0  0  0
  -22.3316   -8.7152   20.1915 C   0  0  0  0  0  0  0  0  0  0  0  0
  -23.0959   -8.7201   22.4834 C   0  0  0  0  0  0  0  0  0  0  0  0
  -25.1647  -21.3308   19.9673 C   0  0  0  0  0  0  0  0  0  0  0  0
  -21.1153   -5.9803   23.8209 C   0  0  0  0  0  0  0  0  0  0  0  0
  -20.3613   -5.9350   24.9935 C   0  0  0  0  0  0  0  0  0  0  0  0
  -24.4524  -19.3012   18.8753 C   0  0  0  0  0  0  0  0  0  0  0  0
  -29.2957  -18.6688   20.9934 C   0  0  0  0  0  0  0  0  0  0  0  0
  -19.1141   -7.8723   24.2665 C   0  0  0  0  0  0  0  0  0  0  0  0
  -23.8279  -10.4484   20.9622 C   0  0  0  0  0  0  0  0  0  0  0  0
  -24.1680  -12.9739   20.8443 C   0  0  0  0  0  0  0  0  0  0  0  0
  -16.8936  -21.2008   23.6043 C   0  0  0  0  0  0  0  0  0  0  0  0
  -22.8439  -21.0575   19.3084 C   0  0  0  0  0  0  0  0  0  0  0  0
  -18.2566  -20.9917   23.3199 C   0  0  0  0  0  0  0  0  0  0  0  0
  -23.1403  -19.7905   18.7861 C   0  0  0  0  0  0  0  0  0  0  0  0
  -30.5309  -18.0216   20.9600 C   0  0  0  0  0  0  0  0  0  0  0  0
  -29.0365  -19.7226   20.1171 C   0  0  0  0  0  0  0  0  0  0  0  0
  -22.3424   -8.1407   21.4625 C   0  0  0  0  0  0  0  0  0  0  0  0
  -25.4584  -20.0668   19.4643 C   0  0  0  0  0  0  0  0  0  0  0  0
  -20.8687   -6.9717   22.8711 C   0  0  0  0  0  0  0  0  0  0  0  0
  -19.3607   -6.8809   25.2163 C   0  0  0  0  0  0  0  0  0  0  0  0
  -19.8682   -7.9177   23.0939 C   0  0  0  0  0  0  0  0  0  0  0  0
  -24.5957  -11.6401   20.7043 C   0  0  0  0  0  0  0  0  0  0  0  0
  -25.2589  -13.7245   20.4798 C   0  0  0  0  0  0  0  0  0  0  0  0
  -22.8980  -13.4885   21.2663 C   0  0  0  0  0  0  0  0  0  0  0  0
  -20.1084  -19.8154   20.3467 C   0  0  0  0  0  0  0  0  0  0  0  0
  -19.7350  -19.0210   17.2239 C   0  0  0  0  0  0  0  0  0  0  0  0
  -21.1893  -18.3748   14.2049 C   0  0  0  0  0  0  0  0  0  0  0  0
  -30.7424  -14.7466   20.6586 C   0  0  0  0  0  0  0  0  0  0  0  0
  -15.8233  -20.2754   23.0822 C   0  0  0  0  0  0  0  0  0  0  0  0
  -21.4518  -21.6175   19.2048 C   0  0  0  0  0  0  0  0  0  0  0  0
  -22.0852  -18.9335   18.1373 C   0  0  0  0  0  0  0  0  0  0  0  0
  -16.2841  -19.4098   21.9123 C   0  0  0  0  0  0  0  0  0  0  0  0
  -29.6016  -12.3640   18.2714 C   0  0  0  0  0  0  0  0  0  0  0  0
  -17.6464  -18.7914   22.2099 C   0  0  0  0  0  0  0  0  0  0  0  0
  -28.1652  -12.0690   18.7068 C   0  0  0  0  0  0  0  0  0  0  0  0
  -30.5210  -12.5841   19.4707 C   0  0  0  0  0  0  0  0  0  0  0  0
  -28.6215  -13.3125   20.8618 C   0  0  0  0  0  0  0  0  0  0  0  0
  -18.7133  -19.8753   22.4060 C   0  0  1  0  0  0  0  0  0  0  0  0
  -20.3831  -20.5387   19.0586 C   0  0  1  0  0  0  0  0  0  0  0  0
  -27.6451  -13.1386   19.6859 C   0  0  2  0  0  0  0  0  0  0  0  0
  -20.6289  -17.7163   11.8491 C   0  0  0  0  0  0  0  0  0  0  0  0
  -19.2731  -16.1473   18.1396 C   0  0  0  0  0  0  0  0  0  0  0  0
  -19.6676  -15.4060   15.7810 C   0  0  0  0  0  0  0  0  0  0  0  0
  -17.7531  -16.9157   16.3083 C   0  0  0  0  0  0  0  0  0  0  0  0
  -22.3314  -20.8763   13.1108 C   0  0  0  0  0  0  0  0  0  0  0  0
  -30.8094  -16.8958   21.8977 C   0  0  0  0  0  0  0  0  0  0  0  0
  -27.7076  -20.4183   20.1525 C   0  0  0  0  0  0  0  0  0  1  0  0
  -20.1084  -17.8326   16.3710 C   0  0  1  0  0  0  0  0  0  0  0  0
  -20.8713  -18.8727   12.8065 C   0  0  2  0  0  0  0  0  0  0  0  0
  -19.2203  -16.5905   16.6639 C   0  0  0  0  0  0  0  0  0  0  0  0
  -25.8598  -11.5454   20.2835 N   0  0  0  0  0  0  0  0  0  0  0  0
  -26.2357  -12.8294   20.1558 N   0  0  0  0  0  0  0  0  0  0  0  0
  -20.7379  -19.5226   18.0656 N   0  0  0  0  0  0  0  0  0  0  0  0
  -29.9715  -13.6113   20.3589 N   0  0  0  0  0  0  0  0  0  0  0  0
  -25.4684  -15.0561   20.4078 N   0  0  0  0  0  0  0  0  0  0  0  0
  -21.8873  -12.5783   21.6046 N   0  0  0  0  0  0  0  0  0  0  0  0
  -19.1341  -20.4073   21.1276 N   0  0  0  0  0  0  0  0  0  0  0  0
  -20.0568  -18.2912   14.9870 N   0  0  0  0  0  0  0  0  0  0  0  0
  -30.1444  -15.6741   21.5028 N   0  0  0  0  0  0  0  0  0  0  0  0
  -21.9997  -19.6910   12.2790 N   0  3  0  0  0  0  0  0  0  0  0  0
  -22.6611  -14.7189   21.3255 O   0  0  0  0  0  0  0  0  0  0  0  0
  -20.7332  -18.7950   20.6117 O   0  0  0  0  0  0  0  0  0  0  0  0
  -18.5977  -19.4914   17.1409 O   0  0  0  0  0  0  0  0  0  0  0  0
  -22.3278  -18.0853   14.5660 O   0  0  0  0  0  0  0  0  0  0  0  0
  -31.8774  -14.9233   20.2029 O   0  0  0  0  0  0  0  0  0  0  0  0
  -21.6176   -7.0149   21.7070 O   0  0  0  0  0  0  0  0  0  0  0  0
  -26.7269  -19.5802   19.5424 O   0  0  0  0  0  0  0  0  0  1  0  0
  -18.6357   -6.8363   26.3417 F   0  0  0  0  0  0  0  0  0  0  0  0
  -19.6259   -8.8717   22.1845 F   0  0  0  0  0  0  0  0  0  0  0  0
  1  2  1  0  0  0  0
  1  6  2  0  0  0  0
  2  7  2  0  0  0  0
  3  9  1  0  0  0  0
  3 10  2  0  0  0  0
  4 11  2  0  0  0  0
  4 19  1  0  0  0  0
  5 12  1  0  0  0  0
  5 19  2  0  0  0  0
  6 21  1  0  0  0  0
  7 23  1  0  0  0  0
  8 13  2  0  0  0  0
  8 22  1  0  0  0  0
  9 25  2  0  0  0  0
 10 26  1  0  0  0  0
 11 27  1  0  0  0  0
 12 27  2  0  0  0  0
 13 28  1  0  0  0  0
 14 15  2  0  0  0  0
 14 29  1  0  0  0  0
 15 30  1  0  0  0  0
 16 24  1  0  0  0  0
 16 28  2  0  0  0  0
 17 25  1  0  0  0  0
 17 26  2  0  0  0  0
 18 30  2  0  0  0  0
 18 31  1  0  0  0  0
 19 32  1  0  0  0  0
 20 32  1  0  0  0  0
 20 33  2  0  0  0  0
 20 34  1  0  0  0  0
 21 23  2  0  0  0  0
 21 39  1  0  0  0  0
 22 24  2  0  0  0  0
 22 40  1  0  0  0  0
 23 48  1  0  0  0  0
 24 41  1  0  0  0  0
 25 56  1  0  0  0  0
 26 57  1  0  0  0  0
 27 76  1  0  0  0  0
 28 77  1  0  0  0  0
 29 31  2  0  0  0  0
 29 76  1  0  0  0  0
 30 78  1  0  0  0  0
 31 79  1  0  0  0  0
 32 61  2  0  0  0  0
 33 62  1  0  0  0  0
 33 65  1  0  0  0  0
 34 66  1  0  0  0  0
 34 71  2  0  0  0  0
 35 49  1  0  0  0  0
 35 67  1  0  0  0  0
 35 72  2  0  0  0  0
 36 58  1  0  0  0  0
 36 63  1  0  0  0  0
 36 73  2  0  0  0  0
 37 59  1  0  0  0  0
 37 68  1  0  0  0  0
 37 74  2  0  0  0  0
 38 64  1  0  0  0  0
 38 69  1  0  0  0  0
 38 75  2  0  0  0  0
 39 42  1  0  0  0  0
 40 49  1  0  0  0  0
 41 63  1  0  0  0  0
 42 44  1  0  0  0  0
 43 45  1  0  0  0  0
 43 46  1  0  0  0  0
 44 48  1  0  0  0  0
 45 50  1  0  0  0  0
 46 64  1  0  0  0  0
 47 50  1  0  0  0  0
 47 64  1  0  0  0  0
 48 67  1  0  0  0  0
 49 63  1  0  0  0  0
 50 62  1  0  0  0  0
 51 59  1  0  0  0  0
 52 60  1  0  0  0  0
 53 60  1  0  0  0  0
 54 60  1  0  0  0  0
 55 70  1  0  0  0  0
 56 69  1  0  0  0  0
 57 77  1  0  0  0  0
 58 60  1  0  0  0  0
 58 68  1  0  0  0  0
 59 70  1  0  0  0  0
 61 62  1  0  0  0  0
M  CHG  1  70   1
M  ISO  4  38 100  57 101  69 100  77 101
M  END
> <Batch ID>
0002

> <Smiles>
CNC(C)C(=O)NC(C(=O)N1Cc2cc([101O:1][101CH2:1]c3cccc(C[100NH:0][100C:0](=O)N4CCCC(n5nc(-c6ccc(Oc7ccc(F)cc7F)cc6)c(C(N)=O)c5N)C4)c3)ccc2CC1C(=O)NC1CCCc2ccccc21)C(C)(C)C

> <Shape>
0.192

> <Color>
0.200

> <Negative vol penalty>
0.000

$$$$

  -OEChem-04042320173D

 74 81  0     1  0  0  0  0  0999 V2000
  -28.2370  -24.4861   17.1417 C   0  0  0  0  0  0  0  0  0  0  0  0
  -27.0905  -25.1970   17.4776 C   0  0  0  0  0  0  0  0  0  0  0  0
  -23.9976  -17.2212   19.7044 C   0  0  0  0  0  0  0  0  0  0  0  0
  -21.6114  -17.5982   19.7372 C   0  0  0  0  0  0  0  0  0  0  0  0
  -29.3729  -24.5840   17.9426 C   0  0  0  0  0  0  0  0  0  0  0  0
  -27.0832  -26.0153   18.6078 C   0  0  0  0  0  0  0  0  0  0  0  0
  -23.1087  -28.8301   19.3032 C   0  0  0  0  0  0  0  0  0  0  0  0
  -23.7896  -15.8777   20.0166 C   0  0  0  0  0  0  0  0  0  0  0  0
  -21.4034  -16.2547   20.0494 C   0  0  0  0  0  0  0  0  0  0  0  0
  -21.8764  -28.3102   19.6969 C   0  0  0  0  0  0  0  0  0  0  0  0
  -23.8696  -12.2693   20.4498 C   0  0  0  0  0  0  0  0  0  0  0  0
  -24.5945  -11.3172   19.7332 C   0  0  0  0  0  0  0  0  0  0  0  0
  -22.2606  -29.1131   21.9389 C   0  0  0  0  0  0  0  0  0  0  0  0
  -23.5960  -12.1033   17.6784 C   0  0  0  0  0  0  0  0  0  0  0  0
  -22.9085  -18.0814   19.5647 C   0  0  0  0  0  0  0  0  0  0  0  0
  -23.1955  -20.0430   17.9592 C   0  0  0  0  0  0  0  0  0  0  0  0
  -29.3747  -25.3944   19.0898 C   0  0  0  0  0  0  0  0  0  0  0  0
  -23.9324  -29.4870   20.2287 C   0  0  0  0  0  0  0  0  0  0  0  0
  -28.2273  -26.1461   19.4155 C   0  0  0  0  0  0  0  0  0  0  0  0
  -23.5017  -29.6426   21.5540 C   0  0  0  0  0  0  0  0  0  0  0  0
  -22.4925  -15.3945   20.1891 C   0  0  0  0  0  0  0  0  0  0  0  0
  -21.4534  -28.4491   21.0155 C   0  0  0  0  0  0  0  0  0  0  0  0
  -23.0077  -13.1384   19.7807 C   0  0  0  0  0  0  0  0  0  0  0  0
  -24.4578  -11.2342   18.3475 C   0  0  0  0  0  0  0  0  0  0  0  0
  -22.8709  -13.0554   18.3951 C   0  0  0  0  0  0  0  0  0  0  0  0
  -23.1227  -19.4695   19.2428 C   0  0  0  0  0  0  0  0  0  0  0  0
  -23.4090  -21.3796   18.1920 C   0  0  0  0  0  0  0  0  0  0  0  0
  -23.0803  -19.4229   16.6716 C   0  0  0  0  0  0  0  0  0  0  0  0
  -26.8422  -28.9749   21.4010 C   0  0  0  0  0  0  0  0  0  0  0  0
  -26.3567  -31.8553   22.8116 C   0  0  0  0  0  0  0  0  0  0  0  0
  -24.1398  -34.1868   23.9501 C   0  0  0  0  0  0  0  0  0  0  0  0
  -22.1653  -24.9610   22.8264 C   0  0  0  0  0  0  0  0  0  0  0  0
  -30.6340  -25.4698   19.9166 C   0  0  0  0  0  0  0  0  0  0  0  0
  -25.2470  -30.0656   19.7819 C   0  0  0  0  0  0  0  0  0  0  0  0
  -24.3398  -30.3572   22.5814 C   0  0  0  0  0  0  0  0  0  0  0  0
  -30.3902  -26.0052   21.3238 C   0  0  0  0  0  0  0  0  0  0  0  0
  -25.3644  -24.3589   21.3844 C   0  0  0  0  0  0  0  0  0  0  0  0
  -29.5719  -27.2861   21.2580 C   0  0  0  0  0  0  0  0  0  0  0  0
  -25.1592  -23.0892   20.5562 C   0  0  0  0  0  0  0  0  0  0  0  0
  -24.5549  -24.3253   22.6788 C   0  0  0  0  0  0  0  0  0  0  0  0
  -22.9098  -22.7899   21.6739 C   0  0  0  0  0  0  0  0  0  0  0  0
  -28.1862  -27.0186   20.6570 C   0  0  1  0  0  0  0  0  0  0  0  0
  -26.2328  -30.2646   20.9290 C   0  0  1  0  0  0  0  0  0  0  0  0
  -23.6624  -22.8016   20.3323 C   0  0  2  0  0  0  0  0  0  0  0  0
  -24.0417  -36.4211   25.0884 C   0  0  0  0  0  0  0  0  0  0  0  0
  -27.0386  -30.5268   25.4724 C   0  0  0  0  0  0  0  0  0  0  0  0
  -26.0199  -32.4953   26.6367 C   0  0  0  0  0  0  0  0  0  0  0  0
  -28.0109  -32.8106   25.1672 C   0  0  0  0  0  0  0  0  0  0  0  0
  -22.7535  -35.4283   21.6488 C   0  0  0  0  0  0  0  0  0  0  0  0
  -18.9463  -25.9462   21.6711 C   0  0  0  0  0  0  0  0  0  0  0  0
  -19.7364  -25.4678   22.8817 C   0  0  0  0  0  0  0  0  0  0  0  0
  -19.7817  -26.7851   20.7116 C   0  0  0  0  0  0  0  0  0  1  0  0
  -25.7630  -32.3184   24.1200 C   0  0  1  0  0  0  0  0  0  0  0  0
  -24.0705  -35.6906   23.7549 C   0  0  2  0  0  0  0  0  0  0  0  0
  -26.6930  -32.0226   25.3304 C   0  0  0  0  0  0  0  0  0  0  0  0
  -23.2776  -20.3682   20.2186 N   0  0  0  0  0  0  0  0  0  0  0  0
  -23.4499  -21.5200   19.5480 N   0  0  0  0  0  0  0  0  0  0  0  0
  -25.6199  -30.9000   22.0973 N   0  0  0  0  0  0  0  0  0  0  0  0
  -23.1441  -24.0498   22.3967 N   0  0  0  0  0  0  0  0  0  0  0  0
  -23.5640  -22.4369   17.3670 N   0  0  0  0  0  0  0  0  0  0  0  0
  -22.8617  -18.0397   16.6133 N   0  0  0  0  0  0  0  0  0  0  0  0
  -27.5233  -28.2817   20.4185 N   0  0  0  0  0  0  0  0  0  0  0  0
  -25.4410  -33.7306   23.9450 N   0  0  0  0  0  0  0  0  0  0  0  0
  -20.8535  -24.6272   22.5125 N   0  0  0  0  0  0  0  0  0  0  0  0
  -22.8445  -36.0579   22.9913 N   0  3  0  0  0  0  0  0  0  0  0  0
  -23.1849  -20.0734   15.6042 O   0  0  0  0  0  0  0  0  0  0  0  0
  -26.7060  -28.6345   22.5703 O   0  0  0  0  0  0  0  0  0  0  0  0
  -27.4311  -32.3292   22.4336 O   0  0  0  0  0  0  0  0  0  0  0  0
  -23.1399  -33.4873   24.0965 O   0  0  0  0  0  0  0  0  0  0  0  0
  -22.4405  -25.9981   23.4394 O   0  0  0  0  0  0  0  0  0  0  0  0
  -22.2892  -14.0836   20.4935 O   0  0  0  0  0  0  0  0  0  0  0  0
  -20.2514  -27.9420   21.4025 O   0  0  0  0  0  0  0  0  0  1  0  0
  -25.1552  -10.3209   17.6593 F   0  0  0  0  0  0  0  0  0  0  0  0
  -22.0454  -13.8884   17.7467 F   0  0  0  0  0  0  0  0  0  0  0  0
  1  2  1  0  0  0  0
  1  5  2  0  0  0  0
  2  6  2  0  0  0  0
  3  8  2  0  0  0  0
  3 15  1  0  0  0  0
  4  9  1  0  0  0  0
  4 15  2  0  0  0  0
  5 17  1  0  0  0  0
  6 19  1  0  0  0  0
  7 10  2  0  0  0  0
  7 18  1  0  0  0  0
  8 21  1  0  0  0  0
  9 21  2  0  0  0  0
 10 22  1  0  0  0  0
 11 12  2  0  0  0  0
 11 23  1  0  0  0  0
 12 24  1  0  0  0  0
 13 20  1  0  0  0  0
 13 22  2  0  0  0  0
 14 24  2  0  0  0  0
 14 25  1  0  0  0  0
 15 26  1  0  0  0  0
 16 26  1  0  0  0  0
 16 27  2  0  0  0  0
 16 28  1  0  0  0  0
 17 19  2  0  0  0  0
 17 33  1  0  0  0  0
 18 20  2  0  0  0  0
 18 34  1  0  0  0  0
 19 42  1  0  0  0  0
 20 35  1  0  0  0  0
 21 71  1  0  0  0  0
 22 72  1  0  0  0  0
 23 25  2  0  0  0  0
 23 71  1  0  0  0  0
 24 73  1  0  0  0  0
 25 74  1  0  0  0  0
 26 56  2  0  0  0  0
 27 57  1  0  0  0  0
 27 60  1  0  0  0  0
 28 61  1  0  0  0  0
 28 66  2  0  0  0  0
 29 43  1  0  0  0  0
 29 62  1  0  0  0  0
 29 67  2  0  0  0  0
 30 53  1  0  0  0  0
 30 58  1  0  0  0  0
 30 68  2  0  0  0  0
 31 54  1  0  0  0  0
 31 63  1  0  0  0  0
 31 69  2  0  0  0  0
 32 59  1  0  0  0  0
 32 64  1  0  0  0  0
 32 70  2  0  0  0  0
 33 36  1  0  0  0  0
 34 43  1  0  0  0  0
 35 58  1  0  0  0  0
 36 38  1  0  0  0  0
 37 39  1  0  0  0  0
 37 40  1  0  0  0  0
 38 42  1  0  0  0  0
 39 44  1  0  0  0  0
 40 59  1  0  0  0  0
 41 44  1  0  0  0  0
 41 59  1  0  0  0  0
 42 62  1  0  0  0  0
 43 58  1  0  0  0  0
 44 57  1  0  0  0  0
 45 54  1  0  0  0  0
 46 55  1  0  0  0  0
 47 55  1  0  0  0  0
 48 55  1  0  0  0  0
 49 65  1  0  0  0  0
 50 51  1  0  0  0  0
 50 52  1  0  0  0  0
 51 64  1  0  0  0  0
 52 72  1  0  0  0  0
 53 55  1  0  0  0  0
 53 63  1  0  0  0  0
 54 65  1  0  0  0  0
 56 57  1  0  0  0  0
M  CHG  1  65   1
M  ISO  4  32 100  52 101  64 100  72 101
M  END
> <Batch ID>
0002

> <Smiles>
CNC(C)C(=O)NC(C(=O)N1Cc2cc([101O:1][101CH2:1]CC[100NH:0][100C:0](=O)N3CCCC(n4nc(-c5ccc(Oc6ccc(F)cc6F)cc5)c(C(N)=O)c4N)C3)ccc2CC1C(=O)NC1CCCc2ccccc21)C(C)(C)C

> <Shape>
0.222

> <Color>
0.068

> <Negative vol penalty>
0.000

$$$$

  -OEChem-04042320173D

 83 92  0     1  0  0  0  0  0999 V2000
  -32.7411  -30.7856   13.2749 C   0  0  0  0  0  0  0  0  0  0  0  0
  -32.4993  -29.4347   13.5032 C   0  0  0  0  0  0  0  0  0  0  0  0
  -23.0182   -9.8944   19.9655 C   0  0  0  0  0  0  0  0  0  0  0  0
  -23.6420   -9.9582   22.2987 C   0  0  0  0  0  0  0  0  0  0  0  0
  -28.4915  -18.5518   20.6230 C   0  0  0  0  0  0  0  0  0  0  0  0
  -30.5728  -19.7717   20.4928 C   0  0  0  0  0  0  0  0  0  0  0  0
  -32.8495  -31.6648   14.3515 C   0  0  0  0  0  0  0  0  0  0  0  0
  -32.3669  -28.9621   14.8084 C   0  0  0  0  0  0  0  0  0  0  0  0
  -29.1330  -17.5323   21.3262 C   0  0  0  0  0  0  0  0  0  0  0  0
  -31.2144  -18.7522   21.1961 C   0  0  0  0  0  0  0  0  0  0  0  0
  -28.6989  -24.4527   16.7364 C   0  0  0  0  0  0  0  0  0  0  0  0
  -22.2186   -8.7779   20.2098 C   0  0  0  0  0  0  0  0  0  0  0  0
  -22.8424   -8.8417   22.5430 C   0  0  0  0  0  0  0  0  0  0  0  0
  -28.9316  -23.1048   17.0059 C   0  0  0  0  0  0  0  0  0  0  0  0
  -23.0419   -5.4934   22.1182 C   0  0  0  0  0  0  0  0  0  0  0  0
  -23.5757   -4.4740   22.9065 C   0  0  0  0  0  0  0  0  0  0  0  0
  -29.2156  -23.6274   19.3437 C   0  0  0  0  0  0  0  0  0  0  0  0
  -21.7848   -4.7691   24.5011 C   0  0  0  0  0  0  0  0  0  0  0  0
  -23.7299  -10.4845   21.0100 C   0  0  0  0  0  0  0  0  0  0  0  0
  -29.2114  -19.6716   20.2063 C   0  0  0  0  0  0  0  0  0  0  0  0
  -24.1718  -12.9901   20.8242 C   0  0  0  0  0  0  0  0  0  0  0  0
  -30.4944  -17.6324   21.6128 C   0  0  0  0  0  0  0  0  0  0  0  0
  -32.7087  -31.2044   15.6702 C   0  0  0  0  0  0  0  0  0  0  0  0
  -28.7336  -25.4013   17.7687 C   0  0  0  0  0  0  0  0  0  0  0  0
  -32.4748  -29.8358   15.9037 C   0  0  0  0  0  0  0  0  0  0  0  0
  -28.9804  -24.9864   19.0851 C   0  0  0  0  0  0  0  0  0  0  0  0
  -22.1307   -8.2515   21.4986 C   0  0  0  0  0  0  0  0  0  0  0  0
  -29.1929  -22.6923   18.3092 C   0  0  0  0  0  0  0  0  0  0  0  0
  -21.8795   -6.1508   22.5214 C   0  0  0  0  0  0  0  0  0  0  0  0
  -22.9472   -4.1118   24.0979 C   0  0  0  0  0  0  0  0  0  0  0  0
  -21.2510   -5.7886   23.7128 C   0  0  0  0  0  0  0  0  0  0  0  0
  -24.5565  -11.6375   20.7581 C   0  0  0  0  0  0  0  0  0  0  0  0
  -25.3104  -13.6871   20.5016 C   0  0  0  0  0  0  0  0  0  0  0  0
  -28.5433  -20.7355   19.4734 C   0  0  0  0  0  0  0  0  0  1  0  0
  -22.8990  -13.5650   21.1484 C   0  0  0  0  0  0  0  0  0  0  0  0
  -30.5128  -27.9566   18.4080 C   0  0  0  0  0  0  0  0  0  0  0  0
  -28.4021  -28.3340   20.8422 C   0  0  0  0  0  0  0  0  0  0  0  0
  -26.1412  -26.9080   22.9638 C   0  0  0  0  0  0  0  0  0  0  0  0
  -30.7495  -14.5485   20.9130 C   0  0  0  0  0  0  0  0  0  0  0  0
  -32.8809  -32.1845   16.8035 C   0  0  0  0  0  0  0  0  0  0  0  0
  -28.4540  -26.8478   17.4656 C   0  0  0  0  0  0  0  0  0  0  0  0
  -29.0086  -25.9623   20.2320 C   0  0  0  0  0  0  0  0  0  0  0  0
  -32.3552  -31.6681   18.1404 C   0  0  0  0  0  0  0  0  0  0  0  0
  -31.1284  -15.3059   24.4389 C   0  0  0  0  0  0  0  0  0  0  0  0
  -29.7196  -12.1315   18.6050 C   0  0  0  0  0  0  0  0  0  0  0  0
  -31.1166  -16.7290   23.8954 C   0  0  0  0  0  0  0  0  0  0  0  0
  -32.8302  -30.2393   18.3849 C   0  0  0  0  0  0  0  0  0  0  0  0
  -28.2578  -11.8744   18.9654 C   0  0  0  0  0  0  0  0  0  0  0  0
  -30.5631  -12.3183   19.8600 C   0  0  0  0  0  0  0  0  0  0  0  0
  -30.2935  -14.5480   23.4185 C   0  0  0  0  0  0  0  0  0  0  0  0
  -28.6148  -13.1908   21.1153 C   0  0  0  0  0  0  0  0  0  0  0  0
  -31.1891  -16.5276   22.3760 C   0  0  1  0  0  0  0  0  0  0  0  0
  -32.3005  -29.2893   17.3041 C   0  0  1  0  0  0  0  0  0  0  0  0
  -29.0223  -27.7987   18.5145 C   0  0  1  0  0  0  0  0  0  0  0  0
  -27.7166  -12.9873   19.8780 C   0  0  2  0  0  0  0  0  0  0  0  0
  -24.6054  -27.4634   24.8691 C   0  0  0  0  0  0  0  0  0  0  0  0
  -30.7949  -28.4588   22.7314 C   0  0  0  0  0  0  0  0  0  0  0  0
  -29.2223  -28.0564   24.6376 C   0  0  0  0  0  0  0  0  0  0  0  0
  -28.9810  -30.1052   23.2351 C   0  0  0  0  0  0  0  0  0  0  0  0
  -23.7504  -26.0726   21.4324 C   0  0  0  0  0  0  0  0  0  0  0  0
  -28.3253  -27.8608   22.2737 C   0  0  1  0  0  0  0  0  0  0  0  0
  -24.7346  -27.3182   23.3608 C   0  0  2  0  0  0  0  0  0  0  0  0
  -29.3323  -28.6019   23.1978 C   0  0  0  0  0  0  0  0  0  0  0  0
  -25.8393  -11.4823   20.4199 N   0  0  0  0  0  0  0  0  0  0  0  0
  -27.2921  -21.0839   19.5847 N   0  0  0  0  0  0  0  0  0  0  0  0
  -26.2705  -12.7463   20.2705 N   0  0  0  0  0  0  0  0  0  0  0  0
  -28.7354  -27.3665   19.8838 N   0  0  0  0  0  0  0  0  0  0  0  0
  -30.0184  -13.3696   20.7199 N   0  0  0  0  0  0  0  0  0  0  0  0
  -30.6083  -15.1961   22.1439 N   0  0  0  0  0  0  0  0  0  0  0  0
  -25.5741  -15.0068   20.3957 N   0  0  0  0  0  0  0  0  0  0  0  0
  -21.8359  -12.7047   21.4553 N   0  0  0  0  0  0  0  0  0  0  0  0
  -30.9120  -28.9654   17.5522 N   0  0  0  0  0  0  0  0  0  0  0  0
  -26.9300  -28.0016   22.6758 N   0  0  0  0  0  0  0  0  0  0  0  0
  -23.7487  -26.2998   22.9005 N   0  3  0  0  0  0  0  0  0  0  0  0
  -22.7056  -14.8044   21.1493 O   0  0  0  0  0  0  0  0  0  0  0  0
  -31.2463  -27.2188   19.0556 O   0  0  0  0  0  0  0  0  0  0  0  0
  -28.1679  -29.5171   20.5830 O   0  0  0  0  0  0  0  0  0  0  0  0
  -26.5050  -25.7349   22.9177 O   0  0  0  0  0  0  0  0  0  0  0  0
  -31.5071  -14.9898   20.0395 O   0  0  0  0  0  0  0  0  0  0  0  0
  -21.3504   -7.1622   21.7374 O   0  0  0  0  0  0  0  0  0  0  0  0
  -29.4277  -21.3387   18.5827 O   0  0  0  0  0  0  0  0  0  1  0  0
  -23.4591   -3.1318   24.8539 F   0  0  0  0  0  0  0  0  0  0  0  0
  -20.1334   -6.4157   24.1048 F   0  0  0  0  0  0  0  0  0  0  0  0
  1  2  1  0  0  0  0
  1  7  2  0  0  0  0
  2  8  2  0  0  0  0
  3 12  2  0  0  0  0
  3 19  1  0  0  0  0
  4 13  1  0  0  0  0
  4 19  2  0  0  0  0
  5  9  2  0  0  0  0
  5 20  1  0  0  0  0
  6 10  1  0  0  0  0
  6 20  2  0  0  0  0
  7 23  1  0  0  0  0
  8 25  1  0  0  0  0
  9 22  1  0  0  0  0
 10 22  2  0  0  0  0
 11 14  2  0  0  0  0
 11 24  1  0  0  0  0
 12 27  1  0  0  0  0
 13 27  2  0  0  0  0
 14 28  1  0  0  0  0
 15 16  2  0  0  0  0
 15 29  1  0  0  0  0
 16 30  1  0  0  0  0
 17 26  1  0  0  0  0
 17 28  2  0  0  0  0
 18 30  2  0  0  0  0
 18 31  1  0  0  0  0
 19 32  1  0  0  0  0
 20 34  1  0  0  0  0
 21 32  1  0  0  0  0
 21 33  2  0  0  0  0
 21 35  1  0  0  0  0
 22 52  1  0  0  0  0
 23 25  2  0  0  0  0
 23 40  1  0  0  0  0
 24 26  2  0  0  0  0
 24 41  1  0  0  0  0
 25 53  1  0  0  0  0
 26 42  1  0  0  0  0
 27 80  1  0  0  0  0
 28 81  1  0  0  0  0
 29 31  2  0  0  0  0
 29 80  1  0  0  0  0
 30 82  1  0  0  0  0
 31 83  1  0  0  0  0
 32 64  2  0  0  0  0
 33 66  1  0  0  0  0
 33 70  1  0  0  0  0
 34 65  2  0  0  0  0
 34 81  1  0  0  0  0
 35 71  1  0  0  0  0
 35 75  2  0  0  0  0
 36 54  1  0  0  0  0
 36 72  1  0  0  0  0
 36 76  2  0  0  0  0
 37 61  1  0  0  0  0
 37 67  1  0  0  0  0
 37 77  2  0  0  0  0
 38 62  1  0  0  0  0
 38 73  1  0  0  0  0
 38 78  2  0  0  0  0
 39 68  1  0  0  0  0
 39 69  1  0  0  0  0
 39 79  2  0  0  0  0
 40 43  1  0  0  0  0
 41 54  1  0  0  0  0
 42 67  1  0  0  0  0
 43 47  1  0  0  0  0
 44 46  1  0  0  0  0
 44 50  1  0  0  0  0
 45 48  1  0  0  0  0
 45 49  1  0  0  0  0
 46 52  1  0  0  0  0
 47 53  1  0  0  0  0
 48 55  1  0  0  0  0
 49 68  1  0  0  0  0
 50 69  1  0  0  0  0
 51 55  1  0  0  0  0
 51 68  1  0  0  0  0
 52 69  1  0  0  0  0
 53 72  1  0  0  0  0
 54 67  1  0  0  0  0
 55 66  1  0  0  0  0
 56 62  1  0  0  0  0
 57 63  1  0  0  0  0
 58 63  1  0  0  0  0
 59 63  1  0  0  0  0
 60 74  1  0  0  0  0
 61 63  1  0  0  0  0
 61 73  1  0  0  0  0
 62 74  1  0  0  0  0
 64 66  1  0  0  0  0
M  CHG  1  74   1
M  ISO  4  34 101  39 100  69 100  81 101
M  END
> <Batch ID>
0002

> <Smiles>
CNC(C)C(=O)NC(C(=O)N1Cc2cc([101O:1][101C:1](=N)c3ccc(C4CCC[100N:0]4[100C:0](=O)N4CCCC(n5nc(-c6ccc(Oc7ccc(F)cc7F)cc6)c(C(N)=O)c5N)C4)cc3)ccc2CC1C(=O)NC1CCCc2ccccc21)C(C)(C)C

> <Shape>
0.293

> <Color>
0.203

> <Negative vol penalty>
0.000

$$$$

  -OEChem-04042320173D

 78 86  0     1  0  0  0  0  0999 V2000
  -26.6841  -10.9203   17.4068 C   0  0  0  0  0  0  0  0  0  0  0  0
  -25.9165  -12.0441   17.6955 C   0  0  0  0  0  0  0  0  0  0  0  0
  -19.9748  -20.0918   15.6358 C   0  0  0  0  0  0  0  0  0  0  0  0
  -26.2164  -29.3106   20.5870 C   0  0  0  0  0  0  0  0  0  0  0  0
  -23.8093  -29.2573   20.3869 C   0  0  0  0  0  0  0  0  0  0  0  0
  -27.9824  -10.8178   17.9046 C   0  0  0  0  0  0  0  0  0  0  0  0
  -26.4464  -13.0655   18.4831 C   0  0  0  0  0  0  0  0  0  0  0  0
  -25.4958  -17.6671   16.5943 C   0  0  0  0  0  0  0  0  0  0  0  0
  -20.6014  -20.8556   14.6511 C   0  0  0  0  0  0  0  0  0  0  0  0
  -20.6913  -19.6775   16.7585 C   0  0  0  0  0  0  0  0  0  0  0  0
  -26.1283  -30.4847   21.3348 C   0  0  0  0  0  0  0  0  0  0  0  0
  -23.7211  -30.4314   21.1348 C   0  0  0  0  0  0  0  0  0  0  0  0
  -24.2173  -18.1859   16.7945 C   0  0  0  0  0  0  0  0  0  0  0  0
  -26.5161  -33.2993   23.6026 C   0  0  0  0  0  0  0  0  0  0  0  0
  -27.2957  -33.3941   24.7552 C   0  0  0  0  0  0  0  0  0  0  0  0
  -25.0503  -19.5155   18.6269 C   0  0  0  0  0  0  0  0  0  0  0  0
  -22.6613  -20.7908   15.9118 C   0  0  0  0  0  0  0  0  0  0  0  0
  -26.1775  -31.4580   25.6708 C   0  0  0  0  0  0  0  0  0  0  0  0
  -25.0569  -28.6969   20.1130 C   0  0  0  0  0  0  0  0  0  0  0  0
  -25.1360  -26.1633   19.8263 C   0  0  0  0  0  0  0  0  0  0  0  0
  -28.5320  -11.8429   18.6907 C   0  0  0  0  0  0  0  0  0  0  0  0
  -26.5607  -18.0611   17.4173 C   0  0  0  0  0  0  0  0  0  0  0  0
  -27.7528  -12.9760   18.9929 C   0  0  0  0  0  0  0  0  0  0  0  0
  -26.3419  -19.0022   18.4334 C   0  0  0  0  0  0  0  0  0  0  0  0
  -21.9447  -21.2051   14.7892 C   0  0  0  0  0  0  0  0  0  0  0  0
  -24.8807  -31.0451   21.6087 C   0  0  0  0  0  0  0  0  0  0  0  0
  -23.9938  -19.1080   17.8127 C   0  0  0  0  0  0  0  0  0  0  0  0
  -22.0346  -20.0270   16.8965 C   0  0  0  0  0  0  0  0  0  1  0  0
  -25.5670  -32.2839   23.4840 C   0  0  0  0  0  0  0  0  0  0  0  0
  -27.1265  -32.4734   25.7893 C   0  0  0  0  0  0  0  0  0  0  0  0
  -25.3978  -31.3633   24.5181 C   0  0  0  0  0  0  0  0  0  0  0  0
  -25.1473  -27.4843   19.3400 C   0  0  0  0  0  0  0  0  0  0  0  0
  -25.2459  -25.3824   18.7017 C   0  0  0  0  0  0  0  0  0  0  0  0
  -25.0350  -25.6848   21.1741 C   0  0  0  0  0  0  0  0  0  0  0  0
  -28.5059  -16.5659   19.4382 C   0  0  0  0  0  0  0  0  0  0  0  0
  -29.9681  -19.4589   19.5605 C   0  0  0  0  0  0  0  0  0  0  0  0
  -29.7385  -22.8404   19.1610 C   0  0  0  0  0  0  0  0  0  0  0  0
  -23.7955  -24.1852   13.4474 C   0  0  0  0  0  0  0  0  0  0  0  0
  -29.9231  -11.6657   19.2455 C   0  0  0  0  0  0  0  0  0  0  0  0
  -27.9394  -17.5124   17.1713 C   0  0  0  0  0  0  0  0  0  0  0  0
  -27.4556  -19.4731   19.3314 C   0  0  0  0  0  0  0  0  0  0  0  0
  -30.5429  -12.9620   19.7612 C   0  0  0  0  0  0  0  0  0  0  0  0
  -26.3418  -26.6277   13.9232 C   0  0  0  0  0  0  0  0  0  0  0  0
  -29.5451  -13.7225   20.6288 C   0  0  0  0  0  0  0  0  0  0  0  0
  -26.2528  -26.9636   15.4129 C   0  0  0  0  0  0  0  0  0  0  0  0
  -24.9634  -26.3660   13.3203 C   0  0  0  0  0  0  0  0  0  0  0  0
  -24.0734  -25.6835   15.5147 C   0  0  0  0  0  0  0  0  0  0  0  0
  -28.3012  -14.1163   19.8231 C   0  0  1  0  0  0  0  0  0  0  0  0
  -28.8433  -17.5957   18.3974 C   0  0  1  0  0  0  0  0  0  0  0  0
  -25.4433  -25.9007   16.1799 C   0  0  2  0  0  0  0  0  0  0  0  0
  -31.0889  -24.9450   19.3711 C   0  0  0  0  0  0  0  0  0  0  0  0
  -29.6895  -19.3316   22.5963 C   0  0  0  0  0  0  0  0  0  0  0  0
  -30.1591  -21.7896   22.6727 C   0  0  0  0  0  0  0  0  0  0  0  0
  -31.8828  -20.2193   21.7863 C   0  0  0  0  0  0  0  0  0  0  0  0
  -29.4207  -23.4692   16.2865 C   0  0  0  0  0  0  0  0  0  0  0  0
  -22.6139  -22.0219   13.7363 C   0  0  0  0  0  0  0  0  0  0  0  0
  -29.8171  -20.6981   20.4094 C   0  0  1  0  0  0  0  0  0  0  0  0
  -30.6330  -23.8325   18.4399 C   0  0  2  0  0  0  0  0  0  0  0  0
  -30.3655  -20.4995   21.8507 C   0  0  0  0  0  0  0  0  0  0  0  0
  -25.2560  -27.5432   18.0100 N   0  0  0  0  0  0  0  0  0  0  0  0
  -25.3141  -26.2495   17.6511 N   0  0  0  0  0  0  0  0  0  0  0  0
  -28.7845  -18.9027   19.0551 N   0  0  0  0  0  0  0  0  0  0  0  0
  -24.2485  -25.3474   14.0931 N   0  0  0  0  0  0  0  0  0  0  0  0
  -25.2899  -24.0456   18.5190 N   0  0  0  0  0  0  0  0  0  0  0  0
  -24.9289  -26.6229   22.2099 N   0  0  0  0  0  0  0  0  0  0  0  0
  -28.5833  -15.2625   18.9859 N   0  0  0  0  0  0  0  0  0  0  0  0
  -30.4581  -21.7801   19.6700 N   0  0  0  0  0  0  0  0  0  0  0  0
  -23.1329  -23.2682   14.2542 N   0  0  0  0  0  0  0  0  0  0  0  0
  -29.9058  -24.4476   17.2936 N   0  3  0  0  0  0  0  0  0  0  0  0
  -25.0553  -24.4619   21.4530 O   0  0  0  0  0  0  0  0  0  0  0  0
  -28.1997  -16.9270   20.5685 O   0  0  0  0  0  0  0  0  0  0  0  0
  -31.0953  -19.0054   19.3476 O   0  0  0  0  0  0  0  0  0  0  0  0
  -28.5234  -22.9928   19.2657 O   0  0  0  0  0  0  0  0  0  0  0  0
  -23.9733  -23.9774   12.2423 O   0  0  0  0  0  0  0  0  0  0  0  0
  -24.7943  -32.1907   22.3386 O   0  0  0  0  0  0  0  0  0  0  0  0
  -22.7467  -19.6154   18.0107 O   0  0  0  0  0  0  0  0  0  1  0  0
  -27.8763  -32.5636   26.8956 F   0  0  0  0  0  0  0  0  0  0  0  0
  -24.4885  -30.3849   24.4094 F   0  0  0  0  0  0  0  0  0  0  0  0
  1  2  1  0  0  0  0
  1  6  2  0  0  0  0
  2  7  2  0  0  0  0
  3  9  1  0  0  0  0
  3 10  2  0  0  0  0
  4 11  2  0  0  0  0
  4 19  1  0  0  0  0
  5 12  1  0  0  0  0
  5 19  2  0  0  0  0
  6 21  1  0  0  0  0
  7 23  1  0  0  0  0
  8 13  2  0  0  0  0
  8 22  1  0  0  0  0
  9 25  2  0  0  0  0
 10 28  1  0  0  0  0
 11 26  1  0  0  0  0
 12 26  2  0  0  0  0
 13 27  1  0  0  0  0
 14 15  2  0  0  0  0
 14 29  1  0  0  0  0
 15 30  1  0  0  0  0
 16 24  1  0  0  0  0
 16 27  2  0  0  0  0
 17 25  1  0  0  0  0
 17 28  2  0  0  0  0
 18 30  2  0  0  0  0
 18 31  1  0  0  0  0
 19 32  1  0  0  0  0
 20 32  1  0  0  0  0
 20 33  2  0  0  0  0
 20 34  1  0  0  0  0
 21 23  2  0  0  0  0
 21 39  1  0  0  0  0
 22 24  2  0  0  0  0
 22 40  1  0  0  0  0
 23 48  1  0  0  0  0
 24 41  1  0  0  0  0
 25 56  1  0  0  0  0
 26 75  1  0  0  0  0
 27 76  1  0  0  0  0
 28 76  1  0  0  0  0
 29 31  2  0  0  0  0
 29 75  1  0  0  0  0
 30 77  1  0  0  0  0
 31 78  1  0  0  0  0
 32 60  2  0  0  0  0
 33 61  1  0  0  0  0
 33 64  1  0  0  0  0
 34 65  1  0  0  0  0
 34 70  2  0  0  0  0
 35 49  1  0  0  0  0
 35 66  1  0  0  0  0
 35 71  2  0  0  0  0
 36 57  1  0  0  0  0
 36 62  1  0  0  0  0
 36 72  2  0  0  0  0
 37 58  1  0  0  0  0
 37 67  1  0  0  0  0
 37 73  2  0  0  0  0
 38 63  1  0  0  0  0
 38 68  1  0  0  0  0
 38 74  2  0  0  0  0
 39 42  1  0  0  0  0
 40 49  1  0  0  0  0
 41 62  1  0  0  0  0
 42 44  1  0  0  0  0
 43 45  1  0  0  0  0
 43 46  1  0  0  0  0
 44 48  1  0  0  0  0
 45 50  1  0  0  0  0
 46 63  1  0  0  0  0
 47 50  1  0  0  0  0
 47 63  1  0  0  0  0
 48 66  1  0  0  0  0
 49 62  1  0  0  0  0
 50 61  1  0  0  0  0
 51 58  1  0  0  0  0
 52 59  1  0  0  0  0
 53 59  1  0  0  0  0
 54 59  1  0  0  0  0
 55 69  1  0  0  0  0
 56 68  1  0  0  0  0
 57 59  1  0  0  0  0
 57 67  1  0  0  0  0
 58 69  1  0  0  0  0
 60 61  1  0  0  0  0
M  CHG  1  69   1
M  ISO  4  28 101  38 100  68 100  76 101
M  END
> <Batch ID>
0002

> <Smiles>
CNC(C)C(=O)NC(C(=O)N1Cc2cc([101O:1][101c:1]3cccc(C[100NH:0][100C:0](=O)N4CCCC(n5nc(-c6ccc(Oc7ccc(F)cc7F)cc6)c(C(N)=O)c5N)C4)c3)ccc2CC1C(=O)NC1CCCc2ccccc21)C(C)(C)C

> <Shape>
0.233

> <Color>
0.052

> <Negative vol penalty>
0.000

$$$$

  -OEChem-04042320173D

 79 87  0     1  0  0  0  0  0999 V2000
  -28.4571  -37.0392   20.5900 C   0  0  0  0  0  0  0  0  0  0  0  0
  -28.8157  -35.7187   20.3389 C   0  0  0  0  0  0  0  0  0  0  0  0
  -27.0399  -12.7507   21.1855 C   0  0  0  0  0  0  0  0  0  0  0  0
  -26.1192  -14.4288   19.7112 C   0  0  0  0  0  0  0  0  0  0  0  0
  -27.5095  -37.3286   21.5709 C   0  0  0  0  0  0  0  0  0  0  0  0
  -28.2276  -34.6867   21.0695 C   0  0  0  0  0  0  0  0  0  0  0  0
  -26.8363  -29.0751   19.0497 C   0  0  0  0  0  0  0  0  0  0  0  0
  -29.0027  -23.0637   18.7500 C   0  0  0  0  0  0  0  0  0  0  0  0
  -29.5121  -21.7857   18.9797 C   0  0  0  0  0  0  0  0  0  0  0  0
  -25.7507  -12.3283   21.5098 C   0  0  0  0  0  0  0  0  0  0  0  0
  -24.8300  -14.0064   20.0354 C   0  0  0  0  0  0  0  0  0  0  0  0
  -27.4923  -27.8497   19.1582 C   0  0  0  0  0  0  0  0  0  0  0  0
  -22.7107  -10.5703   22.4496 C   0  0  0  0  0  0  0  0  0  0  0  0
  -22.4648   -9.1976   22.4734 C   0  0  0  0  0  0  0  0  0  0  0  0
  -26.1342  -27.2991   21.0744 C   0  0  0  0  0  0  0  0  0  0  0  0
  -30.7378  -22.6172   20.8884 C   0  0  0  0  0  0  0  0  0  0  0  0
  -23.0840   -9.0463   20.1430 C   0  0  0  0  0  0  0  0  0  0  0  0
  -27.2242  -13.8010   20.2862 C   0  0  0  0  0  0  0  0  0  0  0  0
  -29.3678  -13.7639   18.9039 C   0  0  0  0  0  0  0  0  0  0  0  0
  -26.9024  -36.2990   22.3072 C   0  0  0  0  0  0  0  0  0  0  0  0
  -25.8300  -29.4269   19.9609 C   0  0  0  0  0  0  0  0  0  0  0  0
  -27.2720  -34.9627   22.0621 C   0  0  0  0  0  0  0  0  0  0  0  0
  -25.4652  -28.5285   20.9737 C   0  0  0  0  0  0  0  0  0  0  0  0
  -29.3610  -24.1185   19.5895 C   0  0  0  0  0  0  0  0  0  0  0  0
  -30.2285  -23.8953   20.6587 C   0  0  0  0  0  0  0  0  0  0  0  0
  -30.3796  -21.5624   20.0489 C   0  0  0  0  0  0  0  0  0  0  0  0
  -24.6458  -12.9561   20.9347 C   0  0  0  0  0  0  0  0  0  0  0  0
  -27.1434  -26.9627   20.1724 C   0  0  0  0  0  0  0  0  0  0  0  0
  -23.1432  -11.1812   21.2725 C   0  0  0  0  0  0  0  0  0  0  0  0
  -22.6515   -8.4355   21.3201 C   0  0  0  0  0  0  0  0  0  0  0  0
  -23.3299  -10.4191   20.1192 C   0  0  0  0  0  0  0  0  0  0  0  0
  -28.5556  -14.2382   19.9513 C   0  0  0  0  0  0  0  0  0  0  0  0
  -30.5263  -14.4940   19.0101 C   0  0  0  0  0  0  0  0  0  0  0  0
  -29.0991  -12.7537   17.9226 C   0  0  0  0  0  0  0  0  0  0  0  0
  -25.4528  -31.7468   22.1008 C   0  0  0  0  0  0  0  0  0  0  0  0
  -22.4870  -30.4653   22.3906 C   0  0  0  0  0  0  0  0  0  0  0  0
  -20.4600  -27.7427   22.0361 C   0  0  0  0  0  0  0  0  0  0  0  0
  -31.7668  -19.8720   21.2998 C   0  0  0  0  0  0  0  0  0  0  0  0
  -25.9181  -36.6640   23.3901 C   0  0  0  0  0  0  0  0  0  0  0  0
  -25.1135  -30.7412   19.8140 C   0  0  0  0  0  0  0  0  0  0  0  0
  -24.3777  -28.8499   21.9649 C   0  0  0  0  0  0  0  0  0  0  0  0
  -25.0667  -35.4877   23.8610 C   0  0  0  0  0  0  0  0  0  0  0  0
  -33.2370  -16.7678   22.2375 C   0  0  0  0  0  0  0  0  0  0  0  0
  -25.9399  -34.2612   24.1064 C   0  0  0  0  0  0  0  0  0  0  0  0
  -32.2805  -15.7236   21.6571 C   0  0  0  0  0  0  0  0  0  0  0  0
  -32.4897  -17.9943   22.7581 C   0  0  0  0  0  0  0  0  0  0  0  0
  -30.6161  -17.5733   21.2148 C   0  0  0  0  0  0  0  0  0  0  0  0
  -26.6381  -33.8141   22.8165 C   0  0  1  0  0  0  0  0  0  0  0  0
  -24.4587  -31.2127   21.1088 C   0  0  1  0  0  0  0  0  0  0  0  0
  -31.3277  -16.3477   20.6187 C   0  0  2  0  0  0  0  0  0  0  0  0
  -30.6243  -25.0089   21.5717 C   0  0  0  0  0  0  0  0  0  0  0  0
  -18.0924  -26.9901   22.3902 C   0  0  0  0  0  0  0  0  0  0  0  0
  -22.9997  -30.2729   25.3923 C   0  0  0  0  0  0  0  0  0  0  0  0
  -21.0672  -28.6891   25.5503 C   0  0  0  0  0  0  0  0  0  0  0  0
  -20.6981  -31.0307   24.7735 C   0  0  0  0  0  0  0  0  0  0  0  0
  -20.0914  -27.1623   19.1575 C   0  0  0  0  0  0  0  0  0  0  0  0
  -28.8010  -25.4846   19.3218 C   0  0  0  0  0  0  0  0  0  1  0  0
  -21.8668  -29.3883   23.2475 C   0  0  1  0  0  0  0  0  0  0  0  0
  -19.0882  -27.5835   21.4059 C   0  0  2  0  0  0  0  0  0  0  0  0
  -21.6798  -29.8397   24.7236 C   0  0  0  0  0  0  0  0  0  0  0  0
  -29.1480  -15.1954   20.6702 N   0  0  0  0  0  0  0  0  0  0  0  0
  -30.3448  -15.3285   20.0735 N   0  0  0  0  0  0  0  0  0  0  0  0
  -23.7109  -30.1499   21.7836 N   0  0  0  0  0  0  0  0  0  0  0  0
  -31.6098  -18.5340   21.7191 N   0  0  0  0  0  0  0  0  0  0  0  0
  -31.6724  -14.4970   18.2968 N   0  0  0  0  0  0  0  0  0  0  0  0
  -27.8586  -12.1022   17.9568 N   0  0  0  0  0  0  0  0  0  0  0  0
  -30.8956  -20.2638   20.2838 N   0  0  0  0  0  0  0  0  0  0  0  0
  -25.7143  -33.0968   21.9642 N   0  0  0  0  0  0  0  0  0  0  0  0
  -20.6292  -28.9982   22.5806 N   0  0  0  0  0  0  0  0  0  0  0  0
  -19.1650  -26.6876   20.2174 N   0  3  0  0  0  0  0  0  0  0  0  0
  -29.9405  -12.4266   17.0516 O   0  0  0  0  0  0  0  0  0  0  0  0
  -25.9450  -30.9904   22.9299 O   0  0  0  0  0  0  0  0  0  0  0  0
  -21.9034  -31.5440   22.2587 O   0  0  0  0  0  0  0  0  0  0  0  0
  -21.2963  -26.8422   22.0478 O   0  0  0  0  0  0  0  0  0  0  0  0
  -32.6298  -20.6074   21.7859 O   0  0  0  0  0  0  0  0  0  0  0  0
  -23.3876  -12.5441   21.2507 O   0  0  0  0  0  0  0  0  0  0  0  0
  -27.7826  -25.7663   20.2810 O   0  0  0  0  0  0  0  0  0  1  0  0
  -22.4168   -7.1170   21.3435 F   0  0  0  0  0  0  0  0  0  0  0  0
  -23.7463  -11.0001   18.9857 F   0  0  0  0  0  0  0  0  0  0  0  0
  1  2  1  0  0  0  0
  1  5  2  0  0  0  0
  2  6  2  0  0  0  0
  3 10  2  0  0  0  0
  3 18  1  0  0  0  0
  4 11  1  0  0  0  0
  4 18  2  0  0  0  0
  5 20  1  0  0  0  0
  6 22  1  0  0  0  0
  7 12  2  0  0  0  0
  7 21  1  0  0  0  0
  8  9  2  0  0  0  0
  8 24  1  0  0  0  0
  9 26  1  0  0  0  0
 10 27  1  0  0  0  0
 11 27  2  0  0  0  0
 12 28  1  0  0  0  0
 13 14  2  0  0  0  0
 13 29  1  0  0  0  0
 14 30  1  0  0  0  0
 15 23  1  0  0  0  0
 15 28  2  0  0  0  0
 16 25  1  0  0  0  0
 16 26  2  0  0  0  0
 17 30  2  0  0  0  0
 17 31  1  0  0  0  0
 18 32  1  0  0  0  0
 19 32  1  0  0  0  0
 19 33  2  0  0  0  0
 19 34  1  0  0  0  0
 20 22  2  0  0  0  0
 20 39  1  0  0  0  0
 21 23  2  0  0  0  0
 21 40  1  0  0  0  0
 22 48  1  0  0  0  0
 23 41  1  0  0  0  0
 24 25  2  0  0  0  0
 24 57  1  0  0  0  0
 25 51  1  0  0  0  0
 26 67  1  0  0  0  0
 27 76  1  0  0  0  0
 28 77  1  0  0  0  0
 29 31  2  0  0  0  0
 29 76  1  0  0  0  0
 30 78  1  0  0  0  0
 31 79  1  0  0  0  0
 32 61  2  0  0  0  0
 33 62  1  0  0  0  0
 33 65  1  0  0  0  0
 34 66  1  0  0  0  0
 34 71  2  0  0  0  0
 35 49  1  0  0  0  0
 35 68  1  0  0  0  0
 35 72  2  0  0  0  0
 36 58  1  0  0  0  0
 36 63  1  0  0  0  0
 36 73  2  0  0  0  0
 37 59  1  0  0  0  0
 37 69  1  0  0  0  0
 37 74  2  0  0  0  0
 38 64  1  0  0  0  0
 38 67  1  0  0  0  0
 38 75  2  0  0  0  0
 39 42  1  0  0  0  0
 40 49  1  0  0  0  0
 41 63  1  0  0  0  0
 42 44  1  0  0  0  0
 43 45  1  0  0  0  0
 43 46  1  0  0  0  0
 44 48  1  0  0  0  0
 45 50  1  0  0  0  0
 46 64  1  0  0  0  0
 47 50  1  0  0  0  0
 47 64  1  0  0  0  0
 48 68  1  0  0  0  0
 49 63  1  0  0  0  0
 50 62  1  0  0  0  0
 52 59  1  0  0  0  0
 53 60  1  0  0  0  0
 54 60  1  0  0  0  0
 55 60  1  0  0  0  0
 56 70  1  0  0  0  0
 57 77  1  0  0  0  0
 58 60  1  0  0  0  0
 58 69  1  0  0  0  0
 59 70  1  0  0  0  0
 61 62  1  0  0  0  0
M  CHG  1  70   1
M  ISO  4  38 100  57 101  67 100  77 101
M  END
> <Batch ID>
0002

> <Smiles>
CNC(C)C(=O)NC(C(=O)N1Cc2cc([101O:1][101CH2:1]c3ccc([100NH:0][100C:0](=O)N4CCCC(n5nc(-c6ccc(Oc7ccc(F)cc7F)cc6)c(C(N)=O)c5N)C4)cc3C)ccc2CC1C(=O)NC1CCCc2ccccc21)C(C)(C)C

> <Shape>
0.339

> <Color>
0.070

> <Negative vol penalty>
0.000

$$$$

  -OEChem-04042320173D

 81 89  0     1  0  0  0  0  0999 V2000
  -25.9048   -6.9630   23.0526 C   0  0  0  0  0  0  0  0  0  0  0  0
  -26.6941   -8.0531   22.7004 C   0  0  0  0  0  0  0  0  0  0  0  0
  -21.4994  -30.1621   20.9884 C   0  0  0  0  0  0  0  0  0  0  0  0
  -22.5050  -28.9466   22.8183 C   0  0  0  0  0  0  0  0  0  0  0  0
  -24.5699   -6.9124   22.6532 C   0  0  0  0  0  0  0  0  0  0  0  0
  -26.1492   -9.0928   21.9477 C   0  0  0  0  0  0  0  0  0  0  0  0
  -27.5101  -15.0490   22.3698 C   0  0  0  0  0  0  0  0  0  0  0  0
  -30.7400  -23.4308   19.6692 C   0  0  0  0  0  0  0  0  0  0  0  0
  -28.8009  -23.7377   21.0772 C   0  0  0  0  0  0  0  0  0  0  0  0
  -20.2388  -29.7155   21.3846 C   0  0  0  0  0  0  0  0  0  0  0  0
  -21.2443  -28.5001   23.2145 C   0  0  0  0  0  0  0  0  0  0  0  0
  -28.3530  -15.8735   21.6259 C   0  0  0  0  0  0  0  0  0  0  0  0
  -30.4441  -22.0723   19.5577 C   0  0  0  0  0  0  0  0  0  0  0  0
  -28.5049  -22.3792   20.9657 C   0  0  0  0  0  0  0  0  0  0  0  0
  -19.0299  -26.1280   22.2655 C   0  0  0  0  0  0  0  0  0  0  0  0
  -18.8943  -24.7797   22.5960 C   0  0  0  0  0  0  0  0  0  0  0  0
  -26.4719  -16.5840   20.2933 C   0  0  0  0  0  0  0  0  0  0  0  0
  -18.1925  -25.3963   24.8241 C   0  0  0  0  0  0  0  0  0  0  0  0
  -22.6326  -29.7776   21.7053 C   0  0  0  0  0  0  0  0  0  0  0  0
  -24.5922  -31.4108   21.7144 C   0  0  0  0  0  0  0  0  0  0  0  0
  -24.0058   -7.9565   21.9035 C   0  0  0  0  0  0  0  0  0  0  0  0
  -26.1413  -14.9773   22.0735 C   0  0  0  0  0  0  0  0  0  0  0  0
  -24.8059   -9.0555   21.5368 C   0  0  0  0  0  0  0  0  0  0  0  0
  -25.6133  -15.7597   21.0365 C   0  0  0  0  0  0  0  0  0  0  0  0
  -29.9184  -24.2635   20.4290 C   0  0  0  0  0  0  0  0  0  0  0  0
  -20.1112  -28.8845   22.4976 C   0  0  0  0  0  0  0  0  0  0  0  0
  -29.3265  -21.5465   20.2060 C   0  0  0  0  0  0  0  0  0  0  0  0
  -27.8345  -16.6390   20.5856 C   0  0  0  0  0  0  0  0  0  0  0  0
  -18.7468  -27.1106   23.2144 C   0  0  0  0  0  0  0  0  0  0  0  0
  -18.4756  -24.4138   23.8752 C   0  0  0  0  0  0  0  0  0  0  0  0
  -18.3281  -26.7447   24.4936 C   0  0  0  0  0  0  0  0  0  0  0  0
  -23.9351  -30.2381   21.2962 C   0  0  0  0  0  0  0  0  0  0  0  0
  -25.7906  -31.3907   21.0436 C   0  0  0  0  0  0  0  0  0  0  0  0
  -24.1581  -32.4274   22.6275 C   0  0  0  0  0  0  0  0  0  0  0  0
  -24.1692  -12.6719   21.1253 C   0  0  0  0  0  0  0  0  0  0  0  0
  -21.9108  -14.9587   21.5638 C   0  0  0  0  0  0  0  0  0  0  0  0
  -21.1458  -18.2803   21.7335 C   0  0  0  0  0  0  0  0  0  0  0  0
  -29.0951  -26.9655   18.7310 C   0  0  0  0  0  0  0  0  0  0  0  0
  -22.5711   -7.8350   21.4545 C   0  0  0  0  0  0  0  0  0  0  0  0
  -25.2408  -14.1033   22.9026 C   0  0  0  0  0  0  0  0  0  0  0  0
  -24.1475  -15.7341   20.6913 C   0  0  0  0  0  0  0  0  0  0  0  0
  -21.9682   -9.1540   20.9779 C   0  0  0  0  0  0  0  0  0  0  0  0
  -27.7936  -29.7933   17.0029 C   0  0  0  0  0  0  0  0  0  0  0  0
  -22.9289   -9.8697   20.0337 C   0  0  0  0  0  0  0  0  0  0  0  0
  -26.7164  -30.3338   17.9450 C   0  0  0  0  0  0  0  0  0  0  0  0
  -27.8524  -28.2676   17.0291 C   0  0  0  0  0  0  0  0  0  0  0  0
  -26.9294  -28.2171   19.3137 C   0  0  0  0  0  0  0  0  0  0  0  0
  -24.2444  -10.2145   20.7422 C   0  0  1  0  0  0  0  0  0  0  0  0
  -23.9526  -13.7183   22.1816 C   0  0  1  0  0  0  0  0  0  0  0  0
  -26.8698  -29.7534   19.3638 C   0  0  2  0  0  0  0  0  0  0  0  0
  -19.2093  -19.8413   22.0662 C   0  0  0  0  0  0  0  0  0  0  0  0
  -20.9858  -14.4161   18.7072 C   0  0  0  0  0  0  0  0  0  0  0  0
  -19.7392  -16.5864   18.7728 C   0  0  0  0  0  0  0  0  0  0  0  0
  -19.1362  -14.7554   20.3560 C   0  0  0  0  0  0  0  0  0  0  0  0
  -22.3510  -19.4410   24.1746 C   0  0  0  0  0  0  0  0  0  0  0  0
  -30.2343  -25.7161   20.5477 C   0  0  0  0  0  0  0  0  0  0  0  0
  -30.1360  -19.3292   19.9153 C   0  0  0  0  0  0  0  0  0  0  0  0
  -29.7955  -17.9830   20.5249 C   0  0  0  0  0  0  0  0  0  1  0  0
  -21.2924  -16.0303   20.6988 C   0  0  1  0  0  0  0  0  0  0  0  0
  -20.3379  -19.0777   22.7414 C   0  0  2  0  0  0  0  0  0  0  0  0
  -20.3164  -15.4463   19.6387 C   0  0  0  0  0  0  0  0  0  0  0  0
  -24.6562  -29.5250   20.4270 N   0  0  0  0  0  0  0  0  0  0  0  0
  -25.7788  -30.2518   20.2934 N   0  0  0  0  0  0  0  0  0  0  0  0
  -23.3088  -14.8590   21.5269 N   0  0  0  0  0  0  0  0  0  0  0  0
  -27.9999  -27.7815   18.4031 N   0  0  0  0  0  0  0  0  0  0  0  0
  -26.8427  -32.2365   21.0281 N   0  0  0  0  0  0  0  0  0  0  0  0
  -22.8992  -32.2923   23.2286 N   0  0  0  0  0  0  0  0  0  0  0  0
  -24.0725  -11.3743   21.5906 N   0  0  0  0  0  0  0  0  0  0  0  0
  -20.6790  -16.9886   21.6120 N   0  0  0  0  0  0  0  0  0  0  0  0
  -29.1630  -26.5538   20.0564 N   0  0  0  0  0  0  0  0  0  0  0  0
  -21.2117  -20.0572   23.4471 N   0  3  0  0  0  0  0  0  0  0  0  0
  -24.8587  -33.4343   22.8898 O   0  0  0  0  0  0  0  0  0  0  0  0
  -24.4049  -13.0161   19.9731 O   0  0  0  0  0  0  0  0  0  0  0  0
  -21.1808  -14.2414   22.2524 O   0  0  0  0  0  0  0  0  0  0  0  0
  -22.0937  -18.7568   21.1130 O   0  0  0  0  0  0  0  0  0  0  0  0
  -29.9521  -26.6332   17.9051 O   0  0  0  0  0  0  0  0  0  0  0  0
  -18.8812  -28.4488   22.8846 O   0  0  0  0  0  0  0  0  0  0  0  0
  -29.0353  -20.2123   20.0953 O   0  0  0  0  0  0  0  0  0  0  0  0
  -28.6551  -17.4442   19.8575 O   0  0  0  0  0  0  0  0  0  1  0  0
  -18.3439  -23.1190   24.1919 F   0  0  0  0  0  0  0  0  0  0  0  0
  -18.0536  -27.6841   25.4090 F   0  0  0  0  0  0  0  0  0  0  0  0
  1  2  1  0  0  0  0
  1  5  2  0  0  0  0
  2  6  2  0  0  0  0
  3 10  2  0  0  0  0
  3 19  1  0  0  0  0
  4 11  1  0  0  0  0
  4 19  2  0  0  0  0
  5 21  1  0  0  0  0
  6 23  1  0  0  0  0
  7 12  2  0  0  0  0
  7 22  1  0  0  0  0
  8 13  2  0  0  0  0
  8 25  1  0  0  0  0
  9 14  1  0  0  0  0
  9 25  2  0  0  0  0
 10 26  1  0  0  0  0
 11 26  2  0  0  0  0
 12 28  1  0  0  0  0
 13 27  1  0  0  0  0
 14 27  2  0  0  0  0
 15 16  2  0  0  0  0
 15 29  1  0  0  0  0
 16 30  1  0  0  0  0
 17 24  1  0  0  0  0
 17 28  2  0  0  0  0
 18 30  2  0  0  0  0
 18 31  1  0  0  0  0
 19 32  1  0  0  0  0
 20 32  1  0  0  0  0
 20 33  2  0  0  0  0
 20 34  1  0  0  0  0
 21 23  2  0  0  0  0
 21 39  1  0  0  0  0
 22 24  2  0  0  0  0
 22 40  1  0  0  0  0
 23 48  1  0  0  0  0
 24 41  1  0  0  0  0
 25 56  1  0  0  0  0
 26 77  1  0  0  0  0
 27 78  1  0  0  0  0
 28 79  1  0  0  0  0
 29 31  2  0  0  0  0
 29 77  1  0  0  0  0
 30 80  1  0  0  0  0
 31 81  1  0  0  0  0
 32 62  2  0  0  0  0
 33 63  1  0  0  0  0
 33 66  1  0  0  0  0
 34 67  1  0  0  0  0
 34 72  2  0  0  0  0
 35 49  1  0  0  0  0
 35 68  1  0  0  0  0
 35 73  2  0  0  0  0
 36 59  1  0  0  0  0
 36 64  1  0  0  0  0
 36 74  2  0  0  0  0
 37 60  1  0  0  0  0
 37 69  1  0  0  0  0
 37 75  2  0  0  0  0
 38 65  1  0  0  0  0
 38 70  1  0  0  0  0
 38 76  2  0  0  0  0
 39 42  1  0  0  0  0
 40 49  1  0  0  0  0
 41 64  1  0  0  0  0
 42 44  1  0  0  0  0
 43 45  1  0  0  0  0
 43 46  1  0  0  0  0
 44 48  1  0  0  0  0
 45 50  1  0  0  0  0
 46 65  1  0  0  0  0
 47 50  1  0  0  0  0
 47 65  1  0  0  0  0
 48 68  1  0  0  0  0
 49 64  1  0  0  0  0
 50 63  1  0  0  0  0
 51 60  1  0  0  0  0
 52 61  1  0  0  0  0
 53 61  1  0  0  0  0
 54 61  1  0  0  0  0
 55 71  1  0  0  0  0
 56 70  1  0  0  0  0
 57 58  1  0  0  0  0
 57 78  1  0  0  0  0
 58 79  1  0  0  0  0
 59 61  1  0  0  0  0
 59 69  1  0  0  0  0
 60 71  1  0  0  0  0
 62 63  1  0  0  0  0
M  CHG  1  71   1
M  ISO  4  38 100  58 101  70 100  79 101
M  END
> <Batch ID>
0002

> <Smiles>
CNC(C)C(=O)NC(C(=O)N1Cc2cc([101O:1][101CH2:1]COc3ccc(C[100NH:0][100C:0](=O)N4CCCC(n5nc(-c6ccc(Oc7ccc(F)cc7F)cc6)c(C(N)=O)c5N)C4)cc3)ccc2CC1C(=O)NC1CCCc2ccccc21)C(C)(C)C

> <Shape>
0.269

> <Color>
0.051

> <Negative vol penalty>
0.000

$$$$

  -OEChem-04042320173D

 81 89  0     1  0  0  0  0  0999 V2000
  -17.8540  -29.6878   23.1857 C   0  0  0  0  0  0  0  0  0  0  0  0
  -19.1649  -29.7684   22.7269 C   0  0  0  0  0  0  0  0  0  0  0  0
  -31.7303  -21.4327   15.9982 C   0  0  0  0  0  0  0  0  0  0  0  0
  -26.5309  -12.8368   21.6530 C   0  0  0  0  0  0  0  0  0  0  0  0
  -26.1580  -13.8986   19.5151 C   0  0  0  0  0  0  0  0  0  0  0  0
  -17.4210  -28.5458   23.8584 C   0  0  0  0  0  0  0  0  0  0  0  0
  -20.0440  -28.7074   22.9415 C   0  0  0  0  0  0  0  0  0  0  0  0
  -24.5117  -26.8148   19.2048 C   0  0  0  0  0  0  0  0  0  0  0  0
  -31.6956  -22.8046   16.2476 C   0  0  0  0  0  0  0  0  0  0  0  0
  -31.6002  -20.5287   17.0525 C   0  0  0  0  0  0  0  0  0  0  0  0
  -25.2611  -12.2631   21.5896 C   0  0  0  0  0  0  0  0  0  0  0  0
  -24.8881  -13.3249   19.4516 C   0  0  0  0  0  0  0  0  0  0  0  0
  -25.8862  -27.0482   19.1927 C   0  0  0  0  0  0  0  0  0  0  0  0
  -23.7851   -9.6450   20.0403 C   0  0  0  0  0  0  0  0  0  0  0  0
  -23.6654   -8.2966   20.3767 C   0  0  0  0  0  0  0  0  0  0  0  0
  -26.2427  -24.9745   20.3724 C   0  0  0  0  0  0  0  0  0  0  0  0
  -31.4006  -22.3685   18.6056 C   0  0  0  0  0  0  0  0  0  0  0  0
  -22.1382   -8.8763   22.1569 C   0  0  0  0  0  0  0  0  0  0  0  0
  -26.9793  -13.6546   20.6158 C   0  0  0  0  0  0  0  0  0  0  0  0
  -29.4957  -13.7021   20.1994 C   0  0  0  0  0  0  0  0  0  0  0  0
  -18.2925  -27.4664   24.0728 C   0  0  0  0  0  0  0  0  0  0  0  0
  -23.9907  -25.6628   19.8115 C   0  0  0  0  0  0  0  0  0  0  0  0
  -19.6226  -27.5505   23.6189 C   0  0  0  0  0  0  0  0  0  0  0  0
  -24.8615  -24.7275   20.3887 C   0  0  0  0  0  0  0  0  0  0  0  0
  -31.5307  -23.2726   17.5512 C   0  0  0  0  0  0  0  0  0  0  0  0
  -31.4353  -20.9966   18.3561 C   0  0  0  0  0  0  0  0  0  0  0  0
  -24.4397  -12.5071   20.4889 C   0  0  0  0  0  0  0  0  0  0  0  0
  -26.7517  -26.1294   19.7791 C   0  0  0  0  0  0  0  0  0  0  0  0
  -23.0814  -10.6091   20.7623 C   0  0  0  0  0  0  0  0  0  0  0  0
  -22.8420   -7.9123   21.4350 C   0  0  0  0  0  0  0  0  0  0  0  0
  -22.2580  -10.2247   21.8205 C   0  0  0  0  0  0  0  0  0  0  0  0
  -28.2907  -14.2480   20.6810 C   0  0  0  0  0  0  0  0  0  0  0  0
  -30.4457  -14.6468   20.5020 C   0  0  0  0  0  0  0  0  0  0  0  0
  -29.7348  -12.4528   19.5377 C   0  0  0  0  0  0  0  0  0  0  0  0
  -22.0279  -25.1033   22.2483 C   0  0  0  0  0  0  0  0  0  0  0  0
  -22.2909  -22.0289   21.2477 C   0  0  0  0  0  0  0  0  0  0  0  0
  -24.1085  -19.6701   19.5806 C   0  0  0  0  0  0  0  0  0  0  0  0
  -31.1319  -20.3750   20.7785 C   0  0  0  0  0  0  0  0  0  0  0  0
  -17.7924  -26.2723   24.8466 C   0  0  0  0  0  0  0  0  0  0  0  0
  -22.5077  -25.4125   19.7927 C   0  0  0  0  0  0  0  0  0  0  0  0
  -24.3542  -23.4652   21.0350 C   0  0  0  0  0  0  0  0  0  0  0  0
  -18.6801  -25.0387   24.7039 C   0  0  0  0  0  0  0  0  0  0  0  0
  -30.7288  -18.4002   23.7136 C   0  0  0  0  0  0  0  0  0  0  0  0
  -20.1477  -25.4133   24.8847 C   0  0  0  0  0  0  0  0  0  0  0  0
  -30.1768  -17.0742   23.1854 C   0  0  0  0  0  0  0  0  0  0  0  0
  -30.1776  -19.5940   22.9359 C   0  0  0  0  0  0  0  0  0  0  0  0
  -29.7887  -18.1883   20.9505 C   0  0  0  0  0  0  0  0  0  0  0  0
  -20.5990  -26.4103   23.8106 C   0  0  1  0  0  0  0  0  0  0  0  0
  -22.0487  -24.4586   20.8912 C   0  0  1  0  0  0  0  0  0  0  0  0
  -30.3655  -16.9527   21.6605 C   0  0  2  0  0  0  0  0  0  0  0  0
  -24.0850  -17.2376   18.9640 C   0  0  0  0  0  0  0  0  0  0  0  0
  -23.0930  -21.3006   24.1001 C   0  0  0  0  0  0  0  0  0  0  0  0
  -23.9578  -19.1198   23.2259 C   0  0  0  0  0  0  0  0  0  0  0  0
  -21.5361  -19.6769   23.0074 C   0  0  0  0  0  0  0  0  0  0  0  0
  -24.0927  -20.2848   16.6856 C   0  0  0  0  0  0  0  0  0  0  0  0
  -31.4934  -24.7483   17.8189 C   0  0  0  0  0  0  0  0  0  0  0  0
  -30.0622  -26.7014   18.4321 C   0  0  0  0  0  0  0  0  0  0  0  0
  -28.6190  -27.0994   18.6708 C   0  0  0  0  0  0  0  0  0  1  0  0
  -23.2206  -20.8801   21.5559 C   0  0  1  0  0  0  0  0  0  0  0  0
  -23.7104  -18.6469   18.5322 C   0  0  2  0  0  0  0  0  0  0  0  0
  -22.9616  -20.2690   22.9619 C   0  0  0  0  0  0  0  0  0  0  0  0
  -28.4573  -15.4464   21.2466 N   0  0  0  0  0  0  0  0  0  0  0  0
  -29.7781  -15.6614   21.1225 N   0  0  0  0  0  0  0  0  0  0  0  0
  -22.8956  -23.2687   20.9967 N   0  0  0  0  0  0  0  0  0  0  0  0
  -30.3957  -19.4110   21.4993 N   0  0  0  0  0  0  0  0  0  0  0  0
  -31.7787  -14.7002   20.2952 N   0  0  0  0  0  0  0  0  0  0  0  0
  -28.6466  -11.6008   19.3052 N   0  0  0  0  0  0  0  0  0  0  0  0
  -31.3025  -20.0780   19.4268 N   0  0  0  0  0  0  0  0  0  0  0  0
  -20.8349  -25.7290   22.5557 N   0  0  0  0  0  0  0  0  0  0  0  0
  -23.0763  -19.9320   20.4565 N   0  0  0  0  0  0  0  0  0  0  0  0
  -24.3909  -18.9387   17.2389 N   0  3  0  0  0  0  0  0  0  0  0  0
  -30.1237  -25.2546   18.1043 N   0  3  0  0  0  0  0  0  0  0  0  0
  -30.8822  -12.0952   19.1784 O   0  0  0  0  0  0  0  0  0  0  0  0
  -23.0203  -25.0366   22.9641 O   0  0  0  0  0  0  0  0  0  0  0  0
  -21.0734  -21.8318   21.2233 O   0  0  0  0  0  0  0  0  0  0  0  0
  -25.2248  -20.1827   19.6208 O   0  0  0  0  0  0  0  0  0  0  0  0
  -31.6015  -21.3758   21.3262 O   0  0  0  0  0  0  0  0  0  0  0  0
  -23.2007  -11.9472   20.4266 O   0  0  0  0  0  0  0  0  0  0  0  0
  -28.0936  -26.3552   19.7692 O   0  0  0  0  0  0  0  0  0  1  0  0
  -22.7259   -6.6173   21.7569 F   0  0  0  0  0  0  0  0  0  0  0  0
  -21.5785  -11.1462   22.5169 F   0  0  0  0  0  0  0  0  0  0  0  0
  1  2  1  0  0  0  0
  1  6  2  0  0  0  0
  2  7  2  0  0  0  0
  3  9  2  0  0  0  0
  3 10  1  0  0  0  0
  4 11  2  0  0  0  0
  4 19  1  0  0  0  0
  5 12  1  0  0  0  0
  5 19  2  0  0  0  0
  6 21  1  0  0  0  0
  7 23  1  0  0  0  0
  8 13  2  0  0  0  0
  8 22  1  0  0  0  0
  9 25  1  0  0  0  0
 10 26  2  0  0  0  0
 11 27  1  0  0  0  0
 12 27  2  0  0  0  0
 13 28  1  0  0  0  0
 14 15  2  0  0  0  0
 14 29  1  0  0  0  0
 15 30  1  0  0  0  0
 16 24  1  0  0  0  0
 16 28  2  0  0  0  0
 17 25  2  0  0  0  0
 17 26  1  0  0  0  0
 18 30  2  0  0  0  0
 18 31  1  0  0  0  0
 19 32  1  0  0  0  0
 20 32  1  0  0  0  0
 20 33  2  0  0  0  0
 20 34  1  0  0  0  0
 21 23  2  0  0  0  0
 21 39  1  0  0  0  0
 22 24  2  0  0  0  0
 22 40  1  0  0  0  0
 23 48  1  0  0  0  0
 24 41  1  0  0  0  0
 25 56  1  0  0  0  0
 26 68  1  0  0  0  0
 27 78  1  0  0  0  0
 28 79  1  0  0  0  0
 29 31  2  0  0  0  0
 29 78  1  0  0  0  0
 30 80  1  0  0  0  0
 31 81  1  0  0  0  0
 32 62  2  0  0  0  0
 33 63  1  0  0  0  0
 33 66  1  0  0  0  0
 34 67  1  0  0  0  0
 34 73  2  0  0  0  0
 35 49  1  0  0  0  0
 35 69  1  0  0  0  0
 35 74  2  0  0  0  0
 36 59  1  0  0  0  0
 36 64  1  0  0  0  0
 36 75  2  0  0  0  0
 37 60  1  0  0  0  0
 37 70  1  0  0  0  0
 37 76  2  0  0  0  0
 38 65  1  0  0  0  0
 38 68  1  0  0  0  0
 38 77  2  0  0  0  0
 39 42  1  0  0  0  0
 40 49  1  0  0  0  0
 41 64  1  0  0  0  0
 42 44  1  0  0  0  0
 43 45  1  0  0  0  0
 43 46  1  0  0  0  0
 44 48  1  0  0  0  0
 45 50  1  0  0  0  0
 46 65  1  0  0  0  0
 47 50  1  0  0  0  0
 47 65  1  0  0  0  0
 48 69  1  0  0  0  0
 49 64  1  0  0  0  0
 50 63  1  0  0  0  0
 51 60  1  0  0  0  0
 52 61  1  0  0  0  0
 53 61  1  0  0  0  0
 54 61  1  0  0  0  0
 55 71  1  0  0  0  0
 56 72  1  0  0  0  0
 57 58  1  0  0  0  0
 57 72  1  0  0  0  0
 58 79  1  0  0  0  0
 59 61  1  0  0  0  0
 59 70  1  0  0  0  0
 60 71  1  0  0  0  0
 62 63  1  0  0  0  0
M  CHG  2  71   1  72   1
M  ISO  4  38 100  58 101  68 100  79 101
M  END
> <Batch ID>
0002

> <Smiles>
CNC(C)C(=O)NC(C(=O)N1Cc2cc([101O:1][101CH2:1]CNCc3cccc([100NH:0][100C:0](=O)N4CCCC(n5nc(-c6ccc(Oc7ccc(F)cc7F)cc6)c(C(N)=O)c5N)C4)c3)ccc2CC1C(=O)NC1CCCc2ccccc21)C(C)(C)C

> <Shape>
0.226

> <Color>
0.070

> <Negative vol penalty>
0.000

$$$$

  -OEChem-04042320173D

 87 96  0     1  0  0  0  0  0999 V2000
  -29.3928  -32.0968   26.4574 C   0  0  0  0  0  0  0  0  0  0  0  0
  -29.0832  -30.9884   25.6757 C   0  0  0  0  0  0  0  0  0  0  0  0
  -23.3539  -10.1856   21.9697 C   0  0  0  0  0  0  0  0  0  0  0  0
  -24.7774   -8.4001   21.1803 C   0  0  0  0  0  0  0  0  0  0  0  0
  -28.3795  -32.9580   26.8761 C   0  0  0  0  0  0  0  0  0  0  0  0
  -27.7598  -30.7400   25.3132 C   0  0  0  0  0  0  0  0  0  0  0  0
  -28.4851  -21.8819   19.5037 C   0  0  0  0  0  0  0  0  0  0  0  0
  -27.2861  -29.4843   20.4302 C   0  0  0  0  0  0  0  0  0  0  0  0
  -28.3309  -23.2119   19.8947 C   0  0  0  0  0  0  0  0  0  0  0  0
  -22.2631   -9.3163   21.9688 C   0  0  0  0  0  0  0  0  0  0  0  0
  -23.6865   -7.5308   21.1795 C   0  0  0  0  0  0  0  0  0  0  0  0
  -27.6214  -28.1790   20.0730 C   0  0  0  0  0  0  0  0  0  0  0  0
  -21.3508   -4.7479   21.3138 C   0  0  0  0  0  0  0  0  0  0  0  0
  -21.5350   -3.4744   21.8521 C   0  0  0  0  0  0  0  0  0  0  0  0
  -25.2832  -27.5856   20.0704 C   0  0  0  0  0  0  0  0  0  0  0  0
  -28.8129  -23.9310   17.6390 C   0  0  0  0  0  0  0  0  0  0  0  0
  -22.1161   -4.4584   23.9808 C   0  0  0  0  0  0  0  0  0  0  0  0
  -24.6111   -9.7275   21.5753 C   0  0  0  0  0  0  0  0  0  0  0  0
  -26.6314  -10.8681   22.6361 C   0  0  0  0  0  0  0  0  0  0  0  0
  -27.0442  -32.7255   26.5105 C   0  0  0  0  0  0  0  0  0  0  0  0
  -25.9453  -29.8479   20.6211 C   0  0  0  0  0  0  0  0  0  0  0  0
  -26.7275  -31.5982   25.7286 C   0  0  0  0  0  0  0  0  0  0  0  0
  -28.8032  -21.5764   18.1803 C   0  0  0  0  0  0  0  0  0  0  0  0
  -24.9334  -28.8968   20.4274 C   0  0  0  0  0  0  0  0  0  0  0  0
  -28.4947  -24.2364   18.9624 C   0  0  0  0  0  0  0  0  0  0  0  0
  -28.9671  -22.6009   17.2481 C   0  0  0  0  0  0  0  0  0  0  0  0
  -22.4294   -7.9889   21.5738 C   0  0  0  0  0  0  0  0  0  0  0  0
  -26.6200  -27.2287   19.8959 C   0  0  0  0  0  0  0  0  0  0  0  0
  -21.5493   -5.8767   22.1089 C   0  0  0  0  0  0  0  0  0  0  0  0
  -21.9177   -3.3297   23.1857 C   0  0  0  0  0  0  0  0  0  0  0  0
  -21.9319   -5.7319   23.4424 C   0  0  0  0  0  0  0  0  0  0  0  0
  -25.7382  -10.6251   21.5754 C   0  0  0  0  0  0  0  0  0  0  0  0
  -27.5152  -11.7927   22.1358 C   0  0  0  0  0  0  0  0  0  0  0  0
  -26.6597  -10.3079   23.9556 C   0  0  0  0  0  0  0  0  0  0  0  0
  -24.2420  -30.9277   23.0780 C   0  0  0  0  0  0  0  0  0  0  0  0
  -21.9121  -31.2058   20.8382 C   0  0  0  0  0  0  0  0  0  0  0  0
  -20.6442  -30.1942   17.8356 C   0  0  0  0  0  0  0  0  0  0  0  0
  -28.7273  -16.3188   19.2956 C   0  0  0  0  0  0  0  0  0  0  0  0
  -25.9773  -33.6581   27.0266 C   0  0  0  0  0  0  0  0  0  0  0  0
  -25.5985  -31.2668   20.9802 C   0  0  0  0  0  0  0  0  0  0  0  0
  -23.4774  -29.2415   20.6004 C   0  0  0  0  0  0  0  0  0  0  0  0
  -24.6481  -33.5320   26.2865 C   0  0  0  0  0  0  0  0  0  0  0  0
  -28.2383  -13.4556   17.4216 C   0  0  0  0  0  0  0  0  0  0  0  0
  -24.2637  -32.0646   26.1258 C   0  0  0  0  0  0  0  0  0  0  0  0
  -27.6176  -12.4732   18.4145 C   0  0  0  0  0  0  0  0  0  0  0  0
  -30.1275  -19.4437   18.5261 C   0  0  0  0  0  0  0  0  0  0  0  0
  -27.6623  -19.3240   17.9621 C   0  0  0  0  0  0  0  0  0  0  0  0
  -27.6625  -14.8548   17.6062 C   0  0  0  0  0  0  0  0  0  0  0  0
  -30.2650  -17.9682   18.1399 C   0  0  0  0  0  0  0  0  0  0  0  0
  -27.8624  -17.8641   17.5656 C   0  0  0  0  0  0  0  0  0  0  0  0
  -27.1991  -14.4205   19.9967 C   0  0  0  0  0  0  0  0  0  0  0  0
  -28.9656  -20.1225   17.7786 C   0  0  0  0  0  0  0  0  0  0  0  0
  -25.3071  -31.3089   25.2941 C   0  0  1  0  0  0  0  0  0  0  0  0
  -24.2343  -31.3971   21.6507 C   0  0  1  0  0  0  0  0  0  0  0  0
  -27.7520  -12.9874   19.8587 C   0  0  1  0  0  0  0  0  0  0  0  0
  -18.7069  -30.5745   16.2866 C   0  0  0  0  0  0  0  0  0  0  0  0
  -20.1215  -29.5551   22.6764 C   0  0  0  0  0  0  0  0  0  0  0  0
  -18.5970  -29.1679   20.7285 C   0  0  0  0  0  0  0  0  0  0  0  0
  -18.9816  -31.4853   21.5678 C   0  0  0  0  0  0  0  0  0  0  0  0
  -22.4186  -31.1256   15.6577 C   0  0  0  0  0  0  0  0  0  0  0  0
  -28.3302  -25.6584   19.3806 C   0  0  0  0  0  0  0  0  0  1  0  0
  -20.8260  -30.3015   20.3074 C   0  0  1  0  0  0  0  0  0  0  0  0
  -20.1283  -30.9803   16.6437 C   0  0  2  0  0  0  0  0  0  0  0  0
  -29.3083  -22.2981   15.8258 C   0  0  0  0  0  0  0  0  0  0  0  0
  -19.6590  -30.1201   21.3186 C   0  0  0  0  0  0  0  0  0  0  0  0
  -26.0279  -11.3381   20.4838 N   0  0  0  0  0  0  0  0  0  0  0  0
  -27.1131  -12.0382   20.8558 N   0  0  0  0  0  0  0  0  0  0  0  0
  -23.1895  -30.6403   20.9579 N   0  0  0  0  0  0  0  0  0  0  0  0
  -27.8060  -15.3055   18.9904 N   0  0  0  0  0  0  0  0  0  0  0  0
  -28.9818  -17.2691   18.2953 N   0  0  0  0  0  0  0  0  0  0  0  0
  -28.5892  -12.4118   22.6703 N   0  0  0  0  0  0  0  0  0  0  0  0
  -25.6773   -9.3712   24.3050 N   0  0  0  0  0  0  0  0  0  0  0  0
  -25.1386  -31.5999   23.8865 N   0  0  0  0  0  0  0  0  0  0  0  0
  -20.4215  -30.8606   19.0220 N   0  0  0  0  0  0  0  0  0  0  0  0
  -20.9963  -30.7476   15.4548 N   0  3  0  0  0  0  0  0  0  0  0  0
  -27.5205  -10.6407   24.8052 O   0  0  0  0  0  0  0  0  0  0  0  0
  -23.4890  -30.0237   23.4208 O   0  0  0  0  0  0  0  0  0  0  0  0
  -21.6387  -32.3730   21.1290 O   0  0  0  0  0  0  0  0  0  0  0  0
  -21.1869  -29.0970   17.7254 O   0  0  0  0  0  0  0  0  0  0  0  0
  -29.2891  -16.3723   20.3968 O   0  0  0  0  0  0  0  0  0  0  0  0
  -21.3652   -7.1403   21.5731 O   0  0  0  0  0  0  0  0  0  0  0  0
  -26.9468  -25.9450   19.5455 O   0  0  0  0  0  0  0  0  0  1  0  0
  -22.0931   -2.1066   23.7030 F   0  0  0  0  0  0  0  0  0  0  0  0
  -22.1229   -6.8126   24.2115 F   0  0  0  0  0  0  0  0  0  0  0  0
  -29.4333  -23.4115   15.0460 F   0  0  0  0  0  0  0  0  0  0  0  0
  -30.4867  -21.6248   15.6800 F   0  0  0  0  0  0  0  0  0  0  0  0
  -28.3648  -21.5252   15.2149 F   0  0  0  0  0  0  0  0  0  0  0  0
  1  2  1  0  0  0  0
  1  5  2  0  0  0  0
  2  6  2  0  0  0  0
  3 10  2  0  0  0  0
  3 18  1  0  0  0  0
  4 11  1  0  0  0  0
  4 18  2  0  0  0  0
  5 20  1  0  0  0  0
  6 22  1  0  0  0  0
  7  9  2  0  0  0  0
  7 23  1  0  0  0  0
  8 12  2  0  0  0  0
  8 21  1  0  0  0  0
  9 25  1  0  0  0  0
 10 27  1  0  0  0  0
 11 27  2  0  0  0  0
 12 28  1  0  0  0  0
 13 14  2  0  0  0  0
 13 29  1  0  0  0  0
 14 30  1  0  0  0  0
 15 24  1  0  0  0  0
 15 28  2  0  0  0  0
 16 25  2  0  0  0  0
 16 26  1  0  0  0  0
 17 30  2  0  0  0  0
 17 31  1  0  0  0  0
 18 32  1  0  0  0  0
 19 32  1  0  0  0  0
 19 33  2  0  0  0  0
 19 34  1  0  0  0  0
 20 22  2  0  0  0  0
 20 39  1  0  0  0  0
 21 24  2  0  0  0  0
 21 40  1  0  0  0  0
 22 53  1  0  0  0  0
 23 26  2  0  0  0  0
 23 52  1  0  0  0  0
 24 41  1  0  0  0  0
 25 61  1  0  0  0  0
 26 64  1  0  0  0  0
 27 81  1  0  0  0  0
 28 82  1  0  0  0  0
 29 31  2  0  0  0  0
 29 81  1  0  0  0  0
 30 83  1  0  0  0  0
 31 84  1  0  0  0  0
 32 66  2  0  0  0  0
 33 67  1  0  0  0  0
 33 71  1  0  0  0  0
 34 72  1  0  0  0  0
 34 76  2  0  0  0  0
 35 54  1  0  0  0  0
 35 73  1  0  0  0  0
 35 77  2  0  0  0  0
 36 62  1  0  0  0  0
 36 68  1  0  0  0  0
 36 78  2  0  0  0  0
 37 63  1  0  0  0  0
 37 74  1  0  0  0  0
 37 79  2  0  0  0  0
 38 69  1  0  0  0  0
 38 70  1  0  0  0  0
 38 80  2  0  0  0  0
 39 42  1  0  0  0  0
 40 54  1  0  0  0  0
 41 68  1  0  0  0  0
 42 44  1  0  0  0  0
 43 45  1  0  0  0  0
 43 48  1  0  0  0  0
 44 53  1  0  0  0  0
 45 55  1  0  0  0  0
 46 49  1  0  0  0  0
 46 52  1  0  0  0  0
 47 50  1  0  0  0  0
 47 52  1  0  0  0  0
 48 69  1  0  0  0  0
 49 70  1  0  0  0  0
 50 70  1  0  0  0  0
 51 55  1  0  0  0  0
 51 69  1  0  0  0  0
 53 73  1  0  0  0  0
 54 68  1  0  0  0  0
 55 67  1  0  0  0  0
 56 63  1  0  0  0  0
 57 65  1  0  0  0  0
 58 65  1  0  0  0  0
 59 65  1  0  0  0  0
 60 75  1  0  0  0  0
 61 82  1  0  0  0  0
 62 65  1  0  0  0  0
 62 74  1  0  0  0  0
 63 75  1  0  0  0  0
 64 85  1  0  0  0  0
 64 86  1  0  0  0  0
 64 87  1  0  0  0  0
 66 67  1  0  0  0  0
M  CHG  1  75   1
M  ISO  4  38 100  61 101  70 100  82 101
M  END
> <Batch ID>
0002

> <Smiles>
CNC(C)C(=O)NC(C(=O)N1Cc2cc([101O:1][101CH2:1]c3ccc(C4CC[100N:0]([100C:0](=O)N5CCCC(n6nc(-c7ccc(Oc8ccc(F)cc8F)cc7)c(C(N)=O)c6N)C5)CC4)c(C(F)(F)F)c3)ccc2CC1C(=O)NC1CCCc2ccccc21)C(C)(C)C

> <Shape>
0.309

> <Color>
0.099

> <Negative vol penalty>
0.000

$$$$

  -OEChem-04042320173D

 87 95  0     1  0  0  0  0  0999 V2000
  -32.9516  -19.8573   24.4675 C   0  0  0  0  0  0  0  0  0  0  0  0
  -31.7870  -20.3398   25.0558 C   0  0  0  0  0  0  0  0  0  0  0  0
  -28.4913  -26.0056   17.8828 C   0  0  0  0  0  0  0  0  0  0  0  0
  -26.8424  -24.5957   18.9461 C   0  0  0  0  0  0  0  0  0  0  0  0
  -32.9239  -19.3817   23.1572 C   0  0  0  0  0  0  0  0  0  0  0  0
  -30.5941  -20.3481   24.3337 C   0  0  0  0  0  0  0  0  0  0  0  0
  -23.5224  -19.6334   25.2266 C   0  0  0  0  0  0  0  0  0  0  0  0
  -18.6115  -26.8824   24.3315 C   0  0  0  0  0  0  0  0  0  0  0  0
  -18.7394  -26.4705   21.9543 C   0  0  0  0  0  0  0  0  0  0  0  0
  -19.2040  -28.1316   24.1469 C   0  0  0  0  0  0  0  0  0  0  0  0
  -19.3318  -27.7197   21.7697 C   0  0  0  0  0  0  0  0  0  0  0  0
  -29.4196  -24.9664   17.9442 C   0  0  0  0  0  0  0  0  0  0  0  0
  -27.7707  -23.5564   19.0074 C   0  0  0  0  0  0  0  0  0  0  0  0
  -22.3278  -20.2885   24.9307 C   0  0  0  0  0  0  0  0  0  0  0  0
  -31.4495  -23.5739   20.2603 C   0  0  0  0  0  0  0  0  0  0  0  0
  -32.7403  -23.8833   20.6888 C   0  0  0  0  0  0  0  0  0  0  0  0
  -22.3826  -19.3687   22.7013 C   0  0  0  0  0  0  0  0  0  0  0  0
  -33.6261  -23.1117   18.5776 C   0  0  0  0  0  0  0  0  0  0  0  0
  -27.2027  -25.8204   18.3839 C   0  0  0  0  0  0  0  0  0  0  0  0
  -25.3383  -27.1651   17.2779 C   0  0  0  0  0  0  0  0  0  0  0  0
  -31.7281  -19.3751   22.4219 C   0  0  0  0  0  0  0  0  0  0  0  0
  -24.1629  -18.8485   24.2569 C   0  0  0  0  0  0  0  0  0  0  0  0
  -30.5507  -19.8732   23.0118 C   0  0  0  0  0  0  0  0  0  0  0  0
  -23.5840  -18.7026   22.9882 C   0  0  0  0  0  0  0  0  0  0  0  0
  -18.3793  -26.0518   23.2352 C   0  0  0  0  0  0  0  0  0  0  0  0
  -19.5641  -28.5503   22.8661 C   0  0  0  0  0  0  0  0  0  0  0  0
  -29.0593  -23.7418   18.5065 C   0  0  0  0  0  0  0  0  0  0  0  0
  -21.7592  -20.1585   23.6670 C   0  0  0  0  0  0  0  0  0  0  0  0
  -31.2470  -23.0333   18.9905 C   0  0  0  0  0  0  0  0  0  0  0  0
  -33.8286  -23.6523   19.8475 C   0  0  0  0  0  0  0  0  0  0  0  0
  -32.3353  -22.8022   18.1492 C   0  0  0  0  0  0  0  0  0  0  0  0
  -26.2435  -26.8937   18.3213 C   0  0  0  0  0  0  0  0  0  0  0  0
  -24.6546  -28.2799   17.6978 C   0  0  0  0  0  0  0  0  0  0  0  0
  -25.1337  -26.4715   16.0398 C   0  0  0  0  0  0  0  0  0  0  0  0
  -26.9785  -18.9558   22.7858 C   0  0  0  0  0  0  0  0  0  0  0  0
  -26.0098  -16.1117   21.5632 C   0  0  0  0  0  0  0  0  0  0  0  0
  -19.4724  -22.9350   23.2089 C   0  0  0  0  0  0  0  0  0  0  0  0
  -23.4248  -14.0359   20.7536 C   0  0  0  0  0  0  0  0  0  0  0  0
  -22.5455  -30.6735   22.5286 C   0  0  0  0  0  0  0  0  0  0  0  0
  -31.7574  -18.8949   20.9925 C   0  0  0  0  0  0  0  0  0  0  0  0
  -25.4371  -18.1268   24.6004 C   0  0  0  0  0  0  0  0  0  0  0  0
  -24.2212  -17.8553   21.9185 C   0  0  0  0  0  0  0  0  0  0  0  0
  -30.3739  -18.5906   20.4237 C   0  0  0  0  0  0  0  0  0  0  0  0
  -25.5243  -31.8674   20.9865 C   0  0  0  0  0  0  0  0  0  0  0  0
  -29.4013  -19.7185   20.7534 C   0  0  0  0  0  0  0  0  0  0  0  0
  -25.9292  -30.7318   20.0450 C   0  0  0  0  0  0  0  0  0  0  0  0
  -24.9199  -31.3361   22.2843 C   0  0  0  0  0  0  0  0  0  0  0  0
  -24.2014  -29.2618   21.1641 C   0  0  0  0  0  0  0  0  0  0  0  0
  -29.2320  -19.8755   22.2693 C   0  0  1  0  0  0  0  0  0  0  0  0
  -26.2700  -17.7683   23.3736 C   0  0  1  0  0  0  0  0  0  0  0  0
  -24.7646  -29.7492   19.8182 C   0  0  2  0  0  0  0  0  0  0  0  0
  -22.9439  -11.7937   19.7343 C   0  0  0  0  0  0  0  0  0  0  0  0
  -17.3567  -32.1437   21.1454 C   0  0  0  0  0  0  0  0  0  0  0  0
  -18.0084  -31.8967   23.5473 C   0  0  0  0  0  0  0  0  0  0  0  0
  -26.5717  -17.2544   18.7904 C   0  0  0  0  0  0  0  0  0  0  0  0
  -25.2109  -15.3891   17.8223 C   0  0  0  0  0  0  0  0  0  0  0  0
  -27.2889  -14.8793   19.1049 C   0  0  0  0  0  0  0  0  0  0  0  0
  -22.1412  -13.0546   23.2331 C   0  0  0  0  0  0  0  0  0  0  0  0
  -17.7417  -24.7070   23.4330 C   0  0  0  0  0  0  0  0  0  0  0  0
  -20.3390  -22.0263   24.0545 C   0  0  0  0  0  0  0  0  0  1  0  0
  -19.4235  -30.8292   21.7090 C   0  0  0  0  0  0  0  0  0  0  0  0
  -20.1959  -29.8869   22.6694 C   0  0  2  0  0  0  0  0  0  0  0  0
  -25.2347  -15.6817   20.3412 C   0  0  1  0  0  0  0  0  0  0  0  0
  -23.1958  -12.5597   21.0237 C   0  0  2  0  0  0  0  0  0  0  0  0
  -18.0051  -31.2166   22.1777 C   0  0  0  0  0  0  0  0  0  0  0  0
  -26.0653  -15.8187   19.0340 C   0  0  0  0  0  0  0  0  0  0  0  0
  -26.1463  -27.7659   19.3282 N   0  0  0  0  0  0  0  0  0  0  0  0
  -25.1719  -28.5963   18.9194 N   0  0  0  0  0  0  0  0  0  0  0  0
  -25.4695  -17.1747   22.3007 N   0  0  0  0  0  0  0  0  0  0  0  0
  -23.8200  -30.4115   21.9994 N   0  0  0  0  0  0  0  0  0  0  0  0
  -23.6674  -29.0106   17.1374 N   0  0  0  0  0  0  0  0  0  0  0  0
  -25.9219  -25.3452   15.7668 N   0  0  0  0  0  0  0  0  0  0  0  0
  -28.3561  -18.8475   22.7893 N   0  0  0  0  0  0  0  0  0  0  0  0
  -18.6661  -23.7472   23.9908 N   0  0  0  0  0  0  0  0  0  0  0  0
  -24.7651  -14.3271   20.6115 N   0  0  0  0  0  0  0  0  0  0  0  0
  -21.5584  -29.7506   22.2049 N   0  0  0  0  0  0  0  0  0  0  0  0
  -22.0187  -12.3734   21.9186 N   0  3  0  0  0  0  0  0  0  0  0  0
  -24.2886  -26.8493   15.1933 O   0  0  0  0  0  0  0  0  0  0  0  0
  -26.3238  -19.8998   22.3593 O   0  0  0  0  0  0  0  0  0  0  0  0
  -27.0524  -15.5214   21.8567 O   0  0  0  0  0  0  0  0  0  0  0  0
  -19.5026  -22.9283   21.9813 O   0  0  0  0  0  0  0  0  0  0  0  0
  -22.5064  -14.8486   20.6727 O   0  0  0  0  0  0  0  0  0  0  0  0
  -22.3038  -31.6598   23.2327 O   0  0  0  0  0  0  0  0  0  0  0  0
  -29.9648  -22.7273   18.5663 O   0  0  0  0  0  0  0  0  0  0  0  0
  -20.5936  -20.7974   23.3753 O   0  0  0  0  0  0  0  0  0  1  0  0
  -35.0680  -23.9510   20.2585 F   0  0  0  0  0  0  0  0  0  0  0  0
  -32.1469  -22.2842   16.9277 F   0  0  0  0  0  0  0  0  0  0  0  0
  1  2  1  0  0  0  0
  1  5  2  0  0  0  0
  2  6  2  0  0  0  0
  3 12  2  0  0  0  0
  3 19  1  0  0  0  0
  4 13  1  0  0  0  0
  4 19  2  0  0  0  0
  5 21  1  0  0  0  0
  6 23  1  0  0  0  0
  7 14  2  0  0  0  0
  7 22  1  0  0  0  0
  8 10  2  0  0  0  0
  8 25  1  0  0  0  0
  9 11  1  0  0  0  0
  9 25  2  0  0  0  0
 10 26  1  0  0  0  0
 11 26  2  0  0  0  0
 12 27  1  0  0  0  0
 13 27  2  0  0  0  0
 14 28  1  0  0  0  0
 15 16  2  0  0  0  0
 15 29  1  0  0  0  0
 16 30  1  0  0  0  0
 17 24  1  0  0  0  0
 17 28  2  0  0  0  0
 18 30  2  0  0  0  0
 18 31  1  0  0  0  0
 19 32  1  0  0  0  0
 20 32  1  0  0  0  0
 20 33  2  0  0  0  0
 20 34  1  0  0  0  0
 21 23  2  0  0  0  0
 21 40  1  0  0  0  0
 22 24  2  0  0  0  0
 22 41  1  0  0  0  0
 23 49  1  0  0  0  0
 24 42  1  0  0  0  0
 25 59  1  0  0  0  0
 26 62  1  0  0  0  0
 27 84  1  0  0  0  0
 28 85  1  0  0  0  0
 29 31  2  0  0  0  0
 29 84  1  0  0  0  0
 30 86  1  0  0  0  0
 31 87  1  0  0  0  0
 32 67  2  0  0  0  0
 33 68  1  0  0  0  0
 33 71  1  0  0  0  0
 34 72  1  0  0  0  0
 34 78  2  0  0  0  0
 35 50  1  0  0  0  0
 35 73  1  0  0  0  0
 35 79  2  0  0  0  0
 36 63  1  0  0  0  0
 36 69  1  0  0  0  0
 36 80  2  0  0  0  0
 37 60  1  0  0  0  0
 37 74  1  0  0  0  0
 37 81  2  0  0  0  0
 38 64  1  0  0  0  0
 38 75  1  0  0  0  0
 38 82  2  0  0  0  0
 39 70  1  0  0  0  0
 39 76  1  0  0  0  0
 39 83  2  0  0  0  0
 40 43  1  0  0  0  0
 41 50  1  0  0  0  0
 42 69  1  0  0  0  0
 43 45  1  0  0  0  0
 44 46  1  0  0  0  0
 44 47  1  0  0  0  0
 45 49  1  0  0  0  0
 46 51  1  0  0  0  0
 47 70  1  0  0  0  0
 48 51  1  0  0  0  0
 48 70  1  0  0  0  0
 49 73  1  0  0  0  0
 50 69  1  0  0  0  0
 51 68  1  0  0  0  0
 52 64  1  0  0  0  0
 53 65  1  0  0  0  0
 54 65  1  0  0  0  0
 55 66  1  0  0  0  0
 56 66  1  0  0  0  0
 57 66  1  0  0  0  0
 58 77  1  0  0  0  0
 59 74  1  0  0  0  0
 60 85  1  0  0  0  0
 61 62  1  0  0  0  0
 61 65  1  0  0  0  0
 62 76  1  0  0  0  0
 63 66  1  0  0  0  0
 63 75  1  0  0  0  0
 64 77  1  0  0  0  0
 67 68  1  0  0  0  0
M  CHG  1  77   1
M  ISO  4  39 100  60 101  76 100  85 101
M  END
> <Batch ID>
0002

> <Smiles>
CNC(C)C(=O)NC(C(=O)N1Cc2cc([101O:1][101CH2:1]C(=O)NCc3ccc(C(CC(C)C)[100NH:0][100C:0](=O)N4CCCC(n5nc(-c6ccc(Oc7ccc(F)cc7F)cc6)c(C(N)=O)c5N)C4)cc3)ccc2CC1C(=O)NC1CCCc2ccccc21)C(C)(C)C

> <Shape>
0.192

> <Color>
0.091

> <Negative vol penalty>
0.000

$$$$

  -OEChem-04042320173D

 82 90  0     1  0  0  0  0  0999 V2000
  -30.5808  -30.7686   14.2807 C   0  0  0  0  0  0  0  0  0  0  0  0
  -29.3952  -30.7029   15.0056 C   0  0  0  0  0  0  0  0  0  0  0  0
  -17.9604  -27.8058   21.9723 C   0  0  0  0  0  0  0  0  0  0  0  0
  -23.6338  -14.9045   19.7593 C   0  0  0  0  0  0  0  0  0  0  0  0
  -25.4525  -16.2312   20.6365 C   0  0  0  0  0  0  0  0  0  0  0  0
  -31.1860  -29.5968   13.8285 C   0  0  0  0  0  0  0  0  0  0  0  0
  -28.8136  -29.4651   15.2779 C   0  0  0  0  0  0  0  0  0  0  0  0
  -27.2545  -29.0654   20.0794 C   0  0  0  0  0  0  0  0  0  0  0  0
  -18.1036  -26.5086   22.4645 C   0  0  0  0  0  0  0  0  0  0  0  0
  -18.9210  -28.7735   22.2668 C   0  0  0  0  0  0  0  0  0  0  0  0
  -24.5390  -14.1702   18.9931 C   0  0  0  0  0  0  0  0  0  0  0  0
  -26.3577  -15.4968   19.8704 C   0  0  0  0  0  0  0  0  0  0  0  0
  -26.0560  -29.6941   20.4141 C   0  0  0  0  0  0  0  0  0  0  0  0
  -29.1880  -13.7351   18.4199 C   0  0  0  0  0  0  0  0  0  0  0  0
  -30.3634  -13.3070   19.0369 C   0  0  0  0  0  0  0  0  0  0  0  0
  -24.9082  -27.5784   20.2539 C   0  0  0  0  0  0  0  0  0  0  0  0
  -20.1677  -27.1466   23.5459 C   0  0  0  0  0  0  0  0  0  0  0  0
  -29.0639  -12.0575   20.6454 C   0  0  0  0  0  0  0  0  0  0  0  0
  -24.0905  -15.9351   20.5809 C   0  0  0  0  0  0  0  0  0  0  0  0
  -22.7280  -16.4142   22.6836 C   0  0  0  0  0  0  0  0  0  0  0  0
  -30.6165  -28.3435   14.1037 C   0  0  0  0  0  0  0  0  0  0  0  0
  -27.2869  -27.6880   19.8183 C   0  0  0  0  0  0  0  0  0  0  0  0
  -29.4110  -28.2755   14.8278 C   0  0  0  0  0  0  0  0  0  0  0  0
  -26.1089  -26.9341   19.9186 C   0  0  0  0  0  0  0  0  0  0  0  0
  -19.2072  -26.1790   23.2513 C   0  0  0  0  0  0  0  0  0  0  0  0
  -20.0246  -28.4439   23.0536 C   0  0  0  0  0  0  0  0  0  0  0  0
  -25.9009  -14.4663   19.0487 C   0  0  0  0  0  0  0  0  0  0  0  0
  -24.8821  -28.9512   20.4986 C   0  0  0  0  0  0  0  0  0  0  0  0
  -27.9505  -13.3245   18.9156 C   0  0  0  0  0  0  0  0  0  0  0  0
  -30.3014  -12.4682   20.1497 C   0  0  0  0  0  0  0  0  0  0  0  0
  -27.8885  -12.4857   20.0284 C   0  0  0  0  0  0  0  0  0  0  0  0
  -23.1559  -16.6944   21.3721 C   0  0  0  0  0  0  0  0  0  0  0  0
  -21.8478  -17.4257   22.9811 C   0  0  0  0  0  0  0  0  0  0  0  0
  -23.0935  -15.3360   23.5552 C   0  0  0  0  0  0  0  0  0  0  0  0
  -28.0294  -25.8997   17.2975 C   0  0  0  0  0  0  0  0  0  0  0  0
  -27.6236  -23.4610   19.3977 C   0  0  0  0  0  0  0  0  0  0  0  0
  -26.1938  -22.3295   22.2825 C   0  0  0  0  0  0  0  0  0  0  0  0
  -20.5617  -22.7444   23.0526 C   0  0  0  0  0  0  0  0  0  0  0  0
  -23.0930  -29.0787   21.9942 C   0  0  0  0  0  0  0  0  0  1  0  0
  -31.2822  -27.1071   13.5534 C   0  0  0  0  0  0  0  0  0  0  0  0
  -28.5926  -27.0200   19.4846 C   0  0  0  0  0  0  0  0  0  0  0  0
  -26.0939  -25.4491   19.6677 C   0  0  0  0  0  0  0  0  0  0  0  0
  -30.8000  -25.8141   14.2059 C   0  0  0  0  0  0  0  0  0  0  0  0
  -19.7538  -20.9491   20.0159 C   0  0  0  0  0  0  0  0  0  0  0  0
  -29.2773  -25.7968   14.2952 C   0  0  0  0  0  0  0  0  0  0  0  0
  -20.5389  -19.6509   20.2120 C   0  0  0  0  0  0  0  0  0  0  0  0
  -20.5265  -22.1492   20.5552 C   0  0  0  0  0  0  0  0  0  0  0  0
  -21.7176  -20.7322   22.1821 C   0  0  0  0  0  0  0  0  0  0  0  0
  -28.7625  -26.9503   15.1646 C   0  0  1  0  0  0  0  0  0  0  0  0
  -28.4157  -25.7025   18.7361 C   0  0  1  0  0  0  0  0  0  0  0  0
  -20.9798  -19.4787   21.6777 C   0  0  2  0  0  0  0  0  0  0  0  0
  -26.0153  -20.2810   23.7209 C   0  0  0  0  0  0  0  0  0  0  0  0
  -25.6717  -22.2316   17.4005 C   0  0  0  0  0  0  0  0  0  0  0  0
  -24.8327  -20.7519   19.2375 C   0  0  0  0  0  0  0  0  0  0  0  0
  -27.2101  -20.5941   18.4988 C   0  0  0  0  0  0  0  0  0  0  0  0
  -27.4293  -23.7036   24.5943 C   0  0  0  0  0  0  0  0  0  0  0  0
  -19.3602  -24.7913   23.7760 C   0  0  0  0  0  0  0  0  0  0  0  0
  -21.0580  -29.4857   23.3711 C   0  0  0  0  0  0  0  0  0  0  0  0
  -26.4571  -22.6064   19.8313 C   0  0  1  0  0  0  0  0  0  0  0  0
  -26.7731  -21.5744   23.4651 C   0  0  2  0  0  0  0  0  0  0  0  0
  -26.0425  -21.5743   18.7449 C   0  0  0  0  0  0  0  0  0  0  0  0
  -22.5937  -17.7975   20.8709 N   0  0  0  0  0  0  0  0  0  0  0  0
  -21.8034  -18.2192   21.8727 N   0  0  0  0  0  0  0  0  0  0  0  0
  -27.3946  -24.8430   19.3385 N   0  0  0  0  0  0  0  0  0  0  0  0
  -20.9001  -21.9295   21.9595 N   0  0  0  0  0  0  0  0  0  0  0  0
  -21.1150  -17.7049   24.0800 N   0  0  0  0  0  0  0  0  0  0  0  0
  -24.0111  -14.3836   23.0912 N   0  0  0  0  0  0  0  0  0  0  0  0
  -28.9376  -26.6427   16.5678 N   0  0  0  0  0  0  0  0  0  0  0  0
  -26.8396  -22.0104   21.1068 N   0  0  0  0  0  0  0  0  0  0  0  0
  -19.7917  -23.8622   22.7555 N   0  0  0  0  0  0  0  0  0  0  0  0
  -21.9172  -29.7566   22.2417 N   0  0  0  0  0  0  0  0  0  0  0  0
  -26.7053  -22.4104   24.6970 N   0  3  0  0  0  0  0  0  0  0  0  0
  -22.6080  -15.2115   24.7051 O   0  0  0  0  0  0  0  0  0  0  0  0
  -26.9854  -25.4124   16.8801 O   0  0  0  0  0  0  0  0  0  0  0  0
  -28.7005  -22.9228   19.1285 O   0  0  0  0  0  0  0  0  0  0  0  0
  -25.2591  -23.1203   22.3902 O   0  0  0  0  0  0  0  0  0  0  0  0
  -20.9153  -22.4916   24.2094 O   0  0  0  0  0  0  0  0  0  0  0  0
  -23.5569  -28.1756   22.6840 O   0  0  0  0  0  0  0  0  0  0  0  0
  -26.7845  -13.7497   18.3014 O   0  0  0  0  0  0  0  0  0  0  0  0
  -23.7108  -29.5625   20.8245 O   0  0  0  0  0  0  0  0  0  1  0  0
  -31.4302  -12.0559   20.7412 F   0  0  0  0  0  0  0  0  0  0  0  0
  -26.7026  -12.0869   20.5085 F   0  0  0  0  0  0  0  0  0  0  0  0
  1  2  1  0  0  0  0
  1  6  2  0  0  0  0
  2  7  2  0  0  0  0
  3  9  1  0  0  0  0
  3 10  2  0  0  0  0
  4 11  2  0  0  0  0
  4 19  1  0  0  0  0
  5 12  1  0  0  0  0
  5 19  2  0  0  0  0
  6 21  1  0  0  0  0
  7 23  1  0  0  0  0
  8 13  2  0  0  0  0
  8 22  1  0  0  0  0
  9 25  2  0  0  0  0
 10 26  1  0  0  0  0
 11 27  1  0  0  0  0
 12 27  2  0  0  0  0
 13 28  1  0  0  0  0
 14 15  2  0  0  0  0
 14 29  1  0  0  0  0
 15 30  1  0  0  0  0
 16 24  1  0  0  0  0
 16 28  2  0  0  0  0
 17 25  1  0  0  0  0
 17 26  2  0  0  0  0
 18 30  2  0  0  0  0
 18 31  1  0  0  0  0
 19 32  1  0  0  0  0
 20 32  1  0  0  0  0
 20 33  2  0  0  0  0
 20 34  1  0  0  0  0
 21 23  2  0  0  0  0
 21 40  1  0  0  0  0
 22 24  2  0  0  0  0
 22 41  1  0  0  0  0
 23 49  1  0  0  0  0
 24 42  1  0  0  0  0
 25 57  1  0  0  0  0
 26 58  1  0  0  0  0
 27 79  1  0  0  0  0
 28 80  1  0  0  0  0
 29 31  2  0  0  0  0
 29 79  1  0  0  0  0
 30 81  1  0  0  0  0
 31 82  1  0  0  0  0
 32 62  2  0  0  0  0
 33 63  1  0  0  0  0
 33 66  1  0  0  0  0
 34 67  1  0  0  0  0
 34 73  2  0  0  0  0
 35 50  1  0  0  0  0
 35 68  1  0  0  0  0
 35 74  2  0  0  0  0
 36 59  1  0  0  0  0
 36 64  1  0  0  0  0
 36 75  2  0  0  0  0
 37 60  1  0  0  0  0
 37 69  1  0  0  0  0
 37 76  2  0  0  0  0
 38 65  1  0  0  0  0
 38 70  1  0  0  0  0
 38 77  2  0  0  0  0
 39 71  1  0  0  0  0
 39 78  2  0  0  0  0
 39 80  1  0  0  0  0
 40 43  1  0  0  0  0
 41 50  1  0  0  0  0
 42 64  1  0  0  0  0
 43 45  1  0  0  0  0
 44 46  1  0  0  0  0
 44 47  1  0  0  0  0
 45 49  1  0  0  0  0
 46 51  1  0  0  0  0
 47 65  1  0  0  0  0
 48 51  1  0  0  0  0
 48 65  1  0  0  0  0
 49 68  1  0  0  0  0
 50 64  1  0  0  0  0
 51 63  1  0  0  0  0
 52 60  1  0  0  0  0
 53 61  1  0  0  0  0
 54 61  1  0  0  0  0
 55 61  1  0  0  0  0
 56 72  1  0  0  0  0
 57 70  1  0  0  0  0
 58 71  1  0  0  0  0
 59 61  1  0  0  0  0
 59 69  1  0  0  0  0
 60 72  1  0  0  0  0
 62 63  1  0  0  0  0
M  CHG  1  72   1
M  ISO  4  38 100  39 101  70 100  80 101
M  END
> <Batch ID>
0002

> <Smiles>
CNC(C)C(=O)NC(C(=O)N1Cc2cc([101O:1][101C:1](=O)NCc3cccc(C[100NH:0][100C:0](=O)N4CCCC(n5nc(-c6ccc(Oc7ccc(F)cc7F)cc6)c(C(N)=O)c5N)C4)c3)ccc2CC1C(=O)NC1CCCc2ccccc21)C(C)(C)C

> <Shape>
0.183

> <Color>
0.095

> <Negative vol penalty>
0.000

$$$$

  -OEChem-04042320173D

 82 90  0     1  0  0  0  0  0999 V2000
  -32.6900  -24.1424   16.2407 C   0  0  0  0  0  0  0  0  0  0  0  0
  -16.6284  -23.2347   21.7856 C   0  0  0  0  0  0  0  0  0  0  0  0
  -17.6381  -22.5628   21.1041 C   0  0  0  0  0  0  0  0  0  0  0  0
  -32.7280  -24.5495   17.5743 C   0  0  0  0  0  0  0  0  0  0  0  0
  -25.5302  -15.4754   21.6696 C   0  0  0  0  0  0  0  0  0  0  0  0
  -24.9420  -16.4533   19.5401 C   0  0  0  0  0  0  0  0  0  0  0  0
  -31.6544  -23.3234   15.7907 C   0  0  0  0  0  0  0  0  0  0  0  0
  -16.6248  -24.6284   21.8270 C   0  0  0  0  0  0  0  0  0  0  0  0
  -18.6443  -23.2843   20.4626 C   0  0  0  0  0  0  0  0  0  0  0  0
  -24.5242  -21.6761   19.8741 C   0  0  0  0  0  0  0  0  0  0  0  0
  -31.7304  -24.1375   18.4579 C   0  0  0  0  0  0  0  0  0  0  0  0
  -24.2952  -14.8287   21.7138 C   0  0  0  0  0  0  0  0  0  0  0  0
  -23.7070  -15.8066   19.5843 C   0  0  0  0  0  0  0  0  0  0  0  0
  -25.2350  -21.0847   18.8306 C   0  0  0  0  0  0  0  0  0  0  0  0
  -22.8681  -12.0879   20.3411 C   0  0  0  0  0  0  0  0  0  0  0  0
  -22.8527  -10.7450   20.7178 C   0  0  0  0  0  0  0  0  0  0  0  0
  -25.9459  -23.2665   18.0864 C   0  0  0  0  0  0  0  0  0  0  0  0
  -21.4265  -11.2868   22.5911 C   0  0  0  0  0  0  0  0  0  0  0  0
  -25.8537  -16.2878   20.5828 C   0  0  0  0  0  0  0  0  0  0  0  0
  -30.6568  -22.9115   16.6744 C   0  0  0  0  0  0  0  0  0  0  0  0
  -28.3262  -16.4669   19.9811 C   0  0  0  0  0  0  0  0  0  0  0  0
  -17.6368  -25.3670   21.1938 C   0  0  0  0  0  0  0  0  0  0  0  0
  -24.5100  -23.0701   20.0254 C   0  0  0  0  0  0  0  0  0  0  0  0
  -18.6535  -24.6891   20.4944 C   0  0  0  0  0  0  0  0  0  0  0  0
  -25.2362  -23.8729   19.1342 C   0  0  0  0  0  0  0  0  0  0  0  0
  -30.6948  -23.3185   18.0080 C   0  0  0  0  0  0  0  0  0  0  0  0
  -23.3836  -14.9942   20.6711 C   0  0  0  0  0  0  0  0  0  0  0  0
  -25.9436  -21.8801   17.9348 C   0  0  0  0  0  0  0  0  0  0  0  0
  -22.1627  -13.0304   21.0895 C   0  0  0  0  0  0  0  0  0  0  0  0
  -22.1319  -10.3444   21.8428 C   0  0  0  0  0  0  0  0  0  0  0  0
  -21.4419  -12.6298   22.2145 C   0  0  0  0  0  0  0  0  0  0  0  0
  -27.1291  -16.9566   20.5369 C   0  0  0  0  0  0  0  0  0  0  0  0
  -29.2383  -17.4724   20.1900 C   0  0  0  0  0  0  0  0  0  0  0  0
  -29.5685  -22.0395   16.1623 C   0  0  0  0  0  0  0  0  0  0  0  0
  -28.5902  -15.2151   19.3339 C   0  0  0  0  0  0  0  0  0  0  0  0
  -22.2563  -25.3107   19.9595 C   0  0  0  0  0  0  0  0  0  0  0  0
  -24.7005  -27.2448   20.8580 C   0  0  0  0  0  0  0  0  0  0  0  0
  -28.0644  -27.8145   20.9407 C   0  0  0  0  0  0  0  0  0  0  0  0
  -29.6039  -23.2360   20.2772 C   0  0  0  0  0  0  0  0  0  0  0  0
  -17.5646  -26.8732   21.2260 C   0  0  0  0  0  0  0  0  0  0  0  0
  -23.7602  -23.6909   21.1721 C   0  0  0  0  0  0  0  0  0  0  0  0
  -25.2697  -25.3730   19.2650 C   0  0  0  0  0  0  0  0  0  0  0  0
  -18.8742  -27.5542   20.8371 C   0  0  0  0  0  0  0  0  0  0  0  0
  -29.5308  -21.3254   23.2807 C   0  0  0  0  0  0  0  0  0  0  0  0
  -19.4537  -26.9175   19.5778 C   0  0  0  0  0  0  0  0  0  0  0  0
  -29.0212  -19.9556   22.8267 C   0  0  0  0  0  0  0  0  0  0  0  0
  -28.8555  -22.4632   22.5172 C   0  0  0  0  0  0  0  0  0  0  0  0
  -28.4078  -20.9820   20.6003 C   0  0  0  0  0  0  0  0  0  0  0  0
  -19.7760  -25.4359   19.8070 C   0  0  1  0  0  0  0  0  0  0  0  0
  -23.3953  -25.1517   20.9264 C   0  0  1  0  0  0  0  0  0  0  0  0
  -29.1061  -19.8019   21.2955 C   0  0  2  0  0  0  0  0  0  0  0  0
  -30.2190  -28.9543   21.5372 C   0  0  0  0  0  0  0  0  0  0  0  0
  -23.9855  -29.0374   18.4947 C   0  0  0  0  0  0  0  0  0  0  0  0
  -26.2239  -30.1323   18.7376 C   0  0  0  0  0  0  0  0  0  0  0  0
  -24.5651  -30.2633   20.5961 C   0  0  0  0  0  0  0  0  0  0  0  0
  -28.3233  -26.2665   23.4498 C   0  0  0  0  0  0  0  0  0  0  0  0
  -28.4565  -19.8311   16.3686 C   0  0  0  0  0  0  0  0  0  0  0  0
  -27.1600  -19.9970   17.1412 C   0  0  0  0  0  0  0  0  0  1  0  0
  -25.7338  -28.0703   20.1301 C   0  0  1  0  0  0  0  0  0  0  0  0
  -28.9866  -28.2394   22.0691 C   0  0  2  0  0  0  0  0  0  0  0  0
  -25.1251  -29.3477   19.4857 C   0  0  0  0  0  0  0  0  0  0  0  0
  -27.2651  -18.1782   21.0597 N   0  0  0  0  0  0  0  0  0  0  0  0
  -28.5585  -18.4645   20.8334 N   0  0  0  0  0  0  0  0  0  0  0  0
  -24.5157  -25.9331   20.3988 N   0  0  0  0  0  0  0  0  0  0  0  0
  -28.9797  -22.2524   21.0733 N   0  0  0  0  0  0  0  0  0  0  0  0
  -30.5473  -17.5959   19.8843 N   0  0  0  0  0  0  0  0  0  0  0  0
  -27.5401  -14.2962   19.2028 N   0  0  0  0  0  0  0  0  0  0  0  0
  -29.6936  -22.9110   18.9241 N   0  0  0  0  0  0  0  0  0  0  0  0
  -29.4454  -20.7962   16.7698 N   0  0  0  0  0  0  0  0  0  0  0  0
  -21.0084  -25.2963   20.5528 N   0  0  0  0  0  0  0  0  0  0  0  0
  -26.7969  -28.3355   21.0933 N   0  0  0  0  0  0  0  0  0  0  0  0
  -29.4329  -27.0504   22.8489 N   0  3  0  0  0  0  0  0  0  0  0  0
  -28.8634  -22.4392   15.2394 O   0  0  0  0  0  0  0  0  0  0  0  0
  -29.7277  -14.9134   18.8997 O   0  0  0  0  0  0  0  0  0  0  0  0
  -22.4922  -25.4387   18.7638 O   0  0  0  0  0  0  0  0  0  0  0  0
  -24.0854  -27.7431   21.8041 O   0  0  0  0  0  0  0  0  0  0  0  0
  -28.4326  -27.0955   20.0144 O   0  0  0  0  0  0  0  0  0  0  0  0
  -30.0519  -24.2770   20.7645 O   0  0  0  0  0  0  0  0  0  0  0  0
  -22.1784  -14.3631   20.7138 O   0  0  0  0  0  0  0  0  0  0  0  0
  -26.6376  -21.3055   16.9151 O   0  0  0  0  0  0  0  0  0  1  0  0
  -22.1159   -9.0545   22.2035 F   0  0  0  0  0  0  0  0  0  0  0  0
  -20.7614  -13.5304   22.9367 F   0  0  0  0  0  0  0  0  0  0  0  0
  1  4  1  0  0  0  0
  1  7  2  0  0  0  0
  2  3  1  0  0  0  0
  2  8  2  0  0  0  0
  3  9  2  0  0  0  0
  4 11  2  0  0  0  0
  5 12  2  0  0  0  0
  5 19  1  0  0  0  0
  6 13  1  0  0  0  0
  6 19  2  0  0  0  0
  7 20  1  0  0  0  0
  8 22  1  0  0  0  0
  9 24  1  0  0  0  0
 10 14  2  0  0  0  0
 10 23  1  0  0  0  0
 11 26  1  0  0  0  0
 12 27  1  0  0  0  0
 13 27  2  0  0  0  0
 14 28  1  0  0  0  0
 15 16  2  0  0  0  0
 15 29  1  0  0  0  0
 16 30  1  0  0  0  0
 17 25  1  0  0  0  0
 17 28  2  0  0  0  0
 18 30  2  0  0  0  0
 18 31  1  0  0  0  0
 19 32  1  0  0  0  0
 20 26  2  0  0  0  0
 20 34  1  0  0  0  0
 21 32  1  0  0  0  0
 21 33  2  0  0  0  0
 21 35  1  0  0  0  0
 22 24  2  0  0  0  0
 22 40  1  0  0  0  0
 23 25  2  0  0  0  0
 23 41  1  0  0  0  0
 24 49  1  0  0  0  0
 25 42  1  0  0  0  0
 26 68  1  0  0  0  0
 27 79  1  0  0  0  0
 28 80  1  0  0  0  0
 29 31  2  0  0  0  0
 29 79  1  0  0  0  0
 30 81  1  0  0  0  0
 31 82  1  0  0  0  0
 32 62  2  0  0  0  0
 33 63  1  0  0  0  0
 33 66  1  0  0  0  0
 34 69  1  0  0  0  0
 34 73  2  0  0  0  0
 35 67  1  0  0  0  0
 35 74  2  0  0  0  0
 36 50  1  0  0  0  0
 36 70  1  0  0  0  0
 36 75  2  0  0  0  0
 37 59  1  0  0  0  0
 37 64  1  0  0  0  0
 37 76  2  0  0  0  0
 38 60  1  0  0  0  0
 38 71  1  0  0  0  0
 38 77  2  0  0  0  0
 39 65  1  0  0  0  0
 39 68  1  0  0  0  0
 39 78  2  0  0  0  0
 40 43  1  0  0  0  0
 41 50  1  0  0  0  0
 42 64  1  0  0  0  0
 43 45  1  0  0  0  0
 44 46  1  0  0  0  0
 44 47  1  0  0  0  0
 45 49  1  0  0  0  0
 46 51  1  0  0  0  0
 47 65  1  0  0  0  0
 48 51  1  0  0  0  0
 48 65  1  0  0  0  0
 49 70  1  0  0  0  0
 50 64  1  0  0  0  0
 51 63  1  0  0  0  0
 52 60  1  0  0  0  0
 53 61  1  0  0  0  0
 54 61  1  0  0  0  0
 55 61  1  0  0  0  0
 56 72  1  0  0  0  0
 57 58  1  0  0  0  0
 57 69  1  0  0  0  0
 58 80  1  0  0  0  0
 59 61  1  0  0  0  0
 59 71  1  0  0  0  0
 60 72  1  0  0  0  0
 62 63  1  0  0  0  0
M  CHG  1  72   1
M  ISO  4  39 100  58 101  68 100  80 101
M  END
> <Batch ID>
0002

> <Smiles>
CNC(C)C(=O)NC(C(=O)N1Cc2cc([101O:1][101CH2:1]CNC(=O)c3ccccc3[100NH:0][100C:0](=O)N3CCCC(n4nc(-c5ccc(Oc6ccc(F)cc6F)cc5)c(C(N)=O)c4N)C3)ccc2CC1C(=O)NC1CCCc2ccccc21)C(C)(C)C

> <Shape>
0.206

> <Color>
0.053

> <Negative vol penalty>
0.000

$$$$

  -OEChem-04042320173D

 82 90  0     1  0  0  0  0  0999 V2000
  -26.2245  -30.6495   18.1294 C   0  0  0  0  0  0  0  0  0  0  0  0
  -26.4747  -29.2816   18.0870 C   0  0  0  0  0  0  0  0  0  0  0  0
  -23.0662   -9.8664   19.9523 C   0  0  0  0  0  0  0  0  0  0  0  0
  -23.8293   -9.8806   22.2446 C   0  0  0  0  0  0  0  0  0  0  0  0
  -27.2646  -31.5393   18.3945 C   0  0  0  0  0  0  0  0  0  0  0  0
  -27.7655  -28.8029   18.3086 C   0  0  0  0  0  0  0  0  0  0  0  0
  -27.8483  -24.8063   21.4176 C   0  0  0  0  0  0  0  0  0  0  0  0
  -29.9269  -18.2470   20.0181 C   0  0  0  0  0  0  0  0  0  0  0  0
  -22.3164   -8.7186   20.2090 C   0  0  0  0  0  0  0  0  0  0  0  0
  -23.0795   -8.7328   22.5013 C   0  0  0  0  0  0  0  0  0  0  0  0
  -27.4909  -23.5718   20.8772 C   0  0  0  0  0  0  0  0  0  0  0  0
  -29.2606  -19.3776   19.5455 C   0  0  0  0  0  0  0  0  0  0  0  0
  -19.8479   -7.9555   23.1121 C   0  0  0  0  0  0  0  0  0  0  0  0
  -19.0923   -7.9255   24.2842 C   0  0  0  0  0  0  0  0  0  0  0  0
  -29.8238  -22.9933   20.6716 C   0  0  0  0  0  0  0  0  0  0  0  0
  -28.9934  -20.1680   21.8127 C   0  0  0  0  0  0  0  0  0  0  0  0
  -20.3243   -5.9850   25.0286 C   0  0  0  0  0  0  0  0  0  0  0  0
  -23.8227  -10.4474   20.9701 C   0  0  0  0  0  0  0  0  0  0  0  0
  -24.1780  -12.9701   20.8370 C   0  0  0  0  0  0  0  0  0  0  0  0
  -28.5669  -31.0706   18.6290 C   0  0  0  0  0  0  0  0  0  0  0  0
  -29.1985  -25.1485   21.5791 C   0  0  0  0  0  0  0  0  0  0  0  0
  -28.8243  -29.6874   18.5757 C   0  0  0  0  0  0  0  0  0  0  0  0
  -30.1956  -24.2317   21.2166 C   0  0  0  0  0  0  0  0  0  0  0  0
  -30.1265  -18.0769   21.3880 C   0  0  0  0  0  0  0  0  0  0  0  0
  -29.6597  -19.0374   22.2854 C   0  0  0  0  0  0  0  0  0  0  0  0
  -22.3230   -8.1518   21.4834 C   0  0  0  0  0  0  0  0  0  0  0  0
  -28.4787  -22.6662   20.5014 C   0  0  0  0  0  0  0  0  0  0  0  0
  -28.7939  -20.3382   20.4428 C   0  0  0  0  0  0  0  0  0  1  0  0
  -20.8416   -7.0002   22.8982 C   0  0  0  0  0  0  0  0  0  0  0  0
  -19.3305   -6.9402   25.2425 C   0  0  0  0  0  0  0  0  0  0  0  0
  -21.0798   -6.0150   23.8564 C   0  0  0  0  0  0  0  0  0  0  0  0
  -24.5978  -11.6328   20.7054 C   0  0  0  0  0  0  0  0  0  0  0  0
  -25.2737  -13.7118   20.4686 C   0  0  0  0  0  0  0  0  0  0  0  0
  -22.9109  -13.4948   21.2551 C   0  0  0  0  0  0  0  0  0  0  0  0
  -31.0902  -27.4241   20.4185 C   0  0  0  0  0  0  0  0  0  0  0  0
  -33.2301  -26.1687   22.5082 C   0  0  0  0  0  0  0  0  0  0  0  0
  -34.2554  -23.4768   24.3384 C   0  0  0  0  0  0  0  0  0  0  0  0
  -30.7631  -14.7020   20.6445 C   0  0  0  0  0  0  0  0  0  0  0  0
  -29.6681  -32.0739   18.8647 C   0  0  0  0  0  0  0  0  0  0  0  0
  -29.5671  -26.4735   22.1883 C   0  0  0  0  0  0  0  0  0  0  0  0
  -31.6592  -24.5428   21.3884 C   0  0  0  0  0  0  0  0  0  0  0  0
  -30.9336  -31.4610   19.4590 C   0  0  0  0  0  0  0  0  0  0  0  0
  -29.6094  -12.3119   18.2711 C   0  0  0  0  0  0  0  0  0  0  0  0
  -31.3101  -30.1851   18.7125 C   0  0  0  0  0  0  0  0  0  0  0  0
  -28.1709  -12.0281   18.7074 C   0  0  0  0  0  0  0  0  0  0  0  0
  -30.5293  -12.5337   19.4696 C   0  0  0  0  0  0  0  0  0  0  0  0
  -28.6335  -13.2819   20.8552 C   0  0  0  0  0  0  0  0  0  0  0  0
  -30.2062  -29.1279   18.8353 C   0  0  1  0  0  0  0  0  0  0  0  0
  -30.9804  -26.9231   21.8308 C   0  0  1  0  0  0  0  0  0  0  0  0
  -27.6568  -13.1068   19.6797 C   0  0  2  0  0  0  0  0  0  0  0  0
  -36.0595  -22.7422   25.9205 C   0  0  0  0  0  0  0  0  0  0  0  0
  -29.2516  -20.0774   24.5431 C   0  0  0  0  0  0  0  0  0  0  0  0
  -31.3774  -18.7999   24.1129 C   0  0  0  0  0  0  0  0  0  0  0  0
  -29.2188  -17.5964   24.3842 C   0  0  0  0  0  0  0  0  0  0  0  0
  -35.1707  -25.9038   20.1686 C   0  0  0  0  0  0  0  0  0  0  0  0
  -36.5343  -24.3378   21.5673 C   0  0  0  0  0  0  0  0  0  0  0  0
  -36.2088  -26.7001   22.2999 C   0  0  0  0  0  0  0  0  0  0  0  0
  -32.3067  -22.9649   26.5063 C   0  0  0  0  0  0  0  0  0  0  0  0
  -30.8423  -16.8583   21.8706 C   0  0  0  0  0  0  0  0  0  0  0  0
  -34.2736  -25.0796   22.4450 C   0  0  1  0  0  0  0  0  0  0  0  0
  -34.6698  -23.3466   25.7930 C   0  0  2  0  0  0  0  0  0  0  0  0
  -29.8611  -18.8768   23.7564 C   0  0  0  0  0  0  0  0  0  0  0  0
  -35.5194  -25.4999   21.6150 C   0  0  0  0  0  0  0  0  0  0  0  0
  -25.8616  -11.5281   20.2859 N   0  0  0  0  0  0  0  0  0  0  0  0
  -26.2453  -12.8089   20.1507 N   0  0  0  0  0  0  0  0  0  0  0  0
  -31.9691  -25.8536   21.9826 N   0  0  0  0  0  0  0  0  0  0  0  0
  -29.9856  -13.5696   20.3512 N   0  0  0  0  0  0  0  0  0  0  0  0
  -25.4912  -15.0417   20.3887 N   0  0  0  0  0  0  0  0  0  0  0  0
  -21.8946  -12.5928   21.5983 N   0  0  0  0  0  0  0  0  0  0  0  0
  -30.2590  -28.4905   20.1336 N   0  0  0  0  0  0  0  0  0  0  0  0
  -34.5705  -24.7179   23.8268 N   0  0  0  0  0  0  0  0  0  0  0  0
  -30.1702  -15.6382   21.4827 N   0  0  0  0  0  0  0  0  0  0  0  0
  -33.7096  -22.4766   26.5293 N   0  3  0  0  0  0  0  0  0  0  0  0
  -22.6814  -14.7270   21.3067 O   0  0  0  0  0  0  0  0  0  0  0  0
  -31.8724  -26.8841   19.6450 O   0  0  0  0  0  0  0  0  0  0  0  0
  -33.5210  -27.2563   23.0122 O   0  0  0  0  0  0  0  0  0  0  0  0
  -33.7103  -22.5672   23.7171 O   0  0  0  0  0  0  0  0  0  0  0  0
  -31.8994  -14.8691   20.1884 O   0  0  0  0  0  0  0  0  0  0  0  0
  -21.5913   -7.0318   21.7343 O   0  0  0  0  0  0  0  0  0  0  0  0
  -28.1327  -21.4608   19.9732 O   0  0  0  0  0  0  0  0  0  1  0  0
  -18.6059   -6.9125   26.3687 F   0  0  0  0  0  0  0  0  0  0  0  0
  -22.0339   -5.0953   23.6571 F   0  0  0  0  0  0  0  0  0  0  0  0
  1  2  1  0  0  0  0
  1  5  2  0  0  0  0
  2  6  2  0  0  0  0
  3  9  2  0  0  0  0
  3 18  1  0  0  0  0
  4 10  1  0  0  0  0
  4 18  2  0  0  0  0
  5 20  1  0  0  0  0
  6 22  1  0  0  0  0
  7 11  2  0  0  0  0
  7 21  1  0  0  0  0
  8 12  2  0  0  0  0
  8 24  1  0  0  0  0
  9 26  1  0  0  0  0
 10 26  2  0  0  0  0
 11 27  1  0  0  0  0
 12 28  1  0  0  0  0
 13 14  2  0  0  0  0
 13 29  1  0  0  0  0
 14 30  1  0  0  0  0
 15 23  1  0  0  0  0
 15 27  2  0  0  0  0
 16 25  1  0  0  0  0
 16 28  2  0  0  0  0
 17 30  2  0  0  0  0
 17 31  1  0  0  0  0
 18 32  1  0  0  0  0
 19 32  1  0  0  0  0
 19 33  2  0  0  0  0
 19 34  1  0  0  0  0
 20 22  2  0  0  0  0
 20 39  1  0  0  0  0
 21 23  2  0  0  0  0
 21 40  1  0  0  0  0
 22 48  1  0  0  0  0
 23 41  1  0  0  0  0
 24 25  2  0  0  0  0
 24 59  1  0  0  0  0
 25 62  1  0  0  0  0
 26 79  1  0  0  0  0
 27 80  1  0  0  0  0
 28 80  1  0  0  0  0
 29 31  2  0  0  0  0
 29 79  1  0  0  0  0
 30 81  1  0  0  0  0
 31 82  1  0  0  0  0
 32 64  2  0  0  0  0
 33 65  1  0  0  0  0
 33 68  1  0  0  0  0
 34 69  1  0  0  0  0
 34 74  2  0  0  0  0
 35 49  1  0  0  0  0
 35 70  1  0  0  0  0
 35 75  2  0  0  0  0
 36 60  1  0  0  0  0
 36 66  1  0  0  0  0
 36 76  2  0  0  0  0
 37 61  1  0  0  0  0
 37 71  1  0  0  0  0
 37 77  2  0  0  0  0
 38 67  1  0  0  0  0
 38 72  1  0  0  0  0
 38 78  2  0  0  0  0
 39 42  1  0  0  0  0
 40 49  1  0  0  0  0
 41 66  1  0  0  0  0
 42 44  1  0  0  0  0
 43 45  1  0  0  0  0
 43 46  1  0  0  0  0
 44 48  1  0  0  0  0
 45 50  1  0  0  0  0
 46 67  1  0  0  0  0
 47 50  1  0  0  0  0
 47 67  1  0  0  0  0
 48 70  1  0  0  0  0
 49 66  1  0  0  0  0
 50 65  1  0  0  0  0
 51 61  1  0  0  0  0
 52 62  1  0  0  0  0
 53 62  1  0  0  0  0
 54 62  1  0  0  0  0
 55 63  1  0  0  0  0
 56 63  1  0  0  0  0
 57 63  1  0  0  0  0
 58 73  1  0  0  0  0
 59 72  1  0  0  0  0
 60 63  1  0  0  0  0
 60 71  1  0  0  0  0
 61 73  1  0  0  0  0
 64 65  1  0  0  0  0
M  CHG  1  73   1
M  ISO  4  28 101  38 100  72 100  80 101
M  END
> <Batch ID>
0002

> <Smiles>
CNC(C)C(=O)NC(C(=O)N1Cc2cc([101O:1][101c:1]3ccc(C[100NH:0][100C:0](=O)N4CCCC(n5nc(-c6ccc(Oc7ccc(F)cc7F)cc6)c(C(N)=O)c5N)C4)c(C(C)(C)C)c3)ccc2CC1C(=O)NC1CCCc2ccccc21)C(C)(C)C

> <Shape>
0.255

> <Color>
0.198

> <Negative vol penalty>
0.000

$$$$

  -OEChem-04042320173D

 80 88  0     1  0  0  0  0  0999 V2000
  -28.7465  -36.0589   21.8846 C   0  0  0  0  0  0  0  0  0  0  0  0
  -28.9320  -34.6846   21.7738 C   0  0  0  0  0  0  0  0  0  0  0  0
  -28.2754  -13.2697   20.5653 C   0  0  0  0  0  0  0  0  0  0  0  0
  -29.5569  -13.1545   18.5204 C   0  0  0  0  0  0  0  0  0  0  0  0
  -27.6625  -36.5590   22.6049 C   0  0  0  0  0  0  0  0  0  0  0  0
  -28.0343  -33.8095   22.3843 C   0  0  0  0  0  0  0  0  0  0  0  0
  -26.6960  -29.9757   19.3585 C   0  0  0  0  0  0  0  0  0  0  0  0
  -31.1067  -25.4022   19.9275 C   0  0  0  0  0  0  0  0  0  0  0  0
  -31.8917  -24.2496   19.8966 C   0  0  0  0  0  0  0  0  0  0  0  0
  -28.0352  -11.8976   20.4921 C   0  0  0  0  0  0  0  0  0  0  0  0
  -29.3167  -11.7824   18.4472 C   0  0  0  0  0  0  0  0  0  0  0  0
  -27.6067  -28.9299   19.2151 C   0  0  0  0  0  0  0  0  0  0  0  0
  -26.7901   -9.7421   17.5070 C   0  0  0  0  0  0  0  0  0  0  0  0
  -26.4152   -9.2148   16.2713 C   0  0  0  0  0  0  0  0  0  0  0  0
  -26.3498  -27.6250   20.8077 C   0  0  0  0  0  0  0  0  0  0  0  0
  -30.1808  -24.8295   17.7707 C   0  0  0  0  0  0  0  0  0  0  0  0
  -28.3629   -7.7854   16.2903 C   0  0  0  0  0  0  0  0  0  0  0  0
  -29.0361  -13.8981   19.5794 C   0  0  0  0  0  0  0  0  0  0  0  0
  -30.3618  -15.9575   20.2931 C   0  0  0  0  0  0  0  0  0  0  0  0
  -26.7456  -35.6895   23.2164 C   0  0  0  0  0  0  0  0  0  0  0  0
  -25.6095  -29.8580   20.2372 C   0  0  0  0  0  0  0  0  0  0  0  0
  -26.9378  -34.2984   23.1147 C   0  0  0  0  0  0  0  0  0  0  0  0
  -25.4252  -28.6698   20.9585 C   0  0  0  0  0  0  0  0  0  0  0  0
  -30.2512  -25.6921   18.8646 C   0  0  0  0  0  0  0  0  0  0  0  0
  -31.8214  -23.3870   18.8027 C   0  0  0  0  0  0  0  0  0  0  0  0
  -30.9659  -23.6769   17.7397 C   0  0  0  0  0  0  0  0  0  0  0  0
  -28.5559  -11.1540   19.4331 C   0  0  0  0  0  0  0  0  0  0  0  0
  -27.4353  -27.7554   19.9420 C   0  0  0  0  0  0  0  0  0  0  0  0
  -27.9515   -9.2911   18.1344 C   0  0  0  0  0  0  0  0  0  0  0  0
  -27.2015   -8.2364   15.6630 C   0  0  0  0  0  0  0  0  0  0  0  0
  -28.7379   -8.3128   17.5260 C   0  0  0  0  0  0  0  0  0  0  0  0
  -29.2841  -15.3155   19.6541 C   0  0  0  0  0  0  0  0  0  0  0  0
  -30.1405  -17.2959   20.0781 C   0  0  0  0  0  0  0  0  0  0  0  0
  -31.4643  -15.3944   21.0163 C   0  0  0  0  0  0  0  0  0  0  0  0
  -24.6571  -31.4038   22.8463 C   0  0  0  0  0  0  0  0  0  0  0  0
  -22.0471  -29.5008   22.5479 C   0  0  0  0  0  0  0  0  0  0  0  0
  -20.6944  -26.6052   21.3511 C   0  0  0  0  0  0  0  0  0  0  0  0
  -28.7363  -21.5166   16.7077 C   0  0  0  0  0  0  0  0  0  0  0  0
  -25.6158  -36.2772   24.0244 C   0  0  0  0  0  0  0  0  0  0  0  0
  -24.6211  -30.9850   20.3604 C   0  0  0  0  0  0  0  0  0  0  0  0
  -24.2640  -28.4855   21.8998 C   0  0  0  0  0  0  0  0  0  0  0  0
  -24.5000  -35.2801   24.3264 C   0  0  0  0  0  0  0  0  0  0  0  0
  -26.0868  -19.7117   18.2567 C   0  0  0  0  0  0  0  0  0  0  0  0
  -25.0834  -33.9581   24.8150 C   0  0  0  0  0  0  0  0  0  0  0  0
  -26.7701  -18.4579   18.8052 C   0  0  0  0  0  0  0  0  0  0  0  0
  -26.6863  -20.1422   16.9198 C   0  0  0  0  0  0  0  0  0  0  0  0
  -28.8335  -19.0675   17.4751 C   0  0  0  0  0  0  0  0  0  0  0  0
  -25.9717  -33.3170   23.7419 C   0  0  1  0  0  0  0  0  0  0  0  0
  -23.8385  -30.9530   21.6696 C   0  0  1  0  0  0  0  0  0  0  0  0
  -28.3006  -18.6271   18.8493 C   0  0  2  0  0  0  0  0  0  0  0  0
  -32.6723  -22.1597   18.7915 C   0  0  0  0  0  0  0  0  0  0  0  0
  -18.5465  -25.3086   21.2987 C   0  0  0  0  0  0  0  0  0  0  0  0
  -22.4993  -28.6397   25.4399 C   0  0  0  0  0  0  0  0  0  0  0  0
  -20.9676  -26.7022   25.0293 C   0  0  0  0  0  0  0  0  0  0  0  0
  -20.1060  -29.0349   24.8312 C   0  0  0  0  0  0  0  0  0  0  0  0
  -20.5523  -26.7361   18.3978 C   0  0  0  0  0  0  0  0  0  0  0  0
  -30.8741  -22.7682   16.5580 C   0  0  0  0  0  0  0  0  0  0  0  0
  -29.4072  -26.9322   18.8979 C   0  0  0  0  0  0  0  0  0  1  0  0
  -21.6589  -28.1318   23.0521 C   0  0  1  0  0  0  0  0  0  0  0  0
  -19.4129  -26.3338   20.5839 C   0  0  2  0  0  0  0  0  0  0  0  0
  -21.3310  -28.1310   24.5719 C   0  0  0  0  0  0  0  0  0  0  0  0
  -28.4408  -16.1754   19.0766 N   0  0  0  0  0  0  0  0  0  0  0  0
  -28.9885  -17.3713   19.3519 N   0  0  0  0  0  0  0  0  0  0  0  0
  -23.3283  -29.6185   21.9906 N   0  0  0  0  0  0  0  0  0  0  0  0
  -28.1399  -20.2864   17.0301 N   0  0  0  0  0  0  0  0  0  0  0  0
  -30.8209  -18.4038   20.4412 N   0  0  0  0  0  0  0  0  0  0  0  0
  -31.5386  -14.0005   21.1422 N   0  0  0  0  0  0  0  0  0  0  0  0
  -25.1592  -32.6854   22.7244 N   0  0  0  0  0  0  0  0  0  0  0  0
  -20.5611  -27.6806   22.2038 N   0  0  0  0  0  0  0  0  0  0  0  0
  -30.1179  -21.5698   16.8457 N   0  0  0  0  0  0  0  0  0  0  0  0
  -19.7245  -25.8174   19.2211 N   0  3  0  0  0  0  0  0  0  0  0  0
  -32.3483  -16.1069   21.5494 O   0  0  0  0  0  0  0  0  0  0  0  0
  -24.8198  -30.6455   23.7951 O   0  0  0  0  0  0  0  0  0  0  0  0
  -21.2406  -30.4297   22.6385 O   0  0  0  0  0  0  0  0  0  0  0  0
  -21.7107  -25.9284   21.2109 O   0  0  0  0  0  0  0  0  0  0  0  0
  -28.0851  -22.4967   16.3305 O   0  0  0  0  0  0  0  0  0  0  0  0
  -28.3220   -9.8150   19.3615 O   0  0  0  0  0  0  0  0  0  0  0  0
  -28.3232  -26.7333   19.8044 O   0  0  0  0  0  0  0  0  0  1  0  0
  -26.8405   -7.7290   14.4771 F   0  0  0  0  0  0  0  0  0  0  0  0
  -29.8541   -7.8747   18.1243 F   0  0  0  0  0  0  0  0  0  0  0  0
  1  2  1  0  0  0  0
  1  5  2  0  0  0  0
  2  6  2  0  0  0  0
  3 10  2  0  0  0  0
  3 18  1  0  0  0  0
  4 11  1  0  0  0  0
  4 18  2  0  0  0  0
  5 20  1  0  0  0  0
  6 22  1  0  0  0  0
  7 12  2  0  0  0  0
  7 21  1  0  0  0  0
  8  9  2  0  0  0  0
  8 24  1  0  0  0  0
  9 25  1  0  0  0  0
 10 27  1  0  0  0  0
 11 27  2  0  0  0  0
 12 28  1  0  0  0  0
 13 14  2  0  0  0  0
 13 29  1  0  0  0  0
 14 30  1  0  0  0  0
 15 23  1  0  0  0  0
 15 28  2  0  0  0  0
 16 24  2  0  0  0  0
 16 26  1  0  0  0  0
 17 30  2  0  0  0  0
 17 31  1  0  0  0  0
 18 32  1  0  0  0  0
 19 32  1  0  0  0  0
 19 33  2  0  0  0  0
 19 34  1  0  0  0  0
 20 22  2  0  0  0  0
 20 39  1  0  0  0  0
 21 23  2  0  0  0  0
 21 40  1  0  0  0  0
 22 48  1  0  0  0  0
 23 41  1  0  0  0  0
 24 58  1  0  0  0  0
 25 26  2  0  0  0  0
 25 51  1  0  0  0  0
 26 57  1  0  0  0  0
 27 77  1  0  0  0  0
 28 78  1  0  0  0  0
 29 31  2  0  0  0  0
 29 77  1  0  0  0  0
 30 79  1  0  0  0  0
 31 80  1  0  0  0  0
 32 62  2  0  0  0  0
 33 63  1  0  0  0  0
 33 66  1  0  0  0  0
 34 67  1  0  0  0  0
 34 72  2  0  0  0  0
 35 49  1  0  0  0  0
 35 68  1  0  0  0  0
 35 73  2  0  0  0  0
 36 59  1  0  0  0  0
 36 64  1  0  0  0  0
 36 74  2  0  0  0  0
 37 60  1  0  0  0  0
 37 69  1  0  0  0  0
 37 75  2  0  0  0  0
 38 65  1  0  0  0  0
 38 70  1  0  0  0  0
 38 76  2  0  0  0  0
 39 42  1  0  0  0  0
 40 49  1  0  0  0  0
 41 64  1  0  0  0  0
 42 44  1  0  0  0  0
 43 45  1  0  0  0  0
 43 46  1  0  0  0  0
 44 48  1  0  0  0  0
 45 50  1  0  0  0  0
 46 65  1  0  0  0  0
 47 50  1  0  0  0  0
 47 65  1  0  0  0  0
 48 68  1  0  0  0  0
 49 64  1  0  0  0  0
 50 63  1  0  0  0  0
 52 60  1  0  0  0  0
 53 61  1  0  0  0  0
 54 61  1  0  0  0  0
 55 61  1  0  0  0  0
 56 71  1  0  0  0  0
 57 70  1  0  0  0  0
 58 78  1  0  0  0  0
 59 61  1  0  0  0  0
 59 69  1  0  0  0  0
 60 71  1  0  0  0  0
 62 63  1  0  0  0  0
M  CHG  1  71   1
M  ISO  4  38 100  58 101  70 100  78 101
M  END
> <Batch ID>
0002

> <Smiles>
CNC(C)C(=O)NC(C(=O)N1Cc2cc([101O:1][101CH2:1]c3ccc(C)c(C[100NH:0][100C:0](=O)N4CCCC(n5nc(-c6ccc(Oc7ccc(F)cc7F)cc6)c(C(N)=O)c5N)C4)c3)ccc2CC1C(=O)NC1CCCc2ccccc21)C(C)(C)C

> <Shape>
0.289

> <Color>
0.074

> <Negative vol penalty>
0.000

$$$$

  -OEChem-04042320173D

 82 89  0     1  0  0  0  0  0999 V2000
  -16.8514  -29.7857   24.0563 C   0  0  0  0  0  0  0  0  0  0  0  0
  -17.8103  -29.5209   25.0288 C   0  0  0  0  0  0  0  0  0  0  0  0
  -24.3568  -14.8639   20.7726 C   0  0  0  0  0  0  0  0  0  0  0  0
  -26.4906  -14.7485   21.8999 C   0  0  0  0  0  0  0  0  0  0  0  0
  -16.9982  -29.2608   22.7731 C   0  0  0  0  0  0  0  0  0  0  0  0
  -18.9161  -28.7300   24.7188 C   0  0  0  0  0  0  0  0  0  0  0  0
  -25.8558  -27.9618   26.3212 C   0  0  0  0  0  0  0  0  0  0  0  0
  -24.4154  -13.4932   20.5213 C   0  0  0  0  0  0  0  0  0  0  0  0
  -26.5492  -13.3777   21.6486 C   0  0  0  0  0  0  0  0  0  0  0  0
  -26.7637  -26.9892   26.7378 C   0  0  0  0  0  0  0  0  0  0  0  0
  -23.8684  -10.6231   22.2232 C   0  0  0  0  0  0  0  0  0  0  0  0
  -22.7170   -9.8713   22.4571 C   0  0  0  0  0  0  0  0  0  0  0  0
  -26.9532  -26.2014   24.4657 C   0  0  0  0  0  0  0  0  0  0  0  0
  -22.6797   -9.2057   20.1349 C   0  0  0  0  0  0  0  0  0  0  0  0
  -25.3944  -15.4916   21.4618 C   0  0  0  0  0  0  0  0  0  0  0  0
  -24.7751  -17.5431   22.8459 C   0  0  0  0  0  0  0  0  0  0  0  0
  -18.1113  -28.4710   22.4445 C   0  0  0  0  0  0  0  0  0  0  0  0
  -25.4808  -28.0546   24.9732 C   0  0  0  0  0  0  0  0  0  0  0  0
  -19.0773  -28.1929   23.4303 C   0  0  0  0  0  0  0  0  0  0  0  0
  -26.0422  -27.1776   24.0341 C   0  0  0  0  0  0  0  0  0  0  0  0
  -25.5116  -12.7500   20.9593 C   0  0  0  0  0  0  0  0  0  0  0  0
  -27.3104  -26.1070   25.8105 C   0  0  0  0  0  0  0  0  0  0  0  0
  -24.4254  -10.6662   20.9450 C   0  0  0  0  0  0  0  0  0  0  0  0
  -22.1227   -9.1626   21.4131 C   0  0  0  0  0  0  0  0  0  0  0  0
  -23.8311   -9.9575   19.9009 C   0  0  0  0  0  0  0  0  0  0  0  0
  -25.3347  -16.9077   21.7212 C   0  0  0  0  0  0  0  0  0  0  0  0
  -24.9702  -18.8830   22.6158 C   0  0  0  0  0  0  0  0  0  0  0  0
  -24.1363  -16.9730   23.9960 C   0  0  0  0  0  0  0  0  0  0  0  0
  -22.7462  -27.7579   23.3801 C   0  0  0  0  0  0  0  0  0  0  0  0
  -24.5561  -28.7253   20.8680 C   0  0  0  0  0  0  0  0  0  0  0  0
  -27.6541  -28.9917   19.4615 C   0  0  0  0  0  0  0  0  0  0  0  0
  -29.5422  -25.5678   26.1814 C   0  0  0  0  0  0  0  0  0  1  0  0
  -28.9589  -21.9196   19.3416 C   0  0  0  0  0  0  0  0  0  0  0  0
  -18.2025  -27.8865   21.0572 C   0  0  0  0  0  0  0  0  0  0  0  0
  -24.5205  -29.1264   24.5356 C   0  0  0  0  0  0  0  0  0  0  0  0
  -25.6880  -27.2486   22.5720 C   0  0  0  0  0  0  0  0  0  0  0  0
  -19.5943  -27.3676   20.7052 C   0  0  0  0  0  0  0  0  0  0  0  0
  -25.4125  -22.0446   19.0522 C   0  0  0  0  0  0  0  0  0  0  0  0
  -20.1549  -26.5260   21.8473 C   0  0  0  0  0  0  0  0  0  0  0  0
  -24.9399  -20.7996   19.8049 C   0  0  0  0  0  0  0  0  0  0  0  0
  -26.7158  -21.7879   18.2988 C   0  0  0  0  0  0  0  0  0  0  0  0
  -27.3387  -19.9999   19.8764 C   0  0  0  0  0  0  0  0  0  0  0  0
  -20.3034  -27.3598   23.1257 C   0  0  1  0  0  0  0  0  0  0  0  0
  -23.8180  -28.7990   23.2216 C   0  0  1  0  0  0  0  0  0  0  0  0
  -26.0573  -20.2259   20.6968 C   0  0  2  0  0  0  0  0  0  0  0  0
  -33.6308  -26.0437   27.9683 C   0  0  0  0  0  0  0  0  0  0  0  0
  -28.8122  -29.7925   17.3843 C   0  0  0  0  0  0  0  0  0  0  0  0
  -23.5804  -26.2509   19.3731 C   0  0  0  0  0  0  0  0  0  0  0  0
  -25.4486  -26.5861   17.7404 C   0  0  0  0  0  0  0  0  0  0  0  0
  -23.6843  -28.3319   17.9899 C   0  0  0  0  0  0  0  0  0  0  0  0
  -29.2518  -30.9703   20.9753 C   0  0  0  0  0  0  0  0  0  0  0  0
  -30.3557  -23.2457   25.6897 C   0  0  0  0  0  0  0  0  0  0  0  0
  -31.1659  -21.9214   20.4767 C   0  0  0  0  0  0  0  0  0  0  0  0
  -32.1695  -25.6513   27.9807 C   0  0  0  0  0  0  0  0  0  0  0  0
  -30.7519  -23.5994   24.2565 C   0  0  0  0  0  0  0  0  0  0  0  0
  -31.1544  -22.9116   21.6333 C   0  0  0  0  0  0  0  0  0  0  0  0
  -25.3968  -28.0292   19.8251 C   0  0  1  0  0  0  0  0  0  0  0  0
  -28.3584  -30.1565   18.7894 C   0  0  2  0  0  0  0  0  0  0  0  0
  -30.4391  -24.4390   26.6485 C   0  0  1  0  0  0  0  0  0  0  0  0
  -24.5329  -27.2967   18.7599 C   0  0  0  0  0  0  0  0  0  0  0  0
  -25.8467  -17.7729   20.8418 N   0  0  0  0  0  0  0  0  0  0  0  0
  -25.6095  -18.9656   21.4138 N   0  0  0  0  0  0  0  0  0  0  0  0
  -24.7398  -28.3098   22.1944 N   0  0  0  0  0  0  0  0  0  0  0  0
  -27.7342  -21.2462   19.2018 N   0  0  0  0  0  0  0  0  0  0  0  0
  -24.6553  -19.9869   23.3262 N   0  0  0  0  0  0  0  0  0  0  0  0
  -24.0194  -15.5784   24.0728 N   0  0  0  0  0  0  0  0  0  0  0  0
  -21.4796  -28.1993   23.0478 N   0  0  0  0  0  0  0  0  0  0  0  0
  -26.2889  -29.0444   19.2756 N   0  0  0  0  0  0  0  0  0  0  0  0
  -29.8657  -21.3422   20.2220 N   0  0  0  0  0  0  0  0  0  0  0  0
  -29.5550  -30.5637   19.5790 N   0  3  0  0  0  0  0  0  0  0  0  0
  -31.8482  -24.9229   26.7273 N   0  3  0  0  0  0  0  0  0  0  0  0
  -23.6678  -17.6801   24.9201 O   0  0  0  0  0  0  0  0  0  0  0  0
  -23.0464  -26.6368   23.7734 O   0  0  0  0  0  0  0  0  0  0  0  0
  -23.7707  -29.6104   20.5195 O   0  0  0  0  0  0  0  0  0  0  0  0
  -28.2553  -28.1202   20.0856 O   0  0  0  0  0  0  0  0  0  0  0  0
  -29.9315  -26.6740   25.8297 O   0  0  0  0  0  0  0  0  0  0  0  0
  -29.2225  -22.9612   18.7314 O   0  0  0  0  0  0  0  0  0  0  0  0
  -25.5690  -11.4124   20.7145 O   0  0  0  0  0  0  0  0  0  0  0  0
  -28.1963  -25.1564   26.2146 O   0  0  0  0  0  0  0  0  0  1  0  0
  -21.0179   -8.4395   21.6383 F   0  0  0  0  0  0  0  0  0  0  0  0
  -24.3623   -9.9942   18.6712 F   0  0  0  0  0  0  0  0  0  0  0  0
  -30.6321  -22.1390   23.1812 S   0  0  0  0  0  0  0  0  0  0  0  0
  1  2  1  0  0  0  0
  1  5  2  0  0  0  0
  2  6  2  0  0  0  0
  3  8  2  0  0  0  0
  3 15  1  0  0  0  0
  4  9  1  0  0  0  0
  4 15  2  0  0  0  0
  5 17  1  0  0  0  0
  6 19  1  0  0  0  0
  7 10  2  0  0  0  0
  7 18  1  0  0  0  0
  8 21  1  0  0  0  0
  9 21  2  0  0  0  0
 10 22  1  0  0  0  0
 11 12  2  0  0  0  0
 11 23  1  0  0  0  0
 12 24  1  0  0  0  0
 13 20  1  0  0  0  0
 13 22  2  0  0  0  0
 14 24  2  0  0  0  0
 14 25  1  0  0  0  0
 15 26  1  0  0  0  0
 16 26  1  0  0  0  0
 16 27  2  0  0  0  0
 16 28  1  0  0  0  0
 17 19  2  0  0  0  0
 17 34  1  0  0  0  0
 18 20  2  0  0  0  0
 18 35  1  0  0  0  0
 19 43  1  0  0  0  0
 20 36  1  0  0  0  0
 21 78  1  0  0  0  0
 22 79  1  0  0  0  0
 23 25  2  0  0  0  0
 23 78  1  0  0  0  0
 24 80  1  0  0  0  0
 25 81  1  0  0  0  0
 26 61  2  0  0  0  0
 27 62  1  0  0  0  0
 27 65  1  0  0  0  0
 28 66  1  0  0  0  0
 28 72  2  0  0  0  0
 29 44  1  0  0  0  0
 29 67  1  0  0  0  0
 29 73  2  0  0  0  0
 30 57  1  0  0  0  0
 30 63  1  0  0  0  0
 30 74  2  0  0  0  0
 31 58  1  0  0  0  0
 31 68  1  0  0  0  0
 31 75  2  0  0  0  0
 32 59  1  0  0  0  0
 32 76  2  0  0  0  0
 32 79  1  0  0  0  0
 33 64  1  0  0  0  0
 33 69  1  0  0  0  0
 33 77  2  0  0  0  0
 34 37  1  0  0  0  0
 35 44  1  0  0  0  0
 36 63  1  0  0  0  0
 37 39  1  0  0  0  0
 38 40  1  0  0  0  0
 38 41  1  0  0  0  0
 39 43  1  0  0  0  0
 40 45  1  0  0  0  0
 41 64  1  0  0  0  0
 42 45  1  0  0  0  0
 42 64  1  0  0  0  0
 43 67  1  0  0  0  0
 44 63  1  0  0  0  0
 45 62  1  0  0  0  0
 46 54  1  0  0  0  0
 47 58  1  0  0  0  0
 48 60  1  0  0  0  0
 49 60  1  0  0  0  0
 50 60  1  0  0  0  0
 51 70  1  0  0  0  0
 52 55  1  0  0  0  0
 52 59  1  0  0  0  0
 53 56  1  0  0  0  0
 53 69  1  0  0  0  0
 54 71  1  0  0  0  0
 55 82  1  0  0  0  0
 56 82  1  0  0  0  0
 57 60  1  0  0  0  0
 57 68  1  0  0  0  0
 58 70  1  0  0  0  0
 59 71  1  0  0  0  0
 61 62  1  0  0  0  0
M  CHG  2  70   1  71   1
M  ISO  4  32 101  33 100  69 100  79 101
M  END
> <Batch ID>
0002

> <Smiles>
CCNC(CCSCC[100NH:0][100C:0](=O)N1CCCC(n2nc(-c3ccc(Oc4ccc(F)cc4F)cc3)c(C(N)=O)c2N)C1)[101C:1](=O)[101O:1]c1ccc2c(c1)CN(C(=O)C(NC(=O)C(C)NC)C(C)(C)C)C(C(=O)NC1CCCc3ccccc31)C2

> <Shape>
0.197

> <Color>
0.084

> <Negative vol penalty>
0.000

$$$$

  -OEChem-04042320173D

 78 86  0     1  0  0  0  0  0999 V2000
  -28.0667  -37.0392   21.1568 C   0  0  0  0  0  0  0  0  0  0  0  0
  -28.4786  -35.7212   20.9880 C   0  0  0  0  0  0  0  0  0  0  0  0
  -26.8779  -12.7381   21.8118 C   0  0  0  0  0  0  0  0  0  0  0  0
  -26.2289  -14.3697   20.1524 C   0  0  0  0  0  0  0  0  0  0  0  0
  -26.9484  -37.3241   21.9392 C   0  0  0  0  0  0  0  0  0  0  0  0
  -27.7731  -34.6872   21.6025 C   0  0  0  0  0  0  0  0  0  0  0  0
  -26.8406  -29.0494   19.4001 C   0  0  0  0  0  0  0  0  0  0  0  0
  -29.9140  -23.9385   21.6652 C   0  0  0  0  0  0  0  0  0  0  0  0
  -29.0925  -23.0456   19.5759 C   0  0  0  0  0  0  0  0  0  0  0  0
  -30.3903  -22.6757   22.0176 C   0  0  0  0  0  0  0  0  0  0  0  0
  -29.5689  -21.7828   19.9283 C   0  0  0  0  0  0  0  0  0  0  0  0
  -25.5581  -12.2939   21.8913 C   0  0  0  0  0  0  0  0  0  0  0  0
  -24.9090  -13.9255   20.2318 C   0  0  0  0  0  0  0  0  0  0  0  0
  -27.4760  -27.8317   19.6398 C   0  0  0  0  0  0  0  0  0  0  0  0
  -22.4256  -10.4880   22.2670 C   0  0  0  0  0  0  0  0  0  0  0  0
  -22.2040   -9.1109   22.2726 C   0  0  0  0  0  0  0  0  0  0  0  0
  -25.7862  -27.2777   21.2698 C   0  0  0  0  0  0  0  0  0  0  0  0
  -23.2629   -8.9317   20.1084 C   0  0  0  0  0  0  0  0  0  0  0  0
  -27.2133  -13.7760   20.9424 C   0  0  0  0  0  0  0  0  0  0  0  0
  -29.5834  -13.7604   19.9988 C   0  0  0  0  0  0  0  0  0  0  0  0
  -26.2231  -36.2924   22.5558 C   0  0  0  0  0  0  0  0  0  0  0  0
  -25.6774  -29.3956   20.1025 C   0  0  0  0  0  0  0  0  0  0  0  0
  -26.6449  -34.9587   22.3951 C   0  0  0  0  0  0  0  0  0  0  0  0
  -25.1365  -28.4992   21.0353 C   0  0  0  0  0  0  0  0  0  0  0  0
  -29.2650  -24.1234   20.4444 C   0  0  0  0  0  0  0  0  0  0  0  0
  -30.2178  -21.5979   21.1491 C   0  0  0  0  0  0  0  0  0  0  0  0
  -24.5736  -12.8876   21.1013 C   0  0  0  0  0  0  0  0  0  0  0  0
  -26.9505  -26.9469   20.5769 C   0  0  0  0  0  0  0  0  0  0  0  0
  -23.0657  -11.0870   21.1821 C   0  0  0  0  0  0  0  0  0  0  0  0
  -22.6227   -8.3327   21.1933 C   0  0  0  0  0  0  0  0  0  0  0  0
  -23.4844  -10.3089   20.1028 C   0  0  0  0  0  0  0  0  0  0  0  0
  -28.5764  -14.2357   20.8602 C   0  0  0  0  0  0  0  0  0  0  0  0
  -30.6867  -14.5170   20.3100 C   0  0  0  0  0  0  0  0  0  0  0  0
  -29.5265  -12.7275   19.0061 C   0  0  0  0  0  0  0  0  0  0  0  0
  -24.8815  -31.7237   22.1150 C   0  0  0  0  0  0  0  0  0  0  0  0
  -21.9265  -30.4122   21.8504 C   0  0  0  0  0  0  0  0  0  0  0  0
  -20.0285  -27.6660   21.1412 C   0  0  0  0  0  0  0  0  0  0  0  0
  -31.3678  -19.9601   22.6793 C   0  0  0  0  0  0  0  0  0  0  0  0
  -25.0489  -36.6530   23.4308 C   0  0  0  0  0  0  0  0  0  0  0  0
  -24.9890  -30.7013   19.8131 C   0  0  0  0  0  0  0  0  0  0  0  0
  -23.8787  -28.8147   21.8013 C   0  0  0  0  0  0  0  0  0  0  0  0
  -24.1351  -35.4704   23.7419 C   0  0  0  0  0  0  0  0  0  0  0  0
  -32.6846  -16.9053   23.9485 C   0  0  0  0  0  0  0  0  0  0  0  0
  -24.9579  -34.2549   24.1570 C   0  0  0  0  0  0  0  0  0  0  0  0
  -31.8764  -15.8307   23.2177 C   0  0  0  0  0  0  0  0  0  0  0  0
  -31.8295  -18.1244   24.2893 C   0  0  0  0  0  0  0  0  0  0  0  0
  -30.2959  -17.6360   22.4242 C   0  0  0  0  0  0  0  0  0  0  0  0
  -25.8910  -33.8077   23.0253 C   0  0  1  0  0  0  0  0  0  0  0  0
  -24.0974  -31.1732   20.9575 C   0  0  1  0  0  0  0  0  0  0  0  0
  -31.1304  -16.4157   22.0024 C   0  0  2  0  0  0  0  0  0  0  0  0
  -17.6438  -26.8901   21.0485 C   0  0  0  0  0  0  0  0  0  0  0  0
  -21.8657  -30.2428   24.8963 C   0  0  0  0  0  0  0  0  0  0  0  0
  -19.9531  -28.6392   24.6994 C   0  0  0  0  0  0  0  0  0  0  0  0
  -19.7150  -30.9722   23.8490 C   0  0  0  0  0  0  0  0  0  0  0  0
  -20.2148  -27.0650   18.2493 C   0  0  0  0  0  0  0  0  0  0  0  0
  -28.7526  -25.4818   20.0654 C   0  0  0  0  0  0  0  0  0  1  0  0
  -21.1660  -29.3336   22.5834 C   0  0  1  0  0  0  0  0  0  0  0  0
  -18.8017  -27.4884   20.2649 C   0  0  2  0  0  0  0  0  0  0  0  0
  -20.6998  -29.7915   23.9942 C   0  0  0  0  0  0  0  0  0  0  0  0
  -29.0023  -15.2180   21.6588 N   0  0  0  0  0  0  0  0  0  0  0  0
  -30.2891  -15.3661   21.3005 N   0  0  0  0  0  0  0  0  0  0  0  0
  -23.2458  -30.1064   21.4875 N   0  0  0  0  0  0  0  0  0  0  0  0
  -31.1567  -18.6266   23.0893 N   0  0  0  0  0  0  0  0  0  0  0  0
  -31.9484  -14.5321   19.8303 N   0  0  0  0  0  0  0  0  0  0  0  0
  -28.3144  -12.0502   18.8153 N   0  0  0  0  0  0  0  0  0  0  0  0
  -30.7018  -20.3151   21.5067 N   0  0  0  0  0  0  0  0  0  0  0  0
  -25.1513  -33.0756   22.0197 N   0  0  0  0  0  0  0  0  0  0  0  0
  -20.0802  -28.9263   21.6982 N   0  0  0  0  0  0  0  0  0  0  0  0
  -19.1097  -26.5865   19.1192 N   0  3  0  0  0  0  0  0  0  0  0  0
  -30.5255  -12.4032   18.3203 O   0  0  0  0  0  0  0  0  0  0  0  0
  -25.2157  -30.9775   23.0278 O   0  0  0  0  0  0  0  0  0  0  0  0
  -21.3681  -31.4838   21.6025 O   0  0  0  0  0  0  0  0  0  0  0  0
  -20.8560  -26.7746   21.3172 O   0  0  0  0  0  0  0  0  0  0  0  0
  -32.1080  -20.7224   23.3063 O   0  0  0  0  0  0  0  0  0  0  0  0
  -23.2857  -12.4542   21.1784 O   0  0  0  0  0  0  0  0  0  0  0  0
  -27.5690  -25.7581   20.8132 O   0  0  0  0  0  0  0  0  0  1  0  0
  -22.4112   -7.0101   21.1995 F   0  0  0  0  0  0  0  0  0  0  0  0
  -24.1010  -10.8786   19.0582 F   0  0  0  0  0  0  0  0  0  0  0  0
  1  2  1  0  0  0  0
  1  5  2  0  0  0  0
  2  6  2  0  0  0  0
  3 12  2  0  0  0  0
  3 19  1  0  0  0  0
  4 13  1  0  0  0  0
  4 19  2  0  0  0  0
  5 21  1  0  0  0  0
  6 23  1  0  0  0  0
  7 14  2  0  0  0  0
  7 22  1  0  0  0  0
  8 10  2  0  0  0  0
  8 25  1  0  0  0  0
  9 11  1  0  0  0  0
  9 25  2  0  0  0  0
 10 26  1  0  0  0  0
 11 26  2  0  0  0  0
 12 27  1  0  0  0  0
 13 27  2  0  0  0  0
 14 28  1  0  0  0  0
 15 16  2  0  0  0  0
 15 29  1  0  0  0  0
 16 30  1  0  0  0  0
 17 24  1  0  0  0  0
 17 28  2  0  0  0  0
 18 30  2  0  0  0  0
 18 31  1  0  0  0  0
 19 32  1  0  0  0  0
 20 32  1  0  0  0  0
 20 33  2  0  0  0  0
 20 34  1  0  0  0  0
 21 23  2  0  0  0  0
 21 39  1  0  0  0  0
 22 24  2  0  0  0  0
 22 40  1  0  0  0  0
 23 48  1  0  0  0  0
 24 41  1  0  0  0  0
 25 56  1  0  0  0  0
 26 66  1  0  0  0  0
 27 75  1  0  0  0  0
 28 76  1  0  0  0  0
 29 31  2  0  0  0  0
 29 75  1  0  0  0  0
 30 77  1  0  0  0  0
 31 78  1  0  0  0  0
 32 60  2  0  0  0  0
 33 61  1  0  0  0  0
 33 64  1  0  0  0  0
 34 65  1  0  0  0  0
 34 70  2  0  0  0  0
 35 49  1  0  0  0  0
 35 67  1  0  0  0  0
 35 71  2  0  0  0  0
 36 57  1  0  0  0  0
 36 62  1  0  0  0  0
 36 72  2  0  0  0  0
 37 58  1  0  0  0  0
 37 68  1  0  0  0  0
 37 73  2  0  0  0  0
 38 63  1  0  0  0  0
 38 66  1  0  0  0  0
 38 74  2  0  0  0  0
 39 42  1  0  0  0  0
 40 49  1  0  0  0  0
 41 62  1  0  0  0  0
 42 44  1  0  0  0  0
 43 45  1  0  0  0  0
 43 46  1  0  0  0  0
 44 48  1  0  0  0  0
 45 50  1  0  0  0  0
 46 63  1  0  0  0  0
 47 50  1  0  0  0  0
 47 63  1  0  0  0  0
 48 67  1  0  0  0  0
 49 62  1  0  0  0  0
 50 61  1  0  0  0  0
 51 58  1  0  0  0  0
 52 59  1  0  0  0  0
 53 59  1  0  0  0  0
 54 59  1  0  0  0  0
 55 69  1  0  0  0  0
 56 76  1  0  0  0  0
 57 59  1  0  0  0  0
 57 68  1  0  0  0  0
 58 69  1  0  0  0  0
 60 61  1  0  0  0  0
M  CHG  1  69   1
M  ISO  4  38 100  56 101  66 100  76 101
M  END
> <Batch ID>
0002

> <Smiles>
CNC(C)C(=O)NC(C(=O)N1Cc2cc([101O:1][101CH2:1]c3ccc([100NH:0][100C:0](=O)N4CCCC(n5nc(-c6ccc(Oc7ccc(F)cc7F)cc6)c(C(N)=O)c5N)C4)cc3)ccc2CC1C(=O)NC1CCCc2ccccc21)C(C)(C)C

> <Shape>
0.340

> <Color>
0.078

> <Negative vol penalty>
0.000

$$$$

  -OEChem-04042320173D

 85 94  0     1  0  0  0  0  0999 V2000
  -21.7428  -18.3969   22.2756 C   0  0  0  0  0  0  0  0  0  0  0  0
  -22.8171  -19.2807   22.2608 C   0  0  0  0  0  0  0  0  0  0  0  0
  -23.0546   -9.7922   19.9660 C   0  0  0  0  0  0  0  0  0  0  0  0
  -23.7274   -9.9092   22.2834 C   0  0  0  0  0  0  0  0  0  0  0  0
  -20.5090  -18.7926   21.7608 C   0  0  0  0  0  0  0  0  0  0  0  0
  -22.6585  -20.5604   21.7301 C   0  0  0  0  0  0  0  0  0  0  0  0
  -31.2790  -19.0317   20.4994 C   0  0  0  0  0  0  0  0  0  0  0  0
  -29.5822  -19.3034   22.1977 C   0  0  0  0  0  0  0  0  0  0  0  0
  -24.7363  -24.1433   24.6440 C   0  0  0  0  0  0  0  0  0  0  0  0
  -31.1100  -17.6482   20.5518 C   0  0  0  0  0  0  0  0  0  0  0  0
  -29.4131  -17.9199   22.2501 C   0  0  0  0  0  0  0  0  0  0  0  0
  -22.3002   -8.6520   20.2425 C   0  0  0  0  0  0  0  0  0  0  0  0
  -22.9729   -8.7691   22.5601 C   0  0  0  0  0  0  0  0  0  0  0  0
  -26.1206  -24.2950   24.5770 C   0  0  0  0  0  0  0  0  0  0  0  0
  -21.5136   -5.6817   23.8044 C   0  0  0  0  0  0  0  0  0  0  0  0
  -22.0985   -4.6936   24.5964 C   0  0  0  0  0  0  0  0  0  0  0  0
  -25.8364  -26.1813   23.1005 C   0  0  0  0  0  0  0  0  0  0  0  0
  -23.8653   -4.4350   22.9689 C   0  0  0  0  0  0  0  0  0  0  0  0
  -23.7683  -10.4207   20.9864 C   0  0  0  0  0  0  0  0  0  0  0  0
  -24.1180  -12.9374   20.7587 C   0  0  0  0  0  0  0  0  0  0  0  0
  -30.5152  -19.8594   21.3224 C   0  0  0  0  0  0  0  0  0  0  0  0
  -20.3325  -20.0811   21.2324 C   0  0  0  0  0  0  0  0  0  0  0  0
  -23.8906  -25.0042   23.9299 C   0  0  0  0  0  0  0  0  0  0  0  0
  -21.4215  -20.9733   21.2066 C   0  0  0  0  0  0  0  0  0  0  0  0
  -24.4416  -26.0401   23.1622 C   0  0  0  0  0  0  0  0  0  0  0  0
  -30.1770  -17.0922   21.4271 C   0  0  0  0  0  0  0  0  0  0  0  0
  -22.2593   -8.1405   21.5396 C   0  0  0  0  0  0  0  0  0  0  0  0
  -26.6710  -25.3123   23.8028 C   0  0  0  0  0  0  0  0  0  0  0  0
  -22.1045   -6.0464   22.5947 C   0  0  0  0  0  0  0  0  0  0  0  0
  -23.2744   -4.0703   24.1787 C   0  0  0  0  0  0  0  0  0  0  0  0
  -23.2804   -5.4231   22.1769 C   0  0  0  0  0  0  0  0  0  0  0  0
  -24.5482  -11.5982   20.7012 C   0  0  0  0  0  0  0  0  0  0  0  0
  -25.2241  -13.6690   20.4015 C   0  0  0  0  0  0  0  0  0  0  0  0
  -22.8333  -13.4722   21.1042 C   0  0  0  0  0  0  0  0  0  0  0  0
  -21.7542  -24.6315   21.6059 C   0  0  0  0  0  0  0  0  0  0  0  0
  -21.1874  -27.7781   22.1534 C   0  0  0  0  0  0  0  0  0  0  0  0
  -22.3385  -30.7673   23.3310 C   0  0  0  0  0  0  0  0  0  0  0  0
  -30.6813  -14.7239   20.7323 C   0  0  0  0  0  0  0  0  0  0  0  0
  -18.9929  -20.4473   20.6441 C   0  0  0  0  0  0  0  0  0  0  0  0
  -22.3986  -24.8440   24.0340 C   0  0  0  0  0  0  0  0  0  0  0  0
  -23.5766  -27.0035   22.3928 C   0  0  0  0  0  0  0  0  0  0  0  0
  -18.8065  -21.9488   20.4415 C   0  0  0  0  0  0  0  0  0  0  0  0
  -29.6537  -12.1990   18.4418 C   0  0  0  0  0  0  0  0  0  0  0  0
  -20.0401  -22.5553   19.7802 C   0  0  0  0  0  0  0  0  0  0  0  0
  -28.1984  -11.9278   18.8302 C   0  0  0  0  0  0  0  0  0  0  0  0
  -29.3862  -22.0221   20.8372 C   0  0  0  0  0  0  0  0  0  0  0  0
  -31.1588  -21.8735   22.6324 C   0  0  0  0  0  0  0  0  0  0  0  0
  -30.5231  -12.4854   19.6649 C   0  0  0  0  0  0  0  0  0  0  0  0
  -28.5664  -13.2745   20.9368 C   0  0  0  0  0  0  0  0  0  0  0  0
  -29.5142  -23.5400   20.8502 C   0  0  0  0  0  0  0  0  0  0  0  0
  -31.2734  -23.3925   22.6314 C   0  0  0  0  0  0  0  0  0  0  0  0
  -30.6964  -21.3420   21.2661 C   0  0  0  0  0  0  0  0  0  0  0  0
  -21.2821  -22.3783   20.6620 C   0  0  1  0  0  0  0  0  0  0  0  0
  -21.6481  -25.4580   22.8563 C   0  0  1  0  0  0  0  0  0  0  0  0
  -27.6385  -13.0446   19.7328 C   0  0  2  0  0  0  0  0  0  0  0  0
  -21.6610  -33.1674   23.6099 C   0  0  0  0  0  0  0  0  0  0  0  0
  -21.6400  -28.2497   19.1730 C   0  0  0  0  0  0  0  0  0  0  0  0
  -21.8951  -30.6904   19.6689 C   0  0  0  0  0  0  0  0  0  0  0  0
  -19.7362  -29.5395   20.1559 C   0  0  0  0  0  0  0  0  0  0  0  0
  -22.6103  -30.6229   26.2745 C   0  0  0  0  0  0  0  0  0  0  0  0
  -29.9706  -25.4961   22.3267 C   0  0  0  0  0  0  0  0  0  0  0  0
  -28.5557  -26.0020   22.5268 C   0  0  0  0  0  0  0  0  0  1  0  0
  -21.7461  -29.0741   21.6173 C   0  0  1  0  0  0  0  0  0  0  0  0
  -21.7125  -31.7929   24.2587 C   0  0  2  0  0  0  0  0  0  0  0  0
  -21.2710  -29.3692   20.1666 C   0  0  0  0  0  0  0  0  0  0  0  0
  -25.8278  -11.4829   20.3361 N   0  0  0  0  0  0  0  0  0  0  0  0
  -26.2111  -12.7590   20.1608 N   0  0  0  0  0  0  0  0  0  0  0  0
  -22.1239  -26.8018   22.5215 N   0  0  0  0  0  0  0  0  0  0  0  0
  -29.9329  -13.5569   20.4702 N   0  0  0  0  0  0  0  0  0  0  0  0
  -25.4391  -14.9955   20.2728 N   0  0  0  0  0  0  0  0  0  0  0  0
  -21.8081  -12.5798   21.4461 N   0  0  0  0  0  0  0  0  0  0  0  0
  -30.0049  -15.6868   21.4804 N   0  0  0  0  0  0  0  0  0  0  0  0
  -21.2768  -23.3419   21.7418 N   0  0  0  0  0  0  0  0  0  0  0  0
  -21.3866  -30.1049   22.5852 N   0  0  0  0  0  0  0  0  0  0  0  0
  -29.9515  -24.0151   22.2229 N   0  3  0  0  0  0  0  0  0  0  0  0
  -22.4984  -31.8980   25.5205 N   0  3  0  0  0  0  0  0  0  0  0  0
  -22.5968  -14.7040   21.0936 O   0  0  0  0  0  0  0  0  0  0  0  0
  -22.2324  -25.1276   20.5926 O   0  0  0  0  0  0  0  0  0  0  0  0
  -19.9654  -27.6400   22.2488 O   0  0  0  0  0  0  0  0  0  0  0  0
  -23.5511  -30.5757   23.2711 O   0  0  0  0  0  0  0  0  0  0  0  0
  -31.8275  -14.8704   20.3001 O   0  0  0  0  0  0  0  0  0  0  0  0
  -21.5231   -7.0281   21.8099 O   0  0  0  0  0  0  0  0  0  0  0  0
  -28.0218  -25.4621   23.7351 O   0  0  0  0  0  0  0  0  0  1  0  0
  -23.8368   -3.1226   24.9400 F   0  0  0  0  0  0  0  0  0  0  0  0
  -23.8533   -5.7701   21.0163 F   0  0  0  0  0  0  0  0  0  0  0  0
  1  2  1  0  0  0  0
  1  5  2  0  0  0  0
  2  6  2  0  0  0  0
  3 12  2  0  0  0  0
  3 19  1  0  0  0  0
  4 13  1  0  0  0  0
  4 19  2  0  0  0  0
  5 22  1  0  0  0  0
  6 24  1  0  0  0  0
  7 10  2  0  0  0  0
  7 21  1  0  0  0  0
  8 11  1  0  0  0  0
  8 21  2  0  0  0  0
  9 14  2  0  0  0  0
  9 23  1  0  0  0  0
 10 26  1  0  0  0  0
 11 26  2  0  0  0  0
 12 27  1  0  0  0  0
 13 27  2  0  0  0  0
 14 28  1  0  0  0  0
 15 16  2  0  0  0  0
 15 29  1  0  0  0  0
 16 30  1  0  0  0  0
 17 25  1  0  0  0  0
 17 28  2  0  0  0  0
 18 30  2  0  0  0  0
 18 31  1  0  0  0  0
 19 32  1  0  0  0  0
 20 32  1  0  0  0  0
 20 33  2  0  0  0  0
 20 34  1  0  0  0  0
 21 52  1  0  0  0  0
 22 24  2  0  0  0  0
 22 39  1  0  0  0  0
 23 25  2  0  0  0  0
 23 40  1  0  0  0  0
 24 53  1  0  0  0  0
 25 41  1  0  0  0  0
 26 72  1  0  0  0  0
 27 82  1  0  0  0  0
 28 83  1  0  0  0  0
 29 31  2  0  0  0  0
 29 82  1  0  0  0  0
 30 84  1  0  0  0  0
 31 85  1  0  0  0  0
 32 66  2  0  0  0  0
 33 67  1  0  0  0  0
 33 70  1  0  0  0  0
 34 71  1  0  0  0  0
 34 77  2  0  0  0  0
 35 54  1  0  0  0  0
 35 73  1  0  0  0  0
 35 78  2  0  0  0  0
 36 63  1  0  0  0  0
 36 68  1  0  0  0  0
 36 79  2  0  0  0  0
 37 64  1  0  0  0  0
 37 74  1  0  0  0  0
 37 80  2  0  0  0  0
 38 69  1  0  0  0  0
 38 72  1  0  0  0  0
 38 81  2  0  0  0  0
 39 42  1  0  0  0  0
 40 54  1  0  0  0  0
 41 68  1  0  0  0  0
 42 44  1  0  0  0  0
 43 45  1  0  0  0  0
 43 48  1  0  0  0  0
 44 53  1  0  0  0  0
 45 55  1  0  0  0  0
 46 50  1  0  0  0  0
 46 52  1  0  0  0  0
 47 51  1  0  0  0  0
 47 52  1  0  0  0  0
 48 69  1  0  0  0  0
 49 55  1  0  0  0  0
 49 69  1  0  0  0  0
 50 75  1  0  0  0  0
 51 75  1  0  0  0  0
 53 73  1  0  0  0  0
 54 68  1  0  0  0  0
 55 67  1  0  0  0  0
 56 64  1  0  0  0  0
 57 65  1  0  0  0  0
 58 65  1  0  0  0  0
 59 65  1  0  0  0  0
 60 76  1  0  0  0  0
 61 62  1  0  0  0  0
 61 75  1  0  0  0  0
 62 83  1  0  0  0  0
 63 65  1  0  0  0  0
 63 74  1  0  0  0  0
 64 76  1  0  0  0  0
 66 67  1  0  0  0  0
M  CHG  2  75   1  76   1
M  ISO  4  38 100  62 101  72 100  83 101
M  END
> <Batch ID>
0002

> <Smiles>
CNC(C)C(=O)NC(C(=O)N1Cc2cc([101O:1][101CH2:1]CN3CCC(c4ccc([100NH:0][100C:0](=O)N5CCCC(n6nc(-c7ccc(Oc8ccc(F)cc8F)cc7)c(C(N)=O)c6N)C5)cc4)CC3)ccc2CC1C(=O)NC1CCCc2ccccc21)C(C)(C)C

> <Shape>
0.255

> <Color>
0.208

> <Negative vol penalty>
0.000

$$$$

  -OEChem-04042320173D

 81 89  0     1  0  0  0  0  0999 V2000
  -28.5814  -33.2108   23.1140 C   0  0  0  0  0  0  0  0  0  0  0  0
  -28.5571  -31.9190   22.5982 C   0  0  0  0  0  0  0  0  0  0  0  0
  -24.4648  -10.0001   21.9503 C   0  0  0  0  0  0  0  0  0  0  0  0
  -24.6543  -11.3349   23.9552 C   0  0  0  0  0  0  0  0  0  0  0  0
  -27.5550  -33.6450   23.9519 C   0  0  0  0  0  0  0  0  0  0  0  0
  -27.5070  -31.0602   22.9210 C   0  0  0  0  0  0  0  0  0  0  0  0
  -25.7362  -28.5566   18.8910 C   0  0  0  0  0  0  0  0  0  0  0  0
  -29.5331  -20.0194   19.3879 C   0  0  0  0  0  0  0  0  0  0  0  0
  -24.0850   -8.8997   22.7188 C   0  0  0  0  0  0  0  0  0  0  0  0
  -24.2746  -10.2345   24.7237 C   0  0  0  0  0  0  0  0  0  0  0  0
  -26.4799  -27.4665   18.4413 C   0  0  0  0  0  0  0  0  0  0  0  0
  -29.5195  -21.3959   19.1629 C   0  0  0  0  0  0  0  0  0  0  0  0
  -21.2918   -7.7856   24.2646 C   0  0  0  0  0  0  0  0  0  0  0  0
  -20.2079   -7.0281   23.8209 C   0  0  0  0  0  0  0  0  0  0  0  0
  -24.9625  -25.9717   19.5737 C   0  0  0  0  0  0  0  0  0  0  0  0
  -27.9048  -21.6703   20.9391 C   0  0  0  0  0  0  0  0  0  0  0  0
  -21.6289   -5.0795   23.6768 C   0  0  0  0  0  0  0  0  0  0  0  0
  -24.7495  -11.2177   22.5685 C   0  0  0  0  0  0  0  0  0  0  0  0
  -24.2981  -13.3275   21.2075 C   0  0  0  0  0  0  0  0  0  0  0  0
  -26.4868  -32.7943   24.2773 C   0  0  0  0  0  0  0  0  0  0  0  0
  -24.6043  -28.3627   19.6958 C   0  0  0  0  0  0  0  0  0  0  0  0
  -26.4661  -31.4830   23.7651 C   0  0  0  0  0  0  0  0  0  0  0  0
  -24.2046  -27.0609   20.0301 C   0  0  0  0  0  0  0  0  0  0  0  0
  -27.9184  -20.2938   21.1640 C   0  0  0  0  0  0  0  0  0  0  0  0
  -28.7325  -19.4683   20.3885 C   0  0  0  0  0  0  0  0  0  0  0  0
  -23.9899   -9.0169   24.1055 C   0  0  0  0  0  0  0  0  0  0  0  0
  -26.0948  -26.1739   18.7850 C   0  0  0  0  0  0  0  0  0  0  0  0
  -28.7054  -22.2214   19.9385 C   0  0  0  0  0  0  0  0  0  0  0  0
  -22.5443   -7.1902   24.4143 C   0  0  0  0  0  0  0  0  0  0  0  0
  -20.3765   -5.6750   23.5270 C   0  0  0  0  0  0  0  0  0  0  0  0
  -22.7128   -5.8371   24.1204 C   0  0  0  0  0  0  0  0  0  0  0  0
  -25.1423  -12.3546   21.7752 C   0  0  0  0  0  0  0  0  0  0  0  0
  -25.1513  -14.1850   20.5569 C   0  0  0  0  0  0  0  0  0  0  0  0
  -22.8703  -13.4457   21.2633 C   0  0  0  0  0  0  0  0  0  0  0  0
  -23.7803  -29.2044   22.6481 C   0  0  0  0  0  0  0  0  0  0  0  0
  -20.9245  -27.9219   21.7987 C   0  0  0  0  0  0  0  0  0  0  0  0
  -19.1981  -25.7658   19.7942 C   0  0  0  0  0  0  0  0  0  0  0  0
  -29.8290  -17.2003   20.3823 C   0  0  0  0  0  0  0  0  0  0  0  0
  -25.4246  -33.2927   25.2249 C   0  0  0  0  0  0  0  0  0  0  0  0
  -23.7974  -29.5478   20.1506 C   0  0  0  0  0  0  0  0  0  0  0  0
  -22.9857  -26.7980   20.8749 C   0  0  0  0  0  0  0  0  0  0  0  0
  -24.1551  -32.4450   25.2171 C   0  0  0  0  0  0  0  0  0  0  0  0
  -30.0852  -13.7577   19.5102 C   0  0  0  0  0  0  0  0  0  0  0  0
  -24.5032  -30.9616   25.2885 C   0  0  0  0  0  0  0  0  0  0  0  0
  -28.7526  -13.1658   19.9751 C   0  0  0  0  0  0  0  0  0  0  0  0
  -30.5909  -14.8365   20.4664 C   0  0  0  0  0  0  0  0  0  0  0  0
  -28.2963  -15.3144   21.2250 C   0  0  0  0  0  0  0  0  0  0  0  0
  -25.3313  -30.5301   24.0722 C   0  0  1  0  0  0  0  0  0  0  0  0
  -22.9584  -29.2587   21.3915 C   0  0  1  0  0  0  0  0  0  0  0  0
  -27.7145  -14.2691   20.2593 C   0  0  2  0  0  0  0  0  0  0  0  0
  -27.0503  -19.7314   22.2425 C   0  0  0  0  0  0  0  0  0  0  0  0
  -16.8804  -24.9073   19.3599 C   0  0  0  0  0  0  0  0  0  0  0  0
  -21.1009  -26.1862   24.3018 C   0  0  0  0  0  0  0  0  0  0  0  0
  -19.3091  -24.7300   23.3338 C   0  0  0  0  0  0  0  0  0  0  0  0
  -18.8291  -27.1247   23.8412 C   0  0  0  0  0  0  0  0  0  0  0  0
  -19.2176  -26.7817   17.0146 C   0  0  0  0  0  0  0  0  0  0  0  0
  -28.2167  -25.3129   18.1430 C   0  0  0  0  0  0  0  0  0  1  0  0
  -28.9495  -24.0081   18.3880 C   0  0  0  0  0  0  0  0  0  0  0  0
  -20.3058  -26.5469   21.8721 C   0  0  1  0  0  0  0  0  0  0  0  0
  -17.9278  -25.9433   18.9824 C   0  0  2  0  0  0  0  0  0  0  0  0
  -19.9104  -26.1516   23.3229 C   0  0  0  0  0  0  0  0  0  0  0  0
  -26.4328  -12.5727   21.5086 N   0  0  0  0  0  0  0  0  0  0  0  0
  -26.4058  -13.6925   20.7661 N   0  0  0  0  0  0  0  0  0  0  0  0
  -22.2333  -27.9897   21.3004 N   0  0  0  0  0  0  0  0  0  0  0  0
  -29.5561  -15.8495   20.6852 N   0  0  0  0  0  0  0  0  0  0  0  0
  -24.9433  -15.3046   19.8320 N   0  0  0  0  0  0  0  0  0  0  0  0
  -22.1471  -12.4786   21.9746 N   0  0  0  0  0  0  0  0  0  0  0  0
  -28.7589  -18.0675   20.6001 N   0  0  0  0  0  0  0  0  0  0  0  0
  -24.4798  -30.3662   22.9135 N   0  0  0  0  0  0  0  0  0  0  0  0
  -19.1927  -26.5492   20.9290 N   0  0  0  0  0  0  0  0  0  0  0  0
  -18.2198  -25.8078   17.5273 N   0  3  0  0  0  0  0  0  0  0  0  0
  -22.2527  -14.3720   20.6852 O   0  0  0  0  0  0  0  0  0  0  0  0
  -23.7788  -28.1845   23.3275 O   0  0  0  0  0  0  0  0  0  0  0  0
  -20.2680  -28.9007   22.1630 O   0  0  0  0  0  0  0  0  0  0  0  0
  -20.1030  -25.0053   19.4576 O   0  0  0  0  0  0  0  0  0  0  0  0
  -30.9219  -17.5570   19.9351 O   0  0  0  0  0  0  0  0  0  0  0  0
  -23.6192   -7.9435   24.8557 O   0  0  0  0  0  0  0  0  0  0  0  0
  -26.8194  -25.1082   18.3480 O   0  0  0  0  0  0  0  0  0  1  0  0
  -28.6925  -23.5735   19.7179 O   0  0  0  0  0  0  0  0  0  0  0  0
  -19.3352   -4.9472   23.1024 F   0  0  0  0  0  0  0  0  0  0  0  0
  -23.9134   -5.2592   24.2635 F   0  0  0  0  0  0  0  0  0  0  0  0
  1  2  1  0  0  0  0
  1  5  2  0  0  0  0
  2  6  2  0  0  0  0
  3  9  2  0  0  0  0
  3 18  1  0  0  0  0
  4 10  1  0  0  0  0
  4 18  2  0  0  0  0
  5 20  1  0  0  0  0
  6 22  1  0  0  0  0
  7 11  2  0  0  0  0
  7 21  1  0  0  0  0
  8 12  2  0  0  0  0
  8 25  1  0  0  0  0
  9 26  1  0  0  0  0
 10 26  2  0  0  0  0
 11 27  1  0  0  0  0
 12 28  1  0  0  0  0
 13 14  2  0  0  0  0
 13 29  1  0  0  0  0
 14 30  1  0  0  0  0
 15 23  1  0  0  0  0
 15 27  2  0  0  0  0
 16 24  1  0  0  0  0
 16 28  2  0  0  0  0
 17 30  2  0  0  0  0
 17 31  1  0  0  0  0
 18 32  1  0  0  0  0
 19 32  1  0  0  0  0
 19 33  2  0  0  0  0
 19 34  1  0  0  0  0
 20 22  2  0  0  0  0
 20 39  1  0  0  0  0
 21 23  2  0  0  0  0
 21 40  1  0  0  0  0
 22 48  1  0  0  0  0
 23 41  1  0  0  0  0
 24 25  2  0  0  0  0
 24 51  1  0  0  0  0
 25 68  1  0  0  0  0
 26 77  1  0  0  0  0
 27 78  1  0  0  0  0
 28 79  1  0  0  0  0
 29 31  2  0  0  0  0
 29 77  1  0  0  0  0
 30 80  1  0  0  0  0
 31 81  1  0  0  0  0
 32 62  2  0  0  0  0
 33 63  1  0  0  0  0
 33 66  1  0  0  0  0
 34 67  1  0  0  0  0
 34 72  2  0  0  0  0
 35 49  1  0  0  0  0
 35 69  1  0  0  0  0
 35 73  2  0  0  0  0
 36 59  1  0  0  0  0
 36 64  1  0  0  0  0
 36 74  2  0  0  0  0
 37 60  1  0  0  0  0
 37 70  1  0  0  0  0
 37 75  2  0  0  0  0
 38 65  1  0  0  0  0
 38 68  1  0  0  0  0
 38 76  2  0  0  0  0
 39 42  1  0  0  0  0
 40 49  1  0  0  0  0
 41 64  1  0  0  0  0
 42 44  1  0  0  0  0
 43 45  1  0  0  0  0
 43 46  1  0  0  0  0
 44 48  1  0  0  0  0
 45 50  1  0  0  0  0
 46 65  1  0  0  0  0
 47 50  1  0  0  0  0
 47 65  1  0  0  0  0
 48 69  1  0  0  0  0
 49 64  1  0  0  0  0
 50 63  1  0  0  0  0
 52 60  1  0  0  0  0
 53 61  1  0  0  0  0
 54 61  1  0  0  0  0
 55 61  1  0  0  0  0
 56 71  1  0  0  0  0
 57 58  1  0  0  0  0
 57 78  1  0  0  0  0
 58 79  1  0  0  0  0
 59 61  1  0  0  0  0
 59 70  1  0  0  0  0
 60 71  1  0  0  0  0
 62 63  1  0  0  0  0
M  CHG  1  71   1
M  ISO  4  38 100  57 101  68 100  78 101
M  END
> <Batch ID>
0002

> <Smiles>
CNC(C)C(=O)NC(C(=O)N1Cc2cc([101O:1][101CH2:1]COc3ccc([100NH:0][100C:0](=O)N4CCCC(n5nc(-c6ccc(Oc7ccc(F)cc7F)cc6)c(C(N)=O)c5N)C4)c(C)c3)ccc2CC1C(=O)NC1CCCc2ccccc21)C(C)(C)C

> <Shape>
0.335

> <Color>
0.113

> <Negative vol penalty>
0.000

$$$$

  -OEChem-04042320173D

 80 88  0     1  0  0  0  0  0999 V2000
  -28.0468  -37.0483   21.1312 C   0  0  0  0  0  0  0  0  0  0  0  0
  -28.4614  -35.7305   20.9672 C   0  0  0  0  0  0  0  0  0  0  0  0
  -26.8777  -12.7324   21.8103 C   0  0  0  0  0  0  0  0  0  0  0  0
  -26.2289  -14.3607   20.1475 C   0  0  0  0  0  0  0  0  0  0  0  0
  -26.9271  -37.3336   21.9115 C   0  0  0  0  0  0  0  0  0  0  0  0
  -27.7571  -34.6973   21.5842 C   0  0  0  0  0  0  0  0  0  0  0  0
  -26.8378  -29.0506   19.3989 C   0  0  0  0  0  0  0  0  0  0  0  0
  -25.5582  -12.2872   21.8893 C   0  0  0  0  0  0  0  0  0  0  0  0
  -24.9093  -13.9154   20.2264 C   0  0  0  0  0  0  0  0  0  0  0  0
  -27.4752  -27.8349   19.6433 C   0  0  0  0  0  0  0  0  0  0  0  0
  -23.4883  -10.3002   20.1003 C   0  0  0  0  0  0  0  0  0  0  0  0
  -23.2681   -8.9229   20.1042 C   0  0  0  0  0  0  0  0  0  0  0  0
  -25.7846  -27.2830   21.2731 C   0  0  0  0  0  0  0  0  0  0  0  0
  -29.0899  -23.0657   19.5815 C   0  0  0  0  0  0  0  0  0  0  0  0
  -30.3909  -22.6609   22.0159 C   0  0  0  0  0  0  0  0  0  0  0  0
  -22.2060   -9.0990   22.2672 C   0  0  0  0  0  0  0  0  0  0  0  0
  -27.2130  -13.7692   20.9394 C   0  0  0  0  0  0  0  0  0  0  0  0
  -29.5840  -13.7540   19.9981 C   0  0  0  0  0  0  0  0  0  0  0  0
  -26.2031  -36.3025   22.5306 C   0  0  0  0  0  0  0  0  0  0  0  0
  -25.6731  -29.3969   20.0989 C   0  0  0  0  0  0  0  0  0  0  0  0
  -26.6275  -34.9691   22.3746 C   0  0  0  0  0  0  0  0  0  0  0  0
  -25.1329  -28.5025   21.0340 C   0  0  0  0  0  0  0  0  0  0  0  0
  -29.2702  -24.1326   20.4617 C   0  0  0  0  0  0  0  0  0  0  0  0
  -29.5600  -21.7964   19.9185 C   0  0  0  0  0  0  0  0  0  0  0  0
  -29.9208  -23.9302   21.6789 C   0  0  0  0  0  0  0  0  0  0  0  0
  -30.2105  -21.5940   21.1356 C   0  0  0  0  0  0  0  0  0  0  0  0
  -24.5740  -12.8787   21.0973 C   0  0  0  0  0  0  0  0  0  0  0  0
  -26.9502  -26.9522   20.5825 C   0  0  0  0  0  0  0  0  0  0  0  0
  -23.0676  -11.0770   21.1798 C   0  0  0  0  0  0  0  0  0  0  0  0
  -22.6269   -8.3223   21.1877 C   0  0  0  0  0  0  0  0  0  0  0  0
  -22.4264  -10.4764   22.2632 C   0  0  0  0  0  0  0  0  0  0  0  0
  -28.5758  -14.2299   20.8578 C   0  0  0  0  0  0  0  0  0  0  0  0
  -30.6863  -14.5121   20.3091 C   0  0  0  0  0  0  0  0  0  0  0  0
  -29.5289  -12.7194   19.0071 C   0  0  0  0  0  0  0  0  0  0  0  0
  -24.8705  -31.7300   22.1030 C   0  0  0  0  0  0  0  0  0  0  0  0
  -21.9183  -30.4120   21.8392 C   0  0  0  0  0  0  0  0  0  0  0  0
  -20.0263  -27.6600   21.1367 C   0  0  0  0  0  0  0  0  0  0  0  0
  -31.3605  -19.9598   22.6697 C   0  0  0  0  0  0  0  0  0  0  0  0
  -25.0271  -36.6638   23.4031 C   0  0  0  0  0  0  0  0  0  0  0  0
  -24.9826  -30.7003   19.8045 C   0  0  0  0  0  0  0  0  0  0  0  0
  -23.8735  -28.8181   21.7975 C   0  0  0  0  0  0  0  0  0  0  0  0
  -24.1153  -35.4805   23.7170 C   0  0  0  0  0  0  0  0  0  0  0  0
  -32.6788  -16.9083   23.9454 C   0  0  0  0  0  0  0  0  0  0  0  0
  -24.9398  -34.2678   24.1369 C   0  0  0  0  0  0  0  0  0  0  0  0
  -31.8721  -15.8317   23.2156 C   0  0  0  0  0  0  0  0  0  0  0  0
  -31.8222  -18.1273   24.2833 C   0  0  0  0  0  0  0  0  0  0  0  0
  -30.2908  -17.6344   22.4175 C   0  0  0  0  0  0  0  0  0  0  0  0
  -25.8751  -33.8188   23.0077 C   0  0  1  0  0  0  0  0  0  0  0  0
  -24.0888  -31.1743   20.9464 C   0  0  1  0  0  0  0  0  0  0  0  0
  -31.1269  -16.4140   21.9986 C   0  0  2  0  0  0  0  0  0  0  0  0
  -29.3530  -20.6719   18.9564 C   0  0  0  0  0  0  0  0  0  0  0  0
  -30.1251  -25.0573   22.6372 C   0  0  0  0  0  0  0  0  0  0  0  0
  -17.6432  -26.8793   21.0438 C   0  0  0  0  0  0  0  0  0  0  0  0
  -21.8544  -30.2523   24.8856 C   0  0  0  0  0  0  0  0  0  0  0  0
  -19.9450  -28.6445   24.6917 C   0  0  0  0  0  0  0  0  0  0  0  0
  -19.7035  -30.9742   23.8335 C   0  0  0  0  0  0  0  0  0  0  0  0
  -20.2170  -27.0501   18.2470 C   0  0  0  0  0  0  0  0  0  0  0  0
  -28.7557  -25.4888   20.0779 C   0  0  0  0  0  0  0  0  0  1  0  0
  -21.1590  -29.3343   22.5748 C   0  0  1  0  0  0  0  0  0  0  0  0
  -18.8008  -27.4773   20.2596 C   0  0  2  0  0  0  0  0  0  0  0  0
  -20.6903  -29.7959   23.9836 C   0  0  0  0  0  0  0  0  0  0  0  0
  -29.0001  -15.2139   21.6551 N   0  0  0  0  0  0  0  0  0  0  0  0
  -30.2871  -15.3625   21.2978 N   0  0  0  0  0  0  0  0  0  0  0  0
  -23.2386  -30.1076   21.4788 N   0  0  0  0  0  0  0  0  0  0  0  0
  -31.1502  -18.6269   23.0817 N   0  0  0  0  0  0  0  0  0  0  0  0
  -31.9486  -14.5274   19.8305 N   0  0  0  0  0  0  0  0  0  0  0  0
  -28.3176  -12.0407   18.8163 N   0  0  0  0  0  0  0  0  0  0  0  0
  -30.6953  -20.3122   21.4958 N   0  0  0  0  0  0  0  0  0  0  0  0
  -25.1378  -33.0820   22.0036 N   0  0  0  0  0  0  0  0  0  0  0  0
  -20.0749  -28.9222   21.6897 N   0  0  0  0  0  0  0  0  0  0  0  0
  -19.1118  -26.5723   19.1172 N   0  3  0  0  0  0  0  0  0  0  0  0
  -30.5289  -12.3948   18.3228 O   0  0  0  0  0  0  0  0  0  0  0  0
  -25.2051  -30.9873   23.0186 O   0  0  0  0  0  0  0  0  0  0  0  0
  -21.3582  -31.4818   21.5873 O   0  0  0  0  0  0  0  0  0  0  0  0
  -20.8553  -26.7707   21.3166 O   0  0  0  0  0  0  0  0  0  0  0  0
  -32.0995  -20.7238   23.2961 O   0  0  0  0  0  0  0  0  0  0  0  0
  -23.2863  -12.4444   21.1740 O   0  0  0  0  0  0  0  0  0  0  0  0
  -27.5708  -25.7653   20.8234 O   0  0  0  0  0  0  0  0  0  1  0  0
  -22.4140   -6.9999   21.1907 F   0  0  0  0  0  0  0  0  0  0  0  0
  -22.0188  -11.2176   23.3026 F   0  0  0  0  0  0  0  0  0  0  0  0
  1  2  1  0  0  0  0
  1  5  2  0  0  0  0
  2  6  2  0  0  0  0
  3  8  2  0  0  0  0
  3 17  1  0  0  0  0
  4  9  1  0  0  0  0
  4 17  2  0  0  0  0
  5 19  1  0  0  0  0
  6 21  1  0  0  0  0
  7 10  2  0  0  0  0
  7 20  1  0  0  0  0
  8 27  1  0  0  0  0
  9 27  2  0  0  0  0
 10 28  1  0  0  0  0
 11 12  2  0  0  0  0
 11 29  1  0  0  0  0
 12 30  1  0  0  0  0
 13 22  1  0  0  0  0
 13 28  2  0  0  0  0
 14 23  1  0  0  0  0
 14 24  2  0  0  0  0
 15 25  1  0  0  0  0
 15 26  2  0  0  0  0
 16 30  2  0  0  0  0
 16 31  1  0  0  0  0
 17 32  1  0  0  0  0
 18 32  1  0  0  0  0
 18 33  2  0  0  0  0
 18 34  1  0  0  0  0
 19 21  2  0  0  0  0
 19 39  1  0  0  0  0
 20 22  2  0  0  0  0
 20 40  1  0  0  0  0
 21 48  1  0  0  0  0
 22 41  1  0  0  0  0
 23 25  2  0  0  0  0
 23 58  1  0  0  0  0
 24 26  1  0  0  0  0
 24 51  1  0  0  0  0
 25 52  1  0  0  0  0
 26 68  1  0  0  0  0
 27 77  1  0  0  0  0
 28 78  1  0  0  0  0
 29 31  2  0  0  0  0
 29 77  1  0  0  0  0
 30 79  1  0  0  0  0
 31 80  1  0  0  0  0
 32 62  2  0  0  0  0
 33 63  1  0  0  0  0
 33 66  1  0  0  0  0
 34 67  1  0  0  0  0
 34 72  2  0  0  0  0
 35 49  1  0  0  0  0
 35 69  1  0  0  0  0
 35 73  2  0  0  0  0
 36 59  1  0  0  0  0
 36 64  1  0  0  0  0
 36 74  2  0  0  0  0
 37 60  1  0  0  0  0
 37 70  1  0  0  0  0
 37 75  2  0  0  0  0
 38 65  1  0  0  0  0
 38 68  1  0  0  0  0
 38 76  2  0  0  0  0
 39 42  1  0  0  0  0
 40 49  1  0  0  0  0
 41 64  1  0  0  0  0
 42 44  1  0  0  0  0
 43 45  1  0  0  0  0
 43 46  1  0  0  0  0
 44 48  1  0  0  0  0
 45 50  1  0  0  0  0
 46 65  1  0  0  0  0
 47 50  1  0  0  0  0
 47 65  1  0  0  0  0
 48 69  1  0  0  0  0
 49 64  1  0  0  0  0
 50 63  1  0  0  0  0
 53 60  1  0  0  0  0
 54 61  1  0  0  0  0
 55 61  1  0  0  0  0
 56 61  1  0  0  0  0
 57 71  1  0  0  0  0
 58 78  1  0  0  0  0
 59 61  1  0  0  0  0
 59 70  1  0  0  0  0
 60 71  1  0  0  0  0
 62 63  1  0  0  0  0
M  CHG  1  71   1
M  ISO  4  38 100  58 101  68 100  78 101
M  END
> <Batch ID>
0002

> <Smiles>
CNC(C)C(=O)NC(C(=O)N1Cc2cc([101O:1][101CH2:1]c3cc(C)c([100NH:0][100C:0](=O)N4CCCC(n5nc(-c6ccc(Oc7ccc(F)cc7F)cc6)c(C(N)=O)c5N)C4)cc3C)ccc2CC1C(=O)NC1CCCc2ccccc21)C(C)(C)C

> <Shape>
0.343

> <Color>
0.078

> <Negative vol penalty>
0.000

$$$$

  -OEChem-04042320173D

 80 88  0     1  0  0  0  0  0999 V2000
  -17.9506  -22.6565   27.1815 C   0  0  0  0  0  0  0  0  0  0  0  0
  -19.2802  -22.4148   26.8513 C   0  0  0  0  0  0  0  0  0  0  0  0
  -31.3556  -19.3434   19.1129 C   0  0  0  0  0  0  0  0  0  0  0  0
  -22.9963   -9.9022   19.9809 C   0  0  0  0  0  0  0  0  0  0  0  0
  -23.7280   -9.9460   22.2831 C   0  0  0  0  0  0  0  0  0  0  0  0
  -30.1315  -20.0121   19.1131 C   0  0  0  0  0  0  0  0  0  0  0  0
  -16.9301  -22.0744   26.4307 C   0  0  0  0  0  0  0  0  0  0  0  0
  -19.5901  -21.5898   25.7706 C   0  0  0  0  0  0  0  0  0  0  0  0
  -24.3222  -22.1786   21.9278 C   0  0  0  0  0  0  0  0  0  0  0  0
  -31.5840  -18.3064   20.0174 C   0  0  0  0  0  0  0  0  0  0  0  0
  -22.2288   -8.7682   20.2464 C   0  0  0  0  0  0  0  0  0  0  0  0
  -22.9603   -8.8120   22.5486 C   0  0  0  0  0  0  0  0  0  0  0  0
  -25.5691  -21.5573   21.8733 C   0  0  0  0  0  0  0  0  0  0  0  0
  -23.1981   -5.4740   22.0673 C   0  0  0  0  0  0  0  0  0  0  0  0
  -23.7862   -4.4539   22.8151 C   0  0  0  0  0  0  0  0  0  0  0  0
  -29.3642  -18.6069   20.9225 C   0  0  0  0  0  0  0  0  0  0  0  0
  -24.7026  -19.9722   20.2746 C   0  0  0  0  0  0  0  0  0  0  0  0
  -22.0673   -4.6951   24.4957 C   0  0  0  0  0  0  0  0  0  0  0  0
  -23.7460  -10.4911   20.9992 C   0  0  0  0  0  0  0  0  0  0  0  0
  -29.1358  -19.6439   20.0179 C   0  0  0  0  0  0  0  0  0  0  0  0
  -24.1348  -13.0065   20.8287 C   0  0  0  0  0  0  0  0  0  0  0  0
  -17.2276  -21.2497   25.3344 C   0  0  0  0  0  0  0  0  0  0  0  0
  -23.2514  -21.6938   21.1632 C   0  0  0  0  0  0  0  0  0  0  0  0
  -18.5727  -20.9951   25.0053 C   0  0  0  0  0  0  0  0  0  0  0  0
  -23.4438  -20.5906   20.3194 C   0  0  0  0  0  0  0  0  0  0  0  0
  -30.5883  -17.9382   20.9222 C   0  0  0  0  0  0  0  0  0  0  0  0
  -22.2107   -8.2231   21.5302 C   0  0  0  0  0  0  0  0  0  0  0  0
  -25.7587  -20.4522   21.0488 C   0  0  0  0  0  0  0  0  0  0  0  0
  -22.0447   -6.1047   22.5337 C   0  0  0  0  0  0  0  0  0  0  0  0
  -23.2207   -4.0645   24.0293 C   0  0  0  0  0  0  0  0  0  0  0  0
  -21.4793   -5.7153   23.7479 C   0  0  0  0  0  0  0  0  0  0  0  0
  -24.5395  -11.6622   20.7255 C   0  0  0  0  0  0  0  0  0  0  0  0
  -25.2446  -13.7283   20.4631 C   0  0  0  0  0  0  0  0  0  0  0  0
  -22.8687  -13.5539   21.2202 C   0  0  0  0  0  0  0  0  0  0  0  0
  -27.8320  -20.3559   20.0174 C   0  0  0  0  0  0  0  0  0  1  0  0
  -20.3868  -20.4865   21.8267 C   0  0  0  0  0  0  0  0  0  0  0  0
  -20.0248  -20.5970   18.6050 C   0  0  0  0  0  0  0  0  0  0  0  0
  -21.4931  -20.6471   15.5246 C   0  0  0  0  0  0  0  0  0  0  0  0
  -30.7431  -14.6537   20.6990 C   0  0  0  0  0  0  0  0  0  0  0  0
  -16.0909  -20.6048   24.5816 C   0  0  0  0  0  0  0  0  0  0  0  0
  -21.9198  -22.3916   21.2131 C   0  0  0  0  0  0  0  0  0  0  0  0
  -22.3320  -20.0437   19.4631 C   0  0  0  0  0  0  0  0  0  0  0  0
  -16.5011  -20.0441   23.2223 C   0  0  0  0  0  0  0  0  0  0  0  0
  -29.5922  -12.2380   18.3503 C   0  0  0  0  0  0  0  0  0  0  0  0
  -17.7925  -19.2413   23.3436 C   0  0  0  0  0  0  0  0  0  0  0  0
  -28.1445  -11.9794   18.7712 C   0  0  0  0  0  0  0  0  0  0  0  0
  -30.4983  -12.4688   19.5577 C   0  0  0  0  0  0  0  0  0  0  0  0
  -28.5931  -13.2638   20.9038 C   0  0  0  0  0  0  0  0  0  0  0  0
  -18.9489  -20.1259   23.8250 C   0  0  1  0  0  0  0  0  0  0  0  0
  -20.7608  -21.4987   20.7810 C   0  0  1  0  0  0  0  0  0  0  0  0
  -27.6305  -13.0807   19.7179 C   0  0  2  0  0  0  0  0  0  0  0  0
  -20.9372  -20.7003   13.0781 C   0  0  0  0  0  0  0  0  0  0  0  0
  -19.2767  -17.6409   18.7131 C   0  0  0  0  0  0  0  0  0  0  0  0
  -19.6638  -17.5242   16.2424 C   0  0  0  0  0  0  0  0  0  0  0  0
  -17.8828  -19.0135   17.1550 C   0  0  0  0  0  0  0  0  0  0  0  0
  -22.8889  -23.2290   15.1451 C   0  0  0  0  0  0  0  0  0  0  0  0
  -30.8325  -16.8294   21.8896 C   0  0  0  0  0  0  0  0  0  0  0  0
  -20.3099  -19.6505   17.4641 C   0  0  1  0  0  0  0  0  0  0  0  0
  -21.2595  -21.5294   14.3116 C   0  0  2  0  0  0  0  0  0  0  0  0
  -19.3039  -18.4661   17.4111 C   0  0  0  0  0  0  0  0  0  0  0  0
  -25.8075  -11.5347   20.3255 N   0  0  0  0  0  0  0  0  0  0  0  0
  -26.2091  -12.8083   20.1741 N   0  0  0  0  0  0  0  0  0  0  0  0
  -21.0469  -20.7566   19.5515 N   0  0  0  0  0  0  0  0  0  0  0  0
  -29.9555  -13.5261   20.4140 N   0  0  0  0  0  0  0  0  0  0  0  0
  -25.4799  -15.0539   20.3639 N   0  0  0  0  0  0  0  0  0  0  0  0
  -21.8365  -12.6705   21.5642 N   0  0  0  0  0  0  0  0  0  0  0  0
  -19.4506  -20.9380   22.7372 N   0  0  0  0  0  0  0  0  0  0  0  0
  -20.3374  -20.4657   16.2545 N   0  0  0  0  0  0  0  0  0  0  0  0
  -30.1505  -15.6113   21.5129 N   0  0  0  0  0  0  0  0  0  0  0  0
  -22.4718  -22.3472   14.0247 N   0  3  0  0  0  0  0  0  0  0  0  0
  -22.6540  -14.7895   21.2477 O   0  0  0  0  0  0  0  0  0  0  0  0
  -27.5699  -21.2710   19.2512 O   0  0  0  0  0  0  0  0  0  0  0  0
  -20.9078  -19.3776   21.8078 O   0  0  0  0  0  0  0  0  0  0  0  0
  -18.9382  -21.1791   18.6507 O   0  0  0  0  0  0  0  0  0  0  0  0
  -22.5902  -20.1638   15.7954 O   0  0  0  0  0  0  0  0  0  0  0  0
  -31.8876  -14.7990   20.2561 O   0  0  0  0  0  0  0  0  0  0  0  0
  -21.4617   -7.1167   21.7897 O   0  0  0  0  0  0  0  0  0  0  0  0
  -26.9746  -19.8435   20.9941 O   0  0  0  0  0  0  0  0  0  1  0  0
  -23.7846   -3.0838   24.7466 F   0  0  0  0  0  0  0  0  0  0  0  0
  -20.3706   -6.3167   24.2005 F   0  0  0  0  0  0  0  0  0  0  0  0
  1  2  1  0  0  0  0
  1  7  2  0  0  0  0
  2  8  2  0  0  0  0
  3  6  2  0  0  0  0
  3 10  1  0  0  0  0
  4 11  2  0  0  0  0
  4 19  1  0  0  0  0
  5 12  1  0  0  0  0
  5 19  2  0  0  0  0
  6 20  1  0  0  0  0
  7 22  1  0  0  0  0
  8 24  1  0  0  0  0
  9 13  2  0  0  0  0
  9 23  1  0  0  0  0
 10 26  2  0  0  0  0
 11 27  1  0  0  0  0
 12 27  2  0  0  0  0
 13 28  1  0  0  0  0
 14 15  2  0  0  0  0
 14 29  1  0  0  0  0
 15 30  1  0  0  0  0
 16 20  2  0  0  0  0
 16 26  1  0  0  0  0
 17 25  1  0  0  0  0
 17 28  2  0  0  0  0
 18 30  2  0  0  0  0
 18 31  1  0  0  0  0
 19 32  1  0  0  0  0
 20 35  1  0  0  0  0
 21 32  1  0  0  0  0
 21 33  2  0  0  0  0
 21 34  1  0  0  0  0
 22 24  2  0  0  0  0
 22 40  1  0  0  0  0
 23 25  2  0  0  0  0
 23 41  1  0  0  0  0
 24 49  1  0  0  0  0
 25 42  1  0  0  0  0
 26 57  1  0  0  0  0
 27 77  1  0  0  0  0
 28 78  1  0  0  0  0
 29 31  2  0  0  0  0
 29 77  1  0  0  0  0
 30 79  1  0  0  0  0
 31 80  1  0  0  0  0
 32 61  2  0  0  0  0
 33 62  1  0  0  0  0
 33 65  1  0  0  0  0
 34 66  1  0  0  0  0
 34 71  2  0  0  0  0
 35 72  2  0  0  0  0
 35 78  1  0  0  0  0
 36 50  1  0  0  0  0
 36 67  1  0  0  0  0
 36 73  2  0  0  0  0
 37 58  1  0  0  0  0
 37 63  1  0  0  0  0
 37 74  2  0  0  0  0
 38 59  1  0  0  0  0
 38 68  1  0  0  0  0
 38 75  2  0  0  0  0
 39 64  1  0  0  0  0
 39 69  1  0  0  0  0
 39 76  2  0  0  0  0
 40 43  1  0  0  0  0
 41 50  1  0  0  0  0
 42 63  1  0  0  0  0
 43 45  1  0  0  0  0
 44 46  1  0  0  0  0
 44 47  1  0  0  0  0
 45 49  1  0  0  0  0
 46 51  1  0  0  0  0
 47 64  1  0  0  0  0
 48 51  1  0  0  0  0
 48 64  1  0  0  0  0
 49 67  1  0  0  0  0
 50 63  1  0  0  0  0
 51 62  1  0  0  0  0
 52 59  1  0  0  0  0
 53 60  1  0  0  0  0
 54 60  1  0  0  0  0
 55 60  1  0  0  0  0
 56 70  1  0  0  0  0
 57 69  1  0  0  0  0
 58 60  1  0  0  0  0
 58 68  1  0  0  0  0
 59 70  1  0  0  0  0
 61 62  1  0  0  0  0
M  CHG  1  70   1
M  ISO  4  35 101  39 100  69 100  78 101
M  END
> <Batch ID>
0002

> <Smiles>
CNC(C)C(=O)NC(C(=O)N1Cc2cc([101O:1][101C:1](=O)c3cccc(C[100NH:0][100C:0](=O)N4CCCC(n5nc(-c6ccc(Oc7ccc(F)cc7F)cc6)c(C(N)=O)c5N)C4)c3)ccc2CC1C(=O)NC1CCCc2ccccc21)C(C)(C)C

> <Shape>
0.206

> <Color>
0.207

> <Negative vol penalty>
0.000

$$$$

  -OEChem-04042320173D

 84 93  0     1  0  0  0  0  0999 V2000
  -45.1243  -12.7659   29.5450 C   0  0  0  0  0  0  0  0  0  0  0  0
  -43.9714  -12.7329   28.7671 C   0  0  0  0  0  0  0  0  0  0  0  0
  -31.5557  -13.0925   26.3640 C   0  0  0  0  0  0  0  0  0  0  0  0
  -23.1415  -10.1869   22.1024 C   0  0  0  0  0  0  0  0  0  0  0  0
  -23.7828   -9.4715   19.8856 C   0  0  0  0  0  0  0  0  0  0  0  0
  -46.0657  -13.7759   29.3515 C   0  0  0  0  0  0  0  0  0  0  0  0
  -43.7587  -13.7107   27.7959 C   0  0  0  0  0  0  0  0  0  0  0  0
  -42.1272  -11.7718   23.4115 C   0  0  0  0  0  0  0  0  0  0  0  0
  -32.9051  -13.4302   26.2605 C   0  0  0  0  0  0  0  0  0  0  0  0
  -30.8018  -12.8711   25.2115 C   0  0  0  0  0  0  0  0  0  0  0  0
  -22.4017   -9.0158   22.2663 C   0  0  0  0  0  0  0  0  0  0  0  0
  -23.0431   -8.3004   20.0496 C   0  0  0  0  0  0  0  0  0  0  0  0
  -40.7820  -11.4136   23.3350 C   0  0  0  0  0  0  0  0  0  0  0  0
  -23.0049   -5.7707   22.9998 C   0  0  0  0  0  0  0  0  0  0  0  0
  -23.1341   -5.0862   24.2083 C   0  0  0  0  0  0  0  0  0  0  0  0
  -40.3053  -13.4745   22.1754 C   0  0  0  0  0  0  0  0  0  0  0  0
  -32.7466  -13.3254   23.8520 C   0  0  0  0  0  0  0  0  0  0  0  0
  -20.7690   -5.3619   24.6172 C   0  0  0  0  0  0  0  0  0  0  0  0
  -23.8320  -10.4148   20.9120 C   0  0  0  0  0  0  0  0  0  0  0  0
  -24.1150  -12.9470   20.7868 C   0  0  0  0  0  0  0  0  0  0  0  0
  -45.8691  -14.7610   28.3709 C   0  0  0  0  0  0  0  0  0  0  0  0
  -42.5705  -12.9911   22.8792 C   0  0  0  0  0  0  0  0  0  0  0  0
  -44.6978  -14.7357   27.5901 C   0  0  0  0  0  0  0  0  0  0  0  0
  -41.6571  -13.8447   22.2441 C   0  0  0  0  0  0  0  0  0  0  0  0
  -33.5005  -13.5468   25.0046 C   0  0  0  0  0  0  0  0  0  0  0  0
  -31.3972  -12.9876   23.9555 C   0  0  0  0  0  0  0  0  0  0  0  0
  -22.3526   -8.0725   21.2400 C   0  0  0  0  0  0  0  0  0  0  0  0
  -39.8703  -12.2663   22.7195 C   0  0  0  0  0  0  0  0  0  0  0  0
  -21.7578   -6.2509   22.6001 C   0  0  0  0  0  0  0  0  0  0  0  0
  -22.0162   -4.8817   25.0170 C   0  0  0  0  0  0  0  0  0  0  0  0
  -20.6398   -6.0464   23.4088 C   0  0  0  0  0  0  0  0  0  0  0  0
  -24.5958  -11.6247   20.7418 C   0  0  0  0  0  0  0  0  0  0  0  0
  -25.2264  -13.7240   20.5687 C   0  0  0  0  0  0  0  0  0  0  0  0
  -22.7829  -13.4298   21.0063 C   0  0  0  0  0  0  0  0  0  0  0  0
  -43.9321  -15.6001   24.0802 C   0  0  0  0  0  0  0  0  0  0  0  0
  -44.1371  -16.4572   20.9584 C   0  0  0  0  0  0  0  0  0  0  0  0
  -42.9432  -16.1254   17.7785 C   0  0  0  0  0  0  0  0  0  0  0  0
  -31.0675  -12.8365   21.4626 C   0  0  0  0  0  0  0  0  0  0  0  0
  -46.8924  -15.8601   28.2307 C   0  0  0  0  0  0  0  0  0  0  0  0
  -44.0295  -13.3506   22.9461 C   0  0  0  0  0  0  0  0  0  0  0  0
  -42.0857  -15.1556   21.6390 C   0  0  0  0  0  0  0  0  0  0  0  0
  -46.7704  -16.6430   26.9259 C   0  0  0  0  0  0  0  0  0  0  0  0
  -29.4834  -13.6394   18.3766 C   0  0  0  0  0  0  0  0  0  0  0  0
  -45.3153  -17.0165   26.6614 C   0  0  0  0  0  0  0  0  0  0  0  0
  -28.0056  -13.3400   18.6390 C   0  0  0  0  0  0  0  0  0  0  0  0
  -38.2149  -11.7993   25.0395 C   0  0  0  0  0  0  0  0  0  0  0  0
  -37.3111  -13.0257   25.1708 C   0  0  0  0  0  0  0  0  0  0  0  0
  -30.3983  -12.6369   19.0777 C   0  0  0  0  0  0  0  0  0  0  0  0
  -28.6774  -12.1759   20.7792 C   0  0  0  0  0  0  0  0  0  0  0  0
  -36.5800  -10.7906   23.3921 C   0  0  0  0  0  0  0  0  0  0  0  0
  -44.4432  -15.7643   26.5097 C   0  0  1  0  0  0  0  0  0  0  0  0
  -44.2813  -14.8504   22.8257 C   0  0  1  0  0  0  0  0  0  0  0  0
  -27.7185  -13.1976   20.1466 C   0  0  2  0  0  0  0  0  0  0  0  0
  -38.0404  -11.0999   23.6912 C   0  0  1  0  0  0  0  0  0  1  0  0
  -35.8499  -12.6790   24.8885 C   0  0  1  0  0  0  0  0  0  0  0  0
  -43.2880  -16.9830   15.4454 C   0  0  0  0  0  0  0  0  0  0  0  0
  -42.7338  -19.0601   21.7103 C   0  0  0  0  0  0  0  0  0  0  0  0
  -42.2614  -19.4265   19.2791 C   0  0  0  0  0  0  0  0  0  0  0  0
  -44.6189  -19.3222   20.0879 C   0  0  0  0  0  0  0  0  0  0  0  0
  -43.6031  -13.4263   16.7596 C   0  0  0  0  0  0  0  0  0  0  0  0
  -34.9574  -13.9114   24.8934 C   0  0  0  0  0  0  0  0  0  0  0  0
  -43.2460  -17.2013   19.9933 C   0  0  1  0  0  0  0  0  0  0  0  0
  -43.6520  -15.9049   16.4543 C   0  0  2  0  0  0  0  0  0  0  0  0
  -43.2063  -18.7288   20.2807 C   0  0  0  0  0  0  0  0  0  0  0  0
  -25.9102  -11.5614   20.5129 N   0  0  0  0  0  0  0  0  0  0  0  0
  -26.2648  -12.8538   20.4120 N   0  0  0  0  0  0  0  0  0  0  0  0
  -43.5217  -15.4654   21.7353 N   0  0  0  0  0  0  0  0  0  0  0  0
  -30.0711  -12.5583   20.5031 N   0  0  0  0  0  0  0  0  0  0  0  0
  -25.4069  -15.0600   20.4974 N   0  0  0  0  0  0  0  0  0  0  0  0
  -21.7593  -12.4952   21.2138 N   0  0  0  0  0  0  0  0  0  0  0  0
  -30.6313  -12.7620   22.7850 N   0  0  0  0  0  0  0  0  0  0  0  0
  -44.6244  -15.1779   25.1991 N   0  0  0  0  0  0  0  0  0  0  0  0
  -43.7157  -16.8570   18.6556 N   0  0  0  0  0  0  0  0  0  0  0  0
  -35.7634  -12.0370   23.5351 N   0  3  0  0  0  0  0  0  0  0  0  0
  -43.2795  -14.5803   15.8818 N   0  3  0  0  0  0  0  0  0  0  0  0
  -22.5057  -14.6531   21.0017 O   0  0  0  0  0  0  0  0  0  0  0  0
  -43.0975  -16.4963   24.0359 O   0  0  0  0  0  0  0  0  0  0  0  0
  -45.3363  -16.7404   21.0155 O   0  0  0  0  0  0  0  0  0  0  0  0
  -41.8155  -15.6953   18.0101 O   0  0  0  0  0  0  0  0  0  0  0  0
  -32.2157  -13.1464   21.1346 O   0  0  0  0  0  0  0  0  0  0  0  0
  -21.6310   -6.9296   21.3997 O   0  0  0  0  0  0  0  0  0  0  0  0
  -38.5566  -11.9194   22.6441 O   0  0  0  0  0  0  0  0  0  1  0  0
  -22.1401   -4.2230   26.1767 F   0  0  0  0  0  0  0  0  0  0  0  0
  -19.4389   -6.5043   23.0295 F   0  0  0  0  0  0  0  0  0  0  0  0
  1  2  1  0  0  0  0
  1  6  2  0  0  0  0
  2  7  2  0  0  0  0
  3  9  2  0  0  0  0
  3 10  1  0  0  0  0
  4 11  2  0  0  0  0
  4 19  1  0  0  0  0
  5 12  1  0  0  0  0
  5 19  2  0  0  0  0
  6 21  1  0  0  0  0
  7 23  1  0  0  0  0
  8 13  2  0  0  0  0
  8 22  1  0  0  0  0
  9 25  1  0  0  0  0
 10 26  2  0  0  0  0
 11 27  1  0  0  0  0
 12 27  2  0  0  0  0
 13 28  1  0  0  0  0
 14 15  2  0  0  0  0
 14 29  1  0  0  0  0
 15 30  1  0  0  0  0
 16 24  1  0  0  0  0
 16 28  2  0  0  0  0
 17 25  2  0  0  0  0
 17 26  1  0  0  0  0
 18 30  2  0  0  0  0
 18 31  1  0  0  0  0
 19 32  1  0  0  0  0
 20 32  1  0  0  0  0
 20 33  2  0  0  0  0
 20 34  1  0  0  0  0
 21 23  2  0  0  0  0
 21 39  1  0  0  0  0
 22 24  2  0  0  0  0
 22 40  1  0  0  0  0
 23 51  1  0  0  0  0
 24 41  1  0  0  0  0
 25 61  1  0  0  0  0
 26 71  1  0  0  0  0
 27 81  1  0  0  0  0
 28 82  1  0  0  0  0
 29 31  2  0  0  0  0
 29 81  1  0  0  0  0
 30 83  1  0  0  0  0
 31 84  1  0  0  0  0
 32 65  2  0  0  0  0
 33 66  1  0  0  0  0
 33 69  1  0  0  0  0
 34 70  1  0  0  0  0
 34 76  2  0  0  0  0
 35 52  1  0  0  0  0
 35 72  1  0  0  0  0
 35 77  2  0  0  0  0
 36 62  1  0  0  0  0
 36 67  1  0  0  0  0
 36 78  2  0  0  0  0
 37 63  1  0  0  0  0
 37 73  1  0  0  0  0
 37 79  2  0  0  0  0
 38 68  1  0  0  0  0
 38 71  1  0  0  0  0
 38 80  2  0  0  0  0
 39 42  1  0  0  0  0
 40 52  1  0  0  0  0
 41 67  1  0  0  0  0
 42 44  1  0  0  0  0
 43 45  1  0  0  0  0
 43 48  1  0  0  0  0
 44 51  1  0  0  0  0
 45 53  1  0  0  0  0
 46 47  1  0  0  0  0
 46 54  1  0  0  0  0
 47 55  1  0  0  0  0
 48 68  1  0  0  0  0
 49 53  1  0  0  0  0
 49 68  1  0  0  0  0
 50 54  1  0  0  0  0
 50 74  1  0  0  0  0
 51 72  1  0  0  0  0
 52 67  1  0  0  0  0
 53 66  1  0  0  0  0
 54 82  1  0  0  0  0
 55 61  1  0  0  0  0
 55 74  1  0  0  0  0
 56 63  1  0  0  0  0
 57 64  1  0  0  0  0
 58 64  1  0  0  0  0
 59 64  1  0  0  0  0
 60 75  1  0  0  0  0
 62 64  1  0  0  0  0
 62 73  1  0  0  0  0
 63 75  1  0  0  0  0
 65 66  1  0  0  0  0
M  CHG  2  74   1  75   1
M  ISO  4  38 100  54 101  71 100  82 101
M  END
> <Batch ID>
0002

> <Smiles>
CNC(C)C(=O)NC(C(=O)N1Cc2cc([101O:1][101CH:1]3CCC(Cc4cccc([100NH:0][100C:0](=O)N5CCCC(n6nc(-c7ccc(Oc8ccc(F)cc8F)cc7)c(C(N)=O)c6N)C5)c4)NC3)ccc2CC1C(=O)NC1CCCc2ccccc21)C(C)(C)C

> <Shape>
0.137

> <Color>
0.188

> <Negative vol penalty>
0.000

$$$$

  -OEChem-04042320173D

 84 92  0     1  0  0  0  0  0999 V2000
  -30.8275  -28.3669   18.4800 C   0  0  0  0  0  0  0  0  0  0  0  0
  -31.0018  -27.4922   19.5477 C   0  0  0  0  0  0  0  0  0  0  0  0
  -32.6519  -17.4883   23.4594 C   0  0  0  0  0  0  0  0  0  0  0  0
  -23.0751   -9.8682   19.9394 C   0  0  0  0  0  0  0  0  0  0  0  0
  -23.8348   -9.8732   22.2329 C   0  0  0  0  0  0  0  0  0  0  0  0
  -31.8539  -18.3545   24.2066 C   0  0  0  0  0  0  0  0  0  0  0  0
  -31.9301  -28.7868   17.7372 C   0  0  0  0  0  0  0  0  0  0  0  0
  -32.2789  -27.0360   19.8725 C   0  0  0  0  0  0  0  0  0  0  0  0
  -33.1825  -27.1731   24.8534 C   0  0  0  0  0  0  0  0  0  0  0  0
  -32.0642  -16.6047   22.5540 C   0  0  0  0  0  0  0  0  0  0  0  0
  -22.3308   -8.7151   20.1884 C   0  0  0  0  0  0  0  0  0  0  0  0
  -23.0904   -8.7201   22.4819 C   0  0  0  0  0  0  0  0  0  0  0  0
  -32.6295  -26.1552   25.6291 C   0  0  0  0  0  0  0  0  0  0  0  0
  -19.8620   -7.9229   23.0835 C   0  0  0  0  0  0  0  0  0  0  0  0
  -19.1049   -7.8823   24.2543 C   0  0  0  0  0  0  0  0  0  0  0  0
  -29.8804  -17.4537   23.1433 C   0  0  0  0  0  0  0  0  0  0  0  0
  -34.7587  -25.0215   25.6486 C   0  0  0  0  0  0  0  0  0  0  0  0
  -20.3456   -5.9439   24.9894 C   0  0  0  0  0  0  0  0  0  0  0  0
  -23.8271  -10.4473   20.9616 C   0  0  0  0  0  0  0  0  0  0  0  0
  -30.4682  -18.3372   24.0486 C   0  0  0  0  0  0  0  0  0  0  0  0
  -24.1698  -12.9724   20.8436 C   0  0  0  0  0  0  0  0  0  0  0  0
  -33.2225  -28.3431   18.0590 C   0  0  0  0  0  0  0  0  0  0  0  0
  -34.5273  -27.1173   24.4596 C   0  0  0  0  0  0  0  0  0  0  0  0
  -33.3997  -27.4492   19.1324 C   0  0  0  0  0  0  0  0  0  0  0  0
  -35.3271  -26.0412   24.8701 C   0  0  0  0  0  0  0  0  0  0  0  0
  -30.6784  -16.5874   22.3960 C   0  0  0  0  0  0  0  0  0  0  0  0
  -22.3385   -8.1411   21.4596 C   0  0  0  0  0  0  0  0  0  0  0  0
  -33.4168  -25.0777   26.0244 C   0  0  0  0  0  0  0  0  0  0  0  0
  -20.8608   -6.9739   22.8656 C   0  0  0  0  0  0  0  0  0  0  0  0
  -19.3467   -6.8928   25.2072 C   0  0  0  0  0  0  0  0  0  0  0  0
  -21.1026   -5.9845   23.8185 C   0  0  0  0  0  0  0  0  0  0  0  0
  -24.5966  -11.6381   20.7049 C   0  0  0  0  0  0  0  0  0  0  0  0
  -25.2622  -13.7218   20.4810 C   0  0  0  0  0  0  0  0  0  0  0  0
  -29.6195  -19.2605   24.8451 C   0  0  0  0  0  0  0  0  0  0  0  0
  -22.8994  -13.4883   21.2628 C   0  0  0  0  0  0  0  0  0  0  0  0
  -36.0436  -26.9751   21.6696 C   0  0  0  0  0  0  0  0  0  0  0  0
  -38.6818  -27.2969   23.5294 C   0  0  0  0  0  0  0  0  0  0  0  0
  -40.1284  -26.9153   26.5967 C   0  0  0  0  0  0  0  0  0  0  0  0
  -30.7287  -14.7654   20.6570 C   0  0  0  0  0  0  0  0  0  0  0  0
  -34.3780  -28.7872   17.1975 C   0  0  0  0  0  0  0  0  0  0  0  0
  -35.1157  -28.2367   23.6453 C   0  0  0  0  0  0  0  0  0  0  0  0
  -36.7815  -25.9443   24.4909 C   0  0  0  0  0  0  0  0  0  0  0  0
  -35.7425  -28.5520   17.8402 C   0  0  0  0  0  0  0  0  0  0  0  0
  -29.6138  -12.3538   18.2868 C   0  0  0  0  0  0  0  0  0  0  0  0
  -35.8203  -27.1469   18.4288 C   0  0  0  0  0  0  0  0  0  0  0  0
  -28.1740  -12.0624   18.7160 C   0  0  0  0  0  0  0  0  0  0  0  0
  -30.5288  -12.5814   19.4887 C   0  0  0  0  0  0  0  0  0  0  0  0
  -28.6220  -13.3054   20.8703 C   0  0  0  0  0  0  0  0  0  0  0  0
  -34.7721  -26.9517   19.5310 C   0  0  1  0  0  0  0  0  0  0  0  0
  -36.3621  -27.8205   22.8702 C   0  0  1  0  0  0  0  0  0  0  0  0
  -27.6492  -13.1334   19.6923 C   0  0  2  0  0  0  0  0  0  0  0  0
  -42.3083  -27.2297   27.7995 C   0  0  0  0  0  0  0  0  0  0  0  0
  -39.7835  -24.7903   22.1829 C   0  0  0  0  0  0  0  0  0  0  0  0
  -41.4577  -24.6151   24.0362 C   0  0  0  0  0  0  0  0  0  0  0  0
  -41.4637  -26.6086   22.5367 C   0  0  0  0  0  0  0  0  0  0  0  0
  -38.9369  -28.8520   28.4910 C   0  0  0  0  0  0  0  0  0  0  0  0
  -29.7269  -22.0089   26.7107 C   0  0  0  0  0  0  0  0  0  0  0  0
  -31.2055  -22.3461   26.9054 C   0  0  0  0  0  0  0  0  0  0  0  0
  -29.4252  -20.5353   26.9648 C   0  0  0  0  0  0  0  0  0  0  0  0
  -31.4889  -23.8129   26.6069 C   0  0  0  0  0  0  0  0  0  1  0  0
  -39.6128  -26.3433   24.2384 C   0  0  1  0  0  0  0  0  0  0  0  0
  -40.9713  -27.8574   27.4371 C   0  0  2  0  0  0  0  0  0  0  0  0
  -40.5515  -25.5899   23.2542 C   0  0  0  0  0  0  0  0  0  0  0  0
  -25.8615  -11.5421   20.2866 N   0  0  0  0  0  0  0  0  0  0  0  0
  -26.2388  -12.8257   20.1593 N   0  0  0  0  0  0  0  0  0  0  0  0
  -37.3090  -27.0604   23.6886 N   0  0  0  0  0  0  0  0  0  0  0  0
  -29.9701  -13.6117   20.3668 N   0  0  0  0  0  0  0  0  0  0  0  0
  -25.4731  -15.0532   20.4090 N   0  0  0  0  0  0  0  0  0  0  0  0
  -21.8872  -12.5792   21.5993 N   0  0  0  0  0  0  0  0  0  0  0  0
  -30.0816  -15.6901   21.4761 N   0  0  0  0  0  0  0  0  0  0  0  0
  -30.1371  -19.6642   26.0705 N   0  0  0  0  0  0  0  0  0  0  0  0
  -35.2044  -27.5864   20.7577 N   0  0  0  0  0  0  0  0  0  0  0  0
  -40.3130  -27.1308   25.2473 N   0  0  0  0  0  0  0  0  0  0  0  0
  -40.2580  -28.2050   28.6986 N   0  3  0  0  0  0  0  0  0  0  0  0
  -28.5232  -19.5974   24.4056 O   0  0  0  0  0  0  0  0  0  0  0  0
  -22.6636  -14.7189   21.3210 O   0  0  0  0  0  0  0  0  0  0  0  0
  -36.5248  -25.8519   21.5767 O   0  0  0  0  0  0  0  0  0  0  0  0
  -39.1550  -28.2221   22.8647 O   0  0  0  0  0  0  0  0  0  0  0  0
  -39.3837  -26.0699   27.0880 O   0  0  0  0  0  0  0  0  0  0  0  0
  -31.8579  -14.9341   20.1896 O   0  0  0  0  0  0  0  0  0  0  0  0
  -21.6121   -7.0160   21.7030 O   0  0  0  0  0  0  0  0  0  0  0  0
  -32.8793  -24.0825   26.7810 O   0  0  0  0  0  0  0  0  0  1  0  0
  -18.6206   -6.8549   26.3322 F   0  0  0  0  0  0  0  0  0  0  0  0
  -22.0617   -5.0708   23.6153 F   0  0  0  0  0  0  0  0  0  0  0  0
  1  2  1  0  0  0  0
  1  7  2  0  0  0  0
  2  8  2  0  0  0  0
  3  6  2  0  0  0  0
  3 10  1  0  0  0  0
  4 11  2  0  0  0  0
  4 19  1  0  0  0  0
  5 12  1  0  0  0  0
  5 19  2  0  0  0  0
  6 20  1  0  0  0  0
  7 22  1  0  0  0  0
  8 24  1  0  0  0  0
  9 13  2  0  0  0  0
  9 23  1  0  0  0  0
 10 26  2  0  0  0  0
 11 27  1  0  0  0  0
 12 27  2  0  0  0  0
 13 28  1  0  0  0  0
 14 15  2  0  0  0  0
 14 29  1  0  0  0  0
 15 30  1  0  0  0  0
 16 20  2  0  0  0  0
 16 26  1  0  0  0  0
 17 25  1  0  0  0  0
 17 28  2  0  0  0  0
 18 30  2  0  0  0  0
 18 31  1  0  0  0  0
 19 32  1  0  0  0  0
 20 34  1  0  0  0  0
 21 32  1  0  0  0  0
 21 33  2  0  0  0  0
 21 35  1  0  0  0  0
 22 24  2  0  0  0  0
 22 40  1  0  0  0  0
 23 25  2  0  0  0  0
 23 41  1  0  0  0  0
 24 49  1  0  0  0  0
 25 42  1  0  0  0  0
 26 70  1  0  0  0  0
 27 81  1  0  0  0  0
 28 82  1  0  0  0  0
 29 31  2  0  0  0  0
 29 81  1  0  0  0  0
 30 83  1  0  0  0  0
 31 84  1  0  0  0  0
 32 64  2  0  0  0  0
 33 65  1  0  0  0  0
 33 68  1  0  0  0  0
 34 71  1  0  0  0  0
 34 75  2  0  0  0  0
 35 69  1  0  0  0  0
 35 76  2  0  0  0  0
 36 50  1  0  0  0  0
 36 72  1  0  0  0  0
 36 77  2  0  0  0  0
 37 61  1  0  0  0  0
 37 66  1  0  0  0  0
 37 78  2  0  0  0  0
 38 62  1  0  0  0  0
 38 73  1  0  0  0  0
 38 79  2  0  0  0  0
 39 67  1  0  0  0  0
 39 70  1  0  0  0  0
 39 80  2  0  0  0  0
 40 43  1  0  0  0  0
 41 50  1  0  0  0  0
 42 66  1  0  0  0  0
 43 45  1  0  0  0  0
 44 46  1  0  0  0  0
 44 47  1  0  0  0  0
 45 49  1  0  0  0  0
 46 51  1  0  0  0  0
 47 67  1  0  0  0  0
 48 51  1  0  0  0  0
 48 67  1  0  0  0  0
 49 72  1  0  0  0  0
 50 66  1  0  0  0  0
 51 65  1  0  0  0  0
 52 62  1  0  0  0  0
 53 63  1  0  0  0  0
 54 63  1  0  0  0  0
 55 63  1  0  0  0  0
 56 74  1  0  0  0  0
 57 58  1  0  0  0  0
 57 59  1  0  0  0  0
 58 60  1  0  0  0  0
 59 71  1  0  0  0  0
 60 82  1  0  0  0  0
 61 63  1  0  0  0  0
 61 73  1  0  0  0  0
 62 74  1  0  0  0  0
 64 65  1  0  0  0  0
M  CHG  1  74   1
M  ISO  4  39 100  60 101  70 100  82 101
M  END
> <Batch ID>
0002

> <Smiles>
CNC(C)C(=O)NC(C(=O)N1Cc2cc([101O:1][101CH2:1]CCCNC(=O)c3cccc([100NH:0][100C:0](=O)N4CCCC(n5nc(-c6ccc(Oc7ccc(F)cc7F)cc6)c(C(N)=O)c5N)C4)c3)ccc2CC1C(=O)NC1CCCc2ccccc21)C(C)(C)C

> <Shape>
0.179

> <Color>
0.192

> <Negative vol penalty>
0.000

$$$$

  -OEChem-04042320173D

 86 94  0     1  0  0  0  0  0999 V2000
  -16.9710  -28.3036   24.1954 C   0  0  0  0  0  0  0  0  0  0  0  0
  -17.6764  -27.4278   23.3764 C   0  0  0  0  0  0  0  0  0  0  0  0
  -21.0062  -12.8620   22.7452 C   0  0  0  0  0  0  0  0  0  0  0  0
  -27.2708  -19.5721   20.4647 C   0  0  0  0  0  0  0  0  0  0  0  0
  -29.5819  -19.5741   19.7605 C   0  0  0  0  0  0  0  0  0  0  0  0
  -22.1232  -12.0446   22.5733 C   0  0  0  0  0  0  0  0  0  0  0  0
  -20.9219  -14.0792   22.0691 C   0  0  0  0  0  0  0  0  0  0  0  0
  -17.3103  -29.6556   24.2241 C   0  0  0  0  0  0  0  0  0  0  0  0
  -18.7210  -27.9038   22.5847 C   0  0  0  0  0  0  0  0  0  0  0  0
  -22.8069  -24.9173   22.7585 C   0  0  0  0  0  0  0  0  0  0  0  0
  -27.4862  -20.7529   21.1752 C   0  0  0  0  0  0  0  0  0  0  0  0
  -29.7973  -20.7550   20.4710 C   0  0  0  0  0  0  0  0  0  0  0  0
  -22.7739  -23.7483   21.9994 C   0  0  0  0  0  0  0  0  0  0  0  0
  -27.5186  -23.5746   23.4689 C   0  0  0  0  0  0  0  0  0  0  0  0
  -26.9991  -23.6600   24.7605 C   0  0  0  0  0  0  0  0  0  0  0  0
  -23.0718  -13.6615   21.0492 C   0  0  0  0  0  0  0  0  0  0  0  0
  -24.0920  -24.8274   20.2914 C   0  0  0  0  0  0  0  0  0  0  0  0
  -28.3312  -21.7562   25.4223 C   0  0  0  0  0  0  0  0  0  0  0  0
  -28.3187  -18.9826   19.7574 C   0  0  0  0  0  0  0  0  0  0  0  0
  -23.1560  -12.4443   21.7253 C   0  0  0  0  0  0  0  0  0  0  0  0
  -21.9547  -14.4789   21.2211 C   0  0  0  0  0  0  0  0  0  0  0  0
  -27.6885  -17.6395   17.6822 C   0  0  0  0  0  0  0  0  0  0  0  0
  -18.3659  -30.1467   23.4397 C   0  0  0  0  0  0  0  0  0  0  0  0
  -23.4746  -26.0554   22.2840 C   0  0  0  0  0  0  0  0  0  0  0  0
  -19.0739  -29.2639   22.6020 C   0  0  0  0  0  0  0  0  0  0  0  0
  -24.1341  -26.0087   21.0475 C   0  0  0  0  0  0  0  0  0  0  0  0
  -28.7495  -21.3444   21.1783 C   0  0  0  0  0  0  0  0  0  0  0  0
  -23.4140  -23.7041   20.7644 C   0  0  0  0  0  0  0  0  0  0  0  0
  -28.4444  -22.5799   23.1539 C   0  0  0  0  0  0  0  0  0  0  0  0
  -27.4053  -22.7509   25.7372 C   0  0  0  0  0  0  0  0  0  0  0  0
  -28.8507  -21.6707   24.1306 C   0  0  0  0  0  0  0  0  0  0  0  0
  -28.0969  -17.7625   19.0237 C   0  0  0  0  0  0  0  0  0  0  0  0
  -27.6246  -16.2848   17.4655 C   0  0  0  0  0  0  0  0  0  0  0  0
  -24.3452  -11.5729   21.5425 C   0  0  0  0  0  0  0  0  0  0  0  0
  -21.8640  -15.7755   20.5016 C   0  0  0  0  0  0  0  0  0  0  0  0
  -27.3933  -18.6588   16.7180 C   0  0  0  0  0  0  0  0  0  0  0  0
  -22.6005  -29.0164   21.5274 C   0  0  0  0  0  0  0  0  0  0  0  0
  -25.7952  -29.4517   21.1713 C   0  0  0  0  0  0  0  0  0  0  0  0
  -28.8581  -28.0715   20.5712 C   0  0  0  0  0  0  0  0  0  0  0  0
  -26.7649  -11.6024   21.0248 C   0  0  0  0  0  0  0  0  0  0  0  0
  -18.6652  -31.6246   23.4686 C   0  0  0  0  0  0  0  0  0  0  0  0
  -23.5236  -27.3002   23.1269 C   0  0  0  0  0  0  0  0  0  0  0  0
  -24.8820  -27.1970   20.5022 C   0  0  0  0  0  0  0  0  0  0  0  0
  -20.0284  -31.9815   22.8816 C   0  0  0  0  0  0  0  0  0  0  0  0
  -29.5673  -12.1591   18.9431 C   0  0  0  0  0  0  0  0  0  0  0  0
  -20.2443  -31.2591   21.5556 C   0  0  0  0  0  0  0  0  0  0  0  0
  -29.4653  -13.6455   18.5901 C   0  0  0  0  0  0  0  0  0  0  0  0
  -29.1431  -11.8881   20.3858 C   0  0  0  0  0  0  0  0  0  0  0  0
  -27.7281  -13.9020   20.4068 C   0  0  0  0  0  0  0  0  0  0  0  0
  -20.2294  -29.7378   21.7473 C   0  0  1  0  0  0  0  0  0  0  0  0
  -23.7972  -28.5619   22.3141 C   0  0  1  0  0  0  0  0  0  0  0  0
  -28.0774  -14.2169   18.9433 C   0  0  1  0  0  0  0  0  0  0  0  0
  -31.2766  -28.6847   20.3025 C   0  0  0  0  0  0  0  0  0  0  0  0
  -25.2114  -30.5176   18.3725 C   0  0  0  0  0  0  0  0  0  0  0  0
  -27.6358  -30.2132   17.8266 C   0  0  0  0  0  0  0  0  0  0  0  0
  -26.9546  -31.7938   19.6323 C   0  0  0  0  0  0  0  0  0  0  0  0
  -29.6565  -26.4108   22.8871 C   0  0  0  0  0  0  0  0  0  0  0  0
  -23.1931  -18.8214   20.4631 C   0  0  0  0  0  0  0  0  0  0  0  0
  -23.3001  -20.1669   19.7447 C   0  0  0  0  0  0  0  0  0  0  0  0
  -23.1493  -17.6437   19.4947 C   0  0  0  0  0  0  0  0  0  0  0  0
  -23.3013  -21.3288   20.7301 C   0  0  0  0  0  0  0  0  0  1  0  0
  -26.7738  -29.3038   20.0314 C   0  0  1  0  0  0  0  0  0  0  0  0
  -30.1937  -28.2396   21.2730 C   0  0  2  0  0  0  0  0  0  0  0  0
  -26.6283  -30.4352   18.9748 C   0  0  0  0  0  0  0  0  0  0  0  0
  -28.2795  -16.5801   19.6176 N   0  0  0  0  0  0  0  0  0  0  0  0
  -27.9843  -15.7013   18.6446 N   0  0  0  0  0  0  0  0  0  0  0  0
  -24.8958  -28.3929   21.3608 N   0  0  0  0  0  0  0  0  0  0  0  0
  -27.8155  -12.4520   20.6366 N   0  0  0  0  0  0  0  0  0  0  0  0
  -27.2962  -15.5475   16.3833 N   0  0  0  0  0  0  0  0  0  0  0  0
  -27.5098  -20.0003   17.1069 N   0  0  0  0  0  0  0  0  0  0  0  0
  -25.5266  -12.2305   21.1985 N   0  0  0  0  0  0  0  0  0  0  0  0
  -23.0724  -16.3771   20.1695 N   0  0  0  0  0  0  0  0  0  0  0  0
  -21.4878  -29.2858   22.3011 N   0  0  0  0  0  0  0  0  0  0  0  0
  -28.0978  -29.2198   20.6384 N   0  0  0  0  0  0  0  0  0  0  0  0
  -30.6185  -26.9529   21.8933 N   0  3  0  0  0  0  0  0  0  0  0  0
  -24.2372  -10.3652   21.7368 O   0  0  0  0  0  0  0  0  0  0  0  0
  -20.7579  -16.2513   20.2595 O   0  0  0  0  0  0  0  0  0  0  0  0
  -27.0209  -18.3880   15.5511 O   0  0  0  0  0  0  0  0  0  0  0  0
  -22.6811  -29.1167   20.3087 O   0  0  0  0  0  0  0  0  0  0  0  0
  -25.8322  -30.4660   21.8724 O   0  0  0  0  0  0  0  0  0  0  0  0
  -28.5244  -27.0273   20.0156 O   0  0  0  0  0  0  0  0  0  0  0  0
  -26.9076  -10.3840   21.1674 O   0  0  0  0  0  0  0  0  0  0  0  0
  -28.9599  -22.4968   21.8713 O   0  0  0  0  0  0  0  0  0  0  0  0
  -23.3828  -22.5646   20.0211 O   0  0  0  0  0  0  0  0  0  1  0  0
  -26.9075  -22.8341   26.9779 F   0  0  0  0  0  0  0  0  0  0  0  0
  -29.7408  -20.7137   23.8344 F   0  0  0  0  0  0  0  0  0  0  0  0
  1  2  1  0  0  0  0
  1  8  2  0  0  0  0
  2  9  2  0  0  0  0
  3  6  1  0  0  0  0
  3  7  2  0  0  0  0
  4 11  2  0  0  0  0
  4 19  1  0  0  0  0
  5 12  1  0  0  0  0
  5 19  2  0  0  0  0
  6 20  2  0  0  0  0
  7 21  1  0  0  0  0
  8 23  1  0  0  0  0
  9 25  1  0  0  0  0
 10 13  2  0  0  0  0
 10 24  1  0  0  0  0
 11 27  1  0  0  0  0
 12 27  2  0  0  0  0
 13 28  1  0  0  0  0
 14 15  2  0  0  0  0
 14 29  1  0  0  0  0
 15 30  1  0  0  0  0
 16 20  1  0  0  0  0
 16 21  2  0  0  0  0
 17 26  1  0  0  0  0
 17 28  2  0  0  0  0
 18 30  2  0  0  0  0
 18 31  1  0  0  0  0
 19 32  1  0  0  0  0
 20 34  1  0  0  0  0
 21 35  1  0  0  0  0
 22 32  1  0  0  0  0
 22 33  2  0  0  0  0
 22 36  1  0  0  0  0
 23 25  2  0  0  0  0
 23 41  1  0  0  0  0
 24 26  2  0  0  0  0
 24 42  1  0  0  0  0
 25 50  1  0  0  0  0
 26 43  1  0  0  0  0
 27 83  1  0  0  0  0
 28 84  1  0  0  0  0
 29 31  2  0  0  0  0
 29 83  1  0  0  0  0
 30 85  1  0  0  0  0
 31 86  1  0  0  0  0
 32 65  2  0  0  0  0
 33 66  1  0  0  0  0
 33 69  1  0  0  0  0
 34 71  1  0  0  0  0
 34 76  2  0  0  0  0
 35 72  1  0  0  0  0
 35 77  2  0  0  0  0
 36 70  1  0  0  0  0
 36 78  2  0  0  0  0
 37 51  1  0  0  0  0
 37 73  1  0  0  0  0
 37 79  2  0  0  0  0
 38 62  1  0  0  0  0
 38 67  1  0  0  0  0
 38 80  2  0  0  0  0
 39 63  1  0  0  0  0
 39 74  1  0  0  0  0
 39 81  2  0  0  0  0
 40 68  1  0  0  0  0
 40 71  1  0  0  0  0
 40 82  2  0  0  0  0
 41 44  1  0  0  0  0
 42 51  1  0  0  0  0
 43 67  1  0  0  0  0
 44 46  1  0  0  0  0
 45 47  1  0  0  0  0
 45 48  1  0  0  0  0
 46 50  1  0  0  0  0
 47 52  1  0  0  0  0
 48 68  1  0  0  0  0
 49 52  1  0  0  0  0
 49 68  1  0  0  0  0
 50 73  1  0  0  0  0
 51 67  1  0  0  0  0
 52 66  1  0  0  0  0
 53 63  1  0  0  0  0
 54 64  1  0  0  0  0
 55 64  1  0  0  0  0
 56 64  1  0  0  0  0
 57 75  1  0  0  0  0
 58 59  1  0  0  0  0
 58 60  1  0  0  0  0
 59 61  1  0  0  0  0
 60 72  1  0  0  0  0
 61 84  1  0  0  0  0
 62 64  1  0  0  0  0
 62 74  1  0  0  0  0
 63 75  1  0  0  0  0
 65 66  1  0  0  0  0
M  CHG  1  75   1
M  ISO  4  40 100  61 101  71 100  84 101
M  END
> <Batch ID>
0002

> <Smiles>
CNC(C)C(=O)NC(C(=O)N1Cc2cc([101O:1][101CH2:1]CCCNC(=O)c3cccc(C(=O)[100NH:0][100C:0](=O)N4CCCC(n5nc(-c6ccc(Oc7ccc(F)cc7F)cc6)c(C(N)=O)c5N)C4)c3)ccc2CC1C(=O)NC1CCCc2ccccc21)C(C)(C)C

> <Shape>
0.247

> <Color>
0.064

> <Negative vol penalty>
0.000

$$$$

  -OEChem-04042320173D

 79 87  0     1  0  0  0  0  0999 V2000
  -28.7111  -24.1032   17.9694 C   0  0  0  0  0  0  0  0  0  0  0  0
  -27.4719  -24.3658   18.5444 C   0  0  0  0  0  0  0  0  0  0  0  0
  -19.6203  -23.8235   19.7295 C   0  0  0  0  0  0  0  0  0  0  0  0
  -27.3005  -16.2045   21.5152 C   0  0  0  0  0  0  0  0  0  0  0  0
  -25.8503  -16.7910   19.6740 C   0  0  0  0  0  0  0  0  0  0  0  0
  -29.8622  -24.6826   18.5016 C   0  0  0  0  0  0  0  0  0  0  0  0
  -27.3831  -25.2071   19.6529 C   0  0  0  0  0  0  0  0  0  0  0  0
  -23.5873  -28.5367   19.2656 C   0  0  0  0  0  0  0  0  0  0  0  0
  -19.2332  -25.0032   20.3652 C   0  0  0  0  0  0  0  0  0  0  0  0
  -20.2547  -22.8157   20.4558 C   0  0  0  0  0  0  0  0  0  0  0  0
  -27.3642  -14.8921   21.0470 C   0  0  0  0  0  0  0  0  0  0  0  0
  -25.9140  -15.4786   19.2058 C   0  0  0  0  0  0  0  0  0  0  0  0
  -22.3004  -28.0684   19.5270 C   0  0  0  0  0  0  0  0  0  0  0  0
  -28.9994  -13.1869   18.6281 C   0  0  0  0  0  0  0  0  0  0  0  0
  -30.2508  -12.5720   18.5906 C   0  0  0  0  0  0  0  0  0  0  0  0
  -22.4127  -29.0147   21.7431 C   0  0  0  0  0  0  0  0  0  0  0  0
  -20.1149  -24.1673   22.4535 C   0  0  0  0  0  0  0  0  0  0  0  0
  -29.4540  -10.8583   20.0956 C   0  0  0  0  0  0  0  0  0  0  0  0
  -26.5435  -17.1539   20.8287 C   0  0  0  0  0  0  0  0  0  0  0  0
  -27.3337  -19.5750   20.9764 C   0  0  0  0  0  0  0  0  0  0  0  0
  -29.7864  -25.5391   19.6112 C   0  0  0  0  0  0  0  0  0  0  0  0
  -24.3020  -29.2393   20.2464 C   0  0  0  0  0  0  0  0  0  0  0  0
  -28.5344  -25.7975   20.2013 C   0  0  0  0  0  0  0  0  0  0  0  0
  -23.7076  -29.4931   21.4907 C   0  0  0  0  0  0  0  0  0  0  0  0
  -19.4805  -25.1751   21.7271 C   0  0  0  0  0  0  0  0  0  0  0  0
  -20.5020  -22.9876   21.8178 C   0  0  0  0  0  0  0  0  0  0  0  0
  -26.6710  -14.5291   19.8923 C   0  0  0  0  0  0  0  0  0  0  0  0
  -21.7140  -28.3049   20.7669 C   0  0  0  0  0  0  0  0  0  0  0  0
  -27.9752  -12.6375   19.3995 C   0  0  0  0  0  0  0  0  0  0  0  0
  -30.4781  -11.4077   19.3243 C   0  0  0  0  0  0  0  0  0  0  0  0
  -28.2025  -11.4732   20.1332 C   0  0  0  0  0  0  0  0  0  0  0  0
  -26.4769  -18.5096   21.3121 C   0  0  0  0  0  0  0  0  0  0  0  0
  -26.8522  -20.6422   21.6944 C   0  0  0  0  0  0  0  0  0  0  0  0
  -28.4637  -19.5978   20.0942 C   0  0  0  0  0  0  0  0  0  0  0  0
  -27.0198  -28.7529   21.8214 C   0  0  0  0  0  0  0  0  0  0  0  0
  -26.4357  -31.7315   22.9656 C   0  0  0  0  0  0  0  0  0  0  0  0
  -24.1556  -34.1769   23.6491 C   0  0  0  0  0  0  0  0  0  0  0  0
  -21.4659  -21.9733   23.9126 C   0  0  0  0  0  0  0  0  0  0  0  0
  -31.0635  -26.1045   20.1805 C   0  0  0  0  0  0  0  0  0  0  0  0
  -25.6789  -29.7610   19.9394 C   0  0  0  0  0  0  0  0  0  0  0  0
  -24.4248  -30.2599   22.5706 C   0  0  0  0  0  0  0  0  0  0  0  0
  -30.8401  -27.2819   21.1261 C   0  0  0  0  0  0  0  0  0  0  0  0
  -24.5085  -21.6829   25.7389 C   0  0  0  0  0  0  0  0  0  0  0  0
  -29.7229  -26.9671   22.1158 C   0  0  0  0  0  0  0  0  0  0  0  0
  -25.4384  -20.9385   24.7781 C   0  0  0  0  0  0  0  0  0  0  0  0
  -23.0692  -21.1811   25.6380 C   0  0  0  0  0  0  0  0  0  0  0  0
  -23.4373  -20.4310   23.3205 C   0  0  0  0  0  0  0  0  0  0  0  0
  -28.3944  -26.7244   21.3893 C   0  0  1  0  0  0  0  0  0  0  0  0
  -26.5129  -30.0189   21.1906 C   0  0  1  0  0  0  0  0  0  0  0  0
  -24.8856  -20.9464   23.3394 C   0  0  2  0  0  0  0  0  0  0  0  0
  -23.9728  -36.4850   24.6170 C   0  0  0  0  0  0  0  0  0  0  0  0
  -26.7295  -30.5746   25.7737 C   0  0  0  0  0  0  0  0  0  0  0  0
  -25.6236  -32.6369   26.6636 C   0  0  0  0  0  0  0  0  0  0  0  0
  -27.7964  -32.8134   25.4508 C   0  0  0  0  0  0  0  0  0  0  0  0
  -23.1145  -35.2849   21.1099 C   0  0  0  0  0  0  0  0  0  0  0  0
  -19.0614  -26.4519   22.4145 C   0  0  0  0  0  0  0  0  0  0  0  0
  -20.1537  -27.5152   22.3787 C   0  0  0  0  0  0  0  0  0  1  0  0
  -25.6905  -32.2939   24.1518 C   0  0  1  0  0  0  0  0  0  0  0  0
  -24.1540  -35.6650   23.3491 C   0  0  2  0  0  0  0  0  0  0  0  0
  -26.4470  -32.0635   25.4905 C   0  0  0  0  0  0  0  0  0  0  0  0
  -25.5235  -18.8675   22.1764 N   0  0  0  0  0  0  0  0  0  0  0  0
  -25.7783  -20.1696   22.3898 N   0  0  0  0  0  0  0  0  0  0  0  0
  -25.7715  -30.7439   22.2244 N   0  0  0  0  0  0  0  0  0  0  0  0
  -22.6117  -21.2211   24.2473 N   0  0  0  0  0  0  0  0  0  0  0  0
  -27.2470  -21.9294   21.7926 N   0  0  0  0  0  0  0  0  0  0  0  0
  -28.8216  -18.4133   19.4360 N   0  0  0  0  0  0  0  0  0  0  0  0
  -21.1458  -21.9633   22.5554 N   0  0  0  0  0  0  0  0  0  0  0  0
  -27.8030  -27.9815   20.9840 N   0  0  0  0  0  0  0  0  0  0  0  0
  -25.4333  -33.6967   23.8446 N   0  0  0  0  0  0  0  0  0  0  0  0
  -23.0481  -36.0027   22.4089 N   0  3  0  0  0  0  0  0  0  0  0  0
  -29.1462  -20.6338   19.9081 O   0  0  0  0  0  0  0  0  0  0  0  0
  -26.7236  -28.4956   22.9823 O   0  0  0  0  0  0  0  0  0  0  0  0
  -27.5628  -32.1579   22.7019 O   0  0  0  0  0  0  0  0  0  0  0  0
  -23.1261  -33.5083   23.7082 O   0  0  0  0  0  0  0  0  0  0  0  0
  -20.8322  -22.6036   24.7630 O   0  0  0  0  0  0  0  0  0  0  0  0
  -26.7331  -13.2486   19.4351 O   0  0  0  0  0  0  0  0  0  0  0  0
  -20.4583  -27.8483   21.0249 O   0  0  0  0  0  0  0  0  0  1  0  0
  -31.6795  -10.8165   19.2869 F   0  0  0  0  0  0  0  0  0  0  0  0
  -27.2221  -10.9400   20.8751 F   0  0  0  0  0  0  0  0  0  0  0  0
  1  2  1  0  0  0  0
  1  6  2  0  0  0  0
  2  7  2  0  0  0  0
  3  9  2  0  0  0  0
  3 10  1  0  0  0  0
  4 11  2  0  0  0  0
  4 19  1  0  0  0  0
  5 12  1  0  0  0  0
  5 19  2  0  0  0  0
  6 21  1  0  0  0  0
  7 23  1  0  0  0  0
  8 13  2  0  0  0  0
  8 22  1  0  0  0  0
  9 25  1  0  0  0  0
 10 26  2  0  0  0  0
 11 27  1  0  0  0  0
 12 27  2  0  0  0  0
 13 28  1  0  0  0  0
 14 15  2  0  0  0  0
 14 29  1  0  0  0  0
 15 30  1  0  0  0  0
 16 24  1  0  0  0  0
 16 28  2  0  0  0  0
 17 25  2  0  0  0  0
 17 26  1  0  0  0  0
 18 30  2  0  0  0  0
 18 31  1  0  0  0  0
 19 32  1  0  0  0  0
 20 32  1  0  0  0  0
 20 33  2  0  0  0  0
 20 34  1  0  0  0  0
 21 23  2  0  0  0  0
 21 39  1  0  0  0  0
 22 24  2  0  0  0  0
 22 40  1  0  0  0  0
 23 48  1  0  0  0  0
 24 41  1  0  0  0  0
 25 56  1  0  0  0  0
 26 67  1  0  0  0  0
 27 76  1  0  0  0  0
 28 77  1  0  0  0  0
 29 31  2  0  0  0  0
 29 76  1  0  0  0  0
 30 78  1  0  0  0  0
 31 79  1  0  0  0  0
 32 61  2  0  0  0  0
 33 62  1  0  0  0  0
 33 65  1  0  0  0  0
 34 66  1  0  0  0  0
 34 71  2  0  0  0  0
 35 49  1  0  0  0  0
 35 68  1  0  0  0  0
 35 72  2  0  0  0  0
 36 58  1  0  0  0  0
 36 63  1  0  0  0  0
 36 73  2  0  0  0  0
 37 59  1  0  0  0  0
 37 69  1  0  0  0  0
 37 74  2  0  0  0  0
 38 64  1  0  0  0  0
 38 67  1  0  0  0  0
 38 75  2  0  0  0  0
 39 42  1  0  0  0  0
 40 49  1  0  0  0  0
 41 63  1  0  0  0  0
 42 44  1  0  0  0  0
 43 45  1  0  0  0  0
 43 46  1  0  0  0  0
 44 48  1  0  0  0  0
 45 50  1  0  0  0  0
 46 64  1  0  0  0  0
 47 50  1  0  0  0  0
 47 64  1  0  0  0  0
 48 68  1  0  0  0  0
 49 63  1  0  0  0  0
 50 62  1  0  0  0  0
 51 59  1  0  0  0  0
 52 60  1  0  0  0  0
 53 60  1  0  0  0  0
 54 60  1  0  0  0  0
 55 70  1  0  0  0  0
 56 57  1  0  0  0  0
 57 77  1  0  0  0  0
 58 60  1  0  0  0  0
 58 69  1  0  0  0  0
 59 70  1  0  0  0  0
 61 62  1  0  0  0  0
M  CHG  1  70   1
M  ISO  4  38 100  57 101  67 100  77 101
M  END
> <Batch ID>
0002

> <Smiles>
CNC(C)C(=O)NC(C(=O)N1Cc2cc([101O:1][101CH2:1]Cc3cccc([100NH:0][100C:0](=O)N4CCCC(n5nc(-c6ccc(Oc7ccc(F)cc7F)cc6)c(C(N)=O)c5N)C4)c3)ccc2CC1C(=O)NC1CCCc2ccccc21)C(C)(C)C

> <Shape>
0.298

> <Color>
0.075

> <Negative vol penalty>
0.000

$$$$

  -OEChem-04042320173D

 82 90  0     1  0  0  0  0  0999 V2000
  -21.7856  -26.3248   23.2852 C   0  0  0  0  0  0  0  0  0  0  0  0
  -22.7749  -25.3466   23.2787 C   0  0  0  0  0  0  0  0  0  0  0  0
  -23.2699   -9.8658   19.9160 C   0  0  0  0  0  0  0  0  0  0  0  0
  -23.7219   -9.9956   22.2858 C   0  0  0  0  0  0  0  0  0  0  0  0
  -28.3447  -17.8282   23.8643 C   0  0  0  0  0  0  0  0  0  0  0  0
  -30.6534  -18.5203   24.0319 C   0  0  0  0  0  0  0  0  0  0  0  0
  -21.8689  -27.4047   22.4072 C   0  0  0  0  0  0  0  0  0  0  0  0
  -23.8475  -25.4473   22.3934 C   0  0  0  0  0  0  0  0  0  0  0  0
  -28.2927  -24.4531   24.6061 C   0  0  0  0  0  0  0  0  0  0  0  0
  -22.5220   -8.7066   20.1221 C   0  0  0  0  0  0  0  0  0  0  0  0
  -22.9739   -8.8365   22.4920 C   0  0  0  0  0  0  0  0  0  0  0  0
  -28.7210  -16.5102   24.1231 C   0  0  0  0  0  0  0  0  0  0  0  0
  -31.0297  -17.2023   24.2907 C   0  0  0  0  0  0  0  0  0  0  0  0
  -28.6091  -23.1132   24.8257 C   0  0  0  0  0  0  0  0  0  0  0  0
  -19.7105   -7.9852   22.7066 C   0  0  0  0  0  0  0  0  0  0  0  0
  -18.8073   -7.9791   23.7695 C   0  0  0  0  0  0  0  0  0  0  0  0
  -30.0098  -23.1283   22.8618 C   0  0  0  0  0  0  0  0  0  0  0  0
  -19.9782   -6.1089   24.7537 C   0  0  0  0  0  0  0  0  0  0  0  0
  -23.8699  -10.5103   20.9978 C   0  0  0  0  0  0  0  0  0  0  0  0
  -29.3109  -18.8332   23.8187 C   0  0  0  0  0  0  0  0  0  0  0  0
  -24.1760  -13.0353   20.8020 C   0  0  0  0  0  0  0  0  0  0  0  0
  -22.9481  -27.5237   21.5174 C   0  0  0  0  0  0  0  0  0  0  0  0
  -28.8248  -25.1388   23.5047 C   0  0  0  0  0  0  0  0  0  0  0  0
  -23.9446  -26.5291   21.5017 C   0  0  0  0  0  0  0  0  0  0  0  0
  -29.7007  -24.4776   22.6319 C   0  0  0  0  0  0  0  0  0  0  0  0
  -22.3739   -8.1920   21.4101 C   0  0  0  0  0  0  0  0  0  0  0  0
  -30.0635  -16.1973   24.3364 C   0  0  0  0  0  0  0  0  0  0  0  0
  -29.4655  -22.4497   23.9519 C   0  0  0  0  0  0  0  0  0  0  0  0
  -20.7475   -7.0532   22.6672 C   0  0  0  0  0  0  0  0  0  0  0  0
  -18.9412   -7.0410   24.7931 C   0  0  0  0  0  0  0  0  0  0  0  0
  -20.8814   -6.1151   23.6908 C   0  0  0  0  0  0  0  0  0  0  0  0
  -24.6432  -11.7074   20.7855 C   0  0  0  0  0  0  0  0  0  0  0  0
  -25.2918  -13.7950   20.5484 C   0  0  0  0  0  0  0  0  0  0  0  0
  -22.8519  -13.5371   21.0266 C   0  0  0  0  0  0  0  0  0  0  0  0
  -28.9103  -20.2370   23.5432 C   0  0  0  0  0  0  0  0  0  1  0  0
  -27.5967  -26.5617   20.9414 C   0  0  0  0  0  0  0  0  0  0  0  0
  -30.6734  -27.4644   20.4498 C   0  0  0  0  0  0  0  0  0  0  0  0
  -33.9896  -26.8675   20.9912 C   0  0  0  0  0  0  0  0  0  0  0  0
  -31.1458  -12.8431   21.3703 C   0  0  0  0  0  0  0  0  0  0  0  0
  -22.9703  -28.6842   20.5544 C   0  0  0  0  0  0  0  0  0  0  0  0
  -28.4949  -26.5915   23.2969 C   0  0  0  0  0  0  0  0  0  0  0  0
  -30.3146  -25.1744   21.4461 C   0  0  0  0  0  0  0  0  0  0  0  0
  -24.3339  -28.9124   19.9071 C   0  0  0  0  0  0  0  0  0  0  0  0
  -29.5125  -13.6159   18.3024 C   0  0  0  0  0  0  0  0  0  0  0  0
  -24.9173  -27.5929   19.4118 C   0  0  0  0  0  0  0  0  0  0  0  0
  -28.0372  -13.3342   18.5924 C   0  0  0  0  0  0  0  0  0  0  0  0
  -30.4272  -12.6187   19.0103 C   0  0  0  0  0  0  0  0  0  0  0  0
  -28.7320  -12.2187   20.7538 C   0  0  0  0  0  0  0  0  0  0  0  0
  -25.1365  -26.6161   20.5734 C   0  0  1  0  0  0  0  0  0  0  0  0
  -28.6873  -27.0474   21.8537 C   0  0  1  0  0  0  0  0  0  0  0  0
  -27.7729  -13.2325   20.1067 C   0  0  2  0  0  0  0  0  0  0  0  0
  -36.2684  -27.7557   20.4296 C   0  0  0  0  0  0  0  0  0  0  0  0
  -30.4415  -26.2803   17.6472 C   0  0  0  0  0  0  0  0  0  0  0  0
  -32.9400  -26.3302   17.4950 C   0  0  0  0  0  0  0  0  0  0  0  0
  -31.6657  -28.4581   17.7616 C   0  0  0  0  0  0  0  0  0  0  0  0
  -34.6240  -27.3667   23.8385 C   0  0  0  0  0  0  0  0  0  0  0  0
  -31.7102  -13.0440   23.7787 C   0  0  0  0  0  0  0  0  0  0  0  0
  -31.7331  -14.5126   24.1629 C   0  0  0  0  0  0  0  0  0  0  0  0
  -31.8575  -26.8742   19.7229 C   0  0  1  0  0  0  0  0  0  0  0  0
  -35.1199  -27.7827   21.4261 C   0  0  2  0  0  0  0  0  0  0  0  0
  -31.7133  -26.9717   18.1779 C   0  0  0  0  0  0  0  0  0  0  0  0
  -25.9536  -11.6248   20.5406 N   0  0  0  0  0  0  0  0  0  0  0  0
  -26.3194  -12.9104   20.4008 N   0  0  0  0  0  0  0  0  0  0  0  0
  -29.9564  -26.5929   21.2818 N   0  0  0  0  0  0  0  0  0  0  0  0
  -30.1262  -12.5714   20.4431 N   0  0  0  0  0  0  0  0  0  0  0  0
  -25.4844  -15.1267   20.4394 N   0  0  0  0  0  0  0  0  0  0  0  0
  -21.8221  -12.6188   21.2725 N   0  0  0  0  0  0  0  0  0  0  0  0
  -26.3296  -26.9693   21.3125 N   0  0  0  0  0  0  0  0  0  0  0  0
  -33.0390  -27.5437   20.2562 N   0  0  0  0  0  0  0  0  0  0  0  0
  -30.7743  -12.7830   22.7078 N   0  0  0  0  0  0  0  0  0  0  0  0
  -35.6428  -27.3636   22.7573 N   0  3  0  0  0  0  0  0  0  0  0  0
  -22.5866  -14.7627   20.9934 O   0  0  0  0  0  0  0  0  0  0  0  0
  -27.9442  -20.5345   22.8567 O   0  0  0  0  0  0  0  0  0  0  0  0
  -27.8837  -25.8697   19.9716 O   0  0  0  0  0  0  0  0  0  0  0  0
  -30.3990  -28.6565   20.2909 O   0  0  0  0  0  0  0  0  0  0  0  0
  -33.9554  -25.6715   21.2721 O   0  0  0  0  0  0  0  0  0  0  0  0
  -32.3004  -13.1240   21.0311 O   0  0  0  0  0  0  0  0  0  0  0  0
  -21.6439   -7.0611   21.6117 O   0  0  0  0  0  0  0  0  0  0  0  0
  -29.7754  -21.1417   24.1636 O   0  0  0  0  0  0  0  0  0  1  0  0
  -30.4310  -14.9113   24.5887 O   0  0  0  0  0  0  0  0  0  0  0  0
  -18.0746   -7.0362   25.8145 F   0  0  0  0  0  0  0  0  0  0  0  0
  -21.8764   -5.2180   23.6590 F   0  0  0  0  0  0  0  0  0  0  0  0
  1  2  1  0  0  0  0
  1  7  2  0  0  0  0
  2  8  2  0  0  0  0
  3 10  2  0  0  0  0
  3 19  1  0  0  0  0
  4 11  1  0  0  0  0
  4 19  2  0  0  0  0
  5 12  2  0  0  0  0
  5 20  1  0  0  0  0
  6 13  1  0  0  0  0
  6 20  2  0  0  0  0
  7 22  1  0  0  0  0
  8 24  1  0  0  0  0
  9 14  2  0  0  0  0
  9 23  1  0  0  0  0
 10 26  1  0  0  0  0
 11 26  2  0  0  0  0
 12 27  1  0  0  0  0
 13 27  2  0  0  0  0
 14 28  1  0  0  0  0
 15 16  2  0  0  0  0
 15 29  1  0  0  0  0
 16 30  1  0  0  0  0
 17 25  1  0  0  0  0
 17 28  2  0  0  0  0
 18 30  2  0  0  0  0
 18 31  1  0  0  0  0
 19 32  1  0  0  0  0
 20 35  1  0  0  0  0
 21 32  1  0  0  0  0
 21 33  2  0  0  0  0
 21 34  1  0  0  0  0
 22 24  2  0  0  0  0
 22 40  1  0  0  0  0
 23 25  2  0  0  0  0
 23 41  1  0  0  0  0
 24 49  1  0  0  0  0
 25 42  1  0  0  0  0
 26 78  1  0  0  0  0
 27 80  1  0  0  0  0
 28 79  1  0  0  0  0
 29 31  2  0  0  0  0
 29 78  1  0  0  0  0
 30 81  1  0  0  0  0
 31 82  1  0  0  0  0
 32 62  2  0  0  0  0
 33 63  1  0  0  0  0
 33 66  1  0  0  0  0
 34 67  1  0  0  0  0
 34 72  2  0  0  0  0
 35 73  2  0  0  0  0
 35 79  1  0  0  0  0
 36 50  1  0  0  0  0
 36 68  1  0  0  0  0
 36 74  2  0  0  0  0
 37 59  1  0  0  0  0
 37 64  1  0  0  0  0
 37 75  2  0  0  0  0
 38 60  1  0  0  0  0
 38 69  1  0  0  0  0
 38 76  2  0  0  0  0
 39 65  1  0  0  0  0
 39 70  1  0  0  0  0
 39 77  2  0  0  0  0
 40 43  1  0  0  0  0
 41 50  1  0  0  0  0
 42 64  1  0  0  0  0
 43 45  1  0  0  0  0
 44 46  1  0  0  0  0
 44 47  1  0  0  0  0
 45 49  1  0  0  0  0
 46 51  1  0  0  0  0
 47 65  1  0  0  0  0
 48 51  1  0  0  0  0
 48 65  1  0  0  0  0
 49 68  1  0  0  0  0
 50 64  1  0  0  0  0
 51 63  1  0  0  0  0
 52 60  1  0  0  0  0
 53 61  1  0  0  0  0
 54 61  1  0  0  0  0
 55 61  1  0  0  0  0
 56 71  1  0  0  0  0
 57 58  1  0  0  0  0
 57 70  1  0  0  0  0
 58 80  1  0  0  0  0
 59 61  1  0  0  0  0
 59 69  1  0  0  0  0
 60 71  1  0  0  0  0
 62 63  1  0  0  0  0
M  CHG  1  71   1
M  ISO  4  35 101  39 100  70 100  79 101
M  END
> <Batch ID>
0002

> <Smiles>
CNC(C)C(=O)NC(C(=O)N1Cc2cc([101O:1][101C:1](=O)c3ccc(OCC[100NH:0][100C:0](=O)N4CCCC(n5nc(-c6ccc(Oc7ccc(F)cc7F)cc6)c(C(N)=O)c5N)C4)cc3)ccc2CC1C(=O)NC1CCCc2ccccc21)C(C)(C)C

> <Shape>
0.226

> <Color>
0.186

> <Negative vol penalty>
0.000

$$$$

  -OEChem-04042320173D

 83 91  0     1  0  0  0  0  0999 V2000
  -25.7361  -35.0302   23.8854 C   0  0  0  0  0  0  0  0  0  0  0  0
  -26.3348  -33.8181   23.5571 C   0  0  0  0  0  0  0  0  0  0  0  0
  -24.2865  -13.3170   21.4553 C   0  0  0  0  0  0  0  0  0  0  0  0
  -26.3421  -13.3428   20.1860 C   0  0  0  0  0  0  0  0  0  0  0  0
  -24.4180  -35.0550   24.3390 C   0  0  0  0  0  0  0  0  0  0  0  0
  -25.6160  -32.6299   23.6832 C   0  0  0  0  0  0  0  0  0  0  0  0
  -26.1894  -29.5785   19.6826 C   0  0  0  0  0  0  0  0  0  0  0  0
  -24.1738  -11.9427   21.2450 C   0  0  0  0  0  0  0  0  0  0  0  0
  -26.2294  -11.9685   19.9757 C   0  0  0  0  0  0  0  0  0  0  0  0
  -27.3730  -28.8457   19.6052 C   0  0  0  0  0  0  0  0  0  0  0  0
  -25.5181   -9.1104   22.5115 C   0  0  0  0  0  0  0  0  0  0  0  0
  -25.1782   -8.3131   23.6043 C   0  0  0  0  0  0  0  0  0  0  0  0
  -26.2197  -26.9045   20.4542 C   0  0  0  0  0  0  0  0  0  0  0  0
  -23.1955   -7.5664   22.4430 C   0  0  0  0  0  0  0  0  0  0  0  0
  -25.3706  -14.0171   20.9258 C   0  0  0  0  0  0  0  0  0  0  0  0
  -26.1386  -16.0833   22.2098 C   0  0  0  0  0  0  0  0  0  0  0  0
  -23.6794  -33.8675   24.4615 C   0  0  0  0  0  0  0  0  0  0  0  0
  -25.0126  -28.9817   20.1575 C   0  0  0  0  0  0  0  0  0  0  0  0
  -24.2871  -32.6388   24.1401 C   0  0  0  0  0  0  0  0  0  0  0  0
  -25.0219  -27.6311   20.5342 C   0  0  0  0  0  0  0  0  0  0  0  0
  -25.1453  -11.2685   20.5052 C   0  0  0  0  0  0  0  0  0  0  0  0
  -27.3890  -27.5094   19.9937 C   0  0  0  0  0  0  0  0  0  0  0  0
  -24.6966   -9.1359   21.3844 C   0  0  0  0  0  0  0  0  0  0  0  0
  -24.0170   -7.5411   23.5701 C   0  0  0  0  0  0  0  0  0  0  0  0
  -23.5354   -8.3639   21.3502 C   0  0  0  0  0  0  0  0  0  0  0  0
  -25.4873  -15.4368   21.1423 C   0  0  0  0  0  0  0  0  0  0  0  0
  -25.9666  -17.4222   21.9568 C   0  0  0  0  0  0  0  0  0  0  0  0
  -25.1724  -23.8068   13.4972 C   0  0  0  0  0  0  0  0  0  0  0  0
  -26.5047  -24.3328   13.4343 C   0  0  0  0  0  0  0  0  0  0  0  0
  -24.6488  -22.9539   14.3821 C   0  0  0  0  0  0  0  0  0  0  0  0
  -27.4876  -24.2692   14.3348 C   0  0  0  0  0  0  0  0  0  0  0  0
  -26.4680  -22.6190   16.0637 C   0  0  0  0  0  0  0  0  0  0  0  0
  -25.2728  -22.3311   15.5265 C   0  0  0  0  0  0  0  0  0  0  0  0
  -27.5176  -23.5873   15.6517 C   0  0  0  0  0  0  0  0  0  0  0  0
  -26.8369  -15.5235   23.3300 C   0  0  0  0  0  0  0  0  0  0  0  0
  -23.0761  -29.4935   22.6256 C   0  0  0  0  0  0  0  0  0  0  0  0
  -21.2771  -27.2091   21.1877 C   0  0  0  0  0  0  0  0  0  0  0  0
  -21.1419  -24.5276   19.0810 C   0  0  0  0  0  0  0  0  0  0  0  0
  -25.0571  -20.2719   16.7991 C   0  0  0  0  0  0  0  0  0  0  0  0
  -22.2729  -33.9398   25.0011 C   0  0  0  0  0  0  0  0  0  0  0  0
  -23.7379  -29.7784   20.2097 C   0  0  0  0  0  0  0  0  0  0  0  0
  -23.7807  -26.9381   21.0318 C   0  0  0  0  0  0  0  0  0  0  0  0
  -21.4584  -32.6734   24.7500 C   0  0  0  0  0  0  0  0  0  0  0  0
  -22.9897  -20.4935   19.8545 C   0  0  0  0  0  0  0  0  0  0  0  0
  -22.2730  -31.4347   25.1093 C   0  0  0  0  0  0  0  0  0  0  0  0
  -23.4299  -19.2360   20.5979 C   0  0  0  0  0  0  0  0  0  0  0  0
  -22.9989  -20.2969   18.3391 C   0  0  0  0  0  0  0  0  0  0  0  0
  -24.7474  -18.5536   18.5552 C   0  0  0  0  0  0  0  0  0  0  0  0
  -23.5320  -31.3311   24.2400 C   0  0  1  0  0  0  0  0  0  0  0  0
  -22.7190  -29.2117   21.1936 C   0  0  1  0  0  0  0  0  0  0  0  0
  -24.7909  -18.7484   20.0786 C   0  0  2  0  0  0  0  0  0  0  0  0
  -19.5383  -22.8463   18.1329 C   0  0  0  0  0  0  0  0  0  0  0  0
  -21.2814  -25.7100   23.8453 C   0  0  0  0  0  0  0  0  0  0  0  0
  -20.5193  -23.6672   22.6145 C   0  0  0  0  0  0  0  0  0  0  0  0
  -19.0848  -25.7077   22.6498 C   0  0  0  0  0  0  0  0  0  0  0  0
  -21.6526  -25.4310   16.3094 C   0  0  0  0  0  0  0  0  0  0  0  0
  -29.5890  -23.4126   18.6335 C   0  0  0  0  0  0  0  0  0  0  0  0
  -29.6608  -24.9095   18.9367 C   0  0  0  0  0  0  0  0  0  0  0  0
  -28.4104  -23.0558   17.7349 C   0  0  0  0  0  0  0  0  0  0  0  0
  -28.4224  -25.3904   19.6808 C   0  0  0  0  0  0  0  0  0  1  0  0
  -21.1999  -25.7034   21.2647 C   0  0  1  0  0  0  0  0  0  0  0  0
  -20.2083  -24.1965   17.9307 C   0  0  2  0  0  0  0  0  0  0  0  0
  -20.5454  -25.2104   22.5861 C   0  0  0  0  0  0  0  0  0  0  0  0
  -24.9420  -16.2945   20.2757 N   0  0  0  0  0  0  0  0  0  0  0  0
  -28.5072  -23.7907   16.4726 N   0  0  0  0  0  0  0  0  0  0  0  0
  -25.2502  -17.4936   20.7983 N   0  0  0  0  0  0  0  0  0  0  0  0
  -22.5606  -27.7612   21.0705 N   0  0  0  0  0  0  0  0  0  0  0  0
  -24.2898  -19.7687   17.8689 N   0  0  0  0  0  0  0  0  0  0  0  0
  -26.3596  -18.5337   22.6144 N   0  0  0  0  0  0  0  0  0  0  0  0
  -26.9193  -14.1284   23.4366 N   0  0  0  0  0  0  0  0  0  0  0  0
  -24.5160  -21.3682   16.1330 N   0  0  0  0  0  0  0  0  0  0  0  0
  -23.1965  -30.8379   22.9214 N   0  0  0  0  0  0  0  0  0  0  0  0
  -20.5080  -25.2679   20.0564 N   0  0  0  0  0  0  0  0  0  0  0  0
  -20.9624  -24.1592   16.6458 N   0  3  0  0  0  0  0  0  0  0  0  0
  -27.3577  -16.2390   24.2190 O   0  0  0  0  0  0  0  0  0  0  0  0
  -23.2296  -28.5603   23.4049 O   0  0  0  0  0  0  0  0  0  0  0  0
  -20.2366  -27.8706   21.2229 O   0  0  0  0  0  0  0  0  0  0  0  0
  -22.3151  -24.1627   19.1130 O   0  0  0  0  0  0  0  0  0  0  0  0
  -26.1363  -19.7696   16.4647 O   0  0  0  0  0  0  0  0  0  0  0  0
  -25.0358   -9.9274   20.2999 O   0  0  0  0  0  0  0  0  0  0  0  0
  -28.5430  -26.7920   19.9198 O   0  0  0  0  0  0  0  0  0  1  0  0
  -23.6916   -6.7742   24.6190 F   0  0  0  0  0  0  0  0  0  0  0  0
  -22.7429   -8.3833   20.2697 F   0  0  0  0  0  0  0  0  0  0  0  0
  1  2  1  0  0  0  0
  1  5  2  0  0  0  0
  2  6  2  0  0  0  0
  3  8  2  0  0  0  0
  3 15  1  0  0  0  0
  4  9  1  0  0  0  0
  4 15  2  0  0  0  0
  5 17  1  0  0  0  0
  6 19  1  0  0  0  0
  7 10  2  0  0  0  0
  7 18  1  0  0  0  0
  8 21  1  0  0  0  0
  9 21  2  0  0  0  0
 10 22  1  0  0  0  0
 11 12  2  0  0  0  0
 11 23  1  0  0  0  0
 12 24  1  0  0  0  0
 13 20  1  0  0  0  0
 13 22  2  0  0  0  0
 14 24  2  0  0  0  0
 14 25  1  0  0  0  0
 15 26  1  0  0  0  0
 16 26  1  0  0  0  0
 16 27  2  0  0  0  0
 16 35  1  0  0  0  0
 17 19  2  0  0  0  0
 17 40  1  0  0  0  0
 18 20  2  0  0  0  0
 18 41  1  0  0  0  0
 19 49  1  0  0  0  0
 20 42  1  0  0  0  0
 21 80  1  0  0  0  0
 22 81  1  0  0  0  0
 23 25  2  0  0  0  0
 23 80  1  0  0  0  0
 24 82  1  0  0  0  0
 25 83  1  0  0  0  0
 26 64  2  0  0  0  0
 27 66  1  0  0  0  0
 27 69  1  0  0  0  0
 28 29  1  0  0  0  0
 28 30  2  0  0  0  0
 29 31  2  0  0  0  0
 30 33  1  0  0  0  0
 31 34  1  0  0  0  0
 32 33  2  0  0  0  0
 32 34  1  0  0  0  0
 33 71  1  0  0  0  0
 34 65  2  0  0  0  0
 35 70  1  0  0  0  0
 35 75  2  0  0  0  0
 36 50  1  0  0  0  0
 36 72  1  0  0  0  0
 36 76  2  0  0  0  0
 37 61  1  0  0  0  0
 37 67  1  0  0  0  0
 37 77  2  0  0  0  0
 38 62  1  0  0  0  0
 38 73  1  0  0  0  0
 38 78  2  0  0  0  0
 39 68  1  0  0  0  0
 39 71  1  0  0  0  0
 39 79  2  0  0  0  0
 40 43  1  0  0  0  0
 41 50  1  0  0  0  0
 42 67  1  0  0  0  0
 43 45  1  0  0  0  0
 44 46  1  0  0  0  0
 44 47  1  0  0  0  0
 45 49  1  0  0  0  0
 46 51  1  0  0  0  0
 47 68  1  0  0  0  0
 48 51  1  0  0  0  0
 48 68  1  0  0  0  0
 49 72  1  0  0  0  0
 50 67  1  0  0  0  0
 51 66  1  0  0  0  0
 52 62  1  0  0  0  0
 53 63  1  0  0  0  0
 54 63  1  0  0  0  0
 55 63  1  0  0  0  0
 56 74  1  0  0  0  0
 57 58  1  0  0  0  0
 57 59  1  0  0  0  0
 58 60  1  0  0  0  0
 59 65  1  0  0  0  0
 60 81  1  0  0  0  0
 61 63  1  0  0  0  0
 61 73  1  0  0  0  0
 62 74  1  0  0  0  0
 64 66  1  0  0  0  0
M  CHG  1  74   1
M  ISO  4  39 100  60 101  71 100  81 101
M  END
> <Batch ID>
0002

> <Smiles>
CNC(C)C(=O)NC(C(=O)N1Cc2cc([101O:1][101CH2:1]CCCN=c3ccccc([100NH:0][100C:0](=O)N4CCCC(n5nc(-c6ccc(Oc7ccc(F)cc7F)cc6)c(C(N)=O)c5N)C4)c3)ccc2CC1C(=O)NC1CCCc2ccccc21)C(C)(C)C

> <Shape>
0.216

> <Color>
0.081

> <Negative vol penalty>
0.000

$$$$

  -OEChem-04042320173D

 80 88  0     1  0  0  0  0  0999 V2000
  -30.4986  -26.5607    8.3086 C   0  0  0  0  0  0  0  0  0  0  0  0
  -30.3226  -25.5545    9.2531 C   0  0  0  0  0  0  0  0  0  0  0  0
  -22.9864   -9.9071   19.9846 C   0  0  0  0  0  0  0  0  0  0  0  0
  -23.7196   -9.9489   22.2863 C   0  0  0  0  0  0  0  0  0  0  0  0
  -31.3779  -19.3183   19.1088 C   0  0  0  0  0  0  0  0  0  0  0  0
  -29.1591  -19.6267   20.0138 C   0  0  0  0  0  0  0  0  0  0  0  0
  -30.8783  -27.8389    8.7159 C   0  0  0  0  0  0  0  0  0  0  0  0
  -30.5274  -25.8257   10.6055 C   0  0  0  0  0  0  0  0  0  0  0  0
  -27.4715  -23.4347   15.3436 C   0  0  0  0  0  0  0  0  0  0  0  0
  -31.6031  -18.2816   20.0143 C   0  0  0  0  0  0  0  0  0  0  0  0
  -29.3844  -18.5899   20.9193 C   0  0  0  0  0  0  0  0  0  0  0  0
  -22.2152   -8.7758   20.2508 C   0  0  0  0  0  0  0  0  0  0  0  0
  -22.9483   -8.8176   22.5525 C   0  0  0  0  0  0  0  0  0  0  0  0
  -27.7648  -22.3886   16.2173 C   0  0  0  0  0  0  0  0  0  0  0  0
  -23.1744   -5.4786   22.0717 C   0  0  0  0  0  0  0  0  0  0  0  0
  -23.7594   -4.4567   22.8194 C   0  0  0  0  0  0  0  0  0  0  0  0
  -28.6360  -23.9739   17.8133 C   0  0  0  0  0  0  0  0  0  0  0  0
  -22.0424   -4.7041   24.5010 C   0  0  0  0  0  0  0  0  0  0  0  0
  -23.7387  -10.4936   21.0023 C   0  0  0  0  0  0  0  0  0  0  0  0
  -30.1558  -19.9909   19.1085 C   0  0  0  0  0  0  0  0  0  0  0  0
  -24.1359  -13.0077   20.8310 C   0  0  0  0  0  0  0  0  0  0  0  0
  -31.0784  -28.1284   10.0749 C   0  0  0  0  0  0  0  0  0  0  0  0
  -27.7686  -24.7595   15.6943 C   0  0  0  0  0  0  0  0  0  0  0  0
  -30.9115  -27.1087   11.0312 C   0  0  0  0  0  0  0  0  0  0  0  0
  -28.3430  -25.0352   16.9433 C   0  0  0  0  0  0  0  0  0  0  0  0
  -30.6064  -17.9173   20.9196 C   0  0  0  0  0  0  0  0  0  0  0  0
  -22.1961   -8.2310   21.5347 C   0  0  0  0  0  0  0  0  0  0  0  0
  -28.3498  -22.6578   17.4512 C   0  0  0  0  0  0  0  0  0  0  0  0
  -22.0234   -6.1134   22.5387 C   0  0  0  0  0  0  0  0  0  0  0  0
  -23.1934   -4.0694   24.0340 C   0  0  0  0  0  0  0  0  0  0  0  0
  -21.4574   -5.7261   23.7534 C   0  0  0  0  0  0  0  0  0  0  0  0
  -24.5361  -11.6619   20.7278 C   0  0  0  0  0  0  0  0  0  0  0  0
  -25.2481  -13.7256   20.4646 C   0  0  0  0  0  0  0  0  0  0  0  0
  -22.8720  -13.5595   21.2232 C   0  0  0  0  0  0  0  0  0  0  0  0
  -29.9146  -21.0949   18.1442 C   0  0  0  0  0  0  0  0  0  1  0  0
  -29.6527  -27.0262   14.5043 C   0  0  0  0  0  0  0  0  0  0  0  0
  -28.2331  -28.8547   16.7765 C   0  0  0  0  0  0  0  0  0  0  0  0
  -26.5878  -29.0062   19.7627 C   0  0  0  0  0  0  0  0  0  0  0  0
  -30.7498  -14.6323   20.6968 C   0  0  0  0  0  0  0  0  0  0  0  0
  -31.5343  -29.5128   10.4627 C   0  0  0  0  0  0  0  0  0  0  0  0
  -27.4214  -25.8791   14.7517 C   0  0  0  0  0  0  0  0  0  0  0  0
  -28.6631  -26.4420   17.3758 C   0  0  0  0  0  0  0  0  0  0  0  0
  -31.3670  -29.8149   11.9497 C   0  0  0  0  0  0  0  0  0  0  0  0
  -29.5892  -12.2200   18.3494 C   0  0  0  0  0  0  0  0  0  0  0  0
  -31.8882  -28.6550   12.7921 C   0  0  0  0  0  0  0  0  0  0  0  0
  -28.1408  -11.9665   18.7712 C   0  0  0  0  0  0  0  0  0  0  0  0
  -30.4968  -12.4480   19.5561 C   0  0  0  0  0  0  0  0  0  0  0  0
  -28.5952  -13.2498   20.9033 C   0  0  0  0  0  0  0  0  0  0  0  0
  -31.1000  -27.3703   12.5098 C   0  0  1  0  0  0  0  0  0  0  0  0
  -28.2387  -27.1433   14.9987 C   0  0  1  0  0  0  0  0  0  0  0  0
  -27.6313  -13.0697   19.7181 C   0  0  2  0  0  0  0  0  0  0  0  0
  -25.5890  -30.6439   21.3806 C   0  0  0  0  0  0  0  0  0  0  0  0
  -31.0287  -29.5939   17.7504 C   0  0  0  0  0  0  0  0  0  0  0  0
  -29.9943  -30.4192   19.8757 C   0  0  0  0  0  0  0  0  0  0  0  0
  -29.4038  -31.4944   17.7037 C   0  0  0  0  0  0  0  0  0  0  0  0
  -23.8852  -27.8402   19.4538 C   0  0  0  0  0  0  0  0  0  0  0  0
  -30.8474  -16.8079   21.8869 C   0  0  0  0  0  0  0  0  0  0  0  0
  -28.5239  -29.1815   18.2214 C   0  0  1  0  0  0  0  0  0  0  0  0
  -25.3291  -29.7434   20.1830 C   0  0  2  0  0  0  0  0  0  0  0  0
  -29.7335  -30.1455   18.3791 C   0  0  0  0  0  0  0  0  0  0  0  0
  -25.8034  -11.5301   20.3270 N   0  0  0  0  0  0  0  0  0  0  0  0
  -26.2092  -12.8022   20.1751 N   0  0  0  0  0  0  0  0  0  0  0  0
  -28.3106  -27.5018   16.4167 N   0  0  0  0  0  0  0  0  0  0  0  0
  -29.9582  -13.5073   20.4126 N   0  0  0  0  0  0  0  0  0  0  0  0
  -25.4878  -15.0504   20.3650 N   0  0  0  0  0  0  0  0  0  0  0  0
  -21.8370  -12.6796   21.5681 N   0  0  0  0  0  0  0  0  0  0  0  0
  -29.8207  -27.4034   13.1856 N   0  0  0  0  0  0  0  0  0  0  0  0
  -27.2774  -29.6899   18.7837 N   0  0  0  0  0  0  0  0  0  0  0  0
  -30.1610  -15.5921   21.5110 N   0  0  0  0  0  0  0  0  0  0  0  0
  -24.2582  -28.7735   20.5479 N   0  3  0  0  0  0  0  0  0  0  0  0
  -22.6615  -14.7958   21.2506 O   0  0  0  0  0  0  0  0  0  0  0  0
  -30.7449  -21.4619   17.3263 O   0  0  0  0  0  0  0  0  0  0  0  0
  -30.5270  -26.6247   15.2634 O   0  0  0  0  0  0  0  0  0  0  0  0
  -27.9408  -29.7654   15.9975 O   0  0  0  0  0  0  0  0  0  0  0  0
  -26.9275  -27.9331   20.2562 O   0  0  0  0  0  0  0  0  0  0  0  0
  -31.8945  -14.7736   20.2532 O   0  0  0  0  0  0  0  0  0  0  0  0
  -21.4434   -7.1272   21.7949 O   0  0  0  0  0  0  0  0  0  0  0  0
  -28.6379  -21.6386   18.3056 O   0  0  0  0  0  0  0  0  0  1  0  0
  -23.7544   -3.0870   24.7512 F   0  0  0  0  0  0  0  0  0  0  0  0
  -20.3511   -6.3314   24.2066 F   0  0  0  0  0  0  0  0  0  0  0  0
  1  2  1  0  0  0  0
  1  7  2  0  0  0  0
  2  8  2  0  0  0  0
  3 12  2  0  0  0  0
  3 19  1  0  0  0  0
  4 13  1  0  0  0  0
  4 19  2  0  0  0  0
  5 10  2  0  0  0  0
  5 20  1  0  0  0  0
  6 11  1  0  0  0  0
  6 20  2  0  0  0  0
  7 22  1  0  0  0  0
  8 24  1  0  0  0  0
  9 14  2  0  0  0  0
  9 23  1  0  0  0  0
 10 26  1  0  0  0  0
 11 26  2  0  0  0  0
 12 27  1  0  0  0  0
 13 27  2  0  0  0  0
 14 28  1  0  0  0  0
 15 16  2  0  0  0  0
 15 29  1  0  0  0  0
 16 30  1  0  0  0  0
 17 25  1  0  0  0  0
 17 28  2  0  0  0  0
 18 30  2  0  0  0  0
 18 31  1  0  0  0  0
 19 32  1  0  0  0  0
 20 35  1  0  0  0  0
 21 32  1  0  0  0  0
 21 33  2  0  0  0  0
 21 34  1  0  0  0  0
 22 24  2  0  0  0  0
 22 40  1  0  0  0  0
 23 25  2  0  0  0  0
 23 41  1  0  0  0  0
 24 49  1  0  0  0  0
 25 42  1  0  0  0  0
 26 57  1  0  0  0  0
 27 77  1  0  0  0  0
 28 78  1  0  0  0  0
 29 31  2  0  0  0  0
 29 77  1  0  0  0  0
 30 79  1  0  0  0  0
 31 80  1  0  0  0  0
 32 61  2  0  0  0  0
 33 62  1  0  0  0  0
 33 65  1  0  0  0  0
 34 66  1  0  0  0  0
 34 71  2  0  0  0  0
 35 72  2  0  0  0  0
 35 78  1  0  0  0  0
 36 50  1  0  0  0  0
 36 67  1  0  0  0  0
 36 73  2  0  0  0  0
 37 58  1  0  0  0  0
 37 63  1  0  0  0  0
 37 74  2  0  0  0  0
 38 59  1  0  0  0  0
 38 68  1  0  0  0  0
 38 75  2  0  0  0  0
 39 64  1  0  0  0  0
 39 69  1  0  0  0  0
 39 76  2  0  0  0  0
 40 43  1  0  0  0  0
 41 50  1  0  0  0  0
 42 63  1  0  0  0  0
 43 45  1  0  0  0  0
 44 46  1  0  0  0  0
 44 47  1  0  0  0  0
 45 49  1  0  0  0  0
 46 51  1  0  0  0  0
 47 64  1  0  0  0  0
 48 51  1  0  0  0  0
 48 64  1  0  0  0  0
 49 67  1  0  0  0  0
 50 63  1  0  0  0  0
 51 62  1  0  0  0  0
 52 59  1  0  0  0  0
 53 60  1  0  0  0  0
 54 60  1  0  0  0  0
 55 60  1  0  0  0  0
 56 70  1  0  0  0  0
 57 69  1  0  0  0  0
 58 60  1  0  0  0  0
 58 68  1  0  0  0  0
 59 70  1  0  0  0  0
 61 62  1  0  0  0  0
M  CHG  1  70   1
M  ISO  4  35 101  39 100  69 100  78 101
M  END
> <Batch ID>
0002

> <Smiles>
CNC(C)C(=O)NC(C(=O)N1Cc2cc([101O:1][101C:1](=O)c3ccc(C[100NH:0][100C:0](=O)N4CCCC(n5nc(-c6ccc(Oc7ccc(F)cc7F)cc6)c(C(N)=O)c5N)C4)cc3)ccc2CC1C(=O)NC1CCCc2ccccc21)C(C)(C)C

> <Shape>
0.255

> <Color>
0.207

> <Negative vol penalty>
0.000

$$$$

  -OEChem-04042320173D

 83 91  0     1  0  0  0  0  0999 V2000
  -26.2365  -24.1380   20.9531 C   0  0  0  0  0  0  0  0  0  0  0  0
  -26.6212  -23.2728   21.9723 C   0  0  0  0  0  0  0  0  0  0  0  0
  -33.5928  -11.9596   24.7958 C   0  0  0  0  0  0  0  0  0  0  0  0
  -23.2878   -9.8006   19.9133 C   0  0  0  0  0  0  0  0  0  0  0  0
  -23.7418   -9.9401   22.2822 C   0  0  0  0  0  0  0  0  0  0  0  0
  -26.8790  -24.0864   19.7168 C   0  0  0  0  0  0  0  0  0  0  0  0
  -27.6480  -22.3545   21.7553 C   0  0  0  0  0  0  0  0  0  0  0  0
  -31.7880  -20.4287   25.8366 C   0  0  0  0  0  0  0  0  0  0  0  0
  -33.0177  -11.9643   26.0666 C   0  0  0  0  0  0  0  0  0  0  0  0
  -32.8186  -12.2736   23.6787 C   0  0  0  0  0  0  0  0  0  0  0  0
  -22.5621   -8.6278   20.1215 C   0  0  0  0  0  0  0  0  0  0  0  0
  -23.0160   -8.7673   22.4903 C   0  0  0  0  0  0  0  0  0  0  0  0
  -31.8632  -19.2828   26.6271 C   0  0  0  0  0  0  0  0  0  0  0  0
  -19.7695   -7.8552   22.7117 C   0  0  0  0  0  0  0  0  0  0  0  0
  -18.8686   -7.8328   23.7764 C   0  0  0  0  0  0  0  0  0  0  0  0
  -33.2776  -18.2420   24.9731 C   0  0  0  0  0  0  0  0  0  0  0  0
  -30.8943  -12.5969   25.1033 C   0  0  0  0  0  0  0  0  0  0  0  0
  -20.0763   -5.9854   24.7592 C   0  0  0  0  0  0  0  0  0  0  0  0
  -23.8778  -10.4568   20.9937 C   0  0  0  0  0  0  0  0  0  0  0  0
  -24.1362  -12.9869   20.7960 C   0  0  0  0  0  0  0  0  0  0  0  0
  -27.9206  -23.1737   19.4876 C   0  0  0  0  0  0  0  0  0  0  0  0
  -32.4492  -20.4860   24.6013 C   0  0  0  0  0  0  0  0  0  0  0  0
  -28.3041  -22.2897   20.5143 C   0  0  0  0  0  0  0  0  0  0  0  0
  -33.2113  -19.3908   24.1700 C   0  0  0  0  0  0  0  0  0  0  0  0
  -31.6685  -12.2829   26.2203 C   0  0  0  0  0  0  0  0  0  0  0  0
  -31.4694  -12.5922   23.8325 C   0  0  0  0  0  0  0  0  0  0  0  0
  -22.4261   -8.1111   21.4100 C   0  0  0  0  0  0  0  0  0  0  0  0
  -32.6057  -18.1881   26.1941 C   0  0  0  0  0  0  0  0  0  0  0  0
  -20.8238   -6.9427   22.6708 C   0  0  0  0  0  0  0  0  0  0  0  0
  -19.0220   -6.8979   24.8001 C   0  0  0  0  0  0  0  0  0  0  0  0
  -20.9771   -6.0079   23.6945 C   0  0  0  0  0  0  0  0  0  0  0  0
  -24.6281  -11.6680   20.7792 C   0  0  0  0  0  0  0  0  0  0  0  0
  -25.2371  -13.7672   20.5399 C   0  0  0  0  0  0  0  0  0  0  0  0
  -22.8033  -13.4641   21.0228 C   0  0  0  0  0  0  0  0  0  0  0  0
  -31.5294  -20.8347   21.5787 C   0  0  0  0  0  0  0  0  0  0  0  0
  -34.7238  -20.9660   21.0300 C   0  0  0  0  0  0  0  0  0  0  0  0
  -37.8765  -20.1706   22.0664 C   0  0  0  0  0  0  0  0  0  0  0  0
  -31.0988  -12.9541   21.3671 C   0  0  0  0  0  0  0  0  0  0  0  0
  -28.5534  -23.1228   18.1196 C   0  0  0  0  0  0  0  0  0  0  0  0
  -32.3801  -21.7394   23.7727 C   0  0  0  0  0  0  0  0  0  0  0  0
  -33.9563  -19.4093   22.8612 C   0  0  0  0  0  0  0  0  0  0  0  0
  -29.8844  -22.3758   18.0915 C   0  0  0  0  0  0  0  0  0  0  0  0
  -29.4609  -13.6596   18.2854 C   0  0  0  0  0  0  0  0  0  0  0  0
  -29.7725  -21.0570   18.8500 C   0  0  0  0  0  0  0  0  0  0  0  0
  -27.9901  -13.3548   18.5785 C   0  0  0  0  0  0  0  0  0  0  0  0
  -30.3953  -12.6843   18.9991 C   0  0  0  0  0  0  0  0  0  0  0  0
  -28.7047  -12.2549   20.7388 C   0  0  0  0  0  0  0  0  0  0  0  0
  -29.4302  -21.2966   20.3254 C   0  0  1  0  0  0  0  0  0  0  0  0
  -32.6725  -21.4960   22.2954 C   0  0  1  0  0  0  0  0  0  0  0  0
  -27.7271  -13.2509   20.0937 C   0  0  2  0  0  0  0  0  0  0  0  0
  -31.0722  -10.8846   28.2261 C   0  0  0  0  0  0  0  0  0  0  0  0
  -40.2839  -20.3786   21.3893 C   0  0  0  0  0  0  0  0  0  0  0  0
  -34.3362  -18.7416   18.9778 C   0  0  0  0  0  0  0  0  0  0  0  0
  -36.8076  -18.3463   19.0427 C   0  0  0  0  0  0  0  0  0  0  0  0
  -35.9179  -20.5463   18.2739 C   0  0  0  0  0  0  0  0  0  0  0  0
  -38.5409  -21.7443   24.4833 C   0  0  0  0  0  0  0  0  0  0  0  0
  -32.1211  -15.7389   28.8878 C   0  0  0  0  0  0  0  0  0  0  0  0
  -31.6986  -13.2996   28.5563 C   0  0  0  0  0  0  0  0  0  0  0  0
  -31.9730  -17.0831   28.2027 C   0  0  0  0  0  0  0  0  0  1  0  0
  -31.0406  -12.2879   27.6090 C   0  0  1  0  0  0  0  0  0  0  0  0
  -35.7993  -19.9506   20.7281 C   0  0  1  0  0  0  0  0  0  0  0  0
  -39.1413  -21.0032   22.1748 C   0  0  2  0  0  0  0  0  0  0  0  0
  -35.6997  -19.3948   19.2795 C   0  0  0  0  0  0  0  0  0  0  0  0
  -25.9394  -11.6098   20.5318 N   0  0  0  0  0  0  0  0  0  0  0  0
  -26.2808  -12.9020   20.3907 N   0  0  0  0  0  0  0  0  0  0  0  0
  -33.8527  -20.6553   22.0838 N   0  0  0  0  0  0  0  0  0  0  0  0
  -30.0905  -12.6416   20.4309 N   0  0  0  0  0  0  0  0  0  0  0  0
  -25.4045  -15.1023   20.4298 N   0  0  0  0  0  0  0  0  0  0  0  0
  -21.7914  -12.5268   21.2713 N   0  0  0  0  0  0  0  0  0  0  0  0
  -30.6834  -12.9118   22.6976 N   0  0  0  0  0  0  0  0  0  0  0  0
  -30.6063  -21.7196   21.0549 N   0  0  0  0  0  0  0  0  0  0  0  0
  -37.0701  -20.5990   21.0333 N   0  0  0  0  0  0  0  0  0  0  0  0
  -39.5613  -21.1241   23.5996 N   0  3  0  0  0  0  0  0  0  0  0  0
  -31.5822  -14.6758   28.0026 N   0  3  0  0  0  0  0  0  0  0  0  0
  -22.5151  -14.6844   20.9896 O   0  0  0  0  0  0  0  0  0  0  0  0
  -31.4887  -19.6121   21.5051 O   0  0  0  0  0  0  0  0  0  0  0  0
  -34.6633  -22.0002   20.3603 O   0  0  0  0  0  0  0  0  0  0  0  0
  -37.6305  -19.2317   22.8203 O   0  0  0  0  0  0  0  0  0  0  0  0
  -32.2391  -13.2649   21.0133 O   0  0  0  0  0  0  0  0  0  0  0  0
  -21.7178   -6.9668   21.6135 O   0  0  0  0  0  0  0  0  0  0  0  0
  -32.6802  -17.0681   26.9634 O   0  0  0  0  0  0  0  0  0  1  0  0
  -18.1577   -6.8774   25.8232 F   0  0  0  0  0  0  0  0  0  0  0  0
  -21.9887   -5.1295   23.6613 F   0  0  0  0  0  0  0  0  0  0  0  0
  1  2  1  0  0  0  0
  1  6  2  0  0  0  0
  2  7  2  0  0  0  0
  3  9  2  0  0  0  0
  3 10  1  0  0  0  0
  4 11  2  0  0  0  0
  4 19  1  0  0  0  0
  5 12  1  0  0  0  0
  5 19  2  0  0  0  0
  6 21  1  0  0  0  0
  7 23  1  0  0  0  0
  8 13  2  0  0  0  0
  8 22  1  0  0  0  0
  9 25  1  0  0  0  0
 10 26  2  0  0  0  0
 11 27  1  0  0  0  0
 12 27  2  0  0  0  0
 13 28  1  0  0  0  0
 14 15  2  0  0  0  0
 14 29  1  0  0  0  0
 15 30  1  0  0  0  0
 16 24  1  0  0  0  0
 16 28  2  0  0  0  0
 17 25  2  0  0  0  0
 17 26  1  0  0  0  0
 18 30  2  0  0  0  0
 18 31  1  0  0  0  0
 19 32  1  0  0  0  0
 20 32  1  0  0  0  0
 20 33  2  0  0  0  0
 20 34  1  0  0  0  0
 21 23  2  0  0  0  0
 21 39  1  0  0  0  0
 22 24  2  0  0  0  0
 22 40  1  0  0  0  0
 23 48  1  0  0  0  0
 24 41  1  0  0  0  0
 25 60  1  0  0  0  0
 26 70  1  0  0  0  0
 27 80  1  0  0  0  0
 28 81  1  0  0  0  0
 29 31  2  0  0  0  0
 29 80  1  0  0  0  0
 30 82  1  0  0  0  0
 31 83  1  0  0  0  0
 32 64  2  0  0  0  0
 33 65  1  0  0  0  0
 33 68  1  0  0  0  0
 34 69  1  0  0  0  0
 34 75  2  0  0  0  0
 35 49  1  0  0  0  0
 35 71  1  0  0  0  0
 35 76  2  0  0  0  0
 36 61  1  0  0  0  0
 36 66  1  0  0  0  0
 36 77  2  0  0  0  0
 37 62  1  0  0  0  0
 37 72  1  0  0  0  0
 37 78  2  0  0  0  0
 38 67  1  0  0  0  0
 38 70  1  0  0  0  0
 38 79  2  0  0  0  0
 39 42  1  0  0  0  0
 40 49  1  0  0  0  0
 41 66  1  0  0  0  0
 42 44  1  0  0  0  0
 43 45  1  0  0  0  0
 43 46  1  0  0  0  0
 44 48  1  0  0  0  0
 45 50  1  0  0  0  0
 46 67  1  0  0  0  0
 47 50  1  0  0  0  0
 47 67  1  0  0  0  0
 48 71  1  0  0  0  0
 49 66  1  0  0  0  0
 50 65  1  0  0  0  0
 51 60  1  0  0  0  0
 52 62  1  0  0  0  0
 53 63  1  0  0  0  0
 54 63  1  0  0  0  0
 55 63  1  0  0  0  0
 56 73  1  0  0  0  0
 57 59  1  0  0  0  0
 57 74  1  0  0  0  0
 58 60  1  0  0  0  0
 58 74  1  0  0  0  0
 59 81  1  0  0  0  0
 61 63  1  0  0  0  0
 61 72  1  0  0  0  0
 62 73  1  0  0  0  0
 64 65  1  0  0  0  0
M  CHG  2  73   1  74   1
M  ISO  4  38 100  59 101  70 100  81 101
M  END
> <Batch ID>
0002

> <Smiles>
CNC(C)C(=O)NC(C(=O)N1Cc2cc([101O:1][101CH2:1]CNCC(C)c3cccc([100NH:0][100C:0](=O)N4CCCC(n5nc(-c6ccc(Oc7ccc(F)cc7F)cc6)c(C(N)=O)c5N)C4)c3)ccc2CC1C(=O)NC1CCCc2ccccc21)C(C)(C)C

> <Shape>
0.172

> <Color>
0.171

> <Negative vol penalty>
0.000

$$$$

  -OEChem-04042320173D

 79 87  0     1  0  0  0  0  0999 V2000
  -30.3817  -24.2799   17.5455 C   0  0  0  0  0  0  0  0  0  0  0  0
  -29.0087  -24.2038   17.7566 C   0  0  0  0  0  0  0  0  0  0  0  0
  -27.2509  -17.1656   21.2377 C   0  0  0  0  0  0  0  0  0  0  0  0
  -27.2752  -17.0670   18.8239 C   0  0  0  0  0  0  0  0  0  0  0  0
  -31.1940  -24.9270   18.4757 C   0  0  0  0  0  0  0  0  0  0  0  0
  -28.4473  -24.7738   18.8987 C   0  0  0  0  0  0  0  0  0  0  0  0
  -22.9651  -27.4649   19.3558 C   0  0  0  0  0  0  0  0  0  0  0  0
  -18.8146  -23.9707   21.1497 C   0  0  0  0  0  0  0  0  0  0  0  0
  -20.0013  -23.1531   23.0889 C   0  0  0  0  0  0  0  0  0  0  0  0
  -19.0950  -22.7816   20.4767 C   0  0  0  0  0  0  0  0  0  0  0  0
  -20.2816  -21.9639   22.4160 C   0  0  0  0  0  0  0  0  0  0  0  0
  -28.6010  -17.5158   21.2371 C   0  0  0  0  0  0  0  0  0  0  0  0
  -28.6254  -17.4173   18.8232 C   0  0  0  0  0  0  0  0  0  0  0  0
  -21.7312  -27.0076   19.8164 C   0  0  0  0  0  0  0  0  0  0  0  0
  -31.9496  -18.7882   21.8558 C   0  0  0  0  0  0  0  0  0  0  0  0
  -32.3497  -19.8302   22.6923 C   0  0  0  0  0  0  0  0  0  0  0  0
  -22.1853  -27.9776   21.9779 C   0  0  0  0  0  0  0  0  0  0  0  0
  -30.8555  -21.3342   21.5338 C   0  0  0  0  0  0  0  0  0  0  0  0
  -26.5880  -16.9411   20.0311 C   0  0  0  0  0  0  0  0  0  0  0  0
  -24.6089  -15.4480   20.6324 C   0  0  0  0  0  0  0  0  0  0  0  0
  -30.6411  -25.5137   19.6250 C   0  0  0  0  0  0  0  0  0  0  0  0
  -23.8245  -28.1738   20.2075 C   0  0  0  0  0  0  0  0  0  0  0  0
  -29.2532  -25.4282   19.8458 C   0  0  0  0  0  0  0  0  0  0  0  0
  -23.4284  -28.4451   21.5250 C   0  0  0  0  0  0  0  0  0  0  0  0
  -19.2678  -24.1565   22.4558 C   0  0  0  0  0  0  0  0  0  0  0  0
  -19.8284  -21.7781   21.1099 C   0  0  0  0  0  0  0  0  0  0  0  0
  -29.2883  -17.6417   20.0299 C   0  0  0  0  0  0  0  0  0  0  0  0
  -21.3424  -27.2614   21.1284 C   0  0  0  0  0  0  0  0  0  0  0  0
  -31.0025  -19.0193   20.8581 C   0  0  0  0  0  0  0  0  0  0  0  0
  -31.8026  -21.1031   22.5314 C   0  0  0  0  0  0  0  0  0  0  0  0
  -30.4554  -20.2922   20.6972 C   0  0  0  0  0  0  0  0  0  0  0  0
  -25.1934  -16.5788   20.0311 C   0  0  0  0  0  0  0  0  0  0  0  0
  -23.2698  -15.5620   20.3489 C   0  0  0  0  0  0  0  0  0  0  0  0
  -25.2216  -14.3893   21.3803 C   0  0  0  0  0  0  0  0  0  0  0  0
  -26.7489  -27.6879   21.3544 C   0  0  0  0  0  0  0  0  0  0  0  0
  -26.3600  -30.6825   22.5389 C   0  0  0  0  0  0  0  0  0  0  0  0
  -24.2221  -33.1496   23.5337 C   0  0  0  0  0  0  0  0  0  0  0  0
  -19.7379  -20.2248   19.1287 C   0  0  0  0  0  0  0  0  0  0  0  0
  -31.5652  -26.1613   20.6256 C   0  0  0  0  0  0  0  0  0  0  0  0
  -25.1407  -28.6834   19.6875 C   0  0  0  0  0  0  0  0  0  0  0  0
  -24.3058  -29.2193   22.4733 C   0  0  0  0  0  0  0  0  0  0  0  0
  -30.8455  -27.0654   21.6232 C   0  0  0  0  0  0  0  0  0  0  0  0
  -20.2753  -17.3658   17.0757 C   0  0  0  0  0  0  0  0  0  0  0  0
  -29.6066  -26.3692   22.1773 C   0  0  0  0  0  0  0  0  0  0  0  0
  -21.5409  -16.7332   17.6592 C   0  0  0  0  0  0  0  0  0  0  0  0
  -20.3329  -18.8918   17.1176 C   0  0  0  0  0  0  0  0  0  0  0  0
  -21.8983  -18.8332   19.0191 C   0  0  0  0  0  0  0  0  0  0  0  0
  -28.6038  -26.0558   21.0602 C   0  0  1  0  0  0  0  0  0  0  0  0
  -26.1572  -28.9500   20.7934 C   0  0  1  0  0  0  0  0  0  0  0  0
  -21.8592  -17.2968   19.0580 C   0  0  2  0  0  0  0  0  0  0  0  0
  -24.1998  -35.4694   24.4906 C   0  0  0  0  0  0  0  0  0  0  0  0
  -27.0744  -29.5550   25.2827 C   0  0  0  0  0  0  0  0  0  0  0  0
  -26.1268  -31.6339   26.3065 C   0  0  0  0  0  0  0  0  0  0  0  0
  -28.0894  -31.7833   24.7740 C   0  0  0  0  0  0  0  0  0  0  0  0
  -22.8102  -34.2359   21.1704 C   0  0  0  0  0  0  0  0  0  0  0  0
  -18.9645  -25.4434   23.1839 C   0  0  0  0  0  0  0  0  0  0  0  0
  -20.0432  -26.4994   22.9690 C   0  0  0  0  0  0  0  0  0  1  0  0
  -25.8074  -31.2627   23.8183 C   0  0  1  0  0  0  0  0  0  0  0  0
  -24.1814  -34.6343   23.2197 C   0  0  2  0  0  0  0  0  0  0  0  0
  -26.7586  -31.0424   25.0283 C   0  0  0  0  0  0  0  0  0  0  0  0
  -24.2989  -17.3540   19.4122 N   0  0  0  0  0  0  0  0  0  0  0  0
  -23.1388  -16.7092   19.6230 N   0  0  0  0  0  0  0  0  0  0  0  0
  -25.5858  -29.6910   21.9198 N   0  0  0  0  0  0  0  0  0  0  0  0
  -20.6343  -19.3534   18.4745 N   0  0  0  0  0  0  0  0  0  0  0  0
  -22.2035  -14.7917   20.6521 N   0  0  0  0  0  0  0  0  0  0  0  0
  -25.6731  -13.2570   20.6886 N   0  0  0  0  0  0  0  0  0  0  0  0
  -20.1131  -20.5699   20.4266 N   0  0  0  0  0  0  0  0  0  0  0  0
  -27.8756  -27.2490   20.6854 N   0  0  0  0  0  0  0  0  0  0  0  0
  -25.5125  -32.6636   23.5373 N   0  0  0  0  0  0  0  0  0  0  0  0
  -22.9463  -34.9685   22.4556 N   0  3  0  0  0  0  0  0  0  0  0  0
  -25.3497  -14.4385   22.6272 O   0  0  0  0  0  0  0  0  0  0  0  0
  -26.2232  -27.1527   22.3233 O   0  0  0  0  0  0  0  0  0  0  0  0
  -27.4354  -31.0989   22.1010 O   0  0  0  0  0  0  0  0  0  0  0  0
  -23.2108  -32.4881   23.7573 O   0  0  0  0  0  0  0  0  0  0  0  0
  -18.6992  -20.6130   18.5880 O   0  0  0  0  0  0  0  0  0  0  0  0
  -30.6057  -17.9836   20.0288 O   0  0  0  0  0  0  0  0  0  0  0  0
  -20.1388  -26.8156   21.5807 O   0  0  0  0  0  0  0  0  0  1  0  0
  -32.1858  -22.1032   23.3359 F   0  0  0  0  0  0  0  0  0  0  0  0
  -29.5442  -20.5200   19.7413 F   0  0  0  0  0  0  0  0  0  0  0  0
  1  2  1  0  0  0  0
  1  5  2  0  0  0  0
  2  6  2  0  0  0  0
  3 12  2  0  0  0  0
  3 19  1  0  0  0  0
  4 13  1  0  0  0  0
  4 19  2  0  0  0  0
  5 21  1  0  0  0  0
  6 23  1  0  0  0  0
  7 14  2  0  0  0  0
  7 22  1  0  0  0  0
  8 10  2  0  0  0  0
  8 25  1  0  0  0  0
  9 11  1  0  0  0  0
  9 25  2  0  0  0  0
 10 26  1  0  0  0  0
 11 26  2  0  0  0  0
 12 27  1  0  0  0  0
 13 27  2  0  0  0  0
 14 28  1  0  0  0  0
 15 16  2  0  0  0  0
 15 29  1  0  0  0  0
 16 30  1  0  0  0  0
 17 24  1  0  0  0  0
 17 28  2  0  0  0  0
 18 30  2  0  0  0  0
 18 31  1  0  0  0  0
 19 32  1  0  0  0  0
 20 32  1  0  0  0  0
 20 33  2  0  0  0  0
 20 34  1  0  0  0  0
 21 23  2  0  0  0  0
 21 39  1  0  0  0  0
 22 24  2  0  0  0  0
 22 40  1  0  0  0  0
 23 48  1  0  0  0  0
 24 41  1  0  0  0  0
 25 56  1  0  0  0  0
 26 67  1  0  0  0  0
 27 76  1  0  0  0  0
 28 77  1  0  0  0  0
 29 31  2  0  0  0  0
 29 76  1  0  0  0  0
 30 78  1  0  0  0  0
 31 79  1  0  0  0  0
 32 61  2  0  0  0  0
 33 62  1  0  0  0  0
 33 65  1  0  0  0  0
 34 66  1  0  0  0  0
 34 71  2  0  0  0  0
 35 49  1  0  0  0  0
 35 68  1  0  0  0  0
 35 72  2  0  0  0  0
 36 58  1  0  0  0  0
 36 63  1  0  0  0  0
 36 73  2  0  0  0  0
 37 59  1  0  0  0  0
 37 69  1  0  0  0  0
 37 74  2  0  0  0  0
 38 64  1  0  0  0  0
 38 67  1  0  0  0  0
 38 75  2  0  0  0  0
 39 42  1  0  0  0  0
 40 49  1  0  0  0  0
 41 63  1  0  0  0  0
 42 44  1  0  0  0  0
 43 45  1  0  0  0  0
 43 46  1  0  0  0  0
 44 48  1  0  0  0  0
 45 50  1  0  0  0  0
 46 64  1  0  0  0  0
 47 50  1  0  0  0  0
 47 64  1  0  0  0  0
 48 68  1  0  0  0  0
 49 63  1  0  0  0  0
 50 62  1  0  0  0  0
 51 59  1  0  0  0  0
 52 60  1  0  0  0  0
 53 60  1  0  0  0  0
 54 60  1  0  0  0  0
 55 70  1  0  0  0  0
 56 57  1  0  0  0  0
 57 77  1  0  0  0  0
 58 60  1  0  0  0  0
 58 69  1  0  0  0  0
 59 70  1  0  0  0  0
 61 62  1  0  0  0  0
M  CHG  1  70   1
M  ISO  4  38 100  57 101  67 100  77 101
M  END
> <Batch ID>
0002

> <Smiles>
CNC(C)C(=O)NC(C(=O)N1Cc2cc([101O:1][101CH2:1]Cc3ccc([100NH:0][100C:0](=O)N4CCCC(n5nc(-c6ccc(Oc7ccc(F)cc7F)cc6)c(C(N)=O)c5N)C4)cc3)ccc2CC1C(=O)NC1CCCc2ccccc21)C(C)(C)C

> <Shape>
0.245

> <Color>
0.073

> <Negative vol penalty>
0.000

$$$$

  -OEChem-04042320173D

 75 82  0     1  0  0  0  0  0999 V2000
  -21.6576  -26.0082   22.2550 C   0  0  0  0  0  0  0  0  0  0  0  0
  -22.5356  -24.9529   22.0299 C   0  0  0  0  0  0  0  0  0  0  0  0
  -23.8221  -10.0103   22.1423 C   0  0  0  0  0  0  0  0  0  0  0  0
  -24.3934  -11.4271   24.0141 C   0  0  0  0  0  0  0  0  0  0  0  0
  -22.0394  -27.3110   21.9374 C   0  0  0  0  0  0  0  0  0  0  0  0
  -23.7956  -25.1996   21.4859 C   0  0  0  0  0  0  0  0  0  0  0  0
  -27.4742  -22.6745   23.8810 C   0  0  0  0  0  0  0  0  0  0  0  0
  -23.3018   -9.0598   23.0206 C   0  0  0  0  0  0  0  0  0  0  0  0
  -23.8731  -10.4766   24.8924 C   0  0  0  0  0  0  0  0  0  0  0  0
  -27.6174  -21.3207   23.5801 C   0  0  0  0  0  0  0  0  0  0  0  0
  -24.8491   -7.5351   26.2437 C   0  0  0  0  0  0  0  0  0  0  0  0
  -25.5983   -7.2219   27.3778 C   0  0  0  0  0  0  0  0  0  0  0  0
  -29.4494  -21.8491   22.1024 C   0  0  0  0  0  0  0  0  0  0  0  0
  -23.7739   -7.9504   28.7842 C   0  0  0  0  0  0  0  0  0  0  0  0
  -24.3679  -11.1940   22.6391 C   0  0  0  0  0  0  0  0  0  0  0  0
  -24.2169  -13.2470   21.1323 C   0  0  0  0  0  0  0  0  0  0  0  0
  -23.3083  -27.5750   21.3982 C   0  0  0  0  0  0  0  0  0  0  0  0
  -28.3119  -23.6285   23.2855 C   0  0  0  0  0  0  0  0  0  0  0  0
  -24.1942  -26.5070   21.1594 C   0  0  0  0  0  0  0  0  0  0  0  0
  -29.3165  -23.2141   22.3994 C   0  0  0  0  0  0  0  0  0  0  0  0
  -23.3273   -9.2929   24.3956 C   0  0  0  0  0  0  0  0  0  0  0  0
  -28.6032  -20.9081   22.6885 C   0  0  0  0  0  0  0  0  0  0  0  0
  -23.5623   -8.0560   26.3798 C   0  0  0  0  0  0  0  0  0  0  0  0
  -25.0607   -7.4295   28.6481 C   0  0  0  0  0  0  0  0  0  0  0  0
  -23.0247   -8.2636   27.6500 C   0  0  0  0  0  0  0  0  0  0  0  0
  -24.9060  -12.1760   21.7323 C   0  0  0  0  0  0  0  0  0  0  0  0
  -25.1651  -13.8790   20.3656 C   0  0  0  0  0  0  0  0  0  0  0  0
  -22.8425  -13.6357   21.2570 C   0  0  0  0  0  0  0  0  0  0  0  0
  -27.8632  -26.1195   21.3628 C   0  0  0  0  0  0  0  0  0  0  0  0
  -31.0302  -26.5937   21.8798 C   0  0  0  0  0  0  0  0  0  0  0  0
  -34.0557  -25.2690   22.7393 C   0  0  0  0  0  0  0  0  0  0  0  0
  -31.1355  -14.1863   20.6987 C   0  0  0  0  0  0  0  0  0  0  0  0
  -23.6583  -28.9942   21.0268 C   0  0  0  0  0  0  0  0  0  0  0  0
  -28.1620  -25.0822   23.6411 C   0  0  0  0  0  0  0  0  0  0  0  0
  -30.2547  -24.1964   21.7488 C   0  0  0  0  0  0  0  0  0  0  0  0
  -25.1521  -29.2144   20.8024 C   0  0  0  0  0  0  0  0  0  0  0  0
  -29.2021  -13.0226   17.9448 C   0  0  0  0  0  0  0  0  0  0  0  0
  -25.7287  -28.1085   19.9240 C   0  0  0  0  0  0  0  0  0  0  0  0
  -27.8196  -12.7703   18.5491 C   0  0  0  0  0  0  0  0  0  0  0  0
  -30.3192  -12.6648   18.9225 C   0  0  0  0  0  0  0  0  0  0  0  0
  -28.8331  -13.0581   20.8488 C   0  0  0  0  0  0  0  0  0  0  0  0
  -25.5789  -26.7373   20.5939 C   0  0  1  0  0  0  0  0  0  0  0  0
  -28.7355  -26.0186   22.5820 C   0  0  1  0  0  0  0  0  0  0  0  0
  -27.6733  -13.4569   19.9203 C   0  0  2  0  0  0  0  0  0  0  0  0
  -36.4673  -25.8955   23.0376 C   0  0  0  0  0  0  0  0  0  0  0  0
  -31.3900  -26.6419   18.8502 C   0  0  0  0  0  0  0  0  0  0  0  0
  -33.8462  -26.3127   19.2065 C   0  0  0  0  0  0  0  0  0  0  0  0
  -32.7232  -28.3590   20.0866 C   0  0  0  0  0  0  0  0  0  0  0  0
  -34.0184  -24.5131   25.6005 C   0  0  0  0  0  0  0  0  0  0  0  0
  -31.6127  -17.1488   22.1275 C   0  0  0  0  0  0  0  0  0  0  0  0
  -30.2124  -17.6705   22.4514 C   0  0  0  0  0  0  0  0  0  0  0  0
  -31.8074  -15.6961   22.5503 C   0  0  0  0  0  0  0  0  0  0  0  0
  -30.0554  -19.1337   22.0572 C   0  0  0  0  0  0  0  0  0  1  0  0
  -32.3032  -26.1339   21.2112 C   0  0  1  0  0  0  0  0  0  0  0  0
  -35.1174  -25.7346   23.7193 C   0  0  2  0  0  0  0  0  0  0  0  0
  -32.5469  -26.8433   19.8492 C   0  0  0  0  0  0  0  0  0  0  0  0
  -26.1927  -12.1272   21.3772 N   0  0  0  0  0  0  0  0  0  0  0  0
  -26.3196  -13.1754   20.5457 N   0  0  0  0  0  0  0  0  0  0  0  0
  -30.0641  -25.6073   22.1236 N   0  0  0  0  0  0  0  0  0  0  0  0
  -30.1222  -13.3497   20.2023 N   0  0  0  0  0  0  0  0  0  0  0  0
  -25.1157  -14.9623   19.5616 N   0  0  0  0  0  0  0  0  0  0  0  0
  -22.0059  -12.8763   22.0863 N   0  0  0  0  0  0  0  0  0  0  0  0
  -26.5815  -26.5654   21.6233 N   0  0  0  0  0  0  0  0  0  0  0  0
  -33.3704  -26.3301   22.1864 N   0  0  0  0  0  0  0  0  0  0  0  0
  -30.8653  -14.8020   21.9147 N   0  0  0  0  0  0  0  0  0  0  0  0
  -35.2654  -24.7508   24.8288 N   0  3  0  0  0  0  0  0  0  0  0  0
  -22.3663  -14.6175   20.6382 O   0  0  0  0  0  0  0  0  0  0  0  0
  -28.3196  -25.8167   20.2665 O   0  0  0  0  0  0  0  0  0  0  0  0
  -30.9009  -27.7828   22.1813 O   0  0  0  0  0  0  0  0  0  0  0  0
  -33.8568  -24.0828   22.4866 O   0  0  0  0  0  0  0  0  0  0  0  0
  -32.1998  -14.3751   20.0998 O   0  0  0  0  0  0  0  0  0  0  0  0
  -22.8195   -8.3657   25.2529 O   0  0  0  0  0  0  0  0  0  0  0  0
  -28.7447  -19.5874   22.3925 O   0  0  0  0  0  0  0  0  0  1  0  0
  -25.7797   -7.1273   29.7370 F   0  0  0  0  0  0  0  0  0  0  0  0
  -21.7886   -8.7626   27.7871 F   0  0  0  0  0  0  0  0  0  0  0  0
  1  2  1  0  0  0  0
  1  5  2  0  0  0  0
  2  6  2  0  0  0  0
  3  8  2  0  0  0  0
  3 15  1  0  0  0  0
  4  9  1  0  0  0  0
  4 15  2  0  0  0  0
  5 17  1  0  0  0  0
  6 19  1  0  0  0  0
  7 10  2  0  0  0  0
  7 18  1  0  0  0  0
  8 21  1  0  0  0  0
  9 21  2  0  0  0  0
 10 22  1  0  0  0  0
 11 12  2  0  0  0  0
 11 23  1  0  0  0  0
 12 24  1  0  0  0  0
 13 20  1  0  0  0  0
 13 22  2  0  0  0  0
 14 24  2  0  0  0  0
 14 25  1  0  0  0  0
 15 26  1  0  0  0  0
 16 26  1  0  0  0  0
 16 27  2  0  0  0  0
 16 28  1  0  0  0  0
 17 19  2  0  0  0  0
 17 33  1  0  0  0  0
 18 20  2  0  0  0  0
 18 34  1  0  0  0  0
 19 42  1  0  0  0  0
 20 35  1  0  0  0  0
 21 72  1  0  0  0  0
 22 73  1  0  0  0  0
 23 25  2  0  0  0  0
 23 72  1  0  0  0  0
 24 74  1  0  0  0  0
 25 75  1  0  0  0  0
 26 57  2  0  0  0  0
 27 58  1  0  0  0  0
 27 61  1  0  0  0  0
 28 62  1  0  0  0  0
 28 67  2  0  0  0  0
 29 43  1  0  0  0  0
 29 63  1  0  0  0  0
 29 68  2  0  0  0  0
 30 54  1  0  0  0  0
 30 59  1  0  0  0  0
 30 69  2  0  0  0  0
 31 55  1  0  0  0  0
 31 64  1  0  0  0  0
 31 70  2  0  0  0  0
 32 60  1  0  0  0  0
 32 65  1  0  0  0  0
 32 71  2  0  0  0  0
 33 36  1  0  0  0  0
 34 43  1  0  0  0  0
 35 59  1  0  0  0  0
 36 38  1  0  0  0  0
 37 39  1  0  0  0  0
 37 40  1  0  0  0  0
 38 42  1  0  0  0  0
 39 44  1  0  0  0  0
 40 60  1  0  0  0  0
 41 44  1  0  0  0  0
 41 60  1  0  0  0  0
 42 63  1  0  0  0  0
 43 59  1  0  0  0  0
 44 58  1  0  0  0  0
 45 55  1  0  0  0  0
 46 56  1  0  0  0  0
 47 56  1  0  0  0  0
 48 56  1  0  0  0  0
 49 66  1  0  0  0  0
 50 51  1  0  0  0  0
 50 52  1  0  0  0  0
 51 53  1  0  0  0  0
 52 65  1  0  0  0  0
 53 73  1  0  0  0  0
 54 56  1  0  0  0  0
 54 64  1  0  0  0  0
 55 66  1  0  0  0  0
 57 58  1  0  0  0  0
M  CHG  1  66   1
M  ISO  4  32 100  53 101  65 100  73 101
M  END
> <Batch ID>
0002

> <Smiles>
CNC(C)C(=O)NC(C(=O)N1Cc2cc([101O:1][101CH2:1]CCC[100NH:0][100C:0](=O)N3CCCC(n4nc(-c5ccc(Oc6ccc(F)cc6F)cc5)c(C(N)=O)c4N)C3)ccc2CC1C(=O)NC1CCCc2ccccc21)C(C)(C)C

> <Shape>
0.193

> <Color>
0.131

> <Negative vol penalty>
0.000

$$$$

  -OEChem-04042320173D

 82 90  0     1  0  0  0  0  0999 V2000
  -22.0706  -12.1616   18.8387 C   0  0  0  0  0  0  0  0  0  0  0  0
  -21.9069  -13.4885   19.2233 C   0  0  0  0  0  0  0  0  0  0  0  0
  -29.4596  -27.7295   20.8084 C   0  0  0  0  0  0  0  0  0  0  0  0
  -28.1419  -26.2445   22.1851 C   0  0  0  0  0  0  0  0  0  0  0  0
  -23.2410  -11.4803   19.1702 C   0  0  0  0  0  0  0  0  0  0  0  0
  -22.9131  -14.1346   19.9407 C   0  0  0  0  0  0  0  0  0  0  0  0
  -23.8585  -18.7934   18.1951 C   0  0  0  0  0  0  0  0  0  0  0  0
  -20.1647  -27.4425   20.8266 C   0  0  0  0  0  0  0  0  0  0  0  0
  -19.2312  -26.3271   22.7558 C   0  0  0  0  0  0  0  0  0  0  0  0
  -20.5376  -26.2086   20.2936 C   0  0  0  0  0  0  0  0  0  0  0  0
  -19.6041  -25.0932   22.2228 C   0  0  0  0  0  0  0  0  0  0  0  0
  -30.6010  -27.3899   21.5346 C   0  0  0  0  0  0  0  0  0  0  0  0
  -29.2833  -25.9048   22.9113 C   0  0  0  0  0  0  0  0  0  0  0  0
  -22.9650  -19.8014   18.5545 C   0  0  0  0  0  0  0  0  0  0  0  0
  -31.7825  -24.9189   25.3591 C   0  0  0  0  0  0  0  0  0  0  0  0
  -31.6779  -24.8776   26.7494 C   0  0  0  0  0  0  0  0  0  0  0  0
  -24.4926  -20.5352   20.2713 C   0  0  0  0  0  0  0  0  0  0  0  0
  -31.0542  -27.2116   26.7718 C   0  0  0  0  0  0  0  0  0  0  0  0
  -28.2300  -27.1568   21.1336 C   0  0  0  0  0  0  0  0  0  0  0  0
  -26.5577  -26.8729   19.2282 C   0  0  0  0  0  0  0  0  0  0  0  0
  -24.2661  -12.1213   19.8836 C   0  0  0  0  0  0  0  0  0  0  0  0
  -25.0730  -18.6415   18.8795 C   0  0  0  0  0  0  0  0  0  0  0  0
  -24.0977  -13.4608   20.2832 C   0  0  0  0  0  0  0  0  0  0  0  0
  -25.4010  -19.5260   19.9170 C   0  0  0  0  0  0  0  0  0  0  0  0
  -19.5116  -27.5018   22.0577 C   0  0  0  0  0  0  0  0  0  0  0  0
  -20.2572  -25.0340   20.9917 C   0  0  0  0  0  0  0  0  0  0  0  0
  -30.5129  -26.4776   22.5860 C   0  0  0  0  0  0  0  0  0  0  0  0
  -23.2807  -20.6707   19.5946 C   0  0  0  0  0  0  0  0  0  0  0  0
  -31.5230  -26.1066   24.6751 C   0  0  0  0  0  0  0  0  0  0  0  0
  -31.3138  -26.0239   27.4558 C   0  0  0  0  0  0  0  0  0  0  0  0
  -31.1588  -27.2529   25.3815 C   0  0  0  0  0  0  0  0  0  0  0  0
  -27.0504  -27.5076   20.3842 C   0  0  0  0  0  0  0  0  0  0  0  0
  -25.4242  -27.5784   18.9058 C   0  0  0  0  0  0  0  0  0  0  0  0
  -27.0780  -25.7462   18.5102 C   0  0  0  0  0  0  0  0  0  0  0  0
  -26.3842  -16.3415   20.6385 C   0  0  0  0  0  0  0  0  0  0  0  0
  -28.9644  -18.3068   20.5834 C   0  0  0  0  0  0  0  0  0  0  0  0
  -30.1881  -21.4721   20.2227 C   0  0  0  0  0  0  0  0  0  0  0  0
  -21.6428  -30.9157   22.1330 C   0  0  0  0  0  0  0  0  0  0  0  0
  -25.4933  -11.3295   20.2601 C   0  0  0  0  0  0  0  0  0  0  0  0
  -26.0379  -17.5658   18.4620 C   0  0  0  0  0  0  0  0  0  0  0  0
  -26.7010  -19.4180   20.6698 C   0  0  0  0  0  0  0  0  0  0  0  0
  -26.6692  -12.1994   20.6970 C   0  0  0  0  0  0  0  0  0  0  0  0
  -23.4990  -31.9430   19.2737 C   0  0  0  0  0  0  0  0  0  0  0  0
  -26.2062  -13.2662   21.6840 C   0  0  0  0  0  0  0  0  0  0  0  0
  -24.5752  -30.8655   19.1297 C   0  0  0  0  0  0  0  0  0  0  0  0
  -23.1983  -32.2480   20.7395 C   0  0  0  0  0  0  0  0  0  0  0  0
  -23.9298  -29.9936   21.4149 C   0  0  0  0  0  0  0  0  0  0  0  0
  -25.1769  -14.2034   21.0408 C   0  0  1  0  0  0  0  0  0  0  0  0
  -27.0182  -17.1813   19.5659 C   0  0  1  0  0  0  0  0  0  0  0  0
  -24.2274  -29.6118   19.9548 C   0  0  2  0  0  0  0  0  0  0  0  0
  -31.8966  -23.2972   20.0047 C   0  0  0  0  0  0  0  0  0  0  0  0
  -28.9986  -18.1417   23.6299 C   0  0  0  0  0  0  0  0  0  0  0  0
  -30.4976  -20.1469   23.6522 C   0  0  0  0  0  0  0  0  0  0  0  0
  -31.2539  -18.0386   22.5542 C   0  0  0  0  0  0  0  0  0  0  0  0
  -30.3349  -21.1427   17.2852 C   0  0  0  0  0  0  0  0  0  0  0  0
  -19.1129  -28.8206   22.6285 C   0  0  0  0  0  0  0  0  0  0  0  0
  -20.1891  -29.4560   23.5170 C   0  0  0  0  0  0  0  0  0  0  0  0
  -21.3027  -23.6543   19.1946 C   0  0  0  0  0  0  0  0  0  0  0  0
  -21.5767  -22.1856   18.9180 C   0  0  0  0  0  0  0  0  0  1  0  0
  -29.4641  -19.4396   21.4471 C   0  0  1  0  0  0  0  0  0  0  0  0
  -31.3390  -22.0192   19.3976 C   0  0  2  0  0  0  0  0  0  0  0  0
  -30.0281  -18.9427   22.8082 C   0  0  0  0  0  0  0  0  0  0  0  0
  -26.2922  -28.5373   20.7700 N   0  0  0  0  0  0  0  0  0  0  0  0
  -25.3115  -28.5550   19.8512 N   0  0  0  0  0  0  0  0  0  0  0  0
  -27.6085  -18.3460   20.2286 N   0  0  0  0  0  0  0  0  0  0  0  0
  -22.8744  -31.0175   21.4654 N   0  0  0  0  0  0  0  0  0  0  0  0
  -24.5230  -27.4526   17.9087 N   0  0  0  0  0  0  0  0  0  0  0  0
  -28.2517  -25.1398   18.9781 N   0  0  0  0  0  0  0  0  0  0  0  0
  -20.6257  -23.8084   20.4619 N   0  0  0  0  0  0  0  0  0  0  0  0
  -25.8349  -15.1604   20.1773 N   0  0  0  0  0  0  0  0  0  0  0  0
  -30.4256  -20.1781   20.6356 N   0  0  0  0  0  0  0  0  0  0  0  0
  -21.4127  -29.7136   22.7908 N   0  0  0  0  0  0  0  0  0  0  0  0
  -30.8855  -22.3170   18.0096 N   0  3  0  0  0  0  0  0  0  0  0  0
  -26.5278  -25.3010   17.4746 O   0  0  0  0  0  0  0  0  0  0  0  0
  -26.3941  -16.7352   21.7990 O   0  0  0  0  0  0  0  0  0  0  0  0
  -29.7498  -17.4235   20.2304 O   0  0  0  0  0  0  0  0  0  0  0  0
  -29.1810  -22.1283   20.4787 O   0  0  0  0  0  0  0  0  0  0  0  0
  -20.8076  -31.8264   22.1377 O   0  0  0  0  0  0  0  0  0  0  0  0
  -31.6266  -26.1458   23.2948 O   0  0  0  0  0  0  0  0  0  0  0  0
  -22.4100  -21.6551   19.9478 O   0  0  0  0  0  0  0  0  0  1  0  0
  -31.2118  -25.9837   28.7907 F   0  0  0  0  0  0  0  0  0  0  0  0
  -30.9072  -28.3965   24.7298 F   0  0  0  0  0  0  0  0  0  0  0  0
  1  2  1  0  0  0  0
  1  5  2  0  0  0  0
  2  6  2  0  0  0  0
  3 12  2  0  0  0  0
  3 19  1  0  0  0  0
  4 13  1  0  0  0  0
  4 19  2  0  0  0  0
  5 21  1  0  0  0  0
  6 23  1  0  0  0  0
  7 14  2  0  0  0  0
  7 22  1  0  0  0  0
  8 10  2  0  0  0  0
  8 25  1  0  0  0  0
  9 11  1  0  0  0  0
  9 25  2  0  0  0  0
 10 26  1  0  0  0  0
 11 26  2  0  0  0  0
 12 27  1  0  0  0  0
 13 27  2  0  0  0  0
 14 28  1  0  0  0  0
 15 16  2  0  0  0  0
 15 29  1  0  0  0  0
 16 30  1  0  0  0  0
 17 24  1  0  0  0  0
 17 28  2  0  0  0  0
 18 30  2  0  0  0  0
 18 31  1  0  0  0  0
 19 32  1  0  0  0  0
 20 32  1  0  0  0  0
 20 33  2  0  0  0  0
 20 34  1  0  0  0  0
 21 23  2  0  0  0  0
 21 39  1  0  0  0  0
 22 24  2  0  0  0  0
 22 40  1  0  0  0  0
 23 48  1  0  0  0  0
 24 41  1  0  0  0  0
 25 56  1  0  0  0  0
 26 69  1  0  0  0  0
 27 79  1  0  0  0  0
 28 80  1  0  0  0  0
 29 31  2  0  0  0  0
 29 79  1  0  0  0  0
 30 81  1  0  0  0  0
 31 82  1  0  0  0  0
 32 63  2  0  0  0  0
 33 64  1  0  0  0  0
 33 67  1  0  0  0  0
 34 68  1  0  0  0  0
 34 74  2  0  0  0  0
 35 49  1  0  0  0  0
 35 70  1  0  0  0  0
 35 75  2  0  0  0  0
 36 60  1  0  0  0  0
 36 65  1  0  0  0  0
 36 76  2  0  0  0  0
 37 61  1  0  0  0  0
 37 71  1  0  0  0  0
 37 77  2  0  0  0  0
 38 66  1  0  0  0  0
 38 72  1  0  0  0  0
 38 78  2  0  0  0  0
 39 42  1  0  0  0  0
 40 49  1  0  0  0  0
 41 65  1  0  0  0  0
 42 44  1  0  0  0  0
 43 45  1  0  0  0  0
 43 46  1  0  0  0  0
 44 48  1  0  0  0  0
 45 50  1  0  0  0  0
 46 66  1  0  0  0  0
 47 50  1  0  0  0  0
 47 66  1  0  0  0  0
 48 70  1  0  0  0  0
 49 65  1  0  0  0  0
 50 64  1  0  0  0  0
 51 61  1  0  0  0  0
 52 62  1  0  0  0  0
 53 62  1  0  0  0  0
 54 62  1  0  0  0  0
 55 73  1  0  0  0  0
 56 57  1  0  0  0  0
 57 72  1  0  0  0  0
 58 59  1  0  0  0  0
 58 69  1  0  0  0  0
 59 80  1  0  0  0  0
 60 62  1  0  0  0  0
 60 71  1  0  0  0  0
 61 73  1  0  0  0  0
 63 64  1  0  0  0  0
M  CHG  1  73   1
M  ISO  4  38 100  59 101  72 100  80 101
M  END
> <Batch ID>
0002

> <Smiles>
CNC(C)C(=O)NC(C(=O)N1Cc2cc([101O:1][101CH2:1]CNc3ccc(CC[100NH:0][100C:0](=O)N4CCCC(n5nc(-c6ccc(Oc7ccc(F)cc7F)cc6)c(C(N)=O)c5N)C4)cc3)ccc2CC1C(=O)NC1CCCc2ccccc21)C(C)(C)C

> <Shape>
0.225

> <Color>
0.080

> <Negative vol penalty>
0.000

$$$$

  -OEChem-04042320173D

 79 87  0     1  0  0  0  0  0999 V2000
  -20.5128  -31.2846   22.5658 C   0  0  0  0  0  0  0  0  0  0  0  0
  -21.7397  -30.6379   22.4566 C   0  0  0  0  0  0  0  0  0  0  0  0
  -33.0926  -27.1483   20.4219 C   0  0  0  0  0  0  0  0  0  0  0  0
  -32.6325  -27.2221   19.1073 C   0  0  0  0  0  0  0  0  0  0  0  0
  -26.8861  -18.2500   19.6531 C   0  0  0  0  0  0  0  0  0  0  0  0
  -26.6301  -17.4825   21.9295 C   0  0  0  0  0  0  0  0  0  0  0  0
  -19.3407  -30.5384   22.6811 C   0  0  0  0  0  0  0  0  0  0  0  0
  -21.7953  -29.2446   22.4638 C   0  0  0  0  0  0  0  0  0  0  0  0
  -24.8723  -27.4046   18.8873 C   0  0  0  0  0  0  0  0  0  0  0  0
  -32.1894  -27.2231   21.4823 C   0  0  0  0  0  0  0  0  0  0  0  0
  -31.2691  -27.3708   18.8528 C   0  0  0  0  0  0  0  0  0  0  0  0
  -26.1084  -17.1822   19.2055 C   0  0  0  0  0  0  0  0  0  0  0  0
  -25.8523  -16.4146   21.4820 C   0  0  0  0  0  0  0  0  0  0  0  0
  -26.2426  -27.4533   19.1396 C   0  0  0  0  0  0  0  0  0  0  0  0
  -26.3560  -13.3954   20.0461 C   0  0  0  0  0  0  0  0  0  0  0  0
  -26.6223  -12.1329   20.5759 C   0  0  0  0  0  0  0  0  0  0  0  0
  -26.2015  -25.1277   19.7790 C   0  0  0  0  0  0  0  0  0  0  0  0
  -24.3672  -12.0179   21.4353 C   0  0  0  0  0  0  0  0  0  0  0  0
  -27.1470  -18.4002   21.0151 C   0  0  0  0  0  0  0  0  0  0  0  0
  -29.2846  -19.7877   21.1292 C   0  0  0  0  0  0  0  0  0  0  0  0
  -19.3810  -29.1352   22.6800 C   0  0  0  0  0  0  0  0  0  0  0  0
  -24.1531  -26.2179   19.0898 C   0  0  0  0  0  0  0  0  0  0  0  0
  -20.6227  -28.4790   22.5806 C   0  0  0  0  0  0  0  0  0  0  0  0
  -24.8226  -25.0658   19.5261 C   0  0  0  0  0  0  0  0  0  0  0  0
  -30.8260  -27.3718   21.2278 C   0  0  0  0  0  0  0  0  0  0  0  0
  -30.3659  -27.4457   19.9131 C   0  0  0  0  0  0  0  0  0  0  0  0
  -25.5914  -16.2644   20.1199 C   0  0  0  0  0  0  0  0  0  0  0  0
  -26.9069  -26.3156   19.5883 C   0  0  0  0  0  0  0  0  0  0  0  0
  -25.0953  -13.9692   20.2109 C   0  0  0  0  0  0  0  0  0  0  0  0
  -25.6279  -11.4442   21.2705 C   0  0  0  0  0  0  0  0  0  0  0  0
  -24.1009  -13.2805   20.9055 C   0  0  0  0  0  0  0  0  0  0  0  0
  -27.9508  -19.5028   21.4780 C   0  0  0  0  0  0  0  0  0  0  0  0
  -29.5860  -20.9301   21.8297 C   0  0  0  0  0  0  0  0  0  0  0  0
  -30.1717  -19.0829   20.2507 C   0  0  0  0  0  0  0  0  0  0  0  0
  -21.7505  -25.3457   20.9794 C   0  0  0  0  0  0  0  0  0  0  0  0
  -21.9130  -22.5972   19.2643 C   0  0  0  0  0  0  0  0  0  0  0  0
  -23.7077  -19.9533   17.5892 C   0  0  0  0  0  0  0  0  0  0  0  0
  -28.2405  -26.0458   23.6087 C   0  0  0  0  0  0  0  0  0  0  0  0
  -18.0921  -28.3718   22.8546 C   0  0  0  0  0  0  0  0  0  0  0  0
  -22.6803  -26.1745   18.7875 C   0  0  0  0  0  0  0  0  0  0  0  0
  -24.1001  -23.7617   19.7398 C   0  0  0  0  0  0  0  0  0  0  0  0
  -18.2019  -26.8968   22.4772 C   0  0  0  0  0  0  0  0  0  0  0  0
  -27.0642  -23.2868   25.5273 C   0  0  0  0  0  0  0  0  0  0  0  0
  -19.4569  -26.2814   23.0880 C   0  0  0  0  0  0  0  0  0  0  0  0
  -27.2942  -22.0815   24.6139 C   0  0  0  0  0  0  0  0  0  0  0  0
  -26.6441  -24.5231   24.7353 C   0  0  0  0  0  0  0  0  0  0  0  0
  -27.7795  -23.6820   22.7161 C   0  0  0  0  0  0  0  0  0  0  0  0
  -20.7217  -26.9691   22.5596 C   0  0  1  0  0  0  0  0  0  0  0  0
  -21.9528  -25.0513   19.5199 C   0  0  1  0  0  0  0  0  0  0  0  0
  -28.2591  -22.4259   23.4634 C   0  0  2  0  0  0  0  0  0  0  0  0
  -22.8658  -17.9866   16.2774 C   0  0  0  0  0  0  0  0  0  0  0  0
  -22.1332  -21.1030   21.9154 C   0  0  0  0  0  0  0  0  0  0  0  0
  -22.9423  -19.1049   20.6422 C   0  0  0  0  0  0  0  0  0  0  0  0
  -20.6556  -20.0082   20.2205 C   0  0  0  0  0  0  0  0  0  0  0  0
  -25.3207  -20.6947   15.2212 C   0  0  0  0  0  0  0  0  0  0  0  0
  -29.8772  -27.4485   22.3787 C   0  0  0  0  0  0  0  0  0  0  0  0
  -28.9042  -27.6063   19.6146 C   0  0  0  0  0  0  0  0  0  1  0  0
  -22.6688  -21.2972   19.3972 C   0  0  1  0  0  0  0  0  0  0  0  0
  -23.4254  -19.3988   16.2045 C   0  0  2  0  0  0  0  0  0  0  0  0
  -22.1135  -20.4033   20.5418 C   0  0  0  0  0  0  0  0  0  0  0  0
  -27.4402  -20.3923   22.3336 N   0  0  0  0  0  0  0  0  0  0  0  0
  -28.4585  -21.2474   22.5284 N   0  0  0  0  0  0  0  0  0  0  0  0
  -22.6594  -23.7715   19.4365 N   0  0  0  0  0  0  0  0  0  0  0  0
  -27.6016  -24.7959   23.6608 N   0  0  0  0  0  0  0  0  0  0  0  0
  -30.7030  -21.6841   21.9099 N   0  0  0  0  0  0  0  0  0  0  0  0
  -30.1916  -19.4385   18.8951 N   0  0  0  0  0  0  0  0  0  0  0  0
  -21.0323  -26.5002   21.2262 N   0  0  0  0  0  0  0  0  0  0  0  0
  -22.6371  -20.6701   18.0803 N   0  0  0  0  0  0  0  0  0  0  0  0
  -29.1377  -26.2195   22.5620 N   0  0  0  0  0  0  0  0  0  0  0  0
  -24.6757  -19.3677   15.3942 N   0  3  0  0  0  0  0  0  0  0  0  0
  -30.9125  -18.1538   20.6526 O   0  0  0  0  0  0  0  0  0  0  0  0
  -22.2106  -24.5813   21.8194 O   0  0  0  0  0  0  0  0  0  0  0  0
  -20.7062  -22.5719   19.0098 O   0  0  0  0  0  0  0  0  0  0  0  0
  -24.7702  -19.7659   18.1779 O   0  0  0  0  0  0  0  0  0  0  0  0
  -28.0311  -26.9386   24.4369 O   0  0  0  0  0  0  0  0  0  0  0  0
  -24.8323  -15.2224   19.6836 O   0  0  0  0  0  0  0  0  0  0  0  0
  -28.2443  -26.3606   19.8359 O   0  0  0  0  0  0  0  0  0  1  0  0
  -25.8833  -10.2311   21.7780 F   0  0  0  0  0  0  0  0  0  0  0  0
  -22.8875  -13.8261   21.0660 F   0  0  0  0  0  0  0  0  0  0  0  0
  1  2  1  0  0  0  0
  1  7  2  0  0  0  0
  2  8  2  0  0  0  0
  3  4  1  0  0  0  0
  3 10  2  0  0  0  0
  4 11  2  0  0  0  0
  5 12  2  0  0  0  0
  5 19  1  0  0  0  0
  6 13  1  0  0  0  0
  6 19  2  0  0  0  0
  7 21  1  0  0  0  0
  8 23  1  0  0  0  0
  9 14  2  0  0  0  0
  9 22  1  0  0  0  0
 10 25  1  0  0  0  0
 11 26  1  0  0  0  0
 12 27  1  0  0  0  0
 13 27  2  0  0  0  0
 14 28  1  0  0  0  0
 15 16  2  0  0  0  0
 15 29  1  0  0  0  0
 16 30  1  0  0  0  0
 17 24  1  0  0  0  0
 17 28  2  0  0  0  0
 18 30  2  0  0  0  0
 18 31  1  0  0  0  0
 19 32  1  0  0  0  0
 20 32  1  0  0  0  0
 20 33  2  0  0  0  0
 20 34  1  0  0  0  0
 21 23  2  0  0  0  0
 21 39  1  0  0  0  0
 22 24  2  0  0  0  0
 22 40  1  0  0  0  0
 23 48  1  0  0  0  0
 24 41  1  0  0  0  0
 25 26  2  0  0  0  0
 25 56  1  0  0  0  0
 26 57  1  0  0  0  0
 27 76  1  0  0  0  0
 28 77  1  0  0  0  0
 29 31  2  0  0  0  0
 29 76  1  0  0  0  0
 30 78  1  0  0  0  0
 31 79  1  0  0  0  0
 32 61  2  0  0  0  0
 33 62  1  0  0  0  0
 33 65  1  0  0  0  0
 34 66  1  0  0  0  0
 34 71  2  0  0  0  0
 35 49  1  0  0  0  0
 35 67  1  0  0  0  0
 35 72  2  0  0  0  0
 36 58  1  0  0  0  0
 36 63  1  0  0  0  0
 36 73  2  0  0  0  0
 37 59  1  0  0  0  0
 37 68  1  0  0  0  0
 37 74  2  0  0  0  0
 38 64  1  0  0  0  0
 38 69  1  0  0  0  0
 38 75  2  0  0  0  0
 39 42  1  0  0  0  0
 40 49  1  0  0  0  0
 41 63  1  0  0  0  0
 42 44  1  0  0  0  0
 43 45  1  0  0  0  0
 43 46  1  0  0  0  0
 44 48  1  0  0  0  0
 45 50  1  0  0  0  0
 46 64  1  0  0  0  0
 47 50  1  0  0  0  0
 47 64  1  0  0  0  0
 48 67  1  0  0  0  0
 49 63  1  0  0  0  0
 50 62  1  0  0  0  0
 51 59  1  0  0  0  0
 52 60  1  0  0  0  0
 53 60  1  0  0  0  0
 54 60  1  0  0  0  0
 55 70  1  0  0  0  0
 56 69  1  0  0  0  0
 57 77  1  0  0  0  0
 58 60  1  0  0  0  0
 58 68  1  0  0  0  0
 59 70  1  0  0  0  0
 61 62  1  0  0  0  0
M  CHG  1  70   1
M  ISO  4  38 100  57 101  69 100  77 101
M  END
> <Batch ID>
0002

> <Smiles>
CNC(C)C(=O)NC(C(=O)N1Cc2cc([101O:1][101CH2:1]c3ccccc3C[100NH:0][100C:0](=O)N3CCCC(n4nc(-c5ccc(Oc6ccc(F)cc6F)cc5)c(C(N)=O)c4N)C3)ccc2CC1C(=O)NC1CCCc2ccccc21)C(C)(C)C

> <Shape>
0.195

> <Color>
0.071

> <Negative vol penalty>
0.000

$$$$

  -OEChem-04042320173D

 79 87  0     1  0  0  0  0  0999 V2000
  -26.2557  -33.1308   18.4077 C   0  0  0  0  0  0  0  0  0  0  0  0
  -26.8579  -31.9800   18.9060 C   0  0  0  0  0  0  0  0  0  0  0  0
  -23.1007   -9.8373   19.9341 C   0  0  0  0  0  0  0  0  0  0  0  0
  -23.8695   -9.8462   22.2244 C   0  0  0  0  0  0  0  0  0  0  0  0
  -25.3740  -33.0446   17.3311 C   0  0  0  0  0  0  0  0  0  0  0  0
  -26.5779  -30.7420   18.3287 C   0  0  0  0  0  0  0  0  0  0  0  0
  -30.4333  -26.0292   17.6725 C   0  0  0  0  0  0  0  0  0  0  0  0
  -29.1411  -18.7571   21.0185 C   0  0  0  0  0  0  0  0  0  0  0  0
  -31.3554  -18.5679   20.0707 C   0  0  0  0  0  0  0  0  0  0  0  0
  -28.8580  -19.8089   20.1472 C   0  0  0  0  0  0  0  0  0  0  0  0
  -31.0723  -19.6197   19.1994 C   0  0  0  0  0  0  0  0  0  0  0  0
  -22.3825   -8.6671   20.1797 C   0  0  0  0  0  0  0  0  0  0  0  0
  -23.1512   -8.6760   22.4701 C   0  0  0  0  0  0  0  0  0  0  0  0
  -30.6269  -24.8652   18.4152 C   0  0  0  0  0  0  0  0  0  0  0  0
  -19.9432   -7.8061   23.0802 C   0  0  0  0  0  0  0  0  0  0  0  0
  -19.1920   -7.7429   24.2538 C   0  0  0  0  0  0  0  0  0  0  0  0
  -29.1880  -23.6642   16.8965 C   0  0  0  0  0  0  0  0  0  0  0  0
  -20.4772   -5.8277   24.9732 C   0  0  0  0  0  0  0  0  0  0  0  0
  -23.8443  -10.4268   20.9564 C   0  0  0  0  0  0  0  0  0  0  0  0
  -24.1320  -12.9594   20.8509 C   0  0  0  0  0  0  0  0  0  0  0  0
  -25.0904  -31.8062   16.7341 C   0  0  0  0  0  0  0  0  0  0  0  0
  -29.6055  -26.0219   16.5406 C   0  0  0  0  0  0  0  0  0  0  0  0
  -25.6905  -30.6389   17.2439 C   0  0  0  0  0  0  0  0  0  0  0  0
  -28.9876  -24.8287   16.1397 C   0  0  0  0  0  0  0  0  0  0  0  0
  -30.3898  -18.1366   20.9803 C   0  0  0  0  0  0  0  0  0  0  0  0
  -29.8236  -20.2402   19.2377 C   0  0  0  0  0  0  0  0  0  0  0  0
  -22.4077   -8.0864   21.4477 C   0  0  0  0  0  0  0  0  0  0  0  0
  -30.0019  -23.6832   18.0289 C   0  0  0  0  0  0  0  0  0  0  0  0
  -20.9613   -6.8801   22.8531 C   0  0  0  0  0  0  0  0  0  0  0  0
  -19.4590   -6.7537   25.2003 C   0  0  0  0  0  0  0  0  0  0  0  0
  -21.2283   -5.8909   23.7996 C   0  0  0  0  0  0  0  0  0  0  0  0
  -24.5869  -11.6354   20.7032 C   0  0  0  0  0  0  0  0  0  0  0  0
  -25.2065  -13.7341   20.4881 C   0  0  0  0  0  0  0  0  0  0  0  0
  -22.8525  -13.4455   21.2780 C   0  0  0  0  0  0  0  0  0  0  0  0
  -26.9174  -27.5054   15.7179 C   0  0  0  0  0  0  0  0  0  0  0  0
  -27.4575  -26.0678   12.8607 C   0  0  0  0  0  0  0  0  0  0  0  0
  -28.9270  -23.5185   11.1320 C   0  0  0  0  0  0  0  0  0  0  0  0
  -30.6681  -14.8682   20.6614 C   0  0  0  0  0  0  0  0  0  0  0  0
  -24.0943  -31.7568   15.6028 C   0  0  0  0  0  0  0  0  0  0  0  0
  -29.4283  -27.2796   15.7349 C   0  0  0  0  0  0  0  0  0  0  0  0
  -28.1054  -24.7632   14.9207 C   0  0  0  0  0  0  0  0  0  0  0  0
  -24.1397  -30.4546   14.8075 C   0  0  0  0  0  0  0  0  0  0  0  0
  -29.5717  -12.4749   18.2642 C   0  0  0  0  0  0  0  0  0  0  0  0
  -24.1751  -29.2550   15.7492 C   0  0  0  0  0  0  0  0  0  0  0  0
  -28.1426  -12.1480   18.7009 C   0  0  0  0  0  0  0  0  0  0  0  0
  -30.4888  -12.7077   19.4629 C   0  0  0  0  0  0  0  0  0  0  0  0
  -28.5776  -13.3896   20.8614 C   0  0  0  0  0  0  0  0  0  0  0  0
  -25.4311  -29.2809   16.6286 C   0  0  1  0  0  0  0  0  0  0  0  0
  -28.1542  -27.2771   14.8958 C   0  0  1  0  0  0  0  0  0  0  0  0
  -27.6026  -13.2017   19.6865 C   0  0  2  0  0  0  0  0  0  0  0  0
  -29.1577  -22.5866    8.8134 C   0  0  0  0  0  0  0  0  0  0  0  0
  -24.6287  -24.9379   13.0360 C   0  0  0  0  0  0  0  0  0  0  0  0
  -25.2453  -23.3033   11.2426 C   0  0  0  0  0  0  0  0  0  0  0  0
  -25.2883  -25.7512   10.7649 C   0  0  0  0  0  0  0  0  0  0  0  0
  -31.8638  -23.8847   11.1519 C   0  0  0  0  0  0  0  0  0  0  0  0
  -30.6933  -17.0120   21.9115 C   0  0  0  0  0  0  0  0  0  0  0  0
  -29.5177  -21.3705   18.2996 C   0  0  0  0  0  0  0  0  0  1  0  0
  -27.0774  -24.7449   12.2408 C   0  0  1  0  0  0  0  0  0  0  0  0
  -29.7581  -23.5105    9.8616 C   0  0  2  0  0  0  0  0  0  0  0  0
  -25.5749  -24.6857   11.8452 C   0  0  0  0  0  0  0  0  0  0  0  0
  -25.8518  -11.5690   20.2794 N   0  0  0  0  0  0  0  0  0  0  0  0
  -26.2008  -12.8611   20.1576 N   0  0  0  0  0  0  0  0  0  0  0  0
  -27.9582  -26.0208   14.1695 N   0  0  0  0  0  0  0  0  0  0  0  0
  -29.9201  -13.7188   20.3574 N   0  0  0  0  0  0  0  0  0  0  0  0
  -25.3883  -15.0702   20.4226 N   0  0  0  0  0  0  0  0  0  0  0  0
  -21.8615  -12.5130   21.6135 N   0  0  0  0  0  0  0  0  0  0  0  0
  -26.5846  -28.8373   15.8756 N   0  0  0  0  0  0  0  0  0  0  0  0
  -27.9970  -24.5365   11.1275 N   0  0  0  0  0  0  0  0  0  0  0  0
  -30.0528  -15.7789   21.5116 N   0  0  0  0  0  0  0  0  0  0  0  0
  -31.1456  -23.0516   10.1533 N   0  3  0  0  0  0  0  0  0  0  0  0
  -22.5905  -14.6704   21.3440 O   0  0  0  0  0  0  0  0  0  0  0  0
  -26.3092  -26.5444   16.1741 O   0  0  0  0  0  0  0  0  0  0  0  0
  -27.3221  -27.1040   12.2052 O   0  0  0  0  0  0  0  0  0  0  0  0
  -29.0845  -22.7010   12.0361 O   0  0  0  0  0  0  0  0  0  0  0  0
  -31.7982  -15.0706   20.2045 O   0  0  0  0  0  0  0  0  0  0  0  0
  -21.7068   -6.9447   21.6878 O   0  0  0  0  0  0  0  0  0  0  0  0
  -30.1886  -22.5458   18.7524 O   0  0  0  0  0  0  0  0  0  1  0  0
  -18.7385   -6.6940   26.3279 F   0  0  0  0  0  0  0  0  0  0  0  0
  -22.2060   -4.9993   23.5875 F   0  0  0  0  0  0  0  0  0  0  0  0
  1  2  1  0  0  0  0
  1  5  2  0  0  0  0
  2  6  2  0  0  0  0
  3 12  2  0  0  0  0
  3 19  1  0  0  0  0
  4 13  1  0  0  0  0
  4 19  2  0  0  0  0
  5 21  1  0  0  0  0
  6 23  1  0  0  0  0
  7 14  2  0  0  0  0
  7 22  1  0  0  0  0
  8 10  2  0  0  0  0
  8 25  1  0  0  0  0
  9 11  1  0  0  0  0
  9 25  2  0  0  0  0
 10 26  1  0  0  0  0
 11 26  2  0  0  0  0
 12 27  1  0  0  0  0
 13 27  2  0  0  0  0
 14 28  1  0  0  0  0
 15 16  2  0  0  0  0
 15 29  1  0  0  0  0
 16 30  1  0  0  0  0
 17 24  1  0  0  0  0
 17 28  2  0  0  0  0
 18 30  2  0  0  0  0
 18 31  1  0  0  0  0
 19 32  1  0  0  0  0
 20 32  1  0  0  0  0
 20 33  2  0  0  0  0
 20 34  1  0  0  0  0
 21 23  2  0  0  0  0
 21 39  1  0  0  0  0
 22 24  2  0  0  0  0
 22 40  1  0  0  0  0
 23 48  1  0  0  0  0
 24 41  1  0  0  0  0
 25 56  1  0  0  0  0
 26 57  1  0  0  0  0
 27 76  1  0  0  0  0
 28 77  1  0  0  0  0
 29 31  2  0  0  0  0
 29 76  1  0  0  0  0
 30 78  1  0  0  0  0
 31 79  1  0  0  0  0
 32 61  2  0  0  0  0
 33 62  1  0  0  0  0
 33 65  1  0  0  0  0
 34 66  1  0  0  0  0
 34 71  2  0  0  0  0
 35 49  1  0  0  0  0
 35 67  1  0  0  0  0
 35 72  2  0  0  0  0
 36 58  1  0  0  0  0
 36 63  1  0  0  0  0
 36 73  2  0  0  0  0
 37 59  1  0  0  0  0
 37 68  1  0  0  0  0
 37 74  2  0  0  0  0
 38 64  1  0  0  0  0
 38 69  1  0  0  0  0
 38 75  2  0  0  0  0
 39 42  1  0  0  0  0
 40 49  1  0  0  0  0
 41 63  1  0  0  0  0
 42 44  1  0  0  0  0
 43 45  1  0  0  0  0
 43 46  1  0  0  0  0
 44 48  1  0  0  0  0
 45 50  1  0  0  0  0
 46 64  1  0  0  0  0
 47 50  1  0  0  0  0
 47 64  1  0  0  0  0
 48 67  1  0  0  0  0
 49 63  1  0  0  0  0
 50 62  1  0  0  0  0
 51 59  1  0  0  0  0
 52 60  1  0  0  0  0
 53 60  1  0  0  0  0
 54 60  1  0  0  0  0
 55 70  1  0  0  0  0
 56 69  1  0  0  0  0
 57 77  1  0  0  0  0
 58 60  1  0  0  0  0
 58 68  1  0  0  0  0
 59 70  1  0  0  0  0
 61 62  1  0  0  0  0
M  CHG  1  70   1
M  ISO  4  38 100  57 101  69 100  77 101
M  END
> <Batch ID>
0002

> <Smiles>
CNC(C)C(=O)NC(C(=O)N1Cc2cc([101O:1][101CH2:1]c3ccc(C[100NH:0][100C:0](=O)N4CCCC(n5nc(-c6ccc(Oc7ccc(F)cc7F)cc6)c(C(N)=O)c5N)C4)cc3)ccc2CC1C(=O)NC1CCCc2ccccc21)C(C)(C)C

> <Shape>
0.232

> <Color>
0.203

> <Negative vol penalty>
0.000

$$$$

  -OEChem-04042320173D

 86 94  0     1  0  0  0  0  0999 V2000
  -27.2870  -33.5376   26.5892 C   0  0  0  0  0  0  0  0  0  0  0  0
  -27.6062  -32.4117   25.8370 C   0  0  0  0  0  0  0  0  0  0  0  0
  -24.7561  -12.6137   21.6313 C   0  0  0  0  0  0  0  0  0  0  0  0
  -25.6312  -12.6910   19.3806 C   0  0  0  0  0  0  0  0  0  0  0  0
  -25.9592  -33.7950   26.9276 C   0  0  0  0  0  0  0  0  0  0  0  0
  -26.5977  -31.5419   25.4236 C   0  0  0  0  0  0  0  0  0  0  0  0
  -27.0877  -30.1631   20.5755 C   0  0  0  0  0  0  0  0  0  0  0  0
  -24.1276  -11.4019   21.3453 C   0  0  0  0  0  0  0  0  0  0  0  0
  -25.0026  -11.4791   19.0947 C   0  0  0  0  0  0  0  0  0  0  0  0
  -28.0393  -29.1867   20.2843 C   0  0  0  0  0  0  0  0  0  0  0  0
  -24.9968   -8.1442   21.0905 C   0  0  0  0  0  0  0  0  0  0  0  0
  -25.1027   -7.1209   22.0324 C   0  0  0  0  0  0  0  0  0  0  0  0
  -26.2956  -27.5221   20.1966 C   0  0  0  0  0  0  0  0  0  0  0  0
  -31.3320  -22.8354   17.2083 C   0  0  0  0  0  0  0  0  0  0  0  0
  -29.0312  -22.6642   17.9249 C   0  0  0  0  0  0  0  0  0  0  0  0
  -30.6422  -21.0073   18.6293 C   0  0  0  0  0  0  0  0  0  0  0  0
  -22.6978   -7.0818   22.2604 C   0  0  0  0  0  0  0  0  0  0  0  0
  -25.5079  -13.2584   20.6489 C   0  0  0  0  0  0  0  0  0  0  0  0
  -27.4557  -14.6953   21.4546 C   0  0  0  0  0  0  0  0  0  0  0  0
  -24.9328  -32.9331   26.5100 C   0  0  0  0  0  0  0  0  0  0  0  0
  -25.7319  -29.8239   20.6904 C   0  0  0  0  0  0  0  0  0  0  0  0
  -25.2550  -31.7873   25.7579 C   0  0  0  0  0  0  0  0  0  0  0  0
  -25.3285  -28.4965   20.4868 C   0  0  0  0  0  0  0  0  0  0  0  0
  -30.0281  -23.3306   17.2123 C   0  0  0  0  0  0  0  0  0  0  0  0
  -31.6391  -21.6737   17.9168 C   0  0  0  0  0  0  0  0  0  0  0  0
  -29.3382  -21.5025   18.6334 C   0  0  0  0  0  0  0  0  0  0  0  0
  -24.2508  -10.8345   20.0770 C   0  0  0  0  0  0  0  0  0  0  0  0
  -27.6437  -27.8654   20.0976 C   0  0  0  0  0  0  0  0  0  0  0  0
  -23.7413   -8.6364   20.7336 C   0  0  0  0  0  0  0  0  0  0  0  0
  -23.9533   -6.5897   22.6174 C   0  0  0  0  0  0  0  0  0  0  0  0
  -22.5919   -8.1052   21.3185 C   0  0  0  0  0  0  0  0  0  0  0  0
  -26.1570  -14.5106   20.9435 C   0  0  0  0  0  0  0  0  0  0  0  0
  -27.5946  -16.0581   21.5545 C   0  0  0  0  0  0  0  0  0  0  0  0
  -28.4477  -13.7221   21.8073 C   0  0  0  0  0  0  0  0  0  0  0  0
  -23.5768  -29.9548   23.0232 C   0  0  0  0  0  0  0  0  0  0  0  0
  -21.5455  -29.0296   20.6694 C   0  0  0  0  0  0  0  0  0  0  0  0
  -21.1144  -27.4939   17.6524 C   0  0  0  0  0  0  0  0  0  0  0  0
  -26.9820  -21.1829   19.4654 C   0  0  0  0  0  0  0  0  0  0  0  0
  -23.5176  -33.2275   26.9403 C   0  0  0  0  0  0  0  0  0  0  0  0
  -24.7146  -30.8936   20.9787 C   0  0  0  0  0  0  0  0  0  0  0  0
  -23.8828  -28.0841   20.5792 C   0  0  0  0  0  0  0  0  0  0  0  0
  -22.4665  -32.4573   26.1451 C   0  0  0  0  0  0  0  0  0  0  0  0
  -24.1690  -19.7592   21.1199 C   0  0  0  0  0  0  0  0  0  0  0  0
  -22.8597  -30.9885   26.0231 C   0  0  0  0  0  0  0  0  0  0  0  0
  -24.5423  -18.2820   21.2635 C   0  0  0  0  0  0  0  0  0  0  0  0
  -24.6668  -20.3441   19.7994 C   0  0  0  0  0  0  0  0  0  0  0  0
  -26.4710  -18.6710   19.6775 C   0  0  0  0  0  0  0  0  0  0  0  0
  -24.1864  -30.8334   25.2698 C   0  0  1  0  0  0  0  0  0  0  0  0
  -23.4245  -30.3447   21.5801 C   0  0  1  0  0  0  0  0  0  0  0  0
  -26.0473  -18.0548   21.0208 C   0  0  2  0  0  0  0  0  0  0  0  0
  -28.6172  -24.3657   15.3873 C   0  0  0  0  0  0  0  0  0  0  0  0
  -19.3339  -26.8578   16.0024 C   0  0  0  0  0  0  0  0  0  0  0  0
  -20.6873  -26.7323   22.4849 C   0  0  0  0  0  0  0  0  0  0  0  0
  -19.6652  -25.6259   20.4850 C   0  0  0  0  0  0  0  0  0  0  0  0
  -18.8160  -27.8426   21.2519 C   0  0  0  0  0  0  0  0  0  0  0  0
  -22.3305  -29.1530   15.5246 C   0  0  0  0  0  0  0  0  0  0  0  0
  -30.2795  -26.1572   18.2990 C   0  0  0  0  0  0  0  0  0  0  0  0
  -29.7316  -27.3250   19.0954 C   0  0  0  0  0  0  0  0  0  1  0  0
  -29.6955  -24.5891   16.4446 C   0  0  1  0  0  0  0  0  0  0  0  0
  -21.0744  -27.7031   20.1240 C   0  0  1  0  0  0  0  0  0  0  0  0
  -20.3510  -27.9128   16.4089 C   0  0  2  0  0  0  0  0  0  0  0  0
  -33.0335  -21.1445   17.9125 C   0  0  0  0  0  0  0  0  0  0  0  0
  -20.0883  -26.9831   21.0866 C   0  0  0  0  0  0  0  0  0  0  0  0
  -25.5166  -15.6637   20.7336 N   0  0  0  0  0  0  0  0  0  0  0  0
  -26.4165  -16.5862   21.1147 N   0  0  0  0  0  0  0  0  0  0  0  0
  -22.9266  -29.1652   20.8694 N   0  0  0  0  0  0  0  0  0  0  0  0
  -26.1011  -20.0946   19.6399 N   0  0  0  0  0  0  0  0  0  0  0  0
  -28.6084  -16.8443   21.9749 N   0  0  0  0  0  0  0  0  0  0  0  0
  -28.1404  -12.3647   21.6421 N   0  0  0  0  0  0  0  0  0  0  0  0
  -28.3256  -20.8256   19.3573 N   0  0  0  0  0  0  0  0  0  0  0  0
  -23.9803  -30.9892   23.8459 N   0  0  0  0  0  0  0  0  0  0  0  0
  -20.5245  -27.9778   18.8010 N   0  0  0  0  0  0  0  0  0  0  0  0
  -21.2900  -28.1234   15.2710 N   0  3  0  0  0  0  0  0  0  0  0  0
  -29.2525  -25.7009   17.3287 N   0  3  0  0  0  0  0  0  0  0  0  0
  -29.5672  -14.0461   22.2713 O   0  0  0  0  0  0  0  0  0  0  0  0
  -23.3439  -28.8014   23.3652 O   0  0  0  0  0  0  0  0  0  0  0  0
  -20.7192  -29.9154   20.9025 O   0  0  0  0  0  0  0  0  0  0  0  0
  -22.1301  -26.8033   17.6094 O   0  0  0  0  0  0  0  0  0  0  0  0
  -26.5774  -22.3482   19.4429 O   0  0  0  0  0  0  0  0  0  0  0  0
  -23.6378   -9.6518   19.7977 O   0  0  0  0  0  0  0  0  0  0  0  0
  -28.5705  -26.9103   19.8139 O   0  0  0  0  0  0  0  0  0  1  0  0
  -24.0550   -5.6060   23.5207 F   0  0  0  0  0  0  0  0  0  0  0  0
  -21.3830   -8.5731   20.9788 F   0  0  0  0  0  0  0  0  0  0  0  0
  -33.9026  -21.8972   17.1750 F   0  0  0  0  0  0  0  0  0  0  0  0
  -33.5938  -21.0700   19.1560 F   0  0  0  0  0  0  0  0  0  0  0  0
  -33.1147  -19.8828   17.3982 F   0  0  0  0  0  0  0  0  0  0  0  0
  1  2  1  0  0  0  0
  1  5  2  0  0  0  0
  2  6  2  0  0  0  0
  3  8  2  0  0  0  0
  3 18  1  0  0  0  0
  4  9  1  0  0  0  0
  4 18  2  0  0  0  0
  5 20  1  0  0  0  0
  6 22  1  0  0  0  0
  7 10  2  0  0  0  0
  7 21  1  0  0  0  0
  8 27  1  0  0  0  0
  9 27  2  0  0  0  0
 10 28  1  0  0  0  0
 11 12  2  0  0  0  0
 11 29  1  0  0  0  0
 12 30  1  0  0  0  0
 13 23  1  0  0  0  0
 13 28  2  0  0  0  0
 14 24  2  0  0  0  0
 14 25  1  0  0  0  0
 15 24  1  0  0  0  0
 15 26  2  0  0  0  0
 16 25  2  0  0  0  0
 16 26  1  0  0  0  0
 17 30  2  0  0  0  0
 17 31  1  0  0  0  0
 18 32  1  0  0  0  0
 19 32  1  0  0  0  0
 19 33  2  0  0  0  0
 19 34  1  0  0  0  0
 20 22  2  0  0  0  0
 20 39  1  0  0  0  0
 21 23  2  0  0  0  0
 21 40  1  0  0  0  0
 22 48  1  0  0  0  0
 23 41  1  0  0  0  0
 24 59  1  0  0  0  0
 25 62  1  0  0  0  0
 26 70  1  0  0  0  0
 27 80  1  0  0  0  0
 28 81  1  0  0  0  0
 29 31  2  0  0  0  0
 29 80  1  0  0  0  0
 30 82  1  0  0  0  0
 31 83  1  0  0  0  0
 32 64  2  0  0  0  0
 33 65  1  0  0  0  0
 33 68  1  0  0  0  0
 34 69  1  0  0  0  0
 34 75  2  0  0  0  0
 35 49  1  0  0  0  0
 35 71  1  0  0  0  0
 35 76  2  0  0  0  0
 36 60  1  0  0  0  0
 36 66  1  0  0  0  0
 36 77  2  0  0  0  0
 37 61  1  0  0  0  0
 37 72  1  0  0  0  0
 37 78  2  0  0  0  0
 38 67  1  0  0  0  0
 38 70  1  0  0  0  0
 38 79  2  0  0  0  0
 39 42  1  0  0  0  0
 40 49  1  0  0  0  0
 41 66  1  0  0  0  0
 42 44  1  0  0  0  0
 43 45  1  0  0  0  0
 43 46  1  0  0  0  0
 44 48  1  0  0  0  0
 45 50  1  0  0  0  0
 46 67  1  0  0  0  0
 47 50  1  0  0  0  0
 47 67  1  0  0  0  0
 48 71  1  0  0  0  0
 49 66  1  0  0  0  0
 50 65  1  0  0  0  0
 51 59  1  0  0  0  0
 52 61  1  0  0  0  0
 53 63  1  0  0  0  0
 54 63  1  0  0  0  0
 55 63  1  0  0  0  0
 56 73  1  0  0  0  0
 57 58  1  0  0  0  0
 57 74  1  0  0  0  0
 58 81  1  0  0  0  0
 59 74  1  0  0  0  0
 60 63  1  0  0  0  0
 60 72  1  0  0  0  0
 61 73  1  0  0  0  0
 62 84  1  0  0  0  0
 62 85  1  0  0  0  0
 62 86  1  0  0  0  0
 64 65  1  0  0  0  0
M  CHG  2  73   1  74   1
M  ISO  4  38 100  58 101  70 100  81 101
M  END
> <Batch ID>
0002

> <Smiles>
CNC(C)C(=O)NC(C(=O)N1Cc2cc([101O:1][101CH2:1]CNC(C)c3cc([100NH:0][100C:0](=O)N4CCCC(n5nc(-c6ccc(Oc7ccc(F)cc7F)cc6)c(C(N)=O)c5N)C4)cc(C(F)(F)F)c3)ccc2CC1C(=O)NC1CCCc2ccccc21)C(C)(C)C

> <Shape>
0.286

> <Color>
0.081

> <Negative vol penalty>
0.000

$$$$

  -OEChem-04042320173D

 81 89  0     1  0  0  0  0  0999 V2000
  -32.4174  -35.6753   18.8595 C   0  0  0  0  0  0  0  0  0  0  0  0
  -32.2187  -34.4678   18.1978 C   0  0  0  0  0  0  0  0  0  0  0  0
  -24.4445  -10.0533   21.8743 C   0  0  0  0  0  0  0  0  0  0  0  0
  -24.6671  -11.3223   23.9181 C   0  0  0  0  0  0  0  0  0  0  0  0
  -30.0330  -21.5078   19.9416 C   0  0  0  0  0  0  0  0  0  0  0  0
  -32.1653  -35.7688   20.2276 C   0  0  0  0  0  0  0  0  0  0  0  0
  -31.7688  -33.3527   18.9041 C   0  0  0  0  0  0  0  0  0  0  0  0
  -27.7352  -27.4879   18.0984 C   0  0  0  0  0  0  0  0  0  0  0  0
  -30.0170  -20.1238   20.1139 C   0  0  0  0  0  0  0  0  0  0  0  0
  -24.0502   -8.9363   22.6108 C   0  0  0  0  0  0  0  0  0  0  0  0
  -24.2728  -10.2052   24.6546 C   0  0  0  0  0  0  0  0  0  0  0  0
  -27.7929  -26.1072   18.2833 C   0  0  0  0  0  0  0  0  0  0  0  0
  -21.2465   -7.8221   24.1376 C   0  0  0  0  0  0  0  0  0  0  0  0
  -20.1477   -7.0969   23.6770 C   0  0  0  0  0  0  0  0  0  0  0  0
  -27.7427  -21.6288   20.7013 C   0  0  0  0  0  0  0  0  0  0  0  0
  -27.3147  -26.4074   20.6286 C   0  0  0  0  0  0  0  0  0  0  0  0
  -21.5347   -5.1301   23.4648 C   0  0  0  0  0  0  0  0  0  0  0  0
  -24.7530  -11.2463   22.5280 C   0  0  0  0  0  0  0  0  0  0  0  0
  -28.8958  -22.2604   20.2353 C   0  0  0  0  0  0  0  0  0  0  0  0
  -24.3303  -13.4044   21.2351 C   0  0  0  0  0  0  0  0  0  0  0  0
  -31.7030  -34.6570   20.9491 C   0  0  0  0  0  0  0  0  0  0  0  0
  -27.4771  -28.3408   19.1811 C   0  0  0  0  0  0  0  0  0  0  0  0
  -31.5117  -33.4312   20.2833 C   0  0  0  0  0  0  0  0  0  0  0  0
  -27.2517  -27.7983   20.4543 C   0  0  0  0  0  0  0  0  0  0  0  0
  -27.7268  -20.2447   20.8736 C   0  0  0  0  0  0  0  0  0  0  0  0
  -28.8640  -19.4922   20.5799 C   0  0  0  0  0  0  0  0  0  0  0  0
  -23.9643   -9.0122   24.0009 C   0  0  0  0  0  0  0  0  0  0  0  0
  -27.5855  -25.5669   19.5490 C   0  0  0  0  0  0  0  0  0  0  0  0
  -22.4895   -7.2014   24.2617 C   0  0  0  0  0  0  0  0  0  0  0  0
  -20.2917   -5.7509   23.3407 C   0  0  0  0  0  0  0  0  0  0  0  0
  -22.6336   -5.8553   23.9254 C   0  0  0  0  0  0  0  0  0  0  0  0
  -25.1609  -12.4003   21.7678 C   0  0  0  0  0  0  0  0  0  0  0  0
  -25.1946  -14.2671   20.6063 C   0  0  0  0  0  0  0  0  0  0  0  0
  -22.9051  -13.5448   21.3027 C   0  0  0  0  0  0  0  0  0  0  0  0
  -28.9128  -23.7343   20.0506 C   0  0  0  0  0  0  0  0  0  1  0  0
  -29.0788  -30.6721   20.6315 C   0  0  0  0  0  0  0  0  0  0  0  0
  -26.3049  -31.0255   22.2757 C   0  0  0  0  0  0  0  0  0  0  0  0
  -23.3962  -29.6271   23.3849 C   0  0  0  0  0  0  0  0  0  0  0  0
  -29.9217  -17.2073   20.4977 C   0  0  0  0  0  0  0  0  0  0  0  0
  -31.4895  -34.7940   22.4358 C   0  0  0  0  0  0  0  0  0  0  0  0
  -27.3917  -29.8261   18.9599 C   0  0  0  0  0  0  0  0  0  0  0  0
  -26.9510  -28.6694   21.6456 C   0  0  0  0  0  0  0  0  0  0  0  0
  -30.6569  -33.6653   23.0382 C   0  0  0  0  0  0  0  0  0  0  0  0
  -30.1150  -13.7895   19.5186 C   0  0  0  0  0  0  0  0  0  0  0  0
  -31.1470  -32.3120   22.5328 C   0  0  0  0  0  0  0  0  0  0  0  0
  -28.7750  -13.2060   19.9727 C   0  0  0  0  0  0  0  0  0  0  0  0
  -30.6439  -14.8296   20.5046 C   0  0  0  0  0  0  0  0  0  0  0  0
  -28.3617  -15.3224   21.2907 C   0  0  0  0  0  0  0  0  0  0  0  0
  -31.0009  -32.2060   21.0100 C   0  0  1  0  0  0  0  0  0  0  0  0
  -27.6309  -30.6343   20.2316 C   0  0  1  0  0  0  0  0  0  0  0  0
  -27.7573  -14.3172   20.2967 C   0  0  2  0  0  0  0  0  0  0  0  0
  -21.3484  -30.1518   24.7372 C   0  0  0  0  0  0  0  0  0  0  0  0
  -27.9406  -30.7871   24.8404 C   0  0  0  0  0  0  0  0  0  0  0  0
  -25.8066  -30.3639   26.0794 C   0  0  0  0  0  0  0  0  0  0  0  0
  -26.1534  -32.5354   24.9016 C   0  0  0  0  0  0  0  0  0  0  0  0
  -21.6058  -29.1300   21.0813 C   0  0  0  0  0  0  0  0  0  0  0  0
  -26.4779  -19.5942   21.3738 C   0  0  0  0  0  0  0  0  0  0  0  0
  -25.7334  -30.4431   23.5458 C   0  0  1  0  0  0  0  0  0  0  0  0
  -21.9616  -30.1219   23.3458 C   0  0  2  0  0  0  0  0  0  0  0  0
  -26.4160  -31.0158   24.8199 C   0  0  0  0  0  0  0  0  0  0  0  0
  -26.4535  -12.6049   21.5006 N   0  0  0  0  0  0  0  0  0  0  0  0
  -26.4416  -13.7474   20.7930 N   0  0  0  0  0  0  0  0  0  0  0  0
  -26.8842  -30.1159   21.3796 N   0  0  0  0  0  0  0  0  0  0  0  0
  -29.6276  -15.8526   20.7604 N   0  0  0  0  0  0  0  0  0  0  0  0
  -25.0018  -15.4119   19.9173 N   0  0  0  0  0  0  0  0  0  0  0  0
  -22.1693  -12.5685   21.9881 N   0  0  0  0  0  0  0  0  0  0  0  0
  -28.8677  -18.0853   20.7482 N   0  0  0  0  0  0  0  0  0  0  0  0
  -29.6240  -31.9417   20.6516 N   0  0  0  0  0  0  0  0  0  0  0  0
  -24.2933  -30.6692   23.4866 N   0  0  0  0  0  0  0  0  0  0  0  0
  -25.5519  -19.1831   20.2842 N   0  3  0  0  0  0  0  0  0  0  0  0
  -21.1305  -29.2337   22.4849 N   0  3  0  0  0  0  0  0  0  0  0  0
  -22.3003  -14.4987   20.7570 O   0  0  0  0  0  0  0  0  0  0  0  0
  -29.9227  -24.4118   20.1697 O   0  0  0  0  0  0  0  0  0  0  0  0
  -29.6580  -29.6269   20.9032 O   0  0  0  0  0  0  0  0  0  0  0  0
  -26.2335  -32.2417   22.0823 O   0  0  0  0  0  0  0  0  0  0  0  0
  -23.6912  -28.4351   23.3342 O   0  0  0  0  0  0  0  0  0  0  0  0
  -31.0183  -17.5593   20.0553 O   0  0  0  0  0  0  0  0  0  0  0  0
  -23.5793   -7.9225   24.7199 O   0  0  0  0  0  0  0  0  0  0  0  0
  -27.6420  -24.2197   19.7324 O   0  0  0  0  0  0  0  0  0  1  0  0
  -19.2360   -5.0542   22.8999 F   0  0  0  0  0  0  0  0  0  0  0  0
  -23.8249   -5.2532   24.0437 F   0  0  0  0  0  0  0  0  0  0  0  0
  1  2  1  0  0  0  0
  1  6  2  0  0  0  0
  2  7  2  0  0  0  0
  3 10  2  0  0  0  0
  3 18  1  0  0  0  0
  4 11  1  0  0  0  0
  4 18  2  0  0  0  0
  5  9  2  0  0  0  0
  5 19  1  0  0  0  0
  6 21  1  0  0  0  0
  7 23  1  0  0  0  0
  8 12  2  0  0  0  0
  8 22  1  0  0  0  0
  9 26  1  0  0  0  0
 10 27  1  0  0  0  0
 11 27  2  0  0  0  0
 12 28  1  0  0  0  0
 13 14  2  0  0  0  0
 13 29  1  0  0  0  0
 14 30  1  0  0  0  0
 15 19  2  0  0  0  0
 15 25  1  0  0  0  0
 16 24  1  0  0  0  0
 16 28  2  0  0  0  0
 17 30  2  0  0  0  0
 17 31  1  0  0  0  0
 18 32  1  0  0  0  0
 19 35  1  0  0  0  0
 20 32  1  0  0  0  0
 20 33  2  0  0  0  0
 20 34  1  0  0  0  0
 21 23  2  0  0  0  0
 21 40  1  0  0  0  0
 22 24  2  0  0  0  0
 22 41  1  0  0  0  0
 23 49  1  0  0  0  0
 24 42  1  0  0  0  0
 25 26  2  0  0  0  0
 25 57  1  0  0  0  0
 26 67  1  0  0  0  0
 27 78  1  0  0  0  0
 28 79  1  0  0  0  0
 29 31  2  0  0  0  0
 29 78  1  0  0  0  0
 30 80  1  0  0  0  0
 31 81  1  0  0  0  0
 32 61  2  0  0  0  0
 33 62  1  0  0  0  0
 33 65  1  0  0  0  0
 34 66  1  0  0  0  0
 34 72  2  0  0  0  0
 35 73  2  0  0  0  0
 35 79  1  0  0  0  0
 36 50  1  0  0  0  0
 36 68  1  0  0  0  0
 36 74  2  0  0  0  0
 37 58  1  0  0  0  0
 37 63  1  0  0  0  0
 37 75  2  0  0  0  0
 38 59  1  0  0  0  0
 38 69  1  0  0  0  0
 38 76  2  0  0  0  0
 39 64  1  0  0  0  0
 39 67  1  0  0  0  0
 39 77  2  0  0  0  0
 40 43  1  0  0  0  0
 41 50  1  0  0  0  0
 42 63  1  0  0  0  0
 43 45  1  0  0  0  0
 44 46  1  0  0  0  0
 44 47  1  0  0  0  0
 45 49  1  0  0  0  0
 46 51  1  0  0  0  0
 47 64  1  0  0  0  0
 48 51  1  0  0  0  0
 48 64  1  0  0  0  0
 49 68  1  0  0  0  0
 50 63  1  0  0  0  0
 51 62  1  0  0  0  0
 52 59  1  0  0  0  0
 53 60  1  0  0  0  0
 54 60  1  0  0  0  0
 55 60  1  0  0  0  0
 56 71  1  0  0  0  0
 57 70  1  0  0  0  0
 58 60  1  0  0  0  0
 58 69  1  0  0  0  0
 59 71  1  0  0  0  0
 61 62  1  0  0  0  0
M  CHG  2  70   1  71   1
M  ISO  4  35 101  39 100  67 100  79 101
M  END
> <Batch ID>
0002

> <Smiles>
CNC(C)C(=O)NC(C(=O)N1Cc2cc([101O:1][101C:1](=O)c3ccc([100NH:0][100C:0](=O)N4CCCC(n5nc(-c6ccc(Oc7ccc(F)cc7F)cc6)c(C(N)=O)c5N)C4)c(CN)c3)ccc2CC1C(=O)NC1CCCc2ccccc21)C(C)(C)C

> <Shape>
0.292

> <Color>
0.153

> <Negative vol penalty>
0.000

$$$$

  -OEChem-04042320173D

 86 95  0     1  0  0  0  0  0999 V2000
  -17.1527  -31.5654   22.7682 C   0  0  0  0  0  0  0  0  0  0  0  0
  -17.7766  -31.0157   21.6528 C   0  0  0  0  0  0  0  0  0  0  0  0
  -23.3386  -10.3842   22.3539 C   0  0  0  0  0  0  0  0  0  0  0  0
  -24.8929  -11.1847   24.0213 C   0  0  0  0  0  0  0  0  0  0  0  0
  -17.8550  -32.4371   23.5994 C   0  0  0  0  0  0  0  0  0  0  0  0
  -19.1028  -31.3384   21.3674 C   0  0  0  0  0  0  0  0  0  0  0  0
  -32.1908  -19.1332   20.6292 C   0  0  0  0  0  0  0  0  0  0  0  0
  -30.2256  -19.3098   22.0235 C   0  0  0  0  0  0  0  0  0  0  0  0
  -24.1531  -26.2202   20.9308 C   0  0  0  0  0  0  0  0  0  0  0  0
  -32.3940  -17.8292   21.0807 C   0  0  0  0  0  0  0  0  0  0  0  0
  -30.4288  -18.0058   22.4750 C   0  0  0  0  0  0  0  0  0  0  0  0
  -22.8293   -9.4642   23.2703 C   0  0  0  0  0  0  0  0  0  0  0  0
  -24.3836  -10.2648   24.9378 C   0  0  0  0  0  0  0  0  0  0  0  0
  -25.1359  -25.2794   20.6225 C   0  0  0  0  0  0  0  0  0  0  0  0
  -20.6993   -9.4826   25.8963 C   0  0  0  0  0  0  0  0  0  0  0  0
  -19.3131   -9.3564   25.9858 C   0  0  0  0  0  0  0  0  0  0  0  0
  -26.7391  -27.0547   20.2676 C   0  0  0  0  0  0  0  0  0  0  0  0
  -19.4855   -7.0260   25.3723 C   0  0  0  0  0  0  0  0  0  0  0  0
  -24.3705  -11.2444   22.7294 C   0  0  0  0  0  0  0  0  0  0  0  0
  -24.1936  -13.2252   21.1316 C   0  0  0  0  0  0  0  0  0  0  0  0
  -31.1067  -19.8735   21.1006 C   0  0  0  0  0  0  0  0  0  0  0  0
  -19.1934  -32.7630   23.3294 C   0  0  0  0  0  0  0  0  0  0  0  0
  -24.4640  -27.5828   20.9236 C   0  0  0  0  0  0  0  0  0  0  0  0
  -19.8232  -32.2163   22.1950 C   0  0  0  0  0  0  0  0  0  0  0  0
  -25.7620  -28.0011   20.5877 C   0  0  0  0  0  0  0  0  0  0  0  0
  -31.5130  -17.2655   22.0036 C   0  0  0  0  0  0  0  0  0  0  0  0
  -23.3518   -9.4045   24.5622 C   0  0  0  0  0  0  0  0  0  0  0  0
  -26.4256  -25.6957   20.2915 C   0  0  0  0  0  0  0  0  0  0  0  0
  -21.4787   -8.3804   25.5446 C   0  0  0  0  0  0  0  0  0  0  0  0
  -18.7062   -8.1281   25.7239 C   0  0  0  0  0  0  0  0  0  0  0  0
  -20.8718   -7.1522   25.2826 C   0  0  0  0  0  0  0  0  0  0  0  0
  -24.8974  -12.1946   21.7830 C   0  0  0  0  0  0  0  0  0  0  0  0
  -25.1358  -13.8393   20.3431 C   0  0  0  0  0  0  0  0  0  0  0  0
  -22.8118  -13.5945   21.2304 C   0  0  0  0  0  0  0  0  0  0  0  0
  -23.2670  -31.0981   21.4584 C   0  0  0  0  0  0  0  0  0  0  0  0
  -26.0898  -30.9275   22.6470 C   0  0  0  0  0  0  0  0  0  0  0  0
  -29.0378  -30.2109   24.2069 C   0  0  0  0  0  0  0  0  0  0  0  0
  -31.0975  -14.2680   20.6983 C   0  0  0  0  0  0  0  0  0  0  0  0
  -28.5196  -24.7826   20.8342 C   0  0  0  0  0  0  0  0  0  1  0  0
  -19.8969  -33.7470   24.2303 C   0  0  0  0  0  0  0  0  0  0  0  0
  -23.4210  -28.6343   21.1891 C   0  0  0  0  0  0  0  0  0  0  0  0
  -26.0419  -29.4789   20.5590 C   0  0  0  0  0  0  0  0  0  0  0  0
  -21.4147  -33.7444   24.0676 C   0  0  0  0  0  0  0  0  0  0  0  0
  -29.2037  -12.9483   17.9874 C   0  0  0  0  0  0  0  0  0  0  0  0
  -21.7933  -33.7682   22.5901 C   0  0  0  0  0  0  0  0  0  0  0  0
  -27.8218  -12.6985   18.5940 C   0  0  0  0  0  0  0  0  0  0  0  0
  -29.5513  -21.4397   19.8552 C   0  0  0  0  0  0  0  0  0  0  0  0
  -30.9774  -22.3190   21.7529 C   0  0  0  0  0  0  0  0  0  0  0  0
  -30.3203  -12.6544   18.9869 C   0  0  0  0  0  0  0  0  0  0  0  0
  -29.3355  -22.8772   19.3849 C   0  0  0  0  0  0  0  0  0  0  0  0
  -30.7331  -23.7376   21.2430 C   0  0  0  0  0  0  0  0  0  0  0  0
  -28.8143  -13.1065   20.8847 C   0  0  0  0  0  0  0  0  0  0  0  0
  -30.8849  -21.2919   20.6100 C   0  0  0  0  0  0  0  0  0  0  0  0
  -21.2682  -32.5227   21.8659 C   0  0  1  0  0  0  0  0  0  0  0  0
  -23.9781  -29.8636   21.9292 C   0  0  1  0  0  0  0  0  0  0  0  0
  -27.6540  -13.4428   19.9323 C   0  0  2  0  0  0  0  0  0  0  0  0
  -30.8476  -31.2738   25.5826 C   0  0  0  0  0  0  0  0  0  0  0  0
  -27.2022  -32.2665   20.1423 C   0  0  0  0  0  0  0  0  0  0  0  0
  -29.4025  -32.4772   21.3182 C   0  0  0  0  0  0  0  0  0  0  0  0
  -27.3886  -33.6347   22.2275 C   0  0  0  0  0  0  0  0  0  0  0  0
  -28.5253  -28.4002   26.4911 C   0  0  0  0  0  0  0  0  0  0  0  0
  -31.7300  -15.8705   22.4846 C   0  0  0  0  0  0  0  0  0  0  0  0
  -27.5689  -31.1208   22.4268 C   0  0  1  0  0  0  0  0  0  0  0  0
  -29.5334  -30.5089   25.6105 C   0  0  2  0  0  0  0  0  0  0  0  0
  -27.8782  -32.3494   21.5255 C   0  0  0  0  0  0  0  0  0  0  0  0
  -26.1871  -12.1531   21.4381 N   0  0  0  0  0  0  0  0  0  0  0  0
  -26.3012  -13.1652   20.5614 N   0  0  0  0  0  0  0  0  0  0  0  0
  -25.4104  -30.1322   21.7162 N   0  0  0  0  0  0  0  0  0  0  0  0
  -30.1025  -13.3921   20.2336 N   0  0  0  0  0  0  0  0  0  0  0  0
  -29.4773  -23.8200   20.4986 N   0  0  0  0  0  0  0  0  0  0  0  0
  -25.0728  -14.8847   19.4913 N   0  0  0  0  0  0  0  0  0  0  0  0
  -21.9830  -12.8579   22.0877 N   0  0  0  0  0  0  0  0  0  0  0  0
  -22.1068  -31.3791   22.1545 N   0  0  0  0  0  0  0  0  0  0  0  0
  -28.1740  -31.1850   23.7528 N   0  0  0  0  0  0  0  0  0  0  0  0
  -30.8082  -14.9323   21.8840 N   0  0  0  0  0  0  0  0  0  0  0  0
  -29.7433  -29.2415   26.3657 N   0  3  0  0  0  0  0  0  0  0  0  0
  -22.3227  -14.5391   20.5655 O   0  0  0  0  0  0  0  0  0  0  0  0
  -23.7362  -31.7497   20.5326 O   0  0  0  0  0  0  0  0  0  0  0  0
  -25.5480  -31.4703   23.6140 O   0  0  0  0  0  0  0  0  0  0  0  0
  -29.3853  -29.2157   23.5751 O   0  0  0  0  0  0  0  0  0  0  0  0
  -32.1623  -14.4489   20.0980 O   0  0  0  0  0  0  0  0  0  0  0  0
  -28.6337  -25.5761   21.7677 O   0  0  0  0  0  0  0  0  0  0  0  0
  -22.8549   -8.5071   25.4568 O   0  0  0  0  0  0  0  0  0  0  0  0
  -27.4080  -24.7461   19.9878 O   0  0  0  0  0  0  0  0  0  1  0  0
  -17.3751   -8.0067   25.8115 F   0  0  0  0  0  0  0  0  0  0  0  0
  -21.6154   -6.0895   24.9455 F   0  0  0  0  0  0  0  0  0  0  0  0
  1  2  1  0  0  0  0
  1  5  2  0  0  0  0
  2  6  2  0  0  0  0
  3 12  2  0  0  0  0
  3 19  1  0  0  0  0
  4 13  1  0  0  0  0
  4 19  2  0  0  0  0
  5 22  1  0  0  0  0
  6 24  1  0  0  0  0
  7 10  2  0  0  0  0
  7 21  1  0  0  0  0
  8 11  1  0  0  0  0
  8 21  2  0  0  0  0
  9 14  2  0  0  0  0
  9 23  1  0  0  0  0
 10 26  1  0  0  0  0
 11 26  2  0  0  0  0
 12 27  1  0  0  0  0
 13 27  2  0  0  0  0
 14 28  1  0  0  0  0
 15 16  2  0  0  0  0
 15 29  1  0  0  0  0
 16 30  1  0  0  0  0
 17 25  1  0  0  0  0
 17 28  2  0  0  0  0
 18 30  2  0  0  0  0
 18 31  1  0  0  0  0
 19 32  1  0  0  0  0
 20 32  1  0  0  0  0
 20 33  2  0  0  0  0
 20 34  1  0  0  0  0
 21 53  1  0  0  0  0
 22 24  2  0  0  0  0
 22 40  1  0  0  0  0
 23 25  2  0  0  0  0
 23 41  1  0  0  0  0
 24 54  1  0  0  0  0
 25 42  1  0  0  0  0
 26 62  1  0  0  0  0
 27 83  1  0  0  0  0
 28 84  1  0  0  0  0
 29 31  2  0  0  0  0
 29 83  1  0  0  0  0
 30 85  1  0  0  0  0
 31 86  1  0  0  0  0
 32 66  2  0  0  0  0
 33 67  1  0  0  0  0
 33 71  1  0  0  0  0
 34 72  1  0  0  0  0
 34 77  2  0  0  0  0
 35 55  1  0  0  0  0
 35 73  1  0  0  0  0
 35 78  2  0  0  0  0
 36 63  1  0  0  0  0
 36 68  1  0  0  0  0
 36 79  2  0  0  0  0
 37 64  1  0  0  0  0
 37 74  1  0  0  0  0
 37 80  2  0  0  0  0
 38 69  1  0  0  0  0
 38 75  1  0  0  0  0
 38 81  2  0  0  0  0
 39 70  1  0  0  0  0
 39 82  2  0  0  0  0
 39 84  1  0  0  0  0
 40 43  1  0  0  0  0
 41 55  1  0  0  0  0
 42 68  1  0  0  0  0
 43 45  1  0  0  0  0
 44 46  1  0  0  0  0
 44 49  1  0  0  0  0
 45 54  1  0  0  0  0
 46 56  1  0  0  0  0
 47 50  1  0  0  0  0
 47 53  1  0  0  0  0
 48 51  1  0  0  0  0
 48 53  1  0  0  0  0
 49 69  1  0  0  0  0
 50 70  1  0  0  0  0
 51 70  1  0  0  0  0
 52 56  1  0  0  0  0
 52 69  1  0  0  0  0
 54 73  1  0  0  0  0
 55 68  1  0  0  0  0
 56 67  1  0  0  0  0
 57 64  1  0  0  0  0
 58 65  1  0  0  0  0
 59 65  1  0  0  0  0
 60 65  1  0  0  0  0
 61 76  1  0  0  0  0
 62 75  1  0  0  0  0
 63 65  1  0  0  0  0
 63 74  1  0  0  0  0
 64 76  1  0  0  0  0
 66 67  1  0  0  0  0
M  CHG  1  76   1
M  ISO  4  38 100  39 101  75 100  84 101
M  END
> <Batch ID>
0002

> <Smiles>
CNC(C)C(=O)NC(C(=O)N1Cc2cc([101O:1][101C:1](=O)N3CCC(c4ccc(C[100NH:0][100C:0](=O)N5CCCC(n6nc(-c7ccc(Oc8ccc(F)cc8F)cc7)c(C(N)=O)c6N)C5)cc4)CC3)ccc2CC1C(=O)NC1CCCc2ccccc21)C(C)(C)C

> <Shape>
0.257

> <Color>
0.120

> <Negative vol penalty>
0.000

$$$$

  -OEChem-04042320173D

 94102  0     1  0  0  0  0  0999 V2000
  -10.4979  -25.4074   23.4325 C   0  0  0  0  0  0  0  0  0  0  0  0
  -11.1009  -26.4318   24.1553 C   0  0  0  0  0  0  0  0  0  0  0  0
  -23.1113   -9.8328   19.9976 C   0  0  0  0  0  0  0  0  0  0  0  0
  -23.7684   -9.9972   22.3167 C   0  0  0  0  0  0  0  0  0  0  0  0
  -11.2296  -24.2696   23.0952 C   0  0  0  0  0  0  0  0  0  0  0  0
  -12.4358  -26.3184   24.5422 C   0  0  0  0  0  0  0  0  0  0  0  0
  -17.3212  -31.1943   22.4807 C   0  0  0  0  0  0  0  0  0  0  0  0
  -30.0936  -19.2172   22.9699 C   0  0  0  0  0  0  0  0  0  0  0  0
  -32.2128  -18.7656   21.9013 C   0  0  0  0  0  0  0  0  0  0  0  0
  -29.6288  -17.9615   22.5790 C   0  0  0  0  0  0  0  0  0  0  0  0
  -31.7481  -17.5098   21.5104 C   0  0  0  0  0  0  0  0  0  0  0  0
  -22.3682   -8.6889   20.2892 C   0  0  0  0  0  0  0  0  0  0  0  0
  -23.0252   -8.8533   22.6083 C   0  0  0  0  0  0  0  0  0  0  0  0
  -18.2730  -32.1985   22.3028 C   0  0  0  0  0  0  0  0  0  0  0  0
  -19.7814   -8.0557   23.1197 C   0  0  0  0  0  0  0  0  0  0  0  0
  -18.9735   -8.0819   24.2564 C   0  0  0  0  0  0  0  0  0  0  0  0
  -19.9303  -30.8413   23.4251 C   0  0  0  0  0  0  0  0  0  0  0  0
  -20.1996   -6.2117   25.1709 C   0  0  0  0  0  0  0  0  0  0  0  0
  -23.8114  -10.4869   21.0114 C   0  0  0  0  0  0  0  0  0  0  0  0
  -24.1338  -13.0031   20.7425 C   0  0  0  0  0  0  0  0  0  0  0  0
  -12.5768  -24.1464   23.4697 C   0  0  0  0  0  0  0  0  0  0  0  0
  -17.6748  -30.0020   23.1186 C   0  0  0  0  0  0  0  0  0  0  0  0
  -13.1858  -25.1772   24.2107 C   0  0  0  0  0  0  0  0  0  0  0  0
  -18.9844  -29.8268   23.5951 C   0  0  0  0  0  0  0  0  0  0  0  0
  -31.3856  -19.6192   22.6311 C   0  0  0  0  0  0  0  0  0  0  0  0
  -30.4561  -17.1078   21.8492 C   0  0  0  0  0  0  0  0  0  0  0  0
  -22.3252   -8.1992   21.5946 C   0  0  0  0  0  0  0  0  0  0  0  0
  -19.5743  -32.0225   22.7741 C   0  0  0  0  0  0  0  0  0  0  0  0
  -20.7983   -7.1074   23.0084 C   0  0  0  0  0  0  0  0  0  0  0  0
  -19.1826   -7.1600   25.2821 C   0  0  0  0  0  0  0  0  0  0  0  0
  -21.0074   -6.1855   24.0340 C   0  0  0  0  0  0  0  0  0  0  0  0
  -24.5797  -11.6682   20.7106 C   0  0  0  0  0  0  0  0  0  0  0  0
  -25.2338  -13.7412   20.3794 C   0  0  0  0  0  0  0  0  0  0  0  0
  -22.8411  -13.5289   21.0710 C   0  0  0  0  0  0  0  0  0  0  0  0
  -16.5906  -26.6099   24.2991 C   0  0  0  0  0  0  0  0  0  0  0  0
  -19.4101  -26.2887   23.1339 C   0  0  0  0  0  0  0  0  0  0  0  0
  -30.5597  -23.0602   22.7798 C   0  0  0  0  0  0  0  0  0  0  0  0
  -22.3385  -26.2807   21.3842 C   0  0  0  0  0  0  0  0  0  0  0  0
  -30.6764  -14.8643   20.7248 C   0  0  0  0  0  0  0  0  0  0  0  0
  -13.3135  -22.8769   23.1230 C   0  0  0  0  0  0  0  0  0  0  0  0
  -16.6662  -28.9182   23.3866 C   0  0  0  0  0  0  0  0  0  0  0  0
  -19.3105  -28.5419   24.3060 C   0  0  0  0  0  0  0  0  0  0  0  0
  -14.8300  -22.9993   23.2474 C   0  0  0  0  0  0  0  0  0  0  0  0
  -29.6918  -12.2890   18.4719 C   0  0  0  0  0  0  0  0  0  0  0  0
  -15.2049  -23.6784   24.5608 C   0  0  0  0  0  0  0  0  0  0  0  0
  -28.2374  -12.0077   18.8561 C   0  0  0  0  0  0  0  0  0  0  0  0
  -30.5503  -12.6062   19.6950 C   0  0  0  0  0  0  0  0  0  0  0  0
  -28.5769  -13.3944   20.9415 C   0  0  0  0  0  0  0  0  0  0  0  0
  -14.6388  -25.1020   24.6270 C   0  0  1  0  0  0  0  0  0  0  0  0
  -17.2639  -27.5025   23.2984 C   0  0  1  0  0  0  0  0  0  0  0  0
  -27.6592  -13.1333   19.7360 C   0  0  2  0  0  0  0  0  0  0  0  0
  -24.1848  -24.7523   20.6409 C   0  0  0  0  0  0  0  0  0  0  0  0
  -20.5568  -26.3055   25.9603 C   0  0  0  0  0  0  0  0  0  0  0  0
  -22.7660  -25.6351   24.9917 C   0  0  0  0  0  0  0  0  0  0  0  0
  -20.7921  -24.1288   24.7515 C   0  0  0  0  0  0  0  0  0  0  0  0
  -21.7758  -26.8013   18.5256 C   0  0  0  0  0  0  0  0  0  0  0  0
  -31.8857  -20.9709   23.0519 C   0  0  0  0  0  0  0  0  0  0  0  0
  -30.0980  -24.0264   21.7030 C   0  0  0  0  0  0  0  0  0  0  0  0
  -29.2564  -25.1694   22.2659 C   0  0  0  0  0  0  0  0  0  0  0  0
  -28.7735  -26.1040   21.1562 C   0  0  0  0  0  0  0  0  0  0  0  0
  -27.9030  -27.2301   21.7165 C   0  0  0  0  0  0  0  0  0  0  0  0
  -27.4469  -28.1840   20.6099 C   0  0  0  0  0  0  0  0  0  0  0  0
  -26.6082  -29.3308   21.1783 C   0  0  0  0  0  0  0  0  0  0  0  0
  -26.1848  -30.3563   20.1227 C   0  0  0  0  0  0  0  0  0  0  0  0
  -25.3257  -31.4909   20.6872 C   0  0  0  0  0  0  0  0  0  0  0  0
  -24.9518  -32.4954   19.5942 C   0  0  0  0  0  0  0  0  0  0  0  0
  -24.0177  -33.6074   20.0814 C   0  0  0  0  0  0  0  0  0  0  0  0
  -22.6414  -33.1530   20.5783 C   0  0  0  0  0  0  0  0  0  0  0  0
  -21.7207  -34.3147   20.9647 C   0  0  0  0  0  0  0  0  0  0  0  0
  -20.3556  -33.8309   21.4407 C   0  0  0  0  0  0  0  0  0  1  0  0
  -20.8938  -26.2636   23.4008 C   0  0  1  0  0  0  0  0  0  0  0  0
  -22.8473  -25.3771   20.2755 C   0  0  2  0  0  0  0  0  0  0  0  0
  -21.2391  -25.6069   24.7672 C   0  0  0  0  0  0  0  0  0  0  0  0
  -25.8628  -11.5614   20.3552 N   0  0  0  0  0  0  0  0  0  0  0  0
  -26.2326  -12.8387   20.1603 N   0  0  0  0  0  0  0  0  0  0  0  0
  -18.7033  -27.4061   23.5947 N   0  0  0  0  0  0  0  0  0  0  0  0
  -29.9430  -13.6844   20.4782 N   0  0  0  0  0  0  0  0  0  0  0  0
  -25.4343  -15.0677   20.2293 N   0  0  0  0  0  0  0  0  0  0  0  0
  -21.8240  -12.6308   21.4221 N   0  0  0  0  0  0  0  0  0  0  0  0
  -29.9844  -15.8320   21.4522 N   0  0  0  0  0  0  0  0  0  0  0  0
  -15.4419  -26.0029   23.8284 N   0  0  0  0  0  0  0  0  0  0  0  0
  -31.3220  -22.0305   22.2475 N   0  0  0  0  0  0  0  0  0  0  0  0
  -21.5045  -25.6061   22.2506 N   0  0  0  0  0  0  0  0  0  0  0  0
  -23.0193  -26.1515   19.0140 N   0  3  0  0  0  0  0  0  0  0  0  0
  -22.5906  -14.7576   21.0378 O   0  0  0  0  0  0  0  0  0  0  0  0
  -17.0774  -26.4793   25.4161 O   0  0  0  0  0  0  0  0  0  0  0  0
  -18.8884  -25.3420   22.5382 O   0  0  0  0  0  0  0  0  0  0  0  0
  -30.2787  -23.1930   23.9678 O   0  0  0  0  0  0  0  0  0  0  0  0
  -22.6527  -27.4654   21.4748 O   0  0  0  0  0  0  0  0  0  0  0  0
  -31.8235  -15.0166   20.2970 O   0  0  0  0  0  0  0  0  0  0  0  0
  -21.6000   -7.0832   21.8795 O   0  0  0  0  0  0  0  0  0  0  0  0
  -20.5067  -33.0125   22.5917 O   0  0  0  0  0  0  0  0  0  1  0  0
  -18.4078   -7.1863   26.3743 F   0  0  0  0  0  0  0  0  0  0  0  0
  -21.9836   -5.2729   23.9334 F   0  0  0  0  0  0  0  0  0  0  0  0
  1  2  1  0  0  0  0
  1  5  2  0  0  0  0
  2  6  2  0  0  0  0
  3 12  2  0  0  0  0
  3 19  1  0  0  0  0
  4 13  1  0  0  0  0
  4 19  2  0  0  0  0
  5 21  1  0  0  0  0
  6 23  1  0  0  0  0
  7 14  2  0  0  0  0
  7 22  1  0  0  0  0
  8 10  2  0  0  0  0
  8 25  1  0  0  0  0
  9 11  1  0  0  0  0
  9 25  2  0  0  0  0
 10 26  1  0  0  0  0
 11 26  2  0  0  0  0
 12 27  1  0  0  0  0
 13 27  2  0  0  0  0
 14 28  1  0  0  0  0
 15 16  2  0  0  0  0
 15 29  1  0  0  0  0
 16 30  1  0  0  0  0
 17 24  1  0  0  0  0
 17 28  2  0  0  0  0
 18 30  2  0  0  0  0
 18 31  1  0  0  0  0
 19 32  1  0  0  0  0
 20 32  1  0  0  0  0
 20 33  2  0  0  0  0
 20 34  1  0  0  0  0
 21 23  2  0  0  0  0
 21 40  1  0  0  0  0
 22 24  2  0  0  0  0
 22 41  1  0  0  0  0
 23 49  1  0  0  0  0
 24 42  1  0  0  0  0
 25 57  1  0  0  0  0
 26 80  1  0  0  0  0
 27 91  1  0  0  0  0
 28 92  1  0  0  0  0
 29 31  2  0  0  0  0
 29 91  1  0  0  0  0
 30 93  1  0  0  0  0
 31 94  1  0  0  0  0
 32 74  2  0  0  0  0
 33 75  1  0  0  0  0
 33 78  1  0  0  0  0
 34 79  1  0  0  0  0
 34 85  2  0  0  0  0
 35 50  1  0  0  0  0
 35 81  1  0  0  0  0
 35 86  2  0  0  0  0
 36 71  1  0  0  0  0
 36 76  1  0  0  0  0
 36 87  2  0  0  0  0
 37 58  1  0  0  0  0
 37 82  1  0  0  0  0
 37 88  2  0  0  0  0
 38 72  1  0  0  0  0
 38 83  1  0  0  0  0
 38 89  2  0  0  0  0
 39 77  1  0  0  0  0
 39 80  1  0  0  0  0
 39 90  2  0  0  0  0
 40 43  1  0  0  0  0
 41 50  1  0  0  0  0
 42 76  1  0  0  0  0
 43 45  1  0  0  0  0
 44 46  1  0  0  0  0
 44 47  1  0  0  0  0
 45 49  1  0  0  0  0
 46 51  1  0  0  0  0
 47 77  1  0  0  0  0
 48 51  1  0  0  0  0
 48 77  1  0  0  0  0
 49 81  1  0  0  0  0
 50 76  1  0  0  0  0
 51 75  1  0  0  0  0
 52 72  1  0  0  0  0
 53 73  1  0  0  0  0
 54 73  1  0  0  0  0
 55 73  1  0  0  0  0
 56 84  1  0  0  0  0
 57 82  1  0  0  0  0
 58 59  1  0  0  0  0
 59 60  1  0  0  0  0
 60 61  1  0  0  0  0
 61 62  1  0  0  0  0
 62 63  1  0  0  0  0
 63 64  1  0  0  0  0
 64 65  1  0  0  0  0
 65 66  1  0  0  0  0
 66 67  1  0  0  0  0
 67 68  1  0  0  0  0
 68 69  1  0  0  0  0
 69 70  1  0  0  0  0
 70 92  1  0  0  0  0
 71 73  1  0  0  0  0
 71 83  1  0  0  0  0
 72 84  1  0  0  0  0
 74 75  1  0  0  0  0
M  CHG  1  84   1
M  ISO  4  39 100  70 101  80 100  92 101
M  END
> <Batch ID>
0002

> <Smiles>
CNC(C)C(=O)NC(C(=O)N1Cc2cc([101O:1][101CH2:1]CCCCCCCCCCCCC(=O)NCc3ccc([100NH:0][100C:0](=O)N4CCCC(n5nc(-c6ccc(Oc7ccc(F)cc7F)cc6)c(C(N)=O)c5N)C4)cc3)ccc2CC1C(=O)NC1CCCc2ccccc21)C(C)(C)C

> <Shape>
0.273

> <Color>
0.203

> <Negative vol penalty>
0.000

$$$$

  -OEChem-04042320173D

 79 87  0     1  0  0  0  0  0999 V2000
  -17.4802  -23.1131   24.9873 C   0  0  0  0  0  0  0  0  0  0  0  0
  -18.8266  -22.9147   24.6988 C   0  0  0  0  0  0  0  0  0  0  0  0
  -31.2477  -19.4820   19.1739 C   0  0  0  0  0  0  0  0  0  0  0  0
  -23.0743   -9.8691   19.9414 C   0  0  0  0  0  0  0  0  0  0  0  0
  -23.8387   -9.8740   22.2333 C   0  0  0  0  0  0  0  0  0  0  0  0
  -16.5195  -22.2592   24.4472 C   0  0  0  0  0  0  0  0  0  0  0  0
  -19.2132  -21.8614   23.8707 C   0  0  0  0  0  0  0  0  0  0  0  0
  -23.8641  -21.8265   19.8866 C   0  0  0  0  0  0  0  0  0  0  0  0
  -31.5069  -18.4283   20.0502 C   0  0  0  0  0  0  0  0  0  0  0  0
  -30.0125  -20.1292   19.2073 C   0  0  0  0  0  0  0  0  0  0  0  0
  -22.3316   -8.7152   20.1915 C   0  0  0  0  0  0  0  0  0  0  0  0
  -23.0959   -8.7201   22.4834 C   0  0  0  0  0  0  0  0  0  0  0  0
  -25.1647  -21.3308   19.9673 C   0  0  0  0  0  0  0  0  0  0  0  0
  -21.1153   -5.9803   23.8209 C   0  0  0  0  0  0  0  0  0  0  0  0
  -20.3613   -5.9350   24.9935 C   0  0  0  0  0  0  0  0  0  0  0  0
  -24.4524  -19.3012   18.8753 C   0  0  0  0  0  0  0  0  0  0  0  0
  -29.2957  -18.6688   20.9934 C   0  0  0  0  0  0  0  0  0  0  0  0
  -19.1141   -7.8723   24.2665 C   0  0  0  0  0  0  0  0  0  0  0  0
  -23.8279  -10.4484   20.9622 C   0  0  0  0  0  0  0  0  0  0  0  0
  -24.1680  -12.9739   20.8443 C   0  0  0  0  0  0  0  0  0  0  0  0
  -16.8936  -21.2008   23.6043 C   0  0  0  0  0  0  0  0  0  0  0  0
  -22.8439  -21.0575   19.3084 C   0  0  0  0  0  0  0  0  0  0  0  0
  -18.2566  -20.9917   23.3199 C   0  0  0  0  0  0  0  0  0  0  0  0
  -23.1403  -19.7905   18.7861 C   0  0  0  0  0  0  0  0  0  0  0  0
  -30.5309  -18.0216   20.9600 C   0  0  0  0  0  0  0  0  0  0  0  0
  -29.0365  -19.7226   20.1171 C   0  0  0  0  0  0  0  0  0  0  0  0
  -22.3424   -8.1407   21.4625 C   0  0  0  0  0  0  0  0  0  0  0  0
  -25.4584  -20.0668   19.4643 C   0  0  0  0  0  0  0  0  0  0  0  0
  -20.8687   -6.9717   22.8711 C   0  0  0  0  0  0  0  0  0  0  0  0
  -19.3607   -6.8809   25.2163 C   0  0  0  0  0  0  0  0  0  0  0  0
  -19.8682   -7.9177   23.0939 C   0  0  0  0  0  0  0  0  0  0  0  0
  -24.5957  -11.6401   20.7043 C   0  0  0  0  0  0  0  0  0  0  0  0
  -25.2589  -13.7245   20.4798 C   0  0  0  0  0  0  0  0  0  0  0  0
  -22.8980  -13.4885   21.2663 C   0  0  0  0  0  0  0  0  0  0  0  0
  -20.1084  -19.8154   20.3467 C   0  0  0  0  0  0  0  0  0  0  0  0
  -19.7350  -19.0210   17.2239 C   0  0  0  0  0  0  0  0  0  0  0  0
  -21.1893  -18.3748   14.2049 C   0  0  0  0  0  0  0  0  0  0  0  0
  -30.7424  -14.7466   20.6586 C   0  0  0  0  0  0  0  0  0  0  0  0
  -15.8233  -20.2754   23.0822 C   0  0  0  0  0  0  0  0  0  0  0  0
  -21.4518  -21.6175   19.2048 C   0  0  0  0  0  0  0  0  0  0  0  0
  -22.0852  -18.9335   18.1373 C   0  0  0  0  0  0  0  0  0  0  0  0
  -16.2841  -19.4098   21.9123 C   0  0  0  0  0  0  0  0  0  0  0  0
  -29.6016  -12.3640   18.2714 C   0  0  0  0  0  0  0  0  0  0  0  0
  -17.6464  -18.7914   22.2099 C   0  0  0  0  0  0  0  0  0  0  0  0
  -28.1652  -12.0690   18.7068 C   0  0  0  0  0  0  0  0  0  0  0  0
  -30.5210  -12.5841   19.4707 C   0  0  0  0  0  0  0  0  0  0  0  0
  -28.6215  -13.3125   20.8618 C   0  0  0  0  0  0  0  0  0  0  0  0
  -18.7133  -19.8753   22.4060 C   0  0  1  0  0  0  0  0  0  0  0  0
  -20.3831  -20.5387   19.0586 C   0  0  1  0  0  0  0  0  0  0  0  0
  -27.6451  -13.1386   19.6859 C   0  0  2  0  0  0  0  0  0  0  0  0
  -20.6289  -17.7163   11.8491 C   0  0  0  0  0  0  0  0  0  0  0  0
  -19.2731  -16.1473   18.1396 C   0  0  0  0  0  0  0  0  0  0  0  0
  -19.6676  -15.4060   15.7810 C   0  0  0  0  0  0  0  0  0  0  0  0
  -17.7531  -16.9157   16.3083 C   0  0  0  0  0  0  0  0  0  0  0  0
  -22.3314  -20.8763   13.1108 C   0  0  0  0  0  0  0  0  0  0  0  0
  -30.8094  -16.8958   21.8977 C   0  0  0  0  0  0  0  0  0  0  0  0
  -27.7076  -20.4183   20.1525 C   0  0  0  0  0  0  0  0  0  1  0  0
  -20.1084  -17.8326   16.3710 C   0  0  1  0  0  0  0  0  0  0  0  0
  -20.8713  -18.8727   12.8065 C   0  0  2  0  0  0  0  0  0  0  0  0
  -19.2203  -16.5905   16.6639 C   0  0  0  0  0  0  0  0  0  0  0  0
  -25.8598  -11.5454   20.2835 N   0  0  0  0  0  0  0  0  0  0  0  0
  -26.2357  -12.8294   20.1558 N   0  0  0  0  0  0  0  0  0  0  0  0
  -20.7379  -19.5226   18.0656 N   0  0  0  0  0  0  0  0  0  0  0  0
  -29.9715  -13.6113   20.3589 N   0  0  0  0  0  0  0  0  0  0  0  0
  -25.4684  -15.0561   20.4078 N   0  0  0  0  0  0  0  0  0  0  0  0
  -21.8873  -12.5783   21.6046 N   0  0  0  0  0  0  0  0  0  0  0  0
  -19.1341  -20.4073   21.1276 N   0  0  0  0  0  0  0  0  0  0  0  0
  -20.0568  -18.2912   14.9870 N   0  0  0  0  0  0  0  0  0  0  0  0
  -30.1444  -15.6741   21.5028 N   0  0  0  0  0  0  0  0  0  0  0  0
  -21.9997  -19.6910   12.2790 N   0  3  0  0  0  0  0  0  0  0  0  0
  -22.6611  -14.7189   21.3255 O   0  0  0  0  0  0  0  0  0  0  0  0
  -20.7332  -18.7950   20.6117 O   0  0  0  0  0  0  0  0  0  0  0  0
  -18.5977  -19.4914   17.1409 O   0  0  0  0  0  0  0  0  0  0  0  0
  -22.3278  -18.0853   14.5660 O   0  0  0  0  0  0  0  0  0  0  0  0
  -31.8774  -14.9233   20.2029 O   0  0  0  0  0  0  0  0  0  0  0  0
  -21.6176   -7.0149   21.7070 O   0  0  0  0  0  0  0  0  0  0  0  0
  -26.7269  -19.5802   19.5424 O   0  0  0  0  0  0  0  0  0  1  0  0
  -18.6357   -6.8363   26.3417 F   0  0  0  0  0  0  0  0  0  0  0  0
  -19.6259   -8.8717   22.1845 F   0  0  0  0  0  0  0  0  0  0  0  0
  1  2  1  0  0  0  0
  1  6  2  0  0  0  0
  2  7  2  0  0  0  0
  3  9  1  0  0  0  0
  3 10  2  0  0  0  0
  4 11  2  0  0  0  0
  4 19  1  0  0  0  0
  5 12  1  0  0  0  0
  5 19  2  0  0  0  0
  6 21  1  0  0  0  0
  7 23  1  0  0  0  0
  8 13  2  0  0  0  0
  8 22  1  0  0  0  0
  9 25  2  0  0  0  0
 10 26  1  0  0  0  0
 11 27  1  0  0  0  0
 12 27  2  0  0  0  0
 13 28  1  0  0  0  0
 14 15  2  0  0  0  0
 14 29  1  0  0  0  0
 15 30  1  0  0  0  0
 16 24  1  0  0  0  0
 16 28  2  0  0  0  0
 17 25  1  0  0  0  0
 17 26  2  0  0  0  0
 18 30  2  0  0  0  0
 18 31  1  0  0  0  0
 19 32  1  0  0  0  0
 20 32  1  0  0  0  0
 20 33  2  0  0  0  0
 20 34  1  0  0  0  0
 21 23  2  0  0  0  0
 21 39  1  0  0  0  0
 22 24  2  0  0  0  0
 22 40  1  0  0  0  0
 23 48  1  0  0  0  0
 24 41  1  0  0  0  0
 25 56  1  0  0  0  0
 26 57  1  0  0  0  0
 27 76  1  0  0  0  0
 28 77  1  0  0  0  0
 29 31  2  0  0  0  0
 29 76  1  0  0  0  0
 30 78  1  0  0  0  0
 31 79  1  0  0  0  0
 32 61  2  0  0  0  0
 33 62  1  0  0  0  0
 33 65  1  0  0  0  0
 34 66  1  0  0  0  0
 34 71  2  0  0  0  0
 35 49  1  0  0  0  0
 35 67  1  0  0  0  0
 35 72  2  0  0  0  0
 36 58  1  0  0  0  0
 36 63  1  0  0  0  0
 36 73  2  0  0  0  0
 37 59  1  0  0  0  0
 37 68  1  0  0  0  0
 37 74  2  0  0  0  0
 38 64  1  0  0  0  0
 38 69  1  0  0  0  0
 38 75  2  0  0  0  0
 39 42  1  0  0  0  0
 40 49  1  0  0  0  0
 41 63  1  0  0  0  0
 42 44  1  0  0  0  0
 43 45  1  0  0  0  0
 43 46  1  0  0  0  0
 44 48  1  0  0  0  0
 45 50  1  0  0  0  0
 46 64  1  0  0  0  0
 47 50  1  0  0  0  0
 47 64  1  0  0  0  0
 48 67  1  0  0  0  0
 49 63  1  0  0  0  0
 50 62  1  0  0  0  0
 51 59  1  0  0  0  0
 52 60  1  0  0  0  0
 53 60  1  0  0  0  0
 54 60  1  0  0  0  0
 55 70  1  0  0  0  0
 56 69  1  0  0  0  0
 57 77  1  0  0  0  0
 58 60  1  0  0  0  0
 58 68  1  0  0  0  0
 59 70  1  0  0  0  0
 61 62  1  0  0  0  0
M  CHG  1  70   1
M  ISO  4  38 100  57 101  69 100  77 101
M  END
> <Batch ID>
0002

> <Smiles>
CNC(C)C(=O)NC(C(=O)N1Cc2cc([101O:1][101CH2:1]c3cccc(C[100NH:0][100C:0](=O)N4CCCC(n5nc(-c6ccc(Oc7ccc(F)cc7F)cc6)c(C(N)=O)c5N)C4)c3)ccc2CC1C(=O)NC1CCCc2ccccc21)C(C)(C)C

> <Shape>
0.192

> <Color>
0.200

> <Negative vol penalty>
0.000

$$$$

  -OEChem-04042320173D

 88 97  0     1  0  0  0  0  0999 V2000
  -23.4823  -16.6542   26.4941 C   0  0  0  0  0  0  0  0  0  0  0  0
  -17.2829  -29.1360   27.0697 C   0  0  0  0  0  0  0  0  0  0  0  0
  -17.9264  -27.9028   27.0499 C   0  0  0  0  0  0  0  0  0  0  0  0
  -23.6119  -16.1209   25.2118 C   0  0  0  0  0  0  0  0  0  0  0  0
  -24.0150  -17.9102   26.7842 C   0  0  0  0  0  0  0  0  0  0  0  0
  -23.2420   -9.8245   19.9825 C   0  0  0  0  0  0  0  0  0  0  0  0
  -23.8796  -10.0009   22.3062 C   0  0  0  0  0  0  0  0  0  0  0  0
  -17.1616  -29.8767   25.8947 C   0  0  0  0  0  0  0  0  0  0  0  0
  -18.4482  -27.4090   25.8547 C   0  0  0  0  0  0  0  0  0  0  0  0
  -23.5243  -24.0537   25.1617 C   0  0  0  0  0  0  0  0  0  0  0  0
  -24.2744  -16.8435   24.2195 C   0  0  0  0  0  0  0  0  0  0  0  0
  -24.6775  -18.6329   25.7920 C   0  0  0  0  0  0  0  0  0  0  0  0
  -28.6803  -17.4425   21.8408 C   0  0  0  0  0  0  0  0  0  0  0  0
  -29.1961  -18.0940   24.1095 C   0  0  0  0  0  0  0  0  0  0  0  0
  -27.3656  -17.8743   22.0157 C   0  0  0  0  0  0  0  0  0  0  0  0
  -27.8814  -18.5258   24.2844 C   0  0  0  0  0  0  0  0  0  0  0  0
  -22.5626   -8.6381   20.2590 C   0  0  0  0  0  0  0  0  0  0  0  0
  -23.2001   -8.8146   22.5827 C   0  0  0  0  0  0  0  0  0  0  0  0
  -23.7297  -22.6824   25.0164 C   0  0  0  0  0  0  0  0  0  0  0  0
  -21.3302   -6.0222   23.9697 C   0  0  0  0  0  0  0  0  0  0  0  0
  -20.5185   -5.9880   25.1035 C   0  0  0  0  0  0  0  0  0  0  0  0
  -23.8000  -22.9530   22.6203 C   0  0  0  0  0  0  0  0  0  0  0  0
  -19.1905   -7.7965   24.2073 C   0  0  0  0  0  0  0  0  0  0  0  0
  -23.9006  -10.5059   21.0061 C   0  0  0  0  0  0  0  0  0  0  0  0
  -24.0837  -13.0388   20.7644 C   0  0  0  0  0  0  0  0  0  0  0  0
  -17.6906  -29.3962   24.6865 C   0  0  0  0  0  0  0  0  0  0  0  0
  -23.4442  -24.8847   24.0351 C   0  0  0  0  0  0  0  0  0  0  0  0
  -18.3327  -28.1434   24.6622 C   0  0  0  0  0  0  0  0  0  0  0  0
  -23.5961  -24.3349   22.7542 C   0  0  0  0  0  0  0  0  0  0  0  0
  -29.5956  -17.5523   22.8877 C   0  0  0  0  0  0  0  0  0  0  0  0
  -24.8072  -18.0996   24.5096 C   0  0  0  0  0  0  0  0  0  0  0  0
  -26.9661  -18.4160   23.2375 C   0  0  0  0  0  0  0  0  0  0  0  0
  -22.5416   -8.1332   21.5591 C   0  0  0  0  0  0  0  0  0  0  0  0
  -23.8646  -22.1314   23.7454 C   0  0  0  0  0  0  0  0  0  0  0  0
  -21.0721   -6.9435   22.9547 C   0  0  0  0  0  0  0  0  0  0  0  0
  -19.4486   -6.8751   25.2223 C   0  0  0  0  0  0  0  0  0  0  0  0
  -20.0023   -7.8307   23.0735 C   0  0  0  0  0  0  0  0  0  0  0  0
  -24.6032  -11.7311   20.7210 C   0  0  0  0  0  0  0  0  0  0  0  0
  -25.1423  -13.8406   20.4139 C   0  0  0  0  0  0  0  0  0  0  0  0
  -22.7624  -13.4885   21.0924 C   0  0  0  0  0  0  0  0  0  0  0  0
  -21.2047  -26.7655   22.7897 C   0  0  0  0  0  0  0  0  0  0  0  0
  -23.5846  -27.5895   20.7454 C   0  0  0  0  0  0  0  0  0  0  0  0
  -26.5349  -26.7552   19.2466 C   0  0  0  0  0  0  0  0  0  0  0  0
  -25.4202  -20.4024   23.5938 C   0  0  0  0  0  0  0  0  0  1  0  0
  -30.8833  -14.2018   21.0660 C   0  0  0  0  0  0  0  0  0  0  0  0
  -17.4934  -30.2110   23.4327 C   0  0  0  0  0  0  0  0  0  0  0  0
  -23.2490  -26.3659   24.2099 C   0  0  0  0  0  0  0  0  0  0  0  0
  -23.5381  -25.1868   21.5135 C   0  0  0  0  0  0  0  0  0  0  0  0
  -18.4032  -29.7881   22.2821 C   0  0  0  0  0  0  0  0  0  0  0  0
  -29.4036  -13.1318   18.0095 C   0  0  0  0  0  0  0  0  0  0  0  0
  -18.3978  -28.2705   22.1274 C   0  0  0  0  0  0  0  0  0  0  0  0
  -27.9666  -12.7831   18.4011 C   0  0  0  0  0  0  0  0  0  0  0  0
  -30.3945  -12.7614   19.1108 C   0  0  0  0  0  0  0  0  0  0  0  0
  -28.6425  -12.9689   20.8317 C   0  0  0  0  0  0  0  0  0  0  0  0
  -18.9335  -27.5853   23.3903 C   0  0  1  0  0  0  0  0  0  0  0  0
  -22.6703  -27.0426   22.9712 C   0  0  1  0  0  0  0  0  0  0  0  0
  -27.6006  -13.3753   19.7754 C   0  0  2  0  0  0  0  0  0  0  0  0
  -28.2174  -27.6144   17.5948 C   0  0  0  0  0  0  0  0  0  0  0  0
  -21.6899  -26.8936   18.4571 C   0  0  0  0  0  0  0  0  0  0  0  0
  -23.6691  -26.8492   16.9244 C   0  0  0  0  0  0  0  0  0  0  0  0
  -23.0475  -28.9625   18.0949 C   0  0  0  0  0  0  0  0  0  0  0  0
  -28.6955  -26.7499   21.2691 C   0  0  0  0  0  0  0  0  0  0  0  0
  -31.0014  -17.0908   22.7016 C   0  0  0  0  0  0  0  0  0  0  0  0
  -31.2196  -15.6196   23.0749 C   0  0  0  0  0  0  0  0  0  0  0  0
  -25.5307  -18.8890   23.4270 C   0  0  2  0  0  0  0  0  0  0  0  0
  -24.0802  -27.0710   19.4170 C   0  0  1  0  0  0  0  0  0  0  0  0
  -27.8260  -27.5320   19.0621 C   0  0  2  0  0  0  0  0  0  0  0  0
  -23.1209  -27.4275   18.2465 C   0  0  0  0  0  0  0  0  0  0  0  0
  -25.8916  -11.6995   20.3703 N   0  0  0  0  0  0  0  0  0  0  0  0
  -26.1906  -12.9973   20.1902 N   0  0  0  0  0  0  0  0  0  0  0  0
  -23.3392  -26.6284   21.7363 N   0  0  0  0  0  0  0  0  0  0  0  0
  -29.9908  -13.3555   20.3876 N   0  0  0  0  0  0  0  0  0  0  0  0
  -25.2694  -15.1778   20.2783 N   0  0  0  0  0  0  0  0  0  0  0  0
  -21.7954  -12.5317   21.4296 N   0  0  0  0  0  0  0  0  0  0  0  0
  -20.3779  -27.6654   23.4348 N   0  0  0  0  0  0  0  0  0  0  0  0
  -25.4353  -27.5872   19.2573 N   0  0  0  0  0  0  0  0  0  0  0  0
  -30.4195  -14.7277   22.2656 N   0  0  0  0  0  0  0  0  0  0  0  0
  -28.9365  -26.8759   19.8086 N   0  3  0  0  0  0  0  0  0  0  0  0
  -22.4441  -14.7017   21.0706 O   0  0  0  0  0  0  0  0  0  0  0  0
  -20.8502  -25.8072   22.1133 O   0  0  0  0  0  0  0  0  0  0  0  0
  -23.4279  -28.8032   20.9004 O   0  0  0  0  0  0  0  0  0  0  0  0
  -26.5044  -25.5323   19.3654 O   0  0  0  0  0  0  0  0  0  0  0  0
  -26.3650  -21.1783   23.6659 O   0  0  0  0  0  0  0  0  0  0  0  0
  -32.0080  -14.4732   20.6319 O   0  0  0  0  0  0  0  0  0  0  0  0
  -21.8784   -6.9757   21.8293 O   0  0  0  0  0  0  0  0  0  0  0  0
  -24.0645  -20.7931   23.6007 O   0  0  0  0  0  0  0  0  0  1  0  0
  -18.6683   -6.8411   26.3105 F   0  0  0  0  0  0  0  0  0  0  0  0
  -19.7487   -8.7173   22.1012 F   0  0  0  0  0  0  0  0  0  0  0  0
  1  4  1  0  0  0  0
  1  5  2  0  0  0  0
  2  3  1  0  0  0  0
  2  8  2  0  0  0  0
  3  9  2  0  0  0  0
  4 11  2  0  0  0  0
  5 12  1  0  0  0  0
  6 17  2  0  0  0  0
  6 24  1  0  0  0  0
  7 18  1  0  0  0  0
  7 24  2  0  0  0  0
  8 26  1  0  0  0  0
  9 28  1  0  0  0  0
 10 19  2  0  0  0  0
 10 27  1  0  0  0  0
 11 31  1  0  0  0  0
 12 31  2  0  0  0  0
 13 15  2  0  0  0  0
 13 30  1  0  0  0  0
 14 16  1  0  0  0  0
 14 30  2  0  0  0  0
 15 32  1  0  0  0  0
 16 32  2  0  0  0  0
 17 33  1  0  0  0  0
 18 33  2  0  0  0  0
 19 34  1  0  0  0  0
 20 21  2  0  0  0  0
 20 35  1  0  0  0  0
 21 36  1  0  0  0  0
 22 29  1  0  0  0  0
 22 34  2  0  0  0  0
 23 36  2  0  0  0  0
 23 37  1  0  0  0  0
 24 38  1  0  0  0  0
 25 38  1  0  0  0  0
 25 39  2  0  0  0  0
 25 40  1  0  0  0  0
 26 28  2  0  0  0  0
 26 46  1  0  0  0  0
 27 29  2  0  0  0  0
 27 47  1  0  0  0  0
 28 55  1  0  0  0  0
 29 48  1  0  0  0  0
 30 63  1  0  0  0  0
 31 65  1  0  0  0  0
 32 65  1  0  0  0  0
 33 85  1  0  0  0  0
 34 86  1  0  0  0  0
 35 37  2  0  0  0  0
 35 85  1  0  0  0  0
 36 87  1  0  0  0  0
 37 88  1  0  0  0  0
 38 69  2  0  0  0  0
 39 70  1  0  0  0  0
 39 73  1  0  0  0  0
 40 74  1  0  0  0  0
 40 79  2  0  0  0  0
 41 56  1  0  0  0  0
 41 75  1  0  0  0  0
 41 80  2  0  0  0  0
 42 66  1  0  0  0  0
 42 71  1  0  0  0  0
 42 81  2  0  0  0  0
 43 67  1  0  0  0  0
 43 76  1  0  0  0  0
 43 82  2  0  0  0  0
 44 65  1  0  0  0  0
 44 83  2  0  0  0  0
 44 86  1  0  0  0  0
 45 72  1  0  0  0  0
 45 77  1  0  0  0  0
 45 84  2  0  0  0  0
 46 49  1  0  0  0  0
 47 56  1  0  0  0  0
 48 71  1  0  0  0  0
 49 51  1  0  0  0  0
 50 52  1  0  0  0  0
 50 53  1  0  0  0  0
 51 55  1  0  0  0  0
 52 57  1  0  0  0  0
 53 72  1  0  0  0  0
 54 57  1  0  0  0  0
 54 72  1  0  0  0  0
 55 75  1  0  0  0  0
 56 71  1  0  0  0  0
 57 70  1  0  0  0  0
 58 67  1  0  0  0  0
 59 68  1  0  0  0  0
 60 68  1  0  0  0  0
 61 68  1  0  0  0  0
 62 78  1  0  0  0  0
 63 64  1  0  0  0  0
 64 77  1  0  0  0  0
 66 68  1  0  0  0  0
 66 76  1  0  0  0  0
 67 78  1  0  0  0  0
 69 70  1  0  0  0  0
M  CHG  1  78   1
M  ISO  4  44 101  45 100  77 100  86 101
M  END
> <Batch ID>
0002

> <Smiles>
CNC(C)C(=O)NC(C(=O)N1Cc2cc([101O:1][101C:1](=O)C(c3ccccc3)c3ccc(CC[100NH:0][100C:0](=O)N4CCCC(n5nc(-c6ccc(Oc7ccc(F)cc7F)cc6)c(C(N)=O)c5N)C4)cc3)ccc2CC1C(=O)NC1CCCc2ccccc21)C(C)(C)C

> <Shape>
0.264

> <Color>
0.205

> <Negative vol penalty>
0.000

$$$$

  -OEChem-04042320173D

 79 87  0     1  0  0  0  0  0999 V2000
  -28.1104  -37.0363   21.2099 C   0  0  0  0  0  0  0  0  0  0  0  0
  -28.5158  -35.7173   21.0323 C   0  0  0  0  0  0  0  0  0  0  0  0
  -26.8755  -12.7195   21.8041 C   0  0  0  0  0  0  0  0  0  0  0  0
  -26.2265  -14.3392   20.1330 C   0  0  0  0  0  0  0  0  0  0  0  0
  -26.9939  -37.3216   21.9946 C   0  0  0  0  0  0  0  0  0  0  0  0
  -27.8054  -34.6830   21.6405 C   0  0  0  0  0  0  0  0  0  0  0  0
  -26.8442  -29.0641   19.4020 C   0  0  0  0  0  0  0  0  0  0  0  0
  -29.8931  -23.9236   21.6325 C   0  0  0  0  0  0  0  0  0  0  0  0
  -30.3654  -22.6568   21.9756 C   0  0  0  0  0  0  0  0  0  0  0  0
  -25.5568  -12.2716   21.8821 C   0  0  0  0  0  0  0  0  0  0  0  0
  -24.9079  -13.8912   20.2109 C   0  0  0  0  0  0  0  0  0  0  0  0
  -27.4736  -27.8419   19.6335 C   0  0  0  0  0  0  0  0  0  0  0  0
  -22.4289  -10.4579   22.2587 C   0  0  0  0  0  0  0  0  0  0  0  0
  -22.2117   -9.0802   22.2718 C   0  0  0  0  0  0  0  0  0  0  0  0
  -25.7818  -27.2857   21.2606 C   0  0  0  0  0  0  0  0  0  0  0  0
  -29.0684  -23.0488   19.5369 C   0  0  0  0  0  0  0  0  0  0  0  0
  -23.2780   -8.8916   20.1120 C   0  0  0  0  0  0  0  0  0  0  0  0
  -27.2104  -13.7534   20.9296 C   0  0  0  0  0  0  0  0  0  0  0  0
  -29.5834  -13.7398   19.9936 C   0  0  0  0  0  0  0  0  0  0  0  0
  -26.2638  -36.2895   22.6048 C   0  0  0  0  0  0  0  0  0  0  0  0
  -25.6829  -29.4116   20.1072 C   0  0  0  0  0  0  0  0  0  0  0  0
  -26.6789  -34.9548   22.4353 C   0  0  0  0  0  0  0  0  0  0  0  0
  -25.1381  -28.5118   21.0344 C   0  0  0  0  0  0  0  0  0  0  0  0
  -29.2446  -24.1196   20.4132 C   0  0  0  0  0  0  0  0  0  0  0  0
  -29.5408  -21.7819   19.8799 C   0  0  0  0  0  0  0  0  0  0  0  0
  -30.1892  -21.5859   21.0992 C   0  0  0  0  0  0  0  0  0  0  0  0
  -24.5730  -12.8574   21.0855 C   0  0  0  0  0  0  0  0  0  0  0  0
  -26.9441  -26.9536   20.5650 C   0  0  0  0  0  0  0  0  0  0  0  0
  -23.0706  -11.0526   21.1723 C   0  0  0  0  0  0  0  0  0  0  0  0
  -22.6363   -8.2970   21.1985 C   0  0  0  0  0  0  0  0  0  0  0  0
  -23.4952  -10.2694   20.0989 C   0  0  0  0  0  0  0  0  0  0  0  0
  -28.5722  -14.2169   20.8490 C   0  0  0  0  0  0  0  0  0  0  0  0
  -30.6833  -14.5017   20.3037 C   0  0  0  0  0  0  0  0  0  0  0  0
  -29.5329  -12.7008   19.0068 C   0  0  0  0  0  0  0  0  0  0  0  0
  -24.8994  -31.7305   22.1351 C   0  0  0  0  0  0  0  0  0  0  0  0
  -21.9378  -30.4353   21.8632 C   0  0  0  0  0  0  0  0  0  0  0  0
  -20.0260  -27.7032   21.1371 C   0  0  0  0  0  0  0  0  0  0  0  0
  -31.3396  -19.9609   22.6428 C   0  0  0  0  0  0  0  0  0  0  0  0
  -25.0917  -36.6503   23.4827 C   0  0  0  0  0  0  0  0  0  0  0  0
  -25.0009  -30.7225   19.8265 C   0  0  0  0  0  0  0  0  0  0  0  0
  -23.8821  -28.8286   21.8029 C   0  0  0  0  0  0  0  0  0  0  0  0
  -24.1722  -35.4702   23.7865 C   0  0  0  0  0  0  0  0  0  0  0  0
  -32.6621  -16.9179   23.9342 C   0  0  0  0  0  0  0  0  0  0  0  0
  -24.9891  -34.2479   24.1934 C   0  0  0  0  0  0  0  0  0  0  0  0
  -31.8596  -15.8364   23.2073 C   0  0  0  0  0  0  0  0  0  0  0  0
  -31.8020  -18.1363   24.2651 C   0  0  0  0  0  0  0  0  0  0  0  0
  -30.2759  -17.6320   22.3980 C   0  0  0  0  0  0  0  0  0  0  0  0
  -25.9196  -33.8035   23.0584 C   0  0  1  0  0  0  0  0  0  0  0  0
  -24.1121  -31.1914   20.9743 C   0  0  1  0  0  0  0  0  0  0  0  0
  -31.1157  -16.4118   21.9862 C   0  0  2  0  0  0  0  0  0  0  0  0
  -29.3408  -20.6537   18.9205 C   0  0  0  0  0  0  0  0  0  0  0  0
  -17.6374  -26.9397   21.0404 C   0  0  0  0  0  0  0  0  0  0  0  0
  -21.8775  -30.2464   24.9080 C   0  0  0  0  0  0  0  0  0  0  0  0
  -19.9569  -28.6537   24.7016 C   0  0  0  0  0  0  0  0  0  0  0  0
  -19.7300  -30.9932   23.8664 C   0  0  0  0  0  0  0  0  0  0  0  0
  -20.2081  -27.1201   18.2413 C   0  0  0  0  0  0  0  0  0  0  0  0
  -28.7387  -25.4829   20.0433 C   0  0  0  0  0  0  0  0  0  1  0  0
  -21.1723  -29.3557   22.5895 C   0  0  1  0  0  0  0  0  0  0  0  0
  -18.7980  -27.5374   20.2602 C   0  0  2  0  0  0  0  0  0  0  0  0
  -20.7089  -29.8068   24.0035 C   0  0  0  0  0  0  0  0  0  0  0  0
  -28.9925  -15.2053   21.6430 N   0  0  0  0  0  0  0  0  0  0  0  0
  -30.2799  -15.3554   21.2879 N   0  0  0  0  0  0  0  0  0  0  0  0
  -23.2555  -30.1254   21.4977 N   0  0  0  0  0  0  0  0  0  0  0  0
  -31.1315  -18.6292   23.0600 N   0  0  0  0  0  0  0  0  0  0  0  0
  -31.9465  -14.5180   19.8279 N   0  0  0  0  0  0  0  0  0  0  0  0
  -28.3236  -12.0185   18.8163 N   0  0  0  0  0  0  0  0  0  0  0  0
  -30.6762  -20.3068   21.4659 N   0  0  0  0  0  0  0  0  0  0  0  0
  -25.1758  -33.0816   22.0484 N   0  0  0  0  0  0  0  0  0  0  0  0
  -20.0841  -28.9596   21.7022 N   0  0  0  0  0  0  0  0  0  0  0  0
  -19.1010  -26.6414   19.1086 N   0  3  0  0  0  0  0  0  0  0  0  0
  -30.5351  -12.3757   18.3261 O   0  0  0  0  0  0  0  0  0  0  0  0
  -25.2302  -30.9767   23.0429 O   0  0  0  0  0  0  0  0  0  0  0  0
  -21.3846  -31.5113   21.6226 O   0  0  0  0  0  0  0  0  0  0  0  0
  -20.8492  -26.8066   21.3070 O   0  0  0  0  0  0  0  0  0  0  0  0
  -32.0754  -20.7293   23.2675 O   0  0  0  0  0  0  0  0  0  0  0  0
  -23.2862  -12.4204   21.1611 O   0  0  0  0  0  0  0  0  0  0  0  0
  -27.5569  -25.7602   20.7934 O   0  0  0  0  0  0  0  0  0  1  0  0
  -22.4290   -6.9737   21.2118 F   0  0  0  0  0  0  0  0  0  0  0  0
  -24.1132  -10.8348   19.0529 F   0  0  0  0  0  0  0  0  0  0  0  0
  1  2  1  0  0  0  0
  1  5  2  0  0  0  0
  2  6  2  0  0  0  0
  3 10  2  0  0  0  0
  3 18  1  0  0  0  0
  4 11  1  0  0  0  0
  4 18  2  0  0  0  0
  5 20  1  0  0  0  0
  6 22  1  0  0  0  0
  7 12  2  0  0  0  0
  7 21  1  0  0  0  0
  8  9  2  0  0  0  0
  8 24  1  0  0  0  0
  9 26  1  0  0  0  0
 10 27  1  0  0  0  0
 11 27  2  0  0  0  0
 12 28  1  0  0  0  0
 13 14  2  0  0  0  0
 13 29  1  0  0  0  0
 14 30  1  0  0  0  0
 15 23  1  0  0  0  0
 15 28  2  0  0  0  0
 16 24  2  0  0  0  0
 16 25  1  0  0  0  0
 17 30  2  0  0  0  0
 17 31  1  0  0  0  0
 18 32  1  0  0  0  0
 19 32  1  0  0  0  0
 19 33  2  0  0  0  0
 19 34  1  0  0  0  0
 20 22  2  0  0  0  0
 20 39  1  0  0  0  0
 21 23  2  0  0  0  0
 21 40  1  0  0  0  0
 22 48  1  0  0  0  0
 23 41  1  0  0  0  0
 24 57  1  0  0  0  0
 25 26  2  0  0  0  0
 25 51  1  0  0  0  0
 26 67  1  0  0  0  0
 27 76  1  0  0  0  0
 28 77  1  0  0  0  0
 29 31  2  0  0  0  0
 29 76  1  0  0  0  0
 30 78  1  0  0  0  0
 31 79  1  0  0  0  0
 32 61  2  0  0  0  0
 33 62  1  0  0  0  0
 33 65  1  0  0  0  0
 34 66  1  0  0  0  0
 34 71  2  0  0  0  0
 35 49  1  0  0  0  0
 35 68  1  0  0  0  0
 35 72  2  0  0  0  0
 36 58  1  0  0  0  0
 36 63  1  0  0  0  0
 36 73  2  0  0  0  0
 37 59  1  0  0  0  0
 37 69  1  0  0  0  0
 37 74  2  0  0  0  0
 38 64  1  0  0  0  0
 38 67  1  0  0  0  0
 38 75  2  0  0  0  0
 39 42  1  0  0  0  0
 40 49  1  0  0  0  0
 41 63  1  0  0  0  0
 42 44  1  0  0  0  0
 43 45  1  0  0  0  0
 43 46  1  0  0  0  0
 44 48  1  0  0  0  0
 45 50  1  0  0  0  0
 46 64  1  0  0  0  0
 47 50  1  0  0  0  0
 47 64  1  0  0  0  0
 48 68  1  0  0  0  0
 49 63  1  0  0  0  0
 50 62  1  0  0  0  0
 52 59  1  0  0  0  0
 53 60  1  0  0  0  0
 54 60  1  0  0  0  0
 55 60  1  0  0  0  0
 56 70  1  0  0  0  0
 57 77  1  0  0  0  0
 58 60  1  0  0  0  0
 58 69  1  0  0  0  0
 59 70  1  0  0  0  0
 61 62  1  0  0  0  0
M  CHG  1  70   1
M  ISO  4  38 100  57 101  67 100  77 101
M  END
> <Batch ID>
0002

> <Smiles>
CNC(C)C(=O)NC(C(=O)N1Cc2cc([101O:1][101CH2:1]c3ccc([100NH:0][100C:0](=O)N4CCCC(n5nc(-c6ccc(Oc7ccc(F)cc7F)cc6)c(C(N)=O)c5N)C4)c(C)c3)ccc2CC1C(=O)NC1CCCc2ccccc21)C(C)(C)C

> <Shape>
0.345

> <Color>
0.080

> <Negative vol penalty>
0.000

$$$$

  -OEChem-04042320173D

 84 92  0     1  0  0  0  0  0999 V2000
  -23.2179   -8.2516   21.3740 C   0  0  0  0  0  0  0  0  0  0  0  0
  -24.0345   -8.8495   20.4195 C   0  0  0  0  0  0  0  0  0  0  0  0
  -28.1342  -28.8786   22.0496 C   0  0  0  0  0  0  0  0  0  0  0  0
  -26.6990  -27.0117   22.5899 C   0  0  0  0  0  0  0  0  0  0  0  0
  -22.5228   -9.0418   22.2886 C   0  0  0  0  0  0  0  0  0  0  0  0
  -24.1556  -10.2380   20.3783 C   0  0  0  0  0  0  0  0  0  0  0  0
  -28.9556  -11.7538   19.8234 C   0  0  0  0  0  0  0  0  0  0  0  0
  -32.0459  -19.5863   14.8631 C   0  0  0  0  0  0  0  0  0  0  0  0
  -31.8757  -18.8693   17.1640 C   0  0  0  0  0  0  0  0  0  0  0  0
  -31.0267  -20.5142   15.0768 C   0  0  0  0  0  0  0  0  0  0  0  0
  -30.8565  -19.7973   17.3777 C   0  0  0  0  0  0  0  0  0  0  0  0
  -27.3719  -29.7039   22.8762 C   0  0  0  0  0  0  0  0  0  0  0  0
  -25.9367  -27.8370   23.4166 C   0  0  0  0  0  0  0  0  0  0  0  0
  -29.5043  -11.6752   18.5442 C   0  0  0  0  0  0  0  0  0  0  0  0
  -26.0191  -32.2185   25.1261 C   0  0  0  0  0  0  0  0  0  0  0  0
  -26.6988  -33.0773   25.9897 C   0  0  0  0  0  0  0  0  0  0  0  0
  -29.1121  -14.0356   18.2375 C   0  0  0  0  0  0  0  0  0  0  0  0
  -27.7491  -31.1783   27.0517 C   0  0  0  0  0  0  0  0  0  0  0  0
  -27.7977  -27.5325   21.9063 C   0  0  0  0  0  0  0  0  0  0  0  0
  -29.7114  -25.9184   21.4161 C   0  0  0  0  0  0  0  0  0  0  0  0
  -22.6430  -10.4402   22.2647 C   0  0  0  0  0  0  0  0  0  0  0  0
  -28.4703  -12.9737   20.3160 C   0  0  0  0  0  0  0  0  0  0  0  0
  -23.4604  -11.0477   21.2926 C   0  0  0  0  0  0  0  0  0  0  0  0
  -28.5601  -14.1275   19.5243 C   0  0  0  0  0  0  0  0  0  0  0  0
  -32.4704  -18.7637   15.9066 C   0  0  0  0  0  0  0  0  0  0  0  0
  -30.4320  -20.6198   16.3341 C   0  0  0  0  0  0  0  0  0  0  0  0
  -26.2732  -29.1832   23.5597 C   0  0  0  0  0  0  0  0  0  0  0  0
  -29.5800  -12.8156   17.7499 C   0  0  0  0  0  0  0  0  0  0  0  0
  -26.2042  -30.8395   25.2253 C   0  0  0  0  0  0  0  0  0  0  0  0
  -27.5638  -32.5573   26.9525 C   0  0  0  0  0  0  0  0  0  0  0  0
  -27.0693  -30.3194   26.1881 C   0  0  0  0  0  0  0  0  0  0  0  0
  -28.5845  -26.6796   21.0521 C   0  0  0  0  0  0  0  0  0  0  0  0
  -30.0906  -25.2898   20.2553 C   0  0  0  0  0  0  0  0  0  0  0  0
  -30.3575  -25.7909   22.6897 C   0  0  0  0  0  0  0  0  0  0  0  0
  -25.6301  -14.0385   21.2666 C   0  0  0  0  0  0  0  0  0  0  0  0
  -27.3314  -16.6704   22.1036 C   0  0  0  0  0  0  0  0  0  0  0  0
  -30.1173  -18.5870   21.6425 C   0  0  0  0  0  0  0  0  0  0  0  0
  -28.8577  -22.4541   15.6248 C   0  0  0  0  0  0  0  0  0  0  0  0
  -21.8351  -11.2551   23.2435 C   0  0  0  0  0  0  0  0  0  0  0  0
  -27.9057  -13.0473   21.7083 C   0  0  0  0  0  0  0  0  0  0  0  0
  -28.0718  -15.4654   20.0142 C   0  0  0  0  0  0  0  0  0  0  0  0
  -22.3107  -12.6999   23.3718 C   0  0  0  0  0  0  0  0  0  0  0  0
  -28.5756  -26.0003   15.4781 C   0  0  0  0  0  0  0  0  0  0  0  0
  -22.5442  -13.3095   21.9931 C   0  0  0  0  0  0  0  0  0  0  0  0
  -28.6455  -26.4306   16.9451 C   0  0  0  0  0  0  0  0  0  0  0  0
  -27.8142  -24.6869   15.3079 C   0  0  0  0  0  0  0  0  0  0  0  0
  -28.3619  -24.0095   17.6123 C   0  0  0  0  0  0  0  0  0  0  0  0
  -23.6370  -12.5495   21.2317 C   0  0  1  0  0  0  0  0  0  0  0  0
  -26.9722  -14.2365   21.9124 C   0  0  1  0  0  0  0  0  0  0  0  0
  -29.1753  -25.2939   17.8411 C   0  0  2  0  0  0  0  0  0  0  0  0
  -31.2109  -20.6982   22.4450 C   0  0  0  0  0  0  0  0  0  0  0  0
  -25.3600  -18.3154   20.4551 C   0  0  0  0  0  0  0  0  0  0  0  0
  -27.0025  -20.2043   20.5041 C   0  0  0  0  0  0  0  0  0  0  0  0
  -26.0194  -19.3531   22.6329 C   0  0  0  0  0  0  0  0  0  0  0  0
  -32.4913  -17.1200   22.6281 C   0  0  0  0  0  0  0  0  0  0  0  0
  -33.5722  -17.7606   15.6754 C   0  0  0  0  0  0  0  0  0  0  0  0
  -33.0727  -16.3878   15.2107 C   0  0  0  0  0  0  0  0  0  0  0  0
  -34.1985  -15.3609   15.0555 C   0  0  0  0  0  0  0  0  0  0  0  0
  -33.6541  -14.0281   14.5617 C   0  0  0  0  0  0  0  0  0  0  0  0
  -32.0480  -12.2150   15.1714 C   0  0  0  0  0  0  0  0  0  0  0  0
  -31.1253  -11.7578   16.2839 C   0  0  0  0  0  0  0  0  0  1  0  0
  -27.7309  -17.9504   21.4100 C   0  0  1  0  0  0  0  0  0  0  0  0
  -31.0979  -19.1930   22.6303 C   0  0  2  0  0  0  0  0  0  0  0  0
  -26.5357  -18.9304   21.2402 C   0  0  0  0  0  0  0  0  0  0  0  0
  -28.2686  -26.5482   19.7610 N   0  0  0  0  0  0  0  0  0  0  0  0
  -29.2027  -25.6971   19.3036 N   0  0  0  0  0  0  0  0  0  0  0  0
  -27.5223  -15.4848   21.3800 N   0  0  0  0  0  0  0  0  0  0  0  0
  -28.3743  -23.6558   16.1842 N   0  0  0  0  0  0  0  0  0  0  0  0
  -31.0938  -24.4340   19.9660 N   0  0  0  0  0  0  0  0  0  0  0  0
  -29.8378  -26.5061   23.7771 N   0  0  0  0  0  0  0  0  0  0  0  0
  -29.3968  -21.5625   16.5517 N   0  0  0  0  0  0  0  0  0  0  0  0
  -24.9470  -12.9256   21.7186 N   0  0  0  0  0  0  0  0  0  0  0  0
  -28.8478  -18.4968   22.1730 N   0  0  0  0  0  0  0  0  0  0  0  0
  -32.4508  -18.5944   22.4506 N   0  3  0  0  0  0  0  0  0  0  0  0
  -32.6971  -13.4905   15.5662 N   0  3  0  0  0  0  0  0  0  0  0  0
  -31.3757  -25.0770   22.8546 O   0  0  0  0  0  0  0  0  0  0  0  0
  -25.2424  -14.8371   20.4218 O   0  0  0  0  0  0  0  0  0  0  0  0
  -26.8738  -16.7202   23.2480 O   0  0  0  0  0  0  0  0  0  0  0  0
  -30.4440  -18.2327   20.5118 O   0  0  0  0  0  0  0  0  0  0  0  0
  -28.8225  -22.2436   14.4097 O   0  0  0  0  0  0  0  0  0  0  0  0
  -25.5292  -29.9881   24.3666 O   0  0  0  0  0  0  0  0  0  0  0  0
  -30.1145  -12.7415   16.5006 O   0  0  0  0  0  0  0  0  0  1  0  0
  -28.2177  -33.3823   27.7807 F   0  0  0  0  0  0  0  0  0  0  0  0
  -27.2521  -28.9956   26.2874 F   0  0  0  0  0  0  0  0  0  0  0  0
  1  2  1  0  0  0  0
  1  5  2  0  0  0  0
  2  6  2  0  0  0  0
  3 12  2  0  0  0  0
  3 19  1  0  0  0  0
  4 13  1  0  0  0  0
  4 19  2  0  0  0  0
  5 21  1  0  0  0  0
  6 23  1  0  0  0  0
  7 14  2  0  0  0  0
  7 22  1  0  0  0  0
  8 10  2  0  0  0  0
  8 25  1  0  0  0  0
  9 11  1  0  0  0  0
  9 25  2  0  0  0  0
 10 26  1  0  0  0  0
 11 26  2  0  0  0  0
 12 27  1  0  0  0  0
 13 27  2  0  0  0  0
 14 28  1  0  0  0  0
 15 16  2  0  0  0  0
 15 29  1  0  0  0  0
 16 30  1  0  0  0  0
 17 24  1  0  0  0  0
 17 28  2  0  0  0  0
 18 30  2  0  0  0  0
 18 31  1  0  0  0  0
 19 32  1  0  0  0  0
 20 32  1  0  0  0  0
 20 33  2  0  0  0  0
 20 34  1  0  0  0  0
 21 23  2  0  0  0  0
 21 39  1  0  0  0  0
 22 24  2  0  0  0  0
 22 40  1  0  0  0  0
 23 48  1  0  0  0  0
 24 41  1  0  0  0  0
 25 56  1  0  0  0  0
 26 71  1  0  0  0  0
 27 81  1  0  0  0  0
 28 82  1  0  0  0  0
 29 31  2  0  0  0  0
 29 81  1  0  0  0  0
 30 83  1  0  0  0  0
 31 84  1  0  0  0  0
 32 65  2  0  0  0  0
 33 66  1  0  0  0  0
 33 69  1  0  0  0  0
 34 70  1  0  0  0  0
 34 76  2  0  0  0  0
 35 49  1  0  0  0  0
 35 72  1  0  0  0  0
 35 77  2  0  0  0  0
 36 62  1  0  0  0  0
 36 67  1  0  0  0  0
 36 78  2  0  0  0  0
 37 63  1  0  0  0  0
 37 73  1  0  0  0  0
 37 79  2  0  0  0  0
 38 68  1  0  0  0  0
 38 71  1  0  0  0  0
 38 80  2  0  0  0  0
 39 42  1  0  0  0  0
 40 49  1  0  0  0  0
 41 67  1  0  0  0  0
 42 44  1  0  0  0  0
 43 45  1  0  0  0  0
 43 46  1  0  0  0  0
 44 48  1  0  0  0  0
 45 50  1  0  0  0  0
 46 68  1  0  0  0  0
 47 50  1  0  0  0  0
 47 68  1  0  0  0  0
 48 72  1  0  0  0  0
 49 67  1  0  0  0  0
 50 66  1  0  0  0  0
 51 63  1  0  0  0  0
 52 64  1  0  0  0  0
 53 64  1  0  0  0  0
 54 64  1  0  0  0  0
 55 74  1  0  0  0  0
 56 57  1  0  0  0  0
 57 58  1  0  0  0  0
 58 59  1  0  0  0  0
 59 75  1  0  0  0  0
 60 61  1  0  0  0  0
 60 75  1  0  0  0  0
 61 82  1  0  0  0  0
 62 64  1  0  0  0  0
 62 73  1  0  0  0  0
 63 74  1  0  0  0  0
 65 66  1  0  0  0  0
M  CHG  2  74   1  75   1
M  ISO  4  38 100  61 101  71 100  82 101
M  END
> <Batch ID>
0002

> <Smiles>
CNC(C)C(=O)NC(C(=O)N1Cc2cc([101O:1][101CH2:1]CNCCCCc3ccc([100NH:0][100C:0](=O)N4CCCC(n5nc(-c6ccc(Oc7ccc(F)cc7F)cc6)c(C(N)=O)c5N)C4)cc3)ccc2CC1C(=O)NC1CCCc2ccccc21)C(C)(C)C

> <Shape>
0.225

> <Color>
0.080

> <Negative vol penalty>
0.000

$$$$

  -OEChem-04042320173D

 81 89  0     1  0  0  0  0  0999 V2000
  -32.4171  -21.2388   17.3259 C   0  0  0  0  0  0  0  0  0  0  0  0
  -28.9022  -35.7499   22.1744 C   0  0  0  0  0  0  0  0  0  0  0  0
  -29.0384  -34.3735   22.0242 C   0  0  0  0  0  0  0  0  0  0  0  0
  -26.1867  -14.7930   21.7136 C   0  0  0  0  0  0  0  0  0  0  0  0
  -26.1224  -15.8134   19.5247 C   0  0  0  0  0  0  0  0  0  0  0  0
  -27.8264  -36.2684   22.8938 C   0  0  0  0  0  0  0  0  0  0  0  0
  -28.0994  -33.5148   22.5945 C   0  0  0  0  0  0  0  0  0  0  0  0
  -26.6675  -29.8267   19.4334 C   0  0  0  0  0  0  0  0  0  0  0  0
  -31.4099  -25.4293   19.2438 C   0  0  0  0  0  0  0  0  0  0  0  0
  -29.4686  -24.2491   18.4216 C   0  0  0  0  0  0  0  0  0  0  0  0
  -32.1509  -24.2488   19.1886 C   0  0  0  0  0  0  0  0  0  0  0  0
  -30.2097  -23.0686   18.3665 C   0  0  0  0  0  0  0  0  0  0  0  0
  -24.7948  -14.7027   21.7124 C   0  0  0  0  0  0  0  0  0  0  0  0
  -24.7304  -15.7231   19.5234 C   0  0  0  0  0  0  0  0  0  0  0  0
  -27.5410  -28.7522   19.2713 C   0  0  0  0  0  0  0  0  0  0  0  0
  -21.2801  -13.8739   22.1315 C   0  0  0  0  0  0  0  0  0  0  0  0
  -20.7077  -12.6741   22.5540 C   0  0  0  0  0  0  0  0  0  0  0  0
  -26.2116  -27.4481   20.8048 C   0  0  0  0  0  0  0  0  0  0  0  0
  -21.8558  -11.5018   20.7806 C   0  0  0  0  0  0  0  0  0  0  0  0
  -26.8505  -15.3484   20.6198 C   0  0  0  0  0  0  0  0  0  0  0  0
  -29.2033  -14.4835   20.1465 C   0  0  0  0  0  0  0  0  0  0  0  0
  -26.8684  -35.4160   23.4650 C   0  0  0  0  0  0  0  0  0  0  0  0
  -25.5637  -29.7235   20.2922 C   0  0  0  0  0  0  0  0  0  0  0  0
  -27.0104  -34.0223   23.3234 C   0  0  0  0  0  0  0  0  0  0  0  0
  -25.3242  -28.5218   20.9740 C   0  0  0  0  0  0  0  0  0  0  0  0
  -30.0687  -25.4294   18.8603 C   0  0  0  0  0  0  0  0  0  0  0  0
  -31.5508  -23.0685   18.7500 C   0  0  0  0  0  0  0  0  0  0  0  0
  -24.0666  -15.1677   20.6173 C   0  0  0  0  0  0  0  0  0  0  0  0
  -27.3148  -27.5637   19.9593 C   0  0  0  0  0  0  0  0  0  0  0  0
  -22.1403  -13.8877   21.0335 C   0  0  0  0  0  0  0  0  0  0  0  0
  -20.9956  -11.4881   21.8786 C   0  0  0  0  0  0  0  0  0  0  0  0
  -22.4282  -12.7016   20.3581 C   0  0  0  0  0  0  0  0  0  0  0  0
  -28.2883  -15.4425   20.6207 C   0  0  0  0  0  0  0  0  0  0  0  0
  -30.4365  -15.0449   20.3711 C   0  0  0  0  0  0  0  0  0  0  0  0
  -28.9602  -13.1999   19.5558 C   0  0  0  0  0  0  0  0  0  0  0  0
  -24.6284  -31.2247   22.9333 C   0  0  0  0  0  0  0  0  0  0  0  0
  -21.9547  -29.4309   22.5388 C   0  0  0  0  0  0  0  0  0  0  0  0
  -20.5145  -26.6254   21.2342 C   0  0  0  0  0  0  0  0  0  0  0  0
  -32.2998  -20.7092   20.9149 C   0  0  0  0  0  0  0  0  0  0  0  0
  -25.7486  -36.0211   24.2740 C   0  0  0  0  0  0  0  0  0  0  0  0
  -24.6160  -30.8826   20.4355 C   0  0  0  0  0  0  0  0  0  0  0  0
  -24.1423  -28.3531   21.8922 C   0  0  0  0  0  0  0  0  0  0  0  0
  -24.5920  -35.0579   24.5291 C   0  0  0  0  0  0  0  0  0  0  0  0
  -32.6879  -18.0899   23.2951 C   0  0  0  0  0  0  0  0  0  0  0  0
  -25.1182  -33.7008   24.9854 C   0  0  0  0  0  0  0  0  0  0  0  0
  -31.6869  -17.0279   22.8368 C   0  0  0  0  0  0  0  0  0  0  0  0
  -32.1527  -19.5029   23.0735 C   0  0  0  0  0  0  0  0  0  0  0  0
  -30.7025  -18.7242   21.2393 C   0  0  0  0  0  0  0  0  0  0  0  0
  -25.9989  -33.0594   23.9062 C   0  0  1  0  0  0  0  0  0  0  0  0
  -23.8123  -30.8406   21.7316 C   0  0  1  0  0  0  0  0  0  0  0  0
  -31.2205  -17.2837   21.3911 C   0  0  2  0  0  0  0  0  0  0  0  0
  -18.3211  -25.4125   21.1109 C   0  0  0  0  0  0  0  0  0  0  0  0
  -22.3292  -28.4668   25.4093 C   0  0  0  0  0  0  0  0  0  0  0  0
  -20.7334  -26.6014   24.9173 C   0  0  0  0  0  0  0  0  0  0  0  0
  -19.9621  -28.9697   24.7782 C   0  0  0  0  0  0  0  0  0  0  0  0
  -20.4237  -26.8504   18.2846 C   0  0  0  0  0  0  0  0  0  0  0  0
  -29.2709  -26.6988   18.9193 C   0  0  0  0  0  0  0  0  0  1  0  0
  -32.3443  -21.8071   18.6897 C   0  0  1  0  0  0  0  0  0  0  0  0
  -21.5081  -28.0629   22.9951 C   0  0  1  0  0  0  0  0  0  0  0  0
  -19.2360  -26.4255   20.4405 C   0  0  2  0  0  0  0  0  0  0  0  0
  -21.1566  -28.0287   24.5092 C   0  0  0  0  0  0  0  0  0  0  0  0
  -32.4684  -20.8051   16.2506 N   0  0  0  0  0  0  0  0  0  0  0  0
  -28.8890  -16.5306   21.1098 N   0  0  0  0  0  0  0  0  0  0  0  0
  -30.1946  -16.2587   20.9442 N   0  0  0  0  0  0  0  0  0  0  0  0
  -23.2479  -29.5171   22.0041 N   0  0  0  0  0  0  0  0  0  0  0  0
  -31.7290  -19.6806   21.6826 N   0  0  0  0  0  0  0  0  0  0  0  0
  -31.6933  -14.6138   20.1325 N   0  0  0  0  0  0  0  0  0  0  0  0
  -27.6332  -12.7772   19.3985 N   0  0  0  0  0  0  0  0  0  0  0  0
  -25.1796  -32.4896   22.8581 N   0  0  0  0  0  0  0  0  0  0  0  0
  -20.4078  -27.6789   22.1174 N   0  0  0  0  0  0  0  0  0  0  0  0
  -31.8469  -20.8041   19.6047 N   0  0  0  0  0  0  0  0  0  0  0  0
  -19.5496  -25.9390   19.0672 N   0  3  0  0  0  0  0  0  0  0  0  0
  -29.8926  -12.4429   19.1935 O   0  0  0  0  0  0  0  0  0  0  0  0
  -24.7480  -30.4327   23.8607 O   0  0  0  0  0  0  0  0  0  0  0  0
  -21.1819  -30.3863   22.6460 O   0  0  0  0  0  0  0  0  0  0  0  0
  -21.5071  -25.9155   21.0882 O   0  0  0  0  0  0  0  0  0  0  0  0
  -33.1538  -21.4821   21.3623 O   0  0  0  0  0  0  0  0  0  0  0  0
  -22.7084  -15.0795   20.6157 O   0  0  0  0  0  0  0  0  0  0  0  0
  -28.1661  -26.5135   19.8034 O   0  0  0  0  0  0  0  0  0  1  0  0
  -20.4471  -10.3358   22.2854 F   0  0  0  0  0  0  0  0  0  0  0  0
  -23.2548  -12.7084   19.3033 F   0  0  0  0  0  0  0  0  0  0  0  0
  1 58  1  0  0  0  0
  1 62  3  0  0  0  0
  2  3  1  0  0  0  0
  2  6  2  0  0  0  0
  3  7  2  0  0  0  0
  4 13  2  0  0  0  0
  4 20  1  0  0  0  0
  5 14  1  0  0  0  0
  5 20  2  0  0  0  0
  6 22  1  0  0  0  0
  7 24  1  0  0  0  0
  8 15  2  0  0  0  0
  8 23  1  0  0  0  0
  9 11  2  0  0  0  0
  9 26  1  0  0  0  0
 10 12  1  0  0  0  0
 10 26  2  0  0  0  0
 11 27  1  0  0  0  0
 12 27  2  0  0  0  0
 13 28  1  0  0  0  0
 14 28  2  0  0  0  0
 15 29  1  0  0  0  0
 16 17  2  0  0  0  0
 16 30  1  0  0  0  0
 17 31  1  0  0  0  0
 18 25  1  0  0  0  0
 18 29  2  0  0  0  0
 19 31  2  0  0  0  0
 19 32  1  0  0  0  0
 20 33  1  0  0  0  0
 21 33  1  0  0  0  0
 21 34  2  0  0  0  0
 21 35  1  0  0  0  0
 22 24  2  0  0  0  0
 22 40  1  0  0  0  0
 23 25  2  0  0  0  0
 23 41  1  0  0  0  0
 24 49  1  0  0  0  0
 25 42  1  0  0  0  0
 26 57  1  0  0  0  0
 27 58  1  0  0  0  0
 28 78  1  0  0  0  0
 29 79  1  0  0  0  0
 30 32  2  0  0  0  0
 30 78  1  0  0  0  0
 31 80  1  0  0  0  0
 32 81  1  0  0  0  0
 33 63  2  0  0  0  0
 34 64  1  0  0  0  0
 34 67  1  0  0  0  0
 35 68  1  0  0  0  0
 35 73  2  0  0  0  0
 36 50  1  0  0  0  0
 36 69  1  0  0  0  0
 36 74  2  0  0  0  0
 37 59  1  0  0  0  0
 37 65  1  0  0  0  0
 37 75  2  0  0  0  0
 38 60  1  0  0  0  0
 38 70  1  0  0  0  0
 38 76  2  0  0  0  0
 39 66  1  0  0  0  0
 39 71  1  0  0  0  0
 39 77  2  0  0  0  0
 40 43  1  0  0  0  0
 41 50  1  0  0  0  0
 42 65  1  0  0  0  0
 43 45  1  0  0  0  0
 44 46  1  0  0  0  0
 44 47  1  0  0  0  0
 45 49  1  0  0  0  0
 46 51  1  0  0  0  0
 47 66  1  0  0  0  0
 48 51  1  0  0  0  0
 48 66  1  0  0  0  0
 49 69  1  0  0  0  0
 50 65  1  0  0  0  0
 51 64  1  0  0  0  0
 52 60  1  0  0  0  0
 53 61  1  0  0  0  0
 54 61  1  0  0  0  0
 55 61  1  0  0  0  0
 56 72  1  0  0  0  0
 57 79  1  0  0  0  0
 58 71  1  0  0  0  0
 59 61  1  0  0  0  0
 59 70  1  0  0  0  0
 60 72  1  0  0  0  0
 63 64  1  0  0  0  0
M  CHG  1  72   1
M  ISO  4  39 100  57 101  71 100  79 101
M  END
> <Batch ID>
0002

> <Smiles>
CNC(C)C(=O)NC(C(=O)N1Cc2cc([101O:1][101CH2:1]c3ccc(C(C#N)[100NH:0][100C:0](=O)N4CCCC(n5nc(-c6ccc(Oc7ccc(F)cc7F)cc6)c(C(N)=O)c5N)C4)cc3)ccc2CC1C(=O)NC1CCCc2ccccc21)C(C)(C)C

> <Shape>
0.317

> <Color>
0.079

> <Negative vol penalty>
0.000

$$$$

  -OEChem-04042320173D

 84 92  0     1  0  0  0  0  0999 V2000
  -29.5547  -23.1473   28.6147 C   0  0  0  0  0  0  0  0  0  0  0  0
  -29.5190  -23.3793   27.2435 C   0  0  0  0  0  0  0  0  0  0  0  0
  -26.0400  -13.2090   21.8822 C   0  0  0  0  0  0  0  0  0  0  0  0
  -25.7686  -14.1092   19.6566 C   0  0  0  0  0  0  0  0  0  0  0  0
  -28.3651  -23.0473   29.3349 C   0  0  0  0  0  0  0  0  0  0  0  0
  -28.2934  -23.5102   26.5914 C   0  0  0  0  0  0  0  0  0  0  0  0
  -28.2255  -27.3961   23.3449 C   0  0  0  0  0  0  0  0  0  0  0  0
  -28.5634  -24.1670   17.1928 C   0  0  0  0  0  0  0  0  0  0  0  0
  -27.6911  -23.0893   17.0411 C   0  0  0  0  0  0  0  0  0  0  0  0
  -24.8727  -12.4624   21.7225 C   0  0  0  0  0  0  0  0  0  0  0  0
  -24.6014  -13.3624   19.4969 C   0  0  0  0  0  0  0  0  0  0  0  0
  -28.8522  -27.2082   22.1137 C   0  0  0  0  0  0  0  0  0  0  0  0
  -23.9392   -9.5962   20.1907 C   0  0  0  0  0  0  0  0  0  0  0  0
  -23.9633   -8.2612   20.5942 C   0  0  0  0  0  0  0  0  0  0  0  0
  -26.7066  -26.7965   21.0910 C   0  0  0  0  0  0  0  0  0  0  0  0
  -29.3214  -23.2572   19.2987 C   0  0  0  0  0  0  0  0  0  0  0  0
  -22.1846   -8.7047   22.1680 C   0  0  0  0  0  0  0  0  0  0  0  0
  -26.4879  -14.0325   20.8492 C   0  0  0  0  0  0  0  0  0  0  0  0
  -29.0061  -14.4096   20.6938 C   0  0  0  0  0  0  0  0  0  0  0  0
  -27.1245  -23.1866   28.6930 C   0  0  0  0  0  0  0  0  0  0  0  0
  -26.8333  -27.2746   23.4607 C   0  0  0  0  0  0  0  0  0  0  0  0
  -27.0860  -23.4106   27.3035 C   0  0  0  0  0  0  0  0  0  0  0  0
  -26.0644  -26.9858   22.3242 C   0  0  0  0  0  0  0  0  0  0  0  0
  -29.3786  -24.2510   18.3216 C   0  0  0  0  0  0  0  0  0  0  0  0
  -27.6339  -22.0955   18.0182 C   0  0  0  0  0  0  0  0  0  0  0  0
  -28.4490  -22.1794   19.1470 C   0  0  0  0  0  0  0  0  0  0  0  0
  -24.1534  -12.5390   20.5299 C   0  0  0  0  0  0  0  0  0  0  0  0
  -28.0931  -26.9055   20.9872 C   0  0  0  0  0  0  0  0  0  0  0  0
  -23.0378  -10.4855   20.7759 C   0  0  0  0  0  0  0  0  0  0  0  0
  -23.0861   -7.8154   21.5828 C   0  0  0  0  0  0  0  0  0  0  0  0
  -22.1605  -10.0397   21.7645 C   0  0  0  0  0  0  0  0  0  0  0  0
  -27.6933  -14.8046   21.0138 C   0  0  0  0  0  0  0  0  0  0  0  0
  -29.7825  -15.4899   21.0352 C   0  0  0  0  0  0  0  0  0  0  0  0
  -29.4813  -13.1765   20.1376 C   0  0  0  0  0  0  0  0  0  0  0  0
  -24.8753  -25.3622   25.0771 C   0  0  0  0  0  0  0  0  0  0  0  0
  -22.5946  -27.3421   23.8935 C   0  0  0  0  0  0  0  0  0  0  0  0
  -21.6549  -29.5622   21.4779 C   0  0  0  0  0  0  0  0  0  0  0  0
  -28.6558  -21.3387   21.5127 C   0  0  0  0  0  0  0  0  0  0  0  0
  -25.8644  -23.0236   29.5055 C   0  0  0  0  0  0  0  0  0  0  0  0
  -26.1698  -27.5065   24.7905 C   0  0  0  0  0  0  0  0  0  0  0  0
  -24.5646  -26.8644   22.3913 C   0  0  0  0  0  0  0  0  0  0  0  0
  -24.6145  -23.5475   28.8028 C   0  0  0  0  0  0  0  0  0  0  0  0
  -29.9165  -19.1978   24.0631 C   0  0  0  0  0  0  0  0  0  0  0  0
  -24.5717  -23.0621   27.3573 C   0  0  0  0  0  0  0  0  0  0  0  0
  -29.6144  -17.7921   23.5386 C   0  0  0  0  0  0  0  0  0  0  0  0
  -28.8066  -20.1859   23.7090 C   0  0  0  0  0  0  0  0  0  0  0  0
  -28.1480  -18.8295   21.7608 C   0  0  0  0  0  0  0  0  0  0  0  0
  -25.7766  -23.5829   26.5646 C   0  0  1  0  0  0  0  0  0  0  0  0
  -24.7959  -26.8516   24.8951 C   0  0  1  0  0  0  0  0  0  0  0  0
  -29.2682  -17.8133   22.0369 C   0  0  2  0  0  0  0  0  0  0  0  0
  -27.0197  -20.1199   16.5781 C   0  0  0  0  0  0  0  0  0  0  0  0
  -25.2198  -21.4087   17.7841 C   0  0  0  0  0  0  0  0  0  0  0  0
  -19.7179  -30.9850   20.7560 C   0  0  0  0  0  0  0  0  0  0  0  0
  -30.2842  -26.4542   17.3193 C   0  0  0  0  0  0  0  0  0  0  0  0
  -31.7928  -24.9122   18.5537 C   0  0  0  0  0  0  0  0  0  0  0  0
  -21.1764  -24.8628   22.8205 C   0  0  0  0  0  0  0  0  0  0  0  0
  -19.8226  -26.3625   21.3419 C   0  0  0  0  0  0  0  0  0  0  0  0
  -19.6597  -26.5809   23.8215 C   0  0  0  0  0  0  0  0  0  0  0  0
  -23.2260  -32.0532   21.7701 C   0  0  0  0  0  0  0  0  0  0  0  0
  -30.0321  -26.2034   19.8026 C   0  0  0  0  0  0  0  0  0  1  0  0
  -26.6894  -20.9529   17.8298 C   0  0  0  0  0  0  0  0  0  0  0  0
  -21.7508  -27.3736   22.6421 C   0  0  1  0  0  0  0  0  0  0  0  0
  -21.0040  -30.9308   21.5658 C   0  0  2  0  0  0  0  0  0  0  0  0
  -30.3417  -25.4414   18.4881 C   0  0  0  0  0  0  0  0  0  0  0  0
  -20.6308  -26.2953   22.6553 C   0  0  0  0  0  0  0  0  0  0  0  0
  -27.6352  -16.0393   21.5198 N   0  0  0  0  0  0  0  0  0  0  0  0
  -28.9212  -16.4296   21.5203 N   0  0  0  0  0  0  0  0  0  0  0  0
  -23.9630  -27.0938   23.7153 N   0  0  0  0  0  0  0  0  0  0  0  0
  -28.5359  -20.1542   22.2700 N   0  0  0  0  0  0  0  0  0  0  0  0
  -31.1112  -15.7183   20.9648 N   0  0  0  0  0  0  0  0  0  0  0  0
  -28.5486  -12.1719   19.8458 N   0  0  0  0  0  0  0  0  0  0  0  0
  -28.4059  -21.1796   20.1501 N   0  0  0  0  0  0  0  0  0  0  0  0
  -25.5800  -24.9693   26.1989 N   0  0  0  0  0  0  0  0  0  0  0  0
  -21.2614  -28.7420   22.5141 N   0  0  0  0  0  0  0  0  0  0  0  0
  -21.9292  -31.9785   21.0491 N   0  3  0  0  0  0  0  0  0  0  0  0
  -30.6987  -12.9654   19.9216 O   0  0  0  0  0  0  0  0  0  0  0  0
  -24.3357  -24.6242   24.2611 O   0  0  0  0  0  0  0  0  0  0  0  0
  -22.0606  -27.5380   24.9880 O   0  0  0  0  0  0  0  0  0  0  0  0
  -22.4315  -29.2505   20.5778 O   0  0  0  0  0  0  0  0  0  0  0  0
  -28.9845  -22.4093   22.0302 O   0  0  0  0  0  0  0  0  0  0  0  0
  -23.0145  -11.8103   20.3736 O   0  0  0  0  0  0  0  0  0  0  0  0
  -28.7024  -26.7210   19.7844 O   0  0  0  0  0  0  0  0  0  1  0  0
  -23.1083   -6.5331   21.9691 F   0  0  0  0  0  0  0  0  0  0  0  0
  -21.2915  -10.8891   22.3294 F   0  0  0  0  0  0  0  0  0  0  0  0
  1  2  1  0  0  0  0
  1  5  2  0  0  0  0
  2  6  2  0  0  0  0
  3 10  2  0  0  0  0
  3 18  1  0  0  0  0
  4 11  1  0  0  0  0
  4 18  2  0  0  0  0
  5 20  1  0  0  0  0
  6 22  1  0  0  0  0
  7 12  2  0  0  0  0
  7 21  1  0  0  0  0
  8  9  2  0  0  0  0
  8 24  1  0  0  0  0
  9 25  1  0  0  0  0
 10 27  1  0  0  0  0
 11 27  2  0  0  0  0
 12 28  1  0  0  0  0
 13 14  2  0  0  0  0
 13 29  1  0  0  0  0
 14 30  1  0  0  0  0
 15 23  1  0  0  0  0
 15 28  2  0  0  0  0
 16 24  2  0  0  0  0
 16 26  1  0  0  0  0
 17 30  2  0  0  0  0
 17 31  1  0  0  0  0
 18 32  1  0  0  0  0
 19 32  1  0  0  0  0
 19 33  2  0  0  0  0
 19 34  1  0  0  0  0
 20 22  2  0  0  0  0
 20 39  1  0  0  0  0
 21 23  2  0  0  0  0
 21 40  1  0  0  0  0
 22 48  1  0  0  0  0
 23 41  1  0  0  0  0
 24 64  1  0  0  0  0
 25 26  2  0  0  0  0
 25 61  1  0  0  0  0
 26 72  1  0  0  0  0
 27 81  1  0  0  0  0
 28 82  1  0  0  0  0
 29 31  2  0  0  0  0
 29 81  1  0  0  0  0
 30 83  1  0  0  0  0
 31 84  1  0  0  0  0
 32 66  2  0  0  0  0
 33 67  1  0  0  0  0
 33 70  1  0  0  0  0
 34 71  1  0  0  0  0
 34 76  2  0  0  0  0
 35 49  1  0  0  0  0
 35 73  1  0  0  0  0
 35 77  2  0  0  0  0
 36 62  1  0  0  0  0
 36 68  1  0  0  0  0
 36 78  2  0  0  0  0
 37 63  1  0  0  0  0
 37 74  1  0  0  0  0
 37 79  2  0  0  0  0
 38 69  1  0  0  0  0
 38 72  1  0  0  0  0
 38 80  2  0  0  0  0
 39 42  1  0  0  0  0
 40 49  1  0  0  0  0
 41 68  1  0  0  0  0
 42 44  1  0  0  0  0
 43 45  1  0  0  0  0
 43 46  1  0  0  0  0
 44 48  1  0  0  0  0
 45 50  1  0  0  0  0
 46 69  1  0  0  0  0
 47 50  1  0  0  0  0
 47 69  1  0  0  0  0
 48 73  1  0  0  0  0
 49 68  1  0  0  0  0
 50 67  1  0  0  0  0
 51 61  1  0  0  0  0
 52 61  1  0  0  0  0
 53 63  1  0  0  0  0
 54 64  1  0  0  0  0
 55 64  1  0  0  0  0
 56 65  1  0  0  0  0
 57 65  1  0  0  0  0
 58 65  1  0  0  0  0
 59 75  1  0  0  0  0
 60 64  1  0  0  0  0
 60 82  1  0  0  0  0
 62 65  1  0  0  0  0
 62 74  1  0  0  0  0
 63 75  1  0  0  0  0
 66 67  1  0  0  0  0
M  CHG  1  75   1
M  ISO  4  38 100  60 101  72 100  82 101
M  END
> <Batch ID>
0002

> <Smiles>
CNC(C)C(=O)NC(C(=O)N1Cc2cc([101O:1][101CH2:1]C(C)(C)c3ccc(C(C)C)c([100NH:0][100C:0](=O)N4CCCC(n5nc(-c6ccc(Oc7ccc(F)cc7F)cc6)c(C(N)=O)c5N)C4)c3)ccc2CC1C(=O)NC1CCCc2ccccc21)C(C)(C)C

> <Shape>
0.248

> <Color>
0.062

> <Negative vol penalty>
0.000

$$$$

  -OEChem-04042320173D

 83 91  0     1  0  0  0  0  0999 V2000
  -33.9208  -25.3539   32.0477 C   0  0  0  0  0  0  0  0  0  0  0  0
  -33.2966  -24.1201   31.8941 C   0  0  0  0  0  0  0  0  0  0  0  0
  -33.8822  -11.6649   24.1037 C   0  0  0  0  0  0  0  0  0  0  0  0
  -23.1564   -9.8646   20.0535 C   0  0  0  0  0  0  0  0  0  0  0  0
  -23.8014   -9.9806   22.3789 C   0  0  0  0  0  0  0  0  0  0  0  0
  -33.4101  -11.6837   25.4161 C   0  0  0  0  0  0  0  0  0  0  0  0
  -33.8724  -26.2915   31.0170 C   0  0  0  0  0  0  0  0  0  0  0  0
  -32.6226  -23.8236   30.7099 C   0  0  0  0  0  0  0  0  0  0  0  0
  -33.6586  -19.1719   28.9973 C   0  0  0  0  0  0  0  0  0  0  0  0
  -33.0328  -12.0086   23.0520 C   0  0  0  0  0  0  0  0  0  0  0  0
  -22.4110   -8.7156   20.3176 C   0  0  0  0  0  0  0  0  0  0  0  0
  -23.0560   -8.8316   22.6430 C   0  0  0  0  0  0  0  0  0  0  0  0
  -33.0145  -18.1051   29.6225 C   0  0  0  0  0  0  0  0  0  0  0  0
  -22.9967   -5.4195   20.7835 C   0  0  0  0  0  0  0  0  0  0  0  0
  -23.1189   -4.3504   19.8961 C   0  0  0  0  0  0  0  0  0  0  0  0
  -31.2392  -12.3897   24.6250 C   0  0  0  0  0  0  0  0  0  0  0  0
  -31.4210  -18.0151   27.8137 C   0  0  0  0  0  0  0  0  0  0  0  0
  -20.7534   -4.4748   19.4204 C   0  0  0  0  0  0  0  0  0  0  0  0
  -23.8517  -10.4971   21.0841 C   0  0  0  0  0  0  0  0  0  0  0  0
  -32.0886  -12.0460   25.6768 C   0  0  0  0  0  0  0  0  0  0  0  0
  -24.1773  -13.0180   20.8689 C   0  0  0  0  0  0  0  0  0  0  0  0
  -33.2057  -26.0027   29.8158 C   0  0  0  0  0  0  0  0  0  0  0  0
  -33.1814  -19.6762   27.7789 C   0  0  0  0  0  0  0  0  0  0  0  0
  -32.5641  -24.7588   29.6626 C   0  0  0  0  0  0  0  0  0  0  0  0
  -32.0624  -19.0867   27.1738 C   0  0  0  0  0  0  0  0  0  0  0  0
  -31.7113  -12.3709   23.3126 C   0  0  0  0  0  0  0  0  0  0  0  0
  -22.3607   -8.1991   21.6123 C   0  0  0  0  0  0  0  0  0  0  0  0
  -31.8938  -17.5284   29.0321 C   0  0  0  0  0  0  0  0  0  0  0  0
  -21.7528   -6.0162   20.9896 C   0  0  0  0  0  0  0  0  0  0  0  0
  -21.9973   -3.8781   19.2145 C   0  0  0  0  0  0  0  0  0  0  0  0
  -20.6312   -5.5439   20.3080 C   0  0  0  0  0  0  0  0  0  0  0  0
  -24.6223  -11.6837   20.8118 C   0  0  0  0  0  0  0  0  0  0  0  0
  -25.2797  -13.7626   20.5268 C   0  0  0  0  0  0  0  0  0  0  0  0
  -31.5871  -12.0656   27.0751 C   0  0  0  0  0  0  0  0  0  0  0  0
  -22.8832  -13.5380   21.2015 C   0  0  0  0  0  0  0  0  0  0  0  0
  -32.0354  -22.4766   26.8051 C   0  0  0  0  0  0  0  0  0  0  0  0
  -32.1036  -21.0509   23.8922 C   0  0  0  0  0  0  0  0  0  0  0  0
  -32.0809  -18.1585   22.0810 C   0  0  0  0  0  0  0  0  0  0  0  0
  -31.1584  -12.7537   20.8848 C   0  0  0  0  0  0  0  0  0  0  0  0
  -33.1400  -27.0659   28.7482 C   0  0  0  0  0  0  0  0  0  0  0  0
  -33.9034  -20.8101   27.1041 C   0  0  0  0  0  0  0  0  0  0  0  0
  -31.5224  -19.5778   25.8563 C   0  0  0  0  0  0  0  0  0  0  0  0
  -32.7245  -26.5308   27.3803 C   0  0  0  0  0  0  0  0  0  0  0  0
  -29.3052  -13.5238   17.9438 C   0  0  0  0  0  0  0  0  0  0  0  0
  -31.5162  -25.6091   27.5121 C   0  0  0  0  0  0  0  0  0  0  0  0
  -27.8530  -13.2666   18.3525 C   0  0  0  0  0  0  0  0  0  0  0  0
  -30.2605  -12.5157   18.5800 C   0  0  0  0  0  0  0  0  0  0  0  0
  -28.7000  -12.1360   20.4481 C   0  0  0  0  0  0  0  0  0  0  0  0
  -31.8443  -24.3906   28.3834 C   0  0  1  0  0  0  0  0  0  0  0  0
  -33.0248  -21.5767   26.1203 C   0  0  1  0  0  0  0  0  0  0  0  0
  -27.7079  -13.1660   19.8837 C   0  0  2  0  0  0  0  0  0  0  0  0
  -32.1069  -17.3136   19.7183 C   0  0  0  0  0  0  0  0  0  0  0  0
  -29.1632  -21.8084   23.5915 C   0  0  0  0  0  0  0  0  0  0  0  0
  -29.0022  -20.1589   21.7149 C   0  0  0  0  0  0  0  0  0  0  0  0
  -30.5366  -22.1165   21.5243 C   0  0  0  0  0  0  0  0  0  0  0  0
  -34.6316  -16.7177   22.5016 C   0  0  0  0  0  0  0  0  0  0  0  0
  -30.6553  -14.1728   29.4629 C   0  0  0  0  0  0  0  0  0  0  0  0
  -29.9626  -13.0911   28.6452 C   0  0  0  0  0  0  0  0  0  0  0  0
  -30.6073  -15.5422   28.7961 C   0  0  0  0  0  0  0  0  0  1  0  0
  -31.1349  -20.2202   23.0856 C   0  0  1  0  0  0  0  0  0  0  0  0
  -32.9487  -17.6844   20.9293 C   0  0  2  0  0  0  0  0  0  0  0  0
  -29.9680  -21.0678   22.5049 C   0  0  0  0  0  0  0  0  0  0  0  0
  -25.9072  -11.5832   20.4610 N   0  0  0  0  0  0  0  0  0  0  0  0
  -26.2789  -12.8639   20.2944 N   0  0  0  0  0  0  0  0  0  0  0  0
  -32.2592  -20.6929   25.2389 N   0  0  0  0  0  0  0  0  0  0  0  0
  -30.0691  -12.4779   20.0315 N   0  0  0  0  0  0  0  0  0  0  0  0
  -25.4820  -15.0917   20.4051 N   0  0  0  0  0  0  0  0  0  0  0  0
  -21.8637  -12.6337   21.5286 N   0  0  0  0  0  0  0  0  0  0  0  0
  -30.8488  -12.7203   22.2441 N   0  0  0  0  0  0  0  0  0  0  0  0
  -30.5390  -12.9406   27.3378 N   0  0  0  0  0  0  0  0  0  0  0  0
  -32.6128  -23.4229   27.6302 N   0  0  0  0  0  0  0  0  0  0  0  0
  -31.9311  -19.5292   22.0771 N   0  0  0  0  0  0  0  0  0  0  0  0
  -33.7404  -16.4889   21.3353 N   0  3  0  0  0  0  0  0  0  0  0  0
  -32.1202  -11.3440   27.9138 O   0  0  0  0  0  0  0  0  0  0  0  0
  -22.6338  -14.7674   21.1923 O   0  0  0  0  0  0  0  0  0  0  0  0
  -30.8370  -22.3247   26.5991 O   0  0  0  0  0  0  0  0  0  0  0  0
  -32.7055  -21.9786   23.3457 O   0  0  0  0  0  0  0  0  0  0  0  0
  -31.5824  -17.3895   22.8999 O   0  0  0  0  0  0  0  0  0  0  0  0
  -32.2766  -13.0279   20.4418 O   0  0  0  0  0  0  0  0  0  0  0  0
  -21.6333   -7.0781   21.8704 O   0  0  0  0  0  0  0  0  0  0  0  0
  -31.2629  -16.4875   29.6405 O   0  0  0  0  0  0  0  0  0  1  0  0
  -22.1151   -2.8524   18.3611 F   0  0  0  0  0  0  0  0  0  0  0  0
  -19.4338   -6.1139   20.5009 F   0  0  0  0  0  0  0  0  0  0  0  0
  1  2  1  0  0  0  0
  1  7  2  0  0  0  0
  2  8  2  0  0  0  0
  3  6  2  0  0  0  0
  3 10  1  0  0  0  0
  4 11  2  0  0  0  0
  4 19  1  0  0  0  0
  5 12  1  0  0  0  0
  5 19  2  0  0  0  0
  6 20  1  0  0  0  0
  7 22  1  0  0  0  0
  8 24  1  0  0  0  0
  9 13  2  0  0  0  0
  9 23  1  0  0  0  0
 10 26  2  0  0  0  0
 11 27  1  0  0  0  0
 12 27  2  0  0  0  0
 13 28  1  0  0  0  0
 14 15  2  0  0  0  0
 14 29  1  0  0  0  0
 15 30  1  0  0  0  0
 16 20  2  0  0  0  0
 16 26  1  0  0  0  0
 17 25  1  0  0  0  0
 17 28  2  0  0  0  0
 18 30  2  0  0  0  0
 18 31  1  0  0  0  0
 19 32  1  0  0  0  0
 20 34  1  0  0  0  0
 21 32  1  0  0  0  0
 21 33  2  0  0  0  0
 21 35  1  0  0  0  0
 22 24  2  0  0  0  0
 22 40  1  0  0  0  0
 23 25  2  0  0  0  0
 23 41  1  0  0  0  0
 24 49  1  0  0  0  0
 25 42  1  0  0  0  0
 26 69  1  0  0  0  0
 27 80  1  0  0  0  0
 28 81  1  0  0  0  0
 29 31  2  0  0  0  0
 29 80  1  0  0  0  0
 30 82  1  0  0  0  0
 31 83  1  0  0  0  0
 32 63  2  0  0  0  0
 33 64  1  0  0  0  0
 33 67  1  0  0  0  0
 34 70  1  0  0  0  0
 34 74  2  0  0  0  0
 35 68  1  0  0  0  0
 35 75  2  0  0  0  0
 36 50  1  0  0  0  0
 36 71  1  0  0  0  0
 36 76  2  0  0  0  0
 37 60  1  0  0  0  0
 37 65  1  0  0  0  0
 37 77  2  0  0  0  0
 38 61  1  0  0  0  0
 38 72  1  0  0  0  0
 38 78  2  0  0  0  0
 39 66  1  0  0  0  0
 39 69  1  0  0  0  0
 39 79  2  0  0  0  0
 40 43  1  0  0  0  0
 41 50  1  0  0  0  0
 42 65  1  0  0  0  0
 43 45  1  0  0  0  0
 44 46  1  0  0  0  0
 44 47  1  0  0  0  0
 45 49  1  0  0  0  0
 46 51  1  0  0  0  0
 47 66  1  0  0  0  0
 48 51  1  0  0  0  0
 48 66  1  0  0  0  0
 49 71  1  0  0  0  0
 50 65  1  0  0  0  0
 51 64  1  0  0  0  0
 52 61  1  0  0  0  0
 53 62  1  0  0  0  0
 54 62  1  0  0  0  0
 55 62  1  0  0  0  0
 56 73  1  0  0  0  0
 57 58  1  0  0  0  0
 57 59  1  0  0  0  0
 58 70  1  0  0  0  0
 59 81  1  0  0  0  0
 60 62  1  0  0  0  0
 60 72  1  0  0  0  0
 61 73  1  0  0  0  0
 63 64  1  0  0  0  0
M  CHG  1  73   1
M  ISO  4  39 100  59 101  69 100  81 101
M  END
> <Batch ID>
0002

> <Smiles>
CNC(C)C(=O)NC(C(=O)N1Cc2cc([101O:1][101CH2:1]CCNC(=O)c3cccc([100NH:0][100C:0](=O)N4CCCC(n5nc(-c6ccc(Oc7ccc(F)cc7F)cc6)c(C(N)=O)c5N)C4)c3)ccc2CC1C(=O)NC1CCCc2ccccc21)C(C)(C)C

> <Shape>
0.142

> <Color>
0.167

> <Negative vol penalty>
0.000

$$$$

  -OEChem-04042320173D

 86 94  0     1  0  0  0  0  0999 V2000
  -28.9416  -24.9879   17.2980 C   0  0  0  0  0  0  0  0  0  0  0  0
  -27.6206  -25.4211   17.2455 C   0  0  0  0  0  0  0  0  0  0  0  0
  -27.2833  -12.4133   21.6115 C   0  0  0  0  0  0  0  0  0  0  0  0
  -26.5762  -13.9223   19.8623 C   0  0  0  0  0  0  0  0  0  0  0  0
  -29.6730  -25.1261   18.4769 C   0  0  0  0  0  0  0  0  0  0  0  0
  -27.0299  -25.9919   18.3723 C   0  0  0  0  0  0  0  0  0  0  0  0
  -22.8895  -30.5033   18.4724 C   0  0  0  0  0  0  0  0  0  0  0  0
  -24.2892  -23.5441   22.9641 C   0  0  0  0  0  0  0  0  0  0  0  0
  -24.8317  -22.8691   20.7086 C   0  0  0  0  0  0  0  0  0  0  0  0
  -25.1546  -22.5708   23.4635 C   0  0  0  0  0  0  0  0  0  0  0  0
  -25.6971  -21.8958   21.2080 C   0  0  0  0  0  0  0  0  0  0  0  0
  -26.4230  -11.4342   21.1147 C   0  0  0  0  0  0  0  0  0  0  0  0
  -25.7159  -12.9433   19.3654 C   0  0  0  0  0  0  0  0  0  0  0  0
  -21.5009  -30.4994   18.5965 C   0  0  0  0  0  0  0  0  0  0  0  0
  -23.1186  -10.7324   21.2282 C   0  0  0  0  0  0  0  0  0  0  0  0
  -22.3359  -10.0322   22.1461 C   0  0  0  0  0  0  0  0  0  0  0  0
  -21.7177  -30.8917   20.9668 C   0  0  0  0  0  0  0  0  0  0  0  0
  -23.3620   -7.9615   21.4414 C   0  0  0  0  0  0  0  0  0  0  0  0
  -27.3599  -13.6574   20.9853 C   0  0  0  0  0  0  0  0  0  0  0  0
  -29.5922  -14.8825   21.1386 C   0  0  0  0  0  0  0  0  0  0  0  0
  -29.0939  -25.7077   19.6159 C   0  0  0  0  0  0  0  0  0  0  0  0
  -23.7042  -30.6909   19.5982 C   0  0  0  0  0  0  0  0  0  0  0  0
  -27.7538  -26.1368   19.5680 C   0  0  0  0  0  0  0  0  0  0  0  0
  -23.1163  -30.9001   20.8539 C   0  0  0  0  0  0  0  0  0  0  0  0
  -24.1277  -23.6932   21.5866 C   0  0  0  0  0  0  0  0  0  0  0  0
  -25.8586  -21.7467   22.5855 C   0  0  0  0  0  0  0  0  0  0  0  0
  -25.6393  -11.6992   19.9916 C   0  0  0  0  0  0  0  0  0  0  0  0
  -20.9148  -30.6908   19.8443 C   0  0  0  0  0  0  0  0  0  0  0  0
  -24.0229  -10.0472   20.4167 C   0  0  0  0  0  0  0  0  0  0  0  0
  -22.4576   -8.6467   22.2527 C   0  0  0  0  0  0  0  0  0  0  0  0
  -24.1446   -8.6618   20.5234 C   0  0  0  0  0  0  0  0  0  0  0  0
  -28.2480  -14.6694   21.4984 C   0  0  0  0  0  0  0  0  0  0  0  0
  -29.9864  -15.9538   21.9024 C   0  0  0  0  0  0  0  0  0  0  0  0
  -30.4113  -14.1753   20.1981 C   0  0  0  0  0  0  0  0  0  0  0  0
  -25.9009  -28.9463   21.0932 C   0  0  0  0  0  0  0  0  0  0  0  0
  -26.2973  -31.6503   22.8406 C   0  0  0  0  0  0  0  0  0  0  0  0
  -24.9742  -34.5810   23.9839 C   0  0  0  0  0  0  0  0  0  0  0  0
  -27.0134  -20.4786   24.4307 C   0  0  0  0  0  0  0  0  0  0  0  0
  -29.9094  -25.7927   20.8818 C   0  0  0  0  0  0  0  0  0  0  0  0
  -25.2001  -30.7191   19.4432 C   0  0  0  0  0  0  0  0  0  0  0  0
  -23.9462  -31.1261   22.0903 C   0  0  0  0  0  0  0  0  0  0  0  0
  -29.3268  -26.7499   21.9184 C   0  0  0  0  0  0  0  0  0  0  0  0
  -29.0861  -18.1035   26.0860 C   0  0  0  0  0  0  0  0  0  0  0  0
  -27.8276  -26.5170   22.0771 C   0  0  0  0  0  0  0  0  0  0  0  0
  -29.2337  -16.9755   25.0623 C   0  0  0  0  0  0  0  0  0  0  0  0
  -27.6891  -18.7209   26.0520 C   0  0  0  0  0  0  0  0  0  0  0  0
  -27.3876  -18.0400   23.7037 C   0  0  0  0  0  0  0  0  0  0  0  0
  -27.0856  -26.7836   20.7618 C   0  0  1  0  0  0  0  0  0  0  0  0
  -25.9411  -30.4061   20.7395 C   0  0  1  0  0  0  0  0  0  0  0  0
  -28.7982  -17.4305   23.6556 C   0  0  2  0  0  0  0  0  0  0  0  0
  -25.5241  -36.5616   25.4235 C   0  0  0  0  0  0  0  0  0  0  0  0
  -25.8788  -29.9482   25.3381 C   0  0  0  0  0  0  0  0  0  0  0  0
  -25.4911  -32.0592   26.6271 C   0  0  0  0  0  0  0  0  0  0  0  0
  -27.6957  -31.6557   25.5318 C   0  0  0  0  0  0  0  0  0  0  0  0
  -24.6536  -36.4613   21.7210 C   0  0  0  0  0  0  0  0  0  0  0  0
  -23.1961  -24.7407   21.0491 C   0  0  0  0  0  0  0  0  0  0  0  0
  -18.6000  -27.3178   20.5470 C   0  0  0  0  0  0  0  0  0  0  0  0
  -17.7293  -28.4457   19.9883 C   0  0  0  0  0  0  0  0  0  0  0  0
  -18.7025  -26.1544   19.5565 C   0  0  0  0  0  0  0  0  0  0  0  0
  -17.6520  -29.6214   20.9601 C   0  0  0  0  0  0  0  0  0  0  0  0
  -21.7652  -24.2507   20.8516 C   0  0  0  0  0  0  0  0  0  0  0  0
  -19.4967  -24.9699   20.0930 C   0  0  0  0  0  0  0  0  0  0  0  0
  -19.0225  -30.2344   21.2106 C   0  0  0  0  0  0  0  0  0  1  0  0
  -25.6842  -32.2070   24.1029 C   0  0  1  0  0  0  0  0  0  0  0  0
  -25.5297  -35.9935   24.0128 C   0  0  2  0  0  0  0  0  0  0  0  0
  -26.1716  -31.4613   25.3772 C   0  0  0  0  0  0  0  0  0  0  0  0
  -27.8172  -15.5357   22.4192 N   0  0  0  0  0  0  0  0  0  0  0  0
  -28.8969  -16.3035   22.6445 N   0  0  0  0  0  0  0  0  0  0  0  0
  -25.4045  -31.1387   21.8883 N   0  0  0  0  0  0  0  0  0  0  0  0
  -27.3466  -19.1321   24.6888 N   0  0  0  0  0  0  0  0  0  0  0  0
  -31.1553  -16.6214   22.0048 N   0  0  0  0  0  0  0  0  0  0  0  0
  -29.8484  -13.0992   19.4984 N   0  0  0  0  0  0  0  0  0  0  0  0
  -26.7380  -20.7581   23.0926 N   0  0  0  0  0  0  0  0  0  0  0  0
  -26.9326  -28.2066   20.5474 N   0  0  0  0  0  0  0  0  0  0  0  0
  -25.9726  -33.6371   24.1004 N   0  0  0  0  0  0  0  0  0  0  0  0
  -24.7154  -36.8883   23.1426 N   0  3  0  0  0  0  0  0  0  0  0  0
  -20.8971  -25.3630   20.3757 N   0  3  0  0  0  0  0  0  0  0  0  0
  -31.6119  -14.4779   19.9964 O   0  0  0  0  0  0  0  0  0  0  0  0
  -25.0013  -28.5227   21.8094 O   0  0  0  0  0  0  0  0  0  0  0  0
  -27.5227  -31.6753   22.7015 O   0  0  0  0  0  0  0  0  0  0  0  0
  -23.7743  -34.3393   23.8731 O   0  0  0  0  0  0  0  0  0  0  0  0
  -27.0017  -21.3273   25.3260 O   0  0  0  0  0  0  0  0  0  0  0  0
  -24.7998  -10.7440   19.5064 O   0  0  0  0  0  0  0  0  0  0  0  0
  -19.5596  -30.6868   19.9684 O   0  0  0  0  0  0  0  0  0  1  0  0
  -21.7071   -7.9746   23.1354 F   0  0  0  0  0  0  0  0  0  0  0  0
  -25.0126   -7.9982   19.7473 F   0  0  0  0  0  0  0  0  0  0  0  0
  1  2  1  0  0  0  0
  1  5  2  0  0  0  0
  2  6  2  0  0  0  0
  3 12  2  0  0  0  0
  3 19  1  0  0  0  0
  4 13  1  0  0  0  0
  4 19  2  0  0  0  0
  5 21  1  0  0  0  0
  6 23  1  0  0  0  0
  7 14  2  0  0  0  0
  7 22  1  0  0  0  0
  8 10  2  0  0  0  0
  8 25  1  0  0  0  0
  9 11  1  0  0  0  0
  9 25  2  0  0  0  0
 10 26  1  0  0  0  0
 11 26  2  0  0  0  0
 12 27  1  0  0  0  0
 13 27  2  0  0  0  0
 14 28  1  0  0  0  0
 15 16  2  0  0  0  0
 15 29  1  0  0  0  0
 16 30  1  0  0  0  0
 17 24  1  0  0  0  0
 17 28  2  0  0  0  0
 18 30  2  0  0  0  0
 18 31  1  0  0  0  0
 19 32  1  0  0  0  0
 20 32  1  0  0  0  0
 20 33  2  0  0  0  0
 20 34  1  0  0  0  0
 21 23  2  0  0  0  0
 21 39  1  0  0  0  0
 22 24  2  0  0  0  0
 22 40  1  0  0  0  0
 23 48  1  0  0  0  0
 24 41  1  0  0  0  0
 25 56  1  0  0  0  0
 26 73  1  0  0  0  0
 27 83  1  0  0  0  0
 28 84  1  0  0  0  0
 29 31  2  0  0  0  0
 29 83  1  0  0  0  0
 30 85  1  0  0  0  0
 31 86  1  0  0  0  0
 32 67  2  0  0  0  0
 33 68  1  0  0  0  0
 33 71  1  0  0  0  0
 34 72  1  0  0  0  0
 34 78  2  0  0  0  0
 35 49  1  0  0  0  0
 35 74  1  0  0  0  0
 35 79  2  0  0  0  0
 36 64  1  0  0  0  0
 36 69  1  0  0  0  0
 36 80  2  0  0  0  0
 37 65  1  0  0  0  0
 37 75  1  0  0  0  0
 37 81  2  0  0  0  0
 38 70  1  0  0  0  0
 38 73  1  0  0  0  0
 38 82  2  0  0  0  0
 39 42  1  0  0  0  0
 40 49  1  0  0  0  0
 41 69  1  0  0  0  0
 42 44  1  0  0  0  0
 43 45  1  0  0  0  0
 43 46  1  0  0  0  0
 44 48  1  0  0  0  0
 45 50  1  0  0  0  0
 46 70  1  0  0  0  0
 47 50  1  0  0  0  0
 47 70  1  0  0  0  0
 48 74  1  0  0  0  0
 49 69  1  0  0  0  0
 50 68  1  0  0  0  0
 51 65  1  0  0  0  0
 52 66  1  0  0  0  0
 53 66  1  0  0  0  0
 54 66  1  0  0  0  0
 55 76  1  0  0  0  0
 56 61  1  0  0  0  0
 57 58  1  0  0  0  0
 57 59  1  0  0  0  0
 58 60  1  0  0  0  0
 59 62  1  0  0  0  0
 60 63  1  0  0  0  0
 61 77  1  0  0  0  0
 62 77  1  0  0  0  0
 63 84  1  0  0  0  0
 64 66  1  0  0  0  0
 64 75  1  0  0  0  0
 65 76  1  0  0  0  0
 67 68  1  0  0  0  0
M  CHG  2  76   1  77   1
M  ISO  4  38 100  63 101  73 100  84 101
M  END
> <Batch ID>
0002

> <Smiles>
CNC(C)C(=O)NC(C(=O)N1Cc2cc([101O:1][101CH2:1]CCCCCNCCc3ccc([100NH:0][100C:0](=O)N4CCCC(n5nc(-c6ccc(Oc7ccc(F)cc7F)cc6)c(C(N)=O)c5N)C4)cc3)ccc2CC1C(=O)NC1CCCc2ccccc21)C(C)(C)C

> <Shape>
0.291

> <Color>
0.082

> <Negative vol penalty>
0.000

$$$$

  -OEChem-04042320173D

 83 91  0     1  0  0  0  0  0999 V2000
  -27.1487  -31.4845   20.6683 C   0  0  0  0  0  0  0  0  0  0  0  0
  -27.3832  -30.1138   20.6281 C   0  0  0  0  0  0  0  0  0  0  0  0
  -23.1071   -9.8301   19.9316 C   0  0  0  0  0  0  0  0  0  0  0  0
  -23.8796   -9.8365   22.2208 C   0  0  0  0  0  0  0  0  0  0  0  0
  -26.4065  -32.0936   19.6572 C   0  0  0  0  0  0  0  0  0  0  0  0
  -26.8747  -29.3512   19.5773 C   0  0  0  0  0  0  0  0  0  0  0  0
  -30.2702  -26.0790   17.7310 C   0  0  0  0  0  0  0  0  0  0  0  0
  -29.1044  -18.7762   21.0320 C   0  0  0  0  0  0  0  0  0  0  0  0
  -28.8135  -19.8288   20.1642 C   0  0  0  0  0  0  0  0  0  0  0  0
  -22.3952   -8.6557   20.1751 C   0  0  0  0  0  0  0  0  0  0  0  0
  -23.1675   -8.6621   22.4643 C   0  0  0  0  0  0  0  0  0  0  0  0
  -30.4922  -24.9121   18.4610 C   0  0  0  0  0  0  0  0  0  0  0  0
  -19.9649   -7.7745   23.0771 C   0  0  0  0  0  0  0  0  0  0  0  0
  -19.2159   -7.7042   24.2517 C   0  0  0  0  0  0  0  0  0  0  0  0
  -29.0531  -23.7008   16.9507 C   0  0  0  0  0  0  0  0  0  0  0  0
  -31.3175  -18.6019   20.0787 C   0  0  0  0  0  0  0  0  0  0  0  0
  -20.5118   -5.7935   24.9637 C   0  0  0  0  0  0  0  0  0  0  0  0
  -23.8494  -10.4206   20.9544 C   0  0  0  0  0  0  0  0  0  0  0  0
  -24.1243  -12.9548   20.8555 C   0  0  0  0  0  0  0  0  0  0  0  0
  -25.8969  -31.3395   18.5885 C   0  0  0  0  0  0  0  0  0  0  0  0
  -29.4279  -26.0679   16.6099 C   0  0  0  0  0  0  0  0  0  0  0  0
  -26.1239  -29.9505   18.5517 C   0  0  0  0  0  0  0  0  0  0  0  0
  -28.8241  -24.8683   16.2067 C   0  0  0  0  0  0  0  0  0  0  0  0
  -30.3565  -18.1628   20.9893 C   0  0  0  0  0  0  0  0  0  0  0  0
  -29.7746  -20.2679   19.2536 C   0  0  0  0  0  0  0  0  0  0  0  0
  -31.0266  -19.6544   19.2109 C   0  0  0  0  0  0  0  0  0  0  0  0
  -22.4253   -8.0717   21.4414 C   0  0  0  0  0  0  0  0  0  0  0  0
  -29.8814  -23.7234   18.0726 C   0  0  0  0  0  0  0  0  0  0  0  0
  -20.9873   -6.8542   22.8458 C   0  0  0  0  0  0  0  0  0  0  0  0
  -19.4893   -6.7138   25.1950 C   0  0  0  0  0  0  0  0  0  0  0  0
  -21.2607   -5.8638   23.7891 C   0  0  0  0  0  0  0  0  0  0  0  0
  -24.5856  -11.6335   20.7033 C   0  0  0  0  0  0  0  0  0  0  0  0
  -25.1944  -13.7359   20.4931 C   0  0  0  0  0  0  0  0  0  0  0  0
  -22.8431  -13.4333   21.2860 C   0  0  0  0  0  0  0  0  0  0  0  0
  -26.7056  -27.5145   15.8350 C   0  0  0  0  0  0  0  0  0  0  0  0
  -27.2314  -26.1100   12.9587 C   0  0  0  0  0  0  0  0  0  0  0  0
  -28.7191  -23.5997   11.1890 C   0  0  0  0  0  0  0  0  0  0  0  0
  -30.6505  -14.8967   20.6609 C   0  0  0  0  0  0  0  0  0  0  0  0
  -25.0602  -32.0345   17.5436 C   0  0  0  0  0  0  0  0  0  0  0  0
  -29.2199  -27.3293   15.8175 C   0  0  0  0  0  0  0  0  0  0  0  0
  -27.9272  -24.7988   14.9988 C   0  0  0  0  0  0  0  0  0  0  0  0
  -24.8745  -31.2159   16.2686 C   0  0  0  0  0  0  0  0  0  0  0  0
  -29.5623  -12.5046   18.2588 C   0  0  0  0  0  0  0  0  0  0  0  0
  -24.4996  -29.7768   16.6081 C   0  0  0  0  0  0  0  0  0  0  0  0
  -28.1355  -12.1694   18.6968 C   0  0  0  0  0  0  0  0  0  0  0  0
  -30.4801  -12.7387   19.4566 C   0  0  0  0  0  0  0  0  0  0  0  0
  -28.5677  -13.4072   20.8601 C   0  0  0  0  0  0  0  0  0  0  0  0
  -25.6099  -29.0933   17.4154 C   0  0  1  0  0  0  0  0  0  0  0  0
  -27.9351  -27.3132   14.9950 C   0  0  1  0  0  0  0  0  0  0  0  0
  -27.5918  -13.2176   19.6863 C   0  0  2  0  0  0  0  0  0  0  0  0
  -28.9344  -22.6914    8.8596 C   0  0  0  0  0  0  0  0  0  0  0  0
  -24.4237  -24.9328   13.1608 C   0  0  0  0  0  0  0  0  0  0  0  0
  -25.0431  -23.3237   11.3455 C   0  0  0  0  0  0  0  0  0  0  0  0
  -25.0403  -25.7760   10.8885 C   0  0  0  0  0  0  0  0  0  0  0  0
  -31.6496  -24.0134   11.1740 C   0  0  0  0  0  0  0  0  0  0  0  0
  -30.6670  -17.0371   21.9169 C   0  0  0  0  0  0  0  0  0  0  0  0
  -29.4382  -21.4010   18.3294 C   0  0  0  0  0  0  0  0  0  1  0  0
  -26.8646  -24.7864   12.3322 C   0  0  1  0  0  0  0  0  0  0  0  0
  -29.5335  -23.6160    9.9080 C   0  0  2  0  0  0  0  0  0  0  0  0
  -32.0711  -20.1073   18.2441 C   0  0  0  0  0  0  0  0  0  0  0  0
  -25.3582  -24.7061   11.9557 C   0  0  0  0  0  0  0  0  0  0  0  0
  -25.8501  -11.5746   20.2773 N   0  0  0  0  0  0  0  0  0  0  0  0
  -26.1925  -12.8687   20.1586 N   0  0  0  0  0  0  0  0  0  0  0  0
  -27.7499  -26.0601   14.2604 N   0  0  0  0  0  0  0  0  0  0  0  0
  -29.9078  -13.7445   20.3549 N   0  0  0  0  0  0  0  0  0  0  0  0
  -25.3694  -15.0730   20.4310 N   0  0  0  0  0  0  0  0  0  0  0  0
  -21.8573  -12.4949   21.6205 N   0  0  0  0  0  0  0  0  0  0  0  0
  -26.6977  -28.6994   16.5459 N   0  0  0  0  0  0  0  0  0  0  0  0
  -27.7728  -24.6024   11.2054 N   0  0  0  0  0  0  0  0  0  0  0  0
  -30.0320  -15.8020   21.5146 N   0  0  0  0  0  0  0  0  0  0  0  0
  -30.9319  -23.1772   10.1776 N   0  3  0  0  0  0  0  0  0  0  0  0
  -22.5751  -14.6567   21.3558 O   0  0  0  0  0  0  0  0  0  0  0  0
  -25.8284  -26.6587   15.8369 O   0  0  0  0  0  0  0  0  0  0  0  0
  -27.0707  -27.1494   12.3140 O   0  0  0  0  0  0  0  0  0  0  0  0
  -28.9015  -22.7772   12.0839 O   0  0  0  0  0  0  0  0  0  0  0  0
  -31.7789  -15.1060   20.2027 O   0  0  0  0  0  0  0  0  0  0  0  0
  -21.7305   -6.9258   21.6795 O   0  0  0  0  0  0  0  0  0  0  0  0
  -30.0959  -22.5831   18.7837 O   0  0  0  0  0  0  0  0  0  1  0  0
  -18.7710   -6.6474   26.3236 F   0  0  0  0  0  0  0  0  0  0  0  0
  -22.2425   -4.9776   23.5730 F   0  0  0  0  0  0  0  0  0  0  0  0
  -33.2374  -19.4032   18.3318 F   0  0  0  0  0  0  0  0  0  0  0  0
  -31.6870  -20.0022   16.9385 F   0  0  0  0  0  0  0  0  0  0  0  0
  -32.4166  -21.4148   18.4220 F   0  0  0  0  0  0  0  0  0  0  0  0
  1  2  1  0  0  0  0
  1  5  2  0  0  0  0
  2  6  2  0  0  0  0
  3 10  2  0  0  0  0
  3 18  1  0  0  0  0
  4 11  1  0  0  0  0
  4 18  2  0  0  0  0
  5 20  1  0  0  0  0
  6 22  1  0  0  0  0
  7 12  2  0  0  0  0
  7 21  1  0  0  0  0
  8  9  2  0  0  0  0
  8 24  1  0  0  0  0
  9 25  1  0  0  0  0
 10 27  1  0  0  0  0
 11 27  2  0  0  0  0
 12 28  1  0  0  0  0
 13 14  2  0  0  0  0
 13 29  1  0  0  0  0
 14 30  1  0  0  0  0
 15 23  1  0  0  0  0
 15 28  2  0  0  0  0
 16 24  2  0  0  0  0
 16 26  1  0  0  0  0
 17 30  2  0  0  0  0
 17 31  1  0  0  0  0
 18 32  1  0  0  0  0
 19 32  1  0  0  0  0
 19 33  2  0  0  0  0
 19 34  1  0  0  0  0
 20 22  2  0  0  0  0
 20 39  1  0  0  0  0
 21 23  2  0  0  0  0
 21 40  1  0  0  0  0
 22 48  1  0  0  0  0
 23 41  1  0  0  0  0
 24 56  1  0  0  0  0
 25 26  2  0  0  0  0
 25 57  1  0  0  0  0
 26 60  1  0  0  0  0
 27 77  1  0  0  0  0
 28 78  1  0  0  0  0
 29 31  2  0  0  0  0
 29 77  1  0  0  0  0
 30 79  1  0  0  0  0
 31 80  1  0  0  0  0
 32 62  2  0  0  0  0
 33 63  1  0  0  0  0
 33 66  1  0  0  0  0
 34 67  1  0  0  0  0
 34 72  2  0  0  0  0
 35 49  1  0  0  0  0
 35 68  1  0  0  0  0
 35 73  2  0  0  0  0
 36 58  1  0  0  0  0
 36 64  1  0  0  0  0
 36 74  2  0  0  0  0
 37 59  1  0  0  0  0
 37 69  1  0  0  0  0
 37 75  2  0  0  0  0
 38 65  1  0  0  0  0
 38 70  1  0  0  0  0
 38 76  2  0  0  0  0
 39 42  1  0  0  0  0
 40 49  1  0  0  0  0
 41 64  1  0  0  0  0
 42 44  1  0  0  0  0
 43 45  1  0  0  0  0
 43 46  1  0  0  0  0
 44 48  1  0  0  0  0
 45 50  1  0  0  0  0
 46 65  1  0  0  0  0
 47 50  1  0  0  0  0
 47 65  1  0  0  0  0
 48 68  1  0  0  0  0
 49 64  1  0  0  0  0
 50 63  1  0  0  0  0
 51 59  1  0  0  0  0
 52 61  1  0  0  0  0
 53 61  1  0  0  0  0
 54 61  1  0  0  0  0
 55 71  1  0  0  0  0
 56 70  1  0  0  0  0
 57 78  1  0  0  0  0
 58 61  1  0  0  0  0
 58 69  1  0  0  0  0
 59 71  1  0  0  0  0
 60 81  1  0  0  0  0
 60 82  1  0  0  0  0
 60 83  1  0  0  0  0
 62 63  1  0  0  0  0
M  CHG  1  71   1
M  ISO  4  38 100  57 101  70 100  78 101
M  END
> <Batch ID>
0002

> <Smiles>
CNC(C)C(=O)NC(C(=O)N1Cc2cc([101O:1][101CH2:1]c3ccc(C[100NH:0][100C:0](=O)N4CCCC(n5nc(-c6ccc(Oc7ccc(F)cc7F)cc6)c(C(N)=O)c5N)C4)cc3C(F)(F)F)ccc2CC1C(=O)NC1CCCc2ccccc21)C(C)(C)C

> <Shape>
0.247

> <Color>
0.204

> <Negative vol penalty>
0.000

$$$$

  -OEChem-04042320173D

 82 90  0     1  0  0  0  0  0999 V2000
  -18.4885  -32.6281   20.4571 C   0  0  0  0  0  0  0  0  0  0  0  0
  -19.7922  -32.3806   20.0393 C   0  0  0  0  0  0  0  0  0  0  0  0
  -28.5725  -10.6940   21.5317 C   0  0  0  0  0  0  0  0  0  0  0  0
  -27.0125  -11.9981   20.2268 C   0  0  0  0  0  0  0  0  0  0  0  0
  -30.8262  -22.0945   18.6733 C   0  0  0  0  0  0  0  0  0  0  0  0
  -30.0313  -23.3108   20.6035 C   0  0  0  0  0  0  0  0  0  0  0  0
  -18.0603  -32.1775   21.7051 C   0  0  0  0  0  0  0  0  0  0  0  0
  -20.6688  -31.6832   20.8698 C   0  0  0  0  0  0  0  0  0  0  0  0
  -25.0646  -27.7862   19.1390 C   0  0  0  0  0  0  0  0  0  0  0  0
  -30.8371  -20.9165   19.4200 C   0  0  0  0  0  0  0  0  0  0  0  0
  -30.0421  -22.1327   21.3503 C   0  0  0  0  0  0  0  0  0  0  0  0
  -27.7156   -9.5958   21.4586 C   0  0  0  0  0  0  0  0  0  0  0  0
  -26.1556  -10.8999   20.1536 C   0  0  0  0  0  0  0  0  0  0  0  0
  -26.4400  -27.9390   18.9691 C   0  0  0  0  0  0  0  0  0  0  0  0
  -23.3923   -8.5498   19.9279 C   0  0  0  0  0  0  0  0  0  0  0  0
  -22.0338   -8.7712   20.1538 C   0  0  0  0  0  0  0  0  0  0  0  0
  -26.8042  -27.0776   21.1927 C   0  0  0  0  0  0  0  0  0  0  0  0
  -22.5357   -9.5872   22.3718 C   0  0  0  0  0  0  0  0  0  0  0  0
  -28.2209  -11.8952   20.9158 C   0  0  0  0  0  0  0  0  0  0  0  0
  -30.4233  -23.2917   19.2650 C   0  0  0  0  0  0  0  0  0  0  0  0
  -30.1365  -13.3656   20.0937 C   0  0  0  0  0  0  0  0  0  0  0  0
  -18.9292  -31.4659   22.5473 C   0  0  0  0  0  0  0  0  0  0  0  0
  -24.5473  -27.2873   20.3431 C   0  0  0  0  0  0  0  0  0  0  0  0
  -20.2522  -31.2238   22.1308 C   0  0  0  0  0  0  0  0  0  0  0  0
  -25.4221  -26.9170   21.3744 C   0  0  0  0  0  0  0  0  0  0  0  0
  -30.4451  -20.9355   20.7585 C   0  0  0  0  0  0  0  0  0  0  0  0
  -26.5072   -9.6987   20.7696 C   0  0  0  0  0  0  0  0  0  0  0  0
  -27.3098  -27.5874   19.9971 C   0  0  0  0  0  0  0  0  0  0  0  0
  -24.3225   -8.8469   20.9240 C   0  0  0  0  0  0  0  0  0  0  0  0
  -21.6055   -9.2899   21.3758 C   0  0  0  0  0  0  0  0  0  0  0  0
  -23.8942   -9.3657   22.1459 C   0  0  0  0  0  0  0  0  0  0  0  0
  -29.1054  -13.0301   20.9914 C   0  0  0  0  0  0  0  0  0  0  0  0
  -30.6741  -14.5216   20.6047 C   0  0  0  0  0  0  0  0  0  0  0  0
  -30.4119  -24.5465   18.4698 C   0  0  0  0  0  0  0  0  0  0  0  0
  -30.5696  -12.6925   18.9041 C   0  0  0  0  0  0  0  0  0  0  0  0
  -22.6213  -28.4275   22.6002 C   0  0  0  0  0  0  0  0  0  0  0  0
  -22.8510  -25.4117   23.7727 C   0  0  0  0  0  0  0  0  0  0  0  0
  -24.6281  -22.5044   23.9621 C   0  0  0  0  0  0  0  0  0  0  0  0
  -30.0981  -19.5821   22.8547 C   0  0  0  0  0  0  0  0  0  0  0  0
  -18.4351  -31.0400   23.9071 C   0  0  0  0  0  0  0  0  0  0  0  0
  -23.0627  -27.1035   20.5006 C   0  0  0  0  0  0  0  0  0  0  0  0
  -24.9184  -26.3578   22.6790 C   0  0  0  0  0  0  0  0  0  0  0  0
  -19.3136  -29.9825   24.5706 C   0  0  0  0  0  0  0  0  0  0  0  0
  -29.9535  -16.7972   25.0684 C   0  0  0  0  0  0  0  0  0  0  0  0
  -20.7860  -30.3655   24.4597 C   0  0  0  0  0  0  0  0  0  0  0  0
  -29.8048  -15.5964   24.1312 C   0  0  0  0  0  0  0  0  0  0  0  0
  -29.1878  -18.0154   24.5552 C   0  0  0  0  0  0  0  0  0  0  0  0
  -29.3442  -17.2024   22.2349 C   0  0  0  0  0  0  0  0  0  0  0  0
  -21.2252  -30.4492   22.9929 C   0  0  1  0  0  0  0  0  0  0  0  0
  -22.6165  -27.0686   21.9591 C   0  0  1  0  0  0  0  0  0  0  0  0
  -30.1511  -15.9706   22.6767 C   0  0  2  0  0  0  0  0  0  0  0  0
  -24.5812  -20.2327   25.0273 C   0  0  0  0  0  0  0  0  0  0  0  0
  -23.6954  -26.6444   26.4330 C   0  0  0  0  0  0  0  0  0  0  0  0
  -24.5337  -24.3911   27.1315 C   0  0  0  0  0  0  0  0  0  0  0  0
  -22.1119  -24.7189   26.6314 C   0  0  0  0  0  0  0  0  0  0  0  0
  -24.5686  -21.1454   21.3337 C   0  0  0  0  0  0  0  0  0  0  0  0
  -30.5635  -27.0213   18.5620 C   0  0  0  0  0  0  0  0  0  0  0  0
  -29.1642  -27.6080   18.5082 C   0  0  0  0  0  0  0  0  0  1  0  0
  -23.7792  -24.7050   24.7308 C   0  0  1  0  0  0  0  0  0  0  0  0
  -24.2074  -21.0544   23.8035 C   0  0  2  0  0  0  0  0  0  0  0  0
  -23.5397  -25.1272   26.2079 C   0  0  0  0  0  0  0  0  0  0  0  0
  -28.9929  -13.9024   21.9967 N   0  0  0  0  0  0  0  0  0  0  0  0
  -29.9603  -14.7973   21.7337 N   0  0  0  0  0  0  0  0  0  0  0  0
  -23.4583  -26.2027   22.7872 N   0  0  0  0  0  0  0  0  0  0  0  0
  -29.5704  -18.3129   23.1732 N   0  0  0  0  0  0  0  0  0  0  0  0
  -31.6831  -15.3189   20.1940 N   0  0  0  0  0  0  0  0  0  0  0  0
  -29.9077  -11.5175   18.5226 N   0  0  0  0  0  0  0  0  0  0  0  0
  -30.4564  -19.7382   21.5161 N   0  0  0  0  0  0  0  0  0  0  0  0
  -30.5763  -25.7251   19.1866 N   0  0  0  0  0  0  0  0  0  0  0  0
  -21.4368  -29.1236   22.4522 N   0  0  0  0  0  0  0  0  0  0  0  0
  -23.6118  -23.2771   24.4829 N   0  0  0  0  0  0  0  0  0  0  0  0
  -24.8684  -20.4506   22.6121 N   0  3  0  0  0  0  0  0  0  0  0  0
  -30.2419  -24.4854   17.2549 O   0  0  0  0  0  0  0  0  0  0  0  0
  -31.5263  -13.1114   18.2093 O   0  0  0  0  0  0  0  0  0  0  0  0
  -23.6248  -28.8151   23.1870 O   0  0  0  0  0  0  0  0  0  0  0  0
  -21.6322  -25.2616   23.8898 O   0  0  0  0  0  0  0  0  0  0  0  0
  -25.7477  -22.9101   23.6581 O   0  0  0  0  0  0  0  0  0  0  0  0
  -30.2482  -20.4563   23.7122 O   0  0  0  0  0  0  0  0  0  0  0  0
  -25.6710   -8.6272   20.6979 O   0  0  0  0  0  0  0  0  0  0  0  0
  -28.6527  -27.7361   19.8342 O   0  0  0  0  0  0  0  0  0  1  0  0
  -20.3011   -9.5040   21.5920 F   0  0  0  0  0  0  0  0  0  0  0  0
  -24.7833   -9.6542   23.1062 F   0  0  0  0  0  0  0  0  0  0  0  0
  1  2  1  0  0  0  0
  1  7  2  0  0  0  0
  2  8  2  0  0  0  0
  3 12  2  0  0  0  0
  3 19  1  0  0  0  0
  4 13  1  0  0  0  0
  4 19  2  0  0  0  0
  5 10  2  0  0  0  0
  5 20  1  0  0  0  0
  6 11  1  0  0  0  0
  6 20  2  0  0  0  0
  7 22  1  0  0  0  0
  8 24  1  0  0  0  0
  9 14  2  0  0  0  0
  9 23  1  0  0  0  0
 10 26  1  0  0  0  0
 11 26  2  0  0  0  0
 12 27  1  0  0  0  0
 13 27  2  0  0  0  0
 14 28  1  0  0  0  0
 15 16  2  0  0  0  0
 15 29  1  0  0  0  0
 16 30  1  0  0  0  0
 17 25  1  0  0  0  0
 17 28  2  0  0  0  0
 18 30  2  0  0  0  0
 18 31  1  0  0  0  0
 19 32  1  0  0  0  0
 20 34  1  0  0  0  0
 21 32  1  0  0  0  0
 21 33  2  0  0  0  0
 21 35  1  0  0  0  0
 22 24  2  0  0  0  0
 22 40  1  0  0  0  0
 23 25  2  0  0  0  0
 23 41  1  0  0  0  0
 24 49  1  0  0  0  0
 25 42  1  0  0  0  0
 26 68  1  0  0  0  0
 27 79  1  0  0  0  0
 28 80  1  0  0  0  0
 29 31  2  0  0  0  0
 29 79  1  0  0  0  0
 30 81  1  0  0  0  0
 31 82  1  0  0  0  0
 32 62  2  0  0  0  0
 33 63  1  0  0  0  0
 33 66  1  0  0  0  0
 34 69  1  0  0  0  0
 34 73  2  0  0  0  0
 35 67  1  0  0  0  0
 35 74  2  0  0  0  0
 36 50  1  0  0  0  0
 36 70  1  0  0  0  0
 36 75  2  0  0  0  0
 37 59  1  0  0  0  0
 37 64  1  0  0  0  0
 37 76  2  0  0  0  0
 38 60  1  0  0  0  0
 38 71  1  0  0  0  0
 38 77  2  0  0  0  0
 39 65  1  0  0  0  0
 39 68  1  0  0  0  0
 39 78  2  0  0  0  0
 40 43  1  0  0  0  0
 41 50  1  0  0  0  0
 42 64  1  0  0  0  0
 43 45  1  0  0  0  0
 44 46  1  0  0  0  0
 44 47  1  0  0  0  0
 45 49  1  0  0  0  0
 46 51  1  0  0  0  0
 47 65  1  0  0  0  0
 48 51  1  0  0  0  0
 48 65  1  0  0  0  0
 49 70  1  0  0  0  0
 50 64  1  0  0  0  0
 51 63  1  0  0  0  0
 52 60  1  0  0  0  0
 53 61  1  0  0  0  0
 54 61  1  0  0  0  0
 55 61  1  0  0  0  0
 56 72  1  0  0  0  0
 57 58  1  0  0  0  0
 57 69  1  0  0  0  0
 58 80  1  0  0  0  0
 59 61  1  0  0  0  0
 59 71  1  0  0  0  0
 60 72  1  0  0  0  0
 62 63  1  0  0  0  0
M  CHG  1  72   1
M  ISO  4  39 100  58 101  68 100  80 101
M  END
> <Batch ID>
0002

> <Smiles>
CNC(C)C(=O)NC(C(=O)N1Cc2cc([101O:1][101CH2:1]CNC(=O)c3ccc([100NH:0][100C:0](=O)N4CCCC(n5nc(-c6ccc(Oc7ccc(F)cc7F)cc6)c(C(N)=O)c5N)C4)cc3)ccc2CC1C(=O)NC1CCCc2ccccc21)C(C)(C)C

> <Shape>
0.229

> <Color>
0.084

> <Negative vol penalty>
0.000

$$$$

  -OEChem-04042320173D

 80 88  0     1  0  0  0  0  0999 V2000
  -23.6037  -32.7327   26.6389 C   0  0  0  0  0  0  0  0  0  0  0  0
  -24.8776  -32.2842   26.3049 C   0  0  0  0  0  0  0  0  0  0  0  0
  -24.0384   -9.7255   21.7182 C   0  0  0  0  0  0  0  0  0  0  0  0
  -24.6425  -10.9968   23.6819 C   0  0  0  0  0  0  0  0  0  0  0  0
  -22.4822  -32.0179   26.2204 C   0  0  0  0  0  0  0  0  0  0  0  0
  -25.0306  -31.1199   25.5529 C   0  0  0  0  0  0  0  0  0  0  0  0
  -29.3094  -28.1866   20.6129 C   0  0  0  0  0  0  0  0  0  0  0  0
  -28.4287  -19.3882   20.5060 C   0  0  0  0  0  0  0  0  0  0  0  0
  -30.7877  -18.9562   20.2141 C   0  0  0  0  0  0  0  0  0  0  0  0
  -23.6100   -8.6752   22.5300 C   0  0  0  0  0  0  0  0  0  0  0  0
  -24.2141   -9.9465   24.4937 C   0  0  0  0  0  0  0  0  0  0  0  0
  -30.0416  -27.0241   20.3755 C   0  0  0  0  0  0  0  0  0  0  0  0
  -28.7132  -20.7096   20.8503 C   0  0  0  0  0  0  0  0  0  0  0  0
  -31.0723  -20.2777   20.5583 C   0  0  0  0  0  0  0  0  0  0  0  0
  -20.8982   -7.9212   24.4037 C   0  0  0  0  0  0  0  0  0  0  0  0
  -19.6779   -7.3201   24.0957 C   0  0  0  0  0  0  0  0  0  0  0  0
  -28.0298  -25.9145   19.6402 C   0  0  0  0  0  0  0  0  0  0  0  0
  -20.7990   -5.2023   23.7872 C   0  0  0  0  0  0  0  0  0  0  0  0
  -24.5547  -10.8863   22.2942 C   0  0  0  0  0  0  0  0  0  0  0  0
  -24.2291  -13.0552   20.9913 C   0  0  0  0  0  0  0  0  0  0  0  0
  -22.6213  -30.8496   25.4547 C   0  0  0  0  0  0  0  0  0  0  0  0
  -27.9277  -28.2185   20.3757 C   0  0  0  0  0  0  0  0  0  0  0  0
  -23.9099  -30.3881   25.1249 C   0  0  0  0  0  0  0  0  0  0  0  0
  -27.2828  -27.0794   19.8730 C   0  0  0  0  0  0  0  0  0  0  0  0
  -29.4659  -18.5115   20.1880 C   0  0  0  0  0  0  0  0  0  0  0  0
  -23.6979   -8.7857   23.9177 C   0  0  0  0  0  0  0  0  0  0  0  0
  -30.0350  -21.1544   20.8764 C   0  0  0  0  0  0  0  0  0  0  0  0
  -29.4013  -25.8869   19.8918 C   0  0  0  0  0  0  0  0  0  0  0  0
  -22.0690   -7.1629   24.4033 C   0  0  0  0  0  0  0  0  0  0  0  0
  -19.6282   -5.9606   23.7875 C   0  0  0  0  0  0  0  0  0  0  0  0
  -22.0194   -5.8035   24.0952 C   0  0  0  0  0  0  0  0  0  0  0  0
  -24.9979  -11.9714   21.4562 C   0  0  0  0  0  0  0  0  0  0  0  0
  -25.1050  -13.8005   20.2404 C   0  0  0  0  0  0  0  0  0  0  0  0
  -22.8468  -13.3610   21.2181 C   0  0  0  0  0  0  0  0  0  0  0  0
  -25.3524  -28.6868   22.1791 C   0  0  0  0  0  0  0  0  0  0  0  0
  -23.8160  -28.5983   19.3236 C   0  0  0  0  0  0  0  0  0  0  0  0
  -23.8009  -27.5601   16.0727 C   0  0  0  0  0  0  0  0  0  0  0  0
  -30.0881  -16.1705   19.4959 C   0  0  0  0  0  0  0  0  0  0  0  0
  -21.3810  -30.0848   25.0655 C   0  0  0  0  0  0  0  0  0  0  0  0
  -27.1569  -29.4884   20.6116 C   0  0  0  0  0  0  0  0  0  0  0  0
  -25.8050  -27.0680   19.5827 C   0  0  0  0  0  0  0  0  0  0  0  0
  -21.6176  -29.0659   23.9537 C   0  0  0  0  0  0  0  0  0  0  0  0
  -29.7771  -12.7363   18.6092 C   0  0  0  0  0  0  0  0  0  0  0  0
  -22.8728  -28.2471   24.2383 C   0  0  0  0  0  0  0  0  0  0  0  0
  -28.4427  -12.3203   19.2326 C   0  0  0  0  0  0  0  0  0  0  0  0
  -30.5327  -13.7256   19.4945 C   0  0  0  0  0  0  0  0  0  0  0  0
  -28.4296  -14.4937   20.5222 C   0  0  0  0  0  0  0  0  0  0  0  0
  -24.1161  -29.1431   24.2896 C   0  0  1  0  0  0  0  0  0  0  0  0
  -25.6647  -29.2513   20.8221 C   0  0  1  0  0  0  0  0  0  0  0  0
  -27.6025  -13.5476   19.6365 C   0  0  2  0  0  0  0  0  0  0  0  0
  -22.3923  -27.6068   13.9963 C   0  0  0  0  0  0  0  0  0  0  0  0
  -22.0062  -26.4448   20.5056 C   0  0  0  0  0  0  0  0  0  0  0  0
  -21.2844  -25.8720   18.1778 C   0  0  0  0  0  0  0  0  0  0  0  0
  -20.8257  -28.1437   19.1006 C   0  0  0  0  0  0  0  0  0  0  0  0
  -25.8720  -29.0381   14.5612 C   0  0  0  0  0  0  0  0  0  0  0  0
  -31.4746  -23.0311   20.6290 C   0  0  0  0  0  0  0  0  0  0  0  0
  -31.2605  -24.5247   20.4780 C   0  0  0  0  0  0  0  0  0  1  0  0
  -23.1936  -27.5139   18.4776 C   0  0  1  0  0  0  0  0  0  0  0  0
  -23.4968  -28.2975   14.7811 C   0  0  2  0  0  0  0  0  0  0  0  0
  -21.8550  -26.9929   19.0726 C   0  0  0  0  0  0  0  0  0  0  0  0
  -26.2647  -12.0199   21.0356 N   0  0  0  0  0  0  0  0  0  0  0  0
  -26.2986  -13.1431   20.2986 N   0  0  0  0  0  0  0  0  0  0  0  0
  -25.0938  -28.3320   19.8355 N   0  0  0  0  0  0  0  0  0  0  0  0
  -29.6758  -14.8640   19.8332 N   0  0  0  0  0  0  0  0  0  0  0  0
  -24.9629  -14.9473   19.5425 N   0  0  0  0  0  0  0  0  0  0  0  0
  -22.0914  -12.4891   22.0140 N   0  0  0  0  0  0  0  0  0  0  0  0
  -29.1770  -17.1691   19.8384 N   0  0  0  0  0  0  0  0  0  0  0  0
  -24.5408  -29.4954   22.9517 N   0  0  0  0  0  0  0  0  0  0  0  0
  -23.0753  -28.0638   17.1314 N   0  0  0  0  0  0  0  0  0  0  0  0
  -24.7133  -28.3622   13.9228 N   0  3  0  0  0  0  0  0  0  0  0  0
  -22.2936  -14.3687   20.7159 O   0  0  0  0  0  0  0  0  0  0  0  0
  -25.8125  -27.5975   22.5008 O   0  0  0  0  0  0  0  0  0  0  0  0
  -23.1943  -29.6461   19.5170 O   0  0  0  0  0  0  0  0  0  0  0  0
  -24.5992  -26.6277   16.1352 O   0  0  0  0  0  0  0  0  0  0  0  0
  -31.1575  -16.3850   18.9194 O   0  0  0  0  0  0  0  0  0  0  0  0
  -23.2797   -7.7611   24.7101 O   0  0  0  0  0  0  0  0  0  0  0  0
  -30.3146  -22.4523   21.2145 O   0  0  0  0  0  0  0  0  0  0  0  0
  -30.1134  -24.7508   19.6598 O   0  0  0  0  0  0  0  0  0  1  0  0
  -18.4560   -5.3831   23.4933 F   0  0  0  0  0  0  0  0  0  0  0  0
  -23.1406   -5.0696   24.0944 F   0  0  0  0  0  0  0  0  0  0  0  0
  1  2  1  0  0  0  0
  1  5  2  0  0  0  0
  2  6  2  0  0  0  0
  3 10  2  0  0  0  0
  3 19  1  0  0  0  0
  4 11  1  0  0  0  0
  4 19  2  0  0  0  0
  5 21  1  0  0  0  0
  6 23  1  0  0  0  0
  7 12  2  0  0  0  0
  7 22  1  0  0  0  0
  8 13  2  0  0  0  0
  8 25  1  0  0  0  0
  9 14  1  0  0  0  0
  9 25  2  0  0  0  0
 10 26  1  0  0  0  0
 11 26  2  0  0  0  0
 12 28  1  0  0  0  0
 13 27  1  0  0  0  0
 14 27  2  0  0  0  0
 15 16  2  0  0  0  0
 15 29  1  0  0  0  0
 16 30  1  0  0  0  0
 17 24  1  0  0  0  0
 17 28  2  0  0  0  0
 18 30  2  0  0  0  0
 18 31  1  0  0  0  0
 19 32  1  0  0  0  0
 20 32  1  0  0  0  0
 20 33  2  0  0  0  0
 20 34  1  0  0  0  0
 21 23  2  0  0  0  0
 21 39  1  0  0  0  0
 22 24  2  0  0  0  0
 22 40  1  0  0  0  0
 23 48  1  0  0  0  0
 24 41  1  0  0  0  0
 25 67  1  0  0  0  0
 26 76  1  0  0  0  0
 27 77  1  0  0  0  0
 28 78  1  0  0  0  0
 29 31  2  0  0  0  0
 29 76  1  0  0  0  0
 30 79  1  0  0  0  0
 31 80  1  0  0  0  0
 32 61  2  0  0  0  0
 33 62  1  0  0  0  0
 33 65  1  0  0  0  0
 34 66  1  0  0  0  0
 34 71  2  0  0  0  0
 35 49  1  0  0  0  0
 35 68  1  0  0  0  0
 35 72  2  0  0  0  0
 36 58  1  0  0  0  0
 36 63  1  0  0  0  0
 36 73  2  0  0  0  0
 37 59  1  0  0  0  0
 37 69  1  0  0  0  0
 37 74  2  0  0  0  0
 38 64  1  0  0  0  0
 38 67  1  0  0  0  0
 38 75  2  0  0  0  0
 39 42  1  0  0  0  0
 40 49  1  0  0  0  0
 41 63  1  0  0  0  0
 42 44  1  0  0  0  0
 43 45  1  0  0  0  0
 43 46  1  0  0  0  0
 44 48  1  0  0  0  0
 45 50  1  0  0  0  0
 46 64  1  0  0  0  0
 47 50  1  0  0  0  0
 47 64  1  0  0  0  0
 48 68  1  0  0  0  0
 49 63  1  0  0  0  0
 50 62  1  0  0  0  0
 51 59  1  0  0  0  0
 52 60  1  0  0  0  0
 53 60  1  0  0  0  0
 54 60  1  0  0  0  0
 55 70  1  0  0  0  0
 56 57  1  0  0  0  0
 56 77  1  0  0  0  0
 57 78  1  0  0  0  0
 58 60  1  0  0  0  0
 58 69  1  0  0  0  0
 59 70  1  0  0  0  0
 61 62  1  0  0  0  0
M  CHG  1  70   1
M  ISO  4  38 100  57 101  67 100  78 101
M  END
> <Batch ID>
0002

> <Smiles>
CNC(C)C(=O)NC(C(=O)N1Cc2cc([101O:1][101CH2:1]COc3ccc([100NH:0][100C:0](=O)N4CCCC(n5nc(-c6ccc(Oc7ccc(F)cc7F)cc6)c(C(N)=O)c5N)C4)cc3)ccc2CC1C(=O)NC1CCCc2ccccc21)C(C)(C)C

> <Shape>
0.290

> <Color>
0.124

> <Negative vol penalty>
0.000

$$$$

  -OEChem-04042320173D

 82 90  0     1  0  0  0  0  0999 V2000
  -28.8065  -11.1345   21.3990 C   0  0  0  0  0  0  0  0  0  0  0  0
  -29.1391  -12.4185   20.9795 C   0  0  0  0  0  0  0  0  0  0  0  0
  -29.3161  -24.4458   15.4823 C   0  0  0  0  0  0  0  0  0  0  0  0
  -19.8071  -28.9061   23.6093 C   0  0  0  0  0  0  0  0  0  0  0  0
  -20.6808  -27.1138   22.2450 C   0  0  0  0  0  0  0  0  0  0  0  0
  -29.4490  -25.7404   15.9842 C   0  0  0  0  0  0  0  0  0  0  0  0
  -27.4874  -10.6924   21.3076 C   0  0  0  0  0  0  0  0  0  0  0  0
  -28.1530  -13.2608   20.4672 C   0  0  0  0  0  0  0  0  0  0  0  0
  -27.8037  -19.3406   21.1150 C   0  0  0  0  0  0  0  0  0  0  0  0
  -29.1475  -23.3725   16.3571 C   0  0  0  0  0  0  0  0  0  0  0  0
  -18.5563  -28.7512   23.0118 C   0  0  0  0  0  0  0  0  0  0  0  0
  -19.4299  -26.9588   21.6476 C   0  0  0  0  0  0  0  0  0  0  0  0
  -28.1674  -20.3954   20.2790 C   0  0  0  0  0  0  0  0  0  0  0  0
  -16.3739  -25.8500   20.0199 C   0  0  0  0  0  0  0  0  0  0  0  0
  -15.8852  -24.5530   19.8636 C   0  0  0  0  0  0  0  0  0  0  0  0
  -29.2448  -24.8885   18.2358 C   0  0  0  0  0  0  0  0  0  0  0  0
  -25.8973  -20.5331   19.4749 C   0  0  0  0  0  0  0  0  0  0  0  0
  -15.9741  -24.2312   22.2565 C   0  0  0  0  0  0  0  0  0  0  0  0
  -20.8694  -28.0875   23.2259 C   0  0  0  0  0  0  0  0  0  0  0  0
  -29.4134  -25.9618   17.3609 C   0  0  0  0  0  0  0  0  0  0  0  0
  -22.6386  -27.6000   24.9978 C   0  0  0  0  0  0  0  0  0  0  0  0
  -26.4828  -11.5330   20.8029 C   0  0  0  0  0  0  0  0  0  0  0  0
  -26.4842  -18.8662   21.1292 C   0  0  0  0  0  0  0  0  0  0  0  0
  -26.8194  -12.8290   20.3677 C   0  0  0  0  0  0  0  0  0  0  0  0
  -25.5187  -19.4739   20.3138 C   0  0  0  0  0  0  0  0  0  0  0  0
  -29.1119  -23.5938   17.7339 C   0  0  0  0  0  0  0  0  0  0  0  0
  -18.3676  -27.7775   22.0310 C   0  0  0  0  0  0  0  0  0  0  0  0
  -27.2149  -20.9900   19.4567 C   0  0  0  0  0  0  0  0  0  0  0  0
  -16.6628  -26.3377   21.2944 C   0  0  0  0  0  0  0  0  0  0  0  0
  -15.6853  -23.7436   20.9819 C   0  0  0  0  0  0  0  0  0  0  0  0
  -16.4629  -25.5283   22.4127 C   0  0  0  0  0  0  0  0  0  0  0  0
  -22.1619  -28.2474   23.8423 C   0  0  0  0  0  0  0  0  0  0  0  0
  -23.9104  -28.0905   25.1663 C   0  0  0  0  0  0  0  0  0  0  0  0
  -29.5514  -27.3118   17.8838 C   0  0  0  0  0  0  0  0  0  0  0  0
  -21.9899  -26.6408   25.8433 C   0  0  0  0  0  0  0  0  0  0  0  0
  -25.0899  -16.0934   20.4427 C   0  0  0  0  0  0  0  0  0  0  0  0
  -27.8398  -30.4688   21.2913 C   0  0  0  0  0  0  0  0  0  0  0  0
  -22.4459  -17.5850   21.5857 C   0  0  0  0  0  0  0  0  0  0  0  0
  -20.8231  -20.5180   22.2265 C   0  0  0  0  0  0  0  0  0  0  0  0
  -25.0795  -10.9942   20.6794 C   0  0  0  0  0  0  0  0  0  0  0  0
  -26.1019  -17.7451   22.0563 C   0  0  0  0  0  0  0  0  0  0  0  0
  -24.0842  -19.0151   20.3067 C   0  0  0  0  0  0  0  0  0  0  0  0
  -24.0262  -12.0797   20.4735 C   0  0  0  0  0  0  0  0  0  0  0  0
  -26.5878  -31.9513   24.3037 C   0  0  0  0  0  0  0  0  0  0  0  0
  -24.4819  -13.0703   19.4067 C   0  0  0  0  0  0  0  0  0  0  0  0
  -25.3384  -31.1289   24.6162 C   0  0  0  0  0  0  0  0  0  0  0  0
  -26.7844  -32.1190   22.8003 C   0  0  0  0  0  0  0  0  0  0  0  0
  -25.5764  -30.0058   22.3563 C   0  0  0  0  0  0  0  0  0  0  0  0
  -25.7733  -13.7809   19.8294 C   0  0  1  0  0  0  0  0  0  0  0  0
  -24.8442  -17.0047   21.6117 C   0  0  1  0  0  0  0  0  0  0  0  0
  -25.3577  -29.7865   23.8637 C   0  0  2  0  0  0  0  0  0  0  0  0
  -18.6604  -21.4166   23.1281 C   0  0  0  0  0  0  0  0  0  0  0  0
  -21.0528  -16.8463   18.9735 C   0  0  0  0  0  0  0  0  0  0  0  0
  -19.2895  -18.5388   19.5163 C   0  0  0  0  0  0  0  0  0  0  0  0
  -19.6407  -16.5800   21.0204 C   0  0  0  0  0  0  0  0  0  0  0  0
  -22.1974  -21.9386   24.4292 C   0  0  0  0  0  0  0  0  0  0  0  0
  -28.9307  -22.4394   18.6750 C   0  0  0  0  0  0  0  0  0  1  0  0
  -27.7601  -29.1171   20.6274 C   0  0  0  0  0  0  0  0  0  0  0  0
  -28.9856  -28.8733   19.7616 C   0  0  0  0  0  0  0  0  0  0  0  0
  -21.3552  -18.4378   20.9840 C   0  0  1  0  0  0  0  0  0  0  0  0
  -20.0893  -21.0148   23.4591 C   0  0  2  0  0  0  0  0  0  0  0  0
  -20.3619  -17.6083   20.1220 C   0  0  0  0  0  0  0  0  0  0  0  0
  -23.0578  -29.0855   23.3141 N   0  0  0  0  0  0  0  0  0  0  0  0
  -24.1103  -28.9680   24.1415 N   0  0  0  0  0  0  0  0  0  0  0  0
  -23.7611  -17.9115   21.2260 N   0  0  0  0  0  0  0  0  0  0  0  0
  -26.7744  -30.8232   22.1191 N   0  0  0  0  0  0  0  0  0  0  0  0
  -24.8661  -27.8526   26.0896 N   0  0  0  0  0  0  0  0  0  0  0  0
  -20.6830  -26.2463   25.5260 N   0  0  0  0  0  0  0  0  0  0  0  0
  -28.9559  -27.5775   19.1224 N   0  0  0  0  0  0  0  0  0  0  0  0
  -25.4861  -14.8179   20.7971 N   0  0  0  0  0  0  0  0  0  0  0  0
  -20.7325  -19.1484   22.0956 N   0  0  0  0  0  0  0  0  0  0  0  0
  -20.7883  -22.1976   24.0364 N   0  3  0  0  0  0  0  0  0  0  0  0
  -30.1575  -28.1818   17.2336 O   0  0  0  0  0  0  0  0  0  0  0  0
  -22.5464  -26.1605   26.8597 O   0  0  0  0  0  0  0  0  0  0  0  0
  -24.9303  -16.5157   19.3034 O   0  0  0  0  0  0  0  0  0  0  0  0
  -28.8219  -31.1855   21.0816 O   0  0  0  0  0  0  0  0  0  0  0  0
  -22.1425  -16.6675   22.3525 O   0  0  0  0  0  0  0  0  0  0  0  0
  -21.4141  -21.2702   21.4548 O   0  0  0  0  0  0  0  0  0  0  0  0
  -17.1471  -27.6259   21.4480 O   0  0  0  0  0  0  0  0  0  0  0  0
  -27.5674  -22.0193   18.6393 O   0  0  0  0  0  0  0  0  0  1  0  0
  -15.2146  -22.4986   20.8318 F   0  0  0  0  0  0  0  0  0  0  0  0
  -16.7375  -25.9916   23.6398 F   0  0  0  0  0  0  0  0  0  0  0  0
  1  2  1  0  0  0  0
  1  7  2  0  0  0  0
  2  8  2  0  0  0  0
  3  6  1  0  0  0  0
  3 10  2  0  0  0  0
  4 11  2  0  0  0  0
  4 19  1  0  0  0  0
  5 12  1  0  0  0  0
  5 19  2  0  0  0  0
  6 20  2  0  0  0  0
  7 22  1  0  0  0  0
  8 24  1  0  0  0  0
  9 13  2  0  0  0  0
  9 23  1  0  0  0  0
 10 26  1  0  0  0  0
 11 27  1  0  0  0  0
 12 27  2  0  0  0  0
 13 28  1  0  0  0  0
 14 15  2  0  0  0  0
 14 29  1  0  0  0  0
 15 30  1  0  0  0  0
 16 20  1  0  0  0  0
 16 26  2  0  0  0  0
 17 25  1  0  0  0  0
 17 28  2  0  0  0  0
 18 30  2  0  0  0  0
 18 31  1  0  0  0  0
 19 32  1  0  0  0  0
 20 34  1  0  0  0  0
 21 32  1  0  0  0  0
 21 33  2  0  0  0  0
 21 35  1  0  0  0  0
 22 24  2  0  0  0  0
 22 40  1  0  0  0  0
 23 25  2  0  0  0  0
 23 41  1  0  0  0  0
 24 49  1  0  0  0  0
 25 42  1  0  0  0  0
 26 57  1  0  0  0  0
 27 79  1  0  0  0  0
 28 80  1  0  0  0  0
 29 31  2  0  0  0  0
 29 79  1  0  0  0  0
 30 81  1  0  0  0  0
 31 82  1  0  0  0  0
 32 63  2  0  0  0  0
 33 64  1  0  0  0  0
 33 67  1  0  0  0  0
 34 69  1  0  0  0  0
 34 73  2  0  0  0  0
 35 68  1  0  0  0  0
 35 74  2  0  0  0  0
 36 50  1  0  0  0  0
 36 70  1  0  0  0  0
 36 75  2  0  0  0  0
 37 58  1  0  0  0  0
 37 66  1  0  0  0  0
 37 76  2  0  0  0  0
 38 60  1  0  0  0  0
 38 65  1  0  0  0  0
 38 77  2  0  0  0  0
 39 61  1  0  0  0  0
 39 71  1  0  0  0  0
 39 78  2  0  0  0  0
 40 43  1  0  0  0  0
 41 50  1  0  0  0  0
 42 65  1  0  0  0  0
 43 45  1  0  0  0  0
 44 46  1  0  0  0  0
 44 47  1  0  0  0  0
 45 49  1  0  0  0  0
 46 51  1  0  0  0  0
 47 66  1  0  0  0  0
 48 51  1  0  0  0  0
 48 66  1  0  0  0  0
 49 70  1  0  0  0  0
 50 65  1  0  0  0  0
 51 64  1  0  0  0  0
 52 61  1  0  0  0  0
 53 62  1  0  0  0  0
 54 62  1  0  0  0  0
 55 62  1  0  0  0  0
 56 72  1  0  0  0  0
 57 80  1  0  0  0  0
 58 59  1  0  0  0  0
 59 69  1  0  0  0  0
 60 62  1  0  0  0  0
 60 71  1  0  0  0  0
 61 72  1  0  0  0  0
 63 64  1  0  0  0  0
M  CHG  1  72   1
M  ISO  4  37 100  57 101  58 100  80 101
M  END
> <Batch ID>
0002

> <Smiles>
CNC(C)C(=O)NC(C(=O)N1Cc2cc([101O:1][101CH2:1]c3cccc(C(=O)NC[100CH2:0][100C:0](=O)N4CCCC(n5nc(-c6ccc(Oc7ccc(F)cc7F)cc6)c(C(N)=O)c5N)C4)c3)ccc2CC1C(=O)NC1CCCc2ccccc21)C(C)(C)C

> <Shape>
0.208

> <Color>
0.064

> <Negative vol penalty>
0.000

$$$$

  -OEChem-04042320173D

 80 88  0     1  0  0  0  0  0999 V2000
  -44.0342  -20.0637   29.1357 C   0  0  0  0  0  0  0  0  0  0  0  0
  -42.7690  -19.6111   28.7754 C   0  0  0  0  0  0  0  0  0  0  0  0
  -23.0003   -9.8944   19.9811 C   0  0  0  0  0  0  0  0  0  0  0  0
  -23.7255   -9.9449   22.2851 C   0  0  0  0  0  0  0  0  0  0  0  0
  -44.5665  -21.1994   28.5268 C   0  0  0  0  0  0  0  0  0  0  0  0
  -42.0349  -20.2945   27.8067 C   0  0  0  0  0  0  0  0  0  0  0  0
  -38.2163  -17.8605   23.6837 C   0  0  0  0  0  0  0  0  0  0  0  0
  -22.2336   -8.7600   20.2473 C   0  0  0  0  0  0  0  0  0  0  0  0
  -22.9587   -8.8106   22.5513 C   0  0  0  0  0  0  0  0  0  0  0  0
  -36.8287  -17.7288   23.6534 C   0  0  0  0  0  0  0  0  0  0  0  0
  -23.2024   -5.4716   22.0790 C   0  0  0  0  0  0  0  0  0  0  0  0
  -23.7898   -4.4542   22.8310 C   0  0  0  0  0  0  0  0  0  0  0  0
  -36.6720  -19.7454   22.3388 C   0  0  0  0  0  0  0  0  0  0  0  0
  -32.0587  -16.5493   22.5646 C   0  0  0  0  0  0  0  0  0  0  0  0
  -29.8809  -17.4482   23.0994 C   0  0  0  0  0  0  0  0  0  0  0  0
  -22.0659   -4.6973   24.5063 C   0  0  0  0  0  0  0  0  0  0  0  0
  -23.7464  -10.4868   21.0000 C   0  0  0  0  0  0  0  0  0  0  0  0
  -24.1322  -13.0024   20.8243 C   0  0  0  0  0  0  0  0  0  0  0  0
  -43.8426  -21.8915   27.5432 C   0  0  0  0  0  0  0  0  0  0  0  0
  -38.8425  -18.9434   23.0500 C   0  0  0  0  0  0  0  0  0  0  0  0
  -42.5575  -21.4413   27.1850 C   0  0  0  0  0  0  0  0  0  0  0  0
  -38.0679  -19.8871   22.3604 C   0  0  0  0  0  0  0  0  0  0  0  0
  -32.6477  -17.4456   23.4563 C   0  0  0  0  0  0  0  0  0  0  0  0
  -31.8533  -18.3432   24.1697 C   0  0  0  0  0  0  0  0  0  0  0  0
  -30.6753  -16.5506   22.3861 C   0  0  0  0  0  0  0  0  0  0  0  0
  -22.2128   -8.2181   21.5324 C   0  0  0  0  0  0  0  0  0  0  0  0
  -36.0561  -18.6729   22.9833 C   0  0  0  0  0  0  0  0  0  0  0  0
  -22.0468   -6.1020   22.5407 C   0  0  0  0  0  0  0  0  0  0  0  0
  -23.2215   -4.0670   24.0446 C   0  0  0  0  0  0  0  0  0  0  0  0
  -21.4786   -5.7147   23.7543 C   0  0  0  0  0  0  0  0  0  0  0  0
  -30.4698  -18.3445   23.9912 C   0  0  0  0  0  0  0  0  0  0  0  0
  -24.5391  -11.6583   20.7255 C   0  0  0  0  0  0  0  0  0  0  0  0
  -25.2421  -13.7248   20.4600 C   0  0  0  0  0  0  0  0  0  0  0  0
  -22.8643  -13.5490   21.2109 C   0  0  0  0  0  0  0  0  0  0  0  0
  -40.6505  -21.3707   24.0209 C   0  0  0  0  0  0  0  0  0  0  0  0
  -40.9141  -21.9391   20.8382 C   0  0  0  0  0  0  0  0  0  0  0  0
  -39.5993  -21.5699   17.7106 C   0  0  0  0  0  0  0  0  0  0  0  0
  -30.7217  -14.6848   20.6941 C   0  0  0  0  0  0  0  0  0  0  0  0
  -44.4400  -23.1414   26.9470 C   0  0  0  0  0  0  0  0  0  0  0  0
  -40.3422  -19.0566   23.0692 C   0  0  0  0  0  0  0  0  0  0  0  0
  -38.6930  -21.0570   21.6469 C   0  0  0  0  0  0  0  0  0  0  0  0
  -43.7524  -23.5915   25.6606 C   0  0  0  0  0  0  0  0  0  0  0  0
  -29.6030  -12.2324   18.3678 C   0  0  0  0  0  0  0  0  0  0  0  0
  -42.2364  -23.5625   25.8274 C   0  0  0  0  0  0  0  0  0  0  0  0
  -28.1523  -11.9750   18.7820 C   0  0  0  0  0  0  0  0  0  0  0  0
  -30.5036  -12.4755   19.5776 C   0  0  0  0  0  0  0  0  0  0  0  0
  -28.5884  -13.2645   20.9113 C   0  0  0  0  0  0  0  0  0  0  0  0
  -41.7407  -22.1413   26.1206 C   0  0  1  0  0  0  0  0  0  0  0  0
  -40.8372  -20.4790   22.8261 C   0  0  1  0  0  0  0  0  0  0  0  0
  -27.6307  -13.0785   19.7230 C   0  0  2  0  0  0  0  0  0  0  0  0
  -32.5013  -19.2996   25.1220 C   0  0  0  0  0  0  0  0  0  0  0  0
  -40.0213  -22.1758   15.3122 C   0  0  0  0  0  0  0  0  0  0  0  0
  -39.9842  -24.7908   21.3975 C   0  0  0  0  0  0  0  0  0  0  0  0
  -39.5163  -25.0438   18.9510 C   0  0  0  0  0  0  0  0  0  0  0  0
  -41.8437  -24.6070   19.7353 C   0  0  0  0  0  0  0  0  0  0  0  0
  -39.7736  -18.7282   16.9024 C   0  0  0  0  0  0  0  0  0  0  0  0
  -34.1381  -17.4234   23.6283 C   0  0  0  0  0  0  0  0  0  1  0  0
  -40.1347  -22.7462   19.8282 C   0  0  1  0  0  0  0  0  0  0  0  0
  -40.2268  -21.1324   16.3993 C   0  0  2  0  0  0  0  0  0  0  0  0
  -40.3575  -24.2761   19.9930 C   0  0  0  0  0  0  0  0  0  0  0  0
  -25.8083  -11.5316   20.3293 N   0  0  0  0  0  0  0  0  0  0  0  0
  -26.2086  -12.8053   20.1758 N   0  0  0  0  0  0  0  0  0  0  0  0
  -40.1626  -21.1275   21.6998 N   0  0  0  0  0  0  0  0  0  0  0  0
  -29.9487  -13.5364   20.4211 N   0  0  0  0  0  0  0  0  0  0  0  0
  -25.4758  -15.0504   20.3581 N   0  0  0  0  0  0  0  0  0  0  0  0
  -21.8324  -12.6650   21.5543 N   0  0  0  0  0  0  0  0  0  0  0  0
  -30.0777  -15.6400   21.4797 N   0  0  0  0  0  0  0  0  0  0  0  0
  -41.7119  -21.3554   24.9057 N   0  0  0  0  0  0  0  0  0  0  0  0
  -40.5055  -22.2262   18.5165 N   0  0  0  0  0  0  0  0  0  0  0  0
  -39.6241  -19.8494   15.9394 N   0  3  0  0  0  0  0  0  0  0  0  0
  -22.6479  -14.7843   21.2348 O   0  0  0  0  0  0  0  0  0  0  0  0
  -39.6205  -22.0254   24.1312 O   0  0  0  0  0  0  0  0  0  0  0  0
  -42.1448  -22.0202   20.8571 O   0  0  0  0  0  0  0  0  0  0  0  0
  -38.4221  -21.3545   17.9903 O   0  0  0  0  0  0  0  0  0  0  0  0
  -31.8604  -14.8235   20.2400 O   0  0  0  0  0  0  0  0  0  0  0  0
  -21.4645   -7.1113   21.7926 O   0  0  0  0  0  0  0  0  0  0  0  0
  -34.7014  -18.5470   22.9528 O   0  0  0  0  0  0  0  0  0  1  0  0
  -23.7848   -3.0889   24.7659 F   0  0  0  0  0  0  0  0  0  0  0  0
  -20.3678   -6.3158   24.2024 F   0  0  0  0  0  0  0  0  0  0  0  0
  -29.4514  -19.4377   24.8568 Cl  0  0  0  0  0  0  0  0  0  0  0  0
  1  2  1  0  0  0  0
  1  5  2  0  0  0  0
  2  6  2  0  0  0  0
  3  8  2  0  0  0  0
  3 17  1  0  0  0  0
  4  9  1  0  0  0  0
  4 17  2  0  0  0  0
  5 19  1  0  0  0  0
  6 21  1  0  0  0  0
  7 10  2  0  0  0  0
  7 20  1  0  0  0  0
  8 26  1  0  0  0  0
  9 26  2  0  0  0  0
 10 27  1  0  0  0  0
 11 12  2  0  0  0  0
 11 28  1  0  0  0  0
 12 29  1  0  0  0  0
 13 22  1  0  0  0  0
 13 27  2  0  0  0  0
 14 23  1  0  0  0  0
 14 25  2  0  0  0  0
 15 25  1  0  0  0  0
 15 31  2  0  0  0  0
 16 29  2  0  0  0  0
 16 30  1  0  0  0  0
 17 32  1  0  0  0  0
 18 32  1  0  0  0  0
 18 33  2  0  0  0  0
 18 34  1  0  0  0  0
 19 21  2  0  0  0  0
 19 39  1  0  0  0  0
 20 22  2  0  0  0  0
 20 40  1  0  0  0  0
 21 48  1  0  0  0  0
 22 41  1  0  0  0  0
 23 24  2  0  0  0  0
 23 57  1  0  0  0  0
 24 31  1  0  0  0  0
 24 51  1  0  0  0  0
 25 67  1  0  0  0  0
 26 76  1  0  0  0  0
 27 77  1  0  0  0  0
 28 30  2  0  0  0  0
 28 76  1  0  0  0  0
 29 78  1  0  0  0  0
 30 79  1  0  0  0  0
 31 80  1  0  0  0  0
 32 61  2  0  0  0  0
 33 62  1  0  0  0  0
 33 65  1  0  0  0  0
 34 66  1  0  0  0  0
 34 71  2  0  0  0  0
 35 49  1  0  0  0  0
 35 68  1  0  0  0  0
 35 72  2  0  0  0  0
 36 58  1  0  0  0  0
 36 63  1  0  0  0  0
 36 73  2  0  0  0  0
 37 59  1  0  0  0  0
 37 69  1  0  0  0  0
 37 74  2  0  0  0  0
 38 64  1  0  0  0  0
 38 67  1  0  0  0  0
 38 75  2  0  0  0  0
 39 42  1  0  0  0  0
 40 49  1  0  0  0  0
 41 63  1  0  0  0  0
 42 44  1  0  0  0  0
 43 45  1  0  0  0  0
 43 46  1  0  0  0  0
 44 48  1  0  0  0  0
 45 50  1  0  0  0  0
 46 64  1  0  0  0  0
 47 50  1  0  0  0  0
 47 64  1  0  0  0  0
 48 68  1  0  0  0  0
 49 63  1  0  0  0  0
 50 62  1  0  0  0  0
 52 59  1  0  0  0  0
 53 60  1  0  0  0  0
 54 60  1  0  0  0  0
 55 60  1  0  0  0  0
 56 70  1  0  0  0  0
 57 77  1  0  0  0  0
 58 60  1  0  0  0  0
 58 69  1  0  0  0  0
 59 70  1  0  0  0  0
 61 62  1  0  0  0  0
M  CHG  1  70   1
M  ISO  4  38 100  57 101  67 100  77 101
M  END
> <Batch ID>
0002

> <Smiles>
CNC(C)C(=O)NC(C(=O)N1Cc2cc([101O:1][101CH2:1]c3cc([100NH:0][100C:0](=O)N4CCCC(n5nc(-c6ccc(Oc7ccc(F)cc7F)cc6)c(C(N)=O)c5N)C4)cc(Cl)c3C)ccc2CC1C(=O)NC1CCCc2ccccc21)C(C)(C)C

> <Shape>
0.174

> <Color>
0.206

> <Negative vol penalty>
0.000

$$$$

  -OEChem-04042320173D

 80 88  0     1  0  0  0  0  0999 V2000
  -23.6037  -32.7327   26.6389 C   0  0  0  0  0  0  0  0  0  0  0  0
  -24.8776  -32.2842   26.3049 C   0  0  0  0  0  0  0  0  0  0  0  0
  -24.0384   -9.7255   21.7182 C   0  0  0  0  0  0  0  0  0  0  0  0
  -24.6425  -10.9968   23.6819 C   0  0  0  0  0  0  0  0  0  0  0  0
  -22.4822  -32.0179   26.2204 C   0  0  0  0  0  0  0  0  0  0  0  0
  -25.0306  -31.1199   25.5529 C   0  0  0  0  0  0  0  0  0  0  0  0
  -29.3094  -28.1866   20.6129 C   0  0  0  0  0  0  0  0  0  0  0  0
  -28.4287  -19.3882   20.5060 C   0  0  0  0  0  0  0  0  0  0  0  0
  -30.7877  -18.9562   20.2141 C   0  0  0  0  0  0  0  0  0  0  0  0
  -23.6100   -8.6752   22.5300 C   0  0  0  0  0  0  0  0  0  0  0  0
  -24.2141   -9.9465   24.4937 C   0  0  0  0  0  0  0  0  0  0  0  0
  -30.0416  -27.0241   20.3755 C   0  0  0  0  0  0  0  0  0  0  0  0
  -28.7132  -20.7096   20.8503 C   0  0  0  0  0  0  0  0  0  0  0  0
  -31.0723  -20.2777   20.5583 C   0  0  0  0  0  0  0  0  0  0  0  0
  -20.8982   -7.9212   24.4037 C   0  0  0  0  0  0  0  0  0  0  0  0
  -19.6779   -7.3201   24.0957 C   0  0  0  0  0  0  0  0  0  0  0  0
  -28.0298  -25.9145   19.6402 C   0  0  0  0  0  0  0  0  0  0  0  0
  -20.7990   -5.2023   23.7872 C   0  0  0  0  0  0  0  0  0  0  0  0
  -24.5547  -10.8863   22.2942 C   0  0  0  0  0  0  0  0  0  0  0  0
  -24.2291  -13.0552   20.9913 C   0  0  0  0  0  0  0  0  0  0  0  0
  -22.6213  -30.8496   25.4547 C   0  0  0  0  0  0  0  0  0  0  0  0
  -27.9277  -28.2185   20.3757 C   0  0  0  0  0  0  0  0  0  0  0  0
  -23.9099  -30.3881   25.1249 C   0  0  0  0  0  0  0  0  0  0  0  0
  -27.2828  -27.0794   19.8730 C   0  0  0  0  0  0  0  0  0  0  0  0
  -29.4659  -18.5115   20.1880 C   0  0  0  0  0  0  0  0  0  0  0  0
  -23.6979   -8.7857   23.9177 C   0  0  0  0  0  0  0  0  0  0  0  0
  -30.0350  -21.1544   20.8764 C   0  0  0  0  0  0  0  0  0  0  0  0
  -29.4013  -25.8869   19.8918 C   0  0  0  0  0  0  0  0  0  0  0  0
  -22.0690   -7.1629   24.4033 C   0  0  0  0  0  0  0  0  0  0  0  0
  -19.6282   -5.9606   23.7875 C   0  0  0  0  0  0  0  0  0  0  0  0
  -22.0194   -5.8035   24.0952 C   0  0  0  0  0  0  0  0  0  0  0  0
  -24.9979  -11.9714   21.4562 C   0  0  0  0  0  0  0  0  0  0  0  0
  -25.1050  -13.8005   20.2404 C   0  0  0  0  0  0  0  0  0  0  0  0
  -22.8468  -13.3610   21.2181 C   0  0  0  0  0  0  0  0  0  0  0  0
  -25.3524  -28.6868   22.1791 C   0  0  0  0  0  0  0  0  0  0  0  0
  -23.8160  -28.5983   19.3236 C   0  0  0  0  0  0  0  0  0  0  0  0
  -23.8009  -27.5601   16.0727 C   0  0  0  0  0  0  0  0  0  0  0  0
  -30.0881  -16.1705   19.4959 C   0  0  0  0  0  0  0  0  0  0  0  0
  -21.3810  -30.0848   25.0655 C   0  0  0  0  0  0  0  0  0  0  0  0
  -27.1569  -29.4884   20.6116 C   0  0  0  0  0  0  0  0  0  0  0  0
  -25.8050  -27.0680   19.5827 C   0  0  0  0  0  0  0  0  0  0  0  0
  -21.6176  -29.0659   23.9537 C   0  0  0  0  0  0  0  0  0  0  0  0
  -29.7771  -12.7363   18.6092 C   0  0  0  0  0  0  0  0  0  0  0  0
  -22.8728  -28.2471   24.2383 C   0  0  0  0  0  0  0  0  0  0  0  0
  -28.4427  -12.3203   19.2326 C   0  0  0  0  0  0  0  0  0  0  0  0
  -30.5327  -13.7256   19.4945 C   0  0  0  0  0  0  0  0  0  0  0  0
  -28.4296  -14.4937   20.5222 C   0  0  0  0  0  0  0  0  0  0  0  0
  -24.1161  -29.1431   24.2896 C   0  0  1  0  0  0  0  0  0  0  0  0
  -25.6647  -29.2513   20.8221 C   0  0  1  0  0  0  0  0  0  0  0  0
  -27.6025  -13.5476   19.6365 C   0  0  2  0  0  0  0  0  0  0  0  0
  -22.3923  -27.6068   13.9963 C   0  0  0  0  0  0  0  0  0  0  0  0
  -22.0062  -26.4448   20.5056 C   0  0  0  0  0  0  0  0  0  0  0  0
  -21.2844  -25.8720   18.1778 C   0  0  0  0  0  0  0  0  0  0  0  0
  -20.8257  -28.1437   19.1006 C   0  0  0  0  0  0  0  0  0  0  0  0
  -25.8720  -29.0381   14.5612 C   0  0  0  0  0  0  0  0  0  0  0  0
  -31.4746  -23.0311   20.6290 C   0  0  0  0  0  0  0  0  0  0  0  0
  -31.2605  -24.5247   20.4780 C   0  0  0  0  0  0  0  0  0  1  0  0
  -23.1936  -27.5139   18.4776 C   0  0  1  0  0  0  0  0  0  0  0  0
  -23.4968  -28.2975   14.7811 C   0  0  2  0  0  0  0  0  0  0  0  0
  -21.8550  -26.9929   19.0726 C   0  0  0  0  0  0  0  0  0  0  0  0
  -26.2647  -12.0199   21.0356 N   0  0  0  0  0  0  0  0  0  0  0  0
  -26.2986  -13.1431   20.2986 N   0  0  0  0  0  0  0  0  0  0  0  0
  -25.0938  -28.3320   19.8355 N   0  0  0  0  0  0  0  0  0  0  0  0
  -29.6758  -14.8640   19.8332 N   0  0  0  0  0  0  0  0  0  0  0  0
  -24.9629  -14.9473   19.5425 N   0  0  0  0  0  0  0  0  0  0  0  0
  -22.0914  -12.4891   22.0140 N   0  0  0  0  0  0  0  0  0  0  0  0
  -29.1770  -17.1691   19.8384 N   0  0  0  0  0  0  0  0  0  0  0  0
  -24.5408  -29.4954   22.9517 N   0  0  0  0  0  0  0  0  0  0  0  0
  -23.0753  -28.0638   17.1314 N   0  0  0  0  0  0  0  0  0  0  0  0
  -24.7133  -28.3622   13.9228 N   0  3  0  0  0  0  0  0  0  0  0  0
  -22.2936  -14.3687   20.7159 O   0  0  0  0  0  0  0  0  0  0  0  0
  -25.8125  -27.5975   22.5008 O   0  0  0  0  0  0  0  0  0  0  0  0
  -23.1943  -29.6461   19.5170 O   0  0  0  0  0  0  0  0  0  0  0  0
  -24.5992  -26.6277   16.1352 O   0  0  0  0  0  0  0  0  0  0  0  0
  -31.1575  -16.3850   18.9194 O   0  0  0  0  0  0  0  0  0  0  0  0
  -23.2797   -7.7611   24.7101 O   0  0  0  0  0  0  0  0  0  0  0  0
  -30.3146  -22.4523   21.2145 O   0  0  0  0  0  0  0  0  0  0  0  0
  -30.1134  -24.7508   19.6598 O   0  0  0  0  0  0  0  0  0  1  0  0
  -18.4560   -5.3831   23.4933 F   0  0  0  0  0  0  0  0  0  0  0  0
  -23.1406   -5.0696   24.0944 F   0  0  0  0  0  0  0  0  0  0  0  0
  1  2  1  0  0  0  0
  1  5  2  0  0  0  0
  2  6  2  0  0  0  0
  3 10  2  0  0  0  0
  3 19  1  0  0  0  0
  4 11  1  0  0  0  0
  4 19  2  0  0  0  0
  5 21  1  0  0  0  0
  6 23  1  0  0  0  0
  7 12  2  0  0  0  0
  7 22  1  0  0  0  0
  8 13  2  0  0  0  0
  8 25  1  0  0  0  0
  9 14  1  0  0  0  0
  9 25  2  0  0  0  0
 10 26  1  0  0  0  0
 11 26  2  0  0  0  0
 12 28  1  0  0  0  0
 13 27  1  0  0  0  0
 14 27  2  0  0  0  0
 15 16  2  0  0  0  0
 15 29  1  0  0  0  0
 16 30  1  0  0  0  0
 17 24  1  0  0  0  0
 17 28  2  0  0  0  0
 18 30  2  0  0  0  0
 18 31  1  0  0  0  0
 19 32  1  0  0  0  0
 20 32  1  0  0  0  0
 20 33  2  0  0  0  0
 20 34  1  0  0  0  0
 21 23  2  0  0  0  0
 21 39  1  0  0  0  0
 22 24  2  0  0  0  0
 22 40  1  0  0  0  0
 23 48  1  0  0  0  0
 24 41  1  0  0  0  0
 25 67  1  0  0  0  0
 26 76  1  0  0  0  0
 27 77  1  0  0  0  0
 28 78  1  0  0  0  0
 29 31  2  0  0  0  0
 29 76  1  0  0  0  0
 30 79  1  0  0  0  0
 31 80  1  0  0  0  0
 32 61  2  0  0  0  0
 33 62  1  0  0  0  0
 33 65  1  0  0  0  0
 34 66  1  0  0  0  0
 34 71  2  0  0  0  0
 35 49  1  0  0  0  0
 35 68  1  0  0  0  0
 35 72  2  0  0  0  0
 36 58  1  0  0  0  0
 36 63  1  0  0  0  0
 36 73  2  0  0  0  0
 37 59  1  0  0  0  0
 37 69  1  0  0  0  0
 37 74  2  0  0  0  0
 38 64  1  0  0  0  0
 38 67  1  0  0  0  0
 38 75  2  0  0  0  0
 39 42  1  0  0  0  0
 40 49  1  0  0  0  0
 41 63  1  0  0  0  0
 42 44  1  0  0  0  0
 43 45  1  0  0  0  0
 43 46  1  0  0  0  0
 44 48  1  0  0  0  0
 45 50  1  0  0  0  0
 46 64  1  0  0  0  0
 47 50  1  0  0  0  0
 47 64  1  0  0  0  0
 48 68  1  0  0  0  0
 49 63  1  0  0  0  0
 50 62  1  0  0  0  0
 51 59  1  0  0  0  0
 52 60  1  0  0  0  0
 53 60  1  0  0  0  0
 54 60  1  0  0  0  0
 55 70  1  0  0  0  0
 56 57  1  0  0  0  0
 56 77  1  0  0  0  0
 57 78  1  0  0  0  0
 58 60  1  0  0  0  0
 58 69  1  0  0  0  0
 59 70  1  0  0  0  0
 61 62  1  0  0  0  0
M  CHG  1  70   1
M  ISO  4  38 100  57 101  67 100  78 101
M  END
> <Batch ID>
0002

> <Smiles>
CNC(C)C(=O)NC(C(=O)N1Cc2cc([101O:1][101CH2:1]COc3ccc([100NH:0][100C:0](=O)N4CCCC(n5nc(-c6ccc(Oc7ccc(F)cc7F)cc6)c(C(N)=O)c5N)C4)cc3)ccc2CC1C(=O)NC1CCCc2ccccc21)C(C)(C)C

> <Shape>
0.290

> <Color>
0.124

> <Negative vol penalty>
0.000

$$$$

  -OEChem-04042320173D

 78 86  0     1  0  0  0  0  0999 V2000
  -28.0667  -37.0392   21.1568 C   0  0  0  0  0  0  0  0  0  0  0  0
  -28.4786  -35.7212   20.9880 C   0  0  0  0  0  0  0  0  0  0  0  0
  -26.8779  -12.7381   21.8118 C   0  0  0  0  0  0  0  0  0  0  0  0
  -26.2289  -14.3697   20.1524 C   0  0  0  0  0  0  0  0  0  0  0  0
  -26.9484  -37.3241   21.9392 C   0  0  0  0  0  0  0  0  0  0  0  0
  -27.7731  -34.6872   21.6025 C   0  0  0  0  0  0  0  0  0  0  0  0
  -26.8406  -29.0494   19.4001 C   0  0  0  0  0  0  0  0  0  0  0  0
  -29.9140  -23.9385   21.6652 C   0  0  0  0  0  0  0  0  0  0  0  0
  -29.0925  -23.0456   19.5759 C   0  0  0  0  0  0  0  0  0  0  0  0
  -30.3903  -22.6757   22.0176 C   0  0  0  0  0  0  0  0  0  0  0  0
  -29.5689  -21.7828   19.9283 C   0  0  0  0  0  0  0  0  0  0  0  0
  -25.5581  -12.2939   21.8913 C   0  0  0  0  0  0  0  0  0  0  0  0
  -24.9090  -13.9255   20.2318 C   0  0  0  0  0  0  0  0  0  0  0  0
  -27.4760  -27.8317   19.6398 C   0  0  0  0  0  0  0  0  0  0  0  0
  -22.4256  -10.4880   22.2670 C   0  0  0  0  0  0  0  0  0  0  0  0
  -22.2040   -9.1109   22.2726 C   0  0  0  0  0  0  0  0  0  0  0  0
  -25.7862  -27.2777   21.2698 C   0  0  0  0  0  0  0  0  0  0  0  0
  -23.2629   -8.9317   20.1084 C   0  0  0  0  0  0  0  0  0  0  0  0
  -27.2133  -13.7760   20.9424 C   0  0  0  0  0  0  0  0  0  0  0  0
  -29.5834  -13.7604   19.9988 C   0  0  0  0  0  0  0  0  0  0  0  0
  -26.2231  -36.2924   22.5558 C   0  0  0  0  0  0  0  0  0  0  0  0
  -25.6774  -29.3956   20.1025 C   0  0  0  0  0  0  0  0  0  0  0  0
  -26.6449  -34.9587   22.3951 C   0  0  0  0  0  0  0  0  0  0  0  0
  -25.1365  -28.4992   21.0353 C   0  0  0  0  0  0  0  0  0  0  0  0
  -29.2650  -24.1234   20.4444 C   0  0  0  0  0  0  0  0  0  0  0  0
  -30.2178  -21.5979   21.1491 C   0  0  0  0  0  0  0  0  0  0  0  0
  -24.5736  -12.8876   21.1013 C   0  0  0  0  0  0  0  0  0  0  0  0
  -26.9505  -26.9469   20.5769 C   0  0  0  0  0  0  0  0  0  0  0  0
  -23.0657  -11.0870   21.1821 C   0  0  0  0  0  0  0  0  0  0  0  0
  -22.6227   -8.3327   21.1933 C   0  0  0  0  0  0  0  0  0  0  0  0
  -23.4844  -10.3089   20.1028 C   0  0  0  0  0  0  0  0  0  0  0  0
  -28.5764  -14.2357   20.8602 C   0  0  0  0  0  0  0  0  0  0  0  0
  -30.6867  -14.5170   20.3100 C   0  0  0  0  0  0  0  0  0  0  0  0
  -29.5265  -12.7275   19.0061 C   0  0  0  0  0  0  0  0  0  0  0  0
  -24.8815  -31.7237   22.1150 C   0  0  0  0  0  0  0  0  0  0  0  0
  -21.9265  -30.4122   21.8504 C   0  0  0  0  0  0  0  0  0  0  0  0
  -20.0285  -27.6660   21.1412 C   0  0  0  0  0  0  0  0  0  0  0  0
  -31.3678  -19.9601   22.6793 C   0  0  0  0  0  0  0  0  0  0  0  0
  -25.0489  -36.6530   23.4308 C   0  0  0  0  0  0  0  0  0  0  0  0
  -24.9890  -30.7013   19.8131 C   0  0  0  0  0  0  0  0  0  0  0  0
  -23.8787  -28.8147   21.8013 C   0  0  0  0  0  0  0  0  0  0  0  0
  -24.1351  -35.4704   23.7419 C   0  0  0  0  0  0  0  0  0  0  0  0
  -32.6846  -16.9053   23.9485 C   0  0  0  0  0  0  0  0  0  0  0  0
  -24.9579  -34.2549   24.1570 C   0  0  0  0  0  0  0  0  0  0  0  0
  -31.8764  -15.8307   23.2177 C   0  0  0  0  0  0  0  0  0  0  0  0
  -31.8295  -18.1244   24.2893 C   0  0  0  0  0  0  0  0  0  0  0  0
  -30.2959  -17.6360   22.4242 C   0  0  0  0  0  0  0  0  0  0  0  0
  -25.8910  -33.8077   23.0253 C   0  0  1  0  0  0  0  0  0  0  0  0
  -24.0974  -31.1732   20.9575 C   0  0  1  0  0  0  0  0  0  0  0  0
  -31.1304  -16.4157   22.0024 C   0  0  2  0  0  0  0  0  0  0  0  0
  -17.6438  -26.8901   21.0485 C   0  0  0  0  0  0  0  0  0  0  0  0
  -21.8657  -30.2428   24.8963 C   0  0  0  0  0  0  0  0  0  0  0  0
  -19.9531  -28.6392   24.6994 C   0  0  0  0  0  0  0  0  0  0  0  0
  -19.7150  -30.9722   23.8490 C   0  0  0  0  0  0  0  0  0  0  0  0
  -20.2148  -27.0650   18.2493 C   0  0  0  0  0  0  0  0  0  0  0  0
  -28.7526  -25.4818   20.0654 C   0  0  0  0  0  0  0  0  0  1  0  0
  -21.1660  -29.3336   22.5834 C   0  0  1  0  0  0  0  0  0  0  0  0
  -18.8017  -27.4884   20.2649 C   0  0  2  0  0  0  0  0  0  0  0  0
  -20.6998  -29.7915   23.9942 C   0  0  0  0  0  0  0  0  0  0  0  0
  -29.0023  -15.2180   21.6588 N   0  0  0  0  0  0  0  0  0  0  0  0
  -30.2891  -15.3661   21.3005 N   0  0  0  0  0  0  0  0  0  0  0  0
  -23.2458  -30.1064   21.4875 N   0  0  0  0  0  0  0  0  0  0  0  0
  -31.1567  -18.6266   23.0893 N   0  0  0  0  0  0  0  0  0  0  0  0
  -31.9484  -14.5321   19.8303 N   0  0  0  0  0  0  0  0  0  0  0  0
  -28.3144  -12.0502   18.8153 N   0  0  0  0  0  0  0  0  0  0  0  0
  -30.7018  -20.3151   21.5067 N   0  0  0  0  0  0  0  0  0  0  0  0
  -25.1513  -33.0756   22.0197 N   0  0  0  0  0  0  0  0  0  0  0  0
  -20.0802  -28.9263   21.6982 N   0  0  0  0  0  0  0  0  0  0  0  0
  -19.1097  -26.5865   19.1192 N   0  3  0  0  0  0  0  0  0  0  0  0
  -30.5255  -12.4032   18.3203 O   0  0  0  0  0  0  0  0  0  0  0  0
  -25.2157  -30.9775   23.0278 O   0  0  0  0  0  0  0  0  0  0  0  0
  -21.3681  -31.4838   21.6025 O   0  0  0  0  0  0  0  0  0  0  0  0
  -20.8560  -26.7746   21.3172 O   0  0  0  0  0  0  0  0  0  0  0  0
  -32.1080  -20.7224   23.3063 O   0  0  0  0  0  0  0  0  0  0  0  0
  -23.2857  -12.4542   21.1784 O   0  0  0  0  0  0  0  0  0  0  0  0
  -27.5690  -25.7581   20.8132 O   0  0  0  0  0  0  0  0  0  1  0  0
  -22.4112   -7.0101   21.1995 F   0  0  0  0  0  0  0  0  0  0  0  0
  -24.1010  -10.8786   19.0582 F   0  0  0  0  0  0  0  0  0  0  0  0
  1  2  1  0  0  0  0
  1  5  2  0  0  0  0
  2  6  2  0  0  0  0
  3 12  2  0  0  0  0
  3 19  1  0  0  0  0
  4 13  1  0  0  0  0
  4 19  2  0  0  0  0
  5 21  1  0  0  0  0
  6 23  1  0  0  0  0
  7 14  2  0  0  0  0
  7 22  1  0  0  0  0
  8 10  2  0  0  0  0
  8 25  1  0  0  0  0
  9 11  1  0  0  0  0
  9 25  2  0  0  0  0
 10 26  1  0  0  0  0
 11 26  2  0  0  0  0
 12 27  1  0  0  0  0
 13 27  2  0  0  0  0
 14 28  1  0  0  0  0
 15 16  2  0  0  0  0
 15 29  1  0  0  0  0
 16 30  1  0  0  0  0
 17 24  1  0  0  0  0
 17 28  2  0  0  0  0
 18 30  2  0  0  0  0
 18 31  1  0  0  0  0
 19 32  1  0  0  0  0
 20 32  1  0  0  0  0
 20 33  2  0  0  0  0
 20 34  1  0  0  0  0
 21 23  2  0  0  0  0
 21 39  1  0  0  0  0
 22 24  2  0  0  0  0
 22 40  1  0  0  0  0
 23 48  1  0  0  0  0
 24 41  1  0  0  0  0
 25 56  1  0  0  0  0
 26 66  1  0  0  0  0
 27 75  1  0  0  0  0
 28 76  1  0  0  0  0
 29 31  2  0  0  0  0
 29 75  1  0  0  0  0
 30 77  1  0  0  0  0
 31 78  1  0  0  0  0
 32 60  2  0  0  0  0
 33 61  1  0  0  0  0
 33 64  1  0  0  0  0
 34 65  1  0  0  0  0
 34 70  2  0  0  0  0
 35 49  1  0  0  0  0
 35 67  1  0  0  0  0
 35 71  2  0  0  0  0
 36 57  1  0  0  0  0
 36 62  1  0  0  0  0
 36 72  2  0  0  0  0
 37 58  1  0  0  0  0
 37 68  1  0  0  0  0
 37 73  2  0  0  0  0
 38 63  1  0  0  0  0
 38 66  1  0  0  0  0
 38 74  2  0  0  0  0
 39 42  1  0  0  0  0
 40 49  1  0  0  0  0
 41 62  1  0  0  0  0
 42 44  1  0  0  0  0
 43 45  1  0  0  0  0
 43 46  1  0  0  0  0
 44 48  1  0  0  0  0
 45 50  1  0  0  0  0
 46 63  1  0  0  0  0
 47 50  1  0  0  0  0
 47 63  1  0  0  0  0
 48 67  1  0  0  0  0
 49 62  1  0  0  0  0
 50 61  1  0  0  0  0
 51 58  1  0  0  0  0
 52 59  1  0  0  0  0
 53 59  1  0  0  0  0
 54 59  1  0  0  0  0
 55 69  1  0  0  0  0
 56 76  1  0  0  0  0
 57 59  1  0  0  0  0
 57 68  1  0  0  0  0
 58 69  1  0  0  0  0
 60 61  1  0  0  0  0
M  CHG  1  69   1
M  ISO  4  38 100  56 101  66 100  76 101
M  END
> <Batch ID>
0002

> <Smiles>
CNC(C)C(=O)NC(C(=O)N1Cc2cc([101O:1][101CH2:1]c3ccc([100NH:0][100C:0](=O)N4CCCC(n5nc(-c6ccc(Oc7ccc(F)cc7F)cc6)c(C(N)=O)c5N)C4)cc3)ccc2CC1C(=O)NC1CCCc2ccccc21)C(C)(C)C

> <Shape>
0.340

> <Color>
0.078

> <Negative vol penalty>
0.000

$$$$

  -OEChem-04042320173D

 85 93  0     1  0  0  0  0  0999 V2000
  -31.6097  -16.8639   23.4246 C   0  0  0  0  0  0  0  0  0  0  0  0
  -30.5001  -17.6704   23.1929 C   0  0  0  0  0  0  0  0  0  0  0  0
  -29.2651  -25.1546   20.6906 C   0  0  0  0  0  0  0  0  0  0  0  0
  -27.2764  -23.7867   20.5852 C   0  0  0  0  0  0  0  0  0  0  0  0
  -18.6807  -26.4503   22.4147 C   0  0  0  0  0  0  0  0  0  0  0  0
  -31.6584  -15.5770   22.8903 C   0  0  0  0  0  0  0  0  0  0  0  0
  -29.4389  -17.1908   22.4258 C   0  0  0  0  0  0  0  0  0  0  0  0
  -24.9299  -18.2201   24.4884 C   0  0  0  0  0  0  0  0  0  0  0  0
  -18.0406  -27.1957   23.4047 C   0  0  0  0  0  0  0  0  0  0  0  0
  -29.9594  -24.0997   21.2828 C   0  0  0  0  0  0  0  0  0  0  0  0
  -27.9707  -22.7317   21.1774 C   0  0  0  0  0  0  0  0  0  0  0  0
  -24.4424  -19.5176   24.3384 C   0  0  0  0  0  0  0  0  0  0  0  0
  -32.3548  -21.6476   22.4928 C   0  0  0  0  0  0  0  0  0  0  0  0
  -33.6357  -21.3663   22.0176 C   0  0  0  0  0  0  0  0  0  0  0  0
  -23.0311  -18.7719   22.5298 C   0  0  0  0  0  0  0  0  0  0  0  0
  -19.7523  -28.8921   23.2344 C   0  0  0  0  0  0  0  0  0  0  0  0
  -32.7277  -20.9464   19.8184 C   0  0  0  0  0  0  0  0  0  0  0  0
  -27.9236  -24.9981   20.3418 C   0  0  0  0  0  0  0  0  0  0  0  0
  -19.8567  -26.9258   21.8345 C   0  0  0  0  0  0  0  0  0  0  0  0
  -27.0890  -26.3631   18.3549 C   0  0  0  0  0  0  0  0  0  0  0  0
  -30.5931  -15.0779   22.1244 C   0  0  0  0  0  0  0  0  0  0  0  0
  -24.4789  -17.1892   23.6516 C   0  0  0  0  0  0  0  0  0  0  0  0
  -29.4740  -15.8965   21.8797 C   0  0  0  0  0  0  0  0  0  0  0  0
  -23.5125  -17.4617   22.6729 C   0  0  0  0  0  0  0  0  0  0  0  0
  -18.5763  -28.4166   23.8146 C   0  0  0  0  0  0  0  0  0  0  0  0
  -20.3925  -28.1467   22.2443 C   0  0  0  0  0  0  0  0  0  0  0  0
  -29.3122  -22.8882   21.5262 C   0  0  0  0  0  0  0  0  0  0  0  0
  -23.4950  -19.7943   23.3572 C   0  0  0  0  0  0  0  0  0  0  0  0
  -31.2603  -21.5782   21.6308 C   0  0  0  0  0  0  0  0  0  0  0  0
  -33.8221  -21.0157   20.6805 C   0  0  0  0  0  0  0  0  0  0  0  0
  -31.4468  -21.2277   20.2937 C   0  0  0  0  0  0  0  0  0  0  0  0
  -27.2058  -26.0876   19.7305 C   0  0  0  0  0  0  0  0  0  0  0  0
  -26.3127  -27.4947   18.2960 C   0  0  0  0  0  0  0  0  0  0  0  0
  -20.5131  -26.1068   20.7830 C   0  0  0  0  0  0  0  0  0  0  0  0
  -27.6334  -25.6590   17.2308 C   0  0  0  0  0  0  0  0  0  0  0  0
  -25.8513  -15.2573   21.5330 C   0  0  0  0  0  0  0  0  0  0  0  0
  -22.9145  -13.8813   21.4679 C   0  0  0  0  0  0  0  0  0  0  0  0
  -19.5557  -14.1956   21.9840 C   0  0  0  0  0  0  0  0  0  0  0  0
  -22.2351  -29.8439   21.9782 C   0  0  0  0  0  0  0  0  0  0  0  0
  -30.7118  -13.6976   21.5282 C   0  0  0  0  0  0  0  0  0  0  0  0
  -24.9949  -15.7894   23.8437 C   0  0  0  0  0  0  0  0  0  0  0  0
  -22.9808  -16.3861   21.7623 C   0  0  0  0  0  0  0  0  0  0  0  0
  -29.3822  -13.1287   21.0395 C   0  0  0  0  0  0  0  0  0  0  0  0
  -25.2110  -31.4153   20.8157 C   0  0  0  0  0  0  0  0  0  0  0  0
  -28.6236  -14.1705   20.2234 C   0  0  0  0  0  0  0  0  0  0  0  0
  -26.0471  -30.2532   20.2747 C   0  0  0  0  0  0  0  0  0  0  0  0
  -24.4247  -31.0159   22.0630 C   0  0  0  0  0  0  0  0  0  0  0  0
  -24.4321  -28.6504   21.3747 C   0  0  0  0  0  0  0  0  0  0  0  0
  -28.2923  -15.4030   21.0734 C   0  0  1  0  0  0  0  0  0  0  0  0
  -24.8460  -14.9215   22.5980 C   0  0  1  0  0  0  0  0  0  0  0  0
  -25.1916  -28.9859   20.0807 C   0  0  2  0  0  0  0  0  0  0  0  0
  -17.8908  -29.2130   24.8728 C   0  0  0  0  0  0  0  0  0  0  0  0
  -17.4070  -12.9113   21.8082 C   0  0  0  0  0  0  0  0  0  0  0  0
  -22.9525  -14.2373   18.4378 C   0  0  0  0  0  0  0  0  0  0  0  0
  -20.4807  -13.8396   18.4300 C   0  0  0  0  0  0  0  0  0  0  0  0
  -22.0278  -12.0492   19.2196 C   0  0  0  0  0  0  0  0  0  0  0  0
  -19.0289  -14.4539   24.8848 C   0  0  0  0  0  0  0  0  0  0  0  0
  -22.4033  -23.4125   20.3219 C   0  0  0  0  0  0  0  0  0  0  0  0
  -22.8436  -22.9460   21.7098 C   0  0  0  0  0  0  0  0  0  0  0  0
  -22.5865  -24.9139   20.1246 C   0  0  0  0  0  0  0  0  0  0  0  0
  -22.6134  -21.4516   21.8970 C   0  0  0  0  0  0  0  0  0  1  0  0
  -21.6537  -14.0899   20.6643 C   0  0  1  0  0  0  0  0  0  0  0  0
  -18.5616  -13.3105   22.7139 C   0  0  2  0  0  0  0  0  0  0  0  0
  -21.7899  -13.5749   19.2036 C   0  0  0  0  0  0  0  0  0  0  0  0
  -26.5559  -26.9730   20.4907 N   0  0  0  0  0  0  0  0  0  0  0  0
  -26.0233  -27.8159   19.5896 N   0  0  0  0  0  0  0  0  0  0  0  0
  -23.5208  -15.0348   21.9853 N   0  0  0  0  0  0  0  0  0  0  0  0
  -23.6347  -29.8103   21.8032 N   0  0  0  0  0  0  0  0  0  0  0  0
  -25.8564  -28.2363   17.2645 N   0  0  0  0  0  0  0  0  0  0  0  0
  -28.4080  -24.5157   17.4699 N   0  0  0  0  0  0  0  0  0  0  0  0
  -21.5866  -28.6486   21.6698 N   0  0  0  0  0  0  0  0  0  0  0  0
  -21.8118  -25.6910   21.0528 N   0  0  0  0  0  0  0  0  0  0  0  0
  -27.1657  -15.1311   21.9403 N   0  0  0  0  0  0  0  0  0  0  0  0
  -20.5778  -13.4602   21.4221 N   0  0  0  0  0  0  0  0  0  0  0  0
  -18.0050  -14.0238   23.8981 N   0  3  0  0  0  0  0  0  0  0  0  0
  -19.9025  -25.8603   19.7462 O   0  0  0  0  0  0  0  0  0  0  0  0
  -27.4523  -26.0420   16.0501 O   0  0  0  0  0  0  0  0  0  0  0  0
  -25.4632  -15.6038   20.4235 O   0  0  0  0  0  0  0  0  0  0  0  0
  -23.3416  -12.7364   21.6367 O   0  0  0  0  0  0  0  0  0  0  0  0
  -19.4355  -15.4168   21.9158 O   0  0  0  0  0  0  0  0  0  0  0  0
  -21.6515  -30.8665   22.3467 O   0  0  0  0  0  0  0  0  0  0  0  0
  -29.9894  -21.8586   22.1039 O   0  0  0  0  0  0  0  0  0  0  0  0
  -23.0180  -21.0601   23.2082 O   0  0  0  0  0  0  0  0  0  1  0  0
  -35.0524  -20.7471   20.2239 F   0  0  0  0  0  0  0  0  0  0  0  0
  -30.3993  -21.1606   19.4605 F   0  0  0  0  0  0  0  0  0  0  0  0
  1  2  1  0  0  0  0
  1  6  2  0  0  0  0
  2  7  2  0  0  0  0
  3 10  2  0  0  0  0
  3 18  1  0  0  0  0
  4 11  1  0  0  0  0
  4 18  2  0  0  0  0
  5  9  2  0  0  0  0
  5 19  1  0  0  0  0
  6 21  1  0  0  0  0
  7 23  1  0  0  0  0
  8 12  2  0  0  0  0
  8 22  1  0  0  0  0
  9 25  1  0  0  0  0
 10 27  1  0  0  0  0
 11 27  2  0  0  0  0
 12 28  1  0  0  0  0
 13 14  2  0  0  0  0
 13 29  1  0  0  0  0
 14 30  1  0  0  0  0
 15 24  1  0  0  0  0
 15 28  2  0  0  0  0
 16 25  2  0  0  0  0
 16 26  1  0  0  0  0
 17 30  2  0  0  0  0
 17 31  1  0  0  0  0
 18 32  1  0  0  0  0
 19 26  2  0  0  0  0
 19 34  1  0  0  0  0
 20 32  1  0  0  0  0
 20 33  2  0  0  0  0
 20 35  1  0  0  0  0
 21 23  2  0  0  0  0
 21 40  1  0  0  0  0
 22 24  2  0  0  0  0
 22 41  1  0  0  0  0
 23 49  1  0  0  0  0
 24 42  1  0  0  0  0
 25 52  1  0  0  0  0
 26 71  1  0  0  0  0
 27 82  1  0  0  0  0
 28 83  1  0  0  0  0
 29 31  2  0  0  0  0
 29 82  1  0  0  0  0
 30 84  1  0  0  0  0
 31 85  1  0  0  0  0
 32 65  2  0  0  0  0
 33 66  1  0  0  0  0
 33 69  1  0  0  0  0
 34 72  1  0  0  0  0
 34 76  2  0  0  0  0
 35 70  1  0  0  0  0
 35 77  2  0  0  0  0
 36 50  1  0  0  0  0
 36 73  1  0  0  0  0
 36 78  2  0  0  0  0
 37 62  1  0  0  0  0
 37 67  1  0  0  0  0
 37 79  2  0  0  0  0
 38 63  1  0  0  0  0
 38 74  1  0  0  0  0
 38 80  2  0  0  0  0
 39 68  1  0  0  0  0
 39 71  1  0  0  0  0
 39 81  2  0  0  0  0
 40 43  1  0  0  0  0
 41 50  1  0  0  0  0
 42 67  1  0  0  0  0
 43 45  1  0  0  0  0
 44 46  1  0  0  0  0
 44 47  1  0  0  0  0
 45 49  1  0  0  0  0
 46 51  1  0  0  0  0
 47 68  1  0  0  0  0
 48 51  1  0  0  0  0
 48 68  1  0  0  0  0
 49 73  1  0  0  0  0
 50 67  1  0  0  0  0
 51 66  1  0  0  0  0
 53 63  1  0  0  0  0
 54 64  1  0  0  0  0
 55 64  1  0  0  0  0
 56 64  1  0  0  0  0
 57 75  1  0  0  0  0
 58 59  1  0  0  0  0
 58 60  1  0  0  0  0
 59 61  1  0  0  0  0
 60 72  1  0  0  0  0
 61 83  1  0  0  0  0
 62 64  1  0  0  0  0
 62 74  1  0  0  0  0
 63 75  1  0  0  0  0
 65 66  1  0  0  0  0
M  CHG  1  75   1
M  ISO  4  39 100  61 101  71 100  83 101
M  END
> <Batch ID>
0002

> <Smiles>
CNC(C)C(=O)NC(C(=O)N1Cc2cc([101O:1][101CH2:1]CCCNC(=O)c3ccc(C)cc3[100NH:0][100C:0](=O)N3CCCC(n4nc(-c5ccc(Oc6ccc(F)cc6F)cc5)c(C(N)=O)c4N)C3)ccc2CC1C(=O)NC1CCCc2ccccc21)C(C)(C)C

> <Shape>
0.214

> <Color>
0.062

> <Negative vol penalty>
0.000

$$$$

  -OEChem-04042320173D

 79 87  0     1  0  0  0  0  0999 V2000
  -26.2557  -33.1308   18.4077 C   0  0  0  0  0  0  0  0  0  0  0  0
  -26.8579  -31.9800   18.9060 C   0  0  0  0  0  0  0  0  0  0  0  0
  -23.1007   -9.8373   19.9341 C   0  0  0  0  0  0  0  0  0  0  0  0
  -23.8695   -9.8462   22.2244 C   0  0  0  0  0  0  0  0  0  0  0  0
  -25.3740  -33.0446   17.3311 C   0  0  0  0  0  0  0  0  0  0  0  0
  -26.5779  -30.7420   18.3287 C   0  0  0  0  0  0  0  0  0  0  0  0
  -30.4333  -26.0292   17.6725 C   0  0  0  0  0  0  0  0  0  0  0  0
  -29.1411  -18.7571   21.0185 C   0  0  0  0  0  0  0  0  0  0  0  0
  -31.3554  -18.5679   20.0707 C   0  0  0  0  0  0  0  0  0  0  0  0
  -28.8580  -19.8089   20.1472 C   0  0  0  0  0  0  0  0  0  0  0  0
  -31.0723  -19.6197   19.1994 C   0  0  0  0  0  0  0  0  0  0  0  0
  -22.3825   -8.6671   20.1797 C   0  0  0  0  0  0  0  0  0  0  0  0
  -23.1512   -8.6760   22.4701 C   0  0  0  0  0  0  0  0  0  0  0  0
  -30.6269  -24.8652   18.4152 C   0  0  0  0  0  0  0  0  0  0  0  0
  -19.9432   -7.8061   23.0802 C   0  0  0  0  0  0  0  0  0  0  0  0
  -19.1920   -7.7429   24.2538 C   0  0  0  0  0  0  0  0  0  0  0  0
  -29.1880  -23.6642   16.8965 C   0  0  0  0  0  0  0  0  0  0  0  0
  -20.4772   -5.8277   24.9732 C   0  0  0  0  0  0  0  0  0  0  0  0
  -23.8443  -10.4268   20.9564 C   0  0  0  0  0  0  0  0  0  0  0  0
  -24.1320  -12.9594   20.8509 C   0  0  0  0  0  0  0  0  0  0  0  0
  -25.0904  -31.8062   16.7341 C   0  0  0  0  0  0  0  0  0  0  0  0
  -29.6055  -26.0219   16.5406 C   0  0  0  0  0  0  0  0  0  0  0  0
  -25.6905  -30.6389   17.2439 C   0  0  0  0  0  0  0  0  0  0  0  0
  -28.9876  -24.8287   16.1397 C   0  0  0  0  0  0  0  0  0  0  0  0
  -30.3898  -18.1366   20.9803 C   0  0  0  0  0  0  0  0  0  0  0  0
  -29.8236  -20.2402   19.2377 C   0  0  0  0  0  0  0  0  0  0  0  0
  -22.4077   -8.0864   21.4477 C   0  0  0  0  0  0  0  0  0  0  0  0
  -30.0019  -23.6832   18.0289 C   0  0  0  0  0  0  0  0  0  0  0  0
  -20.9613   -6.8801   22.8531 C   0  0  0  0  0  0  0  0  0  0  0  0
  -19.4590   -6.7537   25.2003 C   0  0  0  0  0  0  0  0  0  0  0  0
  -21.2283   -5.8909   23.7996 C   0  0  0  0  0  0  0  0  0  0  0  0
  -24.5869  -11.6354   20.7032 C   0  0  0  0  0  0  0  0  0  0  0  0
  -25.2065  -13.7341   20.4881 C   0  0  0  0  0  0  0  0  0  0  0  0
  -22.8525  -13.4455   21.2780 C   0  0  0  0  0  0  0  0  0  0  0  0
  -26.9174  -27.5054   15.7179 C   0  0  0  0  0  0  0  0  0  0  0  0
  -27.4575  -26.0678   12.8607 C   0  0  0  0  0  0  0  0  0  0  0  0
  -28.9270  -23.5185   11.1320 C   0  0  0  0  0  0  0  0  0  0  0  0
  -30.6681  -14.8682   20.6614 C   0  0  0  0  0  0  0  0  0  0  0  0
  -24.0943  -31.7568   15.6028 C   0  0  0  0  0  0  0  0  0  0  0  0
  -29.4283  -27.2796   15.7349 C   0  0  0  0  0  0  0  0  0  0  0  0
  -28.1054  -24.7632   14.9207 C   0  0  0  0  0  0  0  0  0  0  0  0
  -24.1397  -30.4546   14.8075 C   0  0  0  0  0  0  0  0  0  0  0  0
  -29.5717  -12.4749   18.2642 C   0  0  0  0  0  0  0  0  0  0  0  0
  -24.1751  -29.2550   15.7492 C   0  0  0  0  0  0  0  0  0  0  0  0
  -28.1426  -12.1480   18.7009 C   0  0  0  0  0  0  0  0  0  0  0  0
  -30.4888  -12.7077   19.4629 C   0  0  0  0  0  0  0  0  0  0  0  0
  -28.5776  -13.3896   20.8614 C   0  0  0  0  0  0  0  0  0  0  0  0
  -25.4311  -29.2809   16.6286 C   0  0  1  0  0  0  0  0  0  0  0  0
  -28.1542  -27.2771   14.8958 C   0  0  1  0  0  0  0  0  0  0  0  0
  -27.6026  -13.2017   19.6865 C   0  0  2  0  0  0  0  0  0  0  0  0
  -29.1577  -22.5866    8.8134 C   0  0  0  0  0  0  0  0  0  0  0  0
  -24.6287  -24.9379   13.0360 C   0  0  0  0  0  0  0  0  0  0  0  0
  -25.2453  -23.3033   11.2426 C   0  0  0  0  0  0  0  0  0  0  0  0
  -25.2883  -25.7512   10.7649 C   0  0  0  0  0  0  0  0  0  0  0  0
  -31.8638  -23.8847   11.1519 C   0  0  0  0  0  0  0  0  0  0  0  0
  -30.6933  -17.0120   21.9115 C   0  0  0  0  0  0  0  0  0  0  0  0
  -29.5177  -21.3705   18.2996 C   0  0  0  0  0  0  0  0  0  1  0  0
  -27.0774  -24.7449   12.2408 C   0  0  1  0  0  0  0  0  0  0  0  0
  -29.7581  -23.5105    9.8616 C   0  0  2  0  0  0  0  0  0  0  0  0
  -25.5749  -24.6857   11.8452 C   0  0  0  0  0  0  0  0  0  0  0  0
  -25.8518  -11.5690   20.2794 N   0  0  0  0  0  0  0  0  0  0  0  0
  -26.2008  -12.8611   20.1576 N   0  0  0  0  0  0  0  0  0  0  0  0
  -27.9582  -26.0208   14.1695 N   0  0  0  0  0  0  0  0  0  0  0  0
  -29.9201  -13.7188   20.3574 N   0  0  0  0  0  0  0  0  0  0  0  0
  -25.3883  -15.0702   20.4226 N   0  0  0  0  0  0  0  0  0  0  0  0
  -21.8615  -12.5130   21.6135 N   0  0  0  0  0  0  0  0  0  0  0  0
  -26.5846  -28.8373   15.8756 N   0  0  0  0  0  0  0  0  0  0  0  0
  -27.9970  -24.5365   11.1275 N   0  0  0  0  0  0  0  0  0  0  0  0
  -30.0528  -15.7789   21.5116 N   0  0  0  0  0  0  0  0  0  0  0  0
  -31.1456  -23.0516   10.1533 N   0  3  0  0  0  0  0  0  0  0  0  0
  -22.5905  -14.6704   21.3440 O   0  0  0  0  0  0  0  0  0  0  0  0
  -26.3092  -26.5444   16.1741 O   0  0  0  0  0  0  0  0  0  0  0  0
  -27.3221  -27.1040   12.2052 O   0  0  0  0  0  0  0  0  0  0  0  0
  -29.0845  -22.7010   12.0361 O   0  0  0  0  0  0  0  0  0  0  0  0
  -31.7982  -15.0706   20.2045 O   0  0  0  0  0  0  0  0  0  0  0  0
  -21.7068   -6.9447   21.6878 O   0  0  0  0  0  0  0  0  0  0  0  0
  -30.1886  -22.5458   18.7524 O   0  0  0  0  0  0  0  0  0  1  0  0
  -18.7385   -6.6940   26.3279 F   0  0  0  0  0  0  0  0  0  0  0  0
  -22.2060   -4.9993   23.5875 F   0  0  0  0  0  0  0  0  0  0  0  0
  1  2  1  0  0  0  0
  1  5  2  0  0  0  0
  2  6  2  0  0  0  0
  3 12  2  0  0  0  0
  3 19  1  0  0  0  0
  4 13  1  0  0  0  0
  4 19  2  0  0  0  0
  5 21  1  0  0  0  0
  6 23  1  0  0  0  0
  7 14  2  0  0  0  0
  7 22  1  0  0  0  0
  8 10  2  0  0  0  0
  8 25  1  0  0  0  0
  9 11  1  0  0  0  0
  9 25  2  0  0  0  0
 10 26  1  0  0  0  0
 11 26  2  0  0  0  0
 12 27  1  0  0  0  0
 13 27  2  0  0  0  0
 14 28  1  0  0  0  0
 15 16  2  0  0  0  0
 15 29  1  0  0  0  0
 16 30  1  0  0  0  0
 17 24  1  0  0  0  0
 17 28  2  0  0  0  0
 18 30  2  0  0  0  0
 18 31  1  0  0  0  0
 19 32  1  0  0  0  0
 20 32  1  0  0  0  0
 20 33  2  0  0  0  0
 20 34  1  0  0  0  0
 21 23  2  0  0  0  0
 21 39  1  0  0  0  0
 22 24  2  0  0  0  0
 22 40  1  0  0  0  0
 23 48  1  0  0  0  0
 24 41  1  0  0  0  0
 25 56  1  0  0  0  0
 26 57  1  0  0  0  0
 27 76  1  0  0  0  0
 28 77  1  0  0  0  0
 29 31  2  0  0  0  0
 29 76  1  0  0  0  0
 30 78  1  0  0  0  0
 31 79  1  0  0  0  0
 32 61  2  0  0  0  0
 33 62  1  0  0  0  0
 33 65  1  0  0  0  0
 34 66  1  0  0  0  0
 34 71  2  0  0  0  0
 35 49  1  0  0  0  0
 35 67  1  0  0  0  0
 35 72  2  0  0  0  0
 36 58  1  0  0  0  0
 36 63  1  0  0  0  0
 36 73  2  0  0  0  0
 37 59  1  0  0  0  0
 37 68  1  0  0  0  0
 37 74  2  0  0  0  0
 38 64  1  0  0  0  0
 38 69  1  0  0  0  0
 38 75  2  0  0  0  0
 39 42  1  0  0  0  0
 40 49  1  0  0  0  0
 41 63  1  0  0  0  0
 42 44  1  0  0  0  0
 43 45  1  0  0  0  0
 43 46  1  0  0  0  0
 44 48  1  0  0  0  0
 45 50  1  0  0  0  0
 46 64  1  0  0  0  0
 47 50  1  0  0  0  0
 47 64  1  0  0  0  0
 48 67  1  0  0  0  0
 49 63  1  0  0  0  0
 50 62  1  0  0  0  0
 51 59  1  0  0  0  0
 52 60  1  0  0  0  0
 53 60  1  0  0  0  0
 54 60  1  0  0  0  0
 55 70  1  0  0  0  0
 56 69  1  0  0  0  0
 57 77  1  0  0  0  0
 58 60  1  0  0  0  0
 58 68  1  0  0  0  0
 59 70  1  0  0  0  0
 61 62  1  0  0  0  0
M  CHG  1  70   1
M  ISO  4  38 100  57 101  69 100  77 101
M  END
> <Batch ID>
0002

> <Smiles>
CNC(C)C(=O)NC(C(=O)N1Cc2cc([101O:1][101CH2:1]c3ccc(C[100NH:0][100C:0](=O)N4CCCC(n5nc(-c6ccc(Oc7ccc(F)cc7F)cc6)c(C(N)=O)c5N)C4)cc3)ccc2CC1C(=O)NC1CCCc2ccccc21)C(C)(C)C

> <Shape>
0.232

> <Color>
0.203

> <Negative vol penalty>
0.000

$$$$

  -OEChem-04042320173D

 80 88  0     1  0  0  0  0  0999 V2000
  -29.2599  -11.3166   18.9410 C   0  0  0  0  0  0  0  0  0  0  0  0
  -29.2866  -12.7018   18.8145 C   0  0  0  0  0  0  0  0  0  0  0  0
  -29.8223  -24.0549   17.0858 C   0  0  0  0  0  0  0  0  0  0  0  0
  -20.6210  -24.7759   23.5912 C   0  0  0  0  0  0  0  0  0  0  0  0
  -20.7299  -26.2685   21.6946 C   0  0  0  0  0  0  0  0  0  0  0  0
  -28.1122  -10.6831   19.4156 C   0  0  0  0  0  0  0  0  0  0  0  0
  -28.1650  -13.4542   19.1614 C   0  0  0  0  0  0  0  0  0  0  0  0
  -29.3429  -17.5481   21.8995 C   0  0  0  0  0  0  0  0  0  0  0  0
  -30.7069  -24.9051   17.7494 C   0  0  0  0  0  0  0  0  0  0  0  0
  -29.1446  -23.0627   17.7942 C   0  0  0  0  0  0  0  0  0  0  0  0
  -19.4138  -25.3570   23.9793 C   0  0  0  0  0  0  0  0  0  0  0  0
  -19.5228  -26.8497   22.0826 C   0  0  0  0  0  0  0  0  0  0  0  0
  -29.8584  -18.6465   21.2130 C   0  0  0  0  0  0  0  0  0  0  0  0
  -18.4649  -29.1062   24.3673 C   0  0  0  0  0  0  0  0  0  0  0  0
  -18.3798  -30.4983   24.3470 C   0  0  0  0  0  0  0  0  0  0  0  0
  -27.6851  -19.6921   21.2660 C   0  0  0  0  0  0  0  0  0  0  0  0
  -30.2362  -23.7707   19.8300 C   0  0  0  0  0  0  0  0  0  0  0  0
  -16.5675  -30.3643   22.7549 C   0  0  0  0  0  0  0  0  0  0  0  0
  -21.2791  -25.2316   22.4489 C   0  0  0  0  0  0  0  0  0  0  0  0
  -22.7027  -23.5297   21.1902 C   0  0  0  0  0  0  0  0  0  0  0  0
  -26.9793  -11.4288   19.7776 C   0  0  0  0  0  0  0  0  0  0  0  0
  -27.9898  -17.5085   22.2655 C   0  0  0  0  0  0  0  0  0  0  0  0
  -27.0005  -12.8299   19.6400 C   0  0  0  0  0  0  0  0  0  0  0  0
  -27.1555  -18.5931   21.9594 C   0  0  0  0  0  0  0  0  0  0  0  0
  -30.9138  -24.7629   19.1215 C   0  0  0  0  0  0  0  0  0  0  0  0
  -29.3516  -22.9205   19.1663 C   0  0  0  0  0  0  0  0  0  0  0  0
  -18.8647  -26.3939   23.2250 C   0  0  0  0  0  0  0  0  0  0  0  0
  -29.0289  -19.7175   20.8936 C   0  0  0  0  0  0  0  0  0  0  0  0
  -17.6014  -28.3431   23.5813 C   0  0  0  0  0  0  0  0  0  0  0  0
  -17.4311  -31.1273   23.5408 C   0  0  0  0  0  0  0  0  0  0  0  0
  -16.6527  -28.9722   22.7752 C   0  0  0  0  0  0  0  0  0  0  0  0
  -22.5264  -24.6320   22.0478 C   0  0  0  0  0  0  0  0  0  0  0  0
  -24.0638  -23.3556   21.1303 C   0  0  0  0  0  0  0  0  0  0  0  0
  -21.7238  -22.7343   20.5085 C   0  0  0  0  0  0  0  0  0  0  0  0
  -25.5301  -15.6217   21.5626 C   0  0  0  0  0  0  0  0  0  0  0  0
  -24.0152  -17.4174   23.7993 C   0  0  0  0  0  0  0  0  0  0  0  0
  -23.8309  -20.3647   25.5101 C   0  0  0  0  0  0  0  0  0  0  0  0
  -28.8358  -26.4559   20.9631 C   0  0  0  0  0  0  0  0  0  0  0  0
  -25.7453  -10.6958   20.2409 C   0  0  0  0  0  0  0  0  0  0  0  0
  -27.4552  -16.3281   23.0293 C   0  0  0  0  0  0  0  0  0  0  0  0
  -25.7003  -18.6085   22.3477 C   0  0  0  0  0  0  0  0  0  0  0  0
  -24.7297  -11.5950   20.9411 C   0  0  0  0  0  0  0  0  0  0  0  0
  -27.8779  -24.6970   23.9775 C   0  0  0  0  0  0  0  0  0  0  0  0
  -24.5126  -12.8770   20.1436 C   0  0  0  0  0  0  0  0  0  0  0  0
  -26.4052  -24.3926   23.6970 C   0  0  0  0  0  0  0  0  0  0  0  0
  -28.2713  -26.0690   23.4379 C   0  0  0  0  0  0  0  0  0  0  0  0
  -26.5235  -25.9589   21.7039 C   0  0  0  0  0  0  0  0  0  0  0  0
  -25.8125  -13.6825   20.0295 C   0  0  1  0  0  0  0  0  0  0  0  0
  -25.9436  -16.1676   22.9000 C   0  0  1  0  0  0  0  0  0  0  0  0
  -26.0694  -24.5759   22.2051 C   0  0  2  0  0  0  0  0  0  0  0  0
  -22.4623  -21.5525   27.2460 C   0  0  0  0  0  0  0  0  0  0  0  0
  -21.8471  -17.9529   21.7201 C   0  0  0  0  0  0  0  0  0  0  0  0
  -21.0457  -19.8484   23.1459 C   0  0  0  0  0  0  0  0  0  0  0  0
  -20.9927  -17.5163   24.0296 C   0  0  0  0  0  0  0  0  0  0  0  0
  -26.1381  -20.5758   27.3516 C   0  0  0  0  0  0  0  0  0  0  0  0
  -31.8586  -25.6733   19.8306 C   0  0  0  0  0  0  0  0  0  0  0  0
  -28.6231  -21.8527   19.9282 C   0  0  0  0  0  0  0  0  0  1  0  0
  -31.1957  -26.9453   20.3727 C   0  0  0  0  0  0  0  0  0  0  0  0
  -23.2143  -18.6970   23.7800 C   0  0  1  0  0  0  0  0  0  0  0  0
  -23.6682  -20.6619   26.9898 C   0  0  2  0  0  0  0  0  0  0  0  0
  -21.8019  -18.5028   23.1597 C   0  0  0  0  0  0  0  0  0  0  0  0
  -23.6830  -25.1235   22.5004 N   0  0  0  0  0  0  0  0  0  0  0  0
  -24.5991  -24.3262   21.9250 N   0  0  0  0  0  0  0  0  0  0  0  0
  -25.2233  -17.4286   23.0877 N   0  0  0  0  0  0  0  0  0  0  0  0
  -27.9423  -26.1716   22.0091 N   0  0  0  0  0  0  0  0  0  0  0  0
  -24.8430  -22.4684   20.4759 N   0  0  0  0  0  0  0  0  0  0  0  0
  -20.3691  -23.0502   20.6802 N   0  0  0  0  0  0  0  0  0  0  0  0
  -26.0792  -14.3893   21.2638 N   0  0  0  0  0  0  0  0  0  0  0  0
  -23.2014  -19.1911   25.1526 N   0  0  0  0  0  0  0  0  0  0  0  0
  -30.1597  -26.6509   21.3376 N   0  0  0  0  0  0  0  0  0  0  0  0
  -24.8808  -21.3498   27.5164 N   0  3  0  0  0  0  0  0  0  0  0  0
  -22.0401  -21.7618   19.7821 O   0  0  0  0  0  0  0  0  0  0  0  0
  -24.7682  -16.2699   20.8548 O   0  0  0  0  0  0  0  0  0  0  0  0
  -23.5882  -16.4462   24.4285 O   0  0  0  0  0  0  0  0  0  0  0  0
  -24.4511  -21.1018   24.7468 O   0  0  0  0  0  0  0  0  0  0  0  0
  -28.4811  -26.5256   19.7814 O   0  0  0  0  0  0  0  0  0  0  0  0
  -17.6866  -26.9611   23.6032 O   0  0  0  0  0  0  0  0  0  0  0  0
  -29.5294  -20.7906   20.2229 O   0  0  0  0  0  0  0  0  0  1  0  0
  -17.3484  -32.4641   23.5226 F   0  0  0  0  0  0  0  0  0  0  0  0
  -15.8196  -28.2443   22.0189 F   0  0  0  0  0  0  0  0  0  0  0  0
  1  2  1  0  0  0  0
  1  6  2  0  0  0  0
  2  7  2  0  0  0  0
  3  9  1  0  0  0  0
  3 10  2  0  0  0  0
  4 11  2  0  0  0  0
  4 19  1  0  0  0  0
  5 12  1  0  0  0  0
  5 19  2  0  0  0  0
  6 21  1  0  0  0  0
  7 23  1  0  0  0  0
  8 13  2  0  0  0  0
  8 22  1  0  0  0  0
  9 25  2  0  0  0  0
 10 26  1  0  0  0  0
 11 27  1  0  0  0  0
 12 27  2  0  0  0  0
 13 28  1  0  0  0  0
 14 15  2  0  0  0  0
 14 29  1  0  0  0  0
 15 30  1  0  0  0  0
 16 24  1  0  0  0  0
 16 28  2  0  0  0  0
 17 25  1  0  0  0  0
 17 26  2  0  0  0  0
 18 30  2  0  0  0  0
 18 31  1  0  0  0  0
 19 32  1  0  0  0  0
 20 32  1  0  0  0  0
 20 33  2  0  0  0  0
 20 34  1  0  0  0  0
 21 23  2  0  0  0  0
 21 39  1  0  0  0  0
 22 24  2  0  0  0  0
 22 40  1  0  0  0  0
 23 48  1  0  0  0  0
 24 41  1  0  0  0  0
 25 56  1  0  0  0  0
 26 57  1  0  0  0  0
 27 77  1  0  0  0  0
 28 78  1  0  0  0  0
 29 31  2  0  0  0  0
 29 77  1  0  0  0  0
 30 79  1  0  0  0  0
 31 80  1  0  0  0  0
 32 62  2  0  0  0  0
 33 63  1  0  0  0  0
 33 66  1  0  0  0  0
 34 67  1  0  0  0  0
 34 72  2  0  0  0  0
 35 49  1  0  0  0  0
 35 68  1  0  0  0  0
 35 73  2  0  0  0  0
 36 59  1  0  0  0  0
 36 64  1  0  0  0  0
 36 74  2  0  0  0  0
 37 60  1  0  0  0  0
 37 69  1  0  0  0  0
 37 75  2  0  0  0  0
 38 65  1  0  0  0  0
 38 70  1  0  0  0  0
 38 76  2  0  0  0  0
 39 42  1  0  0  0  0
 40 49  1  0  0  0  0
 41 64  1  0  0  0  0
 42 44  1  0  0  0  0
 43 45  1  0  0  0  0
 43 46  1  0  0  0  0
 44 48  1  0  0  0  0
 45 50  1  0  0  0  0
 46 65  1  0  0  0  0
 47 50  1  0  0  0  0
 47 65  1  0  0  0  0
 48 68  1  0  0  0  0
 49 64  1  0  0  0  0
 50 63  1  0  0  0  0
 51 60  1  0  0  0  0
 52 61  1  0  0  0  0
 53 61  1  0  0  0  0
 54 61  1  0  0  0  0
 55 71  1  0  0  0  0
 56 58  1  0  0  0  0
 57 78  1  0  0  0  0
 58 70  1  0  0  0  0
 59 61  1  0  0  0  0
 59 69  1  0  0  0  0
 60 71  1  0  0  0  0
 62 63  1  0  0  0  0
M  CHG  1  71   1
M  ISO  4  38 100  57 101  70 100  78 101
M  END
> <Batch ID>
0002

> <Smiles>
CNC(C)C(=O)NC(C(=O)N1Cc2cc([101O:1][101CH2:1]c3cccc(CC[100NH:0][100C:0](=O)N4CCCC(n5nc(-c6ccc(Oc7ccc(F)cc7F)cc6)c(C(N)=O)c5N)C4)c3)ccc2CC1C(=O)NC1CCCc2ccccc21)C(C)(C)C

> <Shape>
0.218

> <Color>
0.070

> <Negative vol penalty>
0.000

$$$$

  -OEChem-04042320173D

 91100  0     1  0  0  0  0  0999 V2000
  -18.7526  -32.7971   20.3666 C   0  0  0  0  0  0  0  0  0  0  0  0
  -20.0674  -32.7242   20.8125 C   0  0  0  0  0  0  0  0  0  0  0  0
  -32.5182  -24.2187   18.3162 C   0  0  0  0  0  0  0  0  0  0  0  0
  -24.4995  -14.0951   21.3924 C   0  0  0  0  0  0  0  0  0  0  0  0
  -26.8636  -13.7193   21.0658 C   0  0  0  0  0  0  0  0  0  0  0  0
  -17.8310  -31.8311   20.7648 C   0  0  0  0  0  0  0  0  0  0  0  0
  -20.4640  -31.6786   21.6470 C   0  0  0  0  0  0  0  0  0  0  0  0
  -24.6104  -25.1549   21.3215 C   0  0  0  0  0  0  0  0  0  0  0  0
  -31.5858  -24.6998   17.3971 C   0  0  0  0  0  0  0  0  0  0  0  0
  -32.4510  -22.8946   18.7497 C   0  0  0  0  0  0  0  0  0  0  0  0
  -24.2243  -12.8445   20.8395 C   0  0  0  0  0  0  0  0  0  0  0  0
  -26.5884  -12.4686   20.5129 C   0  0  0  0  0  0  0  0  0  0  0  0
  -25.2189  -24.6994   20.1517 C   0  0  0  0  0  0  0  0  0  0  0  0
  -24.3048   -9.6118   21.8275 C   0  0  0  0  0  0  0  0  0  0  0  0
  -23.3759   -8.8035   22.4828 C   0  0  0  0  0  0  0  0  0  0  0  0
  -24.7976  -26.8308   19.0898 C   0  0  0  0  0  0  0  0  0  0  0  0
  -30.5187  -22.5328   17.3452 C   0  0  0  0  0  0  0  0  0  0  0  0
  -21.9916   -8.7891   20.5028 C   0  0  0  0  0  0  0  0  0  0  0  0
  -25.8192  -14.5326   21.5055 C   0  0  0  0  0  0  0  0  0  0  0  0
  -26.3389  -16.1222   23.4318 C   0  0  0  0  0  0  0  0  0  0  0  0
  -18.2143  -30.7804   21.6147 C   0  0  0  0  0  0  0  0  0  0  0  0
  -24.1062  -26.4569   21.3850 C   0  0  0  0  0  0  0  0  0  0  0  0
  -19.5544  -30.6805   22.0407 C   0  0  0  0  0  0  0  0  0  0  0  0
  -24.1981  -27.2968   20.2629 C   0  0  0  0  0  0  0  0  0  0  0  0
  -30.5860  -23.8569   16.9116 C   0  0  0  0  0  0  0  0  0  0  0  0
  -31.4512  -22.0517   18.2643 C   0  0  0  0  0  0  0  0  0  0  0  0
  -25.2687  -12.0312   20.3997 C   0  0  0  0  0  0  0  0  0  0  0  0
  -25.3120  -25.5352   19.0386 C   0  0  0  0  0  0  0  0  0  0  0  0
  -24.0770  -10.0088   20.5098 C   0  0  0  0  0  0  0  0  0  0  0  0
  -22.2193   -8.3921   21.8204 C   0  0  0  0  0  0  0  0  0  0  0  0
  -22.9205   -9.5974   19.8475 C   0  0  0  0  0  0  0  0  0  0  0  0
  -26.1041  -15.8246   22.0760 C   0  0  0  0  0  0  0  0  0  0  0  0
  -26.5581  -17.4779   23.4528 C   0  0  0  0  0  0  0  0  0  0  0  0
  -25.1742  -22.9408   14.3731 C   0  0  0  0  0  0  0  0  0  0  0  0
  -26.3572  -15.2510   24.5704 C   0  0  0  0  0  0  0  0  0  0  0  0
  -22.3945  -29.0838   23.4455 C   0  0  0  0  0  0  0  0  0  0  0  0
  -25.6309  -22.9887   16.8890 C   0  0  0  0  0  0  0  0  0  0  0  0
  -24.5909  -30.5014   21.8403 C   0  0  0  0  0  0  0  0  0  0  0  0
  -27.9152  -23.7557   17.6648 C   0  0  0  0  0  0  0  0  0  0  0  0
  -27.0824  -30.3258   24.1639 C   0  0  0  0  0  0  0  0  0  0  0  0
  -29.1157  -21.2842   19.5164 C   0  0  0  0  0  0  0  0  0  0  0  0
  -17.1778  -29.7576   22.0082 C   0  0  0  0  0  0  0  0  0  0  0  0
  -23.3878  -26.9692   22.6037 C   0  0  0  0  0  0  0  0  0  0  0  0
  -23.6109  -28.6780   20.3655 C   0  0  0  0  0  0  0  0  0  0  0  0
  -25.7451  -23.7326   13.2210 C   0  0  0  0  0  0  0  0  0  0  0  0
  -17.5774  -28.9492   23.2383 C   0  0  0  0  0  0  0  0  0  0  0  0
  -26.2968  -24.9806   13.8853 C   0  0  0  0  0  0  0  0  0  0  0  0
  -25.4935  -21.0569   20.1224 C   0  0  0  0  0  0  0  0  0  0  0  0
  -18.9932  -28.4174   23.0733 C   0  0  0  0  0  0  0  0  0  0  0  0
  -25.2904  -19.8303   21.0138 C   0  0  0  0  0  0  0  0  0  0  0  0
  -26.7091  -24.4973   15.2562 C   0  0  0  0  0  0  0  0  0  0  0  0
  -26.8311  -21.7457   20.3562 C   0  0  0  0  0  0  0  0  0  0  0  0
  -27.7801  -19.4483   20.6602 C   0  0  0  0  0  0  0  0  0  0  0  0
  -20.0012  -29.5694   22.9735 C   0  0  1  0  0  0  0  0  0  0  0  0
  -23.6321  -28.4666   22.8634 C   0  0  1  0  0  0  0  0  0  0  0  0
  -26.5985  -19.3095   21.6325 C   0  0  2  0  0  0  0  0  0  0  0  0
  -27.8907  -27.9885   23.7388 C   0  0  0  0  0  0  0  0  0  0  0  0
  -23.3225  -32.5519   24.5688 C   0  0  0  0  0  0  0  0  0  0  0  0
  -23.5817  -30.1753   25.3124 C   0  0  0  0  0  0  0  0  0  0  0  0
  -22.3404  -30.6949   23.2119 C   0  0  0  0  0  0  0  0  0  0  0  0
  -28.1139  -28.7542   27.1777 C   0  0  0  0  0  0  0  0  0  0  0  0
  -29.5837  -24.3751   15.9213 C   0  0  0  0  0  0  0  0  0  0  0  0
  -31.3790  -20.6360   18.7285 C   0  0  0  0  0  0  0  0  0  0  0  0
  -26.4202  -23.7526   17.9198 C   0  0  1  0  0  0  0  0  0  1  0  0
  -24.8563  -30.9409   23.2580 C   0  0  1  0  0  0  0  0  0  0  0  0
  -27.8559  -29.1461   24.7244 C   0  0  2  0  0  0  0  0  0  0  0  0
  -23.5481  -31.1066   24.0818 C   0  0  0  0  0  0  0  0  0  0  0  0
  -26.1680  -16.9045   21.2926 N   0  0  0  0  0  0  0  0  0  0  0  0
  -26.4454  -17.8938   22.1588 N   0  0  0  0  0  0  0  0  0  0  0  0
  -25.7779  -23.4282   15.5643 N   0  0  0  0  0  0  0  0  0  0  0  0
  -23.9456  -29.2706   21.6699 N   0  0  0  0  0  0  0  0  0  0  0  0
  -27.9507  -20.8215   20.1585 N   0  0  0  0  0  0  0  0  0  0  0  0
  -26.8344  -18.3429   24.4518 N   0  0  0  0  0  0  0  0  0  0  0  0
  -26.1118  -13.8856   24.3709 N   0  0  0  0  0  0  0  0  0  0  0  0
  -21.2949  -29.0346   22.6102 N   0  0  0  0  0  0  0  0  0  0  0  0
  -28.2303  -24.2736   16.4180 N   0  0  0  0  0  0  0  0  0  0  0  0
  -25.7954  -29.9739   23.8161 N   0  0  0  0  0  0  0  0  0  0  0  0
  -30.1204  -20.3318   19.3698 N   0  0  0  0  0  0  0  0  0  0  0  0
  -27.2277  -28.6683   25.9885 N   0  3  0  0  0  0  0  0  0  0  0  0
  -24.3728  -22.0279   14.2369 O   0  0  0  0  0  0  0  0  0  0  0  0
  -26.5682  -15.6734   25.7325 O   0  0  0  0  0  0  0  0  0  0  0  0
  -22.4328  -29.5681   24.5706 O   0  0  0  0  0  0  0  0  0  0  0  0
  -24.9058  -22.0517   17.2278 O   0  0  0  0  0  0  0  0  0  0  0  0
  -24.9500  -31.2252   20.9073 O   0  0  0  0  0  0  0  0  0  0  0  0
  -28.7251  -23.3286   18.4841 O   0  0  0  0  0  0  0  0  0  0  0  0
  -27.5698  -31.4483   24.0496 O   0  0  0  0  0  0  0  0  0  0  0  0
  -29.2441  -22.4419   19.1066 O   0  0  0  0  0  0  0  0  0  0  0  0
  -25.0006  -10.8106   19.8604 O   0  0  0  0  0  0  0  0  0  0  0  0
  -25.9114  -25.0857   17.9013 O   0  0  0  0  0  0  0  0  0  1  0  0
  -21.3281   -7.6147   22.4493 F   0  0  0  0  0  0  0  0  0  0  0  0
  -22.6968   -9.9747   18.5812 F   0  0  0  0  0  0  0  0  0  0  0  0
  1  2  1  0  0  0  0
  1  6  2  0  0  0  0
  2  7  2  0  0  0  0
  3  9  2  0  0  0  0
  3 10  1  0  0  0  0
  4 11  2  0  0  0  0
  4 19  1  0  0  0  0
  5 12  1  0  0  0  0
  5 19  2  0  0  0  0
  6 21  1  0  0  0  0
  7 23  1  0  0  0  0
  8 13  2  0  0  0  0
  8 22  1  0  0  0  0
  9 25  1  0  0  0  0
 10 26  2  0  0  0  0
 11 27  1  0  0  0  0
 12 27  2  0  0  0  0
 13 28  1  0  0  0  0
 14 15  2  0  0  0  0
 14 29  1  0  0  0  0
 15 30  1  0  0  0  0
 16 24  1  0  0  0  0
 16 28  2  0  0  0  0
 17 25  2  0  0  0  0
 17 26  1  0  0  0  0
 18 30  2  0  0  0  0
 18 31  1  0  0  0  0
 19 32  1  0  0  0  0
 20 32  1  0  0  0  0
 20 33  2  0  0  0  0
 20 35  1  0  0  0  0
 21 23  2  0  0  0  0
 21 42  1  0  0  0  0
 22 24  2  0  0  0  0
 22 43  1  0  0  0  0
 23 54  1  0  0  0  0
 24 44  1  0  0  0  0
 25 62  1  0  0  0  0
 26 63  1  0  0  0  0
 27 88  1  0  0  0  0
 28 89  1  0  0  0  0
 29 31  2  0  0  0  0
 29 88  1  0  0  0  0
 30 90  1  0  0  0  0
 31 91  1  0  0  0  0
 32 68  2  0  0  0  0
 33 69  1  0  0  0  0
 33 73  1  0  0  0  0
 34 45  1  0  0  0  0
 34 70  1  0  0  0  0
 34 80  2  0  0  0  0
 35 74  1  0  0  0  0
 35 81  2  0  0  0  0
 36 55  1  0  0  0  0
 36 75  1  0  0  0  0
 36 82  2  0  0  0  0
 37 64  1  0  0  0  0
 37 70  1  0  0  0  0
 37 83  2  0  0  0  0
 38 65  1  0  0  0  0
 38 71  1  0  0  0  0
 38 84  2  0  0  0  0
 39 64  1  0  0  0  0
 39 76  1  0  0  0  0
 39 85  2  0  0  0  0
 40 66  1  0  0  0  0
 40 77  1  0  0  0  0
 40 86  2  0  0  0  0
 41 72  1  0  0  0  0
 41 78  1  0  0  0  0
 41 87  2  0  0  0  0
 42 46  1  0  0  0  0
 43 55  1  0  0  0  0
 44 71  1  0  0  0  0
 45 47  1  0  0  0  0
 46 49  1  0  0  0  0
 47 51  1  0  0  0  0
 48 50  1  0  0  0  0
 48 52  1  0  0  0  0
 49 54  1  0  0  0  0
 50 56  1  0  0  0  0
 51 70  1  0  0  0  0
 52 72  1  0  0  0  0
 53 56  1  0  0  0  0
 53 72  1  0  0  0  0
 54 75  1  0  0  0  0
 55 71  1  0  0  0  0
 56 69  1  0  0  0  0
 57 66  1  0  0  0  0
 58 67  1  0  0  0  0
 59 67  1  0  0  0  0
 60 67  1  0  0  0  0
 61 79  1  0  0  0  0
 62 76  1  0  0  0  0
 63 78  1  0  0  0  0
 64 89  1  0  0  0  0
 65 67  1  0  0  0  0
 65 77  1  0  0  0  0
 66 79  1  0  0  0  0
 68 69  1  0  0  0  0
M  CHG  1  79   1
M  ISO  4  41 100  64 101  78 100  89 101
M  END
> <Batch ID>
0002

> <Smiles>
CNC(C)C(=O)NC(C(=O)N1Cc2cc([101O:1][101CH:1](C(=O)NCc3cccc(C[100NH:0][100C:0](=O)N4CCCC(n5nc(-c6ccc(Oc7ccc(F)cc7F)cc6)c(C(N)=O)c5N)C4)c3)C(=O)N3CCCC3=O)ccc2CC1C(=O)NC1CCCc2ccccc21)C(C)(C)C

> <Shape>
0.238

> <Color>
0.074

> <Negative vol penalty>
0.000

$$$$

  -OEChem-04042320173D

 78 86  0     1  0  0  0  0  0999 V2000
  -26.0607  -12.8913   36.6857 C   0  0  0  0  0  0  0  0  0  0  0  0
  -26.9296  -13.5081   35.7912 C   0  0  0  0  0  0  0  0  0  0  0  0
  -23.1906   -9.8191   19.9320 C   0  0  0  0  0  0  0  0  0  0  0  0
  -23.5684   -9.9997   22.3114 C   0  0  0  0  0  0  0  0  0  0  0  0
  -24.9842  -12.1451   36.2080 C   0  0  0  0  0  0  0  0  0  0  0  0
  -26.7231  -13.3780   34.4183 C   0  0  0  0  0  0  0  0  0  0  0  0
  -27.8407  -17.5868   30.1123 C   0  0  0  0  0  0  0  0  0  0  0  0
  -30.8347  -14.0187   26.1630 C   0  0  0  0  0  0  0  0  0  0  0  0
  -30.9584  -15.4265   24.2035 C   0  0  0  0  0  0  0  0  0  0  0  0
  -22.4244   -8.6724   20.1406 C   0  0  0  0  0  0  0  0  0  0  0  0
  -22.8022   -8.8529   22.5201 C   0  0  0  0  0  0  0  0  0  0  0  0
  -28.9094  -17.7716   29.2362 C   0  0  0  0  0  0  0  0  0  0  0  0
  -30.4265  -15.1140   26.9241 C   0  0  0  0  0  0  0  0  0  0  0  0
  -30.5503  -16.5218   24.9647 C   0  0  0  0  0  0  0  0  0  0  0  0
  -23.2037   -5.5063   22.2563 C   0  0  0  0  0  0  0  0  0  0  0  0
  -23.7020   -4.5451   23.1356 C   0  0  0  0  0  0  0  0  0  0  0  0
  -27.6939  -16.5971   27.5151 C   0  0  0  0  0  0  0  0  0  0  0  0
  -21.7451   -4.8049   24.5286 C   0  0  0  0  0  0  0  0  0  0  0  0
  -23.7626  -10.4828   21.0174 C   0  0  0  0  0  0  0  0  0  0  0  0
  -24.1011  -12.9994   20.7735 C   0  0  0  0  0  0  0  0  0  0  0  0
  -24.7588  -12.0138   34.8286 C   0  0  0  0  0  0  0  0  0  0  0  0
  -26.6930  -16.8951   29.6990 C   0  0  0  0  0  0  0  0  0  0  0  0
  -25.6433  -12.6282   33.9217 C   0  0  0  0  0  0  0  0  0  0  0  0
  -26.6109  -16.4071   28.3870 C   0  0  0  0  0  0  0  0  0  0  0  0
  -31.1006  -14.1749   24.8027 C   0  0  0  0  0  0  0  0  0  0  0  0
  -22.2301   -8.1893   21.4347 C   0  0  0  0  0  0  0  0  0  0  0  0
  -30.2844  -16.3655   26.3250 C   0  0  0  0  0  0  0  0  0  1  0  0
  -28.8373  -17.2742   27.9383 C   0  0  0  0  0  0  0  0  0  0  0  0
  -21.9761   -6.1169   22.5131 C   0  0  0  0  0  0  0  0  0  0  0  0
  -22.9727   -4.1943   24.2718 C   0  0  0  0  0  0  0  0  0  0  0  0
  -21.2468   -5.7662   23.6492 C   0  0  0  0  0  0  0  0  0  0  0  0
  -24.5547  -11.6670   20.8024 C   0  0  0  0  0  0  0  0  0  0  0  0
  -25.2323  -13.7422   20.5384 C   0  0  0  0  0  0  0  0  0  0  0  0
  -22.7758  -13.5192   20.9441 C   0  0  0  0  0  0  0  0  0  0  0  0
  -25.2314  -14.2253   30.6152 C   0  0  0  0  0  0  0  0  0  0  0  0
  -22.9894  -15.1801   28.4742 C   0  0  0  0  0  0  0  0  0  0  0  0
  -22.2329  -17.0020   25.6894 C   0  0  0  0  0  0  0  0  0  0  0  0
  -31.0470  -12.7529   21.5687 C   0  0  0  0  0  0  0  0  0  0  0  0
  -23.6092  -11.1579   34.3592 C   0  0  0  0  0  0  0  0  0  0  0  0
  -25.5379  -16.7275   30.6477 C   0  0  0  0  0  0  0  0  0  0  0  0
  -25.3928  -15.6752   27.8879 C   0  0  0  0  0  0  0  0  0  0  0  0
  -23.2436  -11.3795   32.8937 C   0  0  0  0  0  0  0  0  0  0  0  0
  -29.5201  -13.4700   18.4332 C   0  0  0  0  0  0  0  0  0  0  0  0
  -24.4980  -11.3873   32.0259 C   0  0  0  0  0  0  0  0  0  0  0  0
  -28.0334  -13.2094   18.6823 C   0  0  0  0  0  0  0  0  0  0  0  0
  -30.4013  -12.4807   19.1927 C   0  0  0  0  0  0  0  0  0  0  0  0
  -28.6476  -12.1378   20.8898 C   0  0  0  0  0  0  0  0  0  0  0  0
  -25.4382  -12.5309   32.4255 C   0  0  1  0  0  0  0  0  0  0  0  0
  -24.6275  -15.5598   30.2803 C   0  0  1  0  0  0  0  0  0  0  0  0
  -27.7201  -13.1455   20.1893 C   0  0  2  0  0  0  0  0  0  0  0  0
  -20.3255  -17.5555   24.1556 C   0  0  0  0  0  0  0  0  0  0  0  0
  -23.2397  -12.4308   27.1748 C   0  0  0  0  0  0  0  0  0  0  0  0
  -22.0745  -13.3539   25.1603 C   0  0  0  0  0  0  0  0  0  0  0  0
  -20.8977  -13.2884   27.3588 C   0  0  0  0  0  0  0  0  0  0  0  0
  -22.4045  -19.8867   26.3279 C   0  0  0  0  0  0  0  0  0  0  0  0
  -31.5367  -13.0042   23.9886 C   0  0  0  0  0  0  0  0  0  0  0  0
  -22.7587  -14.9613   26.9985 C   0  0  1  0  0  0  0  0  0  0  0  0
  -21.1014  -17.9705   25.3959 C   0  0  2  0  0  0  0  0  0  0  0  0
  -22.2665  -13.5207   26.6828 C   0  0  0  0  0  0  0  0  0  0  0  0
  -25.8713  -11.5661   20.6015 N   0  0  0  0  0  0  0  0  0  0  0  0
  -26.2547  -12.8445   20.4441 N   0  0  0  0  0  0  0  0  0  0  0  0
  -24.2923  -15.5311   28.8552 N   0  0  0  0  0  0  0  0  0  0  0  0
  -30.0546  -12.4696   20.6159 N   0  0  0  0  0  0  0  0  0  0  0  0
  -25.4421  -15.0691   20.4051 N   0  0  0  0  0  0  0  0  0  0  0  0
  -21.7292  -12.6169   21.1780 N   0  0  0  0  0  0  0  0  0  0  0  0
  -24.9565  -13.7892   31.8973 N   0  0  0  0  0  0  0  0  0  0  0  0
  -21.8439  -16.0131   26.5680 N   0  0  0  0  0  0  0  0  0  0  0  0
  -30.6325  -12.7275   22.8947 N   0  0  0  0  0  0  0  0  0  0  0  0
  -21.6383  -19.3433   25.1770 N   0  3  0  0  0  0  0  0  0  0  0  0
  -22.5245  -14.7462   20.8743 O   0  0  0  0  0  0  0  0  0  0  0  0
  -25.8963  -13.6343   29.7724 O   0  0  0  0  0  0  0  0  0  0  0  0
  -22.0466  -15.0516   29.2593 O   0  0  0  0  0  0  0  0  0  0  0  0
  -23.3492  -17.1097   25.1864 O   0  0  0  0  0  0  0  0  0  0  0  0
  -32.2146  -13.0146   21.2602 O   0  0  0  0  0  0  0  0  0  0  0  0
  -29.8793  -17.4526   27.0814 O   0  0  0  0  0  0  0  0  0  1  0  0
  -21.4823   -7.0705   21.6387 O   0  0  0  0  0  0  0  0  0  0  0  0
  -23.4507   -3.2701   25.1153 F   0  0  0  0  0  0  0  0  0  0  0  0
  -20.0664   -6.3485   23.9006 F   0  0  0  0  0  0  0  0  0  0  0  0
  1  2  1  0  0  0  0
  1  5  2  0  0  0  0
  2  6  2  0  0  0  0
  3 10  2  0  0  0  0
  3 19  1  0  0  0  0
  4 11  1  0  0  0  0
  4 19  2  0  0  0  0
  5 21  1  0  0  0  0
  6 23  1  0  0  0  0
  7 12  2  0  0  0  0
  7 22  1  0  0  0  0
  8 13  2  0  0  0  0
  8 25  1  0  0  0  0
  9 14  1  0  0  0  0
  9 25  2  0  0  0  0
 10 26  1  0  0  0  0
 11 26  2  0  0  0  0
 12 28  1  0  0  0  0
 13 27  1  0  0  0  0
 14 27  2  0  0  0  0
 15 16  2  0  0  0  0
 15 29  1  0  0  0  0
 16 30  1  0  0  0  0
 17 24  1  0  0  0  0
 17 28  2  0  0  0  0
 18 30  2  0  0  0  0
 18 31  1  0  0  0  0
 19 32  1  0  0  0  0
 20 32  1  0  0  0  0
 20 33  2  0  0  0  0
 20 34  1  0  0  0  0
 21 23  2  0  0  0  0
 21 39  1  0  0  0  0
 22 24  2  0  0  0  0
 22 40  1  0  0  0  0
 23 48  1  0  0  0  0
 24 41  1  0  0  0  0
 25 56  1  0  0  0  0
 26 76  1  0  0  0  0
 27 75  1  0  0  0  0
 28 75  1  0  0  0  0
 29 31  2  0  0  0  0
 29 76  1  0  0  0  0
 30 77  1  0  0  0  0
 31 78  1  0  0  0  0
 32 60  2  0  0  0  0
 33 61  1  0  0  0  0
 33 64  1  0  0  0  0
 34 65  1  0  0  0  0
 34 70  2  0  0  0  0
 35 49  1  0  0  0  0
 35 66  1  0  0  0  0
 35 71  2  0  0  0  0
 36 57  1  0  0  0  0
 36 62  1  0  0  0  0
 36 72  2  0  0  0  0
 37 58  1  0  0  0  0
 37 67  1  0  0  0  0
 37 73  2  0  0  0  0
 38 63  1  0  0  0  0
 38 68  1  0  0  0  0
 38 74  2  0  0  0  0
 39 42  1  0  0  0  0
 40 49  1  0  0  0  0
 41 62  1  0  0  0  0
 42 44  1  0  0  0  0
 43 45  1  0  0  0  0
 43 46  1  0  0  0  0
 44 48  1  0  0  0  0
 45 50  1  0  0  0  0
 46 63  1  0  0  0  0
 47 50  1  0  0  0  0
 47 63  1  0  0  0  0
 48 66  1  0  0  0  0
 49 62  1  0  0  0  0
 50 61  1  0  0  0  0
 51 58  1  0  0  0  0
 52 59  1  0  0  0  0
 53 59  1  0  0  0  0
 54 59  1  0  0  0  0
 55 69  1  0  0  0  0
 56 68  1  0  0  0  0
 57 59  1  0  0  0  0
 57 67  1  0  0  0  0
 58 69  1  0  0  0  0
 60 61  1  0  0  0  0
M  CHG  1  69   1
M  ISO  4  27 101  38 100  68 100  75 101
M  END
> <Batch ID>
0002

> <Smiles>
CNC(C)C(=O)NC(C(=O)N1Cc2cc([101O:1][101c:1]3ccc(C[100NH:0][100C:0](=O)N4CCCC(n5nc(-c6ccc(Oc7ccc(F)cc7F)cc6)c(C(N)=O)c5N)C4)cc3)ccc2CC1C(=O)NC1CCCc2ccccc21)C(C)(C)C

> <Shape>
0.145

> <Color>
0.190

> <Negative vol penalty>
0.000

$$$$
