
  -OEChem-04042320203D

 84 93  0     1  0  0  0  0  0999 V2000
  -26.5684  -37.6582   22.3826 C   0  0  0  0  0  0  0  0  0  0  0  0
  -27.1692  -36.5527   21.7890 C   0  0  0  0  0  0  0  0  0  0  0  0
  -32.6561  -25.0345   19.5194 C   0  0  0  0  0  0  0  0  0  0  0  0
  -26.3230  -13.0933   22.7220 C   0  0  0  0  0  0  0  0  0  0  0  0
  -24.4848  -12.1851   21.4440 C   0  0  0  0  0  0  0  0  0  0  0  0
  -31.7936  -26.0922   19.8072 C   0  0  0  0  0  0  0  0  0  0  0  0
  -25.7069  -37.4846   23.4650 C   0  0  0  0  0  0  0  0  0  0  0  0
  -26.9096  -35.2730   22.2782 C   0  0  0  0  0  0  0  0  0  0  0  0
  -32.1380  -23.7880   19.1678 C   0  0  0  0  0  0  0  0  0  0  0  0
  -26.5221  -30.0973   19.0273 C   0  0  0  0  0  0  0  0  0  0  0  0
  -26.0146  -12.2338   23.7764 C   0  0  0  0  0  0  0  0  0  0  0  0
  -24.1764  -11.3256   22.4984 C   0  0  0  0  0  0  0  0  0  0  0  0
  -27.4343  -29.0712   18.7852 C   0  0  0  0  0  0  0  0  0  0  0  0
  -26.4910   -8.9787   24.5575 C   0  0  0  0  0  0  0  0  0  0  0  0
  -27.5447   -8.3015   25.1712 C   0  0  0  0  0  0  0  0  0  0  0  0
  -29.8949  -24.6570   19.3919 C   0  0  0  0  0  0  0  0  0  0  0  0
  -26.4689  -27.7952   20.5905 C   0  0  0  0  0  0  0  0  0  0  0  0
  -26.9896   -9.3467   27.2776 C   0  0  0  0  0  0  0  0  0  0  0  0
  -25.5580  -13.0690   21.5558 C   0  0  0  0  0  0  0  0  0  0  0  0
  -30.4130  -25.9035   19.7435 C   0  0  0  0  0  0  0  0  0  0  0  0
  -26.7480  -13.7047   19.3908 C   0  0  0  0  0  0  0  0  0  0  0  0
  -30.7575  -23.5993   19.1041 C   0  0  0  0  0  0  0  0  0  0  0  0
  -25.4291  -36.2013   23.9616 C   0  0  0  0  0  0  0  0  0  0  0  0
  -25.5819  -29.9846   20.0616 C   0  0  0  0  0  0  0  0  0  0  0  0
  -26.0446  -35.0822   23.3691 C   0  0  0  0  0  0  0  0  0  0  0  0
  -25.5442  -28.8202   20.8420 C   0  0  0  0  0  0  0  0  0  0  0  0
  -24.9413  -11.3499   23.6646 C   0  0  0  0  0  0  0  0  0  0  0  0
  -27.4097  -27.9211   19.5687 C   0  0  0  0  0  0  0  0  0  0  0  0
  -25.6866   -9.8399   25.3038 C   0  0  0  0  0  0  0  0  0  0  0  0
  -27.7940   -8.4855   26.5312 C   0  0  0  0  0  0  0  0  0  0  0  0
  -25.9359  -10.0239   26.6638 C   0  0  0  0  0  0  0  0  0  0  0  0
  -25.8757  -13.9570   20.4665 C   0  0  0  0  0  0  0  0  0  0  0  0
  -26.7042  -14.8519   18.6369 C   0  0  0  0  0  0  0  0  0  0  0  0
  -27.5280  -12.5376   19.0991 C   0  0  0  0  0  0  0  0  0  0  0  0
  -29.5141  -27.0067   20.0431 C   0  0  0  0  0  0  0  0  0  1  0  0
  -24.9774  -31.6029   22.7298 C   0  0  0  0  0  0  0  0  0  0  0  0
  -22.4137  -29.6218   22.8880 C   0  0  0  0  0  0  0  0  0  0  0  0
  -20.9914  -26.6480   22.0046 C   0  0  0  0  0  0  0  0  0  0  0  0
  -26.6385  -20.3020   18.0771 C   0  0  0  0  0  0  0  0  0  0  0  0
  -24.5281  -36.0675   25.1636 C   0  0  0  0  0  0  0  0  0  0  0  0
  -24.5873  -31.0890   20.2926 C   0  0  0  0  0  0  0  0  0  0  0  0
  -24.5414  -28.6414   21.9515 C   0  0  0  0  0  0  0  0  0  0  0  0
  -24.0129  -34.6474   25.3836 C   0  0  0  0  0  0  0  0  0  0  0  0
  -23.6085  -18.8364   18.8641 C   0  0  0  0  0  0  0  0  0  0  0  0
  -25.1523  -33.6409   25.2592 C   0  0  0  0  0  0  0  0  0  0  0  0
  -23.9875  -17.4107   19.2641 C   0  0  0  0  0  0  0  0  0  0  0  0
  -29.3586  -21.6250   19.8571 C   0  0  0  0  0  0  0  0  0  0  0  0
  -29.3769  -22.3048   17.4184 C   0  0  0  0  0  0  0  0  0  0  0  0
  -24.6091  -19.8433   19.4195 C   0  0  0  0  0  0  0  0  0  0  0  0
  -28.7663  -20.2719   19.4528 C   0  0  0  0  0  0  0  0  0  0  0  0
  -28.8109  -20.9311   17.0703 C   0  0  0  0  0  0  0  0  0  0  0  0
  -26.4160  -18.1542   19.4067 C   0  0  0  0  0  0  0  0  0  0  0  0
  -30.1940  -22.2436   18.7218 C   0  0  0  0  0  0  0  0  0  0  0  0
  -25.7687  -33.6760   23.8555 C   0  0  1  0  0  0  0  0  0  0  0  0
  -24.0085  -31.0862   21.7041 C   0  0  1  0  0  0  0  0  0  0  0  0
  -25.4389  -17.0914   18.8642 C   0  0  1  0  0  0  0  0  0  0  0  0
  -18.9016  -25.2942   22.3166 C   0  0  0  0  0  0  0  0  0  0  0  0
  -23.3159  -28.8837   25.7078 C   0  0  0  0  0  0  0  0  0  0  0  0
  -21.8026  -26.8923   25.5956 C   0  0  0  0  0  0  0  0  0  0  0  0
  -20.8476  -29.1922   25.4495 C   0  0  0  0  0  0  0  0  0  0  0  0
  -20.4098  -26.6626   19.1028 C   0  0  0  0  0  0  0  0  0  0  0  0
  -22.1480  -28.2633   23.4904 C   0  0  1  0  0  0  0  0  0  0  0  0
  -19.6198  -26.3139   21.4465 C   0  0  2  0  0  0  0  0  0  0  0  0
  -22.0488  -28.3118   25.0412 C   0  0  0  0  0  0  0  0  0  0  0  0
  -25.3187  -15.1694   20.4052 N   0  0  0  0  0  0  0  0  0  0  0  0
  -25.8422  -15.6892   19.2819 N   0  0  0  0  0  0  0  0  0  0  0  0
  -23.5939  -29.7520   22.1424 N   0  0  0  0  0  0  0  0  0  0  0  0
  -25.9750  -19.5036   19.0209 N   0  0  0  0  0  0  0  0  0  0  0  0
  -28.0351  -20.3839   18.1830 N   0  0  0  0  0  0  0  0  0  0  0  0
  -27.3195  -15.2161   17.4918 N   0  0  0  0  0  0  0  0  0  0  0  0
  -27.4557  -11.4486   19.9784 N   0  0  0  0  0  0  0  0  0  0  0  0
  -24.9241  -32.9713   22.9150 N   0  0  0  0  0  0  0  0  0  0  0  0
  -20.9517  -27.7512   22.8308 N   0  0  0  0  0  0  0  0  0  0  0  0
  -19.7426  -25.7543   20.0707 N   0  3  0  0  0  0  0  0  0  0  0  0
  -28.2799  -12.4688   18.0973 O   0  0  0  0  0  0  0  0  0  0  0  0
  -29.7733  -27.9268   20.8318 O   0  0  0  0  0  0  0  0  0  0  0  0
  -25.7174  -30.8181   23.3112 O   0  0  0  0  0  0  0  0  0  0  0  0
  -21.6004  -30.5319   23.0664 O   0  0  0  0  0  0  0  0  0  0  0  0
  -21.9967  -25.9935   21.7374 O   0  0  0  0  0  0  0  0  0  0  0  0
  -26.0204  -20.9057   17.1913 O   0  0  0  0  0  0  0  0  0  0  0  0
  -24.6403  -10.5109   24.6932 O   0  0  0  0  0  0  0  0  0  0  0  0
  -28.3235  -26.8913   19.3287 O   0  0  0  0  0  0  0  0  0  1  0  0
  -28.8050   -7.8339   27.1208 F   0  0  0  0  0  0  0  0  0  0  0  0
  -25.1658  -10.8491   27.3862 F   0  0  0  0  0  0  0  0  0  0  0  0
  1  2  1  0  0  0  0
  1  7  2  0  0  0  0
  2  8  2  0  0  0  0
  3  6  2  0  0  0  0
  3  9  1  0  0  0  0
  4 11  2  0  0  0  0
  4 19  1  0  0  0  0
  5 12  1  0  0  0  0
  5 19  2  0  0  0  0
  6 20  1  0  0  0  0
  7 23  1  0  0  0  0
  8 25  1  0  0  0  0
  9 22  2  0  0  0  0
 10 13  2  0  0  0  0
 10 24  1  0  0  0  0
 11 27  1  0  0  0  0
 12 27  2  0  0  0  0
 13 28  1  0  0  0  0
 14 15  2  0  0  0  0
 14 29  1  0  0  0  0
 15 30  1  0  0  0  0
 16 20  2  0  0  0  0
 16 22  1  0  0  0  0
 17 26  1  0  0  0  0
 17 28  2  0  0  0  0
 18 30  2  0  0  0  0
 18 31  1  0  0  0  0
 19 32  1  0  0  0  0
 20 35  1  0  0  0  0
 21 32  1  0  0  0  0
 21 33  2  0  0  0  0
 21 34  1  0  0  0  0
 22 53  1  0  0  0  0
 23 25  2  0  0  0  0
 23 40  1  0  0  0  0
 24 26  2  0  0  0  0
 24 41  1  0  0  0  0
 25 54  1  0  0  0  0
 26 42  1  0  0  0  0
 27 81  1  0  0  0  0
 28 82  1  0  0  0  0
 29 31  2  0  0  0  0
 29 81  1  0  0  0  0
 30 83  1  0  0  0  0
 31 84  1  0  0  0  0
 32 65  2  0  0  0  0
 33 66  1  0  0  0  0
 33 70  1  0  0  0  0
 34 71  1  0  0  0  0
 34 75  2  0  0  0  0
 35 76  2  0  0  0  0
 35 82  1  0  0  0  0
 36 55  1  0  0  0  0
 36 72  1  0  0  0  0
 36 77  2  0  0  0  0
 37 62  1  0  0  0  0
 37 67  1  0  0  0  0
 37 78  2  0  0  0  0
 38 63  1  0  0  0  0
 38 73  1  0  0  0  0
 38 79  2  0  0  0  0
 39 68  1  0  0  0  0
 39 69  1  0  0  0  0
 39 80  2  0  0  0  0
 40 43  1  0  0  0  0
 41 55  1  0  0  0  0
 42 67  1  0  0  0  0
 43 45  1  0  0  0  0
 44 46  1  0  0  0  0
 44 49  1  0  0  0  0
 45 54  1  0  0  0  0
 46 56  1  0  0  0  0
 47 50  1  0  0  0  0
 47 53  1  0  0  0  0
 48 51  1  0  0  0  0
 48 53  1  0  0  0  0
 49 68  1  0  0  0  0
 50 69  1  0  0  0  0
 51 69  1  0  0  0  0
 52 56  1  0  0  0  0
 52 68  1  0  0  0  0
 54 72  1  0  0  0  0
 55 67  1  0  0  0  0
 56 66  1  0  0  0  0
 57 63  1  0  0  0  0
 58 64  1  0  0  0  0
 59 64  1  0  0  0  0
 60 64  1  0  0  0  0
 61 74  1  0  0  0  0
 62 64  1  0  0  0  0
 62 73  1  0  0  0  0
 63 74  1  0  0  0  0
 65 66  1  0  0  0  0
M  CHG  1  74   1
M  ISO  4  35 101  39 100  69 100  82 101
M  END
> <Batch ID>
0003

> <Smiles>
CNC(C)C(=O)NC(C(=O)N1Cc2cc([101O:1][101C:1](=O)c3cccc(C4CC[100N:0]([100C:0](=O)N5CCCC(n6nc(-c7ccc(Oc8ccc(F)cc8F)cc7)c(C(N)=O)c6N)C5)CC4)c3)ccc2CC1C(=O)NC1CCCc2ccccc21)C(C)(C)C

> <Shape>
0.284

> <Color>
0.049

> <Negative vol penalty>
0.000

$$$$

  -OEChem-04042320203D

 91100  0     1  0  0  0  0  0999 V2000
  -30.1230  -23.9494   17.7593 C   0  0  0  0  0  0  0  0  0  0  0  0
  -28.8459  -24.0239   18.3059 C   0  0  0  0  0  0  0  0  0  0  0  0
  -20.0820  -20.1416   21.0133 C   0  0  0  0  0  0  0  0  0  0  0  0
  -28.6677  -10.6672   21.7714 C   0  0  0  0  0  0  0  0  0  0  0  0
  -27.3714  -11.6975   20.0122 C   0  0  0  0  0  0  0  0  0  0  0  0
  -31.1673  -24.6767   18.3288 C   0  0  0  0  0  0  0  0  0  0  0  0
  -28.6126  -24.8250   19.4232 C   0  0  0  0  0  0  0  0  0  0  0  0
  -24.3925  -27.5897   18.9842 C   0  0  0  0  0  0  0  0  0  0  0  0
  -26.4524  -22.0026   20.6365 C   0  0  0  0  0  0  0  0  0  0  0  0
  -26.1164  -20.6632   18.6540 C   0  0  0  0  0  0  0  0  0  0  0  0
  -27.4356  -21.1135   21.0705 C   0  0  0  0  0  0  0  0  0  0  0  0
  -27.0997  -19.7741   19.0880 C   0  0  0  0  0  0  0  0  0  0  0  0
  -27.6789   -9.6965   21.9316 C   0  0  0  0  0  0  0  0  0  0  0  0
  -26.3825  -10.7268   20.1723 C   0  0  0  0  0  0  0  0  0  0  0  0
  -23.1794  -26.9395   19.2061 C   0  0  0  0  0  0  0  0  0  0  0  0
  -23.8303  -10.0977   22.2986 C   0  0  0  0  0  0  0  0  0  0  0  0
  -22.5025  -10.5241   22.3289 C   0  0  0  0  0  0  0  0  0  0  0  0
  -19.6595  -21.4067   21.4908 C   0  0  0  0  0  0  0  0  0  0  0  0
  -23.1043  -27.8539   21.4371 C   0  0  0  0  0  0  0  0  0  0  0  0
  -22.0201   -9.1592   20.3946 C   0  0  0  0  0  0  0  0  0  0  0  0
  -20.6230  -20.3342   19.7613 C   0  0  0  0  0  0  0  0  0  0  0  0
  -28.5140  -11.6677   20.8117 C   0  0  0  0  0  0  0  0  0  0  0  0
  -30.6512  -12.6147   19.7904 C   0  0  0  0  0  0  0  0  0  0  0  0
  -30.9446  -25.4947   19.4477 C   0  0  0  0  0  0  0  0  0  0  0  0
  -24.9770  -28.3694   19.9926 C   0  0  0  0  0  0  0  0  0  0  0  0
  -29.6552  -25.5629   20.0090 C   0  0  0  0  0  0  0  0  0  0  0  0
  -24.3236  -28.5151   21.2246 C   0  0  0  0  0  0  0  0  0  0  0  0
  -25.7927  -21.7774   19.4282 C   0  0  0  0  0  0  0  0  0  0  0  0
  -27.7593  -19.9993   20.2963 C   0  0  0  0  0  0  0  0  0  0  0  0
  -26.5363   -9.7264   21.1321 C   0  0  0  0  0  0  0  0  0  0  0  0
  -22.5365  -27.0691   20.4337 C   0  0  0  0  0  0  0  0  0  0  0  0
  -24.2530   -9.2022   21.3162 C   0  0  0  0  0  0  0  0  0  0  0  0
  -21.5974  -10.0548   21.3770 C   0  0  0  0  0  0  0  0  0  0  0  0
  -23.3479   -8.7329   20.3643 C   0  0  0  0  0  0  0  0  0  0  0  0
  -29.5348  -12.6710   20.6462 C   0  0  0  0  0  0  0  0  0  0  0  0
  -19.9550  -22.3339   20.5159 C   0  0  0  0  0  0  0  0  0  0  0  0
  -31.3065  -13.8030   20.0023 C   0  0  0  0  0  0  0  0  0  0  0  0
  -31.0592  -11.5808   18.8848 C   0  0  0  0  0  0  0  0  0  0  0  0
  -19.7012  -23.7973   20.5511 C   0  0  0  0  0  0  0  0  0  0  0  0
  -27.6987  -28.2458   21.6299 C   0  0  0  0  0  0  0  0  0  0  0  0
  -26.6709  -31.0915   22.7994 C   0  0  0  0  0  0  0  0  0  0  0  0
  -24.0513  -33.1774   23.4577 C   0  0  0  0  0  0  0  0  0  0  0  0
  -29.5084  -19.1727   21.9099 C   0  0  0  0  0  0  0  0  0  0  0  0
  -32.1148  -26.2254   20.0572 C   0  0  0  0  0  0  0  0  0  0  0  0
  -26.2728  -29.0860   19.7281 C   0  0  0  0  0  0  0  0  0  0  0  0
  -24.8992  -29.3570   22.3329 C   0  0  0  0  0  0  0  0  0  0  0  0
  -31.7044  -27.3428   21.0128 C   0  0  0  0  0  0  0  0  0  0  0  0
  -32.0332  -17.1300   23.3694 C   0  0  0  0  0  0  0  0  0  0  0  0
  -30.6203  -26.8560   21.9691 C   0  0  0  0  0  0  0  0  0  0  0  0
  -31.7845  -15.7510   22.7541 C   0  0  0  0  0  0  0  0  0  0  0  0
  -30.7268  -17.8733   23.6425 C   0  0  0  0  0  0  0  0  0  0  0  0
  -29.5725  -16.6016   21.8763 C   0  0  0  0  0  0  0  0  0  0  0  0
  -29.3572  -26.4402   21.2055 C   0  0  1  0  0  0  0  0  0  0  0  0
  -27.0321  -29.4379   21.0037 C   0  0  1  0  0  0  0  0  0  0  0  0
  -30.8613  -15.8413   21.5232 C   0  0  2  0  0  0  0  0  0  0  0  0
  -23.5200  -35.4193   24.4520 C   0  0  0  0  0  0  0  0  0  0  0  0
  -27.0601  -29.9399   25.5980 C   0  0  0  0  0  0  0  0  0  0  0  0
  -25.6520  -31.8092   26.4874 C   0  0  0  0  0  0  0  0  0  0  0  0
  -27.8055  -32.3124   25.3333 C   0  0  0  0  0  0  0  0  0  0  0  0
  -22.9233  -34.1702   20.9080 C   0  0  0  0  0  0  0  0  0  0  0  0
  -24.7351  -22.7337   18.9615 C   0  0  0  0  0  0  0  0  0  0  0  0
  -21.0052  -22.2725   18.2389 C   0  0  0  0  0  0  0  0  0  0  0  0
  -19.4721  -25.7933   22.0069 C   0  0  0  0  0  0  0  0  0  0  0  0
  -22.3221  -23.0234   18.3849 C   0  0  0  0  0  0  0  0  0  0  0  0
  -20.7489  -26.6116   21.9341 C   0  0  0  0  0  0  0  0  0  1  0  0
  -25.8257  -31.5223   23.9738 C   0  0  1  0  0  0  0  0  0  0  0  0
  -23.8454  -34.6552   23.1781 C   0  0  2  0  0  0  0  0  0  0  0  0
  -26.5757  -31.3784   25.3281 C   0  0  0  0  0  0  0  0  0  0  0  0
  -29.4809  -13.8052   21.3495 N   0  0  0  0  0  0  0  0  0  0  0  0
  -20.5402  -21.6706   19.4692 N   0  0  0  0  0  0  0  0  0  0  0  0
  -30.5717  -14.4726   20.9360 N   0  0  0  0  0  0  0  0  0  0  0  0
  -26.1712  -30.0327   22.0281 N   0  0  0  0  0  0  0  0  0  0  0  0
  -29.9058  -17.9231   22.4308 N   0  0  0  0  0  0  0  0  0  0  0  0
  -32.4339  -14.3300   19.4792 N   0  0  0  0  0  0  0  0  0  0  0  0
  -30.2708  -10.4258   18.7903 N   0  0  0  0  0  0  0  0  0  0  0  0
  -28.7583  -19.0962   20.7368 N   0  0  0  0  0  0  0  0  0  0  0  0
  -19.7235  -24.3908   21.8070 N   0  0  0  0  0  0  0  0  0  0  0  0
  -28.6029  -27.6077   20.8024 N   0  0  0  0  0  0  0  0  0  0  0  0
  -25.3792  -32.8796   23.6792 N   0  0  0  0  0  0  0  0  0  0  0  0
  -22.7251  -34.8489   22.2146 N   0  3  0  0  0  0  0  0  0  0  0  0
  -23.4039  -22.0913   18.7871 N   0  3  0  0  0  0  0  0  0  0  0  0
  -32.1013  -11.6711   18.1923 O   0  0  0  0  0  0  0  0  0  0  0  0
  -19.4699  -24.3915   19.5013 O   0  0  0  0  0  0  0  0  0  0  0  0
  -27.4149  -27.9293   22.7792 O   0  0  0  0  0  0  0  0  0  0  0  0
  -27.7319  -31.6777   22.5706 O   0  0  0  0  0  0  0  0  0  0  0  0
  -23.1260  -32.3687   23.4811 O   0  0  0  0  0  0  0  0  0  0  0  0
  -29.8343  -20.2336   22.4486 O   0  0  0  0  0  0  0  0  0  0  0  0
  -25.5713   -8.7792   21.2880 O   0  0  0  0  0  0  0  0  0  0  0  0
  -21.3526  -26.4350   20.6532 O   0  0  0  0  0  0  0  0  0  1  0  0
  -20.3221  -10.4631   21.4071 F   0  0  0  0  0  0  0  0  0  0  0  0
  -23.7478   -7.8715   19.4189 F   0  0  0  0  0  0  0  0  0  0  0  0
  1  2  1  0  0  0  0
  1  6  2  0  0  0  0
  2  7  2  0  0  0  0
  3 18  1  0  0  0  0
  3 21  2  0  0  0  0
  4 13  2  0  0  0  0
  4 22  1  0  0  0  0
  5 14  1  0  0  0  0
  5 22  2  0  0  0  0
  6 24  1  0  0  0  0
  7 26  1  0  0  0  0
  8 15  2  0  0  0  0
  8 25  1  0  0  0  0
  9 11  2  0  0  0  0
  9 28  1  0  0  0  0
 10 12  1  0  0  0  0
 10 28  2  0  0  0  0
 11 29  1  0  0  0  0
 12 29  2  0  0  0  0
 13 30  1  0  0  0  0
 14 30  2  0  0  0  0
 15 31  1  0  0  0  0
 16 17  2  0  0  0  0
 16 32  1  0  0  0  0
 17 33  1  0  0  0  0
 18 36  2  0  0  0  0
 19 27  1  0  0  0  0
 19 31  2  0  0  0  0
 20 33  2  0  0  0  0
 20 34  1  0  0  0  0
 21 70  1  0  0  0  0
 22 35  1  0  0  0  0
 23 35  1  0  0  0  0
 23 37  2  0  0  0  0
 23 38  1  0  0  0  0
 24 26  2  0  0  0  0
 24 44  1  0  0  0  0
 25 27  2  0  0  0  0
 25 45  1  0  0  0  0
 26 53  1  0  0  0  0
 27 46  1  0  0  0  0
 28 61  1  0  0  0  0
 29 76  1  0  0  0  0
 30 88  1  0  0  0  0
 31 89  1  0  0  0  0
 32 34  2  0  0  0  0
 32 88  1  0  0  0  0
 33 90  1  0  0  0  0
 34 91  1  0  0  0  0
 35 69  2  0  0  0  0
 36 39  1  0  0  0  0
 36 70  1  0  0  0  0
 37 71  1  0  0  0  0
 37 74  1  0  0  0  0
 38 75  1  0  0  0  0
 38 82  2  0  0  0  0
 39 77  1  0  0  0  0
 39 83  2  0  0  0  0
 40 54  1  0  0  0  0
 40 78  1  0  0  0  0
 40 84  2  0  0  0  0
 41 66  1  0  0  0  0
 41 72  1  0  0  0  0
 41 85  2  0  0  0  0
 42 67  1  0  0  0  0
 42 79  1  0  0  0  0
 42 86  2  0  0  0  0
 43 73  1  0  0  0  0
 43 76  1  0  0  0  0
 43 87  2  0  0  0  0
 44 47  1  0  0  0  0
 45 54  1  0  0  0  0
 46 72  1  0  0  0  0
 47 49  1  0  0  0  0
 48 50  1  0  0  0  0
 48 51  1  0  0  0  0
 49 53  1  0  0  0  0
 50 55  1  0  0  0  0
 51 73  1  0  0  0  0
 52 55  1  0  0  0  0
 52 73  1  0  0  0  0
 53 78  1  0  0  0  0
 54 72  1  0  0  0  0
 55 71  1  0  0  0  0
 56 67  1  0  0  0  0
 57 68  1  0  0  0  0
 58 68  1  0  0  0  0
 59 68  1  0  0  0  0
 60 80  1  0  0  0  0
 61 81  1  0  0  0  0
 62 64  1  0  0  0  0
 62 70  1  0  0  0  0
 63 65  1  0  0  0  0
 63 77  1  0  0  0  0
 64 81  1  0  0  0  0
 65 89  1  0  0  0  0
 66 68  1  0  0  0  0
 66 79  1  0  0  0  0
 67 80  1  0  0  0  0
 69 71  1  0  0  0  0
M  CHG  2  80   1  81   1
M  ISO  4  43 100  65 101  76 100  89 101
M  END
> <Batch ID>
0003

> <Smiles>
CNC(C)C(=O)NC(C(=O)N1Cc2cc([101O:1][101CH2:1]CNC(=O)c3cccn3CCNCc3ccc([100NH:0][100C:0](=O)N4CCCC(n5nc(-c6ccc(Oc7ccc(F)cc7F)cc6)c(C(N)=O)c5N)C4)cc3)ccc2CC1C(=O)NC1CCCc2ccccc21)C(C)(C)C

> <Shape>
0.320

> <Color>
0.062

> <Negative vol penalty>
0.000

$$$$

  -OEChem-04042320203D

 83 92  0     1  0  0  0  0  0999 V2000
  -27.1636  -37.9496   23.2949 C   0  0  0  0  0  0  0  0  0  0  0  0
  -27.7653  -37.0444   22.4266 C   0  0  0  0  0  0  0  0  0  0  0  0
  -25.1093   -9.3688   20.2340 C   0  0  0  0  0  0  0  0  0  0  0  0
  -24.4516   -9.7984   22.5187 C   0  0  0  0  0  0  0  0  0  0  0  0
  -26.4225  -37.4851   24.3807 C   0  0  0  0  0  0  0  0  0  0  0  0
  -27.6272  -35.6740   22.6443 C   0  0  0  0  0  0  0  0  0  0  0  0
  -31.1830  -22.7784   19.3171 C   0  0  0  0  0  0  0  0  0  0  0  0
  -28.9375  -21.9885   18.9037 C   0  0  0  0  0  0  0  0  0  0  0  0
  -27.1529  -29.4757   19.0845 C   0  0  0  0  0  0  0  0  0  0  0  0
  -30.7335  -24.0966   19.2404 C   0  0  0  0  0  0  0  0  0  0  0  0
  -28.4879  -23.3067   18.8271 C   0  0  0  0  0  0  0  0  0  0  0  0
  -24.9278   -8.0011   20.4389 C   0  0  0  0  0  0  0  0  0  0  0  0
  -24.2701   -8.4306   22.7236 C   0  0  0  0  0  0  0  0  0  0  0  0
  -27.7369  -28.2104   19.0424 C   0  0  0  0  0  0  0  0  0  0  0  0
  -21.9301   -6.0968   22.0175 C   0  0  0  0  0  0  0  0  0  0  0  0
  -20.7744   -5.6908   22.6846 C   0  0  0  0  0  0  0  0  0  0  0  0
  -26.3674  -27.5229   20.9054 C   0  0  0  0  0  0  0  0  0  0  0  0
  -22.1270   -4.6770   24.4108 C   0  0  0  0  0  0  0  0  0  0  0  0
  -24.8712  -10.2674   21.2739 C   0  0  0  0  0  0  0  0  0  0  0  0
  -24.1002  -12.6076   20.6129 C   0  0  0  0  0  0  0  0  0  0  0  0
  -30.2851  -21.7243   19.1486 C   0  0  0  0  0  0  0  0  0  0  0  0
  -26.2672  -36.1083   24.6063 C   0  0  0  0  0  0  0  0  0  0  0  0
  -26.1779  -29.7780   20.0460 C   0  0  0  0  0  0  0  0  0  0  0  0
  -26.8844  -35.1907   23.7349 C   0  0  0  0  0  0  0  0  0  0  0  0
  -25.7707  -28.7920   20.9560 C   0  0  0  0  0  0  0  0  0  0  0  0
  -29.3859  -24.3607   18.9955 C   0  0  0  0  0  0  0  0  0  0  0  0
  -24.5082   -7.5320   21.6837 C   0  0  0  0  0  0  0  0  0  0  0  0
  -27.3463  -27.2347   19.9548 C   0  0  0  0  0  0  0  0  0  0  0  0
  -23.1843   -5.7929   22.5470 C   0  0  0  0  0  0  0  0  0  0  0  0
  -20.8728   -4.9809   23.8813 C   0  0  0  0  0  0  0  0  0  0  0  0
  -23.2827   -5.0830   23.7437 C   0  0  0  0  0  0  0  0  0  0  0  0
  -25.0591  -11.6804   21.0631 C   0  0  0  0  0  0  0  0  0  0  0  0
  -24.7701  -13.8062   20.5813 C   0  0  0  0  0  0  0  0  0  0  0  0
  -22.7268  -12.4036   20.2554 C   0  0  0  0  0  0  0  0  0  0  0  0
  -25.9582  -31.8556   22.4416 C   0  0  0  0  0  0  0  0  0  0  0  0
  -22.9252  -30.7213   22.6321 C   0  0  0  0  0  0  0  0  0  0  0  0
  -20.7385  -28.1776   22.0036 C   0  0  0  0  0  0  0  0  0  0  0  0
  -29.4545  -16.4216   18.9052 C   0  0  0  0  0  0  0  0  0  0  0  0
  -25.4962  -35.6541   25.8203 C   0  0  0  0  0  0  0  0  0  0  0  0
  -25.5384  -31.1393   20.0611 C   0  0  0  0  0  0  0  0  0  0  0  0
  -24.7136  -29.0596   21.9949 C   0  0  0  0  0  0  0  0  0  0  0  0
  -25.0858  -34.1847   25.7666 C   0  0  0  0  0  0  0  0  0  0  0  0
  -29.2869  -15.1222   22.4116 C   0  0  0  0  0  0  0  0  0  0  0  0
  -26.2628  -33.3173   25.3317 C   0  0  0  0  0  0  0  0  0  0  0  0
  -28.1285  -14.1325   22.2992 C   0  0  0  0  0  0  0  0  0  0  0  0
  -30.1195  -19.5256   20.3968 C   0  0  0  0  0  0  0  0  0  0  0  0
  -30.5729  -19.5337   17.9061 C   0  0  0  0  0  0  0  0  0  0  0  0
  -30.0163  -15.2739   21.0819 C   0  0  0  0  0  0  0  0  0  0  0  0
  -30.5920  -18.0703   20.4555 C   0  0  0  0  0  0  0  0  0  0  0  0
  -31.0579  -18.0919   18.0280 C   0  0  0  0  0  0  0  0  0  0  0  0
  -27.9661  -14.6812   19.8288 C   0  0  0  0  0  0  0  0  0  0  0  0
  -30.7732  -20.2903   19.2318 C   0  0  0  0  0  0  0  0  0  0  0  0
  -26.7368  -33.6964   23.9235 C   0  0  1  0  0  0  0  0  0  0  0  0
  -24.9250  -31.4963   21.4115 C   0  0  1  0  0  0  0  0  0  0  0  0
  -27.1879  -14.5165   21.1444 C   0  0  1  0  0  0  0  0  0  0  0  0
  -18.3343  -27.5262   22.3084 C   0  0  0  0  0  0  0  0  0  0  0  0
  -23.4546  -30.1578   25.5837 C   0  0  0  0  0  0  0  0  0  0  0  0
  -21.4340  -28.6795   25.5922 C   0  0  0  0  0  0  0  0  0  0  0  0
  -21.1956  -31.1119   25.0926 C   0  0  0  0  0  0  0  0  0  0  0  0
  -20.3087  -27.9524   19.0841 C   0  0  0  0  0  0  0  0  0  0  0  0
  -28.9057  -25.7705   18.9155 C   0  0  0  0  0  0  0  0  0  1  0  0
  -22.2511  -29.5906   23.3710 C   0  0  1  0  0  0  0  0  0  0  0  0
  -19.3537  -28.1703   21.3817 C   0  0  2  0  0  0  0  0  0  0  0  0
  -22.1052  -29.8802   24.8917 C   0  0  0  0  0  0  0  0  0  0  0  0
  -26.2476  -12.2417   21.3002 N   0  0  0  0  0  0  0  0  0  0  0  0
  -26.0401  -13.5346   20.9978 N   0  0  0  0  0  0  0  0  0  0  0  0
  -24.1225  -30.4079   21.9733 N   0  0  0  0  0  0  0  0  0  0  0  0
  -29.0916  -15.6045   19.9889 N   0  0  0  0  0  0  0  0  0  0  0  0
  -30.4146  -17.4141   19.1533 N   0  0  0  0  0  0  0  0  0  0  0  0
  -24.3907  -15.0555   20.2379 N   0  0  0  0  0  0  0  0  0  0  0  0
  -22.1981  -11.1088   20.3459 N   0  0  0  0  0  0  0  0  0  0  0  0
  -25.8460  -33.1453   22.9249 N   0  0  0  0  0  0  0  0  0  0  0  0
  -20.9864  -29.3508   22.6844 N   0  0  0  0  0  0  0  0  0  0  0  0
  -19.3663  -27.4133   20.0981 N   0  3  0  0  0  0  0  0  0  0  0  0
  -21.9948  -13.3388   19.8516 O   0  0  0  0  0  0  0  0  0  0  0  0
  -26.7944  -31.0239   22.7743 O   0  0  0  0  0  0  0  0  0  0  0  0
  -22.4047  -31.8397   22.6331 O   0  0  0  0  0  0  0  0  0  0  0  0
  -21.5205  -27.2353   21.8992 O   0  0  0  0  0  0  0  0  0  0  0  0
  -28.9481  -16.2747   17.7859 O   0  0  0  0  0  0  0  0  0  0  0  0
  -24.3308   -6.1974   21.8839 O   0  0  0  0  0  0  0  0  0  0  0  0
  -27.9191  -25.9906   19.9160 O   0  0  0  0  0  0  0  0  0  1  0  0
  -19.7629   -4.5924   24.5226 F   0  0  0  0  0  0  0  0  0  0  0  0
  -24.4848   -4.7892   24.2579 F   0  0  0  0  0  0  0  0  0  0  0  0
  1  2  1  0  0  0  0
  1  5  2  0  0  0  0
  2  6  2  0  0  0  0
  3 12  2  0  0  0  0
  3 19  1  0  0  0  0
  4 13  1  0  0  0  0
  4 19  2  0  0  0  0
  5 22  1  0  0  0  0
  6 24  1  0  0  0  0
  7 10  2  0  0  0  0
  7 21  1  0  0  0  0
  8 11  1  0  0  0  0
  8 21  2  0  0  0  0
  9 14  2  0  0  0  0
  9 23  1  0  0  0  0
 10 26  1  0  0  0  0
 11 26  2  0  0  0  0
 12 27  1  0  0  0  0
 13 27  2  0  0  0  0
 14 28  1  0  0  0  0
 15 16  2  0  0  0  0
 15 29  1  0  0  0  0
 16 30  1  0  0  0  0
 17 25  1  0  0  0  0
 17 28  2  0  0  0  0
 18 30  2  0  0  0  0
 18 31  1  0  0  0  0
 19 32  1  0  0  0  0
 20 32  1  0  0  0  0
 20 33  2  0  0  0  0
 20 34  1  0  0  0  0
 21 52  1  0  0  0  0
 22 24  2  0  0  0  0
 22 39  1  0  0  0  0
 23 25  2  0  0  0  0
 23 40  1  0  0  0  0
 24 53  1  0  0  0  0
 25 41  1  0  0  0  0
 26 61  1  0  0  0  0
 27 80  1  0  0  0  0
 28 81  1  0  0  0  0
 29 31  2  0  0  0  0
 29 80  1  0  0  0  0
 30 82  1  0  0  0  0
 31 83  1  0  0  0  0
 32 65  2  0  0  0  0
 33 66  1  0  0  0  0
 33 70  1  0  0  0  0
 34 71  1  0  0  0  0
 34 75  2  0  0  0  0
 35 54  1  0  0  0  0
 35 72  1  0  0  0  0
 35 76  2  0  0  0  0
 36 62  1  0  0  0  0
 36 67  1  0  0  0  0
 36 77  2  0  0  0  0
 37 63  1  0  0  0  0
 37 73  1  0  0  0  0
 37 78  2  0  0  0  0
 38 68  1  0  0  0  0
 38 69  1  0  0  0  0
 38 79  2  0  0  0  0
 39 42  1  0  0  0  0
 40 54  1  0  0  0  0
 41 67  1  0  0  0  0
 42 44  1  0  0  0  0
 43 45  1  0  0  0  0
 43 48  1  0  0  0  0
 44 53  1  0  0  0  0
 45 55  1  0  0  0  0
 46 49  1  0  0  0  0
 46 52  1  0  0  0  0
 47 50  1  0  0  0  0
 47 52  1  0  0  0  0
 48 68  1  0  0  0  0
 49 69  1  0  0  0  0
 50 69  1  0  0  0  0
 51 55  1  0  0  0  0
 51 68  1  0  0  0  0
 53 72  1  0  0  0  0
 54 67  1  0  0  0  0
 55 66  1  0  0  0  0
 56 63  1  0  0  0  0
 57 64  1  0  0  0  0
 58 64  1  0  0  0  0
 59 64  1  0  0  0  0
 60 74  1  0  0  0  0
 61 81  1  0  0  0  0
 62 64  1  0  0  0  0
 62 73  1  0  0  0  0
 63 74  1  0  0  0  0
 65 66  1  0  0  0  0
M  CHG  1  74   1
M  ISO  4  38 100  61 101  69 100  81 101
M  END
> <Batch ID>
0003

> <Smiles>
CNC(C)C(=O)NC(C(=O)N1Cc2cc([101O:1][101CH2:1]c3ccc(C4CC[100N:0]([100C:0](=O)N5CCCC(n6nc(-c7ccc(Oc8ccc(F)cc8F)cc7)c(C(N)=O)c6N)C5)CC4)cc3)ccc2CC1C(=O)NC1CCCc2ccccc21)C(C)(C)C

> <Shape>
0.351

> <Color>
0.116

> <Negative vol penalty>
0.000

$$$$

  -OEChem-04042320203D

 82 90  0     1  0  0  0  0  0999 V2000
  -18.4885  -32.6281   20.4571 C   0  0  0  0  0  0  0  0  0  0  0  0
  -19.7922  -32.3806   20.0393 C   0  0  0  0  0  0  0  0  0  0  0  0
  -28.5725  -10.6940   21.5317 C   0  0  0  0  0  0  0  0  0  0  0  0
  -27.0125  -11.9981   20.2268 C   0  0  0  0  0  0  0  0  0  0  0  0
  -30.8262  -22.0945   18.6733 C   0  0  0  0  0  0  0  0  0  0  0  0
  -30.0313  -23.3108   20.6035 C   0  0  0  0  0  0  0  0  0  0  0  0
  -18.0603  -32.1775   21.7051 C   0  0  0  0  0  0  0  0  0  0  0  0
  -20.6688  -31.6832   20.8698 C   0  0  0  0  0  0  0  0  0  0  0  0
  -25.0646  -27.7862   19.1390 C   0  0  0  0  0  0  0  0  0  0  0  0
  -30.8371  -20.9165   19.4200 C   0  0  0  0  0  0  0  0  0  0  0  0
  -30.0421  -22.1327   21.3503 C   0  0  0  0  0  0  0  0  0  0  0  0
  -27.7156   -9.5958   21.4586 C   0  0  0  0  0  0  0  0  0  0  0  0
  -26.1556  -10.8999   20.1536 C   0  0  0  0  0  0  0  0  0  0  0  0
  -26.4400  -27.9390   18.9691 C   0  0  0  0  0  0  0  0  0  0  0  0
  -23.3923   -8.5498   19.9279 C   0  0  0  0  0  0  0  0  0  0  0  0
  -22.0338   -8.7712   20.1538 C   0  0  0  0  0  0  0  0  0  0  0  0
  -26.8042  -27.0776   21.1927 C   0  0  0  0  0  0  0  0  0  0  0  0
  -22.5357   -9.5872   22.3718 C   0  0  0  0  0  0  0  0  0  0  0  0
  -28.2209  -11.8952   20.9158 C   0  0  0  0  0  0  0  0  0  0  0  0
  -30.4233  -23.2917   19.2650 C   0  0  0  0  0  0  0  0  0  0  0  0
  -30.1365  -13.3656   20.0937 C   0  0  0  0  0  0  0  0  0  0  0  0
  -18.9292  -31.4659   22.5473 C   0  0  0  0  0  0  0  0  0  0  0  0
  -24.5473  -27.2873   20.3431 C   0  0  0  0  0  0  0  0  0  0  0  0
  -20.2522  -31.2238   22.1308 C   0  0  0  0  0  0  0  0  0  0  0  0
  -25.4221  -26.9170   21.3744 C   0  0  0  0  0  0  0  0  0  0  0  0
  -30.4451  -20.9355   20.7585 C   0  0  0  0  0  0  0  0  0  0  0  0
  -26.5072   -9.6987   20.7696 C   0  0  0  0  0  0  0  0  0  0  0  0
  -27.3098  -27.5874   19.9971 C   0  0  0  0  0  0  0  0  0  0  0  0
  -24.3225   -8.8469   20.9240 C   0  0  0  0  0  0  0  0  0  0  0  0
  -21.6055   -9.2899   21.3758 C   0  0  0  0  0  0  0  0  0  0  0  0
  -23.8942   -9.3657   22.1459 C   0  0  0  0  0  0  0  0  0  0  0  0
  -29.1054  -13.0301   20.9914 C   0  0  0  0  0  0  0  0  0  0  0  0
  -30.6741  -14.5216   20.6047 C   0  0  0  0  0  0  0  0  0  0  0  0
  -30.4119  -24.5465   18.4698 C   0  0  0  0  0  0  0  0  0  0  0  0
  -30.5696  -12.6925   18.9041 C   0  0  0  0  0  0  0  0  0  0  0  0
  -22.6213  -28.4275   22.6002 C   0  0  0  0  0  0  0  0  0  0  0  0
  -22.8510  -25.4117   23.7727 C   0  0  0  0  0  0  0  0  0  0  0  0
  -24.6281  -22.5044   23.9621 C   0  0  0  0  0  0  0  0  0  0  0  0
  -30.0981  -19.5821   22.8547 C   0  0  0  0  0  0  0  0  0  0  0  0
  -18.4351  -31.0400   23.9071 C   0  0  0  0  0  0  0  0  0  0  0  0
  -23.0627  -27.1035   20.5006 C   0  0  0  0  0  0  0  0  0  0  0  0
  -24.9184  -26.3578   22.6790 C   0  0  0  0  0  0  0  0  0  0  0  0
  -19.3136  -29.9825   24.5706 C   0  0  0  0  0  0  0  0  0  0  0  0
  -29.9535  -16.7972   25.0684 C   0  0  0  0  0  0  0  0  0  0  0  0
  -20.7860  -30.3655   24.4597 C   0  0  0  0  0  0  0  0  0  0  0  0
  -29.8048  -15.5964   24.1312 C   0  0  0  0  0  0  0  0  0  0  0  0
  -29.1878  -18.0154   24.5552 C   0  0  0  0  0  0  0  0  0  0  0  0
  -29.3442  -17.2024   22.2349 C   0  0  0  0  0  0  0  0  0  0  0  0
  -21.2252  -30.4492   22.9929 C   0  0  1  0  0  0  0  0  0  0  0  0
  -22.6165  -27.0686   21.9591 C   0  0  1  0  0  0  0  0  0  0  0  0
  -30.1511  -15.9706   22.6767 C   0  0  2  0  0  0  0  0  0  0  0  0
  -24.5812  -20.2327   25.0273 C   0  0  0  0  0  0  0  0  0  0  0  0
  -23.6954  -26.6444   26.4330 C   0  0  0  0  0  0  0  0  0  0  0  0
  -24.5337  -24.3911   27.1315 C   0  0  0  0  0  0  0  0  0  0  0  0
  -22.1119  -24.7189   26.6314 C   0  0  0  0  0  0  0  0  0  0  0  0
  -24.5686  -21.1454   21.3337 C   0  0  0  0  0  0  0  0  0  0  0  0
  -30.5635  -27.0213   18.5620 C   0  0  0  0  0  0  0  0  0  0  0  0
  -29.1642  -27.6080   18.5082 C   0  0  0  0  0  0  0  0  0  1  0  0
  -23.7792  -24.7050   24.7308 C   0  0  1  0  0  0  0  0  0  0  0  0
  -24.2074  -21.0544   23.8035 C   0  0  2  0  0  0  0  0  0  0  0  0
  -23.5397  -25.1272   26.2079 C   0  0  0  0  0  0  0  0  0  0  0  0
  -28.9929  -13.9024   21.9967 N   0  0  0  0  0  0  0  0  0  0  0  0
  -29.9603  -14.7973   21.7337 N   0  0  0  0  0  0  0  0  0  0  0  0
  -23.4583  -26.2027   22.7872 N   0  0  0  0  0  0  0  0  0  0  0  0
  -29.5704  -18.3129   23.1732 N   0  0  0  0  0  0  0  0  0  0  0  0
  -31.6831  -15.3189   20.1940 N   0  0  0  0  0  0  0  0  0  0  0  0
  -29.9077  -11.5175   18.5226 N   0  0  0  0  0  0  0  0  0  0  0  0
  -30.4564  -19.7382   21.5161 N   0  0  0  0  0  0  0  0  0  0  0  0
  -30.5763  -25.7251   19.1866 N   0  0  0  0  0  0  0  0  0  0  0  0
  -21.4368  -29.1236   22.4522 N   0  0  0  0  0  0  0  0  0  0  0  0
  -23.6118  -23.2771   24.4829 N   0  0  0  0  0  0  0  0  0  0  0  0
  -24.8684  -20.4506   22.6121 N   0  3  0  0  0  0  0  0  0  0  0  0
  -30.2419  -24.4854   17.2549 O   0  0  0  0  0  0  0  0  0  0  0  0
  -31.5263  -13.1114   18.2093 O   0  0  0  0  0  0  0  0  0  0  0  0
  -23.6248  -28.8151   23.1870 O   0  0  0  0  0  0  0  0  0  0  0  0
  -21.6322  -25.2616   23.8898 O   0  0  0  0  0  0  0  0  0  0  0  0
  -25.7477  -22.9101   23.6581 O   0  0  0  0  0  0  0  0  0  0  0  0
  -30.2482  -20.4563   23.7122 O   0  0  0  0  0  0  0  0  0  0  0  0
  -25.6710   -8.6272   20.6979 O   0  0  0  0  0  0  0  0  0  0  0  0
  -28.6527  -27.7361   19.8342 O   0  0  0  0  0  0  0  0  0  1  0  0
  -20.3011   -9.5040   21.5920 F   0  0  0  0  0  0  0  0  0  0  0  0
  -24.7833   -9.6542   23.1062 F   0  0  0  0  0  0  0  0  0  0  0  0
  1  2  1  0  0  0  0
  1  7  2  0  0  0  0
  2  8  2  0  0  0  0
  3 12  2  0  0  0  0
  3 19  1  0  0  0  0
  4 13  1  0  0  0  0
  4 19  2  0  0  0  0
  5 10  2  0  0  0  0
  5 20  1  0  0  0  0
  6 11  1  0  0  0  0
  6 20  2  0  0  0  0
  7 22  1  0  0  0  0
  8 24  1  0  0  0  0
  9 14  2  0  0  0  0
  9 23  1  0  0  0  0
 10 26  1  0  0  0  0
 11 26  2  0  0  0  0
 12 27  1  0  0  0  0
 13 27  2  0  0  0  0
 14 28  1  0  0  0  0
 15 16  2  0  0  0  0
 15 29  1  0  0  0  0
 16 30  1  0  0  0  0
 17 25  1  0  0  0  0
 17 28  2  0  0  0  0
 18 30  2  0  0  0  0
 18 31  1  0  0  0  0
 19 32  1  0  0  0  0
 20 34  1  0  0  0  0
 21 32  1  0  0  0  0
 21 33  2  0  0  0  0
 21 35  1  0  0  0  0
 22 24  2  0  0  0  0
 22 40  1  0  0  0  0
 23 25  2  0  0  0  0
 23 41  1  0  0  0  0
 24 49  1  0  0  0  0
 25 42  1  0  0  0  0
 26 68  1  0  0  0  0
 27 79  1  0  0  0  0
 28 80  1  0  0  0  0
 29 31  2  0  0  0  0
 29 79  1  0  0  0  0
 30 81  1  0  0  0  0
 31 82  1  0  0  0  0
 32 62  2  0  0  0  0
 33 63  1  0  0  0  0
 33 66  1  0  0  0  0
 34 69  1  0  0  0  0
 34 73  2  0  0  0  0
 35 67  1  0  0  0  0
 35 74  2  0  0  0  0
 36 50  1  0  0  0  0
 36 70  1  0  0  0  0
 36 75  2  0  0  0  0
 37 59  1  0  0  0  0
 37 64  1  0  0  0  0
 37 76  2  0  0  0  0
 38 60  1  0  0  0  0
 38 71  1  0  0  0  0
 38 77  2  0  0  0  0
 39 65  1  0  0  0  0
 39 68  1  0  0  0  0
 39 78  2  0  0  0  0
 40 43  1  0  0  0  0
 41 50  1  0  0  0  0
 42 64  1  0  0  0  0
 43 45  1  0  0  0  0
 44 46  1  0  0  0  0
 44 47  1  0  0  0  0
 45 49  1  0  0  0  0
 46 51  1  0  0  0  0
 47 65  1  0  0  0  0
 48 51  1  0  0  0  0
 48 65  1  0  0  0  0
 49 70  1  0  0  0  0
 50 64  1  0  0  0  0
 51 63  1  0  0  0  0
 52 60  1  0  0  0  0
 53 61  1  0  0  0  0
 54 61  1  0  0  0  0
 55 61  1  0  0  0  0
 56 72  1  0  0  0  0
 57 58  1  0  0  0  0
 57 69  1  0  0  0  0
 58 80  1  0  0  0  0
 59 61  1  0  0  0  0
 59 71  1  0  0  0  0
 60 72  1  0  0  0  0
 62 63  1  0  0  0  0
M  CHG  1  72   1
M  ISO  4  39 100  58 101  68 100  80 101
M  END
> <Batch ID>
0003

> <Smiles>
CNC(C)C(=O)NC(C(=O)N1Cc2cc([101O:1][101CH2:1]CNC(=O)c3ccc([100NH:0][100C:0](=O)N4CCCC(n5nc(-c6ccc(Oc7ccc(F)cc7F)cc6)c(C(N)=O)c5N)C4)cc3)ccc2CC1C(=O)NC1CCCc2ccccc21)C(C)(C)C

> <Shape>
0.229

> <Color>
0.084

> <Negative vol penalty>
0.000

$$$$

  -OEChem-04042320203D

 83 92  0     1  0  0  0  0  0999 V2000
  -27.1636  -37.9496   23.2949 C   0  0  0  0  0  0  0  0  0  0  0  0
  -27.7653  -37.0444   22.4266 C   0  0  0  0  0  0  0  0  0  0  0  0
  -25.1093   -9.3688   20.2340 C   0  0  0  0  0  0  0  0  0  0  0  0
  -24.4516   -9.7984   22.5187 C   0  0  0  0  0  0  0  0  0  0  0  0
  -26.4225  -37.4851   24.3807 C   0  0  0  0  0  0  0  0  0  0  0  0
  -27.6272  -35.6740   22.6443 C   0  0  0  0  0  0  0  0  0  0  0  0
  -31.1830  -22.7784   19.3171 C   0  0  0  0  0  0  0  0  0  0  0  0
  -28.9375  -21.9885   18.9037 C   0  0  0  0  0  0  0  0  0  0  0  0
  -27.1529  -29.4757   19.0845 C   0  0  0  0  0  0  0  0  0  0  0  0
  -30.7335  -24.0966   19.2404 C   0  0  0  0  0  0  0  0  0  0  0  0
  -28.4879  -23.3067   18.8271 C   0  0  0  0  0  0  0  0  0  0  0  0
  -24.9278   -8.0011   20.4389 C   0  0  0  0  0  0  0  0  0  0  0  0
  -24.2701   -8.4306   22.7236 C   0  0  0  0  0  0  0  0  0  0  0  0
  -27.7369  -28.2104   19.0424 C   0  0  0  0  0  0  0  0  0  0  0  0
  -21.9301   -6.0968   22.0175 C   0  0  0  0  0  0  0  0  0  0  0  0
  -20.7744   -5.6908   22.6846 C   0  0  0  0  0  0  0  0  0  0  0  0
  -26.3674  -27.5229   20.9054 C   0  0  0  0  0  0  0  0  0  0  0  0
  -22.1270   -4.6770   24.4108 C   0  0  0  0  0  0  0  0  0  0  0  0
  -24.8712  -10.2674   21.2739 C   0  0  0  0  0  0  0  0  0  0  0  0
  -24.1002  -12.6076   20.6129 C   0  0  0  0  0  0  0  0  0  0  0  0
  -30.2851  -21.7243   19.1486 C   0  0  0  0  0  0  0  0  0  0  0  0
  -26.2672  -36.1083   24.6063 C   0  0  0  0  0  0  0  0  0  0  0  0
  -26.1779  -29.7780   20.0460 C   0  0  0  0  0  0  0  0  0  0  0  0
  -26.8844  -35.1907   23.7349 C   0  0  0  0  0  0  0  0  0  0  0  0
  -25.7707  -28.7920   20.9560 C   0  0  0  0  0  0  0  0  0  0  0  0
  -29.3859  -24.3607   18.9955 C   0  0  0  0  0  0  0  0  0  0  0  0
  -24.5082   -7.5320   21.6837 C   0  0  0  0  0  0  0  0  0  0  0  0
  -27.3463  -27.2347   19.9548 C   0  0  0  0  0  0  0  0  0  0  0  0
  -23.1843   -5.7929   22.5470 C   0  0  0  0  0  0  0  0  0  0  0  0
  -20.8728   -4.9809   23.8813 C   0  0  0  0  0  0  0  0  0  0  0  0
  -23.2827   -5.0830   23.7437 C   0  0  0  0  0  0  0  0  0  0  0  0
  -25.0591  -11.6804   21.0631 C   0  0  0  0  0  0  0  0  0  0  0  0
  -24.7701  -13.8062   20.5813 C   0  0  0  0  0  0  0  0  0  0  0  0
  -22.7268  -12.4036   20.2554 C   0  0  0  0  0  0  0  0  0  0  0  0
  -25.9582  -31.8556   22.4416 C   0  0  0  0  0  0  0  0  0  0  0  0
  -22.9252  -30.7213   22.6321 C   0  0  0  0  0  0  0  0  0  0  0  0
  -20.7385  -28.1776   22.0036 C   0  0  0  0  0  0  0  0  0  0  0  0
  -29.4545  -16.4216   18.9052 C   0  0  0  0  0  0  0  0  0  0  0  0
  -25.4962  -35.6541   25.8203 C   0  0  0  0  0  0  0  0  0  0  0  0
  -25.5384  -31.1393   20.0611 C   0  0  0  0  0  0  0  0  0  0  0  0
  -24.7136  -29.0596   21.9949 C   0  0  0  0  0  0  0  0  0  0  0  0
  -25.0858  -34.1847   25.7666 C   0  0  0  0  0  0  0  0  0  0  0  0
  -29.2869  -15.1222   22.4116 C   0  0  0  0  0  0  0  0  0  0  0  0
  -26.2628  -33.3173   25.3317 C   0  0  0  0  0  0  0  0  0  0  0  0
  -28.1285  -14.1325   22.2992 C   0  0  0  0  0  0  0  0  0  0  0  0
  -30.1195  -19.5256   20.3968 C   0  0  0  0  0  0  0  0  0  0  0  0
  -30.5729  -19.5337   17.9061 C   0  0  0  0  0  0  0  0  0  0  0  0
  -30.0163  -15.2739   21.0819 C   0  0  0  0  0  0  0  0  0  0  0  0
  -30.5920  -18.0703   20.4555 C   0  0  0  0  0  0  0  0  0  0  0  0
  -31.0579  -18.0919   18.0280 C   0  0  0  0  0  0  0  0  0  0  0  0
  -27.9661  -14.6812   19.8288 C   0  0  0  0  0  0  0  0  0  0  0  0
  -30.7732  -20.2903   19.2318 C   0  0  0  0  0  0  0  0  0  0  0  0
  -26.7368  -33.6964   23.9235 C   0  0  1  0  0  0  0  0  0  0  0  0
  -24.9250  -31.4963   21.4115 C   0  0  1  0  0  0  0  0  0  0  0  0
  -27.1879  -14.5165   21.1444 C   0  0  1  0  0  0  0  0  0  0  0  0
  -18.3343  -27.5262   22.3084 C   0  0  0  0  0  0  0  0  0  0  0  0
  -23.4546  -30.1578   25.5837 C   0  0  0  0  0  0  0  0  0  0  0  0
  -21.4340  -28.6795   25.5922 C   0  0  0  0  0  0  0  0  0  0  0  0
  -21.1956  -31.1119   25.0926 C   0  0  0  0  0  0  0  0  0  0  0  0
  -20.3087  -27.9524   19.0841 C   0  0  0  0  0  0  0  0  0  0  0  0
  -28.9057  -25.7705   18.9155 C   0  0  0  0  0  0  0  0  0  1  0  0
  -22.2511  -29.5906   23.3710 C   0  0  1  0  0  0  0  0  0  0  0  0
  -19.3537  -28.1703   21.3817 C   0  0  2  0  0  0  0  0  0  0  0  0
  -22.1052  -29.8802   24.8917 C   0  0  0  0  0  0  0  0  0  0  0  0
  -26.2476  -12.2417   21.3002 N   0  0  0  0  0  0  0  0  0  0  0  0
  -26.0401  -13.5346   20.9978 N   0  0  0  0  0  0  0  0  0  0  0  0
  -24.1225  -30.4079   21.9733 N   0  0  0  0  0  0  0  0  0  0  0  0
  -29.0916  -15.6045   19.9889 N   0  0  0  0  0  0  0  0  0  0  0  0
  -30.4146  -17.4141   19.1533 N   0  0  0  0  0  0  0  0  0  0  0  0
  -24.3907  -15.0555   20.2379 N   0  0  0  0  0  0  0  0  0  0  0  0
  -22.1981  -11.1088   20.3459 N   0  0  0  0  0  0  0  0  0  0  0  0
  -25.8460  -33.1453   22.9249 N   0  0  0  0  0  0  0  0  0  0  0  0
  -20.9864  -29.3508   22.6844 N   0  0  0  0  0  0  0  0  0  0  0  0
  -19.3663  -27.4133   20.0981 N   0  3  0  0  0  0  0  0  0  0  0  0
  -21.9948  -13.3388   19.8516 O   0  0  0  0  0  0  0  0  0  0  0  0
  -26.7944  -31.0239   22.7743 O   0  0  0  0  0  0  0  0  0  0  0  0
  -22.4047  -31.8397   22.6331 O   0  0  0  0  0  0  0  0  0  0  0  0
  -21.5205  -27.2353   21.8992 O   0  0  0  0  0  0  0  0  0  0  0  0
  -28.9481  -16.2747   17.7859 O   0  0  0  0  0  0  0  0  0  0  0  0
  -24.3308   -6.1974   21.8839 O   0  0  0  0  0  0  0  0  0  0  0  0
  -27.9191  -25.9906   19.9160 O   0  0  0  0  0  0  0  0  0  1  0  0
  -19.7629   -4.5924   24.5226 F   0  0  0  0  0  0  0  0  0  0  0  0
  -24.4848   -4.7892   24.2579 F   0  0  0  0  0  0  0  0  0  0  0  0
  1  2  1  0  0  0  0
  1  5  2  0  0  0  0
  2  6  2  0  0  0  0
  3 12  2  0  0  0  0
  3 19  1  0  0  0  0
  4 13  1  0  0  0  0
  4 19  2  0  0  0  0
  5 22  1  0  0  0  0
  6 24  1  0  0  0  0
  7 10  2  0  0  0  0
  7 21  1  0  0  0  0
  8 11  1  0  0  0  0
  8 21  2  0  0  0  0
  9 14  2  0  0  0  0
  9 23  1  0  0  0  0
 10 26  1  0  0  0  0
 11 26  2  0  0  0  0
 12 27  1  0  0  0  0
 13 27  2  0  0  0  0
 14 28  1  0  0  0  0
 15 16  2  0  0  0  0
 15 29  1  0  0  0  0
 16 30  1  0  0  0  0
 17 25  1  0  0  0  0
 17 28  2  0  0  0  0
 18 30  2  0  0  0  0
 18 31  1  0  0  0  0
 19 32  1  0  0  0  0
 20 32  1  0  0  0  0
 20 33  2  0  0  0  0
 20 34  1  0  0  0  0
 21 52  1  0  0  0  0
 22 24  2  0  0  0  0
 22 39  1  0  0  0  0
 23 25  2  0  0  0  0
 23 40  1  0  0  0  0
 24 53  1  0  0  0  0
 25 41  1  0  0  0  0
 26 61  1  0  0  0  0
 27 80  1  0  0  0  0
 28 81  1  0  0  0  0
 29 31  2  0  0  0  0
 29 80  1  0  0  0  0
 30 82  1  0  0  0  0
 31 83  1  0  0  0  0
 32 65  2  0  0  0  0
 33 66  1  0  0  0  0
 33 70  1  0  0  0  0
 34 71  1  0  0  0  0
 34 75  2  0  0  0  0
 35 54  1  0  0  0  0
 35 72  1  0  0  0  0
 35 76  2  0  0  0  0
 36 62  1  0  0  0  0
 36 67  1  0  0  0  0
 36 77  2  0  0  0  0
 37 63  1  0  0  0  0
 37 73  1  0  0  0  0
 37 78  2  0  0  0  0
 38 68  1  0  0  0  0
 38 69  1  0  0  0  0
 38 79  2  0  0  0  0
 39 42  1  0  0  0  0
 40 54  1  0  0  0  0
 41 67  1  0  0  0  0
 42 44  1  0  0  0  0
 43 45  1  0  0  0  0
 43 48  1  0  0  0  0
 44 53  1  0  0  0  0
 45 55  1  0  0  0  0
 46 49  1  0  0  0  0
 46 52  1  0  0  0  0
 47 50  1  0  0  0  0
 47 52  1  0  0  0  0
 48 68  1  0  0  0  0
 49 69  1  0  0  0  0
 50 69  1  0  0  0  0
 51 55  1  0  0  0  0
 51 68  1  0  0  0  0
 53 72  1  0  0  0  0
 54 67  1  0  0  0  0
 55 66  1  0  0  0  0
 56 63  1  0  0  0  0
 57 64  1  0  0  0  0
 58 64  1  0  0  0  0
 59 64  1  0  0  0  0
 60 74  1  0  0  0  0
 61 81  1  0  0  0  0
 62 64  1  0  0  0  0
 62 73  1  0  0  0  0
 63 74  1  0  0  0  0
 65 66  1  0  0  0  0
M  CHG  1  74   1
M  ISO  4  38 100  61 101  69 100  81 101
M  END
> <Batch ID>
0003

> <Smiles>
CNC(C)C(=O)NC(C(=O)N1Cc2cc([101O:1][101CH2:1]c3ccc(C4CC[100N:0]([100C:0](=O)N5CCCC(n6nc(-c7ccc(Oc8ccc(F)cc8F)cc7)c(C(N)=O)c6N)C5)CC4)cc3)ccc2CC1C(=O)NC1CCCc2ccccc21)C(C)(C)C

> <Shape>
0.351

> <Color>
0.116

> <Negative vol penalty>
0.000

$$$$

  -OEChem-04042320203D

103114  0     1  0  0  0  0  0999 V2000
  -16.9364  -28.5858   19.8424 C   0  0  0  0  0  0  0  0  0  0  0  0
  -18.0817  -29.3417   19.6138 C   0  0  0  0  0  0  0  0  0  0  0  0
  -23.3186   -9.7148   21.7257 C   0  0  0  0  0  0  0  0  0  0  0  0
  -24.6896  -10.5502   23.5312 C   0  0  0  0  0  0  0  0  0  0  0  0
  -16.5289  -28.3173   21.1485 C   0  0  0  0  0  0  0  0  0  0  0  0
  -18.8197  -29.8305   20.6912 C   0  0  0  0  0  0  0  0  0  0  0  0
  -32.3751  -20.7793   23.2695 C   0  0  0  0  0  0  0  0  0  0  0  0
  -30.3161  -21.0766   22.0411 C   0  0  0  0  0  0  0  0  0  0  0  0
  -24.0758  -26.4696   25.8291 C   0  0  0  0  0  0  0  0  0  0  0  0
  -31.8448  -21.5071   24.3347 C   0  0  0  0  0  0  0  0  0  0  0  0
  -29.7857  -21.8044   23.1063 C   0  0  0  0  0  0  0  0  0  0  0  0
  -22.8221   -8.7169   22.5644 C   0  0  0  0  0  0  0  0  0  0  0  0
  -24.1930   -9.5523   24.3699 C   0  0  0  0  0  0  0  0  0  0  0  0
  -24.4401  -25.1236   25.8719 C   0  0  0  0  0  0  0  0  0  0  0  0
  -20.9232   -6.1711   24.3329 C   0  0  0  0  0  0  0  0  0  0  0  0
  -19.5487   -5.9344   24.3161 C   0  0  0  0  0  0  0  0  0  0  0  0
  -23.3410  -24.7477   23.7509 C   0  0  0  0  0  0  0  0  0  0  0  0
  -19.1478   -8.2127   25.0130 C   0  0  0  0  0  0  0  0  0  0  0  0
  -24.2524  -10.6314   22.2091 C   0  0  0  0  0  0  0  0  0  0  0  0
  -24.0294  -12.6665   20.6872 C   0  0  0  0  0  0  0  0  0  0  0  0
  -31.6108  -20.5641   22.1226 C   0  0  0  0  0  0  0  0  0  0  0  0
  -17.2677  -28.7949   22.2425 C   0  0  0  0  0  0  0  0  0  0  0  0
  -23.3552  -26.9637   24.7382 C   0  0  0  0  0  0  0  0  0  0  0  0
  -18.4210  -29.5693   22.0132 C   0  0  0  0  0  0  0  0  0  0  0  0
  -22.9841  -26.0977   23.6965 C   0  0  0  0  0  0  0  0  0  0  0  0
  -30.5500  -22.0196   24.2531 C   0  0  0  0  0  0  0  0  0  0  0  0
  -23.2593   -8.6357   23.8865 C   0  0  0  0  0  0  0  0  0  0  0  0
  -24.0733  -24.2648   24.8355 C   0  0  0  0  0  0  0  0  0  0  0  0
  -21.4100   -7.4286   24.6898 C   0  0  0  0  0  0  0  0  0  0  0  0
  -18.6610   -6.9552   24.6561 C   0  0  0  0  0  0  0  0  0  0  0  0
  -20.5223   -8.4494   25.0298 C   0  0  0  0  0  0  0  0  0  0  0  0
  -24.7661  -11.6620   21.3431 C   0  0  0  0  0  0  0  0  0  0  0  0
  -24.9718  -13.3862   19.9940 C   0  0  0  0  0  0  0  0  0  0  0  0
  -22.6194  -12.9259   20.7032 C   0  0  0  0  0  0  0  0  0  0  0  0
  -21.7438  -29.9291   23.0995 C   0  0  0  0  0  0  0  0  0  0  0  0
  -32.1429  -15.3374   19.5199 C   0  0  0  0  0  0  0  0  0  0  0  0
  -23.1213  -28.3230   20.8785 C   0  0  0  0  0  0  0  0  0  0  0  0
  -26.1113  -29.9653   20.8728 C   0  0  0  0  0  0  0  0  0  0  0  0
  -30.8440  -14.2441   20.7886 C   0  0  0  0  0  0  0  0  0  0  0  0
  -16.7617  -28.5189   23.6362 C   0  0  0  0  0  0  0  0  0  0  0  0
  -22.8884  -28.3928   24.6795 C   0  0  0  0  0  0  0  0  0  0  0  0
  -22.1792  -26.6657   22.5597 C   0  0  0  0  0  0  0  0  0  0  0  0
  -17.8076  -28.7574   24.7223 C   0  0  0  0  0  0  0  0  0  0  0  0
  -28.1275  -18.6394   19.9187 C   0  0  0  0  0  0  0  0  0  0  0  0
  -29.4747  -18.8562   20.6006 C   0  0  0  0  0  0  0  0  0  0  0  0
  -28.1632  -17.4601   18.9516 C   0  0  0  0  0  0  0  0  0  0  0  0
  -29.2465  -12.9154   17.8973 C   0  0  0  0  0  0  0  0  0  0  0  0
  -33.9781  -14.2476   22.5357 C   0  0  0  0  0  0  0  0  0  0  0  0
  -32.7259  -19.8621   18.5161 C   0  0  0  0  0  0  0  0  0  0  0  0
  -32.2403  -20.6632   19.7211 C   0  0  0  0  0  0  0  0  0  0  0  0
  -18.5177  -30.0884   24.4965 C   0  0  0  0  0  0  0  0  0  0  0  0
  -29.9733  -17.5833   21.2826 C   0  0  0  0  0  0  0  0  0  0  0  0
  -28.6610  -16.1867   19.6332 C   0  0  0  0  0  0  0  0  0  0  0  0
  -27.8506  -12.5341   18.3934 C   0  0  0  0  0  0  0  0  0  0  0  0
  -33.7518  -15.7278   22.8185 C   0  0  0  0  0  0  0  0  0  0  0  0
  -33.6608  -14.1309   21.0537 C   0  0  0  0  0  0  0  0  0  0  0  0
  -30.3126  -12.6593   18.9603 C   0  0  0  0  0  0  0  0  0  0  0  0
  -28.6513  -12.9069   20.7638 C   0  0  0  0  0  0  0  0  0  0  0  0
  -31.8826  -18.6160   18.2909 C   0  0  0  0  0  0  0  0  0  0  0  0
  -31.3295  -18.5303   20.7370 C   0  0  0  0  0  0  0  0  0  0  0  0
  -32.1771  -19.7862   20.9833 C   0  0  2  0  0  0  0  0  0  0  0  0
  -19.2619  -30.0962   23.1558 C   0  0  1  0  0  0  0  0  0  0  0  0
  -22.8866  -28.9689   23.2521 C   0  0  1  0  0  0  0  0  0  0  0  0
  -30.0117  -16.3710   20.3406 C   0  0  0  0  0  0  0  0  0  0  0  0
  -27.5352  -13.1997   19.7465 C   0  0  2  0  0  0  0  0  0  0  0  0
  -32.5401  -16.0738   21.9460 C   0  0  2  0  0  0  0  0  0  0  0  0
  -27.2333  -28.8042   22.7938 C   0  0  0  0  0  0  0  0  0  0  0  0
  -22.2168  -31.6827   19.8052 C   0  0  0  0  0  0  0  0  0  0  0  0
  -23.1294  -31.7285   22.1362 C   0  0  0  0  0  0  0  0  0  0  0  0
  -21.3098  -30.1288   21.5423 C   0  0  0  0  0  0  0  0  0  0  0  0
  -28.1790  -32.2040   22.6977 C   0  0  0  0  0  0  0  0  0  0  0  0
  -29.9793  -22.8013   25.4008 C   0  0  0  0  0  0  0  0  0  0  0  0
  -31.2273  -15.8034   22.6808 C   0  0  0  0  0  0  0  0  0  0  0  0
  -28.5552  -23.2937   25.1639 C   0  0  0  0  0  0  0  0  0  0  0  0
  -26.5025  -21.9263   25.5587 C   0  0  0  0  0  0  0  0  0  0  0  0
  -25.1885  -22.5275   26.0170 C   0  0  0  0  0  0  0  0  0  1  0  0
  -31.1655  -16.4702   19.3388 C   0  0  1  0  0  0  0  0  0  0  0  0
  -23.6503  -29.7205   20.6776 C   0  0  1  0  0  0  0  0  0  0  0  0
  -27.2232  -30.0373   21.9037 C   0  0  2  0  0  0  0  0  0  0  0  0
  -22.5935  -30.8089   21.0183 C   0  0  0  0  0  0  0  0  0  0  0  0
  -26.0754  -11.7338   21.0891 N   0  0  0  0  0  0  0  0  0  0  0  0
  -26.1689  -12.7919   20.2659 N   0  0  0  0  0  0  0  0  0  0  0  0
  -22.7138  -27.9810   22.1736 N   0  0  0  0  0  0  0  0  0  0  0  0
  -32.7032  -15.1960   20.7785 N   0  0  0  0  0  0  0  0  0  0  0  0
  -29.9542  -13.3189   20.2182 N   0  0  0  0  0  0  0  0  0  0  0  0
  -24.8848  -14.4629   19.1844 N   0  0  0  0  0  0  0  0  0  0  0  0
  -22.1100  -13.7896   21.6825 N   0  0  0  0  0  0  0  0  0  0  0  0
  -20.4986  -29.3518   23.2598 N   0  0  0  0  0  0  0  0  0  0  0  0
  -24.8755  -29.8103   21.4645 N   0  0  0  0  0  0  0  0  0  0  0  0
  -30.4244  -14.8280   21.9775 N   0  0  0  0  0  0  0  0  0  0  0  0
  -31.8799  -17.7772   19.5464 N   0  3  1  0  0  0  0  0  0  0  0  0
  -27.0515  -31.2392   22.7679 N   0  3  0  0  0  0  0  0  0  0  0  0
  -27.6262  -22.6902   26.1572 N   0  3  0  0  0  0  0  0  0  0  0  0
  -21.8322  -12.3943   19.8840 O   0  0  0  0  0  0  0  0  0  0  0  0
  -21.9735  -31.1079   22.8557 O   0  0  0  0  0  0  0  0  0  0  0  0
  -32.4051  -14.5958   18.5698 O   0  0  0  0  0  0  0  0  0  0  0  0
  -23.0749  -27.5515   19.9162 O   0  0  0  0  0  0  0  0  0  0  0  0
  -26.3178  -30.0430   19.6638 O   0  0  0  0  0  0  0  0  0  0  0  0
  -31.9296  -14.5325   20.2734 O   0  0  0  0  0  0  0  0  0  0  0  0
  -22.7749   -7.6623   24.7052 O   0  0  0  0  0  0  0  0  0  0  0  0
  -24.4361  -22.9529   24.8815 O   0  0  0  0  0  0  0  0  0  1  0  0
  -17.3410   -6.7282   24.6385 F   0  0  0  0  0  0  0  0  0  0  0  0
  -20.9841   -9.6599   25.3723 F   0  0  0  0  0  0  0  0  0  0  0  0
  1  2  1  0  0  0  0
  1  5  2  0  0  0  0
  2  6  2  0  0  0  0
  3 12  2  0  0  0  0
  3 19  1  0  0  0  0
  4 13  1  0  0  0  0
  4 19  2  0  0  0  0
  5 22  1  0  0  0  0
  6 24  1  0  0  0  0
  7 10  2  0  0  0  0
  7 21  1  0  0  0  0
  8 11  1  0  0  0  0
  8 21  2  0  0  0  0
  9 14  2  0  0  0  0
  9 23  1  0  0  0  0
 10 26  1  0  0  0  0
 11 26  2  0  0  0  0
 12 27  1  0  0  0  0
 13 27  2  0  0  0  0
 14 28  1  0  0  0  0
 15 16  2  0  0  0  0
 15 29  1  0  0  0  0
 16 30  1  0  0  0  0
 17 25  1  0  0  0  0
 17 28  2  0  0  0  0
 18 30  2  0  0  0  0
 18 31  1  0  0  0  0
 19 32  1  0  0  0  0
 20 32  1  0  0  0  0
 20 33  2  0  0  0  0
 20 34  1  0  0  0  0
 21 61  1  0  0  0  0
 22 24  2  0  0  0  0
 22 40  1  0  0  0  0
 23 25  2  0  0  0  0
 23 41  1  0  0  0  0
 24 62  1  0  0  0  0
 25 42  1  0  0  0  0
 26 72  1  0  0  0  0
 27100  1  0  0  0  0
 28101  1  0  0  0  0
 29 31  2  0  0  0  0
 29100  1  0  0  0  0
 30102  1  0  0  0  0
 31103  1  0  0  0  0
 32 81  2  0  0  0  0
 33 82  1  0  0  0  0
 33 86  1  0  0  0  0
 34 87  1  0  0  0  0
 34 94  2  0  0  0  0
 35 63  1  0  0  0  0
 35 88  1  0  0  0  0
 35 95  2  0  0  0  0
 36 77  1  0  0  0  0
 36 84  1  0  0  0  0
 36 96  2  0  0  0  0
 37 78  1  0  0  0  0
 37 83  1  0  0  0  0
 37 97  2  0  0  0  0
 38 79  1  0  0  0  0
 38 89  1  0  0  0  0
 38 98  2  0  0  0  0
 39 85  1  0  0  0  0
 39 90  1  0  0  0  0
 39 99  2  0  0  0  0
 40 43  1  0  0  0  0
 41 63  1  0  0  0  0
 42 83  1  0  0  0  0
 43 51  1  0  0  0  0
 44 45  1  0  0  0  0
 44 46  1  0  0  0  0
 45 52  1  0  0  0  0
 46 53  1  0  0  0  0
 47 54  1  0  0  0  0
 47 57  1  0  0  0  0
 48 55  1  0  0  0  0
 48 56  1  0  0  0  0
 49 50  1  0  0  0  0
 49 59  1  0  0  0  0
 50 61  1  0  0  0  0
 51 62  1  0  0  0  0
 52 64  1  0  0  0  0
 53 64  1  0  0  0  0
 54 65  1  0  0  0  0
 55 66  1  0  0  0  0
 56 84  1  0  0  0  0
 57 85  1  0  0  0  0
 58 65  1  0  0  0  0
 58 85  1  0  0  0  0
 59 91  1  0  0  0  0
 60 61  1  0  0  0  0
 60 91  1  0  0  0  0
 62 88  1  0  0  0  0
 63 83  1  0  0  0  0
 64 77  1  0  0  0  0
 65 82  1  0  0  0  0
 66 73  1  0  0  0  0
 66 84  1  0  0  0  0
 67 79  1  0  0  0  0
 68 80  1  0  0  0  0
 69 80  1  0  0  0  0
 70 80  1  0  0  0  0
 71 92  1  0  0  0  0
 72 74  1  0  0  0  0
 73 90  1  0  0  0  0
 74 93  1  0  0  0  0
 75 76  1  0  0  0  0
 75 93  1  0  0  0  0
 76101  1  0  0  0  0
 77 91  1  0  0  0  0
 78 80  1  0  0  0  0
 78 89  1  0  0  0  0
 79 92  1  0  0  0  0
 81 82  1  0  0  0  0
M  CHG  3  91   1  92   1  93   1
M  ISO  4  39 100  76 101  90 100 101 101
M  END
> <Batch ID>
0003

> <Smiles>
CNC(C)C(=O)NC(C(=O)N1Cc2cc([101O:1][101CH2:1]CNCCc3ccc(C4CCCN(C(C(=O)N5CCCC5C[100NH:0][100C:0](=O)N5CCCC(n6nc(-c7ccc(Oc8ccc(F)cc8F)cc7)c(C(N)=O)c6N)C5)C5CCCCC5)C4)cc3)ccc2CC1C(=O)NC1CCCc2ccccc21)C(C)(C)C

> <Shape>
0.281

> <Color>
0.094

> <Negative vol penalty>
0.000

$$$$

  -OEChem-04042320203D

 83 92  0     1  0  0  0  0  0999 V2000
  -26.7739  -31.6126   27.3735 C   0  0  0  0  0  0  0  0  0  0  0  0
  -27.4346  -30.6311   26.6417 C   0  0  0  0  0  0  0  0  0  0  0  0
  -31.7079  -21.1803   17.2185 C   0  0  0  0  0  0  0  0  0  0  0  0
  -22.8633  -11.2700   20.8606 C   0  0  0  0  0  0  0  0  0  0  0  0
  -23.7854   -9.1173   21.4546 C   0  0  0  0  0  0  0  0  0  0  0  0
  -25.4019  -31.7979   27.2093 C   0  0  0  0  0  0  0  0  0  0  0  0
  -26.7234  -29.8336   25.7460 C   0  0  0  0  0  0  0  0  0  0  0  0
  -31.3470  -20.0538   17.9577 C   0  0  0  0  0  0  0  0  0  0  0  0
  -28.7287  -27.6075   20.4047 C   0  0  0  0  0  0  0  0  0  0  0  0
  -31.3609  -22.4528   17.6722 C   0  0  0  0  0  0  0  0  0  0  0  0
  -21.6612  -10.6574   20.5066 C   0  0  0  0  0  0  0  0  0  0  0  0
  -22.5832   -8.5047   21.1007 C   0  0  0  0  0  0  0  0  0  0  0  0
  -29.2382  -26.3622   20.0395 C   0  0  0  0  0  0  0  0  0  0  0  0
  -18.9364   -9.4223   22.0823 C   0  0  0  0  0  0  0  0  0  0  0  0
  -17.7527  -10.0150   22.5218 C   0  0  0  0  0  0  0  0  0  0  0  0
  -30.2920  -21.4725   19.6044 C   0  0  0  0  0  0  0  0  0  0  0  0
  -27.0460  -25.6925   19.2879 C   0  0  0  0  0  0  0  0  0  0  0  0
  -17.0420  -10.2955   20.2298 C   0  0  0  0  0  0  0  0  0  0  0  0
  -23.9254  -10.4999   21.3345 C   0  0  0  0  0  0  0  0  0  0  0  0
  -25.5260  -11.6344   22.9651 C   0  0  0  0  0  0  0  0  0  0  0  0
  -30.6391  -20.1999   19.1507 C   0  0  0  0  0  0  0  0  0  0  0  0
  -24.6751  -31.0087   26.3040 C   0  0  0  0  0  0  0  0  0  0  0  0
  -27.3695  -27.9013   20.2240 C   0  0  0  0  0  0  0  0  0  0  0  0
  -25.3400  -30.0076   25.5704 C   0  0  0  0  0  0  0  0  0  0  0  0
  -26.5223  -26.9432   19.6493 C   0  0  0  0  0  0  0  0  0  0  0  0
  -30.6530  -22.5989   18.8651 C   0  0  0  0  0  0  0  0  0  0  0  0
  -21.5211   -9.2748   20.6267 C   0  0  0  0  0  0  0  0  0  0  0  0
  -28.3962  -25.4034   19.4837 C   0  0  0  0  0  0  0  0  0  0  0  0
  -19.1729   -9.2662   20.7164 C   0  0  0  0  0  0  0  0  0  0  0  0
  -16.8056  -10.4516   21.5956 C   0  0  0  0  0  0  0  0  0  0  0  0
  -18.2257   -9.7028   19.7902 C   0  0  0  0  0  0  0  0  0  0  0  0
  -25.1677  -11.1320   21.6998 C   0  0  0  0  0  0  0  0  0  0  0  0
  -26.7954  -12.1292   22.7911 C   0  0  0  0  0  0  0  0  0  0  0  0
  -24.7783  -11.6522   24.1883 C   0  0  0  0  0  0  0  0  0  0  0  0
  -24.9584  -28.6427   22.1580 C   0  0  0  0  0  0  0  0  0  0  0  0
  -23.3674  -29.0868   19.3663 C   0  0  0  0  0  0  0  0  0  0  0  0
  -23.0966  -28.3711   16.0404 C   0  0  0  0  0  0  0  0  0  0  0  0
  -30.5934  -14.8869   19.9642 C   0  0  0  0  0  0  0  0  0  0  0  0
  -23.1849  -31.2143   26.1953 C   0  0  0  0  0  0  0  0  0  0  0  0
  -26.8409  -29.2588   20.5984 C   0  0  0  0  0  0  0  0  0  0  0  0
  -25.0596  -27.2161   19.4156 C   0  0  0  0  0  0  0  0  0  0  0  0
  -22.5715  -30.5784   24.9505 C   0  0  0  0  0  0  0  0  0  0  0  0
  -30.0365  -11.6298   18.9495 C   0  0  0  0  0  0  0  0  0  0  0  0
  -23.0871  -29.1542   24.7693 C   0  0  0  0  0  0  0  0  0  0  0  0
  -28.7493  -11.2383   19.6750 C   0  0  0  0  0  0  0  0  0  0  0  0
  -29.2966  -18.0508   19.1733 C   0  0  0  0  0  0  0  0  0  0  0  0
  -31.4784  -18.1922   20.4496 C   0  0  0  0  0  0  0  0  0  0  0  0
  -29.9533  -13.0578   18.4230 C   0  0  0  0  0  0  0  0  0  0  0  0
  -28.9321  -16.8001   19.9784 C   0  0  0  0  0  0  0  0  0  0  0  0
  -31.0525  -16.9582   21.2399 C   0  0  0  0  0  0  0  0  0  0  0  0
  -28.3686  -13.6955   20.2119 C   0  0  0  0  0  0  0  0  0  0  0  0
  -30.2483  -18.9743   19.9549 C   0  0  0  0  0  0  0  0  0  0  0  0
  -24.6076  -29.1390   24.5708 C   0  0  1  0  0  0  0  0  0  0  0  0
  -25.3353  -29.2668   20.8442 C   0  0  1  0  0  0  0  0  0  0  0  0
  -28.4008  -12.2591   20.7727 C   0  0  1  0  0  0  0  0  0  0  0  0
  -21.6728  -28.8537   14.0312 C   0  0  0  0  0  0  0  0  0  0  0  0
  -21.2320  -27.1817   20.4250 C   0  0  0  0  0  0  0  0  0  0  0  0
  -20.3686  -26.9605   18.0854 C   0  0  0  0  0  0  0  0  0  0  0  0
  -20.3396  -29.1825   19.2187 C   0  0  0  0  0  0  0  0  0  0  0  0
  -25.3625  -29.5988   14.5852 C   0  0  0  0  0  0  0  0  0  0  0  0
  -30.2814  -23.9597   19.3499 C   0  0  0  0  0  0  0  0  0  1  0  0
  -22.5444  -28.2100   18.4536 C   0  0  1  0  0  0  0  0  0  0  0  0
  -22.8991  -29.2661   14.8303 C   0  0  2  0  0  0  0  0  0  0  0  0
  -21.1483  -27.8775   19.0517 C   0  0  0  0  0  0  0  0  0  0  0  0
  -26.1315  -11.2930   20.7892 N   0  0  0  0  0  0  0  0  0  0  0  0
  -27.1080  -11.9022   21.4831 N   0  0  0  0  0  0  0  0  0  0  0  0
  -24.5890  -28.5560   19.8041 N   0  0  0  0  0  0  0  0  0  0  0  0
  -29.6171  -13.9958   19.4939 N   0  0  0  0  0  0  0  0  0  0  0  0
  -30.1433  -16.1205   20.4584 N   0  0  0  0  0  0  0  0  0  0  0  0
  -27.6636  -12.7320   23.6310 N   0  0  0  0  0  0  0  0  0  0  0  0
  -23.4893  -11.1018   24.1916 N   0  0  0  0  0  0  0  0  0  0  0  0
  -24.9446  -29.5287   23.2184 N   0  0  0  0  0  0  0  0  0  0  0  0
  -22.4953  -28.8938   17.1658 N   0  0  0  0  0  0  0  0  0  0  0  0
  -24.0886  -29.1968   13.9351 N   0  3  0  0  0  0  0  0  0  0  0  0
  -25.2332  -12.1564   25.2430 O   0  0  0  0  0  0  0  0  0  0  0  0
  -24.6978  -27.4463   22.2059 O   0  0  0  0  0  0  0  0  0  0  0  0
  -22.9453  -30.2044   19.6735 O   0  0  0  0  0  0  0  0  0  0  0  0
  -23.7187  -27.3123   15.9914 O   0  0  0  0  0  0  0  0  0  0  0  0
  -31.7964  -14.5978   19.9449 O   0  0  0  0  0  0  0  0  0  0  0  0
  -20.3482   -8.6768   20.2816 O   0  0  0  0  0  0  0  0  0  0  0  0
  -28.8942  -24.1785   19.1245 O   0  0  0  0  0  0  0  0  0  1  0  0
  -15.6683  -11.0194   22.0179 F   0  0  0  0  0  0  0  0  0  0  0  0
  -18.4468   -9.5545   18.4769 F   0  0  0  0  0  0  0  0  0  0  0  0
  1  2  1  0  0  0  0
  1  6  2  0  0  0  0
  2  7  2  0  0  0  0
  3  8  1  0  0  0  0
  3 10  2  0  0  0  0
  4 11  2  0  0  0  0
  4 19  1  0  0  0  0
  5 12  1  0  0  0  0
  5 19  2  0  0  0  0
  6 22  1  0  0  0  0
  7 24  1  0  0  0  0
  8 21  2  0  0  0  0
  9 13  2  0  0  0  0
  9 23  1  0  0  0  0
 10 26  1  0  0  0  0
 11 27  1  0  0  0  0
 12 27  2  0  0  0  0
 13 28  1  0  0  0  0
 14 15  2  0  0  0  0
 14 29  1  0  0  0  0
 15 30  1  0  0  0  0
 16 21  1  0  0  0  0
 16 26  2  0  0  0  0
 17 25  1  0  0  0  0
 17 28  2  0  0  0  0
 18 30  2  0  0  0  0
 18 31  1  0  0  0  0
 19 32  1  0  0  0  0
 20 32  1  0  0  0  0
 20 33  2  0  0  0  0
 20 34  1  0  0  0  0
 21 52  1  0  0  0  0
 22 24  2  0  0  0  0
 22 39  1  0  0  0  0
 23 25  2  0  0  0  0
 23 40  1  0  0  0  0
 24 53  1  0  0  0  0
 25 41  1  0  0  0  0
 26 61  1  0  0  0  0
 27 80  1  0  0  0  0
 28 81  1  0  0  0  0
 29 31  2  0  0  0  0
 29 80  1  0  0  0  0
 30 82  1  0  0  0  0
 31 83  1  0  0  0  0
 32 65  2  0  0  0  0
 33 66  1  0  0  0  0
 33 70  1  0  0  0  0
 34 71  1  0  0  0  0
 34 75  2  0  0  0  0
 35 54  1  0  0  0  0
 35 72  1  0  0  0  0
 35 76  2  0  0  0  0
 36 62  1  0  0  0  0
 36 67  1  0  0  0  0
 36 77  2  0  0  0  0
 37 63  1  0  0  0  0
 37 73  1  0  0  0  0
 37 78  2  0  0  0  0
 38 68  1  0  0  0  0
 38 69  1  0  0  0  0
 38 79  2  0  0  0  0
 39 42  1  0  0  0  0
 40 54  1  0  0  0  0
 41 67  1  0  0  0  0
 42 44  1  0  0  0  0
 43 45  1  0  0  0  0
 43 48  1  0  0  0  0
 44 53  1  0  0  0  0
 45 55  1  0  0  0  0
 46 49  1  0  0  0  0
 46 52  1  0  0  0  0
 47 50  1  0  0  0  0
 47 52  1  0  0  0  0
 48 68  1  0  0  0  0
 49 69  1  0  0  0  0
 50 69  1  0  0  0  0
 51 55  1  0  0  0  0
 51 68  1  0  0  0  0
 53 72  1  0  0  0  0
 54 67  1  0  0  0  0
 55 66  1  0  0  0  0
 56 63  1  0  0  0  0
 57 64  1  0  0  0  0
 58 64  1  0  0  0  0
 59 64  1  0  0  0  0
 60 74  1  0  0  0  0
 61 81  1  0  0  0  0
 62 64  1  0  0  0  0
 62 73  1  0  0  0  0
 63 74  1  0  0  0  0
 65 66  1  0  0  0  0
M  CHG  1  74   1
M  ISO  4  38 100  61 101  69 100  81 101
M  END
> <Batch ID>
0003

> <Smiles>
CNC(C)C(=O)NC(C(=O)N1Cc2cc([101O:1][101CH2:1]c3cccc(C4CC[100N:0]([100C:0](=O)N5CCCC(n6nc(-c7ccc(Oc8ccc(F)cc8F)cc7)c(C(N)=O)c6N)C5)CC4)c3)ccc2CC1C(=O)NC1CCCc2ccccc21)C(C)(C)C

> <Shape>
0.254

> <Color>
0.091

> <Negative vol penalty>
0.000

$$$$

  -OEChem-04042320203D

 85 95  0     1  0  0  0  0  0999 V2000
  -28.6406  -25.3160   16.0055 C   0  0  0  0  0  0  0  0  0  0  0  0
  -27.4967  -25.2816   16.7965 C   0  0  0  0  0  0  0  0  0  0  0  0
  -28.1613  -16.9913   19.4290 C   0  0  0  0  0  0  0  0  0  0  0  0
  -27.1762  -17.8917   21.4429 C   0  0  0  0  0  0  0  0  0  0  0  0
  -29.7821  -25.9743   16.4609 C   0  0  0  0  0  0  0  0  0  0  0  0
  -27.4940  -25.9047   18.0440 C   0  0  0  0  0  0  0  0  0  0  0  0
  -23.2914  -28.6113   18.8547 C   0  0  0  0  0  0  0  0  0  0  0  0
  -28.8699  -18.1785   19.2448 C   0  0  0  0  0  0  0  0  0  0  0  0
  -27.8848  -19.0789   21.2587 C   0  0  0  0  0  0  0  0  0  0  0  0
  -22.1408  -27.9093   19.2109 C   0  0  0  0  0  0  0  0  0  0  0  0
  -28.2525  -21.2931   18.0860 C   0  0  0  0  0  0  0  0  0  0  0  0
  -28.2738  -21.8419   16.8039 C   0  0  0  0  0  0  0  0  0  0  0  0
  -22.5133  -28.4842   21.5239 C   0  0  0  0  0  0  0  0  0  0  0  0
  -30.6825  -21.6572   16.7650 C   0  0  0  0  0  0  0  0  0  0  0  0
  -27.3144  -16.8479   20.5280 C   0  0  0  0  0  0  0  0  0  0  0  0
  -27.0006  -14.4834   21.4328 C   0  0  0  0  0  0  0  0  0  0  0  0
  -29.7903  -26.6140   17.7105 C   0  0  0  0  0  0  0  0  0  0  0  0
  -24.0690  -29.2470   19.8334 C   0  0  0  0  0  0  0  0  0  0  0  0
  -28.6372  -26.5710   18.5171 C   0  0  0  0  0  0  0  0  0  0  0  0
  -23.6720  -29.1958   21.1772 C   0  0  0  0  0  0  0  0  0  0  0  0
  -28.7317  -19.2223   20.1596 C   0  0  0  0  0  0  0  0  0  0  0  0
  -21.7531  -27.8432   20.5460 C   0  0  0  0  0  0  0  0  0  0  0  0
  -29.4461  -20.9264   18.7077 C   0  0  0  0  0  0  0  0  0  0  0  0
  -29.4888  -22.0240   16.1433 C   0  0  0  0  0  0  0  0  0  0  0  0
  -30.6611  -21.1084   18.0471 C   0  0  0  0  0  0  0  0  0  0  0  0
  -26.5817  -15.6219   20.7186 C   0  0  0  0  0  0  0  0  0  0  0  0
  -25.9545  -13.6010   21.3166 C   0  0  0  0  0  0  0  0  0  0  0  0
  -28.2258  -14.2448   22.1382 C   0  0  0  0  0  0  0  0  0  0  0  0
  -27.0587  -28.9435   20.8693 C   0  0  0  0  0  0  0  0  0  0  0  0
  -26.3031  -31.5635   22.6263 C   0  0  0  0  0  0  0  0  0  0  0  0
  -23.8803  -33.4725   24.0866 C   0  0  0  0  0  0  0  0  0  0  0  0
  -22.7455  -17.1934   19.1162 C   0  0  0  0  0  0  0  0  0  0  0  0
  -31.0631  -27.2726   18.1805 C   0  0  0  0  0  0  0  0  0  0  0  0
  -25.2928  -30.0227   19.4296 C   0  0  0  0  0  0  0  0  0  0  0  0
  -24.4609  -29.8782   22.2637 C   0  0  0  0  0  0  0  0  0  0  0  0
  -30.8575  -28.2283   19.3529 C   0  0  0  0  0  0  0  0  0  0  0  0
  -23.3523  -13.7630   17.6139 C   0  0  0  0  0  0  0  0  0  0  0  0
  -29.9791  -27.5829   20.4200 C   0  0  0  0  0  0  0  0  0  0  0  0
  -23.8113  -12.9558   18.8317 C   0  0  0  0  0  0  0  0  0  0  0  0
  -18.8759  -18.6020   19.1446 C   0  0  0  0  0  0  0  0  0  0  0  0
  -19.7134  -16.1672   18.9666 C   0  0  0  0  0  0  0  0  0  0  0  0
  -23.5927  -15.2616   17.7542 C   0  0  0  0  0  0  0  0  0  0  0  0
  -21.6811  -18.8440   20.6847 C   0  0  0  0  0  0  0  0  0  0  0  0
  -22.6915  -14.8675   20.0524 C   0  0  0  0  0  0  0  0  0  0  0  0
  -18.8416  -21.1045   19.5871 C   0  0  0  0  0  0  0  0  0  0  0  0
  -21.0290  -21.2939   20.6712 C   0  0  0  0  0  0  0  0  0  0  0  0
  -28.5872  -27.2563   19.8655 C   0  0  1  0  0  0  0  0  0  0  0  0
  -26.2910  -30.1999   20.5696 C   0  0  1  0  0  0  0  0  0  0  0  0
  -19.1141  -17.2673   19.7862 C   0  0  1  0  0  0  0  0  0  0  0  0
  -19.3643  -19.7422   20.0307 C   0  0  2  0  0  0  0  0  0  0  0  0
  -20.8813  -19.9408   19.9880 C   0  0  2  0  0  0  0  0  0  0  0  0
  -23.7141  -13.7254   20.1658 C   0  0  2  0  0  0  0  0  0  0  0  0
  -20.5035  -16.7504   20.1145 C   0  0  2  0  0  0  0  0  0  0  0  0
  -23.5723  -35.5320   25.4869 C   0  0  0  0  0  0  0  0  0  0  0  0
  -27.2267  -30.0220   25.0921 C   0  0  0  0  0  0  0  0  0  0  0  0
  -26.0356  -31.7093   26.5072 C   0  0  0  0  0  0  0  0  0  0  0  0
  -27.9235  -32.4233   25.0414 C   0  0  0  0  0  0  0  0  0  0  0  0
  -22.2801  -34.8044   21.9831 C   0  0  0  0  0  0  0  0  0  0  0  0
  -20.2268  -24.3000   21.1437 C   0  0  0  0  0  0  0  0  0  0  0  0
  -19.7245  -25.3247   22.1581 C   0  0  0  0  0  0  0  0  0  0  0  0
  -19.3088  -23.0879   21.0911 C   0  0  0  0  0  0  0  0  0  0  0  0
  -20.6091  -26.5629   22.1916 C   0  0  0  0  0  0  0  0  0  1  0  0
  -25.7089  -31.7986   23.9940 C   0  0  1  0  0  0  0  0  0  0  0  0
  -23.6348  -34.9705   24.0750 C   0  0  2  0  0  0  0  0  0  0  0  0
  -26.7097  -31.4737   25.1387 C   0  0  0  0  0  0  0  0  0  0  0  0
  -25.3644  -15.4786   20.1878 N   0  0  0  0  0  0  0  0  0  0  0  0
  -25.0095  -14.2396   20.5687 N   0  0  0  0  0  0  0  0  0  0  0  0
  -25.6532  -30.6189   21.8194 N   0  0  0  0  0  0  0  0  0  0  0  0
  -23.0015  -15.8173   18.9795 N   0  0  0  0  0  0  0  0  0  0  0  0
  -21.6767  -17.5775   19.9422 N   0  0  0  0  0  0  0  0  0  0  0  0
  -25.7600  -12.3489   21.7821 N   0  0  0  0  0  0  0  0  0  0  0  0
  -29.1938  -15.2582   22.1577 N   0  0  0  0  0  0  0  0  0  0  0  0
  -27.7774  -28.4536   19.7955 N   0  0  0  0  0  0  0  0  0  0  0  0
  -25.2236  -33.1744   23.9972 N   0  0  0  0  0  0  0  0  0  0  0  0
  -19.8640  -22.0948   20.1206 N   0  3  2  0  0  0  0  0  0  0  0  0
  -22.3482  -35.2793   23.3891 N   0  3  0  0  0  0  0  0  0  0  0  0
  -28.4622  -13.1588   22.7198 O   0  0  0  0  0  0  0  0  0  0  0  0
  -27.0043  -28.4555   21.9921 O   0  0  0  0  0  0  0  0  0  0  0  0
  -27.3027  -32.1999   22.2836 O   0  0  0  0  0  0  0  0  0  0  0  0
  -22.9716  -32.6492   24.1706 O   0  0  0  0  0  0  0  0  0  0  0  0
  -23.4435  -18.0369   18.5376 O   0  0  0  0  0  0  0  0  0  0  0  0
  -29.4232  -20.3809   19.9803 O   0  0  0  0  0  0  0  0  0  0  0  0
  -20.6225  -27.1531   20.8991 O   0  0  0  0  0  0  0  0  0  1  0  0
  -29.5091  -22.5496   14.9115 F   0  0  0  0  0  0  0  0  0  0  0  0
  -31.8110  -20.7569   18.6388 F   0  0  0  0  0  0  0  0  0  0  0  0
  1  2  1  0  0  0  0
  1  5  2  0  0  0  0
  2  6  2  0  0  0  0
  3  8  2  0  0  0  0
  3 15  1  0  0  0  0
  4  9  1  0  0  0  0
  4 15  2  0  0  0  0
  5 17  1  0  0  0  0
  6 19  1  0  0  0  0
  7 10  2  0  0  0  0
  7 18  1  0  0  0  0
  8 21  1  0  0  0  0
  9 21  2  0  0  0  0
 10 22  1  0  0  0  0
 11 12  2  0  0  0  0
 11 23  1  0  0  0  0
 12 24  1  0  0  0  0
 13 20  1  0  0  0  0
 13 22  2  0  0  0  0
 14 24  2  0  0  0  0
 14 25  1  0  0  0  0
 15 26  1  0  0  0  0
 16 26  1  0  0  0  0
 16 27  2  0  0  0  0
 16 28  1  0  0  0  0
 17 19  2  0  0  0  0
 17 33  1  0  0  0  0
 18 20  2  0  0  0  0
 18 34  1  0  0  0  0
 19 47  1  0  0  0  0
 20 35  1  0  0  0  0
 21 82  1  0  0  0  0
 22 83  1  0  0  0  0
 23 25  2  0  0  0  0
 23 82  1  0  0  0  0
 24 84  1  0  0  0  0
 25 85  1  0  0  0  0
 26 66  2  0  0  0  0
 27 67  1  0  0  0  0
 27 71  1  0  0  0  0
 28 72  1  0  0  0  0
 28 77  2  0  0  0  0
 29 48  1  0  0  0  0
 29 73  1  0  0  0  0
 29 78  2  0  0  0  0
 30 63  1  0  0  0  0
 30 68  1  0  0  0  0
 30 79  2  0  0  0  0
 31 64  1  0  0  0  0
 31 74  1  0  0  0  0
 31 80  2  0  0  0  0
 32 69  1  0  0  0  0
 32 70  1  0  0  0  0
 32 81  2  0  0  0  0
 33 36  1  0  0  0  0
 34 48  1  0  0  0  0
 35 68  1  0  0  0  0
 36 38  1  0  0  0  0
 37 39  1  0  0  0  0
 37 42  1  0  0  0  0
 38 47  1  0  0  0  0
 39 52  1  0  0  0  0
 40 49  1  0  0  0  0
 40 50  1  0  0  0  0
 41 49  1  0  0  0  0
 41 53  1  0  0  0  0
 42 69  1  0  0  0  0
 43 51  1  0  0  0  0
 43 70  1  0  0  0  0
 44 52  1  0  0  0  0
 44 69  1  0  0  0  0
 45 50  1  0  0  0  0
 45 75  1  0  0  0  0
 46 51  1  0  0  0  0
 46 75  1  0  0  0  0
 47 73  1  0  0  0  0
 48 68  1  0  0  0  0
 49 53  1  0  0  0  0
 50 51  1  0  0  0  0
 52 67  1  0  0  0  0
 53 70  1  0  0  0  0
 54 64  1  0  0  0  0
 55 65  1  0  0  0  0
 56 65  1  0  0  0  0
 57 65  1  0  0  0  0
 58 76  1  0  0  0  0
 59 60  1  0  0  0  0
 59 61  1  0  0  0  0
 60 62  1  0  0  0  0
 61 75  1  0  0  0  0
 62 83  1  0  0  0  0
 63 65  1  0  0  0  0
 63 74  1  0  0  0  0
 64 76  1  0  0  0  0
 66 67  1  0  0  0  0
M  CHG  2  75   1  76   1
M  ISO  4  32 100  62 101  70 100  83 101
M  END
> <Batch ID>
0003

> <Smiles>
CNC(C)C(=O)NC(C(=O)N1Cc2cc([101O:1][101CH2:1]CCCN3CC4CC5CC5[100N:0]([100C:0](=O)N5CCCC(n6nc(-c7ccc(Oc8ccc(F)cc8F)cc7)c(C(N)=O)c6N)C5)CC4C3)ccc2CC1C(=O)NC1CCCc2ccccc21)C(C)(C)C

> <Shape>
0.250

> <Color>
0.093

> <Negative vol penalty>
0.000

$$$$

  -OEChem-04042320203D

 89 98  0     1  0  0  0  0  0999 V2000
  -29.3274  -12.7050   19.5835 C   0  0  0  0  0  0  0  0  0  0  0  0
  -28.9070  -13.9335   19.0841 C   0  0  0  0  0  0  0  0  0  0  0  0
  -28.3842  -23.6729   18.5158 C   0  0  0  0  0  0  0  0  0  0  0  0
  -29.8806  -24.2420   20.3252 C   0  0  0  0  0  0  0  0  0  0  0  0
  -28.4047  -11.8391   20.1689 C   0  0  0  0  0  0  0  0  0  0  0  0
  -27.5633  -14.2964   19.1690 C   0  0  0  0  0  0  0  0  0  0  0  0
  -24.2809  -20.6054   22.4016 C   0  0  0  0  0  0  0  0  0  0  0  0
  -20.3680  -29.4606   22.9578 C   0  0  0  0  0  0  0  0  0  0  0  0
  -20.2649  -28.1559   20.9269 C   0  0  0  0  0  0  0  0  0  0  0  0
  -21.7199  -29.7141   22.7263 C   0  0  0  0  0  0  0  0  0  0  0  0
  -21.6168  -28.4095   20.6954 C   0  0  0  0  0  0  0  0  0  0  0  0
  -28.6461  -22.3190   18.7250 C   0  0  0  0  0  0  0  0  0  0  0  0
  -30.1425  -22.8881   20.5344 C   0  0  0  0  0  0  0  0  0  0  0  0
  -23.5728  -21.5995   23.0773 C   0  0  0  0  0  0  0  0  0  0  0  0
  -31.0989  -20.1139   17.9863 C   0  0  0  0  0  0  0  0  0  0  0  0
  -31.3464  -19.3216   16.8653 C   0  0  0  0  0  0  0  0  0  0  0  0
  -21.6821  -20.1098   23.3097 C   0  0  0  0  0  0  0  0  0  0  0  0
  -29.4474  -17.9367   17.4248 C   0  0  0  0  0  0  0  0  0  0  0  0
  -29.0014  -24.6345   19.3159 C   0  0  0  0  0  0  0  0  0  0  0  0
  -28.9660  -26.7728   17.9252 C   0  0  0  0  0  0  0  0  0  0  0  0
  -27.0507  -12.1957   20.2697 C   0  0  0  0  0  0  0  0  0  0  0  0
  -23.6972  -19.3531   22.1907 C   0  0  0  0  0  0  0  0  0  0  0  0
  -26.6213  -13.4339   19.7551 C   0  0  0  0  0  0  0  0  0  0  0  0
  -22.3912  -19.1060   22.6445 C   0  0  0  0  0  0  0  0  0  0  0  0
  -19.6404  -28.6814   22.0581 C   0  0  0  0  0  0  0  0  0  0  0  0
  -22.3443  -29.1886   21.5952 C   0  0  0  0  0  0  0  0  0  0  0  0
  -29.5253  -21.9265   19.7343 C   0  0  0  0  0  0  0  0  0  0  0  0
  -22.2766  -21.3523   23.5300 C   0  0  0  0  0  0  0  0  0  0  0  0
  -30.0257  -19.8175   18.8267 C   0  0  0  0  0  0  0  0  0  0  0  0
  -30.5206  -18.2331   16.5845 C   0  0  0  0  0  0  0  0  0  0  0  0
  -29.2000  -18.7290   18.5459 C   0  0  0  0  0  0  0  0  0  0  0  0
  -28.7317  -26.0333   19.0999 C   0  0  0  0  0  0  0  0  0  0  0  0
  -28.5430  -28.0436   18.2293 C   0  0  0  0  0  0  0  0  0  0  0  0
  -29.5168  -26.3488   16.6711 C   0  0  0  0  0  0  0  0  0  0  0  0
  -24.0639  -15.8946   20.7835 C   0  0  0  0  0  0  0  0  0  0  0  0
  -17.9104  -26.0687   23.1025 C   0  0  0  0  0  0  0  0  0  0  0  0
  -19.7055  -23.7532   24.1873 C   0  0  0  0  0  0  0  0  0  0  0  0
  -22.6041  -15.6146   23.4670 C   0  0  0  0  0  0  0  0  0  0  0  0
  -21.3979  -15.6962   26.6569 C   0  0  0  0  0  0  0  0  0  0  0  0
  -24.5839  -30.1990   22.1517 C   0  0  0  0  0  0  0  0  0  0  0  0
  -26.0821  -11.2066   20.8682 C   0  0  0  0  0  0  0  0  0  0  0  0
  -24.3997  -18.2729   21.4137 C   0  0  0  0  0  0  0  0  0  0  0  0
  -21.7906  -17.7555   22.3646 C   0  0  0  0  0  0  0  0  0  0  0  0
  -24.7417  -11.8253   21.2565 C   0  0  0  0  0  0  0  0  0  0  0  0
  -16.0144  -23.6386   23.7483 C   0  0  0  0  0  0  0  0  0  0  0  0
  -28.0377  -31.0362   21.9338 C   0  0  0  0  0  0  0  0  0  0  0  0
  -24.2167  -12.7113   20.1312 C   0  0  0  0  0  0  0  0  0  0  0  0
  -16.2356  -24.9156   24.5572 C   0  0  0  0  0  0  0  0  0  0  0  0
  -28.6278  -29.9189   21.0704 C   0  0  0  0  0  0  0  0  0  0  0  0
  -17.3391  -22.9022   23.8696 C   0  0  0  0  0  0  0  0  0  0  0  0
  -26.9433  -30.5161   22.8642 C   0  0  0  0  0  0  0  0  0  0  0  0
  -26.4631  -28.6425   21.3383 C   0  0  0  0  0  0  0  0  0  0  0  0
  -25.1766  -13.8739   19.8509 C   0  0  1  0  0  0  0  0  0  0  0  0
  -24.0912  -16.8575   21.9339 C   0  0  1  0  0  0  0  0  0  0  0  0
  -17.7078  -25.2356   24.3322 C   0  0  1  0  0  0  0  0  0  0  0  0
  -27.5245  -29.1298   20.3385 C   0  0  2  0  0  0  0  0  0  0  0  0
  -20.5268  -14.1986   28.4723 C   0  0  0  0  0  0  0  0  0  0  0  0
  -19.9566  -15.3522   21.9750 C   0  0  0  0  0  0  0  0  0  0  0  0
  -18.8781  -14.7208   24.1444 C   0  0  0  0  0  0  0  0  0  0  0  0
  -20.6810  -13.2876   23.1863 C   0  0  0  0  0  0  0  0  0  0  0  0
  -23.5691  -16.4832   28.5078 C   0  0  0  0  0  0  0  0  0  0  0  0
  -18.1853  -28.4086   22.3074 C   0  0  0  0  0  0  0  0  0  0  0  0
  -20.1718  -22.3247   24.0609 C   0  0  0  0  0  0  0  0  0  1  0  0
  -21.2805  -15.5318   24.1844 C   0  0  1  0  0  0  0  0  0  0  0  0
  -21.7528  -14.8840   27.8894 C   0  0  2  0  0  0  0  0  0  0  0  0
  -20.2131  -14.7477   23.3700 C   0  0  0  0  0  0  0  0  0  0  0  0
  -28.2011  -26.7728   20.0775 N   0  0  0  0  0  0  0  0  0  0  0  0
  -28.0986  -27.9902   19.5176 N   0  0  0  0  0  0  0  0  0  0  0  0
  -22.7893  -16.7021   22.6047 N   0  0  0  0  0  0  0  0  0  0  0  0
  -18.3369  -23.9468   24.0795 N   0  0  0  0  0  0  0  0  0  0  0  0
  -25.9312  -29.7830   22.1006 N   0  0  0  0  0  0  0  0  0  0  0  0
  -28.5116  -29.1904   17.5177 N   0  0  0  0  0  0  0  0  0  0  0  0
  -29.8996  -25.0081   16.5287 N   0  0  0  0  0  0  0  0  0  0  0  0
  -23.7176  -29.4462   21.3596 N   0  0  0  0  0  0  0  0  0  0  0  0
  -25.0268  -14.9060   20.8543 N   0  0  0  0  0  0  0  0  0  0  0  0
  -17.9899  -27.4260   23.3492 N   0  0  0  0  0  0  0  0  0  0  0  0
  -21.5634  -14.9661   25.4990 N   0  0  0  0  0  0  0  0  0  0  0  0
  -22.3422  -15.7641   28.9377 N   0  3  0  0  0  0  0  0  0  0  0  0
  -29.6803  -27.1393   15.7110 O   0  0  0  0  0  0  0  0  0  0  0  0
  -23.2299  -16.0360   19.8968 O   0  0  0  0  0  0  0  0  0  0  0  0
  -17.9907  -25.5219   22.0087 O   0  0  0  0  0  0  0  0  0  0  0  0
  -20.5203  -24.6604   24.3647 O   0  0  0  0  0  0  0  0  0  0  0  0
  -23.4505  -14.7372   23.6596 O   0  0  0  0  0  0  0  0  0  0  0  0
  -21.0090  -16.8606   26.7158 O   0  0  0  0  0  0  0  0  0  0  0  0
  -24.2295  -31.1697   22.8256 O   0  0  0  0  0  0  0  0  0  0  0  0
  -29.7809  -20.6054   19.9389 O   0  0  0  0  0  0  0  0  0  0  0  0
  -21.5927  -22.3258   24.1929 O   0  0  0  0  0  0  0  0  0  1  0  0
  -30.7574  -17.4734   15.5071 F   0  0  0  0  0  0  0  0  0  0  0  0
  -28.1667  -18.4400   19.3489 F   0  0  0  0  0  0  0  0  0  0  0  0
  1  2  1  0  0  0  0
  1  5  2  0  0  0  0
  2  6  2  0  0  0  0
  3 12  2  0  0  0  0
  3 19  1  0  0  0  0
  4 13  1  0  0  0  0
  4 19  2  0  0  0  0
  5 21  1  0  0  0  0
  6 23  1  0  0  0  0
  7 14  2  0  0  0  0
  7 22  1  0  0  0  0
  8 10  2  0  0  0  0
  8 25  1  0  0  0  0
  9 11  1  0  0  0  0
  9 25  2  0  0  0  0
 10 26  1  0  0  0  0
 11 26  2  0  0  0  0
 12 27  1  0  0  0  0
 13 27  2  0  0  0  0
 14 28  1  0  0  0  0
 15 16  2  0  0  0  0
 15 29  1  0  0  0  0
 16 30  1  0  0  0  0
 17 24  1  0  0  0  0
 17 28  2  0  0  0  0
 18 30  2  0  0  0  0
 18 31  1  0  0  0  0
 19 32  1  0  0  0  0
 20 32  1  0  0  0  0
 20 33  2  0  0  0  0
 20 34  1  0  0  0  0
 21 23  2  0  0  0  0
 21 41  1  0  0  0  0
 22 24  2  0  0  0  0
 22 42  1  0  0  0  0
 23 53  1  0  0  0  0
 24 43  1  0  0  0  0
 25 62  1  0  0  0  0
 26 74  1  0  0  0  0
 27 86  1  0  0  0  0
 28 87  1  0  0  0  0
 29 31  2  0  0  0  0
 29 86  1  0  0  0  0
 30 88  1  0  0  0  0
 31 89  1  0  0  0  0
 32 67  2  0  0  0  0
 33 68  1  0  0  0  0
 33 72  1  0  0  0  0
 34 73  1  0  0  0  0
 34 79  2  0  0  0  0
 35 54  1  0  0  0  0
 35 75  1  0  0  0  0
 35 80  2  0  0  0  0
 36 55  1  0  0  0  0
 36 76  1  0  0  0  0
 36 81  2  0  0  0  0
 37 63  1  0  0  0  0
 37 70  1  0  0  0  0
 37 82  2  0  0  0  0
 38 64  1  0  0  0  0
 38 69  1  0  0  0  0
 38 83  2  0  0  0  0
 39 65  1  0  0  0  0
 39 77  1  0  0  0  0
 39 84  2  0  0  0  0
 40 71  1  0  0  0  0
 40 74  1  0  0  0  0
 40 85  2  0  0  0  0
 41 44  1  0  0  0  0
 42 54  1  0  0  0  0
 43 69  1  0  0  0  0
 44 47  1  0  0  0  0
 45 48  1  0  0  0  0
 45 50  1  0  0  0  0
 46 49  1  0  0  0  0
 46 51  1  0  0  0  0
 47 53  1  0  0  0  0
 48 55  1  0  0  0  0
 49 56  1  0  0  0  0
 50 70  1  0  0  0  0
 51 71  1  0  0  0  0
 52 56  1  0  0  0  0
 52 71  1  0  0  0  0
 53 75  1  0  0  0  0
 54 69  1  0  0  0  0
 55 70  1  0  0  0  0
 56 68  1  0  0  0  0
 57 65  1  0  0  0  0
 58 66  1  0  0  0  0
 59 66  1  0  0  0  0
 60 66  1  0  0  0  0
 61 78  1  0  0  0  0
 62 76  1  0  0  0  0
 63 87  1  0  0  0  0
 64 66  1  0  0  0  0
 64 77  1  0  0  0  0
 65 78  1  0  0  0  0
 67 68  1  0  0  0  0
M  CHG  1  78   1
M  ISO  4  40 100  63 101  74 100  87 101
M  END
> <Batch ID>
0003

> <Smiles>
CNC(C)C(=O)NC(C(=O)N1Cc2cc([101O:1][101CH2:1]C(=O)N3CCCC3C(=O)NCc3ccc([100NH:0][100C:0](=O)N4CCCC(n5nc(-c6ccc(Oc7ccc(F)cc7F)cc6)c(C(N)=O)c5N)C4)cc3)ccc2CC1C(=O)NC1CCCc2ccccc21)C(C)(C)C

> <Shape>
0.225

> <Color>
0.067

> <Negative vol penalty>
0.000

$$$$

  -OEChem-04042320203D

 87 96  0     1  0  0  0  0  0999 V2000
  -29.5211  -27.5522   30.7314 C   0  0  0  0  0  0  0  0  0  0  0  0
  -28.3338  -27.1489   30.1287 C   0  0  0  0  0  0  0  0  0  0  0  0
  -23.2878   -9.8685   19.8379 C   0  0  0  0  0  0  0  0  0  0  0  0
  -23.7000   -9.9203   22.2179 C   0  0  0  0  0  0  0  0  0  0  0  0
  -30.5028  -28.1920   29.9759 C   0  0  0  0  0  0  0  0  0  0  0  0
  -28.1271  -27.3863   28.7703 C   0  0  0  0  0  0  0  0  0  0  0  0
  -25.4066  -19.5520   15.9434 C   0  0  0  0  0  0  0  0  0  0  0  0
  -25.6337  -19.1742   18.3188 C   0  0  0  0  0  0  0  0  0  0  0  0
  -24.9164  -24.5448   23.0316 C   0  0  0  0  0  0  0  0  0  0  0  0
  -24.4270  -20.5138   16.1900 C   0  0  0  0  0  0  0  0  0  0  0  0
  -24.6541  -20.1360   18.5655 C   0  0  0  0  0  0  0  0  0  0  0  0
  -22.5404   -8.7010   19.9927 C   0  0  0  0  0  0  0  0  0  0  0  0
  -22.9526   -8.7528   22.3727 C   0  0  0  0  0  0  0  0  0  0  0  0
  -24.0236  -24.8873   22.0170 C   0  0  0  0  0  0  0  0  0  0  0  0
  -19.4281   -7.8516   21.0050 C   0  0  0  0  0  0  0  0  0  0  0  0
  -18.2086   -7.7687   20.3330 C   0  0  0  0  0  0  0  0  0  0  0  0
  -25.8227  -25.9298   20.7941 C   0  0  0  0  0  0  0  0  0  0  0  0
  -18.9998   -5.8242   19.1371 C   0  0  0  0  0  0  0  0  0  0  0  0
  -23.8676  -10.4781   20.9505 C   0  0  0  0  0  0  0  0  0  0  0  0
  -24.1684  -13.0091   20.8443 C   0  0  0  0  0  0  0  0  0  0  0  0
  -26.0100  -18.8822   17.0078 C   0  0  0  0  0  0  0  0  0  0  0  0
  -30.3121  -28.4286   28.6054 C   0  0  0  0  0  0  0  0  0  0  0  0
  -26.2692  -24.9023   22.9399 C   0  0  0  0  0  0  0  0  0  0  0  0
  -29.1067  -28.0311   27.9960 C   0  0  0  0  0  0  0  0  0  0  0  0
  -26.7311  -25.5884   21.8076 C   0  0  0  0  0  0  0  0  0  0  0  0
  -24.0507  -20.8059   17.5010 C   0  0  0  0  0  0  0  0  0  0  0  0
  -22.3728   -8.1432   21.2601 C   0  0  0  0  0  0  0  0  0  0  0  0
  -24.4761  -25.5825   20.8994 C   0  0  0  0  0  0  0  0  0  0  0  0
  -20.4335   -6.9209   20.7430 C   0  0  0  0  0  0  0  0  0  0  0  0
  -17.9944   -6.7550   19.3991 C   0  0  0  0  0  0  0  0  0  0  0  0
  -20.2193   -5.9072   19.8091 C   0  0  0  0  0  0  0  0  0  0  0  0
  -24.6403  -11.6839   20.7912 C   0  0  0  0  0  0  0  0  0  0  0  0
  -25.2857  -13.7801   20.6349 C   0  0  0  0  0  0  0  0  0  0  0  0
  -22.8390  -13.4995   21.0634 C   0  0  0  0  0  0  0  0  0  0  0  0
  -28.2271  -26.7304   24.6513 C   0  0  0  0  0  0  0  0  0  0  0  0
  -30.4680  -25.5552   22.6217 C   0  0  0  0  0  0  0  0  0  0  0  0
  -31.1875  -24.1769   19.5836 C   0  0  0  0  0  0  0  0  0  0  0  0
  -29.9734  -14.9426   18.0681 C   0  0  0  0  0  0  0  0  0  0  0  0
  -31.3823  -29.1660   27.8403 C   0  0  0  0  0  0  0  0  0  0  0  0
  -27.2247  -24.5020   24.0304 C   0  0  0  0  0  0  0  0  0  0  0  0
  -28.1776  -25.9779   21.6517 C   0  0  0  0  0  0  0  0  0  0  0  0
  -31.2411  -29.0446   26.3251 C   0  0  0  0  0  0  0  0  0  0  0  0
  -30.1847  -12.5514   20.5560 C   0  0  0  0  0  0  0  0  0  0  0  0
  -29.7963  -29.2906   25.9023 C   0  0  0  0  0  0  0  0  0  0  0  0
  -28.7248  -12.2104   20.8548 C   0  0  0  0  0  0  0  0  0  0  0  0
  -28.4348  -18.2295   17.3443 C   0  0  0  0  0  0  0  0  0  0  0  0
  -26.6490  -16.4410   17.2309 C   0  0  0  0  0  0  0  0  0  0  0  0
  -30.4121  -12.7144   19.0573 C   0  0  0  0  0  0  0  0  0  0  0  0
  -29.4920  -17.1574   17.0910 C   0  0  0  0  0  0  0  0  0  0  0  0
  -27.7454  -15.4102   16.9785 C   0  0  0  0  0  0  0  0  0  0  0  0
  -28.0635  -13.4056   18.7104 C   0  0  0  0  0  0  0  0  0  0  0  0
  -27.0757  -17.8358   16.7405 C   0  0  0  0  0  0  0  0  0  0  0  0
  -28.8557  -28.2486   26.5196 C   0  0  1  0  0  0  0  0  0  0  0  0
  -28.4804  -25.3674   24.0720 C   0  0  1  0  0  0  0  0  0  0  0  0
  -27.7757  -13.2396   20.2160 C   0  0  1  0  0  0  0  0  0  0  0  0
  -33.1133  -23.3602   18.1974 C   0  0  0  0  0  0  0  0  0  0  0  0
  -31.2548  -28.4410   22.0187 C   0  0  0  0  0  0  0  0  0  0  0  0
  -32.4682  -27.6131   19.9912 C   0  0  0  0  0  0  0  0  0  0  0  0
  -33.1803  -26.8637   22.2615 C   0  0  0  0  0  0  0  0  0  0  0  0
  -30.0899  -21.4309   19.4676 C   0  0  0  0  0  0  0  0  0  0  0  0
  -23.0044  -21.8356   17.7640 C   0  0  0  0  0  0  0  0  0  0  0  0
  -23.0306  -25.6613   17.5898 C   0  0  0  0  0  0  0  0  0  0  0  0
  -22.4460  -24.2701   17.7822 C   0  0  0  0  0  0  0  0  0  0  0  0
  -24.1318  -26.0066   18.5848 C   0  0  0  0  0  0  0  0  0  1  0  0
  -31.0243  -25.9769   21.2831 C   0  0  1  0  0  0  0  0  0  0  0  0
  -32.0329  -22.9769   19.1968 C   0  0  2  0  0  0  0  0  0  0  0  0
  -31.9542  -27.2182   21.3922 C   0  0  0  0  0  0  0  0  0  0  0  0
  -25.9548  -11.6132   20.5655 N   0  0  0  0  0  0  0  0  0  0  0  0
  -26.3185  -12.9038   20.4749 N   0  0  0  0  0  0  0  0  0  0  0  0
  -29.0717  -25.5694   22.7477 N   0  0  0  0  0  0  0  0  0  0  0  0
  -29.4879  -13.6947   18.4876 N   0  0  0  0  0  0  0  0  0  0  0  0
  -29.0346  -15.8416   17.5359 N   0  0  0  0  0  0  0  0  0  0  0  0
  -25.4755  -15.1152   20.5737 N   0  0  0  0  0  0  0  0  0  0  0  0
  -21.8084  -12.5705   21.2614 N   0  0  0  0  0  0  0  0  0  0  0  0
  -28.9472  -26.9962   25.8003 N   0  0  0  0  0  0  0  0  0  0  0  0
  -31.6681  -24.7958   20.7183 N   0  0  0  0  0  0  0  0  0  0  0  0
  -31.1807  -21.9186   18.5848 N   0  3  0  0  0  0  0  0  0  0  0  0
  -23.4895  -23.2314   17.5801 N   0  3  0  0  0  0  0  0  0  0  0  0
  -22.5702  -14.7247   21.0668 O   0  0  0  0  0  0  0  0  0  0  0  0
  -27.4378  -27.4857   24.0960 O   0  0  0  0  0  0  0  0  0  0  0  0
  -31.2435  -25.2187   23.5200 O   0  0  0  0  0  0  0  0  0  0  0  0
  -30.2017  -24.5322   18.9413 O   0  0  0  0  0  0  0  0  0  0  0  0
  -31.1703  -15.2400   18.1671 O   0  0  0  0  0  0  0  0  0  0  0  0
  -21.6434   -7.0041   21.4115 O   0  0  0  0  0  0  0  0  0  0  0  0
  -23.6006  -25.9210   19.9010 O   0  0  0  0  0  0  0  0  0  1  0  0
  -16.8227   -6.6746   18.7550 F   0  0  0  0  0  0  0  0  0  0  0  0
  -21.1810   -5.0094   19.5540 F   0  0  0  0  0  0  0  0  0  0  0  0
  1  2  1  0  0  0  0
  1  5  2  0  0  0  0
  2  6  2  0  0  0  0
  3 12  2  0  0  0  0
  3 19  1  0  0  0  0
  4 13  1  0  0  0  0
  4 19  2  0  0  0  0
  5 22  1  0  0  0  0
  6 24  1  0  0  0  0
  7 10  2  0  0  0  0
  7 21  1  0  0  0  0
  8 11  1  0  0  0  0
  8 21  2  0  0  0  0
  9 14  2  0  0  0  0
  9 23  1  0  0  0  0
 10 26  1  0  0  0  0
 11 26  2  0  0  0  0
 12 27  1  0  0  0  0
 13 27  2  0  0  0  0
 14 28  1  0  0  0  0
 15 16  2  0  0  0  0
 15 29  1  0  0  0  0
 16 30  1  0  0  0  0
 17 25  1  0  0  0  0
 17 28  2  0  0  0  0
 18 30  2  0  0  0  0
 18 31  1  0  0  0  0
 19 32  1  0  0  0  0
 20 32  1  0  0  0  0
 20 33  2  0  0  0  0
 20 34  1  0  0  0  0
 21 52  1  0  0  0  0
 22 24  2  0  0  0  0
 22 39  1  0  0  0  0
 23 25  2  0  0  0  0
 23 40  1  0  0  0  0
 24 53  1  0  0  0  0
 25 41  1  0  0  0  0
 26 61  1  0  0  0  0
 27 84  1  0  0  0  0
 28 85  1  0  0  0  0
 29 31  2  0  0  0  0
 29 84  1  0  0  0  0
 30 86  1  0  0  0  0
 31 87  1  0  0  0  0
 32 68  2  0  0  0  0
 33 69  1  0  0  0  0
 33 73  1  0  0  0  0
 34 74  1  0  0  0  0
 34 79  2  0  0  0  0
 35 54  1  0  0  0  0
 35 75  1  0  0  0  0
 35 80  2  0  0  0  0
 36 65  1  0  0  0  0
 36 70  1  0  0  0  0
 36 81  2  0  0  0  0
 37 66  1  0  0  0  0
 37 76  1  0  0  0  0
 37 82  2  0  0  0  0
 38 71  1  0  0  0  0
 38 72  1  0  0  0  0
 38 83  2  0  0  0  0
 39 42  1  0  0  0  0
 40 54  1  0  0  0  0
 41 70  1  0  0  0  0
 42 44  1  0  0  0  0
 43 45  1  0  0  0  0
 43 48  1  0  0  0  0
 44 53  1  0  0  0  0
 45 55  1  0  0  0  0
 46 49  1  0  0  0  0
 46 52  1  0  0  0  0
 47 50  1  0  0  0  0
 47 52  1  0  0  0  0
 48 71  1  0  0  0  0
 49 72  1  0  0  0  0
 50 72  1  0  0  0  0
 51 55  1  0  0  0  0
 51 71  1  0  0  0  0
 53 75  1  0  0  0  0
 54 70  1  0  0  0  0
 55 69  1  0  0  0  0
 56 66  1  0  0  0  0
 57 67  1  0  0  0  0
 58 67  1  0  0  0  0
 59 67  1  0  0  0  0
 60 77  1  0  0  0  0
 61 78  1  0  0  0  0
 62 63  1  0  0  0  0
 62 64  1  0  0  0  0
 63 78  1  0  0  0  0
 64 85  1  0  0  0  0
 65 67  1  0  0  0  0
 65 76  1  0  0  0  0
 66 77  1  0  0  0  0
 68 69  1  0  0  0  0
M  CHG  2  77   1  78   1
M  ISO  4  38 100  64 101  72 100  85 101
M  END
> <Batch ID>
0003

> <Smiles>
CNC(C)C(=O)NC(C(=O)N1Cc2cc([101O:1][101CH2:1]CCNCc3ccc(C4CC[100N:0]([100C:0](=O)N5CCCC(n6nc(-c7ccc(Oc8ccc(F)cc8F)cc7)c(C(N)=O)c6N)C5)CC4)cc3)ccc2CC1C(=O)NC1CCCc2ccccc21)C(C)(C)C

> <Shape>
0.158

> <Color>
0.179

> <Negative vol penalty>
0.000

$$$$

  -OEChem-04042320203D

 98107  0     1  0  0  0  0  0999 V2000
  -27.7690  -32.5587   27.2283 C   0  0  0  0  0  0  0  0  0  0  0  0
  -27.8994  -31.4534   26.3936 C   0  0  0  0  0  0  0  0  0  0  0  0
  -23.8504  -10.8618   23.3030 C   0  0  0  0  0  0  0  0  0  0  0  0
  -24.5694  -12.8164   24.5276 C   0  0  0  0  0  0  0  0  0  0  0  0
  -30.8917  -21.6763   22.0838 C   0  0  0  0  0  0  0  0  0  0  0  0
  -29.5621  -21.2348   20.1154 C   0  0  0  0  0  0  0  0  0  0  0  0
  -26.5039  -33.0727   27.5099 C   0  0  0  0  0  0  0  0  0  0  0  0
  -26.7646  -30.8608   25.8409 C   0  0  0  0  0  0  0  0  0  0  0  0
  -27.3287  -29.7964   20.9222 C   0  0  0  0  0  0  0  0  0  0  0  0
  -31.8774  -20.8094   21.6124 C   0  0  0  0  0  0  0  0  0  0  0  0
  -30.5480  -20.3678   19.6440 C   0  0  0  0  0  0  0  0  0  0  0  0
  -23.3360  -10.3146   24.4784 C   0  0  0  0  0  0  0  0  0  0  0  0
  -24.0550  -12.2692   25.7030 C   0  0  0  0  0  0  0  0  0  0  0  0
  -28.0707  -28.6617   20.5973 C   0  0  0  0  0  0  0  0  0  0  0  0
  -24.5240   -8.7179   27.2103 C   0  0  0  0  0  0  0  0  0  0  0  0
  -24.7955   -7.3750   27.4721 C   0  0  0  0  0  0  0  0  0  0  0  0
  -26.0252  -27.4311   20.2497 C   0  0  0  0  0  0  0  0  0  0  0  0
  -22.4269   -6.8989   27.4855 C   0  0  0  0  0  0  0  0  0  0  0  0
  -24.4672  -12.1127   23.3276 C   0  0  0  0  0  0  0  0  0  0  0  0
  -29.7339  -21.8890   21.3353 C   0  0  0  0  0  0  0  0  0  0  0  0
  -24.3251  -13.5031   21.1936 C   0  0  0  0  0  0  0  0  0  0  0  0
  -25.3537  -32.4920   26.9527 C   0  0  0  0  0  0  0  0  0  0  0  0
  -25.9270  -29.7539   20.9239 C   0  0  0  0  0  0  0  0  0  0  0  0
  -25.4828  -31.3667   26.1165 C   0  0  0  0  0  0  0  0  0  0  0  0
  -25.2677  -28.5674   20.5725 C   0  0  0  0  0  0  0  0  0  0  0  0
  -31.7056  -20.1551   20.3926 C   0  0  0  0  0  0  0  0  0  0  0  0
  -23.4383  -11.0183   25.6784 C   0  0  0  0  0  0  0  0  0  0  0  0
  -27.4190  -27.4780   20.2638 C   0  0  0  0  0  0  0  0  0  0  0  0
  -23.2040   -9.1513   27.0862 C   0  0  0  0  0  0  0  0  0  0  0  0
  -23.7469   -6.4655   27.6096 C   0  0  0  0  0  0  0  0  0  0  0  0
  -22.1554   -8.2418   27.2237 C   0  0  0  0  0  0  0  0  0  0  0  0
  -24.9992  -12.6783   22.1139 C   0  0  0  0  0  0  0  0  0  0  0  0
  -25.2593  -13.7690   20.2224 C   0  0  0  0  0  0  0  0  0  0  0  0
  -28.6943  -22.8045   21.8314 C   0  0  0  0  0  0  0  0  0  0  0  0
  -22.9753  -13.9860   21.2147 C   0  0  0  0  0  0  0  0  0  0  0  0
  -23.6729  -30.1680   23.1264 C   0  0  0  0  0  0  0  0  0  0  0  0
  -21.6823  -29.8988   20.5795 C   0  0  0  0  0  0  0  0  0  0  0  0
  -21.1723  -28.7383   17.4108 C   0  0  0  0  0  0  0  0  0  0  0  0
  -31.2464  -13.8451   20.2357 C   0  0  0  0  0  0  0  0  0  0  0  0
  -24.0042  -33.0538   27.3241 C   0  0  0  0  0  0  0  0  0  0  0  0
  -25.1410  -30.9940   21.2507 C   0  0  0  0  0  0  0  0  0  0  0  0
  -23.7648  -28.4751   20.5395 C   0  0  0  0  0  0  0  0  0  0  0  0
  -22.8790  -32.5976   26.3988 C   0  0  0  0  0  0  0  0  0  0  0  0
  -29.1349  -11.8889   18.1400 C   0  0  0  0  0  0  0  0  0  0  0  0
  -25.8600  -26.2798   28.3400 C   0  0  0  0  0  0  0  0  0  0  0  0
  -26.6090  -27.1047   27.3128 C   0  0  0  0  0  0  0  0  0  0  0  0
  -22.9592  -31.0928   26.1625 C   0  0  0  0  0  0  0  0  0  0  0  0
  -27.7747  -11.9438   18.8378 C   0  0  0  0  0  0  0  0  0  0  0  0
  -30.2833  -11.8400   19.1454 C   0  0  0  0  0  0  0  0  0  0  0  0
  -28.9106  -12.9720   20.8506 C   0  0  0  0  0  0  0  0  0  0  0  0
  -25.2781  -25.1607   27.5035 C   0  0  0  0  0  0  0  0  0  0  0  0
  -27.2716  -26.0696   26.4207 C   0  0  0  0  0  0  0  0  0  0  0  0
  -24.2774  -30.7113   25.4781 C   0  0  1  0  0  0  0  0  0  0  0  0
  -23.7206  -30.6948   21.7200 C   0  0  1  0  0  0  0  0  0  0  0  0
  -27.7236  -13.0790   19.8781 C   0  0  2  0  0  0  0  0  0  0  0  0
  -19.4322  -28.6397   15.6054 C   0  0  0  0  0  0  0  0  0  0  0  0
  -20.2155  -27.7085   22.1161 C   0  0  0  0  0  0  0  0  0  0  0  0
  -19.1415  -27.0143   19.9638 C   0  0  0  0  0  0  0  0  0  0  0  0
  -18.7257  -29.2952   20.8843 C   0  0  0  0  0  0  0  0  0  0  0  0
  -22.8764  -30.2543   15.5249 C   0  0  0  0  0  0  0  0  0  0  0  0
  -27.0343  -23.5400   24.5445 C   0  0  0  0  0  0  0  0  0  0  0  0
  -32.0685  -15.8738   21.4051 C   0  0  0  0  0  0  0  0  0  0  0  0
  -31.8887  -17.0750   20.4880 C   0  0  0  0  0  0  0  0  0  0  0  0
  -29.7557  -24.7557   20.6880 C   0  0  0  0  0  0  0  0  0  0  0  0
  -26.6289  -23.0103   23.1767 C   0  0  0  0  0  0  0  0  0  0  0  0
  -25.9056  -24.3107   25.2164 C   0  0  0  0  0  0  0  0  0  0  0  0
  -29.4202  -26.2284   20.5633 C   0  0  0  0  0  0  0  0  0  1  0  0
  -32.7603  -19.2295   19.8879 C   0  0  1  0  0  0  0  0  0  0  0  0
  -20.9841  -28.7548   19.8845 C   0  0  1  0  0  0  0  0  0  0  0  0
  -20.6153  -29.4111   16.1692 C   0  0  2  0  0  0  0  0  0  0  0  0
  -19.7951  -28.1941   20.7146 C   0  0  0  0  0  0  0  0  0  0  0  0
  -34.1102  -19.9166   19.6716 C   0  0  0  0  0  0  0  0  0  0  0  0
  -26.2639  -12.4359   21.7591 N   0  0  0  0  0  0  0  0  0  0  0  0
  -26.3919  -13.1125   20.6050 N   0  0  0  0  0  0  0  0  0  0  0  0
  -23.0406  -29.7128   20.8730 N   0  0  0  0  0  0  0  0  0  0  0  0
  -30.1771  -12.9440   20.1024 N   0  0  0  0  0  0  0  0  0  0  0  0
  -25.2142  -14.4979   19.0870 N   0  0  0  0  0  0  0  0  0  0  0  0
  -22.1505  -13.6172   22.2861 N   0  0  0  0  0  0  0  0  0  0  0  0
  -28.7357  -24.1084   21.5099 N   0  0  0  0  0  0  0  0  0  0  0  0
  -24.2214  -31.0206   24.0654 N   0  0  0  0  0  0  0  0  0  0  0  0
  -20.6107  -29.2470   18.5628 N   0  0  0  0  0  0  0  0  0  0  0  0
  -31.0612  -14.8657   21.1601 N   0  0  0  0  0  0  0  0  0  0  0  0
  -32.9254  -18.0676   20.7443 N   0  0  0  0  0  0  0  0  0  0  0  0
  -27.7416  -22.2553   22.5959 N   0  3  0  0  0  0  0  0  0  0  0  0
  -26.3894  -24.8391   26.5285 N   0  3  0  0  0  0  0  0  0  0  0  0
  -21.6639  -29.5006   15.1140 N   0  3  0  0  0  0  0  0  0  0  0  0
  -22.5093  -14.7092   20.3018 O   0  0  0  0  0  0  0  0  0  0  0  0
  -23.1741  -29.0700   23.3438 O   0  0  0  0  0  0  0  0  0  0  0  0
  -21.0476  -30.9225   20.8455 O   0  0  0  0  0  0  0  0  0  0  0  0
  -22.0180  -27.8478   17.3634 O   0  0  0  0  0  0  0  0  0  0  0  0
  -32.2867  -13.7503   19.5756 O   0  0  0  0  0  0  0  0  0  0  0  0
  -22.9362  -10.4847   26.8255 O   0  0  0  0  0  0  0  0  0  0  0  0
  -28.1409  -26.3688   19.9469 O   0  0  0  0  0  0  0  0  0  1  0  0
  -24.0078   -5.1756   27.8595 F   0  0  0  0  0  0  0  0  0  0  0  0
  -20.8853   -8.6520   27.1043 F   0  0  0  0  0  0  0  0  0  0  0  0
  -34.0212  -20.9001   18.7464 F   0  0  0  0  0  0  0  0  0  0  0  0
  -34.5461  -20.4865   20.8175 F   0  0  0  0  0  0  0  0  0  0  0  0
  -35.0578  -19.0505   19.2543 F   0  0  0  0  0  0  0  0  0  0  0  0
  1  2  1  0  0  0  0
  1  7  2  0  0  0  0
  2  8  2  0  0  0  0
  3 12  2  0  0  0  0
  3 19  1  0  0  0  0
  4 13  1  0  0  0  0
  4 19  2  0  0  0  0
  5 10  2  0  0  0  0
  5 20  1  0  0  0  0
  6 11  1  0  0  0  0
  6 20  2  0  0  0  0
  7 22  1  0  0  0  0
  8 24  1  0  0  0  0
  9 14  2  0  0  0  0
  9 23  1  0  0  0  0
 10 26  1  0  0  0  0
 11 26  2  0  0  0  0
 12 27  1  0  0  0  0
 13 27  2  0  0  0  0
 14 28  1  0  0  0  0
 15 16  2  0  0  0  0
 15 29  1  0  0  0  0
 16 30  1  0  0  0  0
 17 25  1  0  0  0  0
 17 28  2  0  0  0  0
 18 30  2  0  0  0  0
 18 31  1  0  0  0  0
 19 32  1  0  0  0  0
 20 34  1  0  0  0  0
 21 32  1  0  0  0  0
 21 33  2  0  0  0  0
 21 35  1  0  0  0  0
 22 24  2  0  0  0  0
 22 40  1  0  0  0  0
 23 25  2  0  0  0  0
 23 41  1  0  0  0  0
 24 53  1  0  0  0  0
 25 42  1  0  0  0  0
 26 68  1  0  0  0  0
 27 92  1  0  0  0  0
 28 93  1  0  0  0  0
 29 31  2  0  0  0  0
 29 92  1  0  0  0  0
 30 94  1  0  0  0  0
 31 95  1  0  0  0  0
 32 73  2  0  0  0  0
 33 74  1  0  0  0  0
 33 77  1  0  0  0  0
 34 79  1  0  0  0  0
 34 84  2  0  0  0  0
 35 78  1  0  0  0  0
 35 87  2  0  0  0  0
 36 54  1  0  0  0  0
 36 80  1  0  0  0  0
 36 88  2  0  0  0  0
 37 69  1  0  0  0  0
 37 75  1  0  0  0  0
 37 89  2  0  0  0  0
 38 70  1  0  0  0  0
 38 81  1  0  0  0  0
 38 90  2  0  0  0  0
 39 76  1  0  0  0  0
 39 82  1  0  0  0  0
 39 91  2  0  0  0  0
 40 43  1  0  0  0  0
 41 54  1  0  0  0  0
 42 75  1  0  0  0  0
 43 47  1  0  0  0  0
 44 48  1  0  0  0  0
 44 49  1  0  0  0  0
 45 46  1  0  0  0  0
 45 51  1  0  0  0  0
 46 52  1  0  0  0  0
 47 53  1  0  0  0  0
 48 55  1  0  0  0  0
 49 76  1  0  0  0  0
 50 55  1  0  0  0  0
 50 76  1  0  0  0  0
 51 85  1  0  0  0  0
 52 85  1  0  0  0  0
 53 80  1  0  0  0  0
 54 75  1  0  0  0  0
 55 74  1  0  0  0  0
 56 70  1  0  0  0  0
 57 71  1  0  0  0  0
 58 71  1  0  0  0  0
 59 71  1  0  0  0  0
 60 86  1  0  0  0  0
 61 65  1  0  0  0  0
 61 66  1  0  0  0  0
 62 63  1  0  0  0  0
 62 82  1  0  0  0  0
 63 83  1  0  0  0  0
 64 67  1  0  0  0  0
 64 79  1  0  0  0  0
 65 84  1  0  0  0  0
 66 85  1  0  0  0  0
 67 93  1  0  0  0  0
 68 72  1  0  0  0  0
 68 83  1  0  0  0  0
 69 71  1  0  0  0  0
 69 81  1  0  0  0  0
 70 86  1  0  0  0  0
 72 96  1  0  0  0  0
 72 97  1  0  0  0  0
 72 98  1  0  0  0  0
 73 74  1  0  0  0  0
M  CHG  3  84   1  85   1  86   1
M  ISO  4  39 100  67 101  82 100  93 101
M  END
> <Batch ID>
0003

> <Smiles>
CNC(C)C(=O)NC(C(=O)N1Cc2cc([101O:1][101CH2:1]CN=C(NCCCN3CCCC3)c3ccc(C(NCC[100NH:0][100C:0](=O)N4CCCC(n5nc(-c6ccc(Oc7ccc(F)cc7F)cc6)c(C(N)=O)c5N)C4)C(F)(F)F)cc3)ccc2CC1C(=O)NC1CCCc2ccccc21)C(C)(C)C

> <Shape>
0.257

> <Color>
0.114

> <Negative vol penalty>
0.000

$$$$

  -OEChem-04042320203D

 85 95  0     1  0  0  0  0  0999 V2000
  -22.8214   -8.0832   20.5599 C   0  0  0  0  0  0  0  0  0  0  0  0
  -22.0413   -9.1646   20.1629 C   0  0  0  0  0  0  0  0  0  0  0  0
  -29.9301  -26.6787   20.4204 C   0  0  0  0  0  0  0  0  0  0  0  0
  -28.6914  -25.6605   22.2277 C   0  0  0  0  0  0  0  0  0  0  0  0
  -23.8487   -8.2683   21.4841 C   0  0  0  0  0  0  0  0  0  0  0  0
  -22.2876  -10.4315   20.6908 C   0  0  0  0  0  0  0  0  0  0  0  0
  -18.4682  -23.6096   22.0190 C   0  0  0  0  0  0  0  0  0  0  0  0
  -20.5445  -24.5621   21.2322 C   0  0  0  0  0  0  0  0  0  0  0  0
  -22.0143  -17.3672   18.9193 C   0  0  0  0  0  0  0  0  0  0  0  0
  -18.8275  -22.3767   21.4744 C   0  0  0  0  0  0  0  0  0  0  0  0
  -20.9038  -23.3292   20.6877 C   0  0  0  0  0  0  0  0  0  0  0  0
  -31.1224  -26.2155   20.9767 C   0  0  0  0  0  0  0  0  0  0  0  0
  -29.8838  -25.1973   22.7839 C   0  0  0  0  0  0  0  0  0  0  0  0
  -21.4913  -18.5759   19.3768 C   0  0  0  0  0  0  0  0  0  0  0  0
  -32.8418  -23.3074   21.1157 C   0  0  0  0  0  0  0  0  0  0  0  0
  -33.7726  -22.7213   20.2580 C   0  0  0  0  0  0  0  0  0  0  0  0
  -23.3440  -18.7915   20.9066 C   0  0  0  0  0  0  0  0  0  0  0  0
  -35.3948  -24.4046   20.8680 C   0  0  0  0  0  0  0  0  0  0  0  0
  -28.7146  -26.4013   21.0460 C   0  0  0  0  0  0  0  0  0  0  0  0
  -26.6653  -26.2157   19.5381 C   0  0  0  0  0  0  0  0  0  0  0  0
  -19.3267  -24.7023   21.8978 C   0  0  0  0  0  0  0  0  0  0  0  0
  -24.1139   -9.5399   22.0163 C   0  0  0  0  0  0  0  0  0  0  0  0
  -23.2023  -16.8553   19.4606 C   0  0  0  0  0  0  0  0  0  0  0  0
  -23.3186  -10.6335   21.6240 C   0  0  0  0  0  0  0  0  0  0  0  0
  -23.8813  -17.5774   20.4525 C   0  0  0  0  0  0  0  0  0  0  0  0
  -20.0452  -22.2365   20.8089 C   0  0  0  0  0  0  0  0  0  0  0  0
  -31.0993  -25.4748   22.1584 C   0  0  0  0  0  0  0  0  0  0  0  0
  -22.1546  -19.2868   20.3726 C   0  0  0  0  0  0  0  0  0  0  0  0
  -33.1875  -24.4422   21.8496 C   0  0  0  0  0  0  0  0  0  0  0  0
  -35.0491  -23.2698   20.1342 C   0  0  0  0  0  0  0  0  0  0  0  0
  -34.4639  -24.9907   21.7258 C   0  0  0  0  0  0  0  0  0  0  0  0
  -27.4826  -26.8799   20.4722 C   0  0  0  0  0  0  0  0  0  0  0  0
  -25.6243  -27.0833   19.3145 C   0  0  0  0  0  0  0  0  0  0  0  0
  -26.8322  -24.9294   18.9272 C   0  0  0  0  0  0  0  0  0  0  0  0
  -23.9865  -14.2239   21.0620 C   0  0  0  0  0  0  0  0  0  0  0  0
  -26.9983  -15.3759   20.7094 C   0  0  0  0  0  0  0  0  0  0  0  0
  -29.0283  -18.0727   20.2063 C   0  0  0  0  0  0  0  0  0  0  0  0
  -21.7693  -30.6053   21.2663 C   0  0  0  0  0  0  0  0  0  0  0  0
  -25.2047   -9.6820   23.0482 C   0  0  0  0  0  0  0  0  0  0  0  0
  -23.7675  -15.5634   18.9374 C   0  0  0  0  0  0  0  0  0  0  0  0
  -25.1708  -17.0812   21.0521 C   0  0  0  0  0  0  0  0  0  0  0  0
  -25.6423  -11.1265   23.2770 C   0  0  0  0  0  0  0  0  0  0  0  0
  -24.9940  -31.9108   20.6171 C   0  0  0  0  0  0  0  0  0  0  0  0
  -24.4263  -12.0351   23.4280 C   0  0  0  0  0  0  0  0  0  0  0  0
  -25.8790  -30.6746   20.4820 C   0  0  0  0  0  0  0  0  0  0  0  0
  -18.8314  -27.1665   21.4528 C   0  0  0  0  0  0  0  0  0  0  0  0
  -19.9086  -26.5624   23.5670 C   0  0  0  0  0  0  0  0  0  0  0  0
  -23.9392  -31.7054   21.6960 C   0  0  0  0  0  0  0  0  0  0  0  0
  -19.5105  -29.6403   21.5809 C   0  0  0  0  0  0  0  0  0  0  0  0
  -21.3412  -28.4652   22.6111 C   0  0  0  0  0  0  0  0  0  0  0  0
  -23.9217  -29.2576   21.2888 C   0  0  0  0  0  0  0  0  0  0  0  0
  -18.9386  -26.0374   22.4870 C   0  0  0  0  0  0  0  0  0  0  0  0
  -23.5708  -12.0279   22.1553 C   0  0  1  0  0  0  0  0  0  0  0  0
  -24.7122  -14.8820   19.9227 C   0  0  1  0  0  0  0  0  0  0  0  0
  -18.9590  -28.4257   22.3064 C   0  0  2  0  0  0  0  0  0  0  0  0
  -20.0453  -28.0666   23.3222 C   0  0  1  0  0  0  0  0  0  0  0  0
  -25.0238  -29.4249   20.2230 C   0  0  2  0  0  0  0  0  0  0  0  0
  -31.4480  -18.7063   20.0031 C   0  0  0  0  0  0  0  0  0  0  0  0
  -27.3186  -15.1131   23.7324 C   0  0  0  0  0  0  0  0  0  0  0  0
  -29.3211  -16.6080   23.5802 C   0  0  0  0  0  0  0  0  0  0  0  0
  -29.3179  -14.4070   22.4062 C   0  0  0  0  0  0  0  0  0  0  0  0
  -28.6522  -19.0831   17.4502 C   0  0  0  0  0  0  0  0  0  0  0  0
  -20.4294  -20.9174   20.2284 C   0  0  0  0  0  0  0  0  0  1  0  0
  -27.8927  -16.2926   21.5086 C   0  0  1  0  0  0  0  0  0  0  0  0
  -30.1896  -18.2957   19.2544 C   0  0  2  0  0  0  0  0  0  0  0  0
  -28.4373  -15.6138   22.7971 C   0  0  0  0  0  0  0  0  0  0  0  0
  -27.0022  -28.0773   20.8182 N   0  0  0  0  0  0  0  0  0  0  0  0
  -25.8718  -28.1722   20.0975 N   0  0  0  0  0  0  0  0  0  0  0  0
  -25.6798  -15.8098   20.5117 N   0  0  0  0  0  0  0  0  0  0  0  0
  -23.1500  -30.4944   21.4645 N   0  0  0  0  0  0  0  0  0  0  0  0
  -20.9618  -29.5602   21.7158 N   0  0  0  0  0  0  0  0  0  0  0  0
  -24.5305  -27.0134   18.5264 N   0  0  0  0  0  0  0  0  0  0  0  0
  -27.9583  -24.1683   19.2692 N   0  0  0  0  0  0  0  0  0  0  0  0
  -24.1757  -12.8571   21.1350 N   0  0  0  0  0  0  0  0  0  0  0  0
  -28.9300  -16.7524   20.5915 N   0  0  0  0  0  0  0  0  0  0  0  0
  -29.8564  -19.3664   18.2727 N   0  3  0  0  0  0  0  0  0  0  0  0
  -26.0156  -24.4755   18.0900 O   0  0  0  0  0  0  0  0  0  0  0  0
  -23.3066  -14.9060   21.8197 O   0  0  0  0  0  0  0  0  0  0  0  0
  -27.4548  -14.3174   20.2704 O   0  0  0  0  0  0  0  0  0  0  0  0
  -28.2853  -18.9798   20.5746 O   0  0  0  0  0  0  0  0  0  0  0  0
  -21.2733  -31.6145   20.7477 O   0  0  0  0  0  0  0  0  0  0  0  0
  -32.2625  -25.0224   22.7013 O   0  0  0  0  0  0  0  0  0  0  0  0
  -21.6425  -20.4747   20.8246 O   0  0  0  0  0  0  0  0  0  1  0  0
  -35.9433  -22.7059   19.3116 F   0  0  0  0  0  0  0  0  0  0  0  0
  -34.8022  -26.0801   22.4291 F   0  0  0  0  0  0  0  0  0  0  0  0
  1  2  1  0  0  0  0
  1  5  2  0  0  0  0
  2  6  2  0  0  0  0
  3 12  2  0  0  0  0
  3 19  1  0  0  0  0
  4 13  1  0  0  0  0
  4 19  2  0  0  0  0
  5 22  1  0  0  0  0
  6 24  1  0  0  0  0
  7 10  2  0  0  0  0
  7 21  1  0  0  0  0
  8 11  1  0  0  0  0
  8 21  2  0  0  0  0
  9 14  2  0  0  0  0
  9 23  1  0  0  0  0
 10 26  1  0  0  0  0
 11 26  2  0  0  0  0
 12 27  1  0  0  0  0
 13 27  2  0  0  0  0
 14 28  1  0  0  0  0
 15 16  2  0  0  0  0
 15 29  1  0  0  0  0
 16 30  1  0  0  0  0
 17 25  1  0  0  0  0
 17 28  2  0  0  0  0
 18 30  2  0  0  0  0
 18 31  1  0  0  0  0
 19 32  1  0  0  0  0
 20 32  1  0  0  0  0
 20 33  2  0  0  0  0
 20 34  1  0  0  0  0
 21 52  1  0  0  0  0
 22 24  2  0  0  0  0
 22 39  1  0  0  0  0
 23 25  2  0  0  0  0
 23 40  1  0  0  0  0
 24 53  1  0  0  0  0
 25 41  1  0  0  0  0
 26 63  1  0  0  0  0
 27 82  1  0  0  0  0
 28 83  1  0  0  0  0
 29 31  2  0  0  0  0
 29 82  1  0  0  0  0
 30 84  1  0  0  0  0
 31 85  1  0  0  0  0
 32 67  2  0  0  0  0
 33 68  1  0  0  0  0
 33 72  1  0  0  0  0
 34 73  1  0  0  0  0
 34 77  2  0  0  0  0
 35 54  1  0  0  0  0
 35 74  1  0  0  0  0
 35 78  2  0  0  0  0
 36 64  1  0  0  0  0
 36 69  1  0  0  0  0
 36 79  2  0  0  0  0
 37 65  1  0  0  0  0
 37 75  1  0  0  0  0
 37 80  2  0  0  0  0
 38 70  1  0  0  0  0
 38 71  1  0  0  0  0
 38 81  2  0  0  0  0
 39 42  1  0  0  0  0
 40 54  1  0  0  0  0
 41 69  1  0  0  0  0
 42 44  1  0  0  0  0
 43 45  1  0  0  0  0
 43 48  1  0  0  0  0
 44 53  1  0  0  0  0
 45 57  1  0  0  0  0
 46 52  1  0  0  0  0
 46 55  1  0  0  0  0
 47 52  1  0  0  0  0
 47 56  1  0  0  0  0
 48 70  1  0  0  0  0
 49 55  1  0  0  0  0
 49 71  1  0  0  0  0
 50 56  1  0  0  0  0
 50 71  1  0  0  0  0
 51 57  1  0  0  0  0
 51 70  1  0  0  0  0
 53 74  1  0  0  0  0
 54 69  1  0  0  0  0
 55 56  1  0  0  0  0
 57 68  1  0  0  0  0
 58 65  1  0  0  0  0
 59 66  1  0  0  0  0
 60 66  1  0  0  0  0
 61 66  1  0  0  0  0
 62 76  1  0  0  0  0
 63 83  1  0  0  0  0
 64 66  1  0  0  0  0
 64 75  1  0  0  0  0
 65 76  1  0  0  0  0
 67 68  1  0  0  0  0
M  CHG  1  76   1
M  ISO  4  38 100  63 101  71 100  83 101
M  END
> <Batch ID>
0003

> <Smiles>
CNC(C)C(=O)NC(C(=O)N1Cc2cc([101O:1][101CH2:1]c3ccc(C4CC5C[100N:0]([100C:0](=O)N6CCCC(n7nc(-c8ccc(Oc9ccc(F)cc9F)cc8)c(C(N)=O)c7N)C6)CC5C4)cc3)ccc2CC1C(=O)NC1CCCc2ccccc21)C(C)(C)C

> <Shape>
0.253

> <Color>
0.061

> <Negative vol penalty>
0.000

$$$$

  -OEChem-04042320203D

 80 88  0     1  0  0  0  0  0999 V2000
  -30.8109  -13.0451   40.6291 C   0  0  0  0  0  0  0  0  0  0  0  0
  -30.9825  -13.2883   39.2701 C   0  0  0  0  0  0  0  0  0  0  0  0
  -22.8459  -10.1056   20.1093 C   0  0  0  0  0  0  0  0  0  0  0  0
  -24.2749   -9.5472   21.9756 C   0  0  0  0  0  0  0  0  0  0  0  0
  -31.9223  -12.9594   41.4665 C   0  0  0  0  0  0  0  0  0  0  0  0
  -32.2656  -13.4469   38.7479 C   0  0  0  0  0  0  0  0  0  0  0  0
  -32.9380  -10.8825   34.4332 C   0  0  0  0  0  0  0  0  0  0  0  0
  -22.1365   -8.9195   20.2975 C   0  0  0  0  0  0  0  0  0  0  0  0
  -23.5654   -8.3611   22.1639 C   0  0  0  0  0  0  0  0  0  0  0  0
  -32.4043  -11.4394   33.2718 C   0  0  0  0  0  0  0  0  0  0  0  0
  -20.6331   -7.4072   23.5467 C   0  0  0  0  0  0  0  0  0  0  0  0
  -20.2736   -7.0689   24.8512 C   0  0  0  0  0  0  0  0  0  0  0  0
  -34.5864  -12.2804   32.6796 C   0  0  0  0  0  0  0  0  0  0  0  0
  -21.5425   -5.0210   24.6700 C   0  0  0  0  0  0  0  0  0  0  0  0
  -23.9151  -10.4195   20.9483 C   0  0  0  0  0  0  0  0  0  0  0  0
  -24.1419  -12.9565   20.8087 C   0  0  0  0  0  0  0  0  0  0  0  0
  -33.2203  -13.1075   40.9527 C   0  0  0  0  0  0  0  0  0  0  0  0
  -34.3000  -11.0300   34.7325 C   0  0  0  0  0  0  0  0  0  0  0  0
  -33.3954  -13.3645   39.5795 C   0  0  0  0  0  0  0  0  0  0  0  0
  -35.1354  -11.7222   33.8441 C   0  0  0  0  0  0  0  0  0  0  0  0
  -22.4962   -8.0472   21.3248 C   0  0  0  0  0  0  0  0  0  0  0  0
  -33.2280  -12.1409   32.3962 C   0  0  0  0  0  0  0  0  0  0  0  0
  -21.4473   -6.5523   22.8037 C   0  0  0  0  0  0  0  0  0  0  0  0
  -20.7283   -5.8759   25.4129 C   0  0  0  0  0  0  0  0  0  0  0  0
  -21.9020   -5.3592   23.3654 C   0  0  0  0  0  0  0  0  0  0  0  0
  -24.6487  -11.6443   20.7540 C   0  0  0  0  0  0  0  0  0  0  0  0
  -25.2304  -13.7558   20.5581 C   0  0  0  0  0  0  0  0  0  0  0  0
  -22.8065  -13.4123   21.0634 C   0  0  0  0  0  0  0  0  0  0  0  0
  -35.9446  -12.3886   37.0890 C   0  0  0  0  0  0  0  0  0  0  0  0
  -38.4770  -11.0405   35.5752 C   0  0  0  0  0  0  0  0  0  0  0  0
  -39.5751  -10.5933   32.1677 C   0  0  0  0  0  0  0  0  0  0  0  0
  -31.1218  -12.9642   21.2766 C   0  0  0  0  0  0  0  0  0  0  0  0
  -34.3885  -13.0538   41.9050 C   0  0  0  0  0  0  0  0  0  0  0  0
  -34.8655  -10.4005   35.9760 C   0  0  0  0  0  0  0  0  0  0  0  0
  -36.6083  -11.8915   34.1093 C   0  0  0  0  0  0  0  0  0  0  0  0
  -35.7334  -12.8610   41.2090 C   0  0  0  0  0  0  0  0  0  0  0  0
  -29.4218  -13.7585   18.2508 C   0  0  0  0  0  0  0  0  0  0  0  0
  -35.8574  -13.8042   40.0166 C   0  0  0  0  0  0  0  0  0  0  0  0
  -27.9600  -13.4252   18.5542 C   0  0  0  0  0  0  0  0  0  0  0  0
  -31.0019  -13.7024   24.9033 C   0  0  0  0  0  0  0  0  0  0  0  0
  -32.4869  -11.8570   24.0380 C   0  0  0  0  0  0  0  0  0  0  0  0
  -30.3763  -12.7734   18.9220 C   0  0  0  0  0  0  0  0  0  0  0  0
  -28.7193  -12.2810   20.6786 C   0  0  0  0  0  0  0  0  0  0  0  0
  -31.9715  -13.9339   26.0549 C   0  0  0  0  0  0  0  0  0  0  0  0
  -33.4482  -12.0970   25.1947 C   0  0  0  0  0  0  0  0  0  0  0  0
  -34.7727  -13.5176   38.9713 C   0  0  1  0  0  0  0  0  0  0  0  0
  -36.1651  -11.0526   36.4379 C   0  0  1  0  0  0  0  0  0  0  0  0
  -27.7207  -13.2799   20.0691 C   0  0  2  0  0  0  0  0  0  0  0  0
  -31.7122  -13.1250   23.6786 C   0  0  0  0  0  0  0  0  0  0  0  0
  -41.0430   -8.8341   31.1441 C   0  0  0  0  0  0  0  0  0  0  0  0
  -40.7259  -13.0437   36.0649 C   0  0  0  0  0  0  0  0  0  0  0  0
  -41.7229  -12.3542   33.8743 C   0  0  0  0  0  0  0  0  0  0  0  0
  -41.4860  -10.6870   35.7147 C   0  0  0  0  0  0  0  0  0  0  0  0
  -37.5200   -9.8815   30.1605 C   0  0  0  0  0  0  0  0  0  0  0  0
  -32.7470  -12.7054   28.8640 C   0  0  0  0  0  0  0  0  0  0  0  0
  -33.5696  -12.7878   27.5869 C   0  0  0  0  0  0  0  0  0  0  0  0
  -33.5801  -12.7941   30.1367 C   0  0  0  0  0  0  0  0  0  1  0  0
  -39.4236  -11.4738   34.4820 C   0  0  1  0  0  0  0  0  0  0  0  0
  -39.6133   -9.2910   31.3886 C   0  0  2  0  0  0  0  0  0  0  0  0
  -40.8129  -11.8995   35.0353 C   0  0  0  0  0  0  0  0  0  0  0  0
  -25.9573  -11.6076   20.4893 N   0  0  0  0  0  0  0  0  0  0  0  0
  -26.2820  -12.9067   20.3753 N   0  0  0  0  0  0  0  0  0  0  0  0
  -37.1126  -11.2631   35.3415 N   0  0  0  0  0  0  0  0  0  0  0  0
  -30.0976  -12.6833   20.3573 N   0  0  0  0  0  0  0  0  0  0  0  0
  -25.3810  -15.0949   20.4783 N   0  0  0  0  0  0  0  0  0  0  0  0
  -21.8086  -12.4574   21.3014 N   0  0  0  0  0  0  0  0  0  0  0  0
  -35.1164  -12.3459   38.1944 N   0  0  0  0  0  0  0  0  0  0  0  0
  -39.4731  -10.3737   33.5251 N   0  0  0  0  0  0  0  0  0  0  0  0
  -30.7715  -12.8614   22.6173 N   0  0  0  0  0  0  0  0  0  0  0  0
  -32.6866  -12.6440   26.3778 N   0  3  0  0  0  0  0  0  0  0  0  0
  -38.9407   -9.4568   30.0691 N   0  3  0  0  0  0  0  0  0  0  0  0
  -22.5038  -14.6296   21.0631 O   0  0  0  0  0  0  0  0  0  0  0  0
  -36.4869  -13.3842   36.6240 O   0  0  0  0  0  0  0  0  0  0  0  0
  -38.9309  -10.5170   36.5959 O   0  0  0  0  0  0  0  0  0  0  0  0
  -39.6340  -11.6952   31.6264 O   0  0  0  0  0  0  0  0  0  0  0  0
  -32.2623  -13.2881   20.9284 O   0  0  0  0  0  0  0  0  0  0  0  0
  -21.8040   -6.8898   21.5089 O   0  0  0  0  0  0  0  0  0  0  0  0
  -32.7095  -12.6860   31.2622 O   0  0  0  0  0  0  0  0  0  1  0  0
  -20.3842   -5.5520   26.6663 F   0  0  0  0  0  0  0  0  0  0  0  0
  -22.6855   -4.5345   22.6570 F   0  0  0  0  0  0  0  0  0  0  0  0
  1  2  1  0  0  0  0
  1  5  2  0  0  0  0
  2  6  2  0  0  0  0
  3  8  2  0  0  0  0
  3 15  1  0  0  0  0
  4  9  1  0  0  0  0
  4 15  2  0  0  0  0
  5 17  1  0  0  0  0
  6 19  1  0  0  0  0
  7 10  2  0  0  0  0
  7 18  1  0  0  0  0
  8 21  1  0  0  0  0
  9 21  2  0  0  0  0
 10 22  1  0  0  0  0
 11 12  2  0  0  0  0
 11 23  1  0  0  0  0
 12 24  1  0  0  0  0
 13 20  1  0  0  0  0
 13 22  2  0  0  0  0
 14 24  2  0  0  0  0
 14 25  1  0  0  0  0
 15 26  1  0  0  0  0
 16 26  1  0  0  0  0
 16 27  2  0  0  0  0
 16 28  1  0  0  0  0
 17 19  2  0  0  0  0
 17 33  1  0  0  0  0
 18 20  2  0  0  0  0
 18 34  1  0  0  0  0
 19 46  1  0  0  0  0
 20 35  1  0  0  0  0
 21 77  1  0  0  0  0
 22 78  1  0  0  0  0
 23 25  2  0  0  0  0
 23 77  1  0  0  0  0
 24 79  1  0  0  0  0
 25 80  1  0  0  0  0
 26 61  2  0  0  0  0
 27 62  1  0  0  0  0
 27 65  1  0  0  0  0
 28 66  1  0  0  0  0
 28 72  2  0  0  0  0
 29 47  1  0  0  0  0
 29 67  1  0  0  0  0
 29 73  2  0  0  0  0
 30 58  1  0  0  0  0
 30 63  1  0  0  0  0
 30 74  2  0  0  0  0
 31 59  1  0  0  0  0
 31 68  1  0  0  0  0
 31 75  2  0  0  0  0
 32 64  1  0  0  0  0
 32 69  1  0  0  0  0
 32 76  2  0  0  0  0
 33 36  1  0  0  0  0
 34 47  1  0  0  0  0
 35 63  1  0  0  0  0
 36 38  1  0  0  0  0
 37 39  1  0  0  0  0
 37 42  1  0  0  0  0
 38 46  1  0  0  0  0
 39 48  1  0  0  0  0
 40 44  1  0  0  0  0
 40 49  1  0  0  0  0
 41 45  1  0  0  0  0
 41 49  1  0  0  0  0
 42 64  1  0  0  0  0
 43 48  1  0  0  0  0
 43 64  1  0  0  0  0
 44 70  1  0  0  0  0
 45 70  1  0  0  0  0
 46 67  1  0  0  0  0
 47 63  1  0  0  0  0
 48 62  1  0  0  0  0
 49 69  1  0  0  0  0
 50 59  1  0  0  0  0
 51 60  1  0  0  0  0
 52 60  1  0  0  0  0
 53 60  1  0  0  0  0
 54 71  1  0  0  0  0
 55 56  1  0  0  0  0
 55 57  1  0  0  0  0
 56 70  1  0  0  0  0
 57 78  1  0  0  0  0
 58 60  1  0  0  0  0
 58 68  1  0  0  0  0
 59 71  1  0  0  0  0
 61 62  1  0  0  0  0
M  CHG  2  70   1  71   1
M  ISO  4  32 100  57 101  69 100  78 101
M  END
> <Batch ID>
0003

> <Smiles>
CNC(C)C(=O)NC(C(=O)N1Cc2cc([101O:1][101CH2:1]CCN3CCC([100NH:0][100C:0](=O)N4CCCC(n5nc(-c6ccc(Oc7ccc(F)cc7F)cc6)c(C(N)=O)c5N)C4)CC3)ccc2CC1C(=O)NC1CCCc2ccccc21)C(C)(C)C

> <Shape>
0.154

> <Color>
0.178

> <Negative vol penalty>
0.000

$$$$

  -OEChem-04042320203D

 86 95  0     1  0  0  0  0  0999 V2000
  -20.3875   -7.7657   19.0964 C   0  0  0  0  0  0  0  0  0  0  0  0
  -20.1001   -9.1249   19.1708 C   0  0  0  0  0  0  0  0  0  0  0  0
  -28.5639  -26.3317   19.1272 C   0  0  0  0  0  0  0  0  0  0  0  0
  -26.4217  -25.3227   18.6477 C   0  0  0  0  0  0  0  0  0  0  0  0
  -21.5265   -7.2600   19.7216 C   0  0  0  0  0  0  0  0  0  0  0  0
  -20.9510   -9.9790   19.8715 C   0  0  0  0  0  0  0  0  0  0  0  0
  -20.1038  -21.8964   22.7608 C   0  0  0  0  0  0  0  0  0  0  0  0
  -22.0648  -23.1678   22.1485 C   0  0  0  0  0  0  0  0  0  0  0  0
  -22.2836  -15.7947   18.4906 C   0  0  0  0  0  0  0  0  0  0  0  0
  -20.7503  -20.7187   22.3861 C   0  0  0  0  0  0  0  0  0  0  0  0
  -22.7114  -21.9900   21.7737 C   0  0  0  0  0  0  0  0  0  0  0  0
  -29.1560  -25.0688   19.1397 C   0  0  0  0  0  0  0  0  0  0  0  0
  -27.0138  -24.0598   18.6602 C   0  0  0  0  0  0  0  0  0  0  0  0
  -21.7949  -17.0086   18.9716 C   0  0  0  0  0  0  0  0  0  0  0  0
  -28.0565  -21.8199   20.9680 C   0  0  0  0  0  0  0  0  0  0  0  0
  -27.3978  -20.8021   21.6579 C   0  0  0  0  0  0  0  0  0  0  0  0
  -23.6495  -17.1394   20.5086 C   0  0  0  0  0  0  0  0  0  0  0  0
  -27.2335  -19.5234   19.6146 C   0  0  0  0  0  0  0  0  0  0  0  0
  -27.1968  -26.4587   18.8813 C   0  0  0  0  0  0  0  0  0  0  0  0
  -26.4291  -28.6185   17.7617 C   0  0  0  0  0  0  0  0  0  0  0  0
  -20.7610  -23.1210   22.6420 C   0  0  0  0  0  0  0  0  0  0  0  0
  -22.3970   -8.1099   20.4221 C   0  0  0  0  0  0  0  0  0  0  0  0
  -23.4550  -15.2377   19.0235 C   0  0  0  0  0  0  0  0  0  0  0  0
  -22.1020   -9.4839   20.5078 C   0  0  0  0  0  0  0  0  0  0  0  0
  -24.1524  -15.9195   20.0309 C   0  0  0  0  0  0  0  0  0  0  0  0
  -22.0541  -20.7654   21.8926 C   0  0  0  0  0  0  0  0  0  0  0  0
  -28.3809  -23.9329   18.9062 C   0  0  0  0  0  0  0  0  0  0  0  0
  -22.4763  -17.6797   19.9827 C   0  0  0  0  0  0  0  0  0  0  0  0
  -28.3036  -21.6895   19.6014 C   0  0  0  0  0  0  0  0  0  0  0  0
  -26.9863  -19.6539   20.9812 C   0  0  0  0  0  0  0  0  0  0  0  0
  -27.8921  -20.5412   18.9247 C   0  0  0  0  0  0  0  0  0  0  0  0
  -26.5845  -27.7629   18.8688 C   0  0  0  0  0  0  0  0  0  0  0  0
  -25.7933  -29.7251   18.2695 C   0  0  0  0  0  0  0  0  0  0  0  0
  -26.8240  -28.4299   16.3964 C   0  0  0  0  0  0  0  0  0  0  0  0
  -24.1588  -12.5528   20.5726 C   0  0  0  0  0  0  0  0  0  0  0  0
  -27.2036  -13.6236   20.2485 C   0  0  0  0  0  0  0  0  0  0  0  0
  -29.3122  -16.2699   19.8036 C   0  0  0  0  0  0  0  0  0  0  0  0
  -22.2463  -30.5685   23.0191 C   0  0  0  0  0  0  0  0  0  0  0  0
  -23.5907   -7.5097   21.1216 C   0  0  0  0  0  0  0  0  0  0  0  0
  -23.9836  -13.9407   18.4752 C   0  0  0  0  0  0  0  0  0  0  0  0
  -25.4255  -15.3741   20.6225 C   0  0  0  0  0  0  0  0  0  0  0  0
  -24.6406   -8.5407   21.5279 C   0  0  0  0  0  0  0  0  0  0  0  0
  -25.3091  -32.2401   22.3107 C   0  0  0  0  0  0  0  0  0  0  0  0
  -23.9789   -9.7407   22.1980 C   0  0  0  0  0  0  0  0  0  0  0  0
  -25.9692  -31.3594   21.2484 C   0  0  0  0  0  0  0  0  0  0  0  0
  -20.8362  -25.0712   24.1841 C   0  0  0  0  0  0  0  0  0  0  0  0
  -19.9383  -25.3256   21.8356 C   0  0  0  0  0  0  0  0  0  0  0  0
  -24.5543  -31.4074   23.3446 C   0  0  0  0  0  0  0  0  0  0  0  0
  -24.2303  -29.5837   21.7190 C   0  0  0  0  0  0  0  0  0  0  0  0
  -20.2018  -26.4040   24.5606 C   0  0  0  0  0  0  0  0  0  0  0  0
  -19.3105  -26.6562   22.2301 C   0  0  0  0  0  0  0  0  0  0  0  0
  -20.0705  -24.3807   23.0424 C   0  0  0  0  0  0  0  0  0  0  0  0
  -23.0139  -10.4462   21.2376 C   0  0  1  0  0  0  0  0  0  0  0  0
  -24.9058  -13.2124   19.4481 C   0  0  1  0  0  0  0  0  0  0  0  0
  -24.9567  -30.3814   20.6225 C   0  0  2  0  0  0  0  0  0  0  0  0
  -31.4731  -17.4861   19.4184 C   0  0  0  0  0  0  0  0  0  0  0  0
  -27.5091  -13.2906   23.2661 C   0  0  0  0  0  0  0  0  0  0  0  0
  -29.5545  -14.7295   23.1476 C   0  0  0  0  0  0  0  0  0  0  0  0
  -29.4901  -12.5537   21.9293 C   0  0  0  0  0  0  0  0  0  0  0  0
  -29.0340  -16.0715   16.8638 C   0  0  0  0  0  0  0  0  0  0  0  0
  -22.7495  -19.4979   21.4913 C   0  0  0  0  0  0  0  0  0  1  0  0
  -19.9914  -29.6325   22.5735 C   0  0  0  0  0  0  0  0  0  0  0  0
  -19.6191  -28.6617   23.6786 C   0  0  0  0  0  0  0  0  0  0  0  0
  -28.1224  -14.4976   21.0676 C   0  0  1  0  0  0  0  0  0  0  0  0
  -30.4816  -16.4782   18.8583 C   0  0  2  0  0  0  0  0  0  0  0  0
  -28.6440  -13.7774   22.3431 C   0  0  0  0  0  0  0  0  0  0  0  0
  -26.0876  -28.2815   19.9950 N   0  0  0  0  0  0  0  0  0  0  0  0
  -25.6138  -29.4749   19.5982 N   0  0  0  0  0  0  0  0  0  0  0  0
  -25.8987  -14.0996   20.0574 N   0  0  0  0  0  0  0  0  0  0  0  0
  -23.6093  -30.5023   22.6861 N   0  0  0  0  0  0  0  0  0  0  0  0
  -25.3759  -30.8779   17.7047 N   0  0  0  0  0  0  0  0  0  0  0  0
  -27.4664  -27.2346   16.0457 N   0  0  0  0  0  0  0  0  0  0  0  0
  -23.7468  -11.2635   20.2945 N   0  0  0  0  0  0  0  0  0  0  0  0
  -29.1746  -14.9455   20.1618 N   0  0  0  0  0  0  0  0  0  0  0  0
  -21.4183  -29.6801   22.3440 N   0  0  0  0  0  0  0  0  0  0  0  0
  -20.1214  -27.2856   23.3375 N   0  3  0  0  0  0  0  0  0  0  0  0
  -29.9990  -16.9767   17.5394 N   0  3  0  0  0  0  0  0  0  0  0  0
  -26.6283  -29.3026   15.5169 O   0  0  0  0  0  0  0  0  0  0  0  0
  -23.9714  -13.1677   21.6160 O   0  0  0  0  0  0  0  0  0  0  0  0
  -27.6301  -12.5613   19.7890 O   0  0  0  0  0  0  0  0  0  0  0  0
  -28.5949  -17.1906   20.1889 O   0  0  0  0  0  0  0  0  0  0  0  0
  -21.7996  -31.3644   23.8522 O   0  0  0  0  0  0  0  0  0  0  0  0
  -28.9583  -22.7004   18.9181 O   0  0  0  0  0  0  0  0  0  0  0  0
  -22.0011  -18.8645   20.4545 O   0  0  0  0  0  0  0  0  0  1  0  0
  -26.3552  -18.6760   21.6442 F   0  0  0  0  0  0  0  0  0  0  0  0
  -28.1278  -20.4097   17.6121 F   0  0  0  0  0  0  0  0  0  0  0  0
  1  2  1  0  0  0  0
  1  5  2  0  0  0  0
  2  6  2  0  0  0  0
  3 12  2  0  0  0  0
  3 19  1  0  0  0  0
  4 13  1  0  0  0  0
  4 19  2  0  0  0  0
  5 22  1  0  0  0  0
  6 24  1  0  0  0  0
  7 10  2  0  0  0  0
  7 21  1  0  0  0  0
  8 11  1  0  0  0  0
  8 21  2  0  0  0  0
  9 14  2  0  0  0  0
  9 23  1  0  0  0  0
 10 26  1  0  0  0  0
 11 26  2  0  0  0  0
 12 27  1  0  0  0  0
 13 27  2  0  0  0  0
 14 28  1  0  0  0  0
 15 16  2  0  0  0  0
 15 29  1  0  0  0  0
 16 30  1  0  0  0  0
 17 25  1  0  0  0  0
 17 28  2  0  0  0  0
 18 30  2  0  0  0  0
 18 31  1  0  0  0  0
 19 32  1  0  0  0  0
 20 32  1  0  0  0  0
 20 33  2  0  0  0  0
 20 34  1  0  0  0  0
 21 52  1  0  0  0  0
 22 24  2  0  0  0  0
 22 39  1  0  0  0  0
 23 25  2  0  0  0  0
 23 40  1  0  0  0  0
 24 53  1  0  0  0  0
 25 41  1  0  0  0  0
 26 61  1  0  0  0  0
 27 83  1  0  0  0  0
 28 84  1  0  0  0  0
 29 31  2  0  0  0  0
 29 83  1  0  0  0  0
 30 85  1  0  0  0  0
 31 86  1  0  0  0  0
 32 67  2  0  0  0  0
 33 68  1  0  0  0  0
 33 71  1  0  0  0  0
 34 72  1  0  0  0  0
 34 78  2  0  0  0  0
 35 54  1  0  0  0  0
 35 73  1  0  0  0  0
 35 79  2  0  0  0  0
 36 64  1  0  0  0  0
 36 69  1  0  0  0  0
 36 80  2  0  0  0  0
 37 65  1  0  0  0  0
 37 74  1  0  0  0  0
 37 81  2  0  0  0  0
 38 70  1  0  0  0  0
 38 75  1  0  0  0  0
 38 82  2  0  0  0  0
 39 42  1  0  0  0  0
 40 54  1  0  0  0  0
 41 69  1  0  0  0  0
 42 44  1  0  0  0  0
 43 45  1  0  0  0  0
 43 48  1  0  0  0  0
 44 53  1  0  0  0  0
 45 55  1  0  0  0  0
 46 50  1  0  0  0  0
 46 52  1  0  0  0  0
 47 51  1  0  0  0  0
 47 52  1  0  0  0  0
 48 70  1  0  0  0  0
 49 55  1  0  0  0  0
 49 70  1  0  0  0  0
 50 76  1  0  0  0  0
 51 76  1  0  0  0  0
 53 73  1  0  0  0  0
 54 69  1  0  0  0  0
 55 68  1  0  0  0  0
 56 65  1  0  0  0  0
 57 66  1  0  0  0  0
 58 66  1  0  0  0  0
 59 66  1  0  0  0  0
 60 77  1  0  0  0  0
 61 84  1  0  0  0  0
 62 63  1  0  0  0  0
 62 75  1  0  0  0  0
 63 76  1  0  0  0  0
 64 66  1  0  0  0  0
 64 74  1  0  0  0  0
 65 77  1  0  0  0  0
 67 68  1  0  0  0  0
M  CHG  2  76   1  77   1
M  ISO  4  38 100  61 101  75 100  84 101
M  END
> <Batch ID>
0003

> <Smiles>
CNC(C)C(=O)NC(C(=O)N1Cc2cc([101O:1][101CH2:1]c3ccc(C4CCN(CC[100NH:0][100C:0](=O)N5CCCC(n6nc(-c7ccc(Oc8ccc(F)cc8F)cc7)c(C(N)=O)c6N)C5)CC4)cc3)ccc2CC1C(=O)NC1CCCc2ccccc21)C(C)(C)C

> <Shape>
0.266

> <Color>
0.060

> <Negative vol penalty>
0.000

$$$$

  -OEChem-04042320203D

 79 87  0     1  0  0  0  0  0999 V2000
  -33.0033  -25.8573   20.1747 C   0  0  0  0  0  0  0  0  0  0  0  0
  -31.8793  -25.4004   20.8536 C   0  0  0  0  0  0  0  0  0  0  0  0
  -27.0474  -31.9350   20.2641 C   0  0  0  0  0  0  0  0  0  0  0  0
  -26.0757  -31.2407   22.3643 C   0  0  0  0  0  0  0  0  0  0  0  0
  -33.3663  -25.2731   18.9630 C   0  0  0  0  0  0  0  0  0  0  0  0
  -31.1249  -24.3513   20.3271 C   0  0  0  0  0  0  0  0  0  0  0  0
  -25.9255  -21.8431   22.2771 C   0  0  0  0  0  0  0  0  0  0  0  0
  -27.0278  -33.2619   20.6936 C   0  0  0  0  0  0  0  0  0  0  0  0
  -26.0562  -32.5676   22.7939 C   0  0  0  0  0  0  0  0  0  0  0  0
  -24.5579  -22.0154   22.0678 C   0  0  0  0  0  0  0  0  0  0  0  0
  -28.2528  -34.8133   24.0398 C   0  0  0  0  0  0  0  0  0  0  0  0
  -28.6932  -35.0797   25.3362 C   0  0  0  0  0  0  0  0  0  0  0  0
  -24.5906  -20.2407   20.4342 C   0  0  0  0  0  0  0  0  0  0  0  0
  -26.5262  -35.9970   25.8838 C   0  0  0  0  0  0  0  0  0  0  0  0
  -26.5713  -30.9243   21.0994 C   0  0  0  0  0  0  0  0  0  0  0  0
  -27.6296  -28.6191   20.8280 C   0  0  0  0  0  0  0  0  0  0  0  0
  -32.6083  -24.2248   18.4159 C   0  0  0  0  0  0  0  0  0  0  0  0
  -26.6392  -20.8741   21.5574 C   0  0  0  0  0  0  0  0  0  0  0  0
  -31.4888  -23.7327   19.1173 C   0  0  0  0  0  0  0  0  0  0  0  0
  -25.9667  -20.0564   20.6381 C   0  0  0  0  0  0  0  0  0  0  0  0
  -26.5322  -33.5782   21.9585 C   0  0  0  0  0  0  0  0  0  0  0  0
  -23.8908  -21.2161   21.1441 C   0  0  0  0  0  0  0  0  0  0  0  0
  -26.9491  -35.1387   23.6653 C   0  0  0  0  0  0  0  0  0  0  0  0
  -27.8299  -35.6716   26.2582 C   0  0  0  0  0  0  0  0  0  0  0  0
  -26.0858  -35.7306   24.5873 C   0  0  0  0  0  0  0  0  0  0  0  0
  -26.5908  -29.5535   20.6560 C   0  0  0  0  0  0  0  0  0  0  0  0
  -27.1620  -27.4726   20.2336 C   0  0  0  0  0  0  0  0  0  0  0  0
  -28.9033  -28.7737   21.4678 C   0  0  0  0  0  0  0  0  0  0  0  0
  -29.0538  -20.9410   19.4912 C   0  0  0  0  0  0  0  0  0  0  0  0
  -28.8584  -17.7139   19.7557 C   0  0  0  0  0  0  0  0  0  0  0  0
  -26.9605  -14.9778   20.5032 C   0  0  0  0  0  0  0  0  0  0  0  0
  -21.3833  -25.9228   19.1731 C   0  0  0  0  0  0  0  0  0  0  0  0
  -33.0509  -23.6236   17.1052 C   0  0  0  0  0  0  0  0  0  0  0  0
  -28.1089  -20.6827   21.8142 C   0  0  0  0  0  0  0  0  0  0  0  0
  -26.6831  -18.9880   19.8547 C   0  0  0  0  0  0  0  0  0  0  0  0
  -31.9485  -22.8283   16.4136 C   0  0  0  0  0  0  0  0  0  0  0  0
  -24.2417  -25.9634   16.7668 C   0  0  0  0  0  0  0  0  0  0  0  0
  -31.3119  -21.8582   17.3976 C   0  0  0  0  0  0  0  0  0  0  0  0
  -25.2281  -26.8720   17.5001 C   0  0  0  0  0  0  0  0  0  0  0  0
  -18.7234  -24.2208   19.9347 C   0  0  0  0  0  0  0  0  0  0  0  0
  -22.8026  -26.3102   17.1275 C   0  0  0  0  0  0  0  0  0  0  0  0
  -19.1687  -24.9611   18.6757 C   0  0  0  0  0  0  0  0  0  0  0  0
  -21.2037  -23.7977   17.7937 C   0  0  0  0  0  0  0  0  0  0  0  0
  -23.4987  -27.1820   19.3309 C   0  0  0  0  0  0  0  0  0  0  0  0
  -18.8327  -22.7033   19.8756 C   0  0  0  0  0  0  0  0  0  0  0  0
  -20.5397  -22.4469   18.0429 C   0  0  0  0  0  0  0  0  0  0  0  0
  -30.6355  -22.6133   18.5488 C   0  0  1  0  0  0  0  0  0  0  0  0
  -28.8362  -20.0127   20.6525 C   0  0  1  0  0  0  0  0  0  0  0  0
  -24.9690  -26.8584   19.0168 C   0  0  2  0  0  0  0  0  0  0  0  0
  -27.0649  -12.4720   20.5902 C   0  0  0  0  0  0  0  0  0  0  0  0
  -28.6535  -17.6022   16.7135 C   0  0  0  0  0  0  0  0  0  0  0  0
  -27.8203  -15.2508   16.9255 C   0  0  0  0  0  0  0  0  0  0  0  0
  -30.1085  -15.8383   17.7265 C   0  0  0  0  0  0  0  0  0  0  0  0
  -26.3962  -14.9393   23.4082 C   0  0  0  0  0  0  0  0  0  0  0  0
  -20.4468  -20.8133   19.9226 C   0  0  0  0  0  0  0  0  0  0  0  0
  -21.9351  -20.5306   19.9773 C   0  0  0  0  0  0  0  0  0  1  0  0
  -28.0959  -16.6265   19.0379 C   0  0  1  0  0  0  0  0  0  0  0  0
  -27.2402  -13.7647   21.3719 C   0  0  2  0  0  0  0  0  0  0  0  0
  -28.6561  -16.3508   17.6140 C   0  0  0  0  0  0  0  0  0  0  0  0
  -25.5424  -29.0447   20.0034 N   0  0  0  0  0  0  0  0  0  0  0  0
  -25.9200  -27.7782   19.7599 N   0  0  0  0  0  0  0  0  0  0  0  0
  -28.1209  -18.8438   20.1366 N   0  0  0  0  0  0  0  0  0  0  0  0
  -22.5955  -26.3078   18.5803 N   0  0  0  0  0  0  0  0  0  0  0  0
  -20.6216  -24.9425   18.5046 N   0  0  0  0  0  0  0  0  0  0  0  0
  -27.6961  -26.2430   20.0750 N   0  0  0  0  0  0  0  0  0  0  0  0
  -29.2236  -30.0185   22.0266 N   0  0  0  0  0  0  0  0  0  0  0  0
  -30.2291  -21.6642   19.5616 N   0  0  0  0  0  0  0  0  0  0  0  0
  -28.1115  -15.4656   19.9214 N   0  0  0  0  0  0  0  0  0  0  0  0
  -20.2272  -22.2474   19.5089 N   0  3  2  0  0  0  0  0  0  0  0  0
  -26.3130  -13.7379   22.5383 N   0  3  0  0  0  0  0  0  0  0  0  0
  -29.7395  -27.8405   21.5274 O   0  0  0  0  0  0  0  0  0  0  0  0
  -28.2180  -20.9958   18.5967 O   0  0  0  0  0  0  0  0  0  0  0  0
  -30.0626  -17.5630   19.9769 O   0  0  0  0  0  0  0  0  0  0  0  0
  -25.8332  -15.4436   20.3527 O   0  0  0  0  0  0  0  0  0  0  0  0
  -21.0159  -26.4087   20.2508 O   0  0  0  0  0  0  0  0  0  0  0  0
  -26.5132  -34.8729   22.3781 O   0  0  0  0  0  0  0  0  0  0  0  0
  -22.5465  -21.3837   20.9359 O   0  0  0  0  0  0  0  0  0  1  0  0
  -28.2524  -35.9260   27.5035 F   0  0  0  0  0  0  0  0  0  0  0  0
  -24.8319  -36.0444   24.2338 F   0  0  0  0  0  0  0  0  0  0  0  0
  1  2  1  0  0  0  0
  1  5  2  0  0  0  0
  2  6  2  0  0  0  0
  3  8  2  0  0  0  0
  3 15  1  0  0  0  0
  4  9  1  0  0  0  0
  4 15  2  0  0  0  0
  5 17  1  0  0  0  0
  6 19  1  0  0  0  0
  7 10  2  0  0  0  0
  7 18  1  0  0  0  0
  8 21  1  0  0  0  0
  9 21  2  0  0  0  0
 10 22  1  0  0  0  0
 11 12  2  0  0  0  0
 11 23  1  0  0  0  0
 12 24  1  0  0  0  0
 13 20  1  0  0  0  0
 13 22  2  0  0  0  0
 14 24  2  0  0  0  0
 14 25  1  0  0  0  0
 15 26  1  0  0  0  0
 16 26  1  0  0  0  0
 16 27  2  0  0  0  0
 16 28  1  0  0  0  0
 17 19  2  0  0  0  0
 17 33  1  0  0  0  0
 18 20  2  0  0  0  0
 18 34  1  0  0  0  0
 19 47  1  0  0  0  0
 20 35  1  0  0  0  0
 21 76  1  0  0  0  0
 22 77  1  0  0  0  0
 23 25  2  0  0  0  0
 23 76  1  0  0  0  0
 24 78  1  0  0  0  0
 25 79  1  0  0  0  0
 26 60  2  0  0  0  0
 27 61  1  0  0  0  0
 27 65  1  0  0  0  0
 28 66  1  0  0  0  0
 28 71  2  0  0  0  0
 29 48  1  0  0  0  0
 29 67  1  0  0  0  0
 29 72  2  0  0  0  0
 30 57  1  0  0  0  0
 30 62  1  0  0  0  0
 30 73  2  0  0  0  0
 31 58  1  0  0  0  0
 31 68  1  0  0  0  0
 31 74  2  0  0  0  0
 32 63  1  0  0  0  0
 32 64  1  0  0  0  0
 32 75  2  0  0  0  0
 33 36  1  0  0  0  0
 34 48  1  0  0  0  0
 35 62  1  0  0  0  0
 36 38  1  0  0  0  0
 37 39  1  0  0  0  0
 37 41  1  0  0  0  0
 38 47  1  0  0  0  0
 39 49  1  0  0  0  0
 40 42  1  0  0  0  0
 40 45  1  0  0  0  0
 41 63  1  0  0  0  0
 42 64  1  0  0  0  0
 43 46  1  0  0  0  0
 43 64  1  0  0  0  0
 44 49  1  0  0  0  0
 44 63  1  0  0  0  0
 45 69  1  0  0  0  0
 46 69  1  0  0  0  0
 47 67  1  0  0  0  0
 48 62  1  0  0  0  0
 49 61  1  0  0  0  0
 50 58  1  0  0  0  0
 51 59  1  0  0  0  0
 52 59  1  0  0  0  0
 53 59  1  0  0  0  0
 54 70  1  0  0  0  0
 55 56  1  0  0  0  0
 55 69  1  0  0  0  0
 56 77  1  0  0  0  0
 57 59  1  0  0  0  0
 57 68  1  0  0  0  0
 58 70  1  0  0  0  0
 60 61  1  0  0  0  0
M  CHG  2  69   1  70   1
M  ISO  4  32 100  56 101  64 100  77 101
M  END
> <Batch ID>
0003

> <Smiles>
CNC(C)C(=O)NC(C(=O)N1Cc2cc([101O:1][101CH2:1]CN3CCC[100N:0]([100C:0](=O)N4CCCC(n5nc(-c6ccc(Oc7ccc(F)cc7F)cc6)c(C(N)=O)c5N)C4)CC3)ccc2CC1C(=O)NC1CCCc2ccccc21)C(C)(C)C

> <Shape>
0.197

> <Color>
0.076

> <Negative vol penalty>
0.000

$$$$

  -OEChem-04042320203D

 83 92  0     1  0  0  0  0  0999 V2000
  -19.7211  -30.8208   19.9108 C   0  0  0  0  0  0  0  0  0  0  0  0
  -21.0635  -30.4691   20.0094 C   0  0  0  0  0  0  0  0  0  0  0  0
  -26.1086  -14.1283   21.5995 C   0  0  0  0  0  0  0  0  0  0  0  0
  -25.9463  -15.5746   19.6711 C   0  0  0  0  0  0  0  0  0  0  0  0
  -18.8058  -30.3423   20.8474 C   0  0  0  0  0  0  0  0  0  0  0  0
  -21.4916  -29.6397   21.0454 C   0  0  0  0  0  0  0  0  0  0  0  0
  -30.8804  -24.6510   20.5089 C   0  0  0  0  0  0  0  0  0  0  0  0
  -24.6483  -26.0141   19.4532 C   0  0  0  0  0  0  0  0  0  0  0  0
  -31.1006  -23.3992   21.0835 C   0  0  0  0  0  0  0  0  0  0  0  0
  -24.7358  -13.8896   21.5360 C   0  0  0  0  0  0  0  0  0  0  0  0
  -24.5735  -15.3358   19.6075 C   0  0  0  0  0  0  0  0  0  0  0  0
  -25.9710  -26.3826   19.2114 C   0  0  0  0  0  0  0  0  0  0  0  0
  -22.6215  -11.9769   19.7182 C   0  0  0  0  0  0  0  0  0  0  0  0
  -22.1855  -10.6595   19.8591 C   0  0  0  0  0  0  0  0  0  0  0  0
  -26.6080  -25.4807   21.3562 C   0  0  0  0  0  0  0  0  0  0  0  0
  -30.4233  -22.3344   19.0232 C   0  0  0  0  0  0  0  0  0  0  0  0
  -20.8972  -11.2937   21.8021 C   0  0  0  0  0  0  0  0  0  0  0  0
  -26.7138  -14.9709   20.6671 C   0  0  0  0  0  0  0  0  0  0  0  0
  -29.1527  -14.4862   20.0973 C   0  0  0  0  0  0  0  0  0  0  0  0
  -19.2212  -29.4988   21.8897 C   0  0  0  0  0  0  0  0  0  0  0  0
  -24.2931  -25.3849   20.6550 C   0  0  0  0  0  0  0  0  0  0  0  0
  -20.5811  -29.1506   21.9975 C   0  0  0  0  0  0  0  0  0  0  0  0
  -30.4315  -24.7445   19.1915 C   0  0  0  0  0  0  0  0  0  0  0  0
  -25.2805  -25.1029   21.6097 C   0  0  0  0  0  0  0  0  0  0  0  0
  -30.8721  -22.2409   20.3406 C   0  0  0  0  0  0  0  0  0  0  0  0
  -23.9682  -14.4933   20.5401 C   0  0  0  0  0  0  0  0  0  0  0  0
  -26.9506  -26.1185   20.1642 C   0  0  0  0  0  0  0  0  0  0  0  0
  -22.1955  -12.9527   20.6193 C   0  0  0  0  0  0  0  0  0  0  0  0
  -21.3233  -10.3179   20.9010 C   0  0  0  0  0  0  0  0  0  0  0  0
  -30.2030  -23.5863   18.4487 C   0  0  0  0  0  0  0  0  0  0  0  0
  -21.3333  -12.6111   21.6612 C   0  0  0  0  0  0  0  0  0  0  0  0
  -28.1318  -15.2183   20.7325 C   0  0  0  0  0  0  0  0  0  0  0  0
  -30.3129  -15.1182   20.4726 C   0  0  0  0  0  0  0  0  0  0  0  0
  -29.0605  -13.3375   19.2441 C   0  0  0  0  0  0  0  0  0  0  0  0
  -22.3747  -26.1083   23.0840 C   0  0  0  0  0  0  0  0  0  0  0  0
  -23.1292  -23.1098   24.0649 C   0  0  0  0  0  0  0  0  0  0  0  0
  -25.3283  -20.5014   23.9807 C   0  0  0  0  0  0  0  0  0  0  0  0
  -31.5404  -20.6996   22.2179 C   0  0  0  0  0  0  0  0  0  0  0  0
  -18.2031  -29.0449   22.9057 C   0  0  0  0  0  0  0  0  0  0  0  0
  -22.8665  -24.9696   20.8891 C   0  0  0  0  0  0  0  0  0  0  0  0
  -24.9545  -24.4113   22.9073 C   0  0  0  0  0  0  0  0  0  0  0  0
  -18.6739  -27.8674   23.7556 C   0  0  0  0  0  0  0  0  0  0  0  0
  -31.1602  -27.8804   17.6025 C   0  0  0  0  0  0  0  0  0  0  0  0
  -32.1802  -17.7091   24.0412 C   0  0  0  0  0  0  0  0  0  0  0  0
  -20.0934  -28.1070   24.2600 C   0  0  0  0  0  0  0  0  0  0  0  0
  -31.3122  -16.6630   23.3380 C   0  0  0  0  0  0  0  0  0  0  0  0
  -31.0705  -27.3670   19.0502 C   0  0  0  0  0  0  0  0  0  0  0  0
  -30.8342  -26.4513   17.1345 C   0  0  0  0  0  0  0  0  0  0  0  0
  -31.4932  -19.0724   24.0954 C   0  0  0  0  0  0  0  0  0  0  0  0
  -30.1544  -18.5363   22.0981 C   0  0  0  0  0  0  0  0  0  0  0  0
  -21.0798  -28.2329   23.0927 C   0  0  1  0  0  0  0  0  0  0  0  0
  -22.5293  -24.7970   22.3669 C   0  0  1  0  0  0  0  0  0  0  0  0
  -30.8315  -17.1627   21.9615 C   0  0  2  0  0  0  0  0  0  0  0  0
  -30.1805  -26.1842   18.5341 C   0  0  0  0  0  0  0  0  0  0  0  0
  -25.6918  -18.2004   24.9139 C   0  0  0  0  0  0  0  0  0  0  0  0
  -23.9573  -24.3272   26.7373 C   0  0  0  0  0  0  0  0  0  0  0  0
  -25.1670  -22.1969   27.2537 C   0  0  0  0  0  0  0  0  0  0  0  0
  -22.6953  -22.1757   26.9175 C   0  0  0  0  0  0  0  0  0  0  0  0
  -25.2955  -19.2773   21.2863 C   0  0  0  0  0  0  0  0  0  0  0  0
  -28.6770  -26.4930   18.5719 C   0  0  0  0  0  0  0  0  0  1  0  0
  -24.2146  -22.5074   24.9240 C   0  0  1  0  0  0  0  0  0  0  0  0
  -25.1185  -19.0136   23.7638 C   0  0  2  0  0  0  0  0  0  0  0  0
  -24.0147  -22.8166   26.4346 C   0  0  0  0  0  0  0  0  0  0  0  0
  -28.6021  -16.2374   21.4566 N   0  0  0  0  0  0  0  0  0  0  0  0
  -29.9313  -16.1501   21.2787 N   0  0  0  0  0  0  0  0  0  0  0  0
  -23.5444  -24.0306   23.0925 N   0  0  0  0  0  0  0  0  0  0  0  0
  -31.0690  -19.4831   22.7551 N   0  0  0  0  0  0  0  0  0  0  0  0
  -31.6121  -14.8863   20.1885 N   0  0  0  0  0  0  0  0  0  0  0  0
  -27.7908  -12.8160   18.9607 N   0  0  0  0  0  0  0  0  0  0  0  0
  -31.0959  -20.9691   20.9239 N   0  0  0  0  0  0  0  0  0  0  0  0
  -21.3955  -26.9270   22.5546 N   0  0  0  0  0  0  0  0  0  0  0  0
  -24.2455  -21.0843   24.6044 N   0  0  0  0  0  0  0  0  0  0  0  0
  -25.7806  -18.5756   22.5026 N   0  3  0  0  0  0  0  0  0  0  0  0
  -30.0750  -12.7800   18.7611 O   0  0  0  0  0  0  0  0  0  0  0  0
  -23.0899  -26.3582   24.0473 O   0  0  0  0  0  0  0  0  0  0  0  0
  -21.9571  -22.7703   24.2449 O   0  0  0  0  0  0  0  0  0  0  0  0
  -26.3520  -21.0871   23.6350 O   0  0  0  0  0  0  0  0  0  0  0  0
  -32.3055  -21.4341   22.8480 O   0  0  0  0  0  0  0  0  0  0  0  0
  -22.6287  -14.2604   20.4776 O   0  0  0  0  0  0  0  0  0  0  0  0
  -28.2423  -26.4777   19.9310 O   0  0  0  0  0  0  0  0  0  1  0  0
  -20.9034   -9.0530   21.0352 F   0  0  0  0  0  0  0  0  0  0  0  0
  -29.7734  -23.6674   17.1817 F   0  0  0  0  0  0  0  0  0  0  0  0
  -20.9196  -13.5445   22.5293 F   0  0  0  0  0  0  0  0  0  0  0  0
  1  2  1  0  0  0  0
  1  5  2  0  0  0  0
  2  6  2  0  0  0  0
  3 10  2  0  0  0  0
  3 18  1  0  0  0  0
  4 11  1  0  0  0  0
  4 18  2  0  0  0  0
  5 20  1  0  0  0  0
  6 22  1  0  0  0  0
  7  9  2  0  0  0  0
  7 23  1  0  0  0  0
  8 12  2  0  0  0  0
  8 21  1  0  0  0  0
  9 25  1  0  0  0  0
 10 26  1  0  0  0  0
 11 26  2  0  0  0  0
 12 27  1  0  0  0  0
 13 14  2  0  0  0  0
 13 28  1  0  0  0  0
 14 29  1  0  0  0  0
 15 24  1  0  0  0  0
 15 27  2  0  0  0  0
 16 25  2  0  0  0  0
 16 30  1  0  0  0  0
 17 29  2  0  0  0  0
 17 31  1  0  0  0  0
 18 32  1  0  0  0  0
 19 32  1  0  0  0  0
 19 33  2  0  0  0  0
 19 34  1  0  0  0  0
 20 22  2  0  0  0  0
 20 39  1  0  0  0  0
 21 24  2  0  0  0  0
 21 40  1  0  0  0  0
 22 51  1  0  0  0  0
 23 30  2  0  0  0  0
 23 54  1  0  0  0  0
 24 41  1  0  0  0  0
 25 70  1  0  0  0  0
 26 79  1  0  0  0  0
 27 80  1  0  0  0  0
 28 31  2  0  0  0  0
 28 79  1  0  0  0  0
 29 81  1  0  0  0  0
 30 82  1  0  0  0  0
 31 83  1  0  0  0  0
 32 64  2  0  0  0  0
 33 65  1  0  0  0  0
 33 68  1  0  0  0  0
 34 69  1  0  0  0  0
 34 74  2  0  0  0  0
 35 52  1  0  0  0  0
 35 71  1  0  0  0  0
 35 75  2  0  0  0  0
 36 61  1  0  0  0  0
 36 66  1  0  0  0  0
 36 76  2  0  0  0  0
 37 62  1  0  0  0  0
 37 72  1  0  0  0  0
 37 77  2  0  0  0  0
 38 67  1  0  0  0  0
 38 70  1  0  0  0  0
 38 78  2  0  0  0  0
 39 42  1  0  0  0  0
 40 52  1  0  0  0  0
 41 66  1  0  0  0  0
 42 45  1  0  0  0  0
 43 47  1  0  0  0  0
 43 48  1  0  0  0  0
 44 46  1  0  0  0  0
 44 49  1  0  0  0  0
 45 51  1  0  0  0  0
 46 53  1  0  0  0  0
 47 54  1  0  0  0  0
 48 54  1  0  0  0  0
 49 67  1  0  0  0  0
 50 53  1  0  0  0  0
 50 67  1  0  0  0  0
 51 71  1  0  0  0  0
 52 66  1  0  0  0  0
 53 65  1  0  0  0  0
 54 60  1  0  0  0  0
 55 62  1  0  0  0  0
 56 63  1  0  0  0  0
 57 63  1  0  0  0  0
 58 63  1  0  0  0  0
 59 73  1  0  0  0  0
 60 80  1  0  0  0  0
 61 63  1  0  0  0  0
 61 72  1  0  0  0  0
 62 73  1  0  0  0  0
 64 65  1  0  0  0  0
M  CHG  1  73   1
M  ISO  4  38 100  60 101  70 100  80 101
M  END
> <Batch ID>
0003

> <Smiles>
CNC(C)C(=O)NC(C(=O)N1Cc2cc([101O:1][101CH2:1]C3(c4ccc([100NH:0][100C:0](=O)N5CCCC(n6nc(-c7ccc(Oc8ccc(F)cc8F)cc7)c(C(N)=O)c6N)C5)cc4F)CCC3)ccc2CC1C(=O)NC1CCCc2ccccc21)C(C)(C)C

> <Shape>
0.229

> <Color>
0.057

> <Negative vol penalty>
0.000

$$$$

  -OEChem-04042320203D

 85 94  0     1  0  0  0  0  0999 V2000
  -21.7428  -18.3969   22.2756 C   0  0  0  0  0  0  0  0  0  0  0  0
  -22.8171  -19.2807   22.2608 C   0  0  0  0  0  0  0  0  0  0  0  0
  -23.0546   -9.7922   19.9660 C   0  0  0  0  0  0  0  0  0  0  0  0
  -23.7274   -9.9092   22.2834 C   0  0  0  0  0  0  0  0  0  0  0  0
  -20.5090  -18.7926   21.7608 C   0  0  0  0  0  0  0  0  0  0  0  0
  -22.6585  -20.5604   21.7301 C   0  0  0  0  0  0  0  0  0  0  0  0
  -31.2790  -19.0317   20.4994 C   0  0  0  0  0  0  0  0  0  0  0  0
  -29.5822  -19.3034   22.1977 C   0  0  0  0  0  0  0  0  0  0  0  0
  -24.7363  -24.1433   24.6440 C   0  0  0  0  0  0  0  0  0  0  0  0
  -31.1100  -17.6482   20.5518 C   0  0  0  0  0  0  0  0  0  0  0  0
  -29.4131  -17.9199   22.2501 C   0  0  0  0  0  0  0  0  0  0  0  0
  -22.3002   -8.6520   20.2425 C   0  0  0  0  0  0  0  0  0  0  0  0
  -22.9729   -8.7691   22.5601 C   0  0  0  0  0  0  0  0  0  0  0  0
  -26.1206  -24.2950   24.5770 C   0  0  0  0  0  0  0  0  0  0  0  0
  -21.5136   -5.6817   23.8044 C   0  0  0  0  0  0  0  0  0  0  0  0
  -22.0985   -4.6936   24.5964 C   0  0  0  0  0  0  0  0  0  0  0  0
  -25.8364  -26.1813   23.1005 C   0  0  0  0  0  0  0  0  0  0  0  0
  -23.8653   -4.4350   22.9689 C   0  0  0  0  0  0  0  0  0  0  0  0
  -23.7683  -10.4207   20.9864 C   0  0  0  0  0  0  0  0  0  0  0  0
  -24.1180  -12.9374   20.7587 C   0  0  0  0  0  0  0  0  0  0  0  0
  -30.5152  -19.8594   21.3224 C   0  0  0  0  0  0  0  0  0  0  0  0
  -20.3325  -20.0811   21.2324 C   0  0  0  0  0  0  0  0  0  0  0  0
  -23.8906  -25.0042   23.9299 C   0  0  0  0  0  0  0  0  0  0  0  0
  -21.4215  -20.9733   21.2066 C   0  0  0  0  0  0  0  0  0  0  0  0
  -24.4416  -26.0401   23.1622 C   0  0  0  0  0  0  0  0  0  0  0  0
  -30.1770  -17.0922   21.4271 C   0  0  0  0  0  0  0  0  0  0  0  0
  -22.2593   -8.1405   21.5396 C   0  0  0  0  0  0  0  0  0  0  0  0
  -26.6710  -25.3123   23.8028 C   0  0  0  0  0  0  0  0  0  0  0  0
  -22.1045   -6.0464   22.5947 C   0  0  0  0  0  0  0  0  0  0  0  0
  -23.2744   -4.0703   24.1787 C   0  0  0  0  0  0  0  0  0  0  0  0
  -23.2804   -5.4231   22.1769 C   0  0  0  0  0  0  0  0  0  0  0  0
  -24.5482  -11.5982   20.7012 C   0  0  0  0  0  0  0  0  0  0  0  0
  -25.2241  -13.6690   20.4015 C   0  0  0  0  0  0  0  0  0  0  0  0
  -22.8333  -13.4722   21.1042 C   0  0  0  0  0  0  0  0  0  0  0  0
  -21.7542  -24.6315   21.6059 C   0  0  0  0  0  0  0  0  0  0  0  0
  -21.1874  -27.7781   22.1534 C   0  0  0  0  0  0  0  0  0  0  0  0
  -22.3385  -30.7673   23.3310 C   0  0  0  0  0  0  0  0  0  0  0  0
  -30.6813  -14.7239   20.7323 C   0  0  0  0  0  0  0  0  0  0  0  0
  -18.9929  -20.4473   20.6441 C   0  0  0  0  0  0  0  0  0  0  0  0
  -22.3986  -24.8440   24.0340 C   0  0  0  0  0  0  0  0  0  0  0  0
  -23.5766  -27.0035   22.3928 C   0  0  0  0  0  0  0  0  0  0  0  0
  -18.8065  -21.9488   20.4415 C   0  0  0  0  0  0  0  0  0  0  0  0
  -29.6537  -12.1990   18.4418 C   0  0  0  0  0  0  0  0  0  0  0  0
  -20.0401  -22.5553   19.7802 C   0  0  0  0  0  0  0  0  0  0  0  0
  -28.1984  -11.9278   18.8302 C   0  0  0  0  0  0  0  0  0  0  0  0
  -29.3862  -22.0221   20.8372 C   0  0  0  0  0  0  0  0  0  0  0  0
  -31.1588  -21.8735   22.6324 C   0  0  0  0  0  0  0  0  0  0  0  0
  -30.5231  -12.4854   19.6649 C   0  0  0  0  0  0  0  0  0  0  0  0
  -28.5664  -13.2745   20.9368 C   0  0  0  0  0  0  0  0  0  0  0  0
  -29.5142  -23.5400   20.8502 C   0  0  0  0  0  0  0  0  0  0  0  0
  -31.2734  -23.3925   22.6314 C   0  0  0  0  0  0  0  0  0  0  0  0
  -30.6964  -21.3420   21.2661 C   0  0  0  0  0  0  0  0  0  0  0  0
  -21.2821  -22.3783   20.6620 C   0  0  1  0  0  0  0  0  0  0  0  0
  -21.6481  -25.4580   22.8563 C   0  0  1  0  0  0  0  0  0  0  0  0
  -27.6385  -13.0446   19.7328 C   0  0  2  0  0  0  0  0  0  0  0  0
  -21.6610  -33.1674   23.6099 C   0  0  0  0  0  0  0  0  0  0  0  0
  -21.6400  -28.2497   19.1730 C   0  0  0  0  0  0  0  0  0  0  0  0
  -21.8951  -30.6904   19.6689 C   0  0  0  0  0  0  0  0  0  0  0  0
  -19.7362  -29.5395   20.1559 C   0  0  0  0  0  0  0  0  0  0  0  0
  -22.6103  -30.6229   26.2745 C   0  0  0  0  0  0  0  0  0  0  0  0
  -29.9706  -25.4961   22.3267 C   0  0  0  0  0  0  0  0  0  0  0  0
  -28.5557  -26.0020   22.5268 C   0  0  0  0  0  0  0  0  0  1  0  0
  -21.7461  -29.0741   21.6173 C   0  0  1  0  0  0  0  0  0  0  0  0
  -21.7125  -31.7929   24.2587 C   0  0  2  0  0  0  0  0  0  0  0  0
  -21.2710  -29.3692   20.1666 C   0  0  0  0  0  0  0  0  0  0  0  0
  -25.8278  -11.4829   20.3361 N   0  0  0  0  0  0  0  0  0  0  0  0
  -26.2111  -12.7590   20.1608 N   0  0  0  0  0  0  0  0  0  0  0  0
  -22.1239  -26.8018   22.5215 N   0  0  0  0  0  0  0  0  0  0  0  0
  -29.9329  -13.5569   20.4702 N   0  0  0  0  0  0  0  0  0  0  0  0
  -25.4391  -14.9955   20.2728 N   0  0  0  0  0  0  0  0  0  0  0  0
  -21.8081  -12.5798   21.4461 N   0  0  0  0  0  0  0  0  0  0  0  0
  -30.0049  -15.6868   21.4804 N   0  0  0  0  0  0  0  0  0  0  0  0
  -21.2768  -23.3419   21.7418 N   0  0  0  0  0  0  0  0  0  0  0  0
  -21.3866  -30.1049   22.5852 N   0  0  0  0  0  0  0  0  0  0  0  0
  -29.9515  -24.0151   22.2229 N   0  3  0  0  0  0  0  0  0  0  0  0
  -22.4984  -31.8980   25.5205 N   0  3  0  0  0  0  0  0  0  0  0  0
  -22.5968  -14.7040   21.0936 O   0  0  0  0  0  0  0  0  0  0  0  0
  -22.2324  -25.1276   20.5926 O   0  0  0  0  0  0  0  0  0  0  0  0
  -19.9654  -27.6400   22.2488 O   0  0  0  0  0  0  0  0  0  0  0  0
  -23.5511  -30.5757   23.2711 O   0  0  0  0  0  0  0  0  0  0  0  0
  -31.8275  -14.8704   20.3001 O   0  0  0  0  0  0  0  0  0  0  0  0
  -21.5231   -7.0281   21.8099 O   0  0  0  0  0  0  0  0  0  0  0  0
  -28.0218  -25.4621   23.7351 O   0  0  0  0  0  0  0  0  0  1  0  0
  -23.8368   -3.1226   24.9400 F   0  0  0  0  0  0  0  0  0  0  0  0
  -23.8533   -5.7701   21.0163 F   0  0  0  0  0  0  0  0  0  0  0  0
  1  2  1  0  0  0  0
  1  5  2  0  0  0  0
  2  6  2  0  0  0  0
  3 12  2  0  0  0  0
  3 19  1  0  0  0  0
  4 13  1  0  0  0  0
  4 19  2  0  0  0  0
  5 22  1  0  0  0  0
  6 24  1  0  0  0  0
  7 10  2  0  0  0  0
  7 21  1  0  0  0  0
  8 11  1  0  0  0  0
  8 21  2  0  0  0  0
  9 14  2  0  0  0  0
  9 23  1  0  0  0  0
 10 26  1  0  0  0  0
 11 26  2  0  0  0  0
 12 27  1  0  0  0  0
 13 27  2  0  0  0  0
 14 28  1  0  0  0  0
 15 16  2  0  0  0  0
 15 29  1  0  0  0  0
 16 30  1  0  0  0  0
 17 25  1  0  0  0  0
 17 28  2  0  0  0  0
 18 30  2  0  0  0  0
 18 31  1  0  0  0  0
 19 32  1  0  0  0  0
 20 32  1  0  0  0  0
 20 33  2  0  0  0  0
 20 34  1  0  0  0  0
 21 52  1  0  0  0  0
 22 24  2  0  0  0  0
 22 39  1  0  0  0  0
 23 25  2  0  0  0  0
 23 40  1  0  0  0  0
 24 53  1  0  0  0  0
 25 41  1  0  0  0  0
 26 72  1  0  0  0  0
 27 82  1  0  0  0  0
 28 83  1  0  0  0  0
 29 31  2  0  0  0  0
 29 82  1  0  0  0  0
 30 84  1  0  0  0  0
 31 85  1  0  0  0  0
 32 66  2  0  0  0  0
 33 67  1  0  0  0  0
 33 70  1  0  0  0  0
 34 71  1  0  0  0  0
 34 77  2  0  0  0  0
 35 54  1  0  0  0  0
 35 73  1  0  0  0  0
 35 78  2  0  0  0  0
 36 63  1  0  0  0  0
 36 68  1  0  0  0  0
 36 79  2  0  0  0  0
 37 64  1  0  0  0  0
 37 74  1  0  0  0  0
 37 80  2  0  0  0  0
 38 69  1  0  0  0  0
 38 72  1  0  0  0  0
 38 81  2  0  0  0  0
 39 42  1  0  0  0  0
 40 54  1  0  0  0  0
 41 68  1  0  0  0  0
 42 44  1  0  0  0  0
 43 45  1  0  0  0  0
 43 48  1  0  0  0  0
 44 53  1  0  0  0  0
 45 55  1  0  0  0  0
 46 50  1  0  0  0  0
 46 52  1  0  0  0  0
 47 51  1  0  0  0  0
 47 52  1  0  0  0  0
 48 69  1  0  0  0  0
 49 55  1  0  0  0  0
 49 69  1  0  0  0  0
 50 75  1  0  0  0  0
 51 75  1  0  0  0  0
 53 73  1  0  0  0  0
 54 68  1  0  0  0  0
 55 67  1  0  0  0  0
 56 64  1  0  0  0  0
 57 65  1  0  0  0  0
 58 65  1  0  0  0  0
 59 65  1  0  0  0  0
 60 76  1  0  0  0  0
 61 62  1  0  0  0  0
 61 75  1  0  0  0  0
 62 83  1  0  0  0  0
 63 65  1  0  0  0  0
 63 74  1  0  0  0  0
 64 76  1  0  0  0  0
 66 67  1  0  0  0  0
M  CHG  2  75   1  76   1
M  ISO  4  38 100  62 101  72 100  83 101
M  END
> <Batch ID>
0003

> <Smiles>
CNC(C)C(=O)NC(C(=O)N1Cc2cc([101O:1][101CH2:1]CN3CCC(c4ccc([100NH:0][100C:0](=O)N5CCCC(n6nc(-c7ccc(Oc8ccc(F)cc8F)cc7)c(C(N)=O)c6N)C5)cc4)CC3)ccc2CC1C(=O)NC1CCCc2ccccc21)C(C)(C)C

> <Shape>
0.255

> <Color>
0.208

> <Negative vol penalty>
0.000

$$$$

  -OEChem-04042320203D

 83 91  0     1  0  0  0  0  0999 V2000
  -21.2177  -16.7652   11.9519 C   0  0  0  0  0  0  0  0  0  0  0  0
  -22.0424  -15.7718   12.4701 C   0  0  0  0  0  0  0  0  0  0  0  0
  -31.9760  -19.0877   22.1786 C   0  0  0  0  0  0  0  0  0  0  0  0
  -26.4684  -28.3954   19.0354 C   0  0  0  0  0  0  0  0  0  0  0  0
  -26.2893  -27.1701   21.1100 C   0  0  0  0  0  0  0  0  0  0  0  0
  -21.2987  -18.0657   12.4478 C   0  0  0  0  0  0  0  0  0  0  0  0
  -22.9494  -16.0787   13.4838 C   0  0  0  0  0  0  0  0  0  0  0  0
  -26.0512  -13.1947   19.2611 C   0  0  0  0  0  0  0  0  0  0  0  0
  -32.7818  -18.1536   21.5276 C   0  0  0  0  0  0  0  0  0  0  0  0
  -30.6856  -19.3405   21.7131 C   0  0  0  0  0  0  0  0  0  0  0  0
  -25.3224  -29.1194   19.3641 C   0  0  0  0  0  0  0  0  0  0  0  0
  -25.1433  -27.8943   21.4387 C   0  0  0  0  0  0  0  0  0  0  0  0
  -27.3135  -12.9885   19.8160 C   0  0  0  0  0  0  0  0  0  0  0  0
  -24.3986  -30.9548   22.6630 C   0  0  0  0  0  0  0  0  0  0  0  0
  -24.2971  -31.4493   23.9632 C   0  0  0  0  0  0  0  0  0  0  0  0
  -27.3100  -15.2520   20.6499 C   0  0  0  0  0  0  0  0  0  0  0  0
  -31.0068  -17.7251   19.9455 C   0  0  0  0  0  0  0  0  0  0  0  0
  -22.2767  -30.1663   24.2934 C   0  0  0  0  0  0  0  0  0  0  0  0
  -26.9518  -27.4207   19.9084 C   0  0  0  0  0  0  0  0  0  0  0  0
  -29.4681  -27.0021   19.8794 C   0  0  0  0  0  0  0  0  0  0  0  0
  -22.2004  -18.3866   13.4748 C   0  0  0  0  0  0  0  0  0  0  0  0
  -25.4124  -14.4366   19.3874 C   0  0  0  0  0  0  0  0  0  0  0  0
  -23.0435  -17.3851   13.9930 C   0  0  0  0  0  0  0  0  0  0  0  0
  -26.0385  -15.4706   20.0979 C   0  0  0  0  0  0  0  0  0  0  0  0
  -32.2972  -17.4723   20.4111 C   0  0  0  0  0  0  0  0  0  0  0  0
  -30.2010  -18.6592   20.5966 C   0  0  0  0  0  0  0  0  0  0  0  0
  -24.6599  -28.8689   20.5658 C   0  0  0  0  0  0  0  0  0  0  0  0
  -27.9443  -14.0181   20.5080 C   0  0  0  0  0  0  0  0  0  0  0  0
  -23.4391  -30.0661   22.1778 C   0  0  0  0  0  0  0  0  0  0  0  0
  -23.2362  -31.0550   24.7785 C   0  0  0  0  0  0  0  0  0  0  0  0
  -22.3782  -29.6718   22.9931 C   0  0  0  0  0  0  0  0  0  0  0  0
  -28.1352  -26.6720   19.5691 C   0  0  0  0  0  0  0  0  0  0  0  0
  -30.2096  -25.9793   19.3403 C   0  0  0  0  0  0  0  0  0  0  0  0
  -29.9893  -28.1322   20.5913 C   0  0  0  0  0  0  0  0  0  0  0  0
  -24.4071  -16.6594   17.3496 C   0  0  0  0  0  0  0  0  0  0  0  0
  -23.1756  -18.0059   20.0315 C   0  0  0  0  0  0  0  0  0  0  0  0
  -23.2958  -18.3337   23.4263 C   0  0  0  0  0  0  0  0  0  0  0  0
  -28.9392  -20.2793   18.0188 C   0  0  0  0  0  0  0  0  0  0  0  0
  -22.2851  -19.8168   13.9459 C   0  0  0  0  0  0  0  0  0  0  0  0
  -24.0394  -14.6346   18.8060 C   0  0  0  0  0  0  0  0  0  0  0  0
  -25.3867  -16.8162   20.2791 C   0  0  0  0  0  0  0  0  0  0  0  0
  -23.0095  -19.9768   15.2800 C   0  0  0  0  0  0  0  0  0  0  0  0
  -30.1445  -22.7770   15.7862 C   0  0  0  0  0  0  0  0  0  0  0  0
  -24.3044  -19.1706   15.2843 C   0  0  0  0  0  0  0  0  0  0  0  0
  -29.8865  -24.0883   16.5305 C   0  0  0  0  0  0  0  0  0  0  0  0
  -29.0336  -21.7591   16.0345 C   0  0  0  0  0  0  0  0  0  0  0  0
  -28.4886  -22.8013   18.2003 C   0  0  0  0  0  0  0  0  0  0  0  0
  -24.0227  -17.6733   15.1102 C   0  0  1  0  0  0  0  0  0  0  0  0
  -23.7030  -16.1011   18.5539 C   0  0  1  0  0  0  0  0  0  0  0  0
  -29.6102  -23.8394   18.0255 C   0  0  2  0  0  0  0  0  0  0  0  0
  -22.1857  -19.5341   25.3300 C   0  0  0  0  0  0  0  0  0  0  0  0
  -24.6419  -20.5700   19.2667 C   0  0  0  0  0  0  0  0  0  0  0  0
  -24.2927  -21.3855   21.6079 C   0  0  0  0  0  0  0  0  0  0  0  0
  -22.3265  -20.9152   20.1466 C   0  0  0  0  0  0  0  0  0  0  0  0
  -22.4508  -15.7933   24.6877 C   0  0  0  0  0  0  0  0  0  0  0  0
  -33.1651  -16.4655   19.7115 C   0  0  0  0  0  0  0  0  0  0  0  0
  -28.8214  -18.9300   20.0985 C   0  0  0  0  0  0  0  0  0  0  0  0
  -33.0064  -15.0557   20.2733 C   0  0  0  0  0  0  0  0  0  0  0  0
  -30.0345  -12.8898   20.3899 C   0  0  0  0  0  0  0  0  0  1  0  0
  -31.4766  -13.3037   20.6102 C   0  0  0  0  0  0  0  0  0  0  0  0
  -23.6788  -18.9859   21.0636 C   0  0  1  0  0  0  0  0  0  0  0  0
  -22.2083  -18.2708   24.4836 C   0  0  2  0  0  0  0  0  0  0  0  0
  -23.7484  -20.4395   20.5163 C   0  0  0  0  0  0  0  0  0  0  0  0
  -28.0328  -25.5289   18.8858 N   0  0  0  0  0  0  0  0  0  0  0  0
  -29.3108  -25.1319   18.7621 N   0  0  0  0  0  0  0  0  0  0  0  0
  -24.0467  -16.9627   19.6869 N   0  0  0  0  0  0  0  0  0  0  0  0
  -28.8226  -21.5676   17.4714 N   0  0  0  0  0  0  0  0  0  0  0  0
  -31.5362  -25.7312   19.3092 N   0  0  0  0  0  0  0  0  0  0  0  0
  -29.0882  -29.0891   21.0778 N   0  0  0  0  0  0  0  0  0  0  0  0
  -23.5558  -17.0989   16.3538 N   0  0  0  0  0  0  0  0  0  0  0  0
  -22.8181  -18.8274   22.2309 N   0  0  0  0  0  0  0  0  0  0  0  0
  -28.7300  -20.1869   19.3894 N   0  0  0  0  0  0  0  0  0  0  0  0
  -22.4290  -17.1049   25.3851 N   0  3  0  0  0  0  0  0  0  0  0  0
  -31.2190  -28.2973   20.7760 O   0  0  0  0  0  0  0  0  0  0  0  0
  -25.6319  -16.6904   17.3262 O   0  0  0  0  0  0  0  0  0  0  0  0
  -22.0482  -18.1561   19.5540 O   0  0  0  0  0  0  0  0  0  0  0  0
  -24.4543  -17.9836   23.6408 O   0  0  0  0  0  0  0  0  0  0  0  0
  -29.2148  -19.2859   17.3376 O   0  0  0  0  0  0  0  0  0  0  0  0
  -23.5418  -29.5755   20.8869 O   0  0  0  0  0  0  0  0  0  0  0  0
  -29.1767  -13.8197   21.0500 O   0  0  0  0  0  0  0  0  0  1  0  0
  -31.6664  -14.6172   20.0981 O   0  0  0  0  0  0  0  0  0  0  0  0
  -23.1396  -31.5288   26.0277 F   0  0  0  0  0  0  0  0  0  0  0  0
  -21.4541  -28.8174   22.5330 F   0  0  0  0  0  0  0  0  0  0  0  0
  1  2  1  0  0  0  0
  1  6  2  0  0  0  0
  2  7  2  0  0  0  0
  3  9  2  0  0  0  0
  3 10  1  0  0  0  0
  4 11  2  0  0  0  0
  4 19  1  0  0  0  0
  5 12  1  0  0  0  0
  5 19  2  0  0  0  0
  6 21  1  0  0  0  0
  7 23  1  0  0  0  0
  8 13  2  0  0  0  0
  8 22  1  0  0  0  0
  9 25  1  0  0  0  0
 10 26  2  0  0  0  0
 11 27  1  0  0  0  0
 12 27  2  0  0  0  0
 13 28  1  0  0  0  0
 14 15  2  0  0  0  0
 14 29  1  0  0  0  0
 15 30  1  0  0  0  0
 16 24  1  0  0  0  0
 16 28  2  0  0  0  0
 17 25  2  0  0  0  0
 17 26  1  0  0  0  0
 18 30  2  0  0  0  0
 18 31  1  0  0  0  0
 19 32  1  0  0  0  0
 20 32  1  0  0  0  0
 20 33  2  0  0  0  0
 20 34  1  0  0  0  0
 21 23  2  0  0  0  0
 21 39  1  0  0  0  0
 22 24  2  0  0  0  0
 22 40  1  0  0  0  0
 23 48  1  0  0  0  0
 24 41  1  0  0  0  0
 25 56  1  0  0  0  0
 26 57  1  0  0  0  0
 27 79  1  0  0  0  0
 28 80  1  0  0  0  0
 29 31  2  0  0  0  0
 29 79  1  0  0  0  0
 30 82  1  0  0  0  0
 31 83  1  0  0  0  0
 32 64  2  0  0  0  0
 33 65  1  0  0  0  0
 33 68  1  0  0  0  0
 34 69  1  0  0  0  0
 34 74  2  0  0  0  0
 35 49  1  0  0  0  0
 35 70  1  0  0  0  0
 35 75  2  0  0  0  0
 36 61  1  0  0  0  0
 36 66  1  0  0  0  0
 36 76  2  0  0  0  0
 37 62  1  0  0  0  0
 37 71  1  0  0  0  0
 37 77  2  0  0  0  0
 38 67  1  0  0  0  0
 38 72  1  0  0  0  0
 38 78  2  0  0  0  0
 39 42  1  0  0  0  0
 40 49  1  0  0  0  0
 41 66  1  0  0  0  0
 42 44  1  0  0  0  0
 43 45  1  0  0  0  0
 43 46  1  0  0  0  0
 44 48  1  0  0  0  0
 45 50  1  0  0  0  0
 46 67  1  0  0  0  0
 47 50  1  0  0  0  0
 47 67  1  0  0  0  0
 48 70  1  0  0  0  0
 49 66  1  0  0  0  0
 50 65  1  0  0  0  0
 51 62  1  0  0  0  0
 52 63  1  0  0  0  0
 53 63  1  0  0  0  0
 54 63  1  0  0  0  0
 55 73  1  0  0  0  0
 56 58  1  0  0  0  0
 57 72  1  0  0  0  0
 58 81  1  0  0  0  0
 59 60  1  0  0  0  0
 59 80  1  0  0  0  0
 60 81  1  0  0  0  0
 61 63  1  0  0  0  0
 61 71  1  0  0  0  0
 62 73  1  0  0  0  0
 64 65  1  0  0  0  0
M  CHG  1  73   1
M  ISO  4  38 100  59 101  72 100  80 101
M  END
> <Batch ID>
0003

> <Smiles>
CNC(C)C(=O)NC(C(=O)N1Cc2cc([101O:1][101CH2:1]COCCc3cccc(C[100NH:0][100C:0](=O)N4CCCC(n5nc(-c6ccc(Oc7ccc(F)cc7F)cc6)c(C(N)=O)c5N)C4)c3)ccc2CC1C(=O)NC1CCCc2ccccc21)C(C)(C)C

> <Shape>
0.208

> <Color>
0.046

> <Negative vol penalty>
0.000

$$$$

  -OEChem-04042320203D

 83 92  0     1  0  0  0  0  0999 V2000
  -26.7739  -31.6126   27.3735 C   0  0  0  0  0  0  0  0  0  0  0  0
  -27.4346  -30.6311   26.6417 C   0  0  0  0  0  0  0  0  0  0  0  0
  -31.7079  -21.1803   17.2185 C   0  0  0  0  0  0  0  0  0  0  0  0
  -22.8633  -11.2700   20.8606 C   0  0  0  0  0  0  0  0  0  0  0  0
  -23.7854   -9.1173   21.4546 C   0  0  0  0  0  0  0  0  0  0  0  0
  -25.4019  -31.7979   27.2093 C   0  0  0  0  0  0  0  0  0  0  0  0
  -26.7234  -29.8336   25.7460 C   0  0  0  0  0  0  0  0  0  0  0  0
  -31.3470  -20.0538   17.9577 C   0  0  0  0  0  0  0  0  0  0  0  0
  -28.7287  -27.6075   20.4047 C   0  0  0  0  0  0  0  0  0  0  0  0
  -31.3609  -22.4528   17.6722 C   0  0  0  0  0  0  0  0  0  0  0  0
  -21.6612  -10.6574   20.5066 C   0  0  0  0  0  0  0  0  0  0  0  0
  -22.5832   -8.5047   21.1007 C   0  0  0  0  0  0  0  0  0  0  0  0
  -29.2382  -26.3622   20.0395 C   0  0  0  0  0  0  0  0  0  0  0  0
  -18.9364   -9.4223   22.0823 C   0  0  0  0  0  0  0  0  0  0  0  0
  -17.7527  -10.0150   22.5218 C   0  0  0  0  0  0  0  0  0  0  0  0
  -30.2920  -21.4725   19.6044 C   0  0  0  0  0  0  0  0  0  0  0  0
  -27.0460  -25.6925   19.2879 C   0  0  0  0  0  0  0  0  0  0  0  0
  -17.0420  -10.2955   20.2298 C   0  0  0  0  0  0  0  0  0  0  0  0
  -23.9254  -10.4999   21.3345 C   0  0  0  0  0  0  0  0  0  0  0  0
  -25.5260  -11.6344   22.9651 C   0  0  0  0  0  0  0  0  0  0  0  0
  -30.6391  -20.1999   19.1507 C   0  0  0  0  0  0  0  0  0  0  0  0
  -24.6751  -31.0087   26.3040 C   0  0  0  0  0  0  0  0  0  0  0  0
  -27.3695  -27.9013   20.2240 C   0  0  0  0  0  0  0  0  0  0  0  0
  -25.3400  -30.0076   25.5704 C   0  0  0  0  0  0  0  0  0  0  0  0
  -26.5223  -26.9432   19.6493 C   0  0  0  0  0  0  0  0  0  0  0  0
  -30.6530  -22.5989   18.8651 C   0  0  0  0  0  0  0  0  0  0  0  0
  -21.5211   -9.2748   20.6267 C   0  0  0  0  0  0  0  0  0  0  0  0
  -28.3962  -25.4034   19.4837 C   0  0  0  0  0  0  0  0  0  0  0  0
  -19.1729   -9.2662   20.7164 C   0  0  0  0  0  0  0  0  0  0  0  0
  -16.8056  -10.4516   21.5956 C   0  0  0  0  0  0  0  0  0  0  0  0
  -18.2257   -9.7028   19.7902 C   0  0  0  0  0  0  0  0  0  0  0  0
  -25.1677  -11.1320   21.6998 C   0  0  0  0  0  0  0  0  0  0  0  0
  -26.7954  -12.1292   22.7911 C   0  0  0  0  0  0  0  0  0  0  0  0
  -24.7783  -11.6522   24.1883 C   0  0  0  0  0  0  0  0  0  0  0  0
  -24.9584  -28.6427   22.1580 C   0  0  0  0  0  0  0  0  0  0  0  0
  -23.3674  -29.0868   19.3663 C   0  0  0  0  0  0  0  0  0  0  0  0
  -23.0966  -28.3711   16.0404 C   0  0  0  0  0  0  0  0  0  0  0  0
  -30.5934  -14.8869   19.9642 C   0  0  0  0  0  0  0  0  0  0  0  0
  -23.1849  -31.2143   26.1953 C   0  0  0  0  0  0  0  0  0  0  0  0
  -26.8409  -29.2588   20.5984 C   0  0  0  0  0  0  0  0  0  0  0  0
  -25.0596  -27.2161   19.4156 C   0  0  0  0  0  0  0  0  0  0  0  0
  -22.5715  -30.5784   24.9505 C   0  0  0  0  0  0  0  0  0  0  0  0
  -30.0365  -11.6298   18.9495 C   0  0  0  0  0  0  0  0  0  0  0  0
  -23.0871  -29.1542   24.7693 C   0  0  0  0  0  0  0  0  0  0  0  0
  -28.7493  -11.2383   19.6750 C   0  0  0  0  0  0  0  0  0  0  0  0
  -29.2966  -18.0508   19.1733 C   0  0  0  0  0  0  0  0  0  0  0  0
  -31.4784  -18.1922   20.4496 C   0  0  0  0  0  0  0  0  0  0  0  0
  -29.9533  -13.0578   18.4230 C   0  0  0  0  0  0  0  0  0  0  0  0
  -28.9321  -16.8001   19.9784 C   0  0  0  0  0  0  0  0  0  0  0  0
  -31.0525  -16.9582   21.2399 C   0  0  0  0  0  0  0  0  0  0  0  0
  -28.3686  -13.6955   20.2119 C   0  0  0  0  0  0  0  0  0  0  0  0
  -30.2483  -18.9743   19.9549 C   0  0  0  0  0  0  0  0  0  0  0  0
  -24.6076  -29.1390   24.5708 C   0  0  1  0  0  0  0  0  0  0  0  0
  -25.3353  -29.2668   20.8442 C   0  0  1  0  0  0  0  0  0  0  0  0
  -28.4008  -12.2591   20.7727 C   0  0  1  0  0  0  0  0  0  0  0  0
  -21.6728  -28.8537   14.0312 C   0  0  0  0  0  0  0  0  0  0  0  0
  -21.2320  -27.1817   20.4250 C   0  0  0  0  0  0  0  0  0  0  0  0
  -20.3686  -26.9605   18.0854 C   0  0  0  0  0  0  0  0  0  0  0  0
  -20.3396  -29.1825   19.2187 C   0  0  0  0  0  0  0  0  0  0  0  0
  -25.3625  -29.5988   14.5852 C   0  0  0  0  0  0  0  0  0  0  0  0
  -30.2814  -23.9597   19.3499 C   0  0  0  0  0  0  0  0  0  1  0  0
  -22.5444  -28.2100   18.4536 C   0  0  1  0  0  0  0  0  0  0  0  0
  -22.8991  -29.2661   14.8303 C   0  0  2  0  0  0  0  0  0  0  0  0
  -21.1483  -27.8775   19.0517 C   0  0  0  0  0  0  0  0  0  0  0  0
  -26.1315  -11.2930   20.7892 N   0  0  0  0  0  0  0  0  0  0  0  0
  -27.1080  -11.9022   21.4831 N   0  0  0  0  0  0  0  0  0  0  0  0
  -24.5890  -28.5560   19.8041 N   0  0  0  0  0  0  0  0  0  0  0  0
  -29.6171  -13.9958   19.4939 N   0  0  0  0  0  0  0  0  0  0  0  0
  -30.1433  -16.1205   20.4584 N   0  0  0  0  0  0  0  0  0  0  0  0
  -27.6636  -12.7320   23.6310 N   0  0  0  0  0  0  0  0  0  0  0  0
  -23.4893  -11.1018   24.1916 N   0  0  0  0  0  0  0  0  0  0  0  0
  -24.9446  -29.5287   23.2184 N   0  0  0  0  0  0  0  0  0  0  0  0
  -22.4953  -28.8938   17.1658 N   0  0  0  0  0  0  0  0  0  0  0  0
  -24.0886  -29.1968   13.9351 N   0  3  0  0  0  0  0  0  0  0  0  0
  -25.2332  -12.1564   25.2430 O   0  0  0  0  0  0  0  0  0  0  0  0
  -24.6978  -27.4463   22.2059 O   0  0  0  0  0  0  0  0  0  0  0  0
  -22.9453  -30.2044   19.6735 O   0  0  0  0  0  0  0  0  0  0  0  0
  -23.7187  -27.3123   15.9914 O   0  0  0  0  0  0  0  0  0  0  0  0
  -31.7964  -14.5978   19.9449 O   0  0  0  0  0  0  0  0  0  0  0  0
  -20.3482   -8.6768   20.2816 O   0  0  0  0  0  0  0  0  0  0  0  0
  -28.8942  -24.1785   19.1245 O   0  0  0  0  0  0  0  0  0  1  0  0
  -15.6683  -11.0194   22.0179 F   0  0  0  0  0  0  0  0  0  0  0  0
  -18.4468   -9.5545   18.4769 F   0  0  0  0  0  0  0  0  0  0  0  0
  1  2  1  0  0  0  0
  1  6  2  0  0  0  0
  2  7  2  0  0  0  0
  3  8  1  0  0  0  0
  3 10  2  0  0  0  0
  4 11  2  0  0  0  0
  4 19  1  0  0  0  0
  5 12  1  0  0  0  0
  5 19  2  0  0  0  0
  6 22  1  0  0  0  0
  7 24  1  0  0  0  0
  8 21  2  0  0  0  0
  9 13  2  0  0  0  0
  9 23  1  0  0  0  0
 10 26  1  0  0  0  0
 11 27  1  0  0  0  0
 12 27  2  0  0  0  0
 13 28  1  0  0  0  0
 14 15  2  0  0  0  0
 14 29  1  0  0  0  0
 15 30  1  0  0  0  0
 16 21  1  0  0  0  0
 16 26  2  0  0  0  0
 17 25  1  0  0  0  0
 17 28  2  0  0  0  0
 18 30  2  0  0  0  0
 18 31  1  0  0  0  0
 19 32  1  0  0  0  0
 20 32  1  0  0  0  0
 20 33  2  0  0  0  0
 20 34  1  0  0  0  0
 21 52  1  0  0  0  0
 22 24  2  0  0  0  0
 22 39  1  0  0  0  0
 23 25  2  0  0  0  0
 23 40  1  0  0  0  0
 24 53  1  0  0  0  0
 25 41  1  0  0  0  0
 26 61  1  0  0  0  0
 27 80  1  0  0  0  0
 28 81  1  0  0  0  0
 29 31  2  0  0  0  0
 29 80  1  0  0  0  0
 30 82  1  0  0  0  0
 31 83  1  0  0  0  0
 32 65  2  0  0  0  0
 33 66  1  0  0  0  0
 33 70  1  0  0  0  0
 34 71  1  0  0  0  0
 34 75  2  0  0  0  0
 35 54  1  0  0  0  0
 35 72  1  0  0  0  0
 35 76  2  0  0  0  0
 36 62  1  0  0  0  0
 36 67  1  0  0  0  0
 36 77  2  0  0  0  0
 37 63  1  0  0  0  0
 37 73  1  0  0  0  0
 37 78  2  0  0  0  0
 38 68  1  0  0  0  0
 38 69  1  0  0  0  0
 38 79  2  0  0  0  0
 39 42  1  0  0  0  0
 40 54  1  0  0  0  0
 41 67  1  0  0  0  0
 42 44  1  0  0  0  0
 43 45  1  0  0  0  0
 43 48  1  0  0  0  0
 44 53  1  0  0  0  0
 45 55  1  0  0  0  0
 46 49  1  0  0  0  0
 46 52  1  0  0  0  0
 47 50  1  0  0  0  0
 47 52  1  0  0  0  0
 48 68  1  0  0  0  0
 49 69  1  0  0  0  0
 50 69  1  0  0  0  0
 51 55  1  0  0  0  0
 51 68  1  0  0  0  0
 53 72  1  0  0  0  0
 54 67  1  0  0  0  0
 55 66  1  0  0  0  0
 56 63  1  0  0  0  0
 57 64  1  0  0  0  0
 58 64  1  0  0  0  0
 59 64  1  0  0  0  0
 60 74  1  0  0  0  0
 61 81  1  0  0  0  0
 62 64  1  0  0  0  0
 62 73  1  0  0  0  0
 63 74  1  0  0  0  0
 65 66  1  0  0  0  0
M  CHG  1  74   1
M  ISO  4  38 100  61 101  69 100  81 101
M  END
> <Batch ID>
0003

> <Smiles>
CNC(C)C(=O)NC(C(=O)N1Cc2cc([101O:1][101CH2:1]c3cccc(C4CC[100N:0]([100C:0](=O)N5CCCC(n6nc(-c7ccc(Oc8ccc(F)cc8F)cc7)c(C(N)=O)c6N)C5)CC4)c3)ccc2CC1C(=O)NC1CCCc2ccccc21)C(C)(C)C

> <Shape>
0.254

> <Color>
0.091

> <Negative vol penalty>
0.000

$$$$

  -OEChem-04042320203D

 80 88  0     1  0  0  0  0  0999 V2000
  -26.3840  -36.9248   16.5339 C   0  0  0  0  0  0  0  0  0  0  0  0
  -26.6793  -35.5664   16.4784 C   0  0  0  0  0  0  0  0  0  0  0  0
  -24.5000   -8.9952   21.4873 C   0  0  0  0  0  0  0  0  0  0  0  0
  -24.4820  -10.3260   23.5037 C   0  0  0  0  0  0  0  0  0  0  0  0
  -26.3279  -37.5750   17.7659 C   0  0  0  0  0  0  0  0  0  0  0  0
  -26.9198  -34.8577   17.6549 C   0  0  0  0  0  0  0  0  0  0  0  0
  -25.4411  -29.0277   18.8085 C   0  0  0  0  0  0  0  0  0  0  0  0
  -26.6038  -20.7748   21.2124 C   0  0  0  0  0  0  0  0  0  0  0  0
  -29.0149  -20.9009   21.3010 C   0  0  0  0  0  0  0  0  0  0  0  0
  -26.6875  -19.4316   20.8459 C   0  0  0  0  0  0  0  0  0  0  0  0
  -29.0986  -19.5577   20.9345 C   0  0  0  0  0  0  0  0  0  0  0  0
  -24.2031   -7.8565   22.2362 C   0  0  0  0  0  0  0  0  0  0  0  0
  -24.1850   -9.1873   24.2526 C   0  0  0  0  0  0  0  0  0  0  0  0
  -26.1788  -27.8457   18.7599 C   0  0  0  0  0  0  0  0  0  0  0  0
  -21.4787   -6.4592   23.6708 C   0  0  0  0  0  0  0  0  0  0  0  0
  -20.4925   -5.6017   23.1833 C   0  0  0  0  0  0  0  0  0  0  0  0
  -26.5989  -28.0176   21.1291 C   0  0  0  0  0  0  0  0  0  0  0  0
  -22.1041   -3.8045   23.0843 C   0  0  0  0  0  0  0  0  0  0  0  0
  -24.6395  -10.2300   22.1211 C   0  0  0  0  0  0  0  0  0  0  0  0
  -24.0319  -12.2957   20.7532 C   0  0  0  0  0  0  0  0  0  0  0  0
  -26.5582  -36.8718   18.9589 C   0  0  0  0  0  0  0  0  0  0  0  0
  -25.2856  -29.7205   20.0177 C   0  0  0  0  0  0  0  0  0  0  0  0
  -26.8680  -35.4994   18.9040 C   0  0  0  0  0  0  0  0  0  0  0  0
  -25.8566  -29.2069   21.1908 C   0  0  0  0  0  0  0  0  0  0  0  0
  -27.7676  -21.5095   21.4399 C   0  0  0  0  0  0  0  0  0  0  0  0
  -27.9349  -18.8230   20.7070 C   0  0  0  0  0  0  0  0  0  0  0  0
  -24.0455   -7.9526   23.6188 C   0  0  0  0  0  0  0  0  0  0  0  0
  -26.7602  -27.3420   19.9198 C   0  0  0  0  0  0  0  0  0  0  0  0
  -22.7777   -5.9894   23.8650 C   0  0  0  0  0  0  0  0  0  0  0  0
  -20.8051   -4.2744   22.8901 C   0  0  0  0  0  0  0  0  0  0  0  0
  -23.0903   -4.6620   23.5718 C   0  0  0  0  0  0  0  0  0  0  0  0
  -24.9469  -11.4065   21.3481 C   0  0  0  0  0  0  0  0  0  0  0  0
  -24.8194  -13.2386   20.1390 C   0  0  0  0  0  0  0  0  0  0  0  0
  -22.5983  -12.2717   20.7557 C   0  0  0  0  0  0  0  0  0  0  0  0
  -26.1038  -32.6058   21.0710 C   0  0  0  0  0  0  0  0  0  0  0  0
  -24.3831  -31.7161   23.6730 C   0  0  0  0  0  0  0  0  0  0  0  0
  -23.1243  -29.1871   25.5877 C   0  0  0  0  0  0  0  0  0  0  0  0
  -29.1784  -16.7031   20.1538 C   0  0  0  0  0  0  0  0  0  0  0  0
  -26.5332  -37.6279   20.2636 C   0  0  0  0  0  0  0  0  0  0  0  0
  -24.4644  -30.9801   20.0584 C   0  0  0  0  0  0  0  0  0  0  0  0
  -25.7023  -29.9019   22.5181 C   0  0  0  0  0  0  0  0  0  0  0  0
  -26.4315  -36.7239   21.4895 C   0  0  0  0  0  0  0  0  0  0  0  0
  -29.8068  -13.3099   19.2770 C   0  0  0  0  0  0  0  0  0  0  0  0
  -27.4178  -35.5653   21.3817 C   0  0  0  0  0  0  0  0  0  0  0  0
  -28.5231  -12.5854   19.6887 C   0  0  0  0  0  0  0  0  0  0  0  0
  -30.1673  -14.4257   20.2562 C   0  0  0  0  0  0  0  0  0  0  0  0
  -27.8100  -14.6681   20.9299 C   0  0  0  0  0  0  0  0  0  0  0  0
  -27.1104  -34.6909   20.1601 C   0  0  1  0  0  0  0  0  0  0  0  0
  -24.8024  -31.8755   21.2464 C   0  0  1  0  0  0  0  0  0  0  0  0
  -27.3710  -13.5782   19.9385 C   0  0  2  0  0  0  0  0  0  0  0  0
  -21.7913  -28.7709   27.6727 C   0  0  0  0  0  0  0  0  0  0  0  0
  -26.8232  -32.4098   25.3684 C   0  0  0  0  0  0  0  0  0  0  0  0
  -25.7999  -31.1102   27.2479 C   0  0  0  0  0  0  0  0  0  0  0  0
  -24.6355  -33.1241   26.3473 C   0  0  0  0  0  0  0  0  0  0  0  0
  -20.9937  -27.7863   24.0852 C   0  0  0  0  0  0  0  0  0  0  0  0
  -27.6770  -22.9616   21.8360 C   0  0  0  0  0  0  0  0  0  0  0  0
  -27.6702  -23.9251   20.6473 C   0  0  0  0  0  0  0  0  0  0  0  0
  -27.4923  -25.3835   21.0531 C   0  0  0  0  0  0  0  0  0  1  0  0
  -24.6937  -31.0058   24.9683 C   0  0  1  0  0  0  0  0  0  0  0  0
  -21.7394  -28.9533   26.1638 C   0  0  2  0  0  0  0  0  0  0  0  0
  -25.4928  -31.9001   25.9578 C   0  0  0  0  0  0  0  0  0  0  0  0
  -26.2183  -11.7533   21.1312 N   0  0  0  0  0  0  0  0  0  0  0  0
  -26.1080  -12.8709   20.3931 N   0  0  0  0  0  0  0  0  0  0  0  0
  -24.8955  -31.1333   22.5052 N   0  0  0  0  0  0  0  0  0  0  0  0
  -29.0297  -15.3295   20.4403 N   0  0  0  0  0  0  0  0  0  0  0  0
  -24.5284  -14.3380   19.4116 N   0  0  0  0  0  0  0  0  0  0  0  0
  -21.9488  -11.2321   21.4351 N   0  0  0  0  0  0  0  0  0  0  0  0
  -28.0203  -17.4584   20.3349 N   0  0  0  0  0  0  0  0  0  0  0  0
  -25.9834  -33.8239   20.4299 N   0  0  0  0  0  0  0  0  0  0  0  0
  -23.4166  -30.5310   25.4899 N   0  0  0  0  0  0  0  0  0  0  0  0
  -21.1278  -27.7339   25.5638 N   0  3  0  0  0  0  0  0  0  0  0  0
  -21.9139  -13.1370   20.1589 O   0  0  0  0  0  0  0  0  0  0  0  0
  -27.1402  -32.1021   21.4880 O   0  0  0  0  0  0  0  0  0  0  0  0
  -23.7046  -32.7461   23.6956 O   0  0  0  0  0  0  0  0  0  0  0  0
  -23.8734  -28.2692   25.2608 O   0  0  0  0  0  0  0  0  0  0  0  0
  -30.2464  -17.1698   19.7496 O   0  0  0  0  0  0  0  0  0  0  0  0
  -23.7555   -6.8417   24.3498 O   0  0  0  0  0  0  0  0  0  0  0  0
  -27.4813  -26.1888   19.8751 O   0  0  0  0  0  0  0  0  0  1  0  0
  -19.8576   -3.4506   22.4234 F   0  0  0  0  0  0  0  0  0  0  0  0
  -24.3362   -4.2045   23.7574 F   0  0  0  0  0  0  0  0  0  0  0  0
  1  2  1  0  0  0  0
  1  5  2  0  0  0  0
  2  6  2  0  0  0  0
  3 12  2  0  0  0  0
  3 19  1  0  0  0  0
  4 13  1  0  0  0  0
  4 19  2  0  0  0  0
  5 21  1  0  0  0  0
  6 23  1  0  0  0  0
  7 14  2  0  0  0  0
  7 22  1  0  0  0  0
  8 10  2  0  0  0  0
  8 25  1  0  0  0  0
  9 11  1  0  0  0  0
  9 25  2  0  0  0  0
 10 26  1  0  0  0  0
 11 26  2  0  0  0  0
 12 27  1  0  0  0  0
 13 27  2  0  0  0  0
 14 28  1  0  0  0  0
 15 16  2  0  0  0  0
 15 29  1  0  0  0  0
 16 30  1  0  0  0  0
 17 24  1  0  0  0  0
 17 28  2  0  0  0  0
 18 30  2  0  0  0  0
 18 31  1  0  0  0  0
 19 32  1  0  0  0  0
 20 32  1  0  0  0  0
 20 33  2  0  0  0  0
 20 34  1  0  0  0  0
 21 23  2  0  0  0  0
 21 39  1  0  0  0  0
 22 24  2  0  0  0  0
 22 40  1  0  0  0  0
 23 48  1  0  0  0  0
 24 41  1  0  0  0  0
 25 56  1  0  0  0  0
 26 68  1  0  0  0  0
 27 77  1  0  0  0  0
 28 78  1  0  0  0  0
 29 31  2  0  0  0  0
 29 77  1  0  0  0  0
 30 79  1  0  0  0  0
 31 80  1  0  0  0  0
 32 62  2  0  0  0  0
 33 63  1  0  0  0  0
 33 66  1  0  0  0  0
 34 67  1  0  0  0  0
 34 72  2  0  0  0  0
 35 49  1  0  0  0  0
 35 69  1  0  0  0  0
 35 73  2  0  0  0  0
 36 59  1  0  0  0  0
 36 64  1  0  0  0  0
 36 74  2  0  0  0  0
 37 60  1  0  0  0  0
 37 70  1  0  0  0  0
 37 75  2  0  0  0  0
 38 65  1  0  0  0  0
 38 68  1  0  0  0  0
 38 76  2  0  0  0  0
 39 42  1  0  0  0  0
 40 49  1  0  0  0  0
 41 64  1  0  0  0  0
 42 44  1  0  0  0  0
 43 45  1  0  0  0  0
 43 46  1  0  0  0  0
 44 48  1  0  0  0  0
 45 50  1  0  0  0  0
 46 65  1  0  0  0  0
 47 50  1  0  0  0  0
 47 65  1  0  0  0  0
 48 69  1  0  0  0  0
 49 64  1  0  0  0  0
 50 63  1  0  0  0  0
 51 60  1  0  0  0  0
 52 61  1  0  0  0  0
 53 61  1  0  0  0  0
 54 61  1  0  0  0  0
 55 71  1  0  0  0  0
 56 57  1  0  0  0  0
 57 58  1  0  0  0  0
 58 78  1  0  0  0  0
 59 61  1  0  0  0  0
 59 70  1  0  0  0  0
 60 71  1  0  0  0  0
 62 63  1  0  0  0  0
M  CHG  1  71   1
M  ISO  4  38 100  58 101  68 100  78 101
M  END
> <Batch ID>
0003

> <Smiles>
CNC(C)C(=O)NC(C(=O)N1Cc2cc([101O:1][101CH2:1]CCc3ccc([100NH:0][100C:0](=O)N4CCCC(n5nc(-c6ccc(Oc7ccc(F)cc7F)cc6)c(C(N)=O)c5N)C4)cc3)ccc2CC1C(=O)NC1CCCc2ccccc21)C(C)(C)C

> <Shape>
0.279

> <Color>
0.135

> <Negative vol penalty>
0.000

$$$$

  -OEChem-04042320203D

 87 96  0     1  0  0  0  0  0999 V2000
  -32.9374  -34.3982   15.5350 C   0  0  0  0  0  0  0  0  0  0  0  0
  -32.4464  -33.3011   16.2356 C   0  0  0  0  0  0  0  0  0  0  0  0
  -22.9021  -10.0997   19.9762 C   0  0  0  0  0  0  0  0  0  0  0  0
  -24.0229   -9.4099   22.0023 C   0  0  0  0  0  0  0  0  0  0  0  0
  -32.9302  -35.6611   16.1257 C   0  0  0  0  0  0  0  0  0  0  0  0
  -31.9490  -33.4661   17.5278 C   0  0  0  0  0  0  0  0  0  0  0  0
  -26.7473  -23.3619   19.4461 C   0  0  0  0  0  0  0  0  0  0  0  0
  -29.0024  -23.6519   20.2631 C   0  0  0  0  0  0  0  0  0  0  0  0
  -27.5843  -31.0043   18.2585 C   0  0  0  0  0  0  0  0  0  0  0  0
  -26.7205  -24.6978   19.0459 C   0  0  0  0  0  0  0  0  0  0  0  0
  -28.9756  -24.9879   19.8629 C   0  0  0  0  0  0  0  0  0  0  0  0
  -22.1194   -8.9459   20.0164 C   0  0  0  0  0  0  0  0  0  0  0  0
  -23.2401   -8.2561   22.0425 C   0  0  0  0  0  0  0  0  0  0  0  0
  -27.6572  -29.6282   18.4701 C   0  0  0  0  0  0  0  0  0  0  0  0
  -20.0998   -7.4094   22.9599 C   0  0  0  0  0  0  0  0  0  0  0  0
  -19.5425   -7.0485   24.1866 C   0  0  0  0  0  0  0  0  0  0  0  0
  -27.4248  -29.9870   20.8442 C   0  0  0  0  0  0  0  0  0  0  0  0
  -20.7289   -4.9454   24.1068 C   0  0  0  0  0  0  0  0  0  0  0  0
  -23.8540  -10.3317   20.9692 C   0  0  0  0  0  0  0  0  0  0  0  0
  -24.3717  -12.7696   21.5138 C   0  0  0  0  0  0  0  0  0  0  0  0
  -27.8883  -22.8389   20.0548 C   0  0  0  0  0  0  0  0  0  0  0  0
  -32.4235  -35.8434   17.4221 C   0  0  0  0  0  0  0  0  0  0  0  0
  -27.4418  -31.8843   19.3410 C   0  0  0  0  0  0  0  0  0  0  0  0
  -31.9363  -34.7325   18.1369 C   0  0  0  0  0  0  0  0  0  0  0  0
  -27.3478  -31.3737   20.6435 C   0  0  0  0  0  0  0  0  0  0  0  0
  -27.8346  -25.5108   19.2542 C   0  0  0  0  0  0  0  0  0  0  0  0
  -22.2883   -8.0241   21.0495 C   0  0  0  0  0  0  0  0  0  0  0  0
  -27.5803  -29.1196   19.7633 C   0  0  0  0  0  0  0  0  0  0  0  0
  -20.9715   -6.5382   22.3066 C   0  0  0  0  0  0  0  0  0  0  0  0
  -19.8571   -5.8165   24.7601 C   0  0  0  0  0  0  0  0  0  0  0  0
  -21.2861   -5.3062   22.8801 C   0  0  0  0  0  0  0  0  0  0  0  0
  -24.6632  -11.5231   20.9279 C   0  0  0  0  0  0  0  0  0  0  0  0
  -25.4464  -13.5611   21.1898 C   0  0  0  0  0  0  0  0  0  0  0  0
  -23.2314  -13.1756   22.2823 C   0  0  0  0  0  0  0  0  0  0  0  0
  -29.1911  -34.2414   20.5608 C   0  0  0  0  0  0  0  0  0  0  0  0
  -26.6030  -34.6485   22.4736 C   0  0  0  0  0  0  0  0  0  0  0  0
  -23.8208  -33.2923   23.9111 C   0  0  0  0  0  0  0  0  0  0  0  0
  -30.9513  -14.3218   20.6770 C   0  0  0  0  0  0  0  0  0  0  0  0
  -32.4802  -37.2195   18.0368 C   0  0  0  0  0  0  0  0  0  0  0  0
  -27.3379  -33.3644   19.0936 C   0  0  0  0  0  0  0  0  0  0  0  0
  -27.1742  -32.2747   21.8379 C   0  0  0  0  0  0  0  0  0  0  0  0
  -31.5907  -37.3737   19.2678 C   0  0  0  0  0  0  0  0  0  0  0  0
  -29.2545  -12.7786   17.9537 C   0  0  0  0  0  0  0  0  0  0  0  0
  -31.7734  -36.1884   20.2104 C   0  0  0  0  0  0  0  0  0  0  0  0
  -27.8879  -12.4119   18.5348 C   0  0  0  0  0  0  0  0  0  0  0  0
  -29.0301  -20.6518   19.7390 C   0  0  0  0  0  0  0  0  0  0  0  0
  -28.1248  -21.3122   22.0042 C   0  0  0  0  0  0  0  0  0  0  0  0
  -30.3694  -12.6099   18.9837 C   0  0  0  0  0  0  0  0  0  0  0  0
  -28.7827  -12.9550   20.8376 C   0  0  0  0  0  0  0  0  0  0  0  0
  -29.1408  -19.2089   20.2148 C   0  0  0  0  0  0  0  0  0  0  0  0
  -28.2421  -19.8642   22.4625 C   0  0  0  0  0  0  0  0  0  0  0  0
  -27.9178  -21.4108   20.4830 C   0  0  0  0  0  0  0  0  0  0  0  0
  -31.3656  -34.8755   19.5311 C   0  0  1  0  0  0  0  0  0  0  0  0
  -27.7095  -34.2016   20.3137 C   0  0  1  0  0  0  0  0  0  0  0  0
  -27.6193  -13.1626   19.8529 C   0  0  2  0  0  0  0  0  0  0  0  0
  -21.9252  -33.8599   25.4545 C   0  0  0  0  0  0  0  0  0  0  0  0
  -28.4944  -34.4633   24.8607 C   0  0  0  0  0  0  0  0  0  0  0  0
  -26.4988  -34.0811   26.3235 C   0  0  0  0  0  0  0  0  0  0  0  0
  -26.7278  -36.2218   25.0635 C   0  0  0  0  0  0  0  0  0  0  0  0
  -21.8006  -32.7493   21.8175 C   0  0  0  0  0  0  0  0  0  0  0  0
  -27.8056  -26.9473   18.8218 C   0  0  0  0  0  0  0  0  0  1  0  0
  -31.0470  -17.4004   21.9161 C   0  0  0  0  0  0  0  0  0  0  0  0
  -31.3884  -16.0105   22.4423 C   0  0  0  0  0  0  0  0  0  0  0  0
  -29.6049  -17.7917   22.2125 C   0  0  0  0  0  0  0  0  0  0  0  0
  -26.1643  -34.0998   23.8098 C   0  0  1  0  0  0  0  0  0  0  0  0
  -22.3912  -33.7935   24.0084 C   0  0  2  0  0  0  0  0  0  0  0  0
  -26.9765  -34.6994   24.9923 C   0  0  0  0  0  0  0  0  0  0  0  0
  -25.8316  -11.5183   20.2806 N   0  0  0  0  0  0  0  0  0  0  0  0
  -26.2836  -12.7715   20.4577 N   0  0  0  0  0  0  0  0  0  0  0  0
  -27.0842  -33.7147   21.5450 N   0  0  0  0  0  0  0  0  0  0  0  0
  -30.0538  -13.3477   20.2093 N   0  0  0  0  0  0  0  0  0  0  0  0
  -25.7475  -14.8485   21.4624 N   0  0  0  0  0  0  0  0  0  0  0  0
  -22.2186  -12.2368   22.5220 N   0  0  0  0  0  0  0  0  0  0  0  0
  -29.9244  -34.7468   19.5042 N   0  0  0  0  0  0  0  0  0  0  0  0
  -24.7264  -34.3319   23.8941 N   0  0  0  0  0  0  0  0  0  0  0  0
  -30.5729  -14.9786   21.8416 N   0  0  0  0  0  0  0  0  0  0  0  0
  -29.3616  -19.1876   21.7082 N   0  3  0  0  0  0  0  0  0  0  0  0
  -21.4731  -32.8891   23.2599 N   0  3  0  0  0  0  0  0  0  0  0  0
  -23.1063  -14.3411   22.7288 O   0  0  0  0  0  0  0  0  0  0  0  0
  -29.6359  -33.8445   21.6315 O   0  0  0  0  0  0  0  0  0  0  0  0
  -26.5152  -35.8601   22.2591 O   0  0  0  0  0  0  0  0  0  0  0  0
  -24.1058  -32.0979   23.8594 O   0  0  0  0  0  0  0  0  0  0  0  0
  -32.0087  -14.5902   20.0967 O   0  0  0  0  0  0  0  0  0  0  0  0
  -21.5245   -6.8983   21.0891 O   0  0  0  0  0  0  0  0  0  0  0  0
  -27.6518  -27.7768   19.9727 O   0  0  0  0  0  0  0  0  0  1  0  0
  -19.3231   -5.4708   25.9389 F   0  0  0  0  0  0  0  0  0  0  0  0
  -22.1239   -4.4656   22.2577 F   0  0  0  0  0  0  0  0  0  0  0  0
  1  2  1  0  0  0  0
  1  5  2  0  0  0  0
  2  6  2  0  0  0  0
  3 12  2  0  0  0  0
  3 19  1  0  0  0  0
  4 13  1  0  0  0  0
  4 19  2  0  0  0  0
  5 22  1  0  0  0  0
  6 24  1  0  0  0  0
  7 10  2  0  0  0  0
  7 21  1  0  0  0  0
  8 11  1  0  0  0  0
  8 21  2  0  0  0  0
  9 14  2  0  0  0  0
  9 23  1  0  0  0  0
 10 26  1  0  0  0  0
 11 26  2  0  0  0  0
 12 27  1  0  0  0  0
 13 27  2  0  0  0  0
 14 28  1  0  0  0  0
 15 16  2  0  0  0  0
 15 29  1  0  0  0  0
 16 30  1  0  0  0  0
 17 25  1  0  0  0  0
 17 28  2  0  0  0  0
 18 30  2  0  0  0  0
 18 31  1  0  0  0  0
 19 32  1  0  0  0  0
 20 32  1  0  0  0  0
 20 33  2  0  0  0  0
 20 34  1  0  0  0  0
 21 52  1  0  0  0  0
 22 24  2  0  0  0  0
 22 39  1  0  0  0  0
 23 25  2  0  0  0  0
 23 40  1  0  0  0  0
 24 53  1  0  0  0  0
 25 41  1  0  0  0  0
 26 61  1  0  0  0  0
 27 84  1  0  0  0  0
 28 85  1  0  0  0  0
 29 31  2  0  0  0  0
 29 84  1  0  0  0  0
 30 86  1  0  0  0  0
 31 87  1  0  0  0  0
 32 68  2  0  0  0  0
 33 69  1  0  0  0  0
 33 72  1  0  0  0  0
 34 73  1  0  0  0  0
 34 79  2  0  0  0  0
 35 54  1  0  0  0  0
 35 74  1  0  0  0  0
 35 80  2  0  0  0  0
 36 65  1  0  0  0  0
 36 70  1  0  0  0  0
 36 81  2  0  0  0  0
 37 66  1  0  0  0  0
 37 75  1  0  0  0  0
 37 82  2  0  0  0  0
 38 71  1  0  0  0  0
 38 76  1  0  0  0  0
 38 83  2  0  0  0  0
 39 42  1  0  0  0  0
 40 54  1  0  0  0  0
 41 70  1  0  0  0  0
 42 44  1  0  0  0  0
 43 45  1  0  0  0  0
 43 48  1  0  0  0  0
 44 53  1  0  0  0  0
 45 55  1  0  0  0  0
 46 50  1  0  0  0  0
 46 52  1  0  0  0  0
 47 51  1  0  0  0  0
 47 52  1  0  0  0  0
 48 71  1  0  0  0  0
 49 55  1  0  0  0  0
 49 71  1  0  0  0  0
 50 77  1  0  0  0  0
 51 77  1  0  0  0  0
 53 74  1  0  0  0  0
 54 70  1  0  0  0  0
 55 69  1  0  0  0  0
 56 66  1  0  0  0  0
 57 67  1  0  0  0  0
 58 67  1  0  0  0  0
 59 67  1  0  0  0  0
 60 78  1  0  0  0  0
 61 85  1  0  0  0  0
 62 63  1  0  0  0  0
 62 64  1  0  0  0  0
 63 76  1  0  0  0  0
 64 77  1  0  0  0  0
 65 67  1  0  0  0  0
 65 75  1  0  0  0  0
 66 78  1  0  0  0  0
 68 69  1  0  0  0  0
M  CHG  2  77   1  78   1
M  ISO  4  38 100  61 101  76 100  85 101
M  END
> <Batch ID>
0003

> <Smiles>
CNC(C)C(=O)NC(C(=O)N1Cc2cc([101O:1][101CH2:1]c3ccc(C4CCN(CCC[100NH:0][100C:0](=O)N5CCCC(n6nc(-c7ccc(Oc8ccc(F)cc8F)cc7)c(C(N)=O)c6N)C5)CC4)cc3)ccc2CC1C(=O)NC1CCCc2ccccc21)C(C)(C)C

> <Shape>
0.298

> <Color>
0.171

> <Negative vol penalty>
0.000

$$$$

  -OEChem-04042320203D

 83 92  0     1  0  0  0  0  0999 V2000
  -27.1636  -37.9496   23.2949 C   0  0  0  0  0  0  0  0  0  0  0  0
  -27.7653  -37.0444   22.4266 C   0  0  0  0  0  0  0  0  0  0  0  0
  -25.1093   -9.3688   20.2340 C   0  0  0  0  0  0  0  0  0  0  0  0
  -24.4516   -9.7984   22.5187 C   0  0  0  0  0  0  0  0  0  0  0  0
  -26.4225  -37.4851   24.3807 C   0  0  0  0  0  0  0  0  0  0  0  0
  -27.6272  -35.6740   22.6443 C   0  0  0  0  0  0  0  0  0  0  0  0
  -31.1830  -22.7784   19.3171 C   0  0  0  0  0  0  0  0  0  0  0  0
  -28.9375  -21.9885   18.9037 C   0  0  0  0  0  0  0  0  0  0  0  0
  -27.1529  -29.4757   19.0845 C   0  0  0  0  0  0  0  0  0  0  0  0
  -30.7335  -24.0966   19.2404 C   0  0  0  0  0  0  0  0  0  0  0  0
  -28.4879  -23.3067   18.8271 C   0  0  0  0  0  0  0  0  0  0  0  0
  -24.9278   -8.0011   20.4389 C   0  0  0  0  0  0  0  0  0  0  0  0
  -24.2701   -8.4306   22.7236 C   0  0  0  0  0  0  0  0  0  0  0  0
  -27.7369  -28.2104   19.0424 C   0  0  0  0  0  0  0  0  0  0  0  0
  -21.9301   -6.0968   22.0175 C   0  0  0  0  0  0  0  0  0  0  0  0
  -20.7744   -5.6908   22.6846 C   0  0  0  0  0  0  0  0  0  0  0  0
  -26.3674  -27.5229   20.9054 C   0  0  0  0  0  0  0  0  0  0  0  0
  -22.1270   -4.6770   24.4108 C   0  0  0  0  0  0  0  0  0  0  0  0
  -24.8712  -10.2674   21.2739 C   0  0  0  0  0  0  0  0  0  0  0  0
  -24.1002  -12.6076   20.6129 C   0  0  0  0  0  0  0  0  0  0  0  0
  -30.2851  -21.7243   19.1486 C   0  0  0  0  0  0  0  0  0  0  0  0
  -26.2672  -36.1083   24.6063 C   0  0  0  0  0  0  0  0  0  0  0  0
  -26.1779  -29.7780   20.0460 C   0  0  0  0  0  0  0  0  0  0  0  0
  -26.8844  -35.1907   23.7349 C   0  0  0  0  0  0  0  0  0  0  0  0
  -25.7707  -28.7920   20.9560 C   0  0  0  0  0  0  0  0  0  0  0  0
  -29.3859  -24.3607   18.9955 C   0  0  0  0  0  0  0  0  0  0  0  0
  -24.5082   -7.5320   21.6837 C   0  0  0  0  0  0  0  0  0  0  0  0
  -27.3463  -27.2347   19.9548 C   0  0  0  0  0  0  0  0  0  0  0  0
  -23.1843   -5.7929   22.5470 C   0  0  0  0  0  0  0  0  0  0  0  0
  -20.8728   -4.9809   23.8813 C   0  0  0  0  0  0  0  0  0  0  0  0
  -23.2827   -5.0830   23.7437 C   0  0  0  0  0  0  0  0  0  0  0  0
  -25.0591  -11.6804   21.0631 C   0  0  0  0  0  0  0  0  0  0  0  0
  -24.7701  -13.8062   20.5813 C   0  0  0  0  0  0  0  0  0  0  0  0
  -22.7268  -12.4036   20.2554 C   0  0  0  0  0  0  0  0  0  0  0  0
  -25.9582  -31.8556   22.4416 C   0  0  0  0  0  0  0  0  0  0  0  0
  -22.9252  -30.7213   22.6321 C   0  0  0  0  0  0  0  0  0  0  0  0
  -20.7385  -28.1776   22.0036 C   0  0  0  0  0  0  0  0  0  0  0  0
  -29.4545  -16.4216   18.9052 C   0  0  0  0  0  0  0  0  0  0  0  0
  -25.4962  -35.6541   25.8203 C   0  0  0  0  0  0  0  0  0  0  0  0
  -25.5384  -31.1393   20.0611 C   0  0  0  0  0  0  0  0  0  0  0  0
  -24.7136  -29.0596   21.9949 C   0  0  0  0  0  0  0  0  0  0  0  0
  -25.0858  -34.1847   25.7666 C   0  0  0  0  0  0  0  0  0  0  0  0
  -29.2869  -15.1222   22.4116 C   0  0  0  0  0  0  0  0  0  0  0  0
  -26.2628  -33.3173   25.3317 C   0  0  0  0  0  0  0  0  0  0  0  0
  -28.1285  -14.1325   22.2992 C   0  0  0  0  0  0  0  0  0  0  0  0
  -30.1195  -19.5256   20.3968 C   0  0  0  0  0  0  0  0  0  0  0  0
  -30.5729  -19.5337   17.9061 C   0  0  0  0  0  0  0  0  0  0  0  0
  -30.0163  -15.2739   21.0819 C   0  0  0  0  0  0  0  0  0  0  0  0
  -30.5920  -18.0703   20.4555 C   0  0  0  0  0  0  0  0  0  0  0  0
  -31.0579  -18.0919   18.0280 C   0  0  0  0  0  0  0  0  0  0  0  0
  -27.9661  -14.6812   19.8288 C   0  0  0  0  0  0  0  0  0  0  0  0
  -30.7732  -20.2903   19.2318 C   0  0  0  0  0  0  0  0  0  0  0  0
  -26.7368  -33.6964   23.9235 C   0  0  1  0  0  0  0  0  0  0  0  0
  -24.9250  -31.4963   21.4115 C   0  0  1  0  0  0  0  0  0  0  0  0
  -27.1879  -14.5165   21.1444 C   0  0  1  0  0  0  0  0  0  0  0  0
  -18.3343  -27.5262   22.3084 C   0  0  0  0  0  0  0  0  0  0  0  0
  -23.4546  -30.1578   25.5837 C   0  0  0  0  0  0  0  0  0  0  0  0
  -21.4340  -28.6795   25.5922 C   0  0  0  0  0  0  0  0  0  0  0  0
  -21.1956  -31.1119   25.0926 C   0  0  0  0  0  0  0  0  0  0  0  0
  -20.3087  -27.9524   19.0841 C   0  0  0  0  0  0  0  0  0  0  0  0
  -28.9057  -25.7705   18.9155 C   0  0  0  0  0  0  0  0  0  1  0  0
  -22.2511  -29.5906   23.3710 C   0  0  1  0  0  0  0  0  0  0  0  0
  -19.3537  -28.1703   21.3817 C   0  0  2  0  0  0  0  0  0  0  0  0
  -22.1052  -29.8802   24.8917 C   0  0  0  0  0  0  0  0  0  0  0  0
  -26.2476  -12.2417   21.3002 N   0  0  0  0  0  0  0  0  0  0  0  0
  -26.0401  -13.5346   20.9978 N   0  0  0  0  0  0  0  0  0  0  0  0
  -24.1225  -30.4079   21.9733 N   0  0  0  0  0  0  0  0  0  0  0  0
  -29.0916  -15.6045   19.9889 N   0  0  0  0  0  0  0  0  0  0  0  0
  -30.4146  -17.4141   19.1533 N   0  0  0  0  0  0  0  0  0  0  0  0
  -24.3907  -15.0555   20.2379 N   0  0  0  0  0  0  0  0  0  0  0  0
  -22.1981  -11.1088   20.3459 N   0  0  0  0  0  0  0  0  0  0  0  0
  -25.8460  -33.1453   22.9249 N   0  0  0  0  0  0  0  0  0  0  0  0
  -20.9864  -29.3508   22.6844 N   0  0  0  0  0  0  0  0  0  0  0  0
  -19.3663  -27.4133   20.0981 N   0  3  0  0  0  0  0  0  0  0  0  0
  -21.9948  -13.3388   19.8516 O   0  0  0  0  0  0  0  0  0  0  0  0
  -26.7944  -31.0239   22.7743 O   0  0  0  0  0  0  0  0  0  0  0  0
  -22.4047  -31.8397   22.6331 O   0  0  0  0  0  0  0  0  0  0  0  0
  -21.5205  -27.2353   21.8992 O   0  0  0  0  0  0  0  0  0  0  0  0
  -28.9481  -16.2747   17.7859 O   0  0  0  0  0  0  0  0  0  0  0  0
  -24.3308   -6.1974   21.8839 O   0  0  0  0  0  0  0  0  0  0  0  0
  -27.9191  -25.9906   19.9160 O   0  0  0  0  0  0  0  0  0  1  0  0
  -19.7629   -4.5924   24.5226 F   0  0  0  0  0  0  0  0  0  0  0  0
  -24.4848   -4.7892   24.2579 F   0  0  0  0  0  0  0  0  0  0  0  0
  1  2  1  0  0  0  0
  1  5  2  0  0  0  0
  2  6  2  0  0  0  0
  3 12  2  0  0  0  0
  3 19  1  0  0  0  0
  4 13  1  0  0  0  0
  4 19  2  0  0  0  0
  5 22  1  0  0  0  0
  6 24  1  0  0  0  0
  7 10  2  0  0  0  0
  7 21  1  0  0  0  0
  8 11  1  0  0  0  0
  8 21  2  0  0  0  0
  9 14  2  0  0  0  0
  9 23  1  0  0  0  0
 10 26  1  0  0  0  0
 11 26  2  0  0  0  0
 12 27  1  0  0  0  0
 13 27  2  0  0  0  0
 14 28  1  0  0  0  0
 15 16  2  0  0  0  0
 15 29  1  0  0  0  0
 16 30  1  0  0  0  0
 17 25  1  0  0  0  0
 17 28  2  0  0  0  0
 18 30  2  0  0  0  0
 18 31  1  0  0  0  0
 19 32  1  0  0  0  0
 20 32  1  0  0  0  0
 20 33  2  0  0  0  0
 20 34  1  0  0  0  0
 21 52  1  0  0  0  0
 22 24  2  0  0  0  0
 22 39  1  0  0  0  0
 23 25  2  0  0  0  0
 23 40  1  0  0  0  0
 24 53  1  0  0  0  0
 25 41  1  0  0  0  0
 26 61  1  0  0  0  0
 27 80  1  0  0  0  0
 28 81  1  0  0  0  0
 29 31  2  0  0  0  0
 29 80  1  0  0  0  0
 30 82  1  0  0  0  0
 31 83  1  0  0  0  0
 32 65  2  0  0  0  0
 33 66  1  0  0  0  0
 33 70  1  0  0  0  0
 34 71  1  0  0  0  0
 34 75  2  0  0  0  0
 35 54  1  0  0  0  0
 35 72  1  0  0  0  0
 35 76  2  0  0  0  0
 36 62  1  0  0  0  0
 36 67  1  0  0  0  0
 36 77  2  0  0  0  0
 37 63  1  0  0  0  0
 37 73  1  0  0  0  0
 37 78  2  0  0  0  0
 38 68  1  0  0  0  0
 38 69  1  0  0  0  0
 38 79  2  0  0  0  0
 39 42  1  0  0  0  0
 40 54  1  0  0  0  0
 41 67  1  0  0  0  0
 42 44  1  0  0  0  0
 43 45  1  0  0  0  0
 43 48  1  0  0  0  0
 44 53  1  0  0  0  0
 45 55  1  0  0  0  0
 46 49  1  0  0  0  0
 46 52  1  0  0  0  0
 47 50  1  0  0  0  0
 47 52  1  0  0  0  0
 48 68  1  0  0  0  0
 49 69  1  0  0  0  0
 50 69  1  0  0  0  0
 51 55  1  0  0  0  0
 51 68  1  0  0  0  0
 53 72  1  0  0  0  0
 54 67  1  0  0  0  0
 55 66  1  0  0  0  0
 56 63  1  0  0  0  0
 57 64  1  0  0  0  0
 58 64  1  0  0  0  0
 59 64  1  0  0  0  0
 60 74  1  0  0  0  0
 61 81  1  0  0  0  0
 62 64  1  0  0  0  0
 62 73  1  0  0  0  0
 63 74  1  0  0  0  0
 65 66  1  0  0  0  0
M  CHG  1  74   1
M  ISO  4  38 100  61 101  69 100  81 101
M  END
> <Batch ID>
0003

> <Smiles>
CNC(C)C(=O)NC(C(=O)N1Cc2cc([101O:1][101CH2:1]c3ccc(C4CC[100N:0]([100C:0](=O)N5CCCC(n6nc(-c7ccc(Oc8ccc(F)cc8F)cc7)c(C(N)=O)c6N)C5)CC4)cc3)ccc2CC1C(=O)NC1CCCc2ccccc21)C(C)(C)C

> <Shape>
0.351

> <Color>
0.116

> <Negative vol penalty>
0.000

$$$$

  -OEChem-04042320203D

 79 87  0     1  0  0  0  0  0999 V2000
  -26.2557  -33.1308   18.4077 C   0  0  0  0  0  0  0  0  0  0  0  0
  -26.8579  -31.9800   18.9060 C   0  0  0  0  0  0  0  0  0  0  0  0
  -23.1007   -9.8373   19.9341 C   0  0  0  0  0  0  0  0  0  0  0  0
  -23.8695   -9.8462   22.2244 C   0  0  0  0  0  0  0  0  0  0  0  0
  -25.3740  -33.0446   17.3311 C   0  0  0  0  0  0  0  0  0  0  0  0
  -26.5779  -30.7420   18.3287 C   0  0  0  0  0  0  0  0  0  0  0  0
  -30.4333  -26.0292   17.6725 C   0  0  0  0  0  0  0  0  0  0  0  0
  -29.1411  -18.7571   21.0185 C   0  0  0  0  0  0  0  0  0  0  0  0
  -31.3554  -18.5679   20.0707 C   0  0  0  0  0  0  0  0  0  0  0  0
  -28.8580  -19.8089   20.1472 C   0  0  0  0  0  0  0  0  0  0  0  0
  -31.0723  -19.6197   19.1994 C   0  0  0  0  0  0  0  0  0  0  0  0
  -22.3825   -8.6671   20.1797 C   0  0  0  0  0  0  0  0  0  0  0  0
  -23.1512   -8.6760   22.4701 C   0  0  0  0  0  0  0  0  0  0  0  0
  -30.6269  -24.8652   18.4152 C   0  0  0  0  0  0  0  0  0  0  0  0
  -19.9432   -7.8061   23.0802 C   0  0  0  0  0  0  0  0  0  0  0  0
  -19.1920   -7.7429   24.2538 C   0  0  0  0  0  0  0  0  0  0  0  0
  -29.1880  -23.6642   16.8965 C   0  0  0  0  0  0  0  0  0  0  0  0
  -20.4772   -5.8277   24.9732 C   0  0  0  0  0  0  0  0  0  0  0  0
  -23.8443  -10.4268   20.9564 C   0  0  0  0  0  0  0  0  0  0  0  0
  -24.1320  -12.9594   20.8509 C   0  0  0  0  0  0  0  0  0  0  0  0
  -25.0904  -31.8062   16.7341 C   0  0  0  0  0  0  0  0  0  0  0  0
  -29.6055  -26.0219   16.5406 C   0  0  0  0  0  0  0  0  0  0  0  0
  -25.6905  -30.6389   17.2439 C   0  0  0  0  0  0  0  0  0  0  0  0
  -28.9876  -24.8287   16.1397 C   0  0  0  0  0  0  0  0  0  0  0  0
  -30.3898  -18.1366   20.9803 C   0  0  0  0  0  0  0  0  0  0  0  0
  -29.8236  -20.2402   19.2377 C   0  0  0  0  0  0  0  0  0  0  0  0
  -22.4077   -8.0864   21.4477 C   0  0  0  0  0  0  0  0  0  0  0  0
  -30.0019  -23.6832   18.0289 C   0  0  0  0  0  0  0  0  0  0  0  0
  -20.9613   -6.8801   22.8531 C   0  0  0  0  0  0  0  0  0  0  0  0
  -19.4590   -6.7537   25.2003 C   0  0  0  0  0  0  0  0  0  0  0  0
  -21.2283   -5.8909   23.7996 C   0  0  0  0  0  0  0  0  0  0  0  0
  -24.5869  -11.6354   20.7032 C   0  0  0  0  0  0  0  0  0  0  0  0
  -25.2065  -13.7341   20.4881 C   0  0  0  0  0  0  0  0  0  0  0  0
  -22.8525  -13.4455   21.2780 C   0  0  0  0  0  0  0  0  0  0  0  0
  -26.9174  -27.5054   15.7179 C   0  0  0  0  0  0  0  0  0  0  0  0
  -27.4575  -26.0678   12.8607 C   0  0  0  0  0  0  0  0  0  0  0  0
  -28.9270  -23.5185   11.1320 C   0  0  0  0  0  0  0  0  0  0  0  0
  -30.6681  -14.8682   20.6614 C   0  0  0  0  0  0  0  0  0  0  0  0
  -24.0943  -31.7568   15.6028 C   0  0  0  0  0  0  0  0  0  0  0  0
  -29.4283  -27.2796   15.7349 C   0  0  0  0  0  0  0  0  0  0  0  0
  -28.1054  -24.7632   14.9207 C   0  0  0  0  0  0  0  0  0  0  0  0
  -24.1397  -30.4546   14.8075 C   0  0  0  0  0  0  0  0  0  0  0  0
  -29.5717  -12.4749   18.2642 C   0  0  0  0  0  0  0  0  0  0  0  0
  -24.1751  -29.2550   15.7492 C   0  0  0  0  0  0  0  0  0  0  0  0
  -28.1426  -12.1480   18.7009 C   0  0  0  0  0  0  0  0  0  0  0  0
  -30.4888  -12.7077   19.4629 C   0  0  0  0  0  0  0  0  0  0  0  0
  -28.5776  -13.3896   20.8614 C   0  0  0  0  0  0  0  0  0  0  0  0
  -25.4311  -29.2809   16.6286 C   0  0  1  0  0  0  0  0  0  0  0  0
  -28.1542  -27.2771   14.8958 C   0  0  1  0  0  0  0  0  0  0  0  0
  -27.6026  -13.2017   19.6865 C   0  0  2  0  0  0  0  0  0  0  0  0
  -29.1577  -22.5866    8.8134 C   0  0  0  0  0  0  0  0  0  0  0  0
  -24.6287  -24.9379   13.0360 C   0  0  0  0  0  0  0  0  0  0  0  0
  -25.2453  -23.3033   11.2426 C   0  0  0  0  0  0  0  0  0  0  0  0
  -25.2883  -25.7512   10.7649 C   0  0  0  0  0  0  0  0  0  0  0  0
  -31.8638  -23.8847   11.1519 C   0  0  0  0  0  0  0  0  0  0  0  0
  -30.6933  -17.0120   21.9115 C   0  0  0  0  0  0  0  0  0  0  0  0
  -29.5177  -21.3705   18.2996 C   0  0  0  0  0  0  0  0  0  1  0  0
  -27.0774  -24.7449   12.2408 C   0  0  1  0  0  0  0  0  0  0  0  0
  -29.7581  -23.5105    9.8616 C   0  0  2  0  0  0  0  0  0  0  0  0
  -25.5749  -24.6857   11.8452 C   0  0  0  0  0  0  0  0  0  0  0  0
  -25.8518  -11.5690   20.2794 N   0  0  0  0  0  0  0  0  0  0  0  0
  -26.2008  -12.8611   20.1576 N   0  0  0  0  0  0  0  0  0  0  0  0
  -27.9582  -26.0208   14.1695 N   0  0  0  0  0  0  0  0  0  0  0  0
  -29.9201  -13.7188   20.3574 N   0  0  0  0  0  0  0  0  0  0  0  0
  -25.3883  -15.0702   20.4226 N   0  0  0  0  0  0  0  0  0  0  0  0
  -21.8615  -12.5130   21.6135 N   0  0  0  0  0  0  0  0  0  0  0  0
  -26.5846  -28.8373   15.8756 N   0  0  0  0  0  0  0  0  0  0  0  0
  -27.9970  -24.5365   11.1275 N   0  0  0  0  0  0  0  0  0  0  0  0
  -30.0528  -15.7789   21.5116 N   0  0  0  0  0  0  0  0  0  0  0  0
  -31.1456  -23.0516   10.1533 N   0  3  0  0  0  0  0  0  0  0  0  0
  -22.5905  -14.6704   21.3440 O   0  0  0  0  0  0  0  0  0  0  0  0
  -26.3092  -26.5444   16.1741 O   0  0  0  0  0  0  0  0  0  0  0  0
  -27.3221  -27.1040   12.2052 O   0  0  0  0  0  0  0  0  0  0  0  0
  -29.0845  -22.7010   12.0361 O   0  0  0  0  0  0  0  0  0  0  0  0
  -31.7982  -15.0706   20.2045 O   0  0  0  0  0  0  0  0  0  0  0  0
  -21.7068   -6.9447   21.6878 O   0  0  0  0  0  0  0  0  0  0  0  0
  -30.1886  -22.5458   18.7524 O   0  0  0  0  0  0  0  0  0  1  0  0
  -18.7385   -6.6940   26.3279 F   0  0  0  0  0  0  0  0  0  0  0  0
  -22.2060   -4.9993   23.5875 F   0  0  0  0  0  0  0  0  0  0  0  0
  1  2  1  0  0  0  0
  1  5  2  0  0  0  0
  2  6  2  0  0  0  0
  3 12  2  0  0  0  0
  3 19  1  0  0  0  0
  4 13  1  0  0  0  0
  4 19  2  0  0  0  0
  5 21  1  0  0  0  0
  6 23  1  0  0  0  0
  7 14  2  0  0  0  0
  7 22  1  0  0  0  0
  8 10  2  0  0  0  0
  8 25  1  0  0  0  0
  9 11  1  0  0  0  0
  9 25  2  0  0  0  0
 10 26  1  0  0  0  0
 11 26  2  0  0  0  0
 12 27  1  0  0  0  0
 13 27  2  0  0  0  0
 14 28  1  0  0  0  0
 15 16  2  0  0  0  0
 15 29  1  0  0  0  0
 16 30  1  0  0  0  0
 17 24  1  0  0  0  0
 17 28  2  0  0  0  0
 18 30  2  0  0  0  0
 18 31  1  0  0  0  0
 19 32  1  0  0  0  0
 20 32  1  0  0  0  0
 20 33  2  0  0  0  0
 20 34  1  0  0  0  0
 21 23  2  0  0  0  0
 21 39  1  0  0  0  0
 22 24  2  0  0  0  0
 22 40  1  0  0  0  0
 23 48  1  0  0  0  0
 24 41  1  0  0  0  0
 25 56  1  0  0  0  0
 26 57  1  0  0  0  0
 27 76  1  0  0  0  0
 28 77  1  0  0  0  0
 29 31  2  0  0  0  0
 29 76  1  0  0  0  0
 30 78  1  0  0  0  0
 31 79  1  0  0  0  0
 32 61  2  0  0  0  0
 33 62  1  0  0  0  0
 33 65  1  0  0  0  0
 34 66  1  0  0  0  0
 34 71  2  0  0  0  0
 35 49  1  0  0  0  0
 35 67  1  0  0  0  0
 35 72  2  0  0  0  0
 36 58  1  0  0  0  0
 36 63  1  0  0  0  0
 36 73  2  0  0  0  0
 37 59  1  0  0  0  0
 37 68  1  0  0  0  0
 37 74  2  0  0  0  0
 38 64  1  0  0  0  0
 38 69  1  0  0  0  0
 38 75  2  0  0  0  0
 39 42  1  0  0  0  0
 40 49  1  0  0  0  0
 41 63  1  0  0  0  0
 42 44  1  0  0  0  0
 43 45  1  0  0  0  0
 43 46  1  0  0  0  0
 44 48  1  0  0  0  0
 45 50  1  0  0  0  0
 46 64  1  0  0  0  0
 47 50  1  0  0  0  0
 47 64  1  0  0  0  0
 48 67  1  0  0  0  0
 49 63  1  0  0  0  0
 50 62  1  0  0  0  0
 51 59  1  0  0  0  0
 52 60  1  0  0  0  0
 53 60  1  0  0  0  0
 54 60  1  0  0  0  0
 55 70  1  0  0  0  0
 56 69  1  0  0  0  0
 57 77  1  0  0  0  0
 58 60  1  0  0  0  0
 58 68  1  0  0  0  0
 59 70  1  0  0  0  0
 61 62  1  0  0  0  0
M  CHG  1  70   1
M  ISO  4  38 100  57 101  69 100  77 101
M  END
> <Batch ID>
0003

> <Smiles>
CNC(C)C(=O)NC(C(=O)N1Cc2cc([101O:1][101CH2:1]c3ccc(C[100NH:0][100C:0](=O)N4CCCC(n5nc(-c6ccc(Oc7ccc(F)cc7F)cc6)c(C(N)=O)c5N)C4)cc3)ccc2CC1C(=O)NC1CCCc2ccccc21)C(C)(C)C

> <Shape>
0.232

> <Color>
0.203

> <Negative vol penalty>
0.000

$$$$

  -OEChem-04042320203D

 76 83  0     1  0  0  0  0  0999 V2000
  -16.1600  -22.7176   22.5581 C   0  0  0  0  0  0  0  0  0  0  0  0
  -17.4333  -22.6316   22.0043 C   0  0  0  0  0  0  0  0  0  0  0  0
  -23.0622   -9.9075   19.9658 C   0  0  0  0  0  0  0  0  0  0  0  0
  -23.8771   -9.8683   22.2399 C   0  0  0  0  0  0  0  0  0  0  0  0
  -15.9799  -22.5083   23.9248 C   0  0  0  0  0  0  0  0  0  0  0  0
  -18.5275  -22.3372   22.8170 C   0  0  0  0  0  0  0  0  0  0  0  0
  -23.4690  -19.0565   21.2924 C   0  0  0  0  0  0  0  0  0  0  0  0
  -22.3096   -8.7601   20.2158 C   0  0  0  0  0  0  0  0  0  0  0  0
  -23.1244   -8.7209   22.4899 C   0  0  0  0  0  0  0  0  0  0  0  0
  -24.7491  -19.4249   20.8811 C   0  0  0  0  0  0  0  0  0  0  0  0
  -21.1365   -5.9883   23.8314 C   0  0  0  0  0  0  0  0  0  0  0  0
  -20.4082   -5.9357   25.0198 C   0  0  0  0  0  0  0  0  0  0  0  0
  -25.5335  -19.2128   23.1524 C   0  0  0  0  0  0  0  0  0  0  0  0
  -19.1718   -7.9001   24.3490 C   0  0  0  0  0  0  0  0  0  0  0  0
  -23.8461  -10.4616   20.9779 C   0  0  0  0  0  0  0  0  0  0  0  0
  -24.2180  -12.9838   20.8890 C   0  0  0  0  0  0  0  0  0  0  0  0
  -17.0711  -22.2017   24.7530 C   0  0  0  0  0  0  0  0  0  0  0  0
  -23.2086  -18.7736   22.6410 C   0  0  0  0  0  0  0  0  0  0  0  0
  -18.3620  -22.1249   24.1962 C   0  0  0  0  0  0  0  0  0  0  0  0
  -24.2498  -18.8385   23.5779 C   0  0  0  0  0  0  0  0  0  0  0  0
  -22.3406   -8.1668   21.4778 C   0  0  0  0  0  0  0  0  0  0  0  0
  -25.7810  -19.5059   21.8115 C   0  0  0  0  0  0  0  0  0  0  0  0
  -20.8826   -6.9968   22.9018 C   0  0  0  0  0  0  0  0  0  0  0  0
  -19.4258   -6.8916   25.2786 C   0  0  0  0  0  0  0  0  0  0  0  0
  -19.9003   -7.9527   23.1606 C   0  0  0  0  0  0  0  0  0  0  0  0
  -24.6243  -11.6466   20.7202 C   0  0  0  0  0  0  0  0  0  0  0  0
  -25.3108  -13.7250   20.5111 C   0  0  0  0  0  0  0  0  0  0  0  0
  -22.9648  -13.5090   21.3467 C   0  0  0  0  0  0  0  0  0  0  0  0
  -21.3315  -20.0335   24.8754 C   0  0  0  0  0  0  0  0  0  0  0  0
  -22.3526  -17.4923   26.6138 C   0  0  0  0  0  0  0  0  0  0  0  0
  -24.7431  -15.1140   27.1391 C   0  0  0  0  0  0  0  0  0  0  0  0
  -30.8103  -14.6711   20.5822 C   0  0  0  0  0  0  0  0  0  0  0  0
  -16.8338  -22.0303   26.2325 C   0  0  0  0  0  0  0  0  0  0  0  0
  -21.8283  -18.3516   23.0642 C   0  0  0  0  0  0  0  0  0  0  0  0
  -24.0270  -18.5250   25.0341 C   0  0  0  0  0  0  0  0  0  0  0  0
  -17.9922  -21.3534   26.9608 C   0  0  0  0  0  0  0  0  0  0  0  0
  -29.5845  -12.3396   18.1868 C   0  0  0  0  0  0  0  0  0  0  0  0
  -19.3214  -21.9737   26.5420 C   0  0  0  0  0  0  0  0  0  0  0  0
  -28.1542  -12.0573   18.6499 C   0  0  0  0  0  0  0  0  0  0  0  0
  -30.5331  -12.5296   19.3684 C   0  0  0  0  0  0  0  0  0  0  0  0
  -28.6750  -13.2626   20.8120 C   0  0  0  0  0  0  0  0  0  0  0  0
  -19.5703  -21.7833   25.0409 C   0  0  1  0  0  0  0  0  0  0  0  0
  -21.5607  -18.5851   24.5479 C   0  0  1  0  0  0  0  0  0  0  0  0
  -27.6706  -13.1192   19.6558 C   0  0  2  0  0  0  0  0  0  0  0  0
  -25.3188  -13.2016   28.6585 C   0  0  0  0  0  0  0  0  0  0  0  0
  -23.1824  -19.4698   28.7844 C   0  0  0  0  0  0  0  0  0  0  0  0
  -24.5722  -17.6562   29.8078 C   0  0  0  0  0  0  0  0  0  0  0  0
  -22.0989  -17.3821   29.6341 C   0  0  0  0  0  0  0  0  0  0  0  0
  -24.7054  -13.1748   24.9037 C   0  0  0  0  0  0  0  0  0  0  0  0
  -30.9341  -16.8007   21.8505 C   0  0  0  0  0  0  0  0  0  0  0  0
  -30.6370  -17.9563   20.9116 C   0  0  0  0  0  0  0  0  0  0  0  0
  -27.4127  -19.5218   20.0814 C   0  0  0  0  0  0  0  0  0  1  0  0
  -28.9109  -19.2914   20.0394 C   0  0  0  0  0  0  0  0  0  0  0  0
  -23.5127  -17.2298   27.5436 C   0  0  1  0  0  0  0  0  0  0  0  0
  -24.6416  -13.6157   27.3614 C   0  0  2  0  0  0  0  0  0  0  0  0
  -23.3456  -17.9423   28.9154 C   0  0  0  0  0  0  0  0  0  0  0  0
  -25.8773  -11.5413   20.2699 N   0  0  0  0  0  0  0  0  0  0  0  0
  -26.2678  -12.8219   20.1525 N   0  0  0  0  0  0  0  0  0  0  0  0
  -22.6586  -18.1233   25.3997 N   0  0  0  0  0  0  0  0  0  0  0  0
  -30.0175  -13.5508   20.2834 N   0  0  0  0  0  0  0  0  0  0  0  0
  -25.5368  -15.0547   20.4538 N   0  0  0  0  0  0  0  0  0  0  0  0
  -21.9495  -12.6075   21.6942 N   0  0  0  0  0  0  0  0  0  0  0  0
  -20.0127  -20.4324   24.7692 N   0  0  0  0  0  0  0  0  0  0  0  0
  -23.6422  -15.7796   27.6353 N   0  0  0  0  0  0  0  0  0  0  0  0
  -30.2438  -15.5940   21.4529 N   0  0  0  0  0  0  0  0  0  0  0  0
  -25.2884  -12.8805   26.2380 N   0  3  0  0  0  0  0  0  0  0  0  0
  -22.7461  -14.7414   21.4289 O   0  0  0  0  0  0  0  0  0  0  0  0
  -22.2805  -20.7367   25.2018 O   0  0  0  0  0  0  0  0  0  0  0  0
  -21.2179  -17.1438   26.9493 O   0  0  0  0  0  0  0  0  0  0  0  0
  -25.7046  -15.6415   26.5844 O   0  0  0  0  0  0  0  0  0  0  0  0
  -31.9372  -14.8393   20.1039 O   0  0  0  0  0  0  0  0  0  0  0  0
  -21.6061   -7.0472   21.7221 O   0  0  0  0  0  0  0  0  0  0  0  0
  -27.0313  -19.8659   21.4128 O   0  0  0  0  0  0  0  0  0  1  0  0
  -29.2397  -18.2135   20.9073 O   0  0  0  0  0  0  0  0  0  0  0  0
  -18.7254   -6.8400   26.4191 F   0  0  0  0  0  0  0  0  0  0  0  0
  -19.6510   -8.9232   22.2708 F   0  0  0  0  0  0  0  0  0  0  0  0
  1  2  1  0  0  0  0
  1  5  2  0  0  0  0
  2  6  2  0  0  0  0
  3  8  2  0  0  0  0
  3 15  1  0  0  0  0
  4  9  1  0  0  0  0
  4 15  2  0  0  0  0
  5 17  1  0  0  0  0
  6 19  1  0  0  0  0
  7 10  2  0  0  0  0
  7 18  1  0  0  0  0
  8 21  1  0  0  0  0
  9 21  2  0  0  0  0
 10 22  1  0  0  0  0
 11 12  2  0  0  0  0
 11 23  1  0  0  0  0
 12 24  1  0  0  0  0
 13 20  1  0  0  0  0
 13 22  2  0  0  0  0
 14 24  2  0  0  0  0
 14 25  1  0  0  0  0
 15 26  1  0  0  0  0
 16 26  1  0  0  0  0
 16 27  2  0  0  0  0
 16 28  1  0  0  0  0
 17 19  2  0  0  0  0
 17 33  1  0  0  0  0
 18 20  2  0  0  0  0
 18 34  1  0  0  0  0
 19 42  1  0  0  0  0
 20 35  1  0  0  0  0
 21 72  1  0  0  0  0
 22 73  1  0  0  0  0
 23 25  2  0  0  0  0
 23 72  1  0  0  0  0
 24 75  1  0  0  0  0
 25 76  1  0  0  0  0
 26 57  2  0  0  0  0
 27 58  1  0  0  0  0
 27 61  1  0  0  0  0
 28 62  1  0  0  0  0
 28 67  2  0  0  0  0
 29 43  1  0  0  0  0
 29 63  1  0  0  0  0
 29 68  2  0  0  0  0
 30 54  1  0  0  0  0
 30 59  1  0  0  0  0
 30 69  2  0  0  0  0
 31 55  1  0  0  0  0
 31 64  1  0  0  0  0
 31 70  2  0  0  0  0
 32 60  1  0  0  0  0
 32 65  1  0  0  0  0
 32 71  2  0  0  0  0
 33 36  1  0  0  0  0
 34 43  1  0  0  0  0
 35 59  1  0  0  0  0
 36 38  1  0  0  0  0
 37 39  1  0  0  0  0
 37 40  1  0  0  0  0
 38 42  1  0  0  0  0
 39 44  1  0  0  0  0
 40 60  1  0  0  0  0
 41 44  1  0  0  0  0
 41 60  1  0  0  0  0
 42 63  1  0  0  0  0
 43 59  1  0  0  0  0
 44 58  1  0  0  0  0
 45 55  1  0  0  0  0
 46 56  1  0  0  0  0
 47 56  1  0  0  0  0
 48 56  1  0  0  0  0
 49 66  1  0  0  0  0
 50 51  1  0  0  0  0
 50 65  1  0  0  0  0
 51 74  1  0  0  0  0
 52 53  1  0  0  0  0
 52 73  1  0  0  0  0
 53 74  1  0  0  0  0
 54 56  1  0  0  0  0
 54 64  1  0  0  0  0
 55 66  1  0  0  0  0
 57 58  1  0  0  0  0
M  CHG  1  66   1
M  ISO  4  32 100  52 101  65 100  73 101
M  END
> <Batch ID>
0003

> <Smiles>
CNC(C)C(=O)NC(C(=O)N1Cc2cc([101O:1][101CH2:1]COCC[100NH:0][100C:0](=O)N3CCCC(n4nc(-c5ccc(Oc6ccc(F)cc6F)cc5)c(C(N)=O)c4N)C3)ccc2CC1C(=O)NC1CCCc2ccccc21)C(C)(C)C

> <Shape>
0.186

> <Color>
0.201

> <Negative vol penalty>
0.000

$$$$

  -OEChem-04042320203D

 80 88  0     1  0  0  0  0  0999 V2000
  -17.9250  -32.0769   21.0294 C   0  0  0  0  0  0  0  0  0  0  0  0
  -19.1836  -31.9426   20.4521 C   0  0  0  0  0  0  0  0  0  0  0  0
  -25.2119  -13.5168   19.3001 C   0  0  0  0  0  0  0  0  0  0  0  0
  -24.9858  -14.7932   21.3390 C   0  0  0  0  0  0  0  0  0  0  0  0
  -17.6967  -31.6002   22.3196 C   0  0  0  0  0  0  0  0  0  0  0  0
  -20.2151  -31.3326   21.1652 C   0  0  0  0  0  0  0  0  0  0  0  0
  -24.6919  -27.8272   18.8901 C   0  0  0  0  0  0  0  0  0  0  0  0
  -25.0859  -12.3331   20.0271 C   0  0  0  0  0  0  0  0  0  0  0  0
  -24.8598  -13.6094   22.0660 C   0  0  0  0  0  0  0  0  0  0  0  0
  -26.0164  -28.1001   18.5511 C   0  0  0  0  0  0  0  0  0  0  0  0
  -22.5959  -10.5174   21.4186 C   0  0  0  0  0  0  0  0  0  0  0  0
  -21.7515   -9.5308   20.9095 C   0  0  0  0  0  0  0  0  0  0  0  0
  -26.7289  -27.2926   20.7097 C   0  0  0  0  0  0  0  0  0  0  0  0
  -23.6149   -7.9975   20.7906 C   0  0  0  0  0  0  0  0  0  0  0  0
  -25.1619  -14.7469   19.9560 C   0  0  0  0  0  0  0  0  0  0  0  0
  -24.2570  -16.7226   18.6199 C   0  0  0  0  0  0  0  0  0  0  0  0
  -18.7232  -30.9754   23.0452 C   0  0  0  0  0  0  0  0  0  0  0  0
  -24.3743  -27.2942   20.1477 C   0  0  0  0  0  0  0  0  0  0  0  0
  -20.0006  -30.8484   22.4668 C   0  0  0  0  0  0  0  0  0  0  0  0
  -25.3998  -27.0114   21.0613 C   0  0  0  0  0  0  0  0  0  0  0  0
  -24.9098  -12.3794   21.4101 C   0  0  0  0  0  0  0  0  0  0  0  0
  -27.0349  -27.8355   19.4621 C   0  0  0  0  0  0  0  0  0  0  0  0
  -23.9498  -10.2442   21.6136 C   0  0  0  0  0  0  0  0  0  0  0  0
  -22.2610   -8.2708   20.5956 C   0  0  0  0  0  0  0  0  0  0  0  0
  -24.4592   -8.9842   21.2997 C   0  0  0  0  0  0  0  0  0  0  0  0
  -25.2925  -15.9699   19.2056 C   0  0  0  0  0  0  0  0  0  0  0  0
  -24.8968  -17.7839   18.0274 C   0  0  0  0  0  0  0  0  0  0  0  0
  -22.8433  -16.4839   18.6120 C   0  0  0  0  0  0  0  0  0  0  0  0
  -22.6493  -28.2772   22.6300 C   0  0  0  0  0  0  0  0  0  0  0  0
  -23.2904  -25.3034   23.7560 C   0  0  0  0  0  0  0  0  0  0  0  0
  -25.3292  -22.5669   23.7144 C   0  0  0  0  0  0  0  0  0  0  0  0
  -30.0258  -20.4512   19.2251 C   0  0  0  0  0  0  0  0  0  0  0  0
  -18.4415  -30.5184   24.4546 C   0  0  0  0  0  0  0  0  0  0  0  0
  -22.9432  -26.9806   20.4880 C   0  0  0  0  0  0  0  0  0  0  0  0
  -25.1136  -26.4203   22.4167 C   0  0  0  0  0  0  0  0  0  0  0  0
  -19.4862  -29.5485   25.0007 C   0  0  0  0  0  0  0  0  0  0  0  0
  -29.0797  -19.0030   16.0463 C   0  0  0  0  0  0  0  0  0  0  0  0
  -20.8935  -30.0598   24.7089 C   0  0  0  0  0  0  0  0  0  0  0  0
  -27.8928  -18.1273   16.4522 C   0  0  0  0  0  0  0  0  0  0  0  0
  -32.0460  -24.8313   19.3719 C   0  0  0  0  0  0  0  0  0  0  0  0
  -30.0042  -23.8861   18.2392 C   0  0  0  0  0  0  0  0  0  0  0  0
  -30.1665  -18.9920   17.1172 C   0  0  0  0  0  0  0  0  0  0  0  0
  -28.5125  -18.5187   18.8818 C   0  0  0  0  0  0  0  0  0  0  0  0
  -31.8649  -26.1309   18.5995 C   0  0  0  0  0  0  0  0  0  0  0  0
  -29.8338  -25.1904   17.4724 C   0  0  0  0  0  0  0  0  0  0  0  0
  -21.1382  -30.1702   23.1991 C   0  0  1  0  0  0  0  0  0  0  0  0
  -22.6861  -26.9181   21.9904 C   0  0  1  0  0  0  0  0  0  0  0  0
  -31.4702  -23.6322   18.6097 C   0  0  0  0  0  0  0  0  0  0  0  0
  -27.3695  -18.5058   17.8505 C   0  0  2  0  0  0  0  0  0  0  0  0
  -25.6172  -20.3088   24.7705 C   0  0  0  0  0  0  0  0  0  0  0  0
  -24.3450  -26.6279   26.2944 C   0  0  0  0  0  0  0  0  0  0  0  0
  -25.4609  -24.4636   26.8766 C   0  0  0  0  0  0  0  0  0  0  0  0
  -22.9762  -24.5710   26.6823 C   0  0  0  0  0  0  0  0  0  0  0  0
  -25.0655  -21.1867   21.1098 C   0  0  0  0  0  0  0  0  0  0  0  0
  -31.6080  -22.3516   19.4302 C   0  0  0  0  0  0  0  0  0  0  0  0
  -30.1506  -27.6582   17.6286 C   0  0  0  0  0  0  0  0  0  0  0  0
  -28.6810  -28.0084   17.7543 C   0  0  0  0  0  0  0  0  0  1  0  0
  -24.3895  -24.6897   24.5892 C   0  0  1  0  0  0  0  0  0  0  0  0
  -25.0228  -21.0842   23.6051 C   0  0  2  0  0  0  0  0  0  0  0  0
  -24.2984  -25.1010   26.0859 C   0  0  0  0  0  0  0  0  0  0  0  0
  -26.4985  -16.5073   19.0036 N   0  0  0  0  0  0  0  0  0  0  0  0
  -26.2248  -17.6090   18.2841 N   0  0  0  0  0  0  0  0  0  0  0  0
  -23.6979  -26.1372   22.7050 N   0  0  0  0  0  0  0  0  0  0  0  0
  -29.6068  -19.3791   18.4198 N   0  0  0  0  0  0  0  0  0  0  0  0
  -24.4473  -18.8402   17.3172 N   0  0  0  0  0  0  0  0  0  0  0  0
  -22.3541  -15.3465   19.2689 N   0  0  0  0  0  0  0  0  0  0  0  0
  -21.3984  -28.8643   22.6324 N   0  0  0  0  0  0  0  0  0  0  0  0
  -24.3205  -23.2506   24.3598 N   0  0  0  0  0  0  0  0  0  0  0  0
  -31.0719  -21.2126   18.7186 N   0  0  0  0  0  0  0  0  0  0  0  0
  -30.4019  -26.3286   18.2849 N   0  3  0  0  0  0  0  0  0  0  0  0
  -25.5822  -20.5317   22.3390 N   0  3  0  0  0  0  0  0  0  0  0  0
  -22.0393  -17.2475   18.0255 O   0  0  0  0  0  0  0  0  0  0  0  0
  -23.6793  -28.7572   23.0888 O   0  0  0  0  0  0  0  0  0  0  0  0
  -22.1138  -25.0467   24.0232 O   0  0  0  0  0  0  0  0  0  0  0  0
  -26.3618  -23.0680   23.2749 O   0  0  0  0  0  0  0  0  0  0  0  0
  -29.5024  -20.7140   20.3134 O   0  0  0  0  0  0  0  0  0  0  0  0
  -24.7866  -11.2246   22.1198 O   0  0  0  0  0  0  0  0  0  0  0  0
  -28.3285  -28.1015   19.1340 O   0  0  0  0  0  0  0  0  0  1  0  0
  -21.4497   -7.3229   20.1082 F   0  0  0  0  0  0  0  0  0  0  0  0
  -25.7588   -8.7154   21.4860 F   0  0  0  0  0  0  0  0  0  0  0  0
  1  2  1  0  0  0  0
  1  5  2  0  0  0  0
  2  6  2  0  0  0  0
  3  8  2  0  0  0  0
  3 15  1  0  0  0  0
  4  9  1  0  0  0  0
  4 15  2  0  0  0  0
  5 17  1  0  0  0  0
  6 19  1  0  0  0  0
  7 10  2  0  0  0  0
  7 18  1  0  0  0  0
  8 21  1  0  0  0  0
  9 21  2  0  0  0  0
 10 22  1  0  0  0  0
 11 12  2  0  0  0  0
 11 23  1  0  0  0  0
 12 24  1  0  0  0  0
 13 20  1  0  0  0  0
 13 22  2  0  0  0  0
 14 24  2  0  0  0  0
 14 25  1  0  0  0  0
 15 26  1  0  0  0  0
 16 26  1  0  0  0  0
 16 27  2  0  0  0  0
 16 28  1  0  0  0  0
 17 19  2  0  0  0  0
 17 33  1  0  0  0  0
 18 20  2  0  0  0  0
 18 34  1  0  0  0  0
 19 46  1  0  0  0  0
 20 35  1  0  0  0  0
 21 77  1  0  0  0  0
 22 78  1  0  0  0  0
 23 25  2  0  0  0  0
 23 77  1  0  0  0  0
 24 79  1  0  0  0  0
 25 80  1  0  0  0  0
 26 61  2  0  0  0  0
 27 62  1  0  0  0  0
 27 65  1  0  0  0  0
 28 66  1  0  0  0  0
 28 72  2  0  0  0  0
 29 47  1  0  0  0  0
 29 67  1  0  0  0  0
 29 73  2  0  0  0  0
 30 58  1  0  0  0  0
 30 63  1  0  0  0  0
 30 74  2  0  0  0  0
 31 59  1  0  0  0  0
 31 68  1  0  0  0  0
 31 75  2  0  0  0  0
 32 64  1  0  0  0  0
 32 69  1  0  0  0  0
 32 76  2  0  0  0  0
 33 36  1  0  0  0  0
 34 47  1  0  0  0  0
 35 63  1  0  0  0  0
 36 38  1  0  0  0  0
 37 39  1  0  0  0  0
 37 42  1  0  0  0  0
 38 46  1  0  0  0  0
 39 49  1  0  0  0  0
 40 44  1  0  0  0  0
 40 48  1  0  0  0  0
 41 45  1  0  0  0  0
 41 48  1  0  0  0  0
 42 64  1  0  0  0  0
 43 49  1  0  0  0  0
 43 64  1  0  0  0  0
 44 70  1  0  0  0  0
 45 70  1  0  0  0  0
 46 67  1  0  0  0  0
 47 63  1  0  0  0  0
 48 55  1  0  0  0  0
 49 62  1  0  0  0  0
 50 59  1  0  0  0  0
 51 60  1  0  0  0  0
 52 60  1  0  0  0  0
 53 60  1  0  0  0  0
 54 71  1  0  0  0  0
 55 69  1  0  0  0  0
 56 57  1  0  0  0  0
 56 70  1  0  0  0  0
 57 78  1  0  0  0  0
 58 60  1  0  0  0  0
 58 68  1  0  0  0  0
 59 71  1  0  0  0  0
 61 62  1  0  0  0  0
M  CHG  2  70   1  71   1
M  ISO  4  32 100  57 101  69 100  78 101
M  END
> <Batch ID>
0003

> <Smiles>
CNC(C)C(=O)NC(C(=O)N1Cc2cc([101O:1][101CH2:1]CN3CCC(C[100NH:0][100C:0](=O)N4CCCC(n5nc(-c6ccc(Oc7ccc(F)cc7F)cc6)c(C(N)=O)c5N)C4)CC3)ccc2CC1C(=O)NC1CCCc2ccccc21)C(C)(C)C

> <Shape>
0.190

> <Color>
0.086

> <Negative vol penalty>
0.000

$$$$

  -OEChem-04042320203D

 97108  0     1  0  0  0  0  0999 V2000
  -24.1444  -35.9599   23.4521 C   0  0  0  0  0  0  0  0  0  0  0  0
  -24.3744  -35.1061   22.3780 C   0  0  0  0  0  0  0  0  0  0  0  0
  -23.2241   -9.8257   19.8998 C   0  0  0  0  0  0  0  0  0  0  0  0
  -23.6940   -9.9083   22.2683 C   0  0  0  0  0  0  0  0  0  0  0  0
  -27.8838  -24.4718   16.8251 C   0  0  0  0  0  0  0  0  0  0  0  0
  -25.7566  -23.4531   16.3015 C   0  0  0  0  0  0  0  0  0  0  0  0
  -25.0509  -36.0067   24.5104 C   0  0  0  0  0  0  0  0  0  0  0  0
  -25.5117  -34.2995   22.3611 C   0  0  0  0  0  0  0  0  0  0  0  0
  -24.5011  -29.5461   20.9367 C   0  0  0  0  0  0  0  0  0  0  0  0
  -30.0422  -16.8834   13.8192 C   0  0  0  0  0  0  0  0  0  0  0  0
  -28.4001  -23.2206   17.1619 C   0  0  0  0  0  0  0  0  0  0  0  0
  -26.2729  -22.2018   16.6383 C   0  0  0  0  0  0  0  0  0  0  0  0
  -29.9032  -16.0566   14.9327 C   0  0  0  0  0  0  0  0  0  0  0  0
  -22.4598   -8.6748   20.0916 C   0  0  0  0  0  0  0  0  0  0  0  0
  -22.9296   -8.7574   22.4601 C   0  0  0  0  0  0  0  0  0  0  0  0
  -24.3249  -29.3138   19.5733 C   0  0  0  0  0  0  0  0  0  0  0  0
  -19.6550   -7.9527   22.6832 C   0  0  0  0  0  0  0  0  0  0  0  0
  -18.7590   -7.9424   23.7522 C   0  0  0  0  0  0  0  0  0  0  0  0
  -29.1341  -18.7130   15.0865 C   0  0  0  0  0  0  0  0  0  0  0  0
  -26.5854  -28.4840   19.4287 C   0  0  0  0  0  0  0  0  0  0  0  0
  -19.9076   -6.0381   24.6964 C   0  0  0  0  0  0  0  0  0  0  0  0
  -23.8413  -10.4424   20.9882 C   0  0  0  0  0  0  0  0  0  0  0  0
  -26.5620  -24.5881   16.3949 C   0  0  0  0  0  0  0  0  0  0  0  0
  -24.1850  -12.9654   20.8328 C   0  0  0  0  0  0  0  0  0  0  0  0
  -26.1949  -35.1931   24.5111 C   0  0  0  0  0  0  0  0  0  0  0  0
  -25.7264  -29.2588   21.5551 C   0  0  0  0  0  0  0  0  0  0  0  0
  -26.4350  -34.3365   23.4198 C   0  0  0  0  0  0  0  0  0  0  0  0
  -28.9770  -17.8999   16.2288 C   0  0  0  0  0  0  0  0  0  0  0  0
  -26.7737  -28.7112   20.8006 C   0  0  0  0  0  0  0  0  0  0  0  0
  -29.6636  -18.2133   13.8979 C   0  0  0  0  0  0  0  0  0  0  0  0
  -27.5947  -22.0856   17.0685 C   0  0  0  0  0  0  0  0  0  0  0  0
  -29.3960  -16.5462   16.1536 C   0  0  0  0  0  0  0  0  0  0  0  0
  -22.3125   -8.1407   21.3717 C   0  0  0  0  0  0  0  0  0  0  0  0
  -25.3681  -28.7854   18.8185 C   0  0  0  0  0  0  0  0  0  0  0  0
  -20.6773   -7.0057   22.6208 C   0  0  0  0  0  0  0  0  0  0  0  0
  -18.8853   -6.9851   24.7588 C   0  0  0  0  0  0  0  0  0  0  0  0
  -20.8036   -6.0484   23.6274 C   0  0  0  0  0  0  0  0  0  0  0  0
  -24.6315  -11.6310   20.7906 C   0  0  0  0  0  0  0  0  0  0  0  0
  -25.3107  -13.7121   20.5843 C   0  0  0  0  0  0  0  0  0  0  0  0
  -26.0237  -25.8926   16.0438 C   0  0  0  0  0  0  0  0  0  0  0  0
  -22.8703  -13.4836   21.0752 C   0  0  0  0  0  0  0  0  0  0  0  0
  -27.9290  -30.9746   23.0745 C   0  0  0  0  0  0  0  0  0  0  0  0
  -29.2369  -28.0633   23.6539 C   0  0  0  0  0  0  0  0  0  0  0  0
  -29.5583  -24.7949   22.7259 C   0  0  0  0  0  0  0  0  0  0  0  0
  -29.8862  -14.3982   17.3086 C   0  0  0  0  0  0  0  0  0  0  0  0
  -27.1703  -35.3131   25.6551 C   0  0  0  0  0  0  0  0  0  0  0  0
  -25.8917  -29.4902   23.0321 C   0  0  0  0  0  0  0  0  0  0  0  0
  -28.1022  -28.3665   21.4210 C   0  0  0  0  0  0  0  0  0  0  0  0
  -28.1583  -34.1523   25.7374 C   0  0  0  0  0  0  0  0  0  0  0  0
  -30.1840  -12.4085   20.4037 C   0  0  0  0  0  0  0  0  0  0  0  0
  -28.7421  -33.8496   24.3611 C   0  0  0  0  0  0  0  0  0  0  0  0
  -28.7295  -12.0813   20.7373 C   0  0  0  0  0  0  0  0  0  0  0  0
  -27.7374  -17.3240   18.3133 C   0  0  0  0  0  0  0  0  0  0  0  0
  -29.4803  -19.1842   18.3500 C   0  0  0  0  0  0  0  0  0  0  0  0
  -30.3981  -12.5711   18.9019 C   0  0  0  0  0  0  0  0  0  0  0  0
  -28.7273  -16.1982   18.5285 C   0  0  0  0  0  0  0  0  0  0  0  0
  -29.4721  -20.6311   17.8601 C   0  0  0  0  0  0  0  0  0  0  0  0
  -28.0320  -13.2461   18.6060 C   0  0  0  0  0  0  0  0  0  0  0  0
  -27.3384  -19.6027   17.3350 C   0  0  0  0  0  0  0  0  0  0  0  0
  -27.6445  -33.4279   23.3768 C   0  0  1  0  0  0  0  0  0  0  0  0
  -27.3500  -29.6410   23.4538 C   0  0  1  0  0  0  0  0  0  0  0  0
  -27.7795  -13.1192   20.1158 C   0  0  1  0  0  0  0  0  0  0  0  0
  -28.3854  -18.4723   17.5241 C   0  0  1  0  0  0  0  0  0  0  0  0
  -31.1658  -19.8076   12.6782 C   0  0  0  0  0  0  0  0  0  0  0  0
  -30.7253  -22.6693   23.3720 C   0  0  0  0  0  0  0  0  0  0  0  0
  -31.8390  -29.1368   22.4762 C   0  0  0  0  0  0  0  0  0  0  0  0
  -32.6390  -26.7734   22.2694 C   0  0  0  0  0  0  0  0  0  0  0  0
  -32.1238  -27.7216   24.5184 C   0  0  0  0  0  0  0  0  0  0  0  0
  -26.9941  -23.3891   23.1817 C   0  0  0  0  0  0  0  0  0  0  0  0
  -29.8111  -19.1048   12.7118 C   0  0  0  0  0  0  0  0  0  0  0  0
  -23.9559  -27.2975   15.8555 C   0  0  0  0  0  0  0  0  0  0  0  0
  -23.8816  -28.2389   17.0444 C   0  0  0  0  0  0  0  0  0  1  0  0
  -30.2263  -27.1745   22.9397 C   0  0  1  0  0  0  0  0  0  0  0  0
  -29.4654  -23.5073   23.5245 C   0  0  2  0  0  0  0  0  0  0  0  0
  -31.6828  -27.7098   23.0386 C   0  0  0  0  0  0  0  0  0  0  0  0
  -25.9388  -11.5325   20.5352 N   0  0  0  0  0  0  0  0  0  0  0  0
  -26.3235  -12.8146   20.4146 N   0  0  0  0  0  0  0  0  0  0  0  0
  -29.2443  -15.6536   17.2726 N   0  0  0  0  0  0  0  0  0  0  0  0
  -28.1055  -20.8478   17.4017 N   0  0  3  0  0  0  0  0  0  0  0  0
  -28.2168  -28.6168   22.8673 N   0  0  0  0  0  0  0  0  0  0  0  0
  -29.4491  -13.5222   18.3227 N   0  0  0  0  0  0  0  0  0  0  0  0
  -25.5230  -15.0424   20.4965 N   0  0  0  0  0  0  0  0  0  0  0  0
  -21.8282  -12.5771   21.3128 N   0  0  0  0  0  0  0  0  0  0  0  0
  -24.6423  -26.0691   16.1851 N   0  0  0  0  0  0  0  0  0  0  0  0
  -27.2548  -32.0542   23.6125 N   0  0  0  0  0  0  0  0  0  0  0  0
  -30.0432  -25.8356   23.4895 N   0  0  0  0  0  0  0  0  0  0  0  0
  -28.3028  -22.6957   23.0654 N   0  3  0  0  0  0  0  0  0  0  0  0
  -26.7719  -26.7909   15.6190 O   0  0  0  0  0  0  0  0  0  0  0  0
  -22.6237  -14.7135   21.0645 O   0  0  0  0  0  0  0  0  0  0  0  0
  -28.9152  -31.0207   22.3486 O   0  0  0  0  0  0  0  0  0  0  0  0
  -29.3603  -28.2535   24.8664 O   0  0  0  0  0  0  0  0  0  0  0  0
  -29.2366  -24.8692   21.5421 O   0  0  0  0  0  0  0  0  0  0  0  0
  -30.7873  -14.0976   16.5174 O   0  0  0  0  0  0  0  0  0  0  0  0
  -21.5665   -7.0178   21.5593 O   0  0  0  0  0  0  0  0  0  0  0  0
  -25.1978  -28.5567   17.4781 O   0  0  0  0  0  0  0  0  0  1  0  0
  -18.0257   -6.9762   25.7860 F   0  0  0  0  0  0  0  0  0  0  0  0
  -21.7843   -5.1368   23.5735 F   0  0  0  0  0  0  0  0  0  0  0  0
  1  2  1  0  0  0  0
  1  7  2  0  0  0  0
  2  8  2  0  0  0  0
  3 14  2  0  0  0  0
  3 22  1  0  0  0  0
  4 15  1  0  0  0  0
  4 22  2  0  0  0  0
  5 11  2  0  0  0  0
  5 23  1  0  0  0  0
  6 12  1  0  0  0  0
  6 23  2  0  0  0  0
  7 25  1  0  0  0  0
  8 27  1  0  0  0  0
  9 16  2  0  0  0  0
  9 26  1  0  0  0  0
 10 13  2  0  0  0  0
 10 30  1  0  0  0  0
 11 31  1  0  0  0  0
 12 31  2  0  0  0  0
 13 32  1  0  0  0  0
 14 33  1  0  0  0  0
 15 33  2  0  0  0  0
 16 34  1  0  0  0  0
 17 18  2  0  0  0  0
 17 35  1  0  0  0  0
 18 36  1  0  0  0  0
 19 28  1  0  0  0  0
 19 30  2  0  0  0  0
 20 29  1  0  0  0  0
 20 34  2  0  0  0  0
 21 36  2  0  0  0  0
 21 37  1  0  0  0  0
 22 38  1  0  0  0  0
 23 40  1  0  0  0  0
 24 38  1  0  0  0  0
 24 39  2  0  0  0  0
 24 41  1  0  0  0  0
 25 27  2  0  0  0  0
 25 46  1  0  0  0  0
 26 29  2  0  0  0  0
 26 47  1  0  0  0  0
 27 60  1  0  0  0  0
 28 32  2  0  0  0  0
 28 63  1  0  0  0  0
 29 48  1  0  0  0  0
 30 70  1  0  0  0  0
 31 79  1  0  0  0  0
 32 78  1  0  0  0  0
 33 94  1  0  0  0  0
 34 95  1  0  0  0  0
 35 37  2  0  0  0  0
 35 94  1  0  0  0  0
 36 96  1  0  0  0  0
 37 97  1  0  0  0  0
 38 76  2  0  0  0  0
 39 77  1  0  0  0  0
 39 82  1  0  0  0  0
 40 84  1  0  0  0  0
 40 88  2  0  0  0  0
 41 83  1  0  0  0  0
 41 89  2  0  0  0  0
 42 61  1  0  0  0  0
 42 85  1  0  0  0  0
 42 90  2  0  0  0  0
 43 73  1  0  0  0  0
 43 80  1  0  0  0  0
 43 91  2  0  0  0  0
 44 74  1  0  0  0  0
 44 86  1  0  0  0  0
 44 92  2  0  0  0  0
 45 78  1  0  0  0  0
 45 81  1  0  0  0  0
 45 93  2  0  0  0  0
 46 49  1  0  0  0  0
 47 61  1  0  0  0  0
 48 80  1  0  0  0  0
 49 51  1  0  0  0  0
 50 52  1  0  0  0  0
 50 55  1  0  0  0  0
 51 60  1  0  0  0  0
 52 62  1  0  0  0  0
 53 56  1  0  0  0  0
 53 63  1  0  0  0  0
 54 57  1  0  0  0  0
 54 63  1  0  0  0  0
 55 81  1  0  0  0  0
 56 78  1  0  0  0  0
 57 79  1  0  0  0  0
 58 62  1  0  0  0  0
 58 81  1  0  0  0  0
 59 63  1  0  0  0  0
 59 79  1  0  0  0  0
 60 85  1  0  0  0  0
 61 80  1  0  0  0  0
 62 77  1  0  0  0  0
 64 70  1  0  0  0  0
 65 74  1  0  0  0  0
 66 75  1  0  0  0  0
 67 75  1  0  0  0  0
 68 75  1  0  0  0  0
 69 87  1  0  0  0  0
 71 72  1  0  0  0  0
 71 84  1  0  0  0  0
 72 95  1  0  0  0  0
 73 75  1  0  0  0  0
 73 86  1  0  0  0  0
 74 87  1  0  0  0  0
 76 77  1  0  0  0  0
M  CHG  1  87   1
M  ISO  4  45 100  72 101  78 100  95 101
M  END
> <Batch ID>
0003

> <Smiles>
CCc1ccc2c(c1)C1(CCN(c3ccc(C(=O)NC[101CH2:1][101O:1]c4ccc5c(c4)CN(C(=O)C(NC(=O)C(C)NC)C(C)(C)C)C(C(=O)NC4CCCc6ccccc64)C5)cc3)C1)CC[100N:0]2[100C:0](=O)N1CCCC(n2nc(-c3ccc(Oc4ccc(F)cc4F)cc3)c(C(N)=O)c2N)C1

> <Shape>
0.255

> <Color>
0.172

> <Negative vol penalty>
0.000

$$$$

  -OEChem-04042320203D

 86 95  0     1  0  0  0  0  0999 V2000
  -27.3578  -36.5023   22.5624 C   0  0  0  0  0  0  0  0  0  0  0  0
  -26.5808  -35.4848   22.0179 C   0  0  0  0  0  0  0  0  0  0  0  0
  -23.9511   -9.7317   21.1276 C   0  0  0  0  0  0  0  0  0  0  0  0
  -24.6234  -10.6198   23.2714 C   0  0  0  0  0  0  0  0  0  0  0  0
  -28.7363  -36.5127   22.3540 C   0  0  0  0  0  0  0  0  0  0  0  0
  -27.1819  -34.4776   21.2638 C   0  0  0  0  0  0  0  0  0  0  0  0
  -29.3752  -20.3721   19.0053 C   0  0  0  0  0  0  0  0  0  0  0  0
  -27.7265  -18.7470   19.6967 C   0  0  0  0  0  0  0  0  0  0  0  0
  -25.5287  -28.5864   21.0071 C   0  0  0  0  0  0  0  0  0  0  0  0
  -28.4463  -20.9450   18.1367 C   0  0  0  0  0  0  0  0  0  0  0  0
  -26.7976  -19.3199   18.8280 C   0  0  0  0  0  0  0  0  0  0  0  0
  -23.5071   -8.5651   21.7500 C   0  0  0  0  0  0  0  0  0  0  0  0
  -24.1794   -9.4532   23.8940 C   0  0  0  0  0  0  0  0  0  0  0  0
  -24.7646  -27.8657   20.0903 C   0  0  0  0  0  0  0  0  0  0  0  0
  -24.8697   -5.7350   22.9983 C   0  0  0  0  0  0  0  0  0  0  0  0
  -25.2131   -4.5172   22.4114 C   0  0  0  0  0  0  0  0  0  0  0  0
  -26.7825  -27.1598   18.9726 C   0  0  0  0  0  0  0  0  0  0  0  0
  -22.8715   -3.9852   22.1453 C   0  0  0  0  0  0  0  0  0  0  0  0
  -24.5093  -10.7591   21.8882 C   0  0  0  0  0  0  0  0  0  0  0  0
  -24.2229  -13.1318   20.9962 C   0  0  0  0  0  0  0  0  0  0  0  0
  -29.0153  -19.2731   19.7853 C   0  0  0  0  0  0  0  0  0  0  0  0
  -29.3559  -35.4998   21.6051 C   0  0  0  0  0  0  0  0  0  0  0  0
  -26.9273  -28.6081   20.9068 C   0  0  0  0  0  0  0  0  0  0  0  0
  -28.5699  -34.4752   21.0441 C   0  0  0  0  0  0  0  0  0  0  0  0
  -27.5621  -27.8795   19.8909 C   0  0  0  0  0  0  0  0  0  0  0  0
  -27.1575  -20.4189   18.0480 C   0  0  0  0  0  0  0  0  0  0  0  0
  -23.6212   -8.4259   23.1332 C   0  0  0  0  0  0  0  0  0  0  0  0
  -25.3913  -27.1546   19.0711 C   0  0  0  0  0  0  0  0  0  0  0  0
  -23.5272   -6.0780   23.1588 C   0  0  0  0  0  0  0  0  0  0  0  0
  -24.2140   -3.6423   21.9849 C   0  0  0  0  0  0  0  0  0  0  0  0
  -22.5281   -5.2030   22.7323 C   0  0  0  0  0  0  0  0  0  0  0  0
  -24.9687  -11.9642   21.2457 C   0  0  0  0  0  0  0  0  0  0  0  0
  -25.1066  -13.9764   20.3700 C   0  0  0  0  0  0  0  0  0  0  0  0
  -22.8537  -13.4266   21.3029 C   0  0  0  0  0  0  0  0  0  0  0  0
  -29.1069  -30.8717   20.4282 C   0  0  0  0  0  0  0  0  0  0  0  0
  -31.1846  -28.4428   20.9812 C   0  0  0  0  0  0  0  0  0  0  0  0
  -31.7794  -25.0823   20.9808 C   0  0  0  0  0  0  0  0  0  0  0  0
  -30.0974  -16.2930   19.9013 C   0  0  0  0  0  0  0  0  0  0  0  0
  -30.8431  -35.5793   21.3672 C   0  0  0  0  0  0  0  0  0  0  0  0
  -27.7385  -29.3687   21.9196 C   0  0  0  0  0  0  0  0  0  0  0  0
  -29.0616  -27.8540   19.7517 C   0  0  0  0  0  0  0  0  0  0  0  0
  -31.4513  -34.2702   20.8706 C   0  0  0  0  0  0  0  0  0  0  0  0
  -30.3874  -18.0994   23.0322 C   0  0  0  0  0  0  0  0  0  0  0  0
  -29.6969  -13.1361   18.4513 C   0  0  0  0  0  0  0  0  0  0  0  0
  -29.9554  -19.2539   22.1368 C   0  0  0  0  0  0  0  0  0  0  0  0
  -30.6032  -33.6791   19.7489 C   0  0  0  0  0  0  0  0  0  0  0  0
  -28.3812  -12.6247   19.0349 C   0  0  0  0  0  0  0  0  0  0  0  0
  -30.5028  -13.8855   19.5048 C   0  0  0  0  0  0  0  0  0  0  0  0
  -29.7590  -16.8924   22.3532 C   0  0  0  0  0  0  0  0  0  0  0  0
  -28.4391  -14.5472   20.7032 C   0  0  0  0  0  0  0  0  0  0  0  0
  -30.0215  -18.6515   20.7271 C   0  0  1  0  0  0  0  0  0  0  0  0
  -29.1883  -33.3515   20.2411 C   0  0  1  0  0  0  0  0  0  0  0  0
  -29.1298  -29.7387   21.4148 C   0  0  1  0  0  0  0  0  0  0  0  0
  -27.5859  -13.7733   19.6774 C   0  0  2  0  0  0  0  0  0  0  0  0
  -33.5837  -23.4011   21.4450 C   0  0  0  0  0  0  0  0  0  0  0  0
  -32.5219  -29.1499   18.3314 C   0  0  0  0  0  0  0  0  0  0  0  0
  -33.6557  -26.9184   18.3880 C   0  0  0  0  0  0  0  0  0  0  0  0
  -34.1069  -28.5905   20.1833 C   0  0  0  0  0  0  0  0  0  0  0  0
  -30.1973  -23.8058   23.1317 C   0  0  0  0  0  0  0  0  0  0  0  0
  -26.1643  -21.0331   17.1203 C   0  0  0  0  0  0  0  0  0  0  0  0
  -24.1453  -24.2841   17.2665 C   0  0  0  0  0  0  0  0  0  0  0  0
  -24.6662  -22.9819   16.6772 C   0  0  0  0  0  0  0  0  0  0  0  0
  -25.2427  -25.2837   17.6105 C   0  0  0  0  0  0  0  0  0  1  0  0
  -31.8728  -27.4085   20.1236 C   0  0  1  0  0  0  0  0  0  0  0  0
  -32.4045  -24.1699   22.0206 C   0  0  2  0  0  0  0  0  0  0  0  0
  -33.0110  -28.0187   19.2578 C   0  0  0  0  0  0  0  0  0  0  0  0
  -26.2291  -12.0552   20.8133 N   0  0  0  0  0  0  0  0  0  0  0  0
  -26.2822  -13.2900   20.2856 N   0  0  0  0  0  0  0  0  0  0  0  0
  -29.8108  -28.6184   20.7626 N   0  0  0  0  0  0  0  0  0  0  0  0
  -29.7194  -14.9612   20.1136 N   0  0  0  0  0  0  0  0  0  0  0  0
  -29.8289  -17.2066   20.9248 N   0  0  0  0  0  0  0  0  0  0  0  0
  -24.9851  -15.2319   19.8889 N   0  0  0  0  0  0  0  0  0  0  0  0
  -22.0876  -12.4464   21.9484 N   0  0  0  0  0  0  0  0  0  0  0  0
  -29.1914  -32.1236   21.0071 N   0  0  0  0  0  0  0  0  0  0  0  0
  -32.3120  -26.3532   21.0302 N   0  0  0  0  0  0  0  0  0  0  0  0
  -31.4006  -23.1872   22.5180 N   0  3  0  0  0  0  0  0  0  0  0  0
  -25.6150  -22.3260   17.6142 N   0  3  0  0  0  0  0  0  0  0  0  0
  -22.3206  -14.5205   20.9985 O   0  0  0  0  0  0  0  0  0  0  0  0
  -29.0205  -30.6281   19.2303 O   0  0  0  0  0  0  0  0  0  0  0  0
  -31.8403  -29.0668   21.8193 O   0  0  0  0  0  0  0  0  0  0  0  0
  -30.9087  -24.7043   20.2001 O   0  0  0  0  0  0  0  0  0  0  0  0
  -30.6658  -16.6456   18.8599 O   0  0  0  0  0  0  0  0  0  0  0  0
  -23.1879   -7.2877   23.7410 O   0  0  0  0  0  0  0  0  0  0  0  0
  -24.6426  -26.4459   18.1683 O   0  0  0  0  0  0  0  0  0  1  0  0
  -24.5439   -2.4735   21.4199 F   0  0  0  0  0  0  0  0  0  0  0  0
  -21.2366   -5.5275   22.8827 F   0  0  0  0  0  0  0  0  0  0  0  0
  1  2  1  0  0  0  0
  1  5  2  0  0  0  0
  2  6  2  0  0  0  0
  3 12  2  0  0  0  0
  3 19  1  0  0  0  0
  4 13  1  0  0  0  0
  4 19  2  0  0  0  0
  5 22  1  0  0  0  0
  6 24  1  0  0  0  0
  7 10  2  0  0  0  0
  7 21  1  0  0  0  0
  8 11  1  0  0  0  0
  8 21  2  0  0  0  0
  9 14  2  0  0  0  0
  9 23  1  0  0  0  0
 10 26  1  0  0  0  0
 11 26  2  0  0  0  0
 12 27  1  0  0  0  0
 13 27  2  0  0  0  0
 14 28  1  0  0  0  0
 15 16  2  0  0  0  0
 15 29  1  0  0  0  0
 16 30  1  0  0  0  0
 17 25  1  0  0  0  0
 17 28  2  0  0  0  0
 18 30  2  0  0  0  0
 18 31  1  0  0  0  0
 19 32  1  0  0  0  0
 20 32  1  0  0  0  0
 20 33  2  0  0  0  0
 20 34  1  0  0  0  0
 21 51  1  0  0  0  0
 22 24  2  0  0  0  0
 22 39  1  0  0  0  0
 23 25  2  0  0  0  0
 23 40  1  0  0  0  0
 24 52  1  0  0  0  0
 25 41  1  0  0  0  0
 26 60  1  0  0  0  0
 27 83  1  0  0  0  0
 28 84  1  0  0  0  0
 29 31  2  0  0  0  0
 29 83  1  0  0  0  0
 30 85  1  0  0  0  0
 31 86  1  0  0  0  0
 32 67  2  0  0  0  0
 33 68  1  0  0  0  0
 33 72  1  0  0  0  0
 34 73  1  0  0  0  0
 34 78  2  0  0  0  0
 35 53  1  0  0  0  0
 35 74  1  0  0  0  0
 35 79  2  0  0  0  0
 36 64  1  0  0  0  0
 36 69  1  0  0  0  0
 36 80  2  0  0  0  0
 37 65  1  0  0  0  0
 37 75  1  0  0  0  0
 37 81  2  0  0  0  0
 38 70  1  0  0  0  0
 38 71  1  0  0  0  0
 38 82  2  0  0  0  0
 39 42  1  0  0  0  0
 40 53  1  0  0  0  0
 41 69  1  0  0  0  0
 42 46  1  0  0  0  0
 43 45  1  0  0  0  0
 43 49  1  0  0  0  0
 44 47  1  0  0  0  0
 44 48  1  0  0  0  0
 45 51  1  0  0  0  0
 46 52  1  0  0  0  0
 47 54  1  0  0  0  0
 48 70  1  0  0  0  0
 49 71  1  0  0  0  0
 50 54  1  0  0  0  0
 50 70  1  0  0  0  0
 51 71  1  0  0  0  0
 52 74  1  0  0  0  0
 53 69  1  0  0  0  0
 54 68  1  0  0  0  0
 55 65  1  0  0  0  0
 56 66  1  0  0  0  0
 57 66  1  0  0  0  0
 58 66  1  0  0  0  0
 59 76  1  0  0  0  0
 60 77  1  0  0  0  0
 61 62  1  0  0  0  0
 61 63  1  0  0  0  0
 62 77  1  0  0  0  0
 63 84  1  0  0  0  0
 64 66  1  0  0  0  0
 64 75  1  0  0  0  0
 65 76  1  0  0  0  0
 67 68  1  0  0  0  0
M  CHG  2  76   1  77   1
M  ISO  4  38 100  63 101  71 100  84 101
M  END
> <Batch ID>
0003

> <Smiles>
CNC(C)C(=O)NC(C(=O)N1Cc2cc([101O:1][101CH2:1]CCNCc3ccc(C4CCC[100N:0]4[100C:0](=O)N4CCCC(n5nc(-c6ccc(Oc7ccc(F)cc7F)cc6)c(C(N)=O)c5N)C4)cc3)ccc2CC1C(=O)NC1CCCc2ccccc21)C(C)(C)C

> <Shape>
0.248

> <Color>
0.130

> <Negative vol penalty>
0.000

$$$$

  -OEChem-04042320203D

 78 85  0     1  0  0  0  0  0999 V2000
  -29.5411  -23.8943   17.7321 C   0  0  0  0  0  0  0  0  0  0  0  0
  -28.3077  -23.9941   18.3678 C   0  0  0  0  0  0  0  0  0  0  0  0
  -26.7155  -18.0282   18.4263 C   0  0  0  0  0  0  0  0  0  0  0  0
  -26.5770  -18.9320   20.6626 C   0  0  0  0  0  0  0  0  0  0  0  0
  -30.6282  -24.6294   18.2030 C   0  0  0  0  0  0  0  0  0  0  0  0
  -28.1609  -24.8283   19.4755 C   0  0  0  0  0  0  0  0  0  0  0  0
  -23.9356  -27.6118   19.2649 C   0  0  0  0  0  0  0  0  0  0  0  0
  -27.9687  -18.6191   18.2651 C   0  0  0  0  0  0  0  0  0  0  0  0
  -27.8302  -19.5228   20.5015 C   0  0  0  0  0  0  0  0  0  0  0  0
  -22.7383  -26.9774   19.5931 C   0  0  0  0  0  0  0  0  0  0  0  0
  -31.0680  -18.5608   20.6093 C   0  0  0  0  0  0  0  0  0  0  0  0
  -31.9796  -18.4398   21.6581 C   0  0  0  0  0  0  0  0  0  0  0  0
  -22.8310  -27.9552   21.7964 C   0  0  0  0  0  0  0  0  0  0  0  0
  -32.0643  -20.8457   21.8621 C   0  0  0  0  0  0  0  0  0  0  0  0
  -26.0196  -18.1847   19.6250 C   0  0  0  0  0  0  0  0  0  0  0  0
  -24.4488  -16.2894   20.2946 C   0  0  0  0  0  0  0  0  0  0  0  0
  -30.4922  -25.4804   19.3111 C   0  0  0  0  0  0  0  0  0  0  0  0
  -24.5964  -28.4152   20.2053 C   0  0  0  0  0  0  0  0  0  0  0  0
  -29.2475  -25.5745   19.9625 C   0  0  0  0  0  0  0  0  0  0  0  0
  -24.0353  -28.6007   21.4769 C   0  0  0  0  0  0  0  0  0  0  0  0
  -28.5261  -19.3663   19.3027 C   0  0  0  0  0  0  0  0  0  0  0  0
  -22.1873  -27.1467   20.8599 C   0  0  0  0  0  0  0  0  0  0  0  0
  -30.6547  -19.8243   20.1868 C   0  0  0  0  0  0  0  0  0  0  0  0
  -32.4777  -19.5822   22.2845 C   0  0  0  0  0  0  0  0  0  0  0  0
  -31.1528  -20.9667   20.8132 C   0  0  0  0  0  0  0  0  0  0  0  0
  -24.7247  -17.5751   19.7919 C   0  0  0  0  0  0  0  0  0  0  0  0
  -23.0796  -16.1902   20.2508 C   0  0  0  0  0  0  0  0  0  0  0  0
  -16.7396  -22.7260   20.8611 C   0  0  0  0  0  0  0  0  0  0  0  0
  -17.1192  -23.5479   21.8507 C   0  0  0  0  0  0  0  0  0  0  0  0
  -25.3497  -15.2756   20.7596 C   0  0  0  0  0  0  0  0  0  0  0  0
  -27.4294  -28.3171   21.6434 C   0  0  0  0  0  0  0  0  0  0  0  0
  -26.5056  -31.2026   22.8021 C   0  0  0  0  0  0  0  0  0  0  0  0
  -23.9525  -33.3263   23.5887 C   0  0  0  0  0  0  0  0  0  0  0  0
  -18.8313  -20.2860   20.4282 C   0  0  0  0  0  0  0  0  0  0  0  0
  -31.7078  -26.2191   19.8127 C   0  0  0  0  0  0  0  0  0  0  0  0
  -25.8734  -29.1141   19.8269 C   0  0  0  0  0  0  0  0  0  0  0  0
  -24.6948  -29.4692   22.5157 C   0  0  0  0  0  0  0  0  0  0  0  0
  -31.3744  -27.3662   20.7630 C   0  0  0  0  0  0  0  0  0  0  0  0
  -19.2832  -17.8098   17.8278 C   0  0  0  0  0  0  0  0  0  0  0  0
  -30.3601  -26.9151   21.8092 C   0  0  0  0  0  0  0  0  0  0  0  0
  -20.7171  -17.3478   18.0936 C   0  0  0  0  0  0  0  0  0  0  0  0
  -19.1307  -19.3081   18.0730 C   0  0  0  0  0  0  0  0  0  0  0  0
  -20.9828  -19.2953   19.6988 C   0  0  0  0  0  0  0  0  0  0  0  0
  -29.0424  -26.4875   21.1518 C   0  0  1  0  0  0  0  0  0  0  0  0
  -26.7256  -29.4961   21.0332 C   0  0  1  0  0  0  0  0  0  0  0  0
  -21.1968  -17.7850   19.4904 C   0  0  2  0  0  0  0  0  0  0  0  0
  -23.5077  -35.5995   24.5540 C   0  0  0  0  0  0  0  0  0  0  0  0
  -27.0912  -30.1277   25.5970 C   0  0  0  0  0  0  0  0  0  0  0  0
  -25.7621  -32.0322   26.5322 C   0  0  0  0  0  0  0  0  0  0  0  0
  -27.8286  -32.4859   25.2106 C   0  0  0  0  0  0  0  0  0  0  0  0
  -22.6473  -34.2552   21.1002 C   0  0  0  0  0  0  0  0  0  0  0  0
  -16.6195  -21.2452   21.0152 C   0  0  0  0  0  0  0  0  0  0  0  0
  -17.2262  -25.0304   21.7027 C   0  0  0  0  0  0  0  0  0  0  0  0
  -20.1797  -27.1814   22.1344 C   0  0  0  0  0  0  0  0  0  1  0  0
  -18.7339  -26.8274   21.8448 C   0  0  0  0  0  0  0  0  0  0  0  0
  -25.7506  -31.6729   24.0218 C   0  0  1  0  0  0  0  0  0  0  0  0
  -23.7352  -34.7971   23.2823 C   0  0  2  0  0  0  0  0  0  0  0  0
  -26.5964  -31.5617   25.3217 C   0  0  0  0  0  0  0  0  0  0  0  0
  -23.6196  -18.2445   19.4535 N   0  0  0  0  0  0  0  0  0  0  0  0
  -22.6359  -17.3761   19.7440 N   0  0  0  0  0  0  0  0  0  0  0  0
  -25.9450  -30.1263   22.0999 N   0  0  0  0  0  0  0  0  0  0  0  0
  -19.5874  -19.6552   19.4262 N   0  0  0  0  0  0  0  0  0  0  0  0
  -22.2240  -15.2050   20.5967 N   0  0  0  0  0  0  0  0  0  0  0  0
  -26.7254  -15.5424   20.7362 N   0  0  0  0  0  0  0  0  0  0  0  0
  -28.2673  -27.6488   20.7711 N   0  0  0  0  0  0  0  0  0  0  0  0
  -25.2914  -33.0247   23.7216 N   0  0  0  0  0  0  0  0  0  0  0  0
  -17.5214  -20.5998   20.0873 N   0  0  0  0  0  0  0  0  0  0  0  0
  -22.5487  -34.9722   22.3976 N   0  3  0  0  0  0  0  0  0  0  0  0
  -24.9476  -14.1598   21.1680 O   0  0  0  0  0  0  0  0  0  0  0  0
  -27.2284  -28.0354   22.8189 O   0  0  0  0  0  0  0  0  0  0  0  0
  -27.5503  -31.7739   22.4800 O   0  0  0  0  0  0  0  0  0  0  0  0
  -23.0270  -32.5258   23.7026 O   0  0  0  0  0  0  0  0  0  0  0  0
  -19.2884  -20.5457   21.5466 O   0  0  0  0  0  0  0  0  0  0  0  0
  -29.7490  -19.9428   19.1459 O   0  0  0  0  0  0  0  0  0  0  0  0
  -21.0190  -26.5282   21.1830 O   0  0  0  0  0  0  0  0  0  1  0  0
  -18.5660  -25.4205   21.9698 O   0  0  0  0  0  0  0  0  0  0  0  0
  -33.3518  -19.4658   23.2927 F   0  0  0  0  0  0  0  0  0  0  0  0
  -30.7585  -22.1832   20.4125 F   0  0  0  0  0  0  0  0  0  0  0  0
  1  2  1  0  0  0  0
  1  5  2  0  0  0  0
  2  6  2  0  0  0  0
  3  8  2  0  0  0  0
  3 15  1  0  0  0  0
  4  9  1  0  0  0  0
  4 15  2  0  0  0  0
  5 17  1  0  0  0  0
  6 19  1  0  0  0  0
  7 10  2  0  0  0  0
  7 18  1  0  0  0  0
  8 21  1  0  0  0  0
  9 21  2  0  0  0  0
 10 22  1  0  0  0  0
 11 12  2  0  0  0  0
 11 23  1  0  0  0  0
 12 24  1  0  0  0  0
 13 20  1  0  0  0  0
 13 22  2  0  0  0  0
 14 24  2  0  0  0  0
 14 25  1  0  0  0  0
 15 26  1  0  0  0  0
 16 26  1  0  0  0  0
 16 27  2  0  0  0  0
 16 30  1  0  0  0  0
 17 19  2  0  0  0  0
 17 35  1  0  0  0  0
 18 20  2  0  0  0  0
 18 36  1  0  0  0  0
 19 44  1  0  0  0  0
 20 37  1  0  0  0  0
 21 74  1  0  0  0  0
 22 75  1  0  0  0  0
 23 25  2  0  0  0  0
 23 74  1  0  0  0  0
 24 77  1  0  0  0  0
 25 78  1  0  0  0  0
 26 59  2  0  0  0  0
 27 60  1  0  0  0  0
 27 63  1  0  0  0  0
 28 29  2  0  0  0  0
 28 52  1  0  0  0  0
 29 53  1  0  0  0  0
 30 64  1  0  0  0  0
 30 69  2  0  0  0  0
 31 45  1  0  0  0  0
 31 65  1  0  0  0  0
 31 70  2  0  0  0  0
 32 56  1  0  0  0  0
 32 61  1  0  0  0  0
 32 71  2  0  0  0  0
 33 57  1  0  0  0  0
 33 66  1  0  0  0  0
 33 72  2  0  0  0  0
 34 62  1  0  0  0  0
 34 67  1  0  0  0  0
 34 73  2  0  0  0  0
 35 38  1  0  0  0  0
 36 45  1  0  0  0  0
 37 61  1  0  0  0  0
 38 40  1  0  0  0  0
 39 41  1  0  0  0  0
 39 42  1  0  0  0  0
 40 44  1  0  0  0  0
 41 46  1  0  0  0  0
 42 62  1  0  0  0  0
 43 46  1  0  0  0  0
 43 62  1  0  0  0  0
 44 65  1  0  0  0  0
 45 61  1  0  0  0  0
 46 60  1  0  0  0  0
 47 57  1  0  0  0  0
 48 58  1  0  0  0  0
 49 58  1  0  0  0  0
 50 58  1  0  0  0  0
 51 68  1  0  0  0  0
 52 67  1  0  0  0  0
 53 76  1  0  0  0  0
 54 55  1  0  0  0  0
 54 75  1  0  0  0  0
 55 76  1  0  0  0  0
 56 58  1  0  0  0  0
 56 66  1  0  0  0  0
 57 68  1  0  0  0  0
 59 60  1  0  0  0  0
M  CHG  1  68   1
M  ISO  4  34 100  54 101  67 100  75 101
M  END
> <Batch ID>
0003

> <Smiles>
CNC(C)C(=O)NC(C(=O)N1Cc2cc([101O:1][101CH2:1]COCC=CC[100NH:0][100C:0](=O)N3CCCC(n4nc(-c5ccc(Oc6ccc(F)cc6F)cc5)c(C(N)=O)c4N)C3)ccc2CC1C(=O)NC1CCCc2ccccc21)C(C)(C)C

> <Shape>
0.250

> <Color>
0.070

> <Negative vol penalty>
0.000

$$$$

  -OEChem-04042320203D

 86 95  0     1  0  0  0  0  0999 V2000
  -21.7306  -18.5386   22.3572 C   0  0  0  0  0  0  0  0  0  0  0  0
  -22.8146  -19.4101   22.3288 C   0  0  0  0  0  0  0  0  0  0  0  0
  -23.0716   -9.7932   19.9544 C   0  0  0  0  0  0  0  0  0  0  0  0
  -23.7543   -9.8913   22.2699 C   0  0  0  0  0  0  0  0  0  0  0  0
  -20.4978  -18.9445   21.8481 C   0  0  0  0  0  0  0  0  0  0  0  0
  -22.6667  -20.6877   21.7901 C   0  0  0  0  0  0  0  0  0  0  0  0
  -31.2611  -19.0540   20.5110 C   0  0  0  0  0  0  0  0  0  0  0  0
  -24.8047  -24.2675   24.6640 C   0  0  0  0  0  0  0  0  0  0  0  0
  -31.0771  -17.6728   20.5738 C   0  0  0  0  0  0  0  0  0  0  0  0
  -22.3273   -8.6444   20.2225 C   0  0  0  0  0  0  0  0  0  0  0  0
  -23.0100   -8.7425   22.5380 C   0  0  0  0  0  0  0  0  0  0  0  0
  -26.1901  -24.4031   24.5864 C   0  0  0  0  0  0  0  0  0  0  0  0
  -23.3411   -5.4045   22.1152 C   0  0  0  0  0  0  0  0  0  0  0  0
  -23.9390   -4.4114   22.8910 C   0  0  0  0  0  0  0  0  0  0  0  0
  -25.9168  -26.2821   23.0985 C   0  0  0  0  0  0  0  0  0  0  0  0
  -29.5788  -19.3557   22.2187 C   0  0  0  0  0  0  0  0  0  0  0  0
  -22.1804   -4.6350   24.5325 C   0  0  0  0  0  0  0  0  0  0  0  0
  -23.7851  -10.4167   20.9781 C   0  0  0  0  0  0  0  0  0  0  0  0
  -24.1142  -12.9382   20.7751 C   0  0  0  0  0  0  0  0  0  0  0  0
  -30.5120  -19.8955   21.3335 C   0  0  0  0  0  0  0  0  0  0  0  0
  -20.3321  -20.2311   21.3117 C   0  0  0  0  0  0  0  0  0  0  0  0
  -23.9637  -25.1328   23.9496 C   0  0  0  0  0  0  0  0  0  0  0  0
  -21.4308  -21.1107   21.2720 C   0  0  0  0  0  0  0  0  0  0  0  0
  -24.5210  -26.1570   23.1707 C   0  0  0  0  0  0  0  0  0  0  0  0
  -30.1440  -17.1330   21.4590 C   0  0  0  0  0  0  0  0  0  0  0  0
  -22.2965   -8.1191   21.5143 C   0  0  0  0  0  0  0  0  0  0  0  0
  -26.7464  -25.4087   23.8012 C   0  0  0  0  0  0  0  0  0  0  0  0
  -22.1629   -6.0129   22.5481 C   0  0  0  0  0  0  0  0  0  0  0  0
  -23.3586   -4.0266   24.0997 C   0  0  0  0  0  0  0  0  0  0  0  0
  -21.5826   -5.6282   23.7567 C   0  0  0  0  0  0  0  0  0  0  0  0
  -29.3948  -17.9745   22.2815 C   0  0  0  0  0  0  0  0  0  0  0  0
  -24.5546  -11.6031   20.7016 C   0  0  0  0  0  0  0  0  0  0  0  0
  -25.2130  -13.6821   20.4205 C   0  0  0  0  0  0  0  0  0  0  0  0
  -22.8271  -13.4593   21.1321 C   0  0  0  0  0  0  0  0  0  0  0  0
  -21.8072  -24.7677   21.6430 C   0  0  0  0  0  0  0  0  0  0  0  0
  -21.2795  -27.9243   22.1718 C   0  0  0  0  0  0  0  0  0  0  0  0
  -22.4722  -30.9086   23.3202 C   0  0  0  0  0  0  0  0  0  0  0  0
  -30.6633  -14.7760   20.7371 C   0  0  0  0  0  0  0  0  0  0  0  0
  -18.9926  -20.6082   20.7300 C   0  0  0  0  0  0  0  0  0  0  0  0
  -22.4708  -24.9901   24.0650 C   0  0  0  0  0  0  0  0  0  0  0  0
  -23.6614  -27.1246   22.4004 C   0  0  0  0  0  0  0  0  0  0  0  0
  -18.8217  -22.1102   20.5179 C   0  0  0  0  0  0  0  0  0  0  0  0
  -29.6445  -12.2673   18.4251 C   0  0  0  0  0  0  0  0  0  0  0  0
  -20.0573  -22.6982   19.8439 C   0  0  0  0  0  0  0  0  0  0  0  0
  -28.1933  -11.9807   18.8173 C   0  0  0  0  0  0  0  0  0  0  0  0
  -29.4040  -22.0673   20.8407 C   0  0  0  0  0  0  0  0  0  0  0  0
  -31.1872  -21.9114   22.6247 C   0  0  0  0  0  0  0  0  0  0  0  0
  -30.5174  -12.5477   19.6470 C   0  0  0  0  0  0  0  0  0  0  0  0
  -28.5607  -13.3081   20.9362 C   0  0  0  0  0  0  0  0  0  0  0  0
  -29.5491  -23.5837   20.8419 C   0  0  0  0  0  0  0  0  0  0  0  0
  -31.3188  -23.4290   22.6120 C   0  0  0  0  0  0  0  0  0  0  0  0
  -30.7095  -21.3756   21.2655 C   0  0  0  0  0  0  0  0  0  0  0  0
  -21.3033  -22.5134   20.7184 C   0  0  1  0  0  0  0  0  0  0  0  0
  -21.7190  -25.6042   22.8881 C   0  0  1  0  0  0  0  0  0  0  0  0
  -27.6289  -13.0836   19.7341 C   0  0  2  0  0  0  0  0  0  0  0  0
  -21.8235  -33.3181   23.5866 C   0  0  0  0  0  0  0  0  0  0  0  0
  -21.7167  -28.3697   19.1851 C   0  0  0  0  0  0  0  0  0  0  0  0
  -22.0025  -30.8108   19.6618 C   0  0  0  0  0  0  0  0  0  0  0  0
  -19.8343  -29.6878   20.1719 C   0  0  0  0  0  0  0  0  0  0  0  0
  -22.7627  -30.7819   26.2627 C   0  0  0  0  0  0  0  0  0  0  0  0
  -30.0376  -25.5449   22.3013 C   0  0  0  0  0  0  0  0  0  0  0  0
  -28.6298  -26.0681   22.5075 C   0  0  0  0  0  0  0  0  0  1  0  0
  -21.8489  -29.2101   21.6228 C   0  0  1  0  0  0  0  0  0  0  0  0
  -21.8641  -31.9477   24.2448 C   0  0  2  0  0  0  0  0  0  0  0  0
  -21.3671  -29.5003   20.1732 C   0  0  0  0  0  0  0  0  0  0  0  0
  -25.8333  -11.5016   20.3294 N   0  0  0  0  0  0  0  0  0  0  0  0
  -26.2059  -12.7825   20.1657 N   0  0  0  0  0  0  0  0  0  0  0  0
  -22.2075  -26.9401   22.5405 N   0  0  0  0  0  0  0  0  0  0  0  0
  -29.9227  -13.6060   20.4662 N   0  0  0  0  0  0  0  0  0  0  0  0
  -25.4170  -15.0116   20.3047 N   0  0  0  0  0  0  0  0  0  0  0  0
  -21.8105  -12.5555   21.4694 N   0  0  0  0  0  0  0  0  0  0  0  0
  -29.9829  -15.7258   21.4984 N   0  0  0  0  0  0  0  0  0  0  0  0
  -21.3163  -23.4846   21.7913 N   0  0  0  0  0  0  0  0  0  0  0  0
  -21.5077  -30.2517   22.5856 N   0  0  0  0  0  0  0  0  0  0  0  0
  -30.0012  -24.0636   22.2082 N   0  3  0  0  0  0  0  0  0  0  0  0
  -22.6599  -32.0529   25.5004 N   0  3  0  0  0  0  0  0  0  0  0  0
  -22.5810  -14.6893   21.1355 O   0  0  0  0  0  0  0  0  0  0  0  0
  -22.2839  -25.2512   20.6229 O   0  0  0  0  0  0  0  0  0  0  0  0
  -20.0567  -27.8006   22.2766 O   0  0  0  0  0  0  0  0  0  0  0  0
  -23.6820  -30.7029   23.2534 O   0  0  0  0  0  0  0  0  0  0  0  0
  -31.8063  -14.9360   20.3011 O   0  0  0  0  0  0  0  0  0  0  0  0
  -21.5702   -6.9982   21.7763 O   0  0  0  0  0  0  0  0  0  0  0  0
  -28.0983  -25.5428   23.7232 O   0  0  0  0  0  0  0  0  0  1  0  0
  -23.9320   -3.0718   24.8438 F   0  0  0  0  0  0  0  0  0  0  0  0
  -20.4501   -6.2083   24.1772 F   0  0  0  0  0  0  0  0  0  0  0  0
  -28.2285  -17.3480   23.3916 Cl  0  0  0  0  0  0  0  0  0  0  0  0
  1  2  1  0  0  0  0
  1  5  2  0  0  0  0
  2  6  2  0  0  0  0
  3 10  2  0  0  0  0
  3 18  1  0  0  0  0
  4 11  1  0  0  0  0
  4 18  2  0  0  0  0
  5 21  1  0  0  0  0
  6 23  1  0  0  0  0
  7  9  2  0  0  0  0
  7 20  1  0  0  0  0
  8 12  2  0  0  0  0
  8 22  1  0  0  0  0
  9 25  1  0  0  0  0
 10 26  1  0  0  0  0
 11 26  2  0  0  0  0
 12 27  1  0  0  0  0
 13 14  2  0  0  0  0
 13 28  1  0  0  0  0
 14 29  1  0  0  0  0
 15 24  1  0  0  0  0
 15 27  2  0  0  0  0
 16 20  2  0  0  0  0
 16 31  1  0  0  0  0
 17 29  2  0  0  0  0
 17 30  1  0  0  0  0
 18 32  1  0  0  0  0
 19 32  1  0  0  0  0
 19 33  2  0  0  0  0
 19 34  1  0  0  0  0
 20 52  1  0  0  0  0
 21 23  2  0  0  0  0
 21 39  1  0  0  0  0
 22 24  2  0  0  0  0
 22 40  1  0  0  0  0
 23 53  1  0  0  0  0
 24 41  1  0  0  0  0
 25 31  2  0  0  0  0
 25 72  1  0  0  0  0
 26 82  1  0  0  0  0
 27 83  1  0  0  0  0
 28 30  2  0  0  0  0
 28 82  1  0  0  0  0
 29 84  1  0  0  0  0
 30 85  1  0  0  0  0
 31 86  1  0  0  0  0
 32 66  2  0  0  0  0
 33 67  1  0  0  0  0
 33 70  1  0  0  0  0
 34 71  1  0  0  0  0
 34 77  2  0  0  0  0
 35 54  1  0  0  0  0
 35 73  1  0  0  0  0
 35 78  2  0  0  0  0
 36 63  1  0  0  0  0
 36 68  1  0  0  0  0
 36 79  2  0  0  0  0
 37 64  1  0  0  0  0
 37 74  1  0  0  0  0
 37 80  2  0  0  0  0
 38 69  1  0  0  0  0
 38 72  1  0  0  0  0
 38 81  2  0  0  0  0
 39 42  1  0  0  0  0
 40 54  1  0  0  0  0
 41 68  1  0  0  0  0
 42 44  1  0  0  0  0
 43 45  1  0  0  0  0
 43 48  1  0  0  0  0
 44 53  1  0  0  0  0
 45 55  1  0  0  0  0
 46 50  1  0  0  0  0
 46 52  1  0  0  0  0
 47 51  1  0  0  0  0
 47 52  1  0  0  0  0
 48 69  1  0  0  0  0
 49 55  1  0  0  0  0
 49 69  1  0  0  0  0
 50 75  1  0  0  0  0
 51 75  1  0  0  0  0
 53 73  1  0  0  0  0
 54 68  1  0  0  0  0
 55 67  1  0  0  0  0
 56 64  1  0  0  0  0
 57 65  1  0  0  0  0
 58 65  1  0  0  0  0
 59 65  1  0  0  0  0
 60 76  1  0  0  0  0
 61 62  1  0  0  0  0
 61 75  1  0  0  0  0
 62 83  1  0  0  0  0
 63 65  1  0  0  0  0
 63 74  1  0  0  0  0
 64 76  1  0  0  0  0
 66 67  1  0  0  0  0
M  CHG  2  75   1  76   1
M  ISO  4  38 100  62 101  72 100  83 101
M  END
> <Batch ID>
0003

> <Smiles>
CNC(C)C(=O)NC(C(=O)N1Cc2cc([101O:1][101CH2:1]CN3CCC(c4ccc([100NH:0][100C:0](=O)N5CCCC(n6nc(-c7ccc(Oc8ccc(F)cc8F)cc7)c(C(N)=O)c6N)C5)c(Cl)c4)CC3)ccc2CC1C(=O)NC1CCCc2ccccc21)C(C)(C)C

> <Shape>
0.260

> <Color>
0.205

> <Negative vol penalty>
0.000

$$$$

  -OEChem-04042320203D

 86 95  0     1  0  0  0  0  0999 V2000
  -26.8889  -34.7274   24.4799 C   0  0  0  0  0  0  0  0  0  0  0  0
  -27.2780  -33.4630   24.0494 C   0  0  0  0  0  0  0  0  0  0  0  0
  -24.4788  -14.7518   21.7725 C   0  0  0  0  0  0  0  0  0  0  0  0
  -26.2167  -15.0246   20.1165 C   0  0  0  0  0  0  0  0  0  0  0  0
  -26.5457  -24.3669   14.7662 C   0  0  0  0  0  0  0  0  0  0  0  0
  -27.0784  -22.7488   16.4794 C   0  0  0  0  0  0  0  0  0  0  0  0
  -25.5888  -34.9372   24.9377 C   0  0  0  0  0  0  0  0  0  0  0  0
  -26.3674  -32.4073   24.0775 C   0  0  0  0  0  0  0  0  0  0  0  0
  -25.5009  -23.5553   14.3244 C   0  0  0  0  0  0  0  0  0  0  0  0
  -26.0335  -21.9371   16.0377 C   0  0  0  0  0  0  0  0  0  0  0  0
  -26.4627  -29.6459   19.8337 C   0  0  0  0  0  0  0  0  0  0  0  0
  -24.6574  -13.3690   21.7321 C   0  0  0  0  0  0  0  0  0  0  0  0
  -26.3953  -13.6419   20.0761 C   0  0  0  0  0  0  0  0  0  0  0  0
  -27.5064  -28.7324   19.6917 C   0  0  0  0  0  0  0  0  0  0  0  0
  -23.7672  -10.8006   19.7232 C   0  0  0  0  0  0  0  0  0  0  0  0
  -22.6252  -10.0018   19.6666 C   0  0  0  0  0  0  0  0  0  0  0  0
  -26.0321  -26.9507   20.3783 C   0  0  0  0  0  0  0  0  0  0  0  0
  -23.2633   -8.9426   21.7422 C   0  0  0  0  0  0  0  0  0  0  0  0
  -25.2584  -15.5796   20.9646 C   0  0  0  0  0  0  0  0  0  0  0  0
  -27.3345  -23.9636   15.8436 C   0  0  0  0  0  0  0  0  0  0  0  0
  -25.7312  -17.9263   21.8462 C   0  0  0  0  0  0  0  0  0  0  0  0
  -25.2447  -22.3404   14.9602 C   0  0  0  0  0  0  0  0  0  0  0  0
  -24.6590  -33.8858   24.9624 C   0  0  0  0  0  0  0  0  0  0  0  0
  -25.1967  -29.2196   20.2602 C   0  0  0  0  0  0  0  0  0  0  0  0
  -25.0540  -32.6030   24.5374 C   0  0  0  0  0  0  0  0  0  0  0  0
  -24.9735  -27.8604   20.5224 C   0  0  0  0  0  0  0  0  0  0  0  0
  -25.6156  -12.8140   20.8839 C   0  0  0  0  0  0  0  0  0  0  0  0
  -27.2919  -27.3851   19.9668 C   0  0  0  0  0  0  0  0  0  0  0  0
  -24.6574  -10.6704   20.7892 C   0  0  0  0  0  0  0  0  0  0  0  0
  -22.3732   -9.0728   20.6761 C   0  0  0  0  0  0  0  0  0  0  0  0
  -24.4054   -9.7414   21.7987 C   0  0  0  0  0  0  0  0  0  0  0  0
  -25.0740  -17.0080   21.0055 C   0  0  0  0  0  0  0  0  0  0  0  0
  -25.2077  -19.1471   21.4968 C   0  0  0  0  0  0  0  0  0  0  0  0
  -28.4240  -24.8093   16.3054 C   0  0  0  0  0  0  0  0  0  0  0  0
  -26.7259  -17.6963   22.8528 C   0  0  0  0  0  0  0  0  0  0  0  0
  -23.3465  -29.8449   22.7681 C   0  0  0  0  0  0  0  0  0  0  0  0
  -21.2040  -28.0254   21.1489 C   0  0  0  0  0  0  0  0  0  0  0  0
  -20.6418  -25.5900   18.8253 C   0  0  0  0  0  0  0  0  0  0  0  0
  -22.7229  -21.2558   16.5506 C   0  0  0  0  0  0  0  0  0  0  0  0
  -23.2788  -34.1500   25.5101 C   0  0  0  0  0  0  0  0  0  0  0  0
  -24.0743  -30.2134   20.3826 C   0  0  0  0  0  0  0  0  0  0  0  0
  -23.6274  -27.3486   20.9637 C   0  0  0  0  0  0  0  0  0  0  0  0
  -22.2650  -33.0650   25.1561 C   0  0  0  0  0  0  0  0  0  0  0  0
  -23.6209  -19.2637   13.6567 C   0  0  0  0  0  0  0  0  0  0  0  0
  -21.2676  -21.1816   19.7295 C   0  0  0  0  0  0  0  0  0  0  0  0
  -24.5656  -20.4378   13.4330 C   0  0  0  0  0  0  0  0  0  0  0  0
  -22.8545  -31.6809   25.4080 C   0  0  0  0  0  0  0  0  0  0  0  0
  -22.1207  -20.1790   20.5041 C   0  0  0  0  0  0  0  0  0  0  0  0
  -21.0535  -20.7173   18.2943 C   0  0  0  0  0  0  0  0  0  0  0  0
  -23.4562  -19.2465   15.1685 C   0  0  0  0  0  0  0  0  0  0  0  0
  -23.2024  -19.4865   18.3057 C   0  0  0  0  0  0  0  0  0  0  0  0
  -24.1114  -21.4616   14.4817 C   0  0  1  0  0  0  0  0  0  0  0  0
  -24.0878  -31.4383   24.5294 C   0  0  1  0  0  0  0  0  0  0  0  0
  -22.9632  -29.7476   21.3185 C   0  0  1  0  0  0  0  0  0  0  0  0
  -23.4441  -19.9063   19.7702 C   0  0  2  0  0  0  0  0  0  0  0  0
  -18.7882  -24.2890   17.7442 C   0  0  0  0  0  0  0  0  0  0  0  0
  -20.9248  -26.3316   23.6715 C   0  0  0  0  0  0  0  0  0  0  0  0
  -19.8427  -24.5568   22.2760 C   0  0  0  0  0  0  0  0  0  0  0  0
  -18.7731  -26.8005   22.4863 C   0  0  0  0  0  0  0  0  0  0  0  0
  -21.3292  -26.6210   16.1377 C   0  0  0  0  0  0  0  0  0  0  0  0
  -29.8356  -25.4827   18.2645 C   0  0  0  0  0  0  0  0  0  0  0  0
  -29.2993  -26.7792   18.8446 C   0  0  0  0  0  0  0  0  0  1  0  0
  -20.8727  -26.5534   21.0997 C   0  0  1  0  0  0  0  0  0  0  0  0
  -19.6789  -25.5183   17.6540 C   0  0  2  0  0  0  0  0  0  0  0  0
  -20.1293  -26.0702   22.3769 C   0  0  0  0  0  0  0  0  0  0  0  0
  -24.1997  -17.5953   20.1840 N   0  0  0  0  0  0  0  0  0  0  0  0
  -24.3038  -18.8957   20.5069 N   0  0  0  0  0  0  0  0  0  0  0  0
  -22.5635  -28.3601   21.0747 N   0  0  0  0  0  0  0  0  0  0  0  0
  -22.3256  -20.4476   17.6232 N   0  0  0  0  0  0  0  0  0  0  0  0
  -23.4965  -20.6593   15.5506 N   0  0  0  0  0  0  0  0  0  0  0  0
  -25.4370  -20.4005   21.9429 N   0  0  0  0  0  0  0  0  0  0  0  0
  -27.1513  -16.3810   23.0836 N   0  0  0  0  0  0  0  0  0  0  0  0
  -28.7902  -24.6953   17.6515 N   0  0  0  0  0  0  0  0  0  0  0  0
  -23.6888  -31.1203   23.1751 N   0  0  0  0  0  0  0  0  0  0  0  0
  -20.1310  -26.3432   19.8611 N   0  0  0  0  0  0  0  0  0  0  0  0
  -20.4304  -25.4609   16.3683 N   0  3  0  0  0  0  0  0  0  0  0  0
  -28.9777  -25.6063   15.5274 O   0  0  0  0  0  0  0  0  0  0  0  0
  -27.2108  -18.6277   23.5390 O   0  0  0  0  0  0  0  0  0  0  0  0
  -23.3313  -28.8377   23.4660 O   0  0  0  0  0  0  0  0  0  0  0  0
  -20.2898  -28.8483   21.2424 O   0  0  0  0  0  0  0  0  0  0  0  0
  -21.7361  -25.0304   18.8232 O   0  0  0  0  0  0  0  0  0  0  0  0
  -22.3862  -22.4446   16.4774 O   0  0  0  0  0  0  0  0  0  0  0  0
  -25.7903  -11.4648   20.8444 O   0  0  0  0  0  0  0  0  0  0  0  0
  -28.3162  -26.4851   19.8288 O   0  0  0  0  0  0  0  0  0  1  0  0
  -21.2757   -8.3069   20.6225 F   0  0  0  0  0  0  0  0  0  0  0  0
  -25.2562   -9.6126   22.8260 F   0  0  0  0  0  0  0  0  0  0  0  0
  1  2  1  0  0  0  0
  1  7  2  0  0  0  0
  2  8  2  0  0  0  0
  3 12  2  0  0  0  0
  3 19  1  0  0  0  0
  4 13  1  0  0  0  0
  4 19  2  0  0  0  0
  5  9  2  0  0  0  0
  5 20  1  0  0  0  0
  6 10  1  0  0  0  0
  6 20  2  0  0  0  0
  7 23  1  0  0  0  0
  8 25  1  0  0  0  0
  9 22  1  0  0  0  0
 10 22  2  0  0  0  0
 11 14  2  0  0  0  0
 11 24  1  0  0  0  0
 12 27  1  0  0  0  0
 13 27  2  0  0  0  0
 14 28  1  0  0  0  0
 15 16  2  0  0  0  0
 15 29  1  0  0  0  0
 16 30  1  0  0  0  0
 17 26  1  0  0  0  0
 17 28  2  0  0  0  0
 18 30  2  0  0  0  0
 18 31  1  0  0  0  0
 19 32  1  0  0  0  0
 20 34  1  0  0  0  0
 21 32  1  0  0  0  0
 21 33  2  0  0  0  0
 21 35  1  0  0  0  0
 22 52  1  0  0  0  0
 23 25  2  0  0  0  0
 23 40  1  0  0  0  0
 24 26  2  0  0  0  0
 24 41  1  0  0  0  0
 25 53  1  0  0  0  0
 26 42  1  0  0  0  0
 27 83  1  0  0  0  0
 28 84  1  0  0  0  0
 29 31  2  0  0  0  0
 29 83  1  0  0  0  0
 30 85  1  0  0  0  0
 31 86  1  0  0  0  0
 32 66  2  0  0  0  0
 33 67  1  0  0  0  0
 33 71  1  0  0  0  0
 34 73  1  0  0  0  0
 34 77  2  0  0  0  0
 35 72  1  0  0  0  0
 35 78  2  0  0  0  0
 36 54  1  0  0  0  0
 36 74  1  0  0  0  0
 36 79  2  0  0  0  0
 37 63  1  0  0  0  0
 37 68  1  0  0  0  0
 37 80  2  0  0  0  0
 38 64  1  0  0  0  0
 38 75  1  0  0  0  0
 38 81  2  0  0  0  0
 39 69  1  0  0  0  0
 39 70  1  0  0  0  0
 39 82  2  0  0  0  0
 40 43  1  0  0  0  0
 41 54  1  0  0  0  0
 42 68  1  0  0  0  0
 43 47  1  0  0  0  0
 44 46  1  0  0  0  0
 44 50  1  0  0  0  0
 45 48  1  0  0  0  0
 45 49  1  0  0  0  0
 46 52  1  0  0  0  0
 47 53  1  0  0  0  0
 48 55  1  0  0  0  0
 49 69  1  0  0  0  0
 50 70  1  0  0  0  0
 51 55  1  0  0  0  0
 51 69  1  0  0  0  0
 52 70  1  0  0  0  0
 53 74  1  0  0  0  0
 54 68  1  0  0  0  0
 55 67  1  0  0  0  0
 56 64  1  0  0  0  0
 57 65  1  0  0  0  0
 58 65  1  0  0  0  0
 59 65  1  0  0  0  0
 60 76  1  0  0  0  0
 61 62  1  0  0  0  0
 61 73  1  0  0  0  0
 62 84  1  0  0  0  0
 63 65  1  0  0  0  0
 63 75  1  0  0  0  0
 64 76  1  0  0  0  0
 66 67  1  0  0  0  0
M  CHG  1  76   1
M  ISO  4  39 100  62 101  70 100  84 101
M  END
> <Batch ID>
0003

> <Smiles>
CNC(C)C(=O)NC(C(=O)N1Cc2cc([101O:1][101CH2:1]CNC(=O)c3ccc(C4CCC[100N:0]4[100C:0](=O)N4CCCC(n5nc(-c6ccc(Oc7ccc(F)cc7F)cc6)c(C(N)=O)c5N)C4)cc3)ccc2CC1C(=O)NC1CCCc2ccccc21)C(C)(C)C

> <Shape>
0.225

> <Color>
0.084

> <Negative vol penalty>
0.000

$$$$

  -OEChem-04042320203D

 79 87  0     1  0  0  0  0  0999 V2000
  -29.5829  -29.6432   28.2903 C   0  0  0  0  0  0  0  0  0  0  0  0
  -29.7411  -28.5809   27.4061 C   0  0  0  0  0  0  0  0  0  0  0  0
  -23.1452  -12.1339   23.1612 C   0  0  0  0  0  0  0  0  0  0  0  0
  -24.4019  -10.1040   22.7909 C   0  0  0  0  0  0  0  0  0  0  0  0
  -28.3941  -30.3717   28.2973 C   0  0  0  0  0  0  0  0  0  0  0  0
  -28.7102  -28.2457   26.5290 C   0  0  0  0  0  0  0  0  0  0  0  0
  -29.2948  -26.1199   20.7381 C   0  0  0  0  0  0  0  0  0  0  0  0
  -22.5464  -11.5587   24.2820 C   0  0  0  0  0  0  0  0  0  0  0  0
  -23.8032   -9.5288   23.9117 C   0  0  0  0  0  0  0  0  0  0  0  0
  -29.2395  -24.8450   20.1765 C   0  0  0  0  0  0  0  0  0  0  0  0
  -20.8461   -8.0878   24.6928 C   0  0  0  0  0  0  0  0  0  0  0  0
  -20.3758   -6.7798   24.5768 C   0  0  0  0  0  0  0  0  0  0  0  0
  -26.9005  -25.1697   19.6847 C   0  0  0  0  0  0  0  0  0  0  0  0
  -21.8654   -6.0871   26.3484 C   0  0  0  0  0  0  0  0  0  0  0  0
  -24.0730  -11.4065   22.4156 C   0  0  0  0  0  0  0  0  0  0  0  0
  -24.0470  -12.4789   20.1011 C   0  0  0  0  0  0  0  0  0  0  0  0
  -27.3517  -30.0513   27.4132 C   0  0  0  0  0  0  0  0  0  0  0  0
  -28.1490  -26.9271   20.7869 C   0  0  0  0  0  0  0  0  0  0  0  0
  -27.5058  -28.9697   26.5252 C   0  0  0  0  0  0  0  0  0  0  0  0
  -26.9452  -26.4562   20.2431 C   0  0  0  0  0  0  0  0  0  0  0  0
  -22.8754  -10.2562   24.6573 C   0  0  0  0  0  0  0  0  0  0  0  0
  -28.0417  -24.3689   19.6517 C   0  0  0  0  0  0  0  0  0  0  0  0
  -21.8261   -8.3955   25.6366 C   0  0  0  0  0  0  0  0  0  0  0  0
  -20.8854   -5.7794   25.4046 C   0  0  0  0  0  0  0  0  0  0  0  0
  -22.3357   -7.3952   26.4644 C   0  0  0  0  0  0  0  0  0  0  0  0
  -24.6915  -11.9999   21.2574 C   0  0  0  0  0  0  0  0  0  0  0  0
  -25.0672  -12.9401   19.3055 C   0  0  0  0  0  0  0  0  0  0  0  0
  -22.6510  -12.5047   19.7753 C   0  0  0  0  0  0  0  0  0  0  0  0
  -26.3774  -28.3027   23.0705 C   0  0  0  0  0  0  0  0  0  0  0  0
  -28.2024  -20.8021   19.4829 C   0  0  0  0  0  0  0  0  0  0  0  0
  -24.8797  -29.5998   20.4007 C   0  0  0  0  0  0  0  0  0  0  0  0
  -23.2850  -31.8236   22.4383 C   0  0  0  0  0  0  0  0  0  0  0  0
  -30.5882  -14.9269   20.4980 C   0  0  0  0  0  0  0  0  0  0  0  0
  -26.0671  -30.8377   27.4903 C   0  0  0  0  0  0  0  0  0  0  0  0
  -28.2374  -28.3115   21.3699 C   0  0  0  0  0  0  0  0  0  0  0  0
  -25.6893  -27.2849   20.2677 C   0  0  0  0  0  0  0  0  0  0  0  0
  -25.1670  -30.6550   26.2710 C   0  0  0  0  0  0  0  0  0  0  0  0
  -29.7023  -12.2169   18.3655 C   0  0  0  0  0  0  0  0  0  0  0  0
  -25.0516  -29.1776   25.9093 C   0  0  0  0  0  0  0  0  0  0  0  0
  -28.2595  -11.8972   18.7605 C   0  0  0  0  0  0  0  0  0  0  0  0
  -30.5401  -12.6291   19.5739 C   0  0  0  0  0  0  0  0  0  0  0  0
  -30.2483  -19.6319   20.5576 C   0  0  0  0  0  0  0  0  0  0  0  0
  -28.6262  -18.3351   20.0368 C   0  0  0  0  0  0  0  0  0  0  0  0
  -28.5314  -13.4126   20.7676 C   0  0  0  0  0  0  0  0  0  0  0  0
  -26.4199  -28.5911   25.5415 C   0  0  1  0  0  0  0  0  0  0  0  0
  -26.8843  -28.8873   21.7826 C   0  0  1  0  0  0  0  0  0  0  0  0
  -30.1282  -18.1159   20.3038 C   0  0  0  0  0  0  0  0  0  0  0  0
  -27.6331  -13.0458   19.5739 C   0  0  2  0  0  0  0  0  0  0  0  0
  -21.8452  -33.8777   22.3679 C   0  0  0  0  0  0  0  0  0  0  0  0
  -27.3233  -31.2845   19.6964 C   0  0  0  0  0  0  0  0  0  0  0  0
  -26.1001  -33.2918   20.5584 C   0  0  0  0  0  0  0  0  0  0  0  0
  -25.1965  -32.0250   18.6086 C   0  0  0  0  0  0  0  0  0  0  0  0
  -21.0640  -30.4559   23.8366 C   0  0  0  0  0  0  0  0  0  0  0  0
  -28.8741  -22.1412   19.6296 C   0  0  0  0  0  0  0  0  0  1  0  0
  -30.4800  -17.2093   21.4667 C   0  0  0  0  0  0  0  0  0  0  0  0
  -25.0660  -31.0043   20.9180 C   0  0  1  0  0  0  0  0  0  0  0  0
  -21.8643  -32.3583   22.4298 C   0  0  2  0  0  0  0  0  0  0  0  0
  -25.9256  -31.8787   19.9620 C   0  0  0  0  0  0  0  0  0  0  0  0
  -26.0184  -12.1434   21.2050 N   0  0  0  0  0  0  0  0  0  0  0  0
  -26.2160  -12.7177   20.0062 N   0  0  0  0  0  0  0  0  0  0  0  0
  -25.8473  -28.6564   20.7689 N   0  0  0  0  0  0  0  0  0  0  0  0
  -28.9397  -19.7479   19.9448 N   0  0  0  0  0  0  0  0  0  0  0  0
  -29.8917  -13.7232   20.3008 N   0  0  0  0  0  0  0  0  0  0  0  0
  -25.0847  -13.5102   18.0819 N   0  0  0  0  0  0  0  0  0  0  0  0
  -22.1005  -11.4030   19.1063 N   0  0  0  0  0  0  0  0  0  0  0  0
  -26.7933  -28.9827   24.1992 N   0  0  0  0  0  0  0  0  0  0  0  0
  -23.7275  -31.5289   21.1660 N   0  0  0  0  0  0  0  0  0  0  0  0
  -29.8987  -15.9143   21.1911 N   0  0  0  0  0  0  0  0  0  0  0  0
  -21.1419  -31.9289   23.6605 N   0  3  0  0  0  0  0  0  0  0  0  0
  -21.9171  -13.4830   20.0542 O   0  0  0  0  0  0  0  0  0  0  0  0
  -25.6607  -27.3091   23.0422 O   0  0  0  0  0  0  0  0  0  0  0  0
  -27.0834  -20.6967   18.9831 O   0  0  0  0  0  0  0  0  0  0  0  0
  -23.9080  -29.3454   19.6836 O   0  0  0  0  0  0  0  0  0  0  0  0
  -23.9384  -31.6851   23.4700 O   0  0  0  0  0  0  0  0  0  0  0  0
  -31.7373  -15.1102   20.0822 O   0  0  0  0  0  0  0  0  0  0  0  0
  -22.2914   -9.6947   25.7510 O   0  0  0  0  0  0  0  0  0  0  0  0
  -27.9851  -23.1251   19.1024 O   0  0  0  0  0  0  0  0  0  1  0  0
  -20.4326   -4.5237   25.2942 F   0  0  0  0  0  0  0  0  0  0  0  0
  -23.2764   -7.6849   27.3737 F   0  0  0  0  0  0  0  0  0  0  0  0
  1  2  1  0  0  0  0
  1  5  2  0  0  0  0
  2  6  2  0  0  0  0
  3  8  2  0  0  0  0
  3 15  1  0  0  0  0
  4  9  1  0  0  0  0
  4 15  2  0  0  0  0
  5 17  1  0  0  0  0
  6 19  1  0  0  0  0
  7 10  2  0  0  0  0
  7 18  1  0  0  0  0
  8 21  1  0  0  0  0
  9 21  2  0  0  0  0
 10 22  1  0  0  0  0
 11 12  2  0  0  0  0
 11 23  1  0  0  0  0
 12 24  1  0  0  0  0
 13 20  1  0  0  0  0
 13 22  2  0  0  0  0
 14 24  2  0  0  0  0
 14 25  1  0  0  0  0
 15 26  1  0  0  0  0
 16 26  1  0  0  0  0
 16 27  2  0  0  0  0
 16 28  1  0  0  0  0
 17 19  2  0  0  0  0
 17 34  1  0  0  0  0
 18 20  2  0  0  0  0
 18 35  1  0  0  0  0
 19 45  1  0  0  0  0
 20 36  1  0  0  0  0
 21 76  1  0  0  0  0
 22 77  1  0  0  0  0
 23 25  2  0  0  0  0
 23 76  1  0  0  0  0
 24 78  1  0  0  0  0
 25 79  1  0  0  0  0
 26 59  2  0  0  0  0
 27 60  1  0  0  0  0
 27 64  1  0  0  0  0
 28 65  1  0  0  0  0
 28 70  2  0  0  0  0
 29 46  1  0  0  0  0
 29 66  1  0  0  0  0
 29 71  2  0  0  0  0
 30 54  1  0  0  0  0
 30 62  1  0  0  0  0
 30 72  2  0  0  0  0
 31 56  1  0  0  0  0
 31 61  1  0  0  0  0
 31 73  2  0  0  0  0
 32 57  1  0  0  0  0
 32 67  1  0  0  0  0
 32 74  2  0  0  0  0
 33 63  1  0  0  0  0
 33 68  1  0  0  0  0
 33 75  2  0  0  0  0
 34 37  1  0  0  0  0
 35 46  1  0  0  0  0
 36 61  1  0  0  0  0
 37 39  1  0  0  0  0
 38 40  1  0  0  0  0
 38 41  1  0  0  0  0
 39 45  1  0  0  0  0
 40 48  1  0  0  0  0
 41 63  1  0  0  0  0
 42 47  1  0  0  0  0
 42 62  1  0  0  0  0
 43 47  1  0  0  0  0
 43 62  1  0  0  0  0
 44 48  1  0  0  0  0
 44 63  1  0  0  0  0
 45 66  1  0  0  0  0
 46 61  1  0  0  0  0
 47 55  1  0  0  0  0
 48 60  1  0  0  0  0
 49 57  1  0  0  0  0
 50 58  1  0  0  0  0
 51 58  1  0  0  0  0
 52 58  1  0  0  0  0
 53 69  1  0  0  0  0
 54 77  1  0  0  0  0
 55 68  1  0  0  0  0
 56 58  1  0  0  0  0
 56 67  1  0  0  0  0
 57 69  1  0  0  0  0
 59 60  1  0  0  0  0
M  CHG  1  69   1
M  ISO  4  33 100  54 101  68 100  77 101
M  END
> <Batch ID>
0003

> <Smiles>
CNC(C)C(=O)NC(C(=O)N1Cc2cc([101O:1][101CH2:1]C(=O)N3CC(C[100NH:0][100C:0](=O)N4CCCC(n5nc(-c6ccc(Oc7ccc(F)cc7F)cc6)c(C(N)=O)c5N)C4)C3)ccc2CC1C(=O)NC1CCCc2ccccc21)C(C)(C)C

> <Shape>
0.284

> <Color>
0.091

> <Negative vol penalty>
0.000

$$$$

  -OEChem-04042320203D

 81 89  0     1  0  0  0  0  0999 V2000
  -17.8540  -29.6878   23.1857 C   0  0  0  0  0  0  0  0  0  0  0  0
  -19.1649  -29.7684   22.7269 C   0  0  0  0  0  0  0  0  0  0  0  0
  -31.7303  -21.4327   15.9982 C   0  0  0  0  0  0  0  0  0  0  0  0
  -26.5309  -12.8368   21.6530 C   0  0  0  0  0  0  0  0  0  0  0  0
  -26.1580  -13.8986   19.5151 C   0  0  0  0  0  0  0  0  0  0  0  0
  -17.4210  -28.5458   23.8584 C   0  0  0  0  0  0  0  0  0  0  0  0
  -20.0440  -28.7074   22.9415 C   0  0  0  0  0  0  0  0  0  0  0  0
  -24.5117  -26.8148   19.2048 C   0  0  0  0  0  0  0  0  0  0  0  0
  -31.6956  -22.8046   16.2476 C   0  0  0  0  0  0  0  0  0  0  0  0
  -31.6002  -20.5287   17.0525 C   0  0  0  0  0  0  0  0  0  0  0  0
  -25.2611  -12.2631   21.5896 C   0  0  0  0  0  0  0  0  0  0  0  0
  -24.8881  -13.3249   19.4516 C   0  0  0  0  0  0  0  0  0  0  0  0
  -25.8862  -27.0482   19.1927 C   0  0  0  0  0  0  0  0  0  0  0  0
  -23.7851   -9.6450   20.0403 C   0  0  0  0  0  0  0  0  0  0  0  0
  -23.6654   -8.2966   20.3767 C   0  0  0  0  0  0  0  0  0  0  0  0
  -26.2427  -24.9745   20.3724 C   0  0  0  0  0  0  0  0  0  0  0  0
  -31.4006  -22.3685   18.6056 C   0  0  0  0  0  0  0  0  0  0  0  0
  -22.1382   -8.8763   22.1569 C   0  0  0  0  0  0  0  0  0  0  0  0
  -26.9793  -13.6546   20.6158 C   0  0  0  0  0  0  0  0  0  0  0  0
  -29.4957  -13.7021   20.1994 C   0  0  0  0  0  0  0  0  0  0  0  0
  -18.2925  -27.4664   24.0728 C   0  0  0  0  0  0  0  0  0  0  0  0
  -23.9907  -25.6628   19.8115 C   0  0  0  0  0  0  0  0  0  0  0  0
  -19.6226  -27.5505   23.6189 C   0  0  0  0  0  0  0  0  0  0  0  0
  -24.8615  -24.7275   20.3887 C   0  0  0  0  0  0  0  0  0  0  0  0
  -31.5307  -23.2726   17.5512 C   0  0  0  0  0  0  0  0  0  0  0  0
  -31.4353  -20.9966   18.3561 C   0  0  0  0  0  0  0  0  0  0  0  0
  -24.4397  -12.5071   20.4889 C   0  0  0  0  0  0  0  0  0  0  0  0
  -26.7517  -26.1294   19.7791 C   0  0  0  0  0  0  0  0  0  0  0  0
  -23.0814  -10.6091   20.7623 C   0  0  0  0  0  0  0  0  0  0  0  0
  -22.8420   -7.9123   21.4350 C   0  0  0  0  0  0  0  0  0  0  0  0
  -22.2580  -10.2247   21.8205 C   0  0  0  0  0  0  0  0  0  0  0  0
  -28.2907  -14.2480   20.6810 C   0  0  0  0  0  0  0  0  0  0  0  0
  -30.4457  -14.6468   20.5020 C   0  0  0  0  0  0  0  0  0  0  0  0
  -29.7348  -12.4528   19.5377 C   0  0  0  0  0  0  0  0  0  0  0  0
  -22.0279  -25.1033   22.2483 C   0  0  0  0  0  0  0  0  0  0  0  0
  -22.2909  -22.0289   21.2477 C   0  0  0  0  0  0  0  0  0  0  0  0
  -24.1085  -19.6701   19.5806 C   0  0  0  0  0  0  0  0  0  0  0  0
  -31.1319  -20.3750   20.7785 C   0  0  0  0  0  0  0  0  0  0  0  0
  -17.7924  -26.2723   24.8466 C   0  0  0  0  0  0  0  0  0  0  0  0
  -22.5077  -25.4125   19.7927 C   0  0  0  0  0  0  0  0  0  0  0  0
  -24.3542  -23.4652   21.0350 C   0  0  0  0  0  0  0  0  0  0  0  0
  -18.6801  -25.0387   24.7039 C   0  0  0  0  0  0  0  0  0  0  0  0
  -30.7288  -18.4002   23.7136 C   0  0  0  0  0  0  0  0  0  0  0  0
  -20.1477  -25.4133   24.8847 C   0  0  0  0  0  0  0  0  0  0  0  0
  -30.1768  -17.0742   23.1854 C   0  0  0  0  0  0  0  0  0  0  0  0
  -30.1776  -19.5940   22.9359 C   0  0  0  0  0  0  0  0  0  0  0  0
  -29.7887  -18.1883   20.9505 C   0  0  0  0  0  0  0  0  0  0  0  0
  -20.5990  -26.4103   23.8106 C   0  0  1  0  0  0  0  0  0  0  0  0
  -22.0487  -24.4586   20.8912 C   0  0  1  0  0  0  0  0  0  0  0  0
  -30.3655  -16.9527   21.6605 C   0  0  2  0  0  0  0  0  0  0  0  0
  -24.0850  -17.2376   18.9640 C   0  0  0  0  0  0  0  0  0  0  0  0
  -23.0930  -21.3006   24.1001 C   0  0  0  0  0  0  0  0  0  0  0  0
  -23.9578  -19.1198   23.2259 C   0  0  0  0  0  0  0  0  0  0  0  0
  -21.5361  -19.6769   23.0074 C   0  0  0  0  0  0  0  0  0  0  0  0
  -24.0927  -20.2848   16.6856 C   0  0  0  0  0  0  0  0  0  0  0  0
  -31.4934  -24.7483   17.8189 C   0  0  0  0  0  0  0  0  0  0  0  0
  -30.0622  -26.7014   18.4321 C   0  0  0  0  0  0  0  0  0  0  0  0
  -28.6190  -27.0994   18.6708 C   0  0  0  0  0  0  0  0  0  1  0  0
  -23.2206  -20.8801   21.5559 C   0  0  1  0  0  0  0  0  0  0  0  0
  -23.7104  -18.6469   18.5322 C   0  0  2  0  0  0  0  0  0  0  0  0
  -22.9616  -20.2690   22.9619 C   0  0  0  0  0  0  0  0  0  0  0  0
  -28.4573  -15.4464   21.2466 N   0  0  0  0  0  0  0  0  0  0  0  0
  -29.7781  -15.6614   21.1225 N   0  0  0  0  0  0  0  0  0  0  0  0
  -22.8956  -23.2687   20.9967 N   0  0  0  0  0  0  0  0  0  0  0  0
  -30.3957  -19.4110   21.4993 N   0  0  0  0  0  0  0  0  0  0  0  0
  -31.7787  -14.7002   20.2952 N   0  0  0  0  0  0  0  0  0  0  0  0
  -28.6466  -11.6008   19.3052 N   0  0  0  0  0  0  0  0  0  0  0  0
  -31.3025  -20.0780   19.4268 N   0  0  0  0  0  0  0  0  0  0  0  0
  -20.8349  -25.7290   22.5557 N   0  0  0  0  0  0  0  0  0  0  0  0
  -23.0763  -19.9320   20.4565 N   0  0  0  0  0  0  0  0  0  0  0  0
  -24.3909  -18.9387   17.2389 N   0  3  0  0  0  0  0  0  0  0  0  0
  -30.1237  -25.2546   18.1043 N   0  3  0  0  0  0  0  0  0  0  0  0
  -30.8822  -12.0952   19.1784 O   0  0  0  0  0  0  0  0  0  0  0  0
  -23.0203  -25.0366   22.9641 O   0  0  0  0  0  0  0  0  0  0  0  0
  -21.0734  -21.8318   21.2233 O   0  0  0  0  0  0  0  0  0  0  0  0
  -25.2248  -20.1827   19.6208 O   0  0  0  0  0  0  0  0  0  0  0  0
  -31.6015  -21.3758   21.3262 O   0  0  0  0  0  0  0  0  0  0  0  0
  -23.2007  -11.9472   20.4266 O   0  0  0  0  0  0  0  0  0  0  0  0
  -28.0936  -26.3552   19.7692 O   0  0  0  0  0  0  0  0  0  1  0  0
  -22.7259   -6.6173   21.7569 F   0  0  0  0  0  0  0  0  0  0  0  0
  -21.5785  -11.1462   22.5169 F   0  0  0  0  0  0  0  0  0  0  0  0
  1  2  1  0  0  0  0
  1  6  2  0  0  0  0
  2  7  2  0  0  0  0
  3  9  2  0  0  0  0
  3 10  1  0  0  0  0
  4 11  2  0  0  0  0
  4 19  1  0  0  0  0
  5 12  1  0  0  0  0
  5 19  2  0  0  0  0
  6 21  1  0  0  0  0
  7 23  1  0  0  0  0
  8 13  2  0  0  0  0
  8 22  1  0  0  0  0
  9 25  1  0  0  0  0
 10 26  2  0  0  0  0
 11 27  1  0  0  0  0
 12 27  2  0  0  0  0
 13 28  1  0  0  0  0
 14 15  2  0  0  0  0
 14 29  1  0  0  0  0
 15 30  1  0  0  0  0
 16 24  1  0  0  0  0
 16 28  2  0  0  0  0
 17 25  2  0  0  0  0
 17 26  1  0  0  0  0
 18 30  2  0  0  0  0
 18 31  1  0  0  0  0
 19 32  1  0  0  0  0
 20 32  1  0  0  0  0
 20 33  2  0  0  0  0
 20 34  1  0  0  0  0
 21 23  2  0  0  0  0
 21 39  1  0  0  0  0
 22 24  2  0  0  0  0
 22 40  1  0  0  0  0
 23 48  1  0  0  0  0
 24 41  1  0  0  0  0
 25 56  1  0  0  0  0
 26 68  1  0  0  0  0
 27 78  1  0  0  0  0
 28 79  1  0  0  0  0
 29 31  2  0  0  0  0
 29 78  1  0  0  0  0
 30 80  1  0  0  0  0
 31 81  1  0  0  0  0
 32 62  2  0  0  0  0
 33 63  1  0  0  0  0
 33 66  1  0  0  0  0
 34 67  1  0  0  0  0
 34 73  2  0  0  0  0
 35 49  1  0  0  0  0
 35 69  1  0  0  0  0
 35 74  2  0  0  0  0
 36 59  1  0  0  0  0
 36 64  1  0  0  0  0
 36 75  2  0  0  0  0
 37 60  1  0  0  0  0
 37 70  1  0  0  0  0
 37 76  2  0  0  0  0
 38 65  1  0  0  0  0
 38 68  1  0  0  0  0
 38 77  2  0  0  0  0
 39 42  1  0  0  0  0
 40 49  1  0  0  0  0
 41 64  1  0  0  0  0
 42 44  1  0  0  0  0
 43 45  1  0  0  0  0
 43 46  1  0  0  0  0
 44 48  1  0  0  0  0
 45 50  1  0  0  0  0
 46 65  1  0  0  0  0
 47 50  1  0  0  0  0
 47 65  1  0  0  0  0
 48 69  1  0  0  0  0
 49 64  1  0  0  0  0
 50 63  1  0  0  0  0
 51 60  1  0  0  0  0
 52 61  1  0  0  0  0
 53 61  1  0  0  0  0
 54 61  1  0  0  0  0
 55 71  1  0  0  0  0
 56 72  1  0  0  0  0
 57 58  1  0  0  0  0
 57 72  1  0  0  0  0
 58 79  1  0  0  0  0
 59 61  1  0  0  0  0
 59 70  1  0  0  0  0
 60 71  1  0  0  0  0
 62 63  1  0  0  0  0
M  CHG  2  71   1  72   1
M  ISO  4  38 100  58 101  68 100  79 101
M  END
> <Batch ID>
0003

> <Smiles>
CNC(C)C(=O)NC(C(=O)N1Cc2cc([101O:1][101CH2:1]CNCc3cccc([100NH:0][100C:0](=O)N4CCCC(n5nc(-c6ccc(Oc7ccc(F)cc7F)cc6)c(C(N)=O)c5N)C4)c3)ccc2CC1C(=O)NC1CCCc2ccccc21)C(C)(C)C

> <Shape>
0.226

> <Color>
0.070

> <Negative vol penalty>
0.000

$$$$

  -OEChem-04042320203D

 78 86  0     1  0  0  0  0  0999 V2000
  -38.1626  -28.8712   26.4468 C   0  0  0  0  0  0  0  0  0  0  0  0
  -37.5458  -27.6648   26.7624 C   0  0  0  0  0  0  0  0  0  0  0  0
  -23.0014   -9.8933   19.9805 C   0  0  0  0  0  0  0  0  0  0  0  0
  -23.7268   -9.9438   22.2845 C   0  0  0  0  0  0  0  0  0  0  0  0
  -37.7931  -29.5607   25.2927 C   0  0  0  0  0  0  0  0  0  0  0  0
  -36.5583  -27.1477   25.9246 C   0  0  0  0  0  0  0  0  0  0  0  0
  -35.4691  -21.2416   24.7259 C   0  0  0  0  0  0  0  0  0  0  0  0
  -32.0565  -16.5530   22.5650 C   0  0  0  0  0  0  0  0  0  0  0  0
  -22.2353   -8.7585   20.2466 C   0  0  0  0  0  0  0  0  0  0  0  0
  -22.9606   -8.8089   22.5506 C   0  0  0  0  0  0  0  0  0  0  0  0
  -34.5395  -20.3367   25.2366 C   0  0  0  0  0  0  0  0  0  0  0  0
  -32.6442  -17.4486   23.4584 C   0  0  0  0  0  0  0  0  0  0  0  0
  -23.2060   -5.4702   22.0776 C   0  0  0  0  0  0  0  0  0  0  0  0
  -23.7939   -4.4530   22.8293 C   0  0  0  0  0  0  0  0  0  0  0  0
  -33.0775  -20.7966   23.3737 C   0  0  0  0  0  0  0  0  0  0  0  0
  -29.8776  -17.4486   23.1005 C   0  0  0  0  0  0  0  0  0  0  0  0
  -22.0701   -4.6948   24.5048 C   0  0  0  0  0  0  0  0  0  0  0  0
  -23.7473  -10.4859   20.9995 C   0  0  0  0  0  0  0  0  0  0  0  0
  -24.1318  -13.0017   20.8243 C   0  0  0  0  0  0  0  0  0  0  0  0
  -36.8074  -29.0470   24.4352 C   0  0  0  0  0  0  0  0  0  0  0  0
  -35.2048  -21.9400   23.5390 C   0  0  0  0  0  0  0  0  0  0  0  0
  -36.1743  -27.8317   24.7586 C   0  0  0  0  0  0  0  0  0  0  0  0
  -34.0066  -21.7078   22.8487 C   0  0  0  0  0  0  0  0  0  0  0  0
  -30.6731  -16.5530   22.3861 C   0  0  0  0  0  0  0  0  0  0  0  0
  -22.2149   -8.2163   21.5316 C   0  0  0  0  0  0  0  0  0  0  0  0
  -33.3422  -20.1163   24.5620 C   0  0  0  0  0  0  0  0  0  0  0  0
  -31.8486  -18.3443   24.1728 C   0  0  0  0  0  0  0  0  0  1  0  0
  -22.0501   -6.0999   22.5395 C   0  0  0  0  0  0  0  0  0  0  0  0
  -23.2260   -4.0652   24.0429 C   0  0  0  0  0  0  0  0  0  0  0  0
  -30.4652  -18.3443   23.9938 C   0  0  0  0  0  0  0  0  0  0  0  0
  -21.4822   -5.7121   23.7530 C   0  0  0  0  0  0  0  0  0  0  0  0
  -24.5393  -11.6579   20.7252 C   0  0  0  0  0  0  0  0  0  0  0  0
  -25.2412  -13.7248   20.4600 C   0  0  0  0  0  0  0  0  0  0  0  0
  -22.8637  -13.5476   21.2111 C   0  0  0  0  0  0  0  0  0  0  0  0
  -34.8714  -25.0053   22.7668 C   0  0  0  0  0  0  0  0  0  0  0  0
  -34.7301  -23.8269   19.7480 C   0  0  0  0  0  0  0  0  0  0  0  0
  -34.0642  -21.1799   17.6993 C   0  0  0  0  0  0  0  0  0  0  0  0
  -30.7204  -14.6875   20.6937 C   0  0  0  0  0  0  0  0  0  0  0  0
  -36.4081  -29.8517   23.2238 C   0  0  0  0  0  0  0  0  0  0  0  0
  -36.2295  -22.8927   22.9871 C   0  0  0  0  0  0  0  0  0  0  0  0
  -33.6837  -22.4171   21.5598 C   0  0  0  0  0  0  0  0  0  0  0  0
  -35.6180  -29.0495   22.1930 C   0  0  0  0  0  0  0  0  0  0  0  0
  -29.6027  -12.2350   18.3671 C   0  0  0  0  0  0  0  0  0  0  0  0
  -34.5213  -28.2376   22.8749 C   0  0  0  0  0  0  0  0  0  0  0  0
  -28.1522  -11.9768   18.7813 C   0  0  0  0  0  0  0  0  0  0  0  0
  -30.5033  -12.4783   19.5769 C   0  0  0  0  0  0  0  0  0  0  0  0
  -28.5878  -13.2662   20.9108 C   0  0  0  0  0  0  0  0  0  0  0  0
  -35.1164  -27.2261   23.8618 C   0  0  1  0  0  0  0  0  0  0  0  0
  -35.6323  -23.9311   22.0424 C   0  0  1  0  0  0  0  0  0  0  0  0
  -27.6301  -13.0799   19.7227 C   0  0  2  0  0  0  0  0  0  0  0  0
  -34.0014  -20.5316   15.2759 C   0  0  0  0  0  0  0  0  0  0  0  0
  -32.1039  -25.3437   19.4128 C   0  0  0  0  0  0  0  0  0  0  0  0
  -31.6274  -23.9341   17.3992 C   0  0  0  0  0  0  0  0  0  0  0  0
  -33.6211  -25.4332   17.4267 C   0  0  0  0  0  0  0  0  0  0  0  0
  -36.1324  -19.0980   18.0830 C   0  0  0  0  0  0  0  0  0  0  0  0
  -33.6261  -23.3380   18.8417 C   0  0  1  0  0  0  0  0  0  0  0  0
  -34.8427  -20.5813   16.5417 C   0  0  2  0  0  0  0  0  0  0  0  0
  -32.7496  -24.5002   18.2954 C   0  0  0  0  0  0  0  0  0  0  0  0
  -25.8086  -11.5319   20.3288 N   0  0  0  0  0  0  0  0  0  0  0  0
  -26.2082  -12.8059   20.1756 N   0  0  0  0  0  0  0  0  0  0  0  0
  -34.7148  -23.3437   21.0640 N   0  0  0  0  0  0  0  0  0  0  0  0
  -29.9480  -13.5388   20.4206 N   0  0  0  0  0  0  0  0  0  0  0  0
  -25.4743  -15.0506   20.3583 N   0  0  0  0  0  0  0  0  0  0  0  0
  -21.8322  -12.6630   21.5544 N   0  0  0  0  0  0  0  0  0  0  0  0
  -30.0759  -15.6423   21.4796 N   0  0  0  0  0  0  0  0  0  0  0  0
  -35.6475  -26.0813   23.1535 N   0  0  0  0  0  0  0  0  0  0  0  0
  -34.2720  -22.5389   17.8061 N   0  0  0  0  0  0  0  0  0  0  0  0
  -35.2774  -19.1946   16.8719 N   0  3  0  0  0  0  0  0  0  0  0  0
  -22.6465  -14.7828   21.2353 O   0  0  0  0  0  0  0  0  0  0  0  0
  -33.6689  -24.8688   22.9593 O   0  0  0  0  0  0  0  0  0  0  0  0
  -35.5790  -24.6031   19.3025 O   0  0  0  0  0  0  0  0  0  0  0  0
  -33.3410  -20.5097   18.4330 O   0  0  0  0  0  0  0  0  0  0  0  0
  -31.8590  -14.8270   20.2396 O   0  0  0  0  0  0  0  0  0  0  0  0
  -21.4672   -7.1091   21.7916 O   0  0  0  0  0  0  0  0  0  0  0  0
  -32.4328  -19.2341   25.0587 O   0  0  0  0  0  0  0  0  0  1  0  0
  -23.7898   -3.0873   24.7639 F   0  0  0  0  0  0  0  0  0  0  0  0
  -29.6952  -19.2026   24.6767 F   0  0  0  0  0  0  0  0  0  0  0  0
  -20.3712   -6.3125   24.2014 F   0  0  0  0  0  0  0  0  0  0  0  0
  1  2  1  0  0  0  0
  1  5  2  0  0  0  0
  2  6  2  0  0  0  0
  3  9  2  0  0  0  0
  3 18  1  0  0  0  0
  4 10  1  0  0  0  0
  4 18  2  0  0  0  0
  5 20  1  0  0  0  0
  6 22  1  0  0  0  0
  7 11  2  0  0  0  0
  7 21  1  0  0  0  0
  8 12  2  0  0  0  0
  8 24  1  0  0  0  0
  9 25  1  0  0  0  0
 10 25  2  0  0  0  0
 11 26  1  0  0  0  0
 12 27  1  0  0  0  0
 13 14  2  0  0  0  0
 13 28  1  0  0  0  0
 14 29  1  0  0  0  0
 15 23  1  0  0  0  0
 15 26  2  0  0  0  0
 16 24  2  0  0  0  0
 16 30  1  0  0  0  0
 17 29  2  0  0  0  0
 17 31  1  0  0  0  0
 18 32  1  0  0  0  0
 19 32  1  0  0  0  0
 19 33  2  0  0  0  0
 19 34  1  0  0  0  0
 20 22  2  0  0  0  0
 20 39  1  0  0  0  0
 21 23  2  0  0  0  0
 21 40  1  0  0  0  0
 22 48  1  0  0  0  0
 23 41  1  0  0  0  0
 24 65  1  0  0  0  0
 25 74  1  0  0  0  0
 26 75  1  0  0  0  0
 27 30  2  0  0  0  0
 27 75  1  0  0  0  0
 28 31  2  0  0  0  0
 28 74  1  0  0  0  0
 29 76  1  0  0  0  0
 30 77  1  0  0  0  0
 31 78  1  0  0  0  0
 32 59  2  0  0  0  0
 33 60  1  0  0  0  0
 33 63  1  0  0  0  0
 34 64  1  0  0  0  0
 34 69  2  0  0  0  0
 35 49  1  0  0  0  0
 35 66  1  0  0  0  0
 35 70  2  0  0  0  0
 36 56  1  0  0  0  0
 36 61  1  0  0  0  0
 36 71  2  0  0  0  0
 37 57  1  0  0  0  0
 37 67  1  0  0  0  0
 37 72  2  0  0  0  0
 38 62  1  0  0  0  0
 38 65  1  0  0  0  0
 38 73  2  0  0  0  0
 39 42  1  0  0  0  0
 40 49  1  0  0  0  0
 41 61  1  0  0  0  0
 42 44  1  0  0  0  0
 43 45  1  0  0  0  0
 43 46  1  0  0  0  0
 44 48  1  0  0  0  0
 45 50  1  0  0  0  0
 46 62  1  0  0  0  0
 47 50  1  0  0  0  0
 47 62  1  0  0  0  0
 48 66  1  0  0  0  0
 49 61  1  0  0  0  0
 50 60  1  0  0  0  0
 51 57  1  0  0  0  0
 52 58  1  0  0  0  0
 53 58  1  0  0  0  0
 54 58  1  0  0  0  0
 55 68  1  0  0  0  0
 56 58  1  0  0  0  0
 56 67  1  0  0  0  0
 57 68  1  0  0  0  0
 59 60  1  0  0  0  0
M  CHG  1  68   1
M  ISO  4  27 101  38 100  65 100  75 101
M  END
> <Batch ID>
0003

> <Smiles>
CNC(C)C(=O)NC(C(=O)N1Cc2cc([101O:1][101c:1]3ccc([100NH:0][100C:0](=O)N4CCCC(n5nc(-c6ccc(Oc7ccc(F)cc7F)cc6)c(C(N)=O)c5N)C4)cc3F)ccc2CC1C(=O)NC1CCCc2ccccc21)C(C)(C)C

> <Shape>
0.183

> <Color>
0.206

> <Negative vol penalty>
0.000

$$$$

  -OEChem-04042320203D

 85 94  0     1  0  0  0  0  0999 V2000
  -29.0605  -23.0468   29.3177 C   0  0  0  0  0  0  0  0  0  0  0  0
  -28.8167  -23.0103   27.9485 C   0  0  0  0  0  0  0  0  0  0  0  0
  -23.1776   -9.7257   20.0511 C   0  0  0  0  0  0  0  0  0  0  0  0
  -23.6600  -10.0372   22.3979 C   0  0  0  0  0  0  0  0  0  0  0  0
  -28.1929  -23.7399   30.1608 C   0  0  0  0  0  0  0  0  0  0  0  0
  -27.7045  -23.6660   27.4218 C   0  0  0  0  0  0  0  0  0  0  0  0
  -30.8423  -19.0915   20.8746 C   0  0  0  0  0  0  0  0  0  0  0  0
  -28.8193  -17.7774   21.0090 C   0  0  0  0  0  0  0  0  0  0  0  0
  -28.8052  -26.3077   23.2439 C   0  0  0  0  0  0  0  0  0  0  0  0
  -30.1936  -20.0050   20.0438 C   0  0  0  0  0  0  0  0  0  0  0  0
  -28.1707  -18.6910   20.1782 C   0  0  0  0  0  0  0  0  0  0  0  0
  -22.4210   -8.5945   20.3567 C   0  0  0  0  0  0  0  0  0  0  0  0
  -22.9034   -8.9059   22.7035 C   0  0  0  0  0  0  0  0  0  0  0  0
  -28.9376  -25.5923   22.0546 C   0  0  0  0  0  0  0  0  0  0  0  0
  -21.3963   -5.8939   24.0695 C   0  0  0  0  0  0  0  0  0  0  0  0
  -21.9307   -4.9833   24.9810 C   0  0  0  0  0  0  0  0  0  0  0  0
  -26.6995  -26.2358   21.4253 C   0  0  0  0  0  0  0  0  0  0  0  0
  -23.8264   -4.6372   23.5237 C   0  0  0  0  0  0  0  0  0  0  0  0
  -23.7972  -10.4470   21.0717 C   0  0  0  0  0  0  0  0  0  0  0  0
  -24.1254  -12.9453   20.6735 C   0  0  0  0  0  0  0  0  0  0  0  0
  -30.1551  -17.9776   21.3572 C   0  0  0  0  0  0  0  0  0  0  0  0
  -27.0749  -24.4126   29.6430 C   0  0  0  0  0  0  0  0  0  0  0  0
  -27.6129  -26.9847   23.5382 C   0  0  0  0  0  0  0  0  0  0  0  0
  -26.8204  -24.3677   28.2589 C   0  0  0  0  0  0  0  0  0  0  0  0
  -26.5554  -26.9612   22.6178 C   0  0  0  0  0  0  0  0  0  0  0  0
  -28.8578  -19.8049   19.6956 C   0  0  0  0  0  0  0  0  0  0  0  0
  -22.2838   -8.1846   21.6829 C   0  0  0  0  0  0  0  0  0  0  0  0
  -27.8837  -25.5538   21.1464 C   0  0  0  0  0  0  0  0  0  0  0  0
  -22.0769   -6.1761   22.8851 C   0  0  0  0  0  0  0  0  0  0  0  0
  -23.1458   -4.3549   24.7081 C   0  0  0  0  0  0  0  0  0  0  0  0
  -23.2920   -5.5477   22.6122 C   0  0  0  0  0  0  0  0  0  0  0  0
  -24.5794  -11.6154   20.7565 C   0  0  0  0  0  0  0  0  0  0  0  0
  -25.2454  -13.6707   20.3479 C   0  0  0  0  0  0  0  0  0  0  0  0
  -22.8091  -13.4774   20.8730 C   0  0  0  0  0  0  0  0  0  0  0  0
  -25.4173  -26.7693   25.8265 C   0  0  0  0  0  0  0  0  0  0  0  0
  -24.2205  -29.4192   24.3884 C   0  0  0  0  0  0  0  0  0  0  0  0
  -23.9641  -31.3169   21.5636 C   0  0  0  0  0  0  0  0  0  0  0  0
  -30.6020  -14.8610   20.9672 C   0  0  0  0  0  0  0  0  0  0  0  0
  -26.1394  -25.1089   30.5993 C   0  0  0  0  0  0  0  0  0  0  0  0
  -27.4956  -27.7740   24.8132 C   0  0  0  0  0  0  0  0  0  0  0  0
  -25.2620  -27.6879   22.8773 C   0  0  0  0  0  0  0  0  0  0  0  0
  -25.1908  -26.0911   29.9168 C   0  0  0  0  0  0  0  0  0  0  0  0
  -30.7363  -15.9581   24.4208 C   0  0  0  0  0  0  0  0  0  0  0  0
  -29.8291  -12.1900   18.8464 C   0  0  0  0  0  0  0  0  0  0  0  0
  -30.6864  -17.3227   23.7452 C   0  0  0  0  0  0  0  0  0  0  0  0
  -24.5657  -25.4565   28.6785 C   0  0  0  0  0  0  0  0  0  0  0  0
  -28.3631  -11.8878   19.1506 C   0  0  0  0  0  0  0  0  0  0  0  0
  -30.5875  -12.5367   20.1215 C   0  0  0  0  0  0  0  0  0  0  0  0
  -30.0008  -15.0656   23.4334 C   0  0  0  0  0  0  0  0  0  0  0  0
  -28.5286  -13.4134   21.1823 C   0  0  0  0  0  0  0  0  0  0  0  0
  -30.8574  -16.9869   22.2577 C   0  0  1  0  0  0  0  0  0  0  0  0
  -25.6383  -25.0873   27.6467 C   0  0  1  0  0  0  0  0  0  0  0  0
  -26.0500  -28.0015   25.2443 C   0  0  1  0  0  0  0  0  0  0  0  0
  -27.7153  -13.0487   19.9234 C   0  0  2  0  0  0  0  0  0  0  0  0
  -22.8868  -33.4061   20.6851 C   0  0  0  0  0  0  0  0  0  0  0  0
  -21.5453  -27.9626   24.2119 C   0  0  0  0  0  0  0  0  0  0  0  0
  -20.8101  -29.6624   22.5271 C   0  0  0  0  0  0  0  0  0  0  0  0
  -21.3794  -30.3753   24.8489 C   0  0  0  0  0  0  0  0  0  0  0  0
  -26.5849  -32.5598   20.9756 C   0  0  0  0  0  0  0  0  0  0  0  0
  -28.1645  -20.7831   18.8086 C   0  0  0  0  0  0  0  0  0  0  0  0
  -27.1658  -23.0642   18.6147 C   0  0  0  0  0  0  0  0  0  0  0  0
  -26.8222  -24.2949   19.4305 C   0  0  0  0  0  0  0  0  0  1  0  0
  -23.2327  -29.6784   23.2767 C   0  0  1  0  0  0  0  0  0  0  0  0
  -24.1256  -32.8088   21.3343 C   0  0  2  0  0  0  0  0  0  0  0  0
  -21.7654  -29.4043   23.7118 C   0  0  0  0  0  0  0  0  0  0  0  0
  -25.8858  -11.4997   20.5038 N   0  0  0  0  0  0  0  0  0  0  0  0
  -26.2624  -12.7663   20.2588 N   0  0  0  0  0  0  0  0  0  0  0  0
  -25.1935  -28.4405   24.1408 N   0  0  0  0  0  0  0  0  0  0  0  0
  -29.9424  -13.6313   20.8476 N   0  0  0  0  0  0  0  0  0  0  0  0
  -30.3574  -15.6101   22.1219 N   0  0  0  0  0  0  0  0  0  0  0  0
  -25.4495  -14.9876   20.1319 N   0  0  0  0  0  0  0  0  0  0  0  0
  -21.7735  -12.5924   21.2026 N   0  0  0  0  0  0  0  0  0  0  0  0
  -26.0779  -26.2657   26.9308 N   0  0  0  0  0  0  0  0  0  0  0  0
  -23.4765  -31.0437   22.8241 N   0  0  0  0  0  0  0  0  0  0  0  0
  -25.2944  -33.0732   20.4483 N   0  3  0  0  0  0  0  0  0  0  0  0
  -27.8067  -22.0542   19.4966 N   0  3  0  0  0  0  0  0  0  0  0  0
  -22.5553  -14.6994   20.7462 O   0  0  0  0  0  0  0  0  0  0  0  0
  -24.4038  -26.3102   25.3129 O   0  0  0  0  0  0  0  0  0  0  0  0
  -24.1365  -30.0664   25.4352 O   0  0  0  0  0  0  0  0  0  0  0  0
  -24.2393  -30.4779   20.7086 O   0  0  0  0  0  0  0  0  0  0  0  0
  -31.3869  -15.2609   20.0977 O   0  0  0  0  0  0  0  0  0  0  0  0
  -21.5454   -7.0809   21.9816 O   0  0  0  0  0  0  0  0  0  0  0  0
  -28.0109  -24.8507   19.9768 O   0  0  0  0  0  0  0  0  0  1  0  0
  -23.6596   -3.4817   25.5842 F   0  0  0  0  0  0  0  0  0  0  0  0
  -23.9510   -5.8157   21.4766 F   0  0  0  0  0  0  0  0  0  0  0  0
  1  2  1  0  0  0  0
  1  5  2  0  0  0  0
  2  6  2  0  0  0  0
  3 12  2  0  0  0  0
  3 19  1  0  0  0  0
  4 13  1  0  0  0  0
  4 19  2  0  0  0  0
  5 22  1  0  0  0  0
  6 24  1  0  0  0  0
  7 10  2  0  0  0  0
  7 21  1  0  0  0  0
  8 11  1  0  0  0  0
  8 21  2  0  0  0  0
  9 14  2  0  0  0  0
  9 23  1  0  0  0  0
 10 26  1  0  0  0  0
 11 26  2  0  0  0  0
 12 27  1  0  0  0  0
 13 27  2  0  0  0  0
 14 28  1  0  0  0  0
 15 16  2  0  0  0  0
 15 29  1  0  0  0  0
 16 30  1  0  0  0  0
 17 25  1  0  0  0  0
 17 28  2  0  0  0  0
 18 30  2  0  0  0  0
 18 31  1  0  0  0  0
 19 32  1  0  0  0  0
 20 32  1  0  0  0  0
 20 33  2  0  0  0  0
 20 34  1  0  0  0  0
 21 51  1  0  0  0  0
 22 24  2  0  0  0  0
 22 39  1  0  0  0  0
 23 25  2  0  0  0  0
 23 40  1  0  0  0  0
 24 52  1  0  0  0  0
 25 41  1  0  0  0  0
 26 60  1  0  0  0  0
 27 82  1  0  0  0  0
 28 83  1  0  0  0  0
 29 31  2  0  0  0  0
 29 82  1  0  0  0  0
 30 84  1  0  0  0  0
 31 85  1  0  0  0  0
 32 66  2  0  0  0  0
 33 67  1  0  0  0  0
 33 71  1  0  0  0  0
 34 72  1  0  0  0  0
 34 77  2  0  0  0  0
 35 53  1  0  0  0  0
 35 73  1  0  0  0  0
 35 78  2  0  0  0  0
 36 63  1  0  0  0  0
 36 68  1  0  0  0  0
 36 79  2  0  0  0  0
 37 64  1  0  0  0  0
 37 74  1  0  0  0  0
 37 80  2  0  0  0  0
 38 69  1  0  0  0  0
 38 70  1  0  0  0  0
 38 81  2  0  0  0  0
 39 42  1  0  0  0  0
 40 53  1  0  0  0  0
 41 68  1  0  0  0  0
 42 46  1  0  0  0  0
 43 45  1  0  0  0  0
 43 49  1  0  0  0  0
 44 47  1  0  0  0  0
 44 48  1  0  0  0  0
 45 51  1  0  0  0  0
 46 52  1  0  0  0  0
 47 54  1  0  0  0  0
 48 69  1  0  0  0  0
 49 70  1  0  0  0  0
 50 54  1  0  0  0  0
 50 69  1  0  0  0  0
 51 70  1  0  0  0  0
 52 73  1  0  0  0  0
 53 68  1  0  0  0  0
 54 67  1  0  0  0  0
 55 64  1  0  0  0  0
 56 65  1  0  0  0  0
 57 65  1  0  0  0  0
 58 65  1  0  0  0  0
 59 75  1  0  0  0  0
 60 76  1  0  0  0  0
 61 62  1  0  0  0  0
 61 76  1  0  0  0  0
 62 83  1  0  0  0  0
 63 65  1  0  0  0  0
 63 74  1  0  0  0  0
 64 75  1  0  0  0  0
 66 67  1  0  0  0  0
M  CHG  2  75   1  76   1
M  ISO  4  38 100  62 101  70 100  83 101
M  END
> <Batch ID>
0003

> <Smiles>
CNC(C)C(=O)NC(C(=O)N1Cc2cc([101O:1][101CH2:1]CNCc3ccc(C4CCC[100N:0]4[100C:0](=O)N4CCCC(n5nc(-c6ccc(Oc7ccc(F)cc7F)cc6)c(C(N)=O)c5N)C4)cc3)ccc2CC1C(=O)NC1CCCc2ccccc21)C(C)(C)C

> <Shape>
0.279

> <Color>
0.182

> <Negative vol penalty>
0.000

$$$$

  -OEChem-04042320203D

 84 93  0     1  0  0  0  0  0999 V2000
  -17.1662  -30.0216   23.7447 C   0  0  0  0  0  0  0  0  0  0  0  0
  -18.4688  -30.5068   23.6879 C   0  0  0  0  0  0  0  0  0  0  0  0
  -26.7139  -13.0164   20.9925 C   0  0  0  0  0  0  0  0  0  0  0  0
  -26.9084  -13.0201   18.5843 C   0  0  0  0  0  0  0  0  0  0  0  0
  -30.0517  -23.9853   25.1187 C   0  0  0  0  0  0  0  0  0  0  0  0
  -16.9110  -28.6789   23.4692 C   0  0  0  0  0  0  0  0  0  0  0  0
  -19.5172  -29.6492   23.3566 C   0  0  0  0  0  0  0  0  0  0  0  0
  -29.3400  -22.9538   25.7319 C   0  0  0  0  0  0  0  0  0  0  0  0
  -25.8483  -29.6061   20.0051 C   0  0  0  0  0  0  0  0  0  0  0  0
  -26.1639  -11.7355   20.9461 C   0  0  0  0  0  0  0  0  0  0  0  0
  -26.3584  -11.7391   18.5380 C   0  0  0  0  0  0  0  0  0  0  0  0
  -27.1746  -29.2300   20.2132 C   0  0  0  0  0  0  0  0  0  0  0  0
  -23.1661  -10.3361   20.2538 C   0  0  0  0  0  0  0  0  0  0  0  0
  -22.0401  -10.0863   21.0383 C   0  0  0  0  0  0  0  0  0  0  0  0
  -29.1155  -23.3949   22.9505 C   0  0  0  0  0  0  0  0  0  0  0  0
  -26.6047  -26.9475   19.6796 C   0  0  0  0  0  0  0  0  0  0  0  0
  -23.2467   -8.3586   22.2200 C   0  0  0  0  0  0  0  0  0  0  0  0
  -27.0862  -13.6588   19.8116 C   0  0  0  0  0  0  0  0  0  0  0  0
  -29.9398  -24.2039   23.7379 C   0  0  0  0  0  0  0  0  0  0  0  0
  -29.0162  -15.3195   19.9691 C   0  0  0  0  0  0  0  0  0  0  0  0
  -17.9556  -27.8066   23.1249 C   0  0  0  0  0  0  0  0  0  0  0  0
  -24.8864  -28.6522   19.6427 C   0  0  0  0  0  0  0  0  0  0  0  0
  -19.2759  -28.2932   23.0775 C   0  0  0  0  0  0  0  0  0  0  0  0
  -28.5314  -22.1510   24.9428 C   0  0  0  0  0  0  0  0  0  0  0  0
  -25.2674  -27.3145   19.4650 C   0  0  0  0  0  0  0  0  0  0  0  0
  -28.4157  -22.3688   23.5687 C   0  0  0  0  0  0  0  0  0  0  0  0
  -25.9861  -11.0968   19.7189 C   0  0  0  0  0  0  0  0  0  0  0  0
  -27.5524  -27.9000   20.0533 C   0  0  0  0  0  0  0  0  0  0  0  0
  -24.3324   -9.5970   20.4524 C   0  0  0  0  0  0  0  0  0  0  0  0
  -22.0804   -9.0976   22.0214 C   0  0  0  0  0  0  0  0  0  0  0  0
  -24.3726   -8.6083   21.4355 C   0  0  0  0  0  0  0  0  0  0  0  0
  -27.6539  -14.9823   19.8588 C   0  0  0  0  0  0  0  0  0  0  0  0
  -29.0309  -16.6929   19.9716 C   0  0  0  0  0  0  0  0  0  0  0  0
  -30.6875  -25.2787   23.1224 C   0  0  0  0  0  0  0  0  0  0  0  0
  -30.1656  -14.4674   20.0611 C   0  0  0  0  0  0  0  0  0  0  0  0
  -22.2122  -27.5503   20.9610 C   0  0  0  0  0  0  0  0  0  0  0  0
  -21.9427  -25.9583   18.1476 C   0  0  0  0  0  0  0  0  0  0  0  0
  -23.4866  -24.6500   15.3996 C   0  0  0  0  0  0  0  0  0  0  0  0
  -26.9521  -21.5473   21.7354 C   0  0  0  0  0  0  0  0  0  0  0  0
  -17.6368  -26.3527   22.8817 C   0  0  0  0  0  0  0  0  0  0  0  0
  -23.4653  -29.0787   19.3959 C   0  0  0  0  0  0  0  0  0  0  0  0
  -27.6389  -21.0408   25.3953 C   0  0  0  0  0  0  0  0  0  0  0  0
  -24.2773  -26.2555   19.0570 C   0  0  0  0  0  0  0  0  0  0  0  0
  -18.7557  -25.5941   22.1725 C   0  0  0  0  0  0  0  0  0  0  0  0
  -25.4096  -20.0430   18.9370 C   0  0  0  0  0  0  0  0  0  0  0  0
  -20.1034  -25.9074   22.8147 C   0  0  0  0  0  0  0  0  0  0  0  0
  -25.9353  -18.6100   18.9465 C   0  0  0  0  0  0  0  0  0  0  0  0
  -27.1829  -20.4452   24.0572 C   0  0  0  0  0  0  0  0  0  0  0  0
  -25.1623  -20.5369   20.3558 C   0  0  0  0  0  0  0  0  0  0  0  0
  -26.9479  -19.0581   21.2422 C   0  0  0  0  0  0  0  0  0  0  0  0
  -20.4367  -27.3996   22.6976 C   0  0  1  0  0  0  0  0  0  0  0  0
  -22.4659  -27.9339   19.5306 C   0  0  1  0  0  0  0  0  0  0  0  0
  -27.1912  -18.4993   19.8251 C   0  0  1  0  0  0  0  0  0  0  0  0
  -23.0088  -23.3745   13.2920 C   0  0  0  0  0  0  0  0  0  0  0  0
  -21.6375  -23.3935   19.7720 C   0  0  0  0  0  0  0  0  0  0  0  0
  -22.1177  -22.0970   17.6847 C   0  0  0  0  0  0  0  0  0  0  0  0
  -20.1071  -23.5689   17.8018 C   0  0  0  0  0  0  0  0  0  0  0  0
  -24.4962  -26.8526   13.7001 C   0  0  0  0  0  0  0  0  0  0  0  0
  -30.6690  -27.4045   21.8171 C   0  0  0  0  0  0  0  0  0  0  0  0
  -29.5969  -28.2837   21.2059 C   0  0  0  0  0  0  0  0  0  1  0  0
  -22.4017  -24.6164   17.6304 C   0  0  1  0  0  0  0  0  0  0  0  0
  -23.1644  -24.7510   13.9196 C   0  0  2  0  0  0  0  0  0  0  0  0
  -21.5845  -23.4383   18.2318 C   0  0  0  0  0  0  0  0  0  0  0  0
  -26.8607  -16.0550   19.7958 N   0  0  0  0  0  0  0  0  0  0  0  0
  -27.7273  -17.0798   19.8670 N   0  0  0  0  0  0  0  0  0  0  0  0
  -27.5399  -21.4190   22.9957 N   0  0  0  0  0  0  0  0  0  0  0  0
  -22.8986  -26.7210   18.8336 N   0  0  0  0  0  0  0  0  0  0  0  0
  -26.3536  -20.3996   21.1949 N   0  0  0  0  0  0  0  0  0  0  0  0
  -30.0317  -17.5952   20.0531 N   0  0  0  0  0  0  0  0  0  0  0  0
  -32.0325  -25.2746   23.2022 N   0  0  0  0  0  0  0  0  0  0  0  0
  -29.9715  -13.0794   20.0441 N   0  0  0  0  0  0  0  0  0  0  0  0
  -20.8997  -27.7109   21.3622 N   0  0  0  0  0  0  0  0  0  0  0  0
  -22.3474  -24.6996   16.1749 N   0  0  0  0  0  0  0  0  0  0  0  0
  -30.0248  -26.2682   22.4807 N   0  3  0  0  0  0  0  0  0  0  0  0
  -24.2510  -25.4750   13.2011 N   0  3  0  0  0  0  0  0  0  0  0  0
  -31.3290  -14.9232   20.1722 O   0  0  0  0  0  0  0  0  0  0  0  0
  -23.1383  -27.1378   21.6493 O   0  0  0  0  0  0  0  0  0  0  0  0
  -20.7810  -26.3196   17.9442 O   0  0  0  0  0  0  0  0  0  0  0  0
  -24.6338  -24.5347   15.8252 O   0  0  0  0  0  0  0  0  0  0  0  0
  -26.8907  -22.6307   21.1411 O   0  0  0  0  0  0  0  0  0  0  0  0
  -25.4497   -9.8467   19.6733 O   0  0  0  0  0  0  0  0  0  0  0  0
  -28.8554  -27.5275   20.2579 O   0  0  0  0  0  0  0  0  0  1  0  0
  -20.9995   -8.8589   22.7756 F   0  0  0  0  0  0  0  0  0  0  0  0
  -25.4906   -7.8959   21.6317 F   0  0  0  0  0  0  0  0  0  0  0  0
  1  2  1  0  0  0  0
  1  6  2  0  0  0  0
  2  7  2  0  0  0  0
  3 10  2  0  0  0  0
  3 18  1  0  0  0  0
  4 11  1  0  0  0  0
  4 18  2  0  0  0  0
  5  8  2  0  0  0  0
  5 19  1  0  0  0  0
  6 21  1  0  0  0  0
  7 23  1  0  0  0  0
  8 24  1  0  0  0  0
  9 12  2  0  0  0  0
  9 22  1  0  0  0  0
 10 27  1  0  0  0  0
 11 27  2  0  0  0  0
 12 28  1  0  0  0  0
 13 14  2  0  0  0  0
 13 29  1  0  0  0  0
 14 30  1  0  0  0  0
 15 19  2  0  0  0  0
 15 26  1  0  0  0  0
 16 25  1  0  0  0  0
 16 28  2  0  0  0  0
 17 30  2  0  0  0  0
 17 31  1  0  0  0  0
 18 32  1  0  0  0  0
 19 34  1  0  0  0  0
 20 32  1  0  0  0  0
 20 33  2  0  0  0  0
 20 35  1  0  0  0  0
 21 23  2  0  0  0  0
 21 40  1  0  0  0  0
 22 25  2  0  0  0  0
 22 41  1  0  0  0  0
 23 51  1  0  0  0  0
 24 26  2  0  0  0  0
 24 42  1  0  0  0  0
 25 43  1  0  0  0  0
 26 66  1  0  0  0  0
 27 81  1  0  0  0  0
 28 82  1  0  0  0  0
 29 31  2  0  0  0  0
 29 81  1  0  0  0  0
 30 83  1  0  0  0  0
 31 84  1  0  0  0  0
 32 64  2  0  0  0  0
 33 65  1  0  0  0  0
 33 69  1  0  0  0  0
 34 70  1  0  0  0  0
 34 74  2  0  0  0  0
 35 71  1  0  0  0  0
 35 76  2  0  0  0  0
 36 52  1  0  0  0  0
 36 72  1  0  0  0  0
 36 77  2  0  0  0  0
 37 61  1  0  0  0  0
 37 67  1  0  0  0  0
 37 78  2  0  0  0  0
 38 62  1  0  0  0  0
 38 73  1  0  0  0  0
 38 79  2  0  0  0  0
 39 66  1  0  0  0  0
 39 68  1  0  0  0  0
 39 80  2  0  0  0  0
 40 44  1  0  0  0  0
 41 52  1  0  0  0  0
 42 48  1  0  0  0  0
 43 67  1  0  0  0  0
 44 46  1  0  0  0  0
 45 47  1  0  0  0  0
 45 49  1  0  0  0  0
 46 51  1  0  0  0  0
 47 53  1  0  0  0  0
 48 66  1  0  0  0  0
 49 68  1  0  0  0  0
 50 53  1  0  0  0  0
 50 68  1  0  0  0  0
 51 72  1  0  0  0  0
 52 67  1  0  0  0  0
 53 65  1  0  0  0  0
 54 62  1  0  0  0  0
 55 63  1  0  0  0  0
 56 63  1  0  0  0  0
 57 63  1  0  0  0  0
 58 75  1  0  0  0  0
 59 60  1  0  0  0  0
 59 74  1  0  0  0  0
 60 82  1  0  0  0  0
 61 63  1  0  0  0  0
 61 73  1  0  0  0  0
 62 75  1  0  0  0  0
 64 65  1  0  0  0  0
M  CHG  2  74   1  75   1
M  ISO  4  39 100  60 101  66 100  82 101
M  END
> <Batch ID>
0003

> <Smiles>
CNC(C)C(=O)NC(C(=O)N1Cc2cc([101O:1][101CH2:1]CNC(=N)c3ccc4c(c3)[100N:0]([100C:0](=O)N3CCCC(n5nc(-c6ccc(Oc7ccc(F)cc7F)cc6)c(C(N)=O)c5N)C3)CC4)ccc2CC1C(=O)NC1CCCc2ccccc21)C(C)(C)C

> <Shape>
0.233

> <Color>
0.105

> <Negative vol penalty>
0.000

$$$$

  -OEChem-04042320203D

 90 99  0     1  0  0  0  0  0999 V2000
  -23.8973  -16.9119   23.2003 C   0  0  0  0  0  0  0  0  0  0  0  0
  -23.9592  -16.0250   24.2704 C   0  0  0  0  0  0  0  0  0  0  0  0
  -23.2888   -9.7995   19.9125 C   0  0  0  0  0  0  0  0  0  0  0  0
  -23.7390   -9.9397   22.2821 C   0  0  0  0  0  0  0  0  0  0  0  0
  -24.8458  -17.9269   23.0819 C   0  0  0  0  0  0  0  0  0  0  0  0
  -24.9703  -16.1521   25.2222 C   0  0  0  0  0  0  0  0  0  0  0  0
  -23.2428  -15.7122   29.9622 C   0  0  0  0  0  0  0  0  0  0  0  0
  -30.9709  -11.9591   27.2949 C   0  0  0  0  0  0  0  0  0  0  0  0
  -29.3616  -13.6664   26.7185 C   0  0  0  0  0  0  0  0  0  0  0  0
  -31.5556  -12.0848   26.0348 C   0  0  0  0  0  0  0  0  0  0  0  0
  -29.9463  -13.7921   25.4584 C   0  0  0  0  0  0  0  0  0  0  0  0
  -22.5624   -8.6269   20.1199 C   0  0  0  0  0  0  0  0  0  0  0  0
  -23.0126   -8.7671   22.4894 C   0  0  0  0  0  0  0  0  0  0  0  0
  -22.9776  -14.4245   30.4263 C   0  0  0  0  0  0  0  0  0  0  0  0
  -20.9733   -6.0067   23.6892 C   0  0  0  0  0  0  0  0  0  0  0  0
  -20.0714   -5.9812   24.7530 C   0  0  0  0  0  0  0  0  0  0  0  0
  -25.0910  -14.4150   31.5893 C   0  0  0  0  0  0  0  0  0  0  0  0
  -18.8621   -7.8284   23.7720 C   0  0  0  0  0  0  0  0  0  0  0  0
  -23.8771  -10.4559   20.9936 C   0  0  0  0  0  0  0  0  0  0  0  0
  -24.1365  -12.9859   20.7955 C   0  0  0  0  0  0  0  0  0  0  0  0
  -25.8634  -18.0724   24.0380 C   0  0  0  0  0  0  0  0  0  0  0  0
  -24.4410  -16.3578   30.2998 C   0  0  0  0  0  0  0  0  0  0  0  0
  -25.9341  -17.1692   25.1158 C   0  0  0  0  0  0  0  0  0  0  0  0
  -25.3679  -15.7118   31.1303 C   0  0  0  0  0  0  0  0  0  0  0  0
  -29.8739  -12.7499   27.6368 C   0  0  0  0  0  0  0  0  0  0  0  0
  -31.0433  -13.0013   25.1165 C   0  0  0  0  0  0  0  0  0  0  0  0
  -22.4243   -8.1107   21.4083 C   0  0  0  0  0  0  0  0  0  0  0  0
  -23.9030  -13.7746   31.2376 C   0  0  0  0  0  0  0  0  0  0  0  0
  -20.8196   -6.9431   22.6668 C   0  0  0  0  0  0  0  0  0  0  0  0
  -19.0158   -6.8920   24.7944 C   0  0  0  0  0  0  0  0  0  0  0  0
  -19.7640   -7.8539   22.7082 C   0  0  0  0  0  0  0  0  0  0  0  0
  -24.6281  -11.6669   20.7800 C   0  0  0  0  0  0  0  0  0  0  0  0
  -25.2380  -13.7659   20.5410 C   0  0  0  0  0  0  0  0  0  0  0  0
  -22.8034  -13.4635   21.0201 C   0  0  0  0  0  0  0  0  0  0  0  0
  -26.9254  -17.4754   28.6621 C   0  0  0  0  0  0  0  0  0  0  0  0
  -27.0962  -11.3799   28.7845 C   0  0  0  0  0  0  0  0  0  0  0  0
  -27.8356  -18.6014   31.5648 C   0  0  0  0  0  0  0  0  0  0  0  0
  -27.6552  -18.3349   34.9624 C   0  0  0  0  0  0  0  0  0  0  0  0
  -31.1088  -12.9230   21.3619 C   0  0  0  0  0  0  0  0  0  0  0  0
  -26.8940  -19.1559   23.8421 C   0  0  0  0  0  0  0  0  0  0  0  0
  -24.7001  -17.7571   29.8129 C   0  0  0  0  0  0  0  0  0  0  0  0
  -26.6601  -16.3692   31.5382 C   0  0  0  0  0  0  0  0  0  0  0  0
  -27.7120  -19.4525   25.0964 C   0  0  0  0  0  0  0  0  0  0  0  0
  -29.4606  -13.6629   18.2939 C   0  0  0  0  0  0  0  0  0  0  0  0
  -25.0383   -9.3608   27.1411 C   0  0  0  0  0  0  0  0  0  0  0  0
  -28.1882  -18.1552   25.7422 C   0  0  0  0  0  0  0  0  0  0  0  0
  -26.4525   -9.2230   27.6774 C   0  0  0  0  0  0  0  0  0  0  0  0
  -27.9909  -13.3543   18.5845 C   0  0  0  0  0  0  0  0  0  0  0  0
  -30.3938  -12.6834   19.0023 C   0  0  0  0  0  0  0  0  0  0  0  0
  -28.7067  -12.2536   20.7467 C   0  0  0  0  0  0  0  0  0  0  0  0
  -24.1975   -9.3458   28.3979 C   0  0  0  0  0  0  0  0  0  0  0  0
  -27.0011  -17.2897   26.1820 C   0  0  1  0  0  0  0  0  0  0  0  0
  -26.1819  -18.1197   29.7977 C   0  0  1  0  0  0  0  0  0  0  0  0
  -26.4666  -10.0378   28.9678 C   0  0  2  0  0  0  0  0  0  0  0  0
  -27.7289  -13.2489   20.0990 C   0  0  2  0  0  0  0  0  0  0  0  0
  -28.5391  -19.3726   37.0694 C   0  0  0  0  0  0  0  0  0  0  0  0
  -30.5097  -17.1974   31.1317 C   0  0  0  0  0  0  0  0  0  0  0  0
  -30.9607  -17.4515   33.5813 C   0  0  0  0  0  0  0  0  0  0  0  0
  -30.6803  -19.4752   32.1500 C   0  0  0  0  0  0  0  0  0  0  0  0
  -24.9411  -19.0967   35.8634 C   0  0  0  0  0  0  0  0  0  0  0  0
  -29.2440  -12.6153   28.9930 C   0  0  0  0  0  0  0  0  0  0  0  0
  -31.6701  -13.1363   23.7699 C   0  0  0  0  0  0  0  0  0  0  0  0
  -23.2433  -10.2290   31.0974 C   0  0  0  0  0  0  0  0  0  0  0  0
  -24.7055   -9.9425   30.7907 C   0  0  0  0  0  0  0  0  0  0  0  0
  -22.8407  -11.6799   30.8640 C   0  0  0  0  0  0  0  0  0  1  0  0
  -28.6591  -18.0634   32.7100 C   0  0  1  0  0  0  0  0  0  0  0  0
  -27.4169  -19.3740   36.0430 C   0  0  2  0  0  0  0  0  0  0  0  0
  -30.1790  -18.0334   32.3842 C   0  0  0  0  0  0  0  0  0  0  0  0
  -25.9398  -11.6083   20.5348 N   0  0  0  0  0  0  0  0  0  0  0  0
  -26.2817  -12.9003   20.3938 N   0  0  0  0  0  0  0  0  0  0  0  0
  -26.8705  -17.7354   31.0316 N   0  0  0  0  0  0  0  0  0  0  0  0
  -30.0941  -12.6317   20.4353 N   0  0  0  0  0  0  0  0  0  0  0  0
  -25.4059  -15.1009   20.4308 N   0  0  0  0  0  0  0  0  0  0  0  0
  -21.7908  -12.5265   21.2672 N   0  0  0  0  0  0  0  0  0  0  0  0
  -26.4330  -17.7985   27.4120 N   0  0  0  0  0  0  0  0  0  0  0  0
  -28.4410  -11.4183   29.1000 N   0  0  0  0  0  0  0  0  0  0  0  0
  -28.3136  -18.8701   33.8755 N   0  0  0  0  0  0  0  0  0  0  0  0
  -30.7388  -12.8572   22.6996 N   0  0  0  0  0  0  0  0  0  0  0  0
  -25.0015  -10.2012   29.3479 N   0  3  2  0  0  0  0  0  0  0  0  0
  -26.1334  -19.1015   36.7496 N   0  3  0  0  0  0  0  0  0  0  0  0
  -22.5154  -14.6839   20.9860 O   0  0  0  0  0  0  0  0  0  0  0  0
  -27.8764  -16.7408   28.9021 O   0  0  0  0  0  0  0  0  0  0  0  0
  -26.4155  -12.3170   28.3843 O   0  0  0  0  0  0  0  0  0  0  0  0
  -28.0362  -19.7503   31.1631 O   0  0  0  0  0  0  0  0  0  0  0  0
  -27.2968  -17.1645   35.0730 O   0  0  0  0  0  0  0  0  0  0  0  0
  -32.2579  -13.2249   21.0221 O   0  0  0  0  0  0  0  0  0  0  0  0
  -21.7153   -6.9667   21.6110 O   0  0  0  0  0  0  0  0  0  0  0  0
  -23.6470  -12.5175   31.6914 O   0  0  0  0  0  0  0  0  0  1  0  0
  -18.1489   -6.8663   25.8152 F   0  0  0  0  0  0  0  0  0  0  0  0
  -19.6105   -8.7551   21.7284 F   0  0  0  0  0  0  0  0  0  0  0  0
  1  2  1  0  0  0  0
  1  5  2  0  0  0  0
  2  6  2  0  0  0  0
  3 12  2  0  0  0  0
  3 19  1  0  0  0  0
  4 13  1  0  0  0  0
  4 19  2  0  0  0  0
  5 21  1  0  0  0  0
  6 23  1  0  0  0  0
  7 14  2  0  0  0  0
  7 22  1  0  0  0  0
  8 10  2  0  0  0  0
  8 25  1  0  0  0  0
  9 11  1  0  0  0  0
  9 25  2  0  0  0  0
 10 26  1  0  0  0  0
 11 26  2  0  0  0  0
 12 27  1  0  0  0  0
 13 27  2  0  0  0  0
 14 28  1  0  0  0  0
 15 16  2  0  0  0  0
 15 29  1  0  0  0  0
 16 30  1  0  0  0  0
 17 24  1  0  0  0  0
 17 28  2  0  0  0  0
 18 30  2  0  0  0  0
 18 31  1  0  0  0  0
 19 32  1  0  0  0  0
 20 32  1  0  0  0  0
 20 33  2  0  0  0  0
 20 34  1  0  0  0  0
 21 23  2  0  0  0  0
 21 40  1  0  0  0  0
 22 24  2  0  0  0  0
 22 41  1  0  0  0  0
 23 52  1  0  0  0  0
 24 42  1  0  0  0  0
 25 61  1  0  0  0  0
 26 62  1  0  0  0  0
 27 87  1  0  0  0  0
 28 88  1  0  0  0  0
 29 31  2  0  0  0  0
 29 87  1  0  0  0  0
 30 89  1  0  0  0  0
 31 90  1  0  0  0  0
 32 69  2  0  0  0  0
 33 70  1  0  0  0  0
 33 73  1  0  0  0  0
 34 74  1  0  0  0  0
 34 81  2  0  0  0  0
 35 53  1  0  0  0  0
 35 75  1  0  0  0  0
 35 82  2  0  0  0  0
 36 54  1  0  0  0  0
 36 76  1  0  0  0  0
 36 83  2  0  0  0  0
 37 66  1  0  0  0  0
 37 71  1  0  0  0  0
 37 84  2  0  0  0  0
 38 67  1  0  0  0  0
 38 77  1  0  0  0  0
 38 85  2  0  0  0  0
 39 72  1  0  0  0  0
 39 78  1  0  0  0  0
 39 86  2  0  0  0  0
 40 43  1  0  0  0  0
 41 53  1  0  0  0  0
 42 71  1  0  0  0  0
 43 46  1  0  0  0  0
 44 48  1  0  0  0  0
 44 49  1  0  0  0  0
 45 47  1  0  0  0  0
 45 51  1  0  0  0  0
 46 52  1  0  0  0  0
 47 54  1  0  0  0  0
 48 55  1  0  0  0  0
 49 72  1  0  0  0  0
 50 55  1  0  0  0  0
 50 72  1  0  0  0  0
 51 79  1  0  0  0  0
 52 75  1  0  0  0  0
 53 71  1  0  0  0  0
 54 79  1  0  0  0  0
 55 70  1  0  0  0  0
 56 67  1  0  0  0  0
 57 68  1  0  0  0  0
 58 68  1  0  0  0  0
 59 68  1  0  0  0  0
 60 80  1  0  0  0  0
 61 76  1  0  0  0  0
 62 78  1  0  0  0  0
 63 64  1  0  0  0  0
 63 65  1  0  0  0  0
 64 79  1  0  0  0  0
 65 88  1  0  0  0  0
 66 68  1  0  0  0  0
 66 77  1  0  0  0  0
 67 80  1  0  0  0  0
 69 70  1  0  0  0  0
M  CHG  2  79   1  80   1
M  ISO  4  39 100  65 101  78 100  88 101
M  END
> <Batch ID>
0003

> <Smiles>
CNC(C)C(=O)NC(C(=O)N1Cc2cc([101O:1][101CH2:1]CCN3CCCC3C(=O)NCc3ccc(C[100NH:0][100C:0](=O)N4CCCC(n5nc(-c6ccc(Oc7ccc(F)cc7F)cc6)c(C(N)=O)c5N)C4)cc3)ccc2CC1C(=O)NC1CCCc2ccccc21)C(C)(C)C

> <Shape>
0.125

> <Color>
0.164

> <Negative vol penalty>
0.000

$$$$

  -OEChem-04042320203D

 81 89  0     1  0  0  0  0  0999 V2000
  -30.8568  -34.1415   21.5563 C   0  0  0  0  0  0  0  0  0  0  0  0
  -31.3039  -33.0315   22.2658 C   0  0  0  0  0  0  0  0  0  0  0  0
  -23.0693   -9.9291   19.9266 C   0  0  0  0  0  0  0  0  0  0  0  0
  -23.8387   -9.9054   22.2167 C   0  0  0  0  0  0  0  0  0  0  0  0
  -29.6337  -34.0943   20.8887 C   0  0  0  0  0  0  0  0  0  0  0  0
  -30.5275  -31.8740   22.3090 C   0  0  0  0  0  0  0  0  0  0  0  0
  -32.5427  -26.0926   22.4502 C   0  0  0  0  0  0  0  0  0  0  0  0
  -30.5722  -18.2794   24.0788 C   0  0  0  0  0  0  0  0  0  0  0  0
  -32.7440  -17.4120   23.4723 C   0  0  0  0  0  0  0  0  0  0  0  0
  -29.9709  -17.4109   23.1679 C   0  0  0  0  0  0  0  0  0  0  0  0
  -32.1427  -16.5434   22.5615 C   0  0  0  0  0  0  0  0  0  0  0  0
  -22.3135   -8.7820   20.1687 C   0  0  0  0  0  0  0  0  0  0  0  0
  -23.0829   -8.7584   22.4588 C   0  0  0  0  0  0  0  0  0  0  0  0
  -32.7188  -25.1859   23.4946 C   0  0  0  0  0  0  0  0  0  0  0  0
  -19.8485   -7.9912   23.0674 C   0  0  0  0  0  0  0  0  0  0  0  0
  -19.0960   -7.9485   24.2411 C   0  0  0  0  0  0  0  0  0  0  0  0
  -30.5560  -24.2285   23.0201 C   0  0  0  0  0  0  0  0  0  0  0  0
  -20.3185   -5.9902   24.9536 C   0  0  0  0  0  0  0  0  0  0  0  0
  -23.8320  -10.4908   20.9506 C   0  0  0  0  0  0  0  0  0  0  0  0
  -24.2018  -13.0130   20.8533 C   0  0  0  0  0  0  0  0  0  0  0  0
  -28.8464  -32.9324   20.9157 C   0  0  0  0  0  0  0  0  0  0  0  0
  -31.3653  -26.0812   21.6887 C   0  0  0  0  0  0  0  0  0  0  0  0
  -29.2921  -31.8117   21.6423 C   0  0  0  0  0  0  0  0  0  0  0  0
  -30.3685  -25.1345   21.9650 C   0  0  0  0  0  0  0  0  0  0  0  0
  -31.9587  -18.2800   24.2310 C   0  0  0  0  0  0  0  0  0  0  0  0
  -30.7562  -16.5429   22.4092 C   0  0  0  0  0  0  0  0  0  0  0  0
  -22.3203   -8.1967   21.4348 C   0  0  0  0  0  0  0  0  0  0  0  0
  -31.7242  -24.2555   23.7815 C   0  0  0  0  0  0  0  0  0  0  0  0
  -20.8359   -7.0333   22.8368 C   0  0  0  0  0  0  0  0  0  0  0  0
  -19.3310   -6.9480   25.1842 C   0  0  0  0  0  0  0  0  0  0  0  0
  -21.0709   -6.0329   23.7799 C   0  0  0  0  0  0  0  0  0  0  0  0
  -24.6134  -11.6753   20.7010 C   0  0  0  0  0  0  0  0  0  0  0  0
  -25.3008  -13.7536   20.4926 C   0  0  0  0  0  0  0  0  0  0  0  0
  -22.9389  -13.5390   21.2826 C   0  0  0  0  0  0  0  0  0  0  0  0
  -29.0210  -28.1595   21.1517 C   0  0  0  0  0  0  0  0  0  0  0  0
  -28.0368  -25.9083   19.0337 C   0  0  0  0  0  0  0  0  0  0  0  0
  -28.0451  -22.6335   18.0733 C   0  0  0  0  0  0  0  0  0  0  0  0
  -30.7791  -14.7359   20.6540 C   0  0  0  0  0  0  0  0  0  0  0  0
  -27.5094  -32.9450   20.2180 C   0  0  0  0  0  0  0  0  0  0  0  0
  -31.2021  -27.0484   20.5484 C   0  0  0  0  0  0  0  0  0  0  0  0
  -29.0947  -25.0674   21.1642 C   0  0  0  0  0  0  0  0  0  0  0  0
  -26.9216  -31.5527   20.0026 C   0  0  0  0  0  0  0  0  0  0  0  0
  -29.6277  -12.3577   18.2675 C   0  0  0  0  0  0  0  0  0  0  0  0
  -27.0260  -30.7257   21.2801 C   0  0  0  0  0  0  0  0  0  0  0  0
  -28.1867  -12.0782   18.7004 C   0  0  0  0  0  0  0  0  0  0  0  0
  -30.5503  -12.5646   19.4674 C   0  0  0  0  0  0  0  0  0  0  0  0
  -28.6574  -13.2971   20.8636 C   0  0  0  0  0  0  0  0  0  0  0  0
  -28.4899  -30.5295   21.6922 C   0  0  1  0  0  0  0  0  0  0  0  0
  -29.7435  -27.2831   20.1680 C   0  0  1  0  0  0  0  0  0  0  0  0
  -27.6778  -13.1462   19.6884 C   0  0  2  0  0  0  0  0  0  0  0  0
  -27.1196  -21.0915   16.3231 C   0  0  0  0  0  0  0  0  0  0  0  0
  -25.3163  -25.9791   20.4135 C   0  0  0  0  0  0  0  0  0  0  0  0
  -24.7660  -23.8125   19.2860 C   0  0  0  0  0  0  0  0  0  0  0  0
  -25.2172  -25.8490   17.9179 C   0  0  0  0  0  0  0  0  0  0  0  0
  -30.7505  -21.8957   17.1269 C   0  0  0  0  0  0  0  0  0  0  0  0
  -32.6054  -19.2143   25.2107 C   0  0  0  0  0  0  0  0  0  0  0  0
  -33.2216  -21.5830   25.7091 C   0  0  0  0  0  0  0  0  0  0  0  0
  -33.2304  -22.9709   25.0995 C   0  0  0  0  0  0  0  0  0  1  0  0
  -27.1342  -24.7001   19.0999 C   0  0  1  0  0  0  0  0  0  0  0  0
  -28.2868  -21.9799   16.7246 C   0  0  2  0  0  0  0  0  0  0  0  0
  -25.6315  -25.0874   19.1959 C   0  0  0  0  0  0  0  0  0  0  0  0
  -25.8753  -11.5693   20.2765 N   0  0  0  0  0  0  0  0  0  0  0  0
  -26.2662  -12.8497   20.1588 N   0  0  0  0  0  0  0  0  0  0  0  0
  -28.9793  -26.0384   20.0635 N   0  0  0  0  0  0  0  0  0  0  0  0
  -30.0067  -13.5931   20.3570 N   0  0  0  0  0  0  0  0  0  0  0  0
  -25.5259  -15.0832   20.4315 N   0  0  0  0  0  0  0  0  0  0  0  0
  -21.9182  -12.6380   21.6154 N   0  0  0  0  0  0  0  0  0  0  0  0
  -30.1456  -15.6602   21.4840 N   0  0  0  0  0  0  0  0  0  0  0  0
  -29.1127  -29.5102   20.8750 N   0  0  0  0  0  0  0  0  0  0  0  0
  -27.4666  -23.8782   17.9413 N   0  0  0  0  0  0  0  0  0  0  0  0
  -29.5202  -21.1446   16.7674 N   0  3  0  0  0  0  0  0  0  0  0  0
  -32.6412  -20.6238   24.7357 N   0  3  0  0  0  0  0  0  0  0  0  0
  -22.7168  -14.7716   21.3527 O   0  0  0  0  0  0  0  0  0  0  0  0
  -28.4232  -27.6480   22.0912 O   0  0  0  0  0  0  0  0  0  0  0  0
  -27.9150  -26.7036   18.0986 O   0  0  0  0  0  0  0  0  0  0  0  0
  -28.3367  -22.0924   19.1376 O   0  0  0  0  0  0  0  0  0  0  0  0
  -31.9081  -14.8964   20.1833 O   0  0  0  0  0  0  0  0  0  0  0  0
  -21.5827   -7.0775   21.6714 O   0  0  0  0  0  0  0  0  0  0  0  0
  -31.8932  -23.3698   24.8007 O   0  0  0  0  0  0  0  0  0  1  0  0
  -18.6094   -6.9081   26.3119 F   0  0  0  0  0  0  0  0  0  0  0  0
  -22.0190   -5.1106   23.5644 F   0  0  0  0  0  0  0  0  0  0  0  0
  1  2  1  0  0  0  0
  1  5  2  0  0  0  0
  2  6  2  0  0  0  0
  3 12  2  0  0  0  0
  3 19  1  0  0  0  0
  4 13  1  0  0  0  0
  4 19  2  0  0  0  0
  5 21  1  0  0  0  0
  6 23  1  0  0  0  0
  7 14  2  0  0  0  0
  7 22  1  0  0  0  0
  8 10  2  0  0  0  0
  8 25  1  0  0  0  0
  9 11  1  0  0  0  0
  9 25  2  0  0  0  0
 10 26  1  0  0  0  0
 11 26  2  0  0  0  0
 12 27  1  0  0  0  0
 13 27  2  0  0  0  0
 14 28  1  0  0  0  0
 15 16  2  0  0  0  0
 15 29  1  0  0  0  0
 16 30  1  0  0  0  0
 17 24  1  0  0  0  0
 17 28  2  0  0  0  0
 18 30  2  0  0  0  0
 18 31  1  0  0  0  0
 19 32  1  0  0  0  0
 20 32  1  0  0  0  0
 20 33  2  0  0  0  0
 20 34  1  0  0  0  0
 21 23  2  0  0  0  0
 21 39  1  0  0  0  0
 22 24  2  0  0  0  0
 22 40  1  0  0  0  0
 23 48  1  0  0  0  0
 24 41  1  0  0  0  0
 25 56  1  0  0  0  0
 26 68  1  0  0  0  0
 27 78  1  0  0  0  0
 28 79  1  0  0  0  0
 29 31  2  0  0  0  0
 29 78  1  0  0  0  0
 30 80  1  0  0  0  0
 31 81  1  0  0  0  0
 32 62  2  0  0  0  0
 33 63  1  0  0  0  0
 33 66  1  0  0  0  0
 34 67  1  0  0  0  0
 34 73  2  0  0  0  0
 35 49  1  0  0  0  0
 35 69  1  0  0  0  0
 35 74  2  0  0  0  0
 36 59  1  0  0  0  0
 36 64  1  0  0  0  0
 36 75  2  0  0  0  0
 37 60  1  0  0  0  0
 37 70  1  0  0  0  0
 37 76  2  0  0  0  0
 38 65  1  0  0  0  0
 38 68  1  0  0  0  0
 38 77  2  0  0  0  0
 39 42  1  0  0  0  0
 40 49  1  0  0  0  0
 41 64  1  0  0  0  0
 42 44  1  0  0  0  0
 43 45  1  0  0  0  0
 43 46  1  0  0  0  0
 44 48  1  0  0  0  0
 45 50  1  0  0  0  0
 46 65  1  0  0  0  0
 47 50  1  0  0  0  0
 47 65  1  0  0  0  0
 48 69  1  0  0  0  0
 49 64  1  0  0  0  0
 50 63  1  0  0  0  0
 51 60  1  0  0  0  0
 52 61  1  0  0  0  0
 53 61  1  0  0  0  0
 54 61  1  0  0  0  0
 55 71  1  0  0  0  0
 56 72  1  0  0  0  0
 57 58  1  0  0  0  0
 57 72  1  0  0  0  0
 58 79  1  0  0  0  0
 59 61  1  0  0  0  0
 59 70  1  0  0  0  0
 60 71  1  0  0  0  0
 62 63  1  0  0  0  0
M  CHG  2  71   1  72   1
M  ISO  4  38 100  58 101  68 100  79 101
M  END
> <Batch ID>
0003

> <Smiles>
CNC(C)C(=O)NC(C(=O)N1Cc2cc([101O:1][101CH2:1]CNCc3ccc([100NH:0][100C:0](=O)N4CCCC(n5nc(-c6ccc(Oc7ccc(F)cc7F)cc6)c(C(N)=O)c5N)C4)cc3)ccc2CC1C(=O)NC1CCCc2ccccc21)C(C)(C)C

> <Shape>
0.247

> <Color>
0.199

> <Negative vol penalty>
0.000

$$$$

  -OEChem-04042320203D

 96105  0     1  0  0  0  0  0999 V2000
  -26.5187  -28.8506   18.6692 C   0  0  0  0  0  0  0  0  0  0  0  0
  -26.4198  -27.5059   19.0120 C   0  0  0  0  0  0  0  0  0  0  0  0
  -30.5690  -22.9634   20.1631 C   0  0  0  0  0  0  0  0  0  0  0  0
  -28.9747  -22.7719   18.3579 C   0  0  0  0  0  0  0  0  0  0  0  0
  -26.0693  -29.8293   19.5547 C   0  0  0  0  0  0  0  0  0  0  0  0
  -25.8725  -27.1392   20.2409 C   0  0  0  0  0  0  0  0  0  0  0  0
  -22.4088  -22.1404   21.4287 C   0  0  0  0  0  0  0  0  0  0  0  0
  -31.1991  -24.0135   19.4953 C   0  0  0  0  0  0  0  0  0  0  0  0
  -29.6047  -23.8221   17.6901 C   0  0  0  0  0  0  0  0  0  0  0  0
  -22.6901  -20.8891   21.9755 C   0  0  0  0  0  0  0  0  0  0  0  0
  -30.6823  -27.3184   19.0015 C   0  0  0  0  0  0  0  0  0  0  0  0
  -31.0251  -28.4471   19.7458 C   0  0  0  0  0  0  0  0  0  0  0  0
  -22.0377  -21.7000   24.1515 C   0  0  0  0  0  0  0  0  0  0  0  0
  -22.5214  -13.7116   23.0776 C   0  0  0  0  0  0  0  0  0  0  0  0
  -24.7113  -13.5303   22.0736 C   0  0  0  0  0  0  0  0  0  0  0  0
  -23.2977  -15.4200   21.5559 C   0  0  0  0  0  0  0  0  0  0  0  0
  -33.3501  -28.1145   19.1794 C   0  0  0  0  0  0  0  0  0  0  0  0
  -29.4569  -22.3426   19.5944 C   0  0  0  0  0  0  0  0  0  0  0  0
  -27.7481  -21.3501   21.2077 C   0  0  0  0  0  0  0  0  0  0  0  0
  -25.5073  -29.4740   20.7911 C   0  0  0  0  0  0  0  0  0  0  0  0
  -21.9489  -23.1861   22.2421 C   0  0  0  0  0  0  0  0  0  0  0  0
  -25.4164  -28.1141   21.1444 C   0  0  0  0  0  0  0  0  0  0  0  0
  -21.7468  -22.9621   23.6117 C   0  0  0  0  0  0  0  0  0  0  0  0
  -23.7225  -13.0212   22.9154 C   0  0  0  0  0  0  0  0  0  0  0  0
  -22.3089  -14.9109   22.3978 C   0  0  0  0  0  0  0  0  0  0  0  0
  -24.4989  -14.7297   21.3938 C   0  0  0  0  0  0  0  0  0  0  0  0
  -30.7169  -24.4429   18.2588 C   0  0  0  0  0  0  0  0  0  0  0  0
  -22.5067  -20.6695   23.3374 C   0  0  0  0  0  0  0  0  0  0  0  0
  -31.6734  -26.5876   18.3462 C   0  0  0  0  0  0  0  0  0  0  0  0
  -32.3589  -28.8452   19.8348 C   0  0  0  0  0  0  0  0  0  0  0  0
  -33.0072  -26.9857   18.4352 C   0  0  0  0  0  0  0  0  0  0  0  0
  -28.8060  -21.2575   20.2835 C   0  0  0  0  0  0  0  0  0  0  0  0
  -27.4934  -20.0499   21.5695 C   0  0  0  0  0  0  0  0  0  0  0  0
  -27.0574  -22.5080   21.6955 C   0  0  0  0  0  0  0  0  0  0  0  0
  -22.9611  -26.1139   23.0479 C   0  0  0  0  0  0  0  0  0  0  0  0
  -19.9946  -26.1599   24.5484 C   0  0  0  0  0  0  0  0  0  0  0  0
  -20.3191  -29.5292   24.9754 C   0  0  0  0  0  0  0  0  0  0  0  0
  -26.7515  -14.6875   20.2666 C   0  0  0  0  0  0  0  0  0  0  0  0
  -25.0788  -30.5693   21.7353 C   0  0  0  0  0  0  0  0  0  0  0  0
  -21.6224  -24.5201   21.6270 C   0  0  0  0  0  0  0  0  0  0  0  0
  -21.2518  -24.0502   24.5259 C   0  0  0  0  0  0  0  0  0  0  0  0
  -24.1679  -30.0825   22.8594 C   0  0  0  0  0  0  0  0  0  0  0  0
  -30.1064  -15.8087   20.6718 C   0  0  0  0  0  0  0  0  0  0  0  0
  -22.7741   -8.2838   20.6323 C   0  0  0  0  0  0  0  0  0  0  0  0
  -24.0456   -8.9828   20.1949 C   0  0  0  0  0  0  0  0  0  0  0  0
  -24.7278  -28.8099   23.4869 C   0  0  0  0  0  0  0  0  0  0  0  0
  -29.9802  -17.3338   20.6829 C   0  0  0  0  0  0  0  0  0  0  0  0
  -29.1225  -15.1652   19.6963 C   0  0  0  0  0  0  0  0  0  0  0  0
  -27.5940  -17.0879   19.8874 C   0  0  0  0  0  0  0  0  0  0  0  0
  -21.9673   -9.3766   21.3113 C   0  0  0  0  0  0  0  0  0  0  0  0
  -24.3603   -9.8685   21.3814 C   0  0  0  0  0  0  0  0  0  0  0  0
  -24.8060  -27.6757   22.4578 C   0  0  1  0  0  0  0  0  0  0  0  0
  -21.5873  -25.6655   22.6367 C   0  0  1  0  0  0  0  0  0  0  0  0
  -28.5204  -17.7768   20.9027 C   0  0  2  0  0  0  0  0  0  0  0  0
  -19.0305  -31.5555   25.7041 C   0  0  0  0  0  0  0  0  0  0  0  0
  -18.5100  -26.1701   21.8835 C   0  0  0  0  0  0  0  0  0  0  0  0
  -18.0135  -28.5965   22.2499 C   0  0  0  0  0  0  0  0  0  0  0  0
  -17.1371  -26.8911   23.8456 C   0  0  0  0  0  0  0  0  0  0  0  0
  -24.6626  -10.8341   25.7717 C   0  0  0  0  0  0  0  0  0  0  0  0
  -22.1906  -30.0604   27.2057 C   0  0  0  0  0  0  0  0  0  0  0  0
  -24.4059  -15.7192   25.3981 C   0  0  0  0  0  0  0  0  0  0  0  0
  -23.4654  -16.8968   25.1335 C   0  0  0  0  0  0  0  0  0  0  0  0
  -23.7211  -14.3825   25.1051 C   0  0  0  0  0  0  0  0  0  0  0  0
  -24.1428  -18.2319   25.4561 C   0  0  0  0  0  0  0  0  0  0  0  0
  -24.6516  -13.2084   25.4044 C   0  0  0  0  0  0  0  0  0  0  0  0
  -22.9049  -10.6695   23.2757 C   0  0  0  0  0  0  0  0  0  0  0  0
  -23.2136  -19.4189   25.2328 C   0  0  0  0  0  0  0  0  0  1  0  0
  -23.9530  -11.7187   23.6536 C   0  0  2  0  0  0  0  0  0  0  0  0
  -19.6056  -27.4378   23.8479 C   0  0  1  0  0  0  0  0  0  0  0  0
  -19.9632  -30.4361   26.1396 C   0  0  2  0  0  0  0  0  0  0  0  0
  -21.0246  -15.6490   22.5714 C   0  0  0  0  0  0  0  0  0  0  0  0
  -18.3434  -27.2644   22.9566 C   0  0  0  0  0  0  0  0  0  0  0  0
  -29.1966  -19.9979   20.0715 N   0  0  0  0  0  0  0  0  0  0  0  0
  -28.3798  -19.2871   20.8676 N   0  0  0  0  0  0  0  0  0  0  0  0
  -20.8681  -25.3044   23.8649 N   0  0  0  0  0  0  0  0  0  0  0  0
  -27.7597  -15.6281   19.9674 N   0  0  0  0  0  0  0  0  0  0  0  0
  -26.5999  -19.4960   22.4164 N   0  0  0  0  0  0  0  0  0  0  0  0
  -27.4461  -23.7677   21.2195 N   0  0  0  0  0  0  0  0  0  0  0  0
  -25.5034  -15.2469   20.5387 N   0  0  0  0  0  0  0  0  0  0  0  0
  -23.4964  -27.0993   22.2404 N   0  0  0  0  0  0  0  0  0  0  0  0
  -19.4666  -28.4488   24.8905 N   0  0  0  0  0  0  0  0  0  0  0  0
  -23.9885  -11.9461   25.0994 N   0  0  1  0  0  0  0  0  0  0  0  0
  -22.9996  -10.3690   21.8142 N   0  3  0  0  0  0  0  0  0  0  0  0
  -21.1945  -31.0474   26.7152 N   0  3  0  0  0  0  0  0  0  0  0  0
  -26.1342  -22.4293   22.5410 O   0  0  0  0  0  0  0  0  0  0  0  0
  -23.4952  -25.6048   24.0262 O   0  0  0  0  0  0  0  0  0  0  0  0
  -19.5322  -25.9209   25.6674 O   0  0  0  0  0  0  0  0  0  0  0  0
  -21.2570  -29.7585   24.2149 O   0  0  0  0  0  0  0  0  0  0  0  0
  -26.9848  -13.4767   20.3070 O   0  0  0  0  0  0  0  0  0  0  0  0
  -31.3313  -25.4677   17.6070 O   0  0  0  0  0  0  0  0  0  0  0  0
  -22.7799  -19.4489   23.8736 O   0  0  0  0  0  0  0  0  0  1  0  0
  -32.6878  -29.9300   20.5483 F   0  0  0  0  0  0  0  0  0  0  0  0
  -33.9637  -26.2883   17.8068 F   0  0  0  0  0  0  0  0  0  0  0  0
  -20.1512  -15.0350   23.4235 F   0  0  0  0  0  0  0  0  0  0  0  0
  -21.1822  -16.9103   23.0713 F   0  0  0  0  0  0  0  0  0  0  0  0
  -20.3444  -15.8025   21.3981 F   0  0  0  0  0  0  0  0  0  0  0  0
  1  2  1  0  0  0  0
  1  5  2  0  0  0  0
  2  6  2  0  0  0  0
  3  8  2  0  0  0  0
  3 18  1  0  0  0  0
  4  9  1  0  0  0  0
  4 18  2  0  0  0  0
  5 20  1  0  0  0  0
  6 22  1  0  0  0  0
  7 10  2  0  0  0  0
  7 21  1  0  0  0  0
  8 27  1  0  0  0  0
  9 27  2  0  0  0  0
 10 28  1  0  0  0  0
 11 12  2  0  0  0  0
 11 29  1  0  0  0  0
 12 30  1  0  0  0  0
 13 23  1  0  0  0  0
 13 28  2  0  0  0  0
 14 24  2  0  0  0  0
 14 25  1  0  0  0  0
 15 24  1  0  0  0  0
 15 26  2  0  0  0  0
 16 25  2  0  0  0  0
 16 26  1  0  0  0  0
 17 30  2  0  0  0  0
 17 31  1  0  0  0  0
 18 32  1  0  0  0  0
 19 32  1  0  0  0  0
 19 33  2  0  0  0  0
 19 34  1  0  0  0  0
 20 22  2  0  0  0  0
 20 39  1  0  0  0  0
 21 23  2  0  0  0  0
 21 40  1  0  0  0  0
 22 52  1  0  0  0  0
 23 41  1  0  0  0  0
 24 68  1  0  0  0  0
 25 71  1  0  0  0  0
 26 79  1  0  0  0  0
 27 90  1  0  0  0  0
 28 91  1  0  0  0  0
 29 31  2  0  0  0  0
 29 90  1  0  0  0  0
 30 92  1  0  0  0  0
 31 93  1  0  0  0  0
 32 73  2  0  0  0  0
 33 74  1  0  0  0  0
 33 77  1  0  0  0  0
 34 78  1  0  0  0  0
 34 85  2  0  0  0  0
 35 53  1  0  0  0  0
 35 80  1  0  0  0  0
 35 86  2  0  0  0  0
 36 69  1  0  0  0  0
 36 75  1  0  0  0  0
 36 87  2  0  0  0  0
 37 70  1  0  0  0  0
 37 81  1  0  0  0  0
 37 88  2  0  0  0  0
 38 76  1  0  0  0  0
 38 79  1  0  0  0  0
 38 89  2  0  0  0  0
 39 42  1  0  0  0  0
 40 53  1  0  0  0  0
 41 75  1  0  0  0  0
 42 46  1  0  0  0  0
 43 47  1  0  0  0  0
 43 48  1  0  0  0  0
 44 45  1  0  0  0  0
 44 50  1  0  0  0  0
 45 51  1  0  0  0  0
 46 52  1  0  0  0  0
 47 54  1  0  0  0  0
 48 76  1  0  0  0  0
 49 54  1  0  0  0  0
 49 76  1  0  0  0  0
 50 83  1  0  0  0  0
 51 83  1  0  0  0  0
 52 80  1  0  0  0  0
 53 75  1  0  0  0  0
 54 74  1  0  0  0  0
 55 70  1  0  0  0  0
 56 72  1  0  0  0  0
 57 72  1  0  0  0  0
 58 72  1  0  0  0  0
 59 82  1  0  0  0  0
 60 84  1  0  0  0  0
 61 62  1  0  0  0  0
 61 63  1  0  0  0  0
 62 64  1  0  0  0  0
 63 65  1  0  0  0  0
 64 67  1  0  0  0  0
 65 82  1  0  0  0  0
 66 68  1  0  0  0  0
 66 83  1  0  0  0  0
 67 91  1  0  0  0  0
 68 82  1  0  0  0  0
 69 72  1  0  0  0  0
 69 81  1  0  0  0  0
 70 84  1  0  0  0  0
 71 94  1  0  0  0  0
 71 95  1  0  0  0  0
 71 96  1  0  0  0  0
 73 74  1  0  0  0  0
M  CHG  2  83   1  84   1
M  ISO  4  38 100  67 101  79 100  91 101
M  END
> <Batch ID>
0003

> <Smiles>
CNC(C)C(=O)NC(C(=O)N1Cc2cc([101O:1][101CH2:1]CCCCCN(C)C(CN3CCCC3)c3cc([100NH:0][100C:0](=O)N4CCCC(n5nc(-c6ccc(Oc7ccc(F)cc7F)cc6)c(C(N)=O)c5N)C4)cc(C(F)(F)F)c3)ccc2CC1C(=O)NC1CCCc2ccccc21)C(C)(C)C

> <Shape>
0.232

> <Color>
0.068

> <Negative vol penalty>
0.000

$$$$

  -OEChem-04042320203D

 85 94  0     1  0  0  0  0  0999 V2000
  -34.3967  -32.6652   14.1301 C   0  0  0  0  0  0  0  0  0  0  0  0
  -34.8020  -31.5865   14.9095 C   0  0  0  0  0  0  0  0  0  0  0  0
  -23.0739   -9.8705   19.9413 C   0  0  0  0  0  0  0  0  0  0  0  0
  -23.8319   -9.8784   22.2353 C   0  0  0  0  0  0  0  0  0  0  0  0
  -33.2526  -33.3829   14.4762 C   0  0  0  0  0  0  0  0  0  0  0  0
  -34.0639  -31.2254   16.0361 C   0  0  0  0  0  0  0  0  0  0  0  0
  -30.4671  -18.3418   24.0450 C   0  0  0  0  0  0  0  0  0  0  0  0
  -32.6510  -17.4912   23.4583 C   0  0  0  0  0  0  0  0  0  0  0  0
  -33.1608  -25.5627   18.1863 C   0  0  0  0  0  0  0  0  0  0  0  0
  -29.8797  -17.4577   23.1400 C   0  0  0  0  0  0  0  0  0  0  0  0
  -32.0636  -16.6071   22.5534 C   0  0  0  0  0  0  0  0  0  0  0  0
  -22.3291   -8.7180   20.1914 C   0  0  0  0  0  0  0  0  0  0  0  0
  -23.0869   -8.7259   22.4854 C   0  0  0  0  0  0  0  0  0  0  0  0
  -33.7750  -24.8377   19.2067 C   0  0  0  0  0  0  0  0  0  0  0  0
  -19.3790   -7.9244   21.6406 C   0  0  0  0  0  0  0  0  0  0  0  0
  -18.0725   -7.8787   21.1543 C   0  0  0  0  0  0  0  0  0  0  0  0
  -32.0197  -25.4979   20.7240 C   0  0  0  0  0  0  0  0  0  0  0  0
  -18.6320   -5.9345   19.8337 C   0  0  0  0  0  0  0  0  0  0  0  0
  -23.8254  -10.4506   20.9633 C   0  0  0  0  0  0  0  0  0  0  0  0
  -24.1691  -12.9755   20.8420 C   0  0  0  0  0  0  0  0  0  0  0  0
  -31.8528  -18.3586   24.2041 C   0  0  0  0  0  0  0  0  0  0  0  0
  -32.4947  -33.0245   15.6022 C   0  0  0  0  0  0  0  0  0  0  0  0
  -31.9753  -26.2708   18.4304 C   0  0  0  0  0  0  0  0  0  0  0  0
  -32.9093  -31.9398   16.3984 C   0  0  0  0  0  0  0  0  0  0  0  0
  -31.3911  -26.2290   19.7044 C   0  0  0  0  0  0  0  0  0  0  0  0
  -30.6779  -16.5903   22.3943 C   0  0  0  0  0  0  0  0  0  0  0  0
  -22.3355   -8.1457   21.4634 C   0  0  0  0  0  0  0  0  0  0  0  0
  -33.2060  -24.8076   20.4765 C   0  0  0  0  0  0  0  0  0  0  0  0
  -20.3121   -6.9751   21.2235 C   0  0  0  0  0  0  0  0  0  0  0  0
  -17.6990   -6.8838   20.2509 C   0  0  0  0  0  0  0  0  0  0  0  0
  -19.9385   -5.9801   20.3201 C   0  0  0  0  0  0  0  0  0  0  0  0
  -24.5955  -11.6408   20.7055 C   0  0  0  0  0  0  0  0  0  0  0  0
  -25.2621  -13.7240   20.4792 C   0  0  0  0  0  0  0  0  0  0  0  0
  -22.8986  -13.4924   21.2595 C   0  0  0  0  0  0  0  0  0  0  0  0
  -31.1267  -29.3319   18.3150 C   0  0  0  0  0  0  0  0  0  0  0  0
  -28.1712  -28.1315   18.9039 C   0  0  0  0  0  0  0  0  0  0  0  0
  -26.2749  -25.5921   20.1697 C   0  0  0  0  0  0  0  0  0  0  0  0
  -30.7289  -14.7658   20.6579 C   0  0  0  0  0  0  0  0  0  0  0  0
  -31.2918  -33.8596   15.9634 C   0  0  0  0  0  0  0  0  0  0  0  0
  -31.3110  -27.0261   17.3122 C   0  0  0  0  0  0  0  0  0  0  0  0
  -30.1084  -26.9555   20.0129 C   0  0  0  0  0  0  0  0  0  0  0  0
  -30.3556  -33.1802   16.9596 C   0  0  0  0  0  0  0  0  0  0  0  0
  -29.6148  -12.3513   18.2902 C   0  0  0  0  0  0  0  0  0  0  0  0
  -34.1721  -19.8011   26.7879 C   0  0  0  0  0  0  0  0  0  0  0  0
  -31.1504  -32.5786   18.1142 C   0  0  0  0  0  0  0  0  0  0  0  0
  -33.3496  -18.6455   26.2528 C   0  0  0  0  0  0  0  0  0  0  0  0
  -28.1746  -12.0610   18.7187 C   0  0  0  0  0  0  0  0  0  0  0  0
  -30.5290  -12.5802   19.4925 C   0  0  0  0  0  0  0  0  0  0  0  0
  -28.6214  -13.3069   20.8716 C   0  0  0  0  0  0  0  0  0  0  0  0
  -34.5782  -20.5630   25.5410 C   0  0  0  0  0  0  0  0  0  0  0  0
  -32.1212  -31.5021   17.6139 C   0  0  1  0  0  0  0  0  0  0  0  0
  -32.4877  -19.3145   25.1824 C   0  0  1  0  0  0  0  0  0  0  0  0
  -30.3815  -28.1303   17.8065 C   0  0  1  0  0  0  0  0  0  0  0  0
  -27.6495  -13.1336   19.6931 C   0  0  2  0  0  0  0  0  0  0  0  0
  -23.8881  -24.9133   20.5433 C   0  0  0  0  0  0  0  0  0  0  0  0
  -27.9941  -30.0607   21.2611 C   0  0  0  0  0  0  0  0  0  0  0  0
  -26.0749  -28.7097   22.1328 C   0  0  0  0  0  0  0  0  0  0  0  0
  -25.8915  -29.8527   19.9231 C   0  0  0  0  0  0  0  0  0  0  0  0
  -26.5643  -23.2006   18.4503 C   0  0  0  0  0  0  0  0  0  0  0  0
  -33.5992  -22.2857   23.0283 C   0  0  0  0  0  0  0  0  0  0  0  0
  -32.7731  -21.5925   24.1014 C   0  0  0  0  0  0  0  0  0  0  0  0
  -32.9539  -23.5530   22.4810 C   0  0  0  0  0  0  0  0  0  1  0  0
  -27.3733  -27.8163   20.1461 C   0  0  1  0  0  0  0  0  0  0  0  0
  -25.0804  -24.8472   19.6016 C   0  0  2  0  0  0  0  0  0  0  0  0
  -26.8587  -29.0977   20.8608 C   0  0  0  0  0  0  0  0  0  0  0  0
  -25.8607  -11.5438   20.2883 N   0  0  0  0  0  0  0  0  0  0  0  0
  -26.2386  -12.8271   20.1595 N   0  0  0  0  0  0  0  0  0  0  0  0
  -29.5003  -27.6852   18.8880 N   0  0  0  0  0  0  0  0  0  0  0  0
  -29.9700  -13.6120   20.3687 N   0  0  0  0  0  0  0  0  0  0  0  0
  -25.4735  -15.0552   20.4055 N   0  0  0  0  0  0  0  0  0  0  0  0
  -21.8858  -12.5842   21.5964 N   0  0  0  0  0  0  0  0  0  0  0  0
  -30.0814  -15.6919   21.4751 N   0  0  0  0  0  0  0  0  0  0  0  0
  -31.4128  -30.2699   17.3415 N   0  0  0  0  0  0  0  0  0  0  0  0
  -26.3177  -26.8987   19.7313 N   0  0  0  0  0  0  0  0  0  0  0  0
  -33.4464  -20.3329   24.5541 N   0  3  1  0  0  0  0  0  0  0  0  0
  -25.4226  -23.4143   19.3765 N   0  3  0  0  0  0  0  0  0  0  0  0
  -22.6632  -14.7233   21.3158 O   0  0  0  0  0  0  0  0  0  0  0  0
  -31.4190  -29.4034   19.5029 O   0  0  0  0  0  0  0  0  0  0  0  0
  -27.6329  -28.7446   17.9787 O   0  0  0  0  0  0  0  0  0  0  0  0
  -27.0866  -25.0683   20.9295 O   0  0  0  0  0  0  0  0  0  0  0  0
  -31.8585  -14.9335   20.1911 O   0  0  0  0  0  0  0  0  0  0  0  0
  -21.6086   -7.0213   21.7078 O   0  0  0  0  0  0  0  0  0  0  0  0
  -33.8038  -24.1014   21.4743 O   0  0  0  0  0  0  0  0  0  1  0  0
  -16.4439   -6.8392   19.7851 F   0  0  0  0  0  0  0  0  0  0  0  0
  -20.8302   -5.0647   19.9166 F   0  0  0  0  0  0  0  0  0  0  0  0
  1  2  1  0  0  0  0
  1  5  2  0  0  0  0
  2  6  2  0  0  0  0
  3 12  2  0  0  0  0
  3 19  1  0  0  0  0
  4 13  1  0  0  0  0
  4 19  2  0  0  0  0
  5 22  1  0  0  0  0
  6 24  1  0  0  0  0
  7 10  2  0  0  0  0
  7 21  1  0  0  0  0
  8 11  1  0  0  0  0
  8 21  2  0  0  0  0
  9 14  2  0  0  0  0
  9 23  1  0  0  0  0
 10 26  1  0  0  0  0
 11 26  2  0  0  0  0
 12 27  1  0  0  0  0
 13 27  2  0  0  0  0
 14 28  1  0  0  0  0
 15 16  2  0  0  0  0
 15 29  1  0  0  0  0
 16 30  1  0  0  0  0
 17 25  1  0  0  0  0
 17 28  2  0  0  0  0
 18 30  2  0  0  0  0
 18 31  1  0  0  0  0
 19 32  1  0  0  0  0
 20 32  1  0  0  0  0
 20 33  2  0  0  0  0
 20 34  1  0  0  0  0
 21 52  1  0  0  0  0
 22 24  2  0  0  0  0
 22 39  1  0  0  0  0
 23 25  2  0  0  0  0
 23 40  1  0  0  0  0
 24 51  1  0  0  0  0
 25 41  1  0  0  0  0
 26 72  1  0  0  0  0
 27 82  1  0  0  0  0
 28 83  1  0  0  0  0
 29 31  2  0  0  0  0
 29 82  1  0  0  0  0
 30 84  1  0  0  0  0
 31 85  1  0  0  0  0
 32 66  2  0  0  0  0
 33 67  1  0  0  0  0
 33 70  1  0  0  0  0
 34 71  1  0  0  0  0
 34 77  2  0  0  0  0
 35 53  1  0  0  0  0
 35 73  1  0  0  0  0
 35 78  2  0  0  0  0
 36 63  1  0  0  0  0
 36 68  1  0  0  0  0
 36 79  2  0  0  0  0
 37 64  1  0  0  0  0
 37 74  1  0  0  0  0
 37 80  2  0  0  0  0
 38 69  1  0  0  0  0
 38 72  1  0  0  0  0
 38 81  2  0  0  0  0
 39 42  1  0  0  0  0
 40 53  1  0  0  0  0
 41 68  1  0  0  0  0
 42 45  1  0  0  0  0
 43 47  1  0  0  0  0
 43 48  1  0  0  0  0
 44 46  1  0  0  0  0
 44 50  1  0  0  0  0
 45 51  1  0  0  0  0
 46 52  1  0  0  0  0
 47 54  1  0  0  0  0
 48 69  1  0  0  0  0
 49 54  1  0  0  0  0
 49 69  1  0  0  0  0
 50 75  1  0  0  0  0
 51 73  1  0  0  0  0
 52 75  1  0  0  0  0
 53 68  1  0  0  0  0
 54 67  1  0  0  0  0
 55 64  1  0  0  0  0
 56 65  1  0  0  0  0
 57 65  1  0  0  0  0
 58 65  1  0  0  0  0
 59 76  1  0  0  0  0
 60 61  1  0  0  0  0
 60 62  1  0  0  0  0
 61 75  1  0  0  0  0
 62 83  1  0  0  0  0
 63 65  1  0  0  0  0
 63 74  1  0  0  0  0
 64 76  1  0  0  0  0
 66 67  1  0  0  0  0
M  CHG  2  75   1  76   1
M  ISO  4  38 100  62 101  72 100  83 101
M  END
> <Batch ID>
0003

> <Smiles>
CNC(C)C(=O)NC(C(=O)N1Cc2cc([101O:1][101CH2:1]CCN3CCCC3c3ccc([100NH:0][100C:0](=O)N4CCCC(n5nc(-c6ccc(Oc7ccc(F)cc7F)cc6)c(C(N)=O)c5N)C4)cc3)ccc2CC1C(=O)NC1CCCc2ccccc21)C(C)(C)C

> <Shape>
0.215

> <Color>
0.188

> <Negative vol penalty>
0.000

$$$$

  -OEChem-04042320203D

 86 95  0     1  0  0  0  0  0999 V2000
  -37.0698   -3.4583   28.6437 C   0  0  0  0  0  0  0  0  0  0  0  0
  -36.3626   -4.5034   28.0581 C   0  0  0  0  0  0  0  0  0  0  0  0
  -32.7830  -15.5407   25.5531 C   0  0  0  0  0  0  0  0  0  0  0  0
  -33.3928  -15.0465   24.4000 C   0  0  0  0  0  0  0  0  0  0  0  0
  -23.1993   -9.8521   19.9525 C   0  0  0  0  0  0  0  0  0  0  0  0
  -23.9117   -9.9294   22.2598 C   0  0  0  0  0  0  0  0  0  0  0  0
  -36.7971   -3.0842   29.9588 C   0  0  0  0  0  0  0  0  0  0  0  0
  -35.3813   -5.1744   28.7870 C   0  0  0  0  0  0  0  0  0  0  0  0
  -33.9639  -11.1226   28.4463 C   0  0  0  0  0  0  0  0  0  0  0  0
  -31.4000  -15.7191   25.5890 C   0  0  0  0  0  0  0  0  0  0  0  0
  -32.6197  -14.7308   23.2828 C   0  0  0  0  0  0  0  0  0  0  0  0
  -22.5068   -8.6681   20.2060 C   0  0  0  0  0  0  0  0  0  0  0  0
  -23.2192   -8.7455   22.5133 C   0  0  0  0  0  0  0  0  0  0  0  0
  -32.9558  -11.8094   27.7712 C   0  0  0  0  0  0  0  0  0  0  0  0
  -20.0216   -7.8014   23.0655 C   0  0  0  0  0  0  0  0  0  0  0  0
  -19.2441   -7.7421   24.2220 C   0  0  0  0  0  0  0  0  0  0  0  0
  -31.6101  -11.7899   29.7732 C   0  0  0  0  0  0  0  0  0  0  0  0
  -20.5621   -5.8779   25.0126 C   0  0  0  0  0  0  0  0  0  0  0  0
  -23.9018  -10.4827   20.9794 C   0  0  0  0  0  0  0  0  0  0  0  0
  -24.1242  -13.0194   20.8266 C   0  0  0  0  0  0  0  0  0  0  0  0
  -35.8186   -3.7572   30.7074 C   0  0  0  0  0  0  0  0  0  0  0  0
  -33.7979  -10.7540   29.7891 C   0  0  0  0  0  0  0  0  0  0  0  0
  -35.0942   -4.8081   30.1129 C   0  0  0  0  0  0  0  0  0  0  0  0
  -32.6186  -11.1007   30.4638 C   0  0  0  0  0  0  0  0  0  0  0  0
  -30.6269  -15.4034   24.4717 C   0  0  0  0  0  0  0  0  0  0  0  0
  -31.2367  -14.9092   23.3186 C   0  0  0  0  0  0  0  0  0  0  0  0
  -22.5167   -8.1148   21.4864 C   0  0  0  0  0  0  0  0  0  0  0  0
  -31.7775  -12.1407   28.4338 C   0  0  0  0  0  0  0  0  0  0  0  0
  -21.0694   -6.8989   22.8825 C   0  0  0  0  0  0  0  0  0  0  0  0
  -19.5143   -6.7804   25.1955 C   0  0  0  0  0  0  0  0  0  0  0  0
  -21.3396   -5.9372   23.8560 C   0  0  0  0  0  0  0  0  0  0  0  0
  -24.6177  -11.7055   20.7180 C   0  0  0  0  0  0  0  0  0  0  0  0
  -25.1861  -13.8154   20.4729 C   0  0  0  0  0  0  0  0  0  0  0  0
  -22.8222  -13.4793   21.2127 C   0  0  0  0  0  0  0  0  0  0  0  0
  -33.6989   -7.9934   31.3617 C   0  0  0  0  0  0  0  0  0  0  0  0
  -33.6139   -9.9266   33.9652 C   0  0  0  0  0  0  0  0  0  0  0  0
  -32.8678  -12.9871   35.2781 C   0  0  0  0  0  0  0  0  0  0  0  0
  -30.9353  -14.0832   20.9578 C   0  0  0  0  0  0  0  0  0  0  0  0
  -35.5261   -3.2860   32.1099 C   0  0  0  0  0  0  0  0  0  0  0  0
  -34.9057  -10.0369   30.5108 C   0  0  0  0  0  0  0  0  0  0  0  0
  -32.3994  -10.7459   31.9111 C   0  0  0  0  0  0  0  0  0  0  0  0
  -34.7315   -4.2931   32.9375 C   0  0  0  0  0  0  0  0  0  0  0  0
  -26.1252  -15.3426   25.5686 C   0  0  0  0  0  0  0  0  0  0  0  0
  -29.3626  -13.1191   17.9125 C   0  0  0  0  0  0  0  0  0  0  0  0
  -26.3845  -15.1519   27.0576 C   0  0  0  0  0  0  0  0  0  0  0  0
  -33.5554   -4.8362   32.1321 C   0  0  0  0  0  0  0  0  0  0  0  0
  -27.9301  -12.7844   18.3344 C   0  0  0  0  0  0  0  0  0  0  0  0
  -26.9242  -14.3479   24.7330 C   0  0  0  0  0  0  0  0  0  0  0  0
  -30.3791  -12.6970   18.9719 C   0  0  0  0  0  0  0  0  0  0  0  0
  -28.6790  -12.8667   20.7467 C   0  0  0  0  0  0  0  0  0  0  0  0
  -27.8682  -15.2047   27.3865 C   0  0  0  0  0  0  0  0  0  0  0  0
  -34.0395   -5.5764   30.8794 C   0  0  1  0  0  0  0  0  0  0  0  0
  -34.4194   -9.2595   31.7301 C   0  0  1  0  0  0  0  0  0  0  0  0
  -27.6141  -13.3319   19.7401 C   0  0  2  0  0  0  0  0  0  0  0  0
  -28.4224  -14.3555   25.0487 C   0  0  1  0  0  0  0  0  0  0  0  0
  -32.8694  -14.2551   37.4436 C   0  0  0  0  0  0  0  0  0  0  0  0
  -31.1092   -8.4225   34.8450 C   0  0  0  0  0  0  0  0  0  0  0  0
  -30.6309  -10.2925   36.4395 C   0  0  0  0  0  0  0  0  0  0  0  0
  -32.7147   -8.9443   36.6900 C   0  0  0  0  0  0  0  0  0  0  0  0
  -34.7773  -14.9936   34.2357 C   0  0  0  0  0  0  0  0  0  0  0  0
  -29.1382  -15.6059   24.5390 C   0  0  0  0  0  0  0  0  0  0  0  0
  -28.5049  -12.7961   27.0336 C   0  0  0  0  0  0  0  0  0  0  0  0
  -29.4498  -12.5664   28.1966 C   0  0  0  0  0  0  0  0  0  1  0  0
  -32.5213  -10.5828   34.7743 C   0  0  1  0  0  0  0  0  0  0  0  0
  -33.6558  -13.9121   36.1880 C   0  0  2  0  0  0  0  0  0  0  0  0
  -31.7471   -9.5656   35.6594 C   0  0  0  0  0  0  0  0  0  0  0  0
  -25.8939  -11.6648   20.3259 N   0  0  0  0  0  0  0  0  0  0  0  0
  -26.2112  -12.9631   20.1849 N   0  0  0  0  0  0  0  0  0  0  0  0
  -33.5094  -10.0393   32.5715 N   0  0  0  0  0  0  0  0  0  0  0  0
  -30.0177  -13.2560   20.2764 N   0  0  0  0  0  0  0  0  0  0  0  0
  -25.3337  -15.1543   20.3832 N   0  0  0  0  0  0  0  0  0  0  0  0
  -21.8486  -12.5273   21.5444 N   0  0  0  0  0  0  0  0  0  0  0  0
  -30.4689  -14.5828   22.1733 N   0  0  0  0  0  0  0  0  0  0  0  0
  -34.5256   -6.8944   31.2273 N   0  0  0  0  0  0  0  0  0  0  0  0
  -33.1587  -11.6614   35.5218 N   0  0  0  0  0  0  0  0  0  0  0  0
  -28.6489  -14.2174   26.5480 N   0  3  2  0  0  0  0  0  0  0  0  0
  -33.9844  -15.1805   35.4780 N   0  3  0  0  0  0  0  0  0  0  0  0
  -22.5259  -14.6977   21.2462 O   0  0  0  0  0  0  0  0  0  0  0  0
  -32.4828   -8.0120   31.2121 O   0  0  0  0  0  0  0  0  0  0  0  0
  -34.5302   -9.3420   34.5484 O   0  0  0  0  0  0  0  0  0  0  0  0
  -32.0710  -13.3991   34.4380 O   0  0  0  0  0  0  0  0  0  0  0  0
  -32.0423  -14.3523   20.4842 O   0  0  0  0  0  0  0  0  0  0  0  0
  -21.8409   -6.9596   21.7341 O   0  0  0  0  0  0  0  0  0  0  0  0
  -30.7917  -12.8105   27.7770 O   0  0  0  0  0  0  0  0  0  1  0  0
  -18.7685   -6.7245   26.3068 F   0  0  0  0  0  0  0  0  0  0  0  0
  -22.3456   -5.0683   23.6863 F   0  0  0  0  0  0  0  0  0  0  0  0
  1  2  1  0  0  0  0
  1  7  2  0  0  0  0
  2  8  2  0  0  0  0
  3  4  1  0  0  0  0
  3 10  2  0  0  0  0
  4 11  2  0  0  0  0
  5 12  2  0  0  0  0
  5 19  1  0  0  0  0
  6 13  1  0  0  0  0
  6 19  2  0  0  0  0
  7 21  1  0  0  0  0
  8 23  1  0  0  0  0
  9 14  2  0  0  0  0
  9 22  1  0  0  0  0
 10 25  1  0  0  0  0
 11 26  1  0  0  0  0
 12 27  1  0  0  0  0
 13 27  2  0  0  0  0
 14 28  1  0  0  0  0
 15 16  2  0  0  0  0
 15 29  1  0  0  0  0
 16 30  1  0  0  0  0
 17 24  1  0  0  0  0
 17 28  2  0  0  0  0
 18 30  2  0  0  0  0
 18 31  1  0  0  0  0
 19 32  1  0  0  0  0
 20 32  1  0  0  0  0
 20 33  2  0  0  0  0
 20 34  1  0  0  0  0
 21 23  2  0  0  0  0
 21 39  1  0  0  0  0
 22 24  2  0  0  0  0
 22 40  1  0  0  0  0
 23 52  1  0  0  0  0
 24 41  1  0  0  0  0
 25 26  2  0  0  0  0
 25 61  1  0  0  0  0
 26 73  1  0  0  0  0
 27 83  1  0  0  0  0
 28 84  1  0  0  0  0
 29 31  2  0  0  0  0
 29 83  1  0  0  0  0
 30 85  1  0  0  0  0
 31 86  1  0  0  0  0
 32 67  2  0  0  0  0
 33 68  1  0  0  0  0
 33 71  1  0  0  0  0
 34 72  1  0  0  0  0
 34 78  2  0  0  0  0
 35 53  1  0  0  0  0
 35 74  1  0  0  0  0
 35 79  2  0  0  0  0
 36 64  1  0  0  0  0
 36 69  1  0  0  0  0
 36 80  2  0  0  0  0
 37 65  1  0  0  0  0
 37 75  1  0  0  0  0
 37 81  2  0  0  0  0
 38 70  1  0  0  0  0
 38 73  1  0  0  0  0
 38 82  2  0  0  0  0
 39 42  1  0  0  0  0
 40 53  1  0  0  0  0
 41 69  1  0  0  0  0
 42 46  1  0  0  0  0
 43 45  1  0  0  0  0
 43 48  1  0  0  0  0
 44 47  1  0  0  0  0
 44 49  1  0  0  0  0
 45 51  1  0  0  0  0
 46 52  1  0  0  0  0
 47 54  1  0  0  0  0
 48 55  1  0  0  0  0
 49 70  1  0  0  0  0
 50 54  1  0  0  0  0
 50 70  1  0  0  0  0
 51 76  1  0  0  0  0
 52 74  1  0  0  0  0
 53 69  1  0  0  0  0
 54 68  1  0  0  0  0
 55 61  1  0  0  0  0
 55 76  1  0  0  0  0
 56 65  1  0  0  0  0
 57 66  1  0  0  0  0
 58 66  1  0  0  0  0
 59 66  1  0  0  0  0
 60 77  1  0  0  0  0
 62 63  1  0  0  0  0
 62 76  1  0  0  0  0
 63 84  1  0  0  0  0
 64 66  1  0  0  0  0
 64 75  1  0  0  0  0
 65 77  1  0  0  0  0
 67 68  1  0  0  0  0
M  CHG  2  76   1  77   1
M  ISO  4  38 100  63 101  73 100  84 101
M  END
> <Batch ID>
0003

> <Smiles>
CNC(C)C(=O)NC(C(=O)N1Cc2cc([101O:1][101CH2:1]CN3CCCCC3Cc3ccccc3[100NH:0][100C:0](=O)N3CCCC(n4nc(-c5ccc(Oc6ccc(F)cc6F)cc5)c(C(N)=O)c4N)C3)ccc2CC1C(=O)NC1CCCc2ccccc21)C(C)(C)C

> <Shape>
0.151

> <Color>
0.182

> <Negative vol penalty>
0.000

$$$$

  -OEChem-04042320203D

 86 95  0     1  0  0  0  0  0999 V2000
  -23.5809  -28.3903   11.1435 C   0  0  0  0  0  0  0  0  0  0  0  0
  -24.2755  -27.5595   12.0168 C   0  0  0  0  0  0  0  0  0  0  0  0
  -23.4200  -10.4848   22.6665 C   0  0  0  0  0  0  0  0  0  0  0  0
  -24.0497   -9.3906   20.6066 C   0  0  0  0  0  0  0  0  0  0  0  0
  -23.2109  -29.6721   11.5485 C   0  0  0  0  0  0  0  0  0  0  0  0
  -24.6016  -28.0105   13.2954 C   0  0  0  0  0  0  0  0  0  0  0  0
  -24.8417  -24.6747   18.4258 C   0  0  0  0  0  0  0  0  0  0  0  0
  -30.5383  -16.1942   24.3021 C   0  0  0  0  0  0  0  0  0  0  0  0
  -32.5934  -16.4277   23.0535 C   0  0  0  0  0  0  0  0  0  0  0  0
  -30.4577  -17.5809   24.4289 C   0  0  0  0  0  0  0  0  0  0  0  0
  -32.5128  -17.8145   23.1802 C   0  0  0  0  0  0  0  0  0  0  0  0
  -22.7790   -9.3203   23.0892 C   0  0  0  0  0  0  0  0  0  0  0  0
  -23.4087   -8.2260   21.0293 C   0  0  0  0  0  0  0  0  0  0  0  0
  -25.9022  -24.0852   19.1125 C   0  0  0  0  0  0  0  0  0  0  0  0
  -19.8481   -7.7400   22.5089 C   0  0  0  0  0  0  0  0  0  0  0  0
  -18.5807   -7.8685   23.0770 C   0  0  0  0  0  0  0  0  0  0  0  0
  -26.0165  -26.0035   20.5707 C   0  0  0  0  0  0  0  0  0  0  0  0
  -19.3978   -6.8780   25.1236 C   0  0  0  0  0  0  0  0  0  0  0  0
  -24.0553  -10.5200   21.4252 C   0  0  0  0  0  0  0  0  0  0  0  0
  -24.1361  -12.9904   20.7941 C   0  0  0  0  0  0  0  0  0  0  0  0
  -23.5242  -30.1355   12.8361 C   0  0  0  0  0  0  0  0  0  0  0  0
  -24.3670  -25.9400   18.8001 C   0  0  0  0  0  0  0  0  0  0  0  0
  -24.2367  -29.3001   13.7175 C   0  0  0  0  0  0  0  0  0  0  0  0
  -24.9482  -26.6058   19.8887 C   0  0  0  0  0  0  0  0  0  0  0  0
  -31.6062  -15.6176   23.6145 C   0  0  0  0  0  0  0  0  0  0  0  0
  -31.4449  -18.3911   23.8679 C   0  0  0  0  0  0  0  0  0  0  0  0
  -22.7734   -8.1909   22.2706 C   0  0  0  0  0  0  0  0  0  0  0  0
  -26.4917  -24.7509   20.1833 C   0  0  0  0  0  0  0  0  0  0  0  0
  -20.8903   -7.1805   23.2480 C   0  0  0  0  0  0  0  0  0  0  0  0
  -18.3555   -7.4375   24.3844 C   0  0  0  0  0  0  0  0  0  0  0  0
  -20.6652   -6.7495   24.5554 C   0  0  0  0  0  0  0  0  0  0  0  0
  -24.7171  -11.7228   20.9877 C   0  0  0  0  0  0  0  0  0  0  0  0
  -25.1766  -13.7852   20.3791 C   0  0  0  0  0  0  0  0  0  0  0  0
  -22.7775  -13.4118   20.9735 C   0  0  0  0  0  0  0  0  0  0  0  0
  -24.1707  -28.7742   17.3743 C   0  0  0  0  0  0  0  0  0  0  0  0
  -22.5513  -29.5810   20.0667 C   0  0  0  0  0  0  0  0  0  0  0  0
  -21.9312  -28.9719   23.3668 C   0  0  0  0  0  0  0  0  0  0  0  0
  -31.1052  -13.4775   21.1588 C   0  0  0  0  0  0  0  0  0  0  0  0
  -23.1447  -31.5459   13.2123 C   0  0  0  0  0  0  0  0  0  0  0  0
  -23.2048  -26.5506   18.0660 C   0  0  0  0  0  0  0  0  0  0  0  0
  -24.4623  -27.9571   20.3431 C   0  0  0  0  0  0  0  0  0  0  0  0
  -23.2003  -31.8115   14.7145 C   0  0  0  0  0  0  0  0  0  0  0  0
  -29.3557  -13.5738   18.0593 C   0  0  0  0  0  0  0  0  0  0  0  0
  -24.4953  -31.2638   15.3059 C   0  0  0  0  0  0  0  0  0  0  0  0
  -27.9161  -13.2247   18.4409 C   0  0  0  0  0  0  0  0  0  0  0  0
  -28.7178  -22.3494   22.7481 C   0  0  0  0  0  0  0  0  0  0  0  0
  -29.6708  -21.0846   20.7880 C   0  0  0  0  0  0  0  0  0  0  0  0
  -30.3665  -12.7923   18.8957 C   0  0  0  0  0  0  0  0  0  0  0  0
  -28.7444  -12.5585   20.7363 C   0  0  0  0  0  0  0  0  0  0  0  0
  -29.8499  -21.8317   23.6245 C   0  0  0  0  0  0  0  0  0  0  0  0
  -30.7984  -20.5736   21.6741 C   0  0  0  0  0  0  0  0  0  0  0  0
  -24.5869  -29.7443   15.1212 C   0  0  1  0  0  0  0  0  0  0  0  0
  -23.1391  -28.0681   18.2079 C   0  0  1  0  0  0  0  0  0  0  0  0
  -29.1308  -22.4341   21.2745 C   0  0  0  0  0  0  0  0  0  0  0  0
  -27.6889  -13.3629   19.9583 C   0  0  2  0  0  0  0  0  0  0  0  0
  -20.5877  -29.8220   25.3084 C   0  0  0  0  0  0  0  0  0  0  0  0
  -24.4906  -31.9154   20.3833 C   0  0  0  0  0  0  0  0  0  0  0  0
  -23.7271  -32.1369   22.7574 C   0  0  0  0  0  0  0  0  0  0  0  0
  -22.1044  -32.4652   20.8914 C   0  0  0  0  0  0  0  0  0  0  0  0
  -20.4796  -26.4068   23.6350 C   0  0  0  0  0  0  0  0  0  0  0  0
  -31.6932  -14.1351   23.4785 C   0  0  0  0  0  0  0  0  0  0  0  0
  -31.3566  -19.8827   24.0032 C   0  0  0  0  0  0  0  0  0  0  0  0
  -27.9593  -22.8932   20.4089 C   0  0  0  0  0  0  0  0  0  1  0  0
  -22.9328  -30.1353   21.4181 C   0  0  1  0  0  0  0  0  0  0  0  0
  -20.6315  -28.8479   24.1414 C   0  0  2  0  0  0  0  0  0  0  0  0
  -23.3244  -31.6386   21.3530 C   0  0  0  0  0  0  0  0  0  0  0  0
  -26.0251  -11.7084   20.7177 N   0  0  0  0  0  0  0  0  0  0  0  0
  -26.2747  -12.9767   20.3501 N   0  0  0  0  0  0  0  0  0  0  0  0
  -23.3274  -28.5153   19.5894 N   0  0  0  0  0  0  0  0  0  0  0  0
  -30.0967  -12.9670   20.3249 N   0  0  0  0  0  0  0  0  0  0  0  0
  -25.2501  -15.0897   20.0397 N   0  0  0  0  0  0  0  0  0  0  0  0
  -21.8364  -12.4671   21.4052 N   0  0  0  0  0  0  0  0  0  0  0  0
  -23.7526  -29.0662   16.0900 N   0  0  0  0  0  0  0  0  0  0  0  0
  -21.8133  -29.8474   22.3081 N   0  0  0  0  0  0  0  0  0  0  0  0
  -30.7644  -13.6174   22.4986 N   0  0  0  0  0  0  0  0  0  0  0  0
  -30.3193  -20.4956   23.1030 N   0  3  0  0  0  0  0  0  0  0  0  0
  -20.4775  -27.4657   24.6769 N   0  3  0  0  0  0  0  0  0  0  0  0
  -22.4056  -14.5871   20.7417 O   0  0  0  0  0  0  0  0  0  0  0  0
  -25.2646  -29.0360   17.8608 O   0  0  0  0  0  0  0  0  0  0  0  0
  -21.5954  -30.0708   19.4601 O   0  0  0  0  0  0  0  0  0  0  0  0
  -22.9503  -28.3567   23.6728 O   0  0  0  0  0  0  0  0  0  0  0  0
  -32.2245  -13.7907   20.7393 O   0  0  0  0  0  0  0  0  0  0  0  0
  -22.1482   -7.0543   22.6828 O   0  0  0  0  0  0  0  0  0  0  0  0
  -27.5273  -24.1780   20.8549 O   0  0  0  0  0  0  0  0  0  1  0  0
  -17.1388   -7.5624   24.9304 F   0  0  0  0  0  0  0  0  0  0  0  0
  -21.6628   -6.2123   25.2709 F   0  0  0  0  0  0  0  0  0  0  0  0
  1  2  1  0  0  0  0
  1  5  2  0  0  0  0
  2  6  2  0  0  0  0
  3 12  2  0  0  0  0
  3 19  1  0  0  0  0
  4 13  1  0  0  0  0
  4 19  2  0  0  0  0
  5 21  1  0  0  0  0
  6 23  1  0  0  0  0
  7 14  2  0  0  0  0
  7 22  1  0  0  0  0
  8 10  2  0  0  0  0
  8 25  1  0  0  0  0
  9 11  1  0  0  0  0
  9 25  2  0  0  0  0
 10 26  1  0  0  0  0
 11 26  2  0  0  0  0
 12 27  1  0  0  0  0
 13 27  2  0  0  0  0
 14 28  1  0  0  0  0
 15 16  2  0  0  0  0
 15 29  1  0  0  0  0
 16 30  1  0  0  0  0
 17 24  1  0  0  0  0
 17 28  2  0  0  0  0
 18 30  2  0  0  0  0
 18 31  1  0  0  0  0
 19 32  1  0  0  0  0
 20 32  1  0  0  0  0
 20 33  2  0  0  0  0
 20 34  1  0  0  0  0
 21 23  2  0  0  0  0
 21 39  1  0  0  0  0
 22 24  2  0  0  0  0
 22 40  1  0  0  0  0
 23 52  1  0  0  0  0
 24 41  1  0  0  0  0
 25 61  1  0  0  0  0
 26 62  1  0  0  0  0
 27 83  1  0  0  0  0
 28 84  1  0  0  0  0
 29 31  2  0  0  0  0
 29 83  1  0  0  0  0
 30 85  1  0  0  0  0
 31 86  1  0  0  0  0
 32 67  2  0  0  0  0
 33 68  1  0  0  0  0
 33 71  1  0  0  0  0
 34 72  1  0  0  0  0
 34 78  2  0  0  0  0
 35 53  1  0  0  0  0
 35 73  1  0  0  0  0
 35 79  2  0  0  0  0
 36 64  1  0  0  0  0
 36 69  1  0  0  0  0
 36 80  2  0  0  0  0
 37 65  1  0  0  0  0
 37 74  1  0  0  0  0
 37 81  2  0  0  0  0
 38 70  1  0  0  0  0
 38 75  1  0  0  0  0
 38 82  2  0  0  0  0
 39 42  1  0  0  0  0
 40 53  1  0  0  0  0
 41 69  1  0  0  0  0
 42 44  1  0  0  0  0
 43 45  1  0  0  0  0
 43 48  1  0  0  0  0
 44 52  1  0  0  0  0
 45 55  1  0  0  0  0
 46 50  1  0  0  0  0
 46 54  1  0  0  0  0
 47 51  1  0  0  0  0
 47 54  1  0  0  0  0
 48 70  1  0  0  0  0
 49 55  1  0  0  0  0
 49 70  1  0  0  0  0
 50 76  1  0  0  0  0
 51 76  1  0  0  0  0
 52 73  1  0  0  0  0
 53 69  1  0  0  0  0
 54 63  1  0  0  0  0
 55 68  1  0  0  0  0
 56 65  1  0  0  0  0
 57 66  1  0  0  0  0
 58 66  1  0  0  0  0
 59 66  1  0  0  0  0
 60 77  1  0  0  0  0
 61 75  1  0  0  0  0
 62 76  1  0  0  0  0
 63 84  1  0  0  0  0
 64 66  1  0  0  0  0
 64 74  1  0  0  0  0
 65 77  1  0  0  0  0
 67 68  1  0  0  0  0
M  CHG  2  76   1  77   1
M  ISO  4  38 100  63 101  75 100  84 101
M  END
> <Batch ID>
0003

> <Smiles>
CNC(C)C(=O)NC(C(=O)N1Cc2cc([101O:1][101CH2:1]C3CCN(Cc4ccc(C[100NH:0][100C:0](=O)N5CCCC(n6nc(-c7ccc(Oc8ccc(F)cc8F)cc7)c(C(N)=O)c6N)C5)cc4)CC3)ccc2CC1C(=O)NC1CCCc2ccccc21)C(C)(C)C

> <Shape>
0.247

> <Color>
0.171

> <Negative vol penalty>
0.000

$$$$

  -OEChem-04042320203D

 78 86  0     1  0  0  0  0  0999 V2000
  -26.7222  -33.4805   27.6362 C   0  0  0  0  0  0  0  0  0  0  0  0
  -27.1734  -32.3851   26.9068 C   0  0  0  0  0  0  0  0  0  0  0  0
  -27.2004  -11.2304   21.4422 C   0  0  0  0  0  0  0  0  0  0  0  0
  -25.7106  -12.0017   19.7036 C   0  0  0  0  0  0  0  0  0  0  0  0
  -25.3650  -33.7994   27.6450 C   0  0  0  0  0  0  0  0  0  0  0  0
  -26.2674  -31.6074   26.1865 C   0  0  0  0  0  0  0  0  0  0  0  0
  -27.2604  -28.8113   20.8292 C   0  0  0  0  0  0  0  0  0  0  0  0
  -26.2023  -10.3819   21.9210 C   0  0  0  0  0  0  0  0  0  0  0  0
  -24.7125  -11.1531   20.1824 C   0  0  0  0  0  0  0  0  0  0  0  0
  -27.5901  -27.4961   20.5045 C   0  0  0  0  0  0  0  0  0  0  0  0
  -24.8794   -7.3803   21.1004 C   0  0  0  0  0  0  0  0  0  0  0  0
  -25.2402   -6.0719   21.4223 C   0  0  0  0  0  0  0  0  0  0  0  0
  -25.2585  -27.0137   20.1170 C   0  0  0  0  0  0  0  0  0  0  0  0
  -24.5276   -6.4362   23.7019 C   0  0  0  0  0  0  0  0  0  0  0  0
  -26.9545  -12.0404   20.3335 C   0  0  0  0  0  0  0  0  0  0  0  0
  -28.9616  -12.6200   18.8695 C   0  0  0  0  0  0  0  0  0  0  0  0
  -24.4432  -33.0310   26.9167 C   0  0  0  0  0  0  0  0  0  0  0  0
  -25.9239  -29.2353   20.8108 C   0  0  0  0  0  0  0  0  0  0  0  0
  -24.8964  -31.9156   26.1866 C   0  0  0  0  0  0  0  0  0  0  0  0
  -24.9147  -28.3354   20.4394 C   0  0  0  0  0  0  0  0  0  0  0  0
  -24.9583  -10.3432   21.2911 C   0  0  0  0  0  0  0  0  0  0  0  0
  -26.5888  -26.5963   20.1511 C   0  0  0  0  0  0  0  0  0  0  0  0
  -24.3427   -8.2166   22.0793 C   0  0  0  0  0  0  0  0  0  0  0  0
  -25.0643   -5.5999   22.7230 C   0  0  0  0  0  0  0  0  0  0  0  0
  -24.1668   -7.7446   23.3800 C   0  0  0  0  0  0  0  0  0  0  0  0
  -27.9850  -12.9176   19.8387 C   0  0  0  0  0  0  0  0  0  0  0  0
  -29.6940  -13.7762   18.7537 C   0  0  0  0  0  0  0  0  0  0  0  0
  -29.1867  -11.4069   18.1391 C   0  0  0  0  0  0  0  0  0  0  0  0
  -23.8985  -30.3639   22.9852 C   0  0  0  0  0  0  0  0  0  0  0  0
  -21.9726  -30.7790   20.4082 C   0  0  0  0  0  0  0  0  0  0  0  0
  -21.1587  -29.8653   17.2224 C   0  0  0  0  0  0  0  0  0  0  0  0
  -28.5046  -19.3754   19.5834 C   0  0  0  0  0  0  0  0  0  0  0  0
  -26.9192  -24.4026   20.9167 C   0  0  0  0  0  0  0  0  0  1  0  0
  -22.9796  -33.3866   26.9947 C   0  0  0  0  0  0  0  0  0  0  0  0
  -25.5875  -30.6644   21.1378 C   0  0  0  0  0  0  0  0  0  0  0  0
  -23.4667  -28.7462   20.3846 C   0  0  0  0  0  0  0  0  0  0  0  0
  -22.1352  -32.7344   25.9029 C   0  0  0  0  0  0  0  0  0  0  0  0
  -31.0571  -17.6193   21.2445 C   0  0  0  0  0  0  0  0  0  0  0  0
  -22.4802  -31.2541   25.7741 C   0  0  0  0  0  0  0  0  0  0  0  0
  -30.6514  -16.1701   20.9779 C   0  0  0  0  0  0  0  0  0  0  0  0
  -29.8485  -18.5061   21.5493 C   0  0  0  0  0  0  0  0  0  0  0  0
  -28.5289  -21.1435   21.4008 C   0  0  0  0  0  0  0  0  0  0  0  0
  -28.6719  -21.7820   19.0220 C   0  0  0  0  0  0  0  0  0  0  0  0
  -27.3015  -22.0398   21.5642 C   0  0  0  0  0  0  0  0  0  0  0  0
  -27.4326  -22.6576   19.1619 C   0  0  0  0  0  0  0  0  0  0  0  0
  -28.3789  -16.9947   20.2550 C   0  0  0  0  0  0  0  0  0  0  0  0
  -23.9478  -31.0626   25.3727 C   0  0  1  0  0  0  0  0  0  0  0  0
  -24.1407  -30.8506   21.5844 C   0  0  1  0  0  0  0  0  0  0  0  0
  -29.5669  -16.0916   19.8888 C   0  0  2  0  0  0  0  0  0  0  0  0
  -19.5136  -30.3555   15.3919 C   0  0  0  0  0  0  0  0  0  0  0  0
  -19.8387  -29.1920   21.9043 C   0  0  0  0  0  0  0  0  0  0  0  0
  -18.6305  -28.9011   19.7308 C   0  0  0  0  0  0  0  0  0  0  0  0
  -18.9784  -31.1873   20.6661 C   0  0  0  0  0  0  0  0  0  0  0  0
  -23.2990  -30.7387   15.3743 C   0  0  0  0  0  0  0  0  0  0  0  0
  -20.9465  -29.9335   19.6932 C   0  0  1  0  0  0  0  0  0  0  0  0
  -20.8761  -30.6894   15.9792 C   0  0  2  0  0  0  0  0  0  0  0  0
  -19.6255  -29.7949   20.5014 C   0  0  0  0  0  0  0  0  0  0  0  0
  -28.0851  -14.1650   20.3055 N   0  0  0  0  0  0  0  0  0  0  0  0
  -29.1335  -14.6614   19.6268 N   0  0  0  0  0  0  0  0  0  0  0  0
  -23.1878  -30.1525   20.7191 N   0  0  0  0  0  0  0  0  0  0  0  0
  -28.8238  -18.3673   20.5051 N   0  0  0  0  0  0  0  0  0  0  0  0
  -28.6701  -20.7019   20.0073 N   0  0  0  0  0  0  0  0  0  0  0  0
  -27.2513  -23.0934   20.5509 N   0  0  0  0  0  0  0  0  0  0  0  0
  -30.7563  -14.1117   17.9913 N   0  0  0  0  0  0  0  0  0  0  0  0
  -28.3414  -10.3152   18.3802 N   0  0  0  0  0  0  0  0  0  0  0  0
  -24.1226  -31.3183   23.9590 N   0  0  0  0  0  0  0  0  0  0  0  0
  -20.7786  -30.5268   18.3710 N   0  0  0  0  0  0  0  0  0  0  0  0
  -21.9122  -30.4307   14.9397 N   0  3  0  0  0  0  0  0  0  0  0  0
  -30.1203  -11.2891   17.3096 O   0  0  0  0  0  0  0  0  0  0  0  0
  -23.5339  -29.2085   23.1688 O   0  0  0  0  0  0  0  0  0  0  0  0
  -21.7084  -31.9541   20.6746 O   0  0  0  0  0  0  0  0  0  0  0  0
  -21.6626  -28.7452   17.1787 O   0  0  0  0  0  0  0  0  0  0  0  0
  -28.0936  -19.1056   18.4478 O   0  0  0  0  0  0  0  0  0  0  0  0
  -26.6554  -24.7538   22.0661 O   0  0  0  0  0  0  0  0  0  0  0  0
  -23.9842   -9.5151   21.7580 O   0  0  0  0  0  0  0  0  0  0  0  0
  -26.9166  -25.2762   19.8256 O   0  0  0  0  0  0  0  0  0  1  0  0
  -25.4094   -4.3430   23.0316 F   0  0  0  0  0  0  0  0  0  0  0  0
  -23.6505   -8.5430   24.3244 F   0  0  0  0  0  0  0  0  0  0  0  0
  1  2  1  0  0  0  0
  1  5  2  0  0  0  0
  2  6  2  0  0  0  0
  3  8  2  0  0  0  0
  3 15  1  0  0  0  0
  4  9  1  0  0  0  0
  4 15  2  0  0  0  0
  5 17  1  0  0  0  0
  6 19  1  0  0  0  0
  7 10  2  0  0  0  0
  7 18  1  0  0  0  0
  8 21  1  0  0  0  0
  9 21  2  0  0  0  0
 10 22  1  0  0  0  0
 11 12  2  0  0  0  0
 11 23  1  0  0  0  0
 12 24  1  0  0  0  0
 13 20  1  0  0  0  0
 13 22  2  0  0  0  0
 14 24  2  0  0  0  0
 14 25  1  0  0  0  0
 15 26  1  0  0  0  0
 16 26  1  0  0  0  0
 16 27  2  0  0  0  0
 16 28  1  0  0  0  0
 17 19  2  0  0  0  0
 17 34  1  0  0  0  0
 18 20  2  0  0  0  0
 18 35  1  0  0  0  0
 19 47  1  0  0  0  0
 20 36  1  0  0  0  0
 21 75  1  0  0  0  0
 22 76  1  0  0  0  0
 23 25  2  0  0  0  0
 23 75  1  0  0  0  0
 24 77  1  0  0  0  0
 25 78  1  0  0  0  0
 26 58  2  0  0  0  0
 27 59  1  0  0  0  0
 27 64  1  0  0  0  0
 28 65  1  0  0  0  0
 28 69  2  0  0  0  0
 29 48  1  0  0  0  0
 29 66  1  0  0  0  0
 29 70  2  0  0  0  0
 30 55  1  0  0  0  0
 30 60  1  0  0  0  0
 30 71  2  0  0  0  0
 31 56  1  0  0  0  0
 31 67  1  0  0  0  0
 31 72  2  0  0  0  0
 32 61  1  0  0  0  0
 32 62  1  0  0  0  0
 32 73  2  0  0  0  0
 33 63  1  0  0  0  0
 33 74  2  0  0  0  0
 33 76  1  0  0  0  0
 34 37  1  0  0  0  0
 35 48  1  0  0  0  0
 36 60  1  0  0  0  0
 37 39  1  0  0  0  0
 38 40  1  0  0  0  0
 38 41  1  0  0  0  0
 39 47  1  0  0  0  0
 40 49  1  0  0  0  0
 41 61  1  0  0  0  0
 42 44  1  0  0  0  0
 42 62  1  0  0  0  0
 43 45  1  0  0  0  0
 43 62  1  0  0  0  0
 44 63  1  0  0  0  0
 45 63  1  0  0  0  0
 46 49  1  0  0  0  0
 46 61  1  0  0  0  0
 47 66  1  0  0  0  0
 48 60  1  0  0  0  0
 49 59  1  0  0  0  0
 50 56  1  0  0  0  0
 51 57  1  0  0  0  0
 52 57  1  0  0  0  0
 53 57  1  0  0  0  0
 54 68  1  0  0  0  0
 55 57  1  0  0  0  0
 55 67  1  0  0  0  0
 56 68  1  0  0  0  0
 58 59  1  0  0  0  0
M  CHG  1  68   1
M  ISO  4  32 100  33 101  62 100  76 101
M  END
> <Batch ID>
0003

> <Smiles>
CNC(C)C(=O)NC(C(=O)N1Cc2cc([101O:1][101C:1](=O)N3CC[100N:0]([100C:0](=O)N4CCCC(n5nc(-c6ccc(Oc7ccc(F)cc7F)cc6)c(C(N)=O)c5N)C4)CC3)ccc2CC1C(=O)NC1CCCc2ccccc21)C(C)(C)C

> <Shape>
0.271

> <Color>
0.058

> <Negative vol penalty>
0.000

$$$$

  -OEChem-04042320203D

 86 94  0     1  0  0  0  0  0999 V2000
  -37.4701  -34.9739   37.2148 C   0  0  0  0  0  0  0  0  0  0  0  0
  -38.1148  -33.7576   37.4158 C   0  0  0  0  0  0  0  0  0  0  0  0
  -23.0736   -9.8698   19.9415 C   0  0  0  0  0  0  0  0  0  0  0  0
  -23.8315   -9.8780   22.2355 C   0  0  0  0  0  0  0  0  0  0  0  0
  -36.0944  -35.0036   36.9901 C   0  0  0  0  0  0  0  0  0  0  0  0
  -37.3839  -32.5703   37.3933 C   0  0  0  0  0  0  0  0  0  0  0  0
  -38.9648  -27.3307   32.7094 C   0  0  0  0  0  0  0  0  0  0  0  0
  -29.8795  -17.4566   23.1390 C   0  0  0  0  0  0  0  0  0  0  0  0
  -32.0637  -16.6055   22.5542 C   0  0  0  0  0  0  0  0  0  0  0  0
  -30.4662  -18.3401   24.0449 C   0  0  0  0  0  0  0  0  0  0  0  0
  -32.6505  -17.4891   23.4601 C   0  0  0  0  0  0  0  0  0  0  0  0
  -22.3286   -8.7175   20.1917 C   0  0  0  0  0  0  0  0  0  0  0  0
  -23.0865   -8.7256   22.4858 C   0  0  0  0  0  0  0  0  0  0  0  0
  -39.3391  -26.1977   31.9867 C   0  0  0  0  0  0  0  0  0  0  0  0
  -19.3785   -7.9243   21.6410 C   0  0  0  0  0  0  0  0  0  0  0  0
  -18.0720   -7.8788   21.1546 C   0  0  0  0  0  0  0  0  0  0  0  0
  -37.4396  -24.9917   32.8728 C   0  0  0  0  0  0  0  0  0  0  0  0
  -18.6313   -5.9342   19.8344 C   0  0  0  0  0  0  0  0  0  0  0  0
  -23.8251  -10.4500   20.9634 C   0  0  0  0  0  0  0  0  0  0  0  0
  -24.1691  -12.9748   20.8418 C   0  0  0  0  0  0  0  0  0  0  0  0
  -35.3478  -33.8153   36.9552 C   0  0  0  0  0  0  0  0  0  0  0  0
  -37.8164  -27.3033   33.5055 C   0  0  0  0  0  0  0  0  0  0  0  0
  -35.9967  -32.5842   37.1692 C   0  0  0  0  0  0  0  0  0  0  0  0
  -37.0527  -26.1274   33.5892 C   0  0  0  0  0  0  0  0  0  0  0  0
  -30.6782  -16.5892   22.3937 C   0  0  0  0  0  0  0  0  0  0  0  0
  -31.8517  -18.3564   24.2055 C   0  0  0  0  0  0  0  0  0  0  0  0
  -22.3350   -8.1453   21.4638 C   0  0  0  0  0  0  0  0  0  0  0  0
  -38.5785  -25.0311   32.0684 C   0  0  0  0  0  0  0  0  0  0  0  0
  -20.3115   -6.9749   21.2240 C   0  0  0  0  0  0  0  0  0  0  0  0
  -17.6984   -6.8837   20.2514 C   0  0  0  0  0  0  0  0  0  0  0  0
  -19.9378   -5.9798   20.3207 C   0  0  0  0  0  0  0  0  0  0  0  0
  -24.5954  -11.6401   20.7054 C   0  0  0  0  0  0  0  0  0  0  0  0
  -25.2622  -13.7232   20.4789 C   0  0  0  0  0  0  0  0  0  0  0  0
  -22.8987  -13.4920   21.2592 C   0  0  0  0  0  0  0  0  0  0  0  0
  -35.5379  -29.1721   35.8275 C   0  0  0  0  0  0  0  0  0  0  0  0
  -33.7505  -27.4863   33.9907 C   0  0  0  0  0  0  0  0  0  0  0  0
  -32.1275  -25.8095   31.5025 C   0  0  0  0  0  0  0  0  0  0  0  0
  -30.7290  -14.7645   20.6576 C   0  0  0  0  0  0  0  0  0  0  0  0
  -33.8553  -33.9013   36.7559 C   0  0  0  0  0  0  0  0  0  0  0  0
  -37.4097  -28.4807   34.3493 C   0  0  0  0  0  0  0  0  0  0  0  0
  -35.8445  -26.1332   34.4854 C   0  0  0  0  0  0  0  0  0  0  0  0
  -33.2140  -32.5695   36.3747 C   0  0  0  0  0  0  0  0  0  0  0  0
  -29.6148  -12.3498   18.2902 C   0  0  0  0  0  0  0  0  0  0  0  0
  -33.7268  -31.4522   37.2778 C   0  0  0  0  0  0  0  0  0  0  0  0
  -28.1745  -12.0597   18.7187 C   0  0  0  0  0  0  0  0  0  0  0  0
  -30.5290  -12.5788   19.4924 C   0  0  0  0  0  0  0  0  0  0  0  0
  -28.6214  -13.3058   20.8715 C   0  0  0  0  0  0  0  0  0  0  0  0
  -35.2423  -31.2730   37.1274 C   0  0  1  0  0  0  0  0  0  0  0  0
  -35.8833  -28.6397   34.4679 C   0  0  1  0  0  0  0  0  0  0  0  0
  -27.6495  -13.1324   19.6929 C   0  0  2  0  0  0  0  0  0  0  0  0
  -29.8228  -25.2644   30.6726 C   0  0  0  0  0  0  0  0  0  0  0  0
  -33.4391  -25.4272   36.2194 C   0  0  0  0  0  0  0  0  0  0  0  0
  -31.6729  -24.3084   34.8422 C   0  0  0  0  0  0  0  0  0  0  0  0
  -31.3400  -26.6519   35.6293 C   0  0  0  0  0  0  0  0  0  0  0  0
  -32.6075  -27.1767   28.9219 C   0  0  0  0  0  0  0  0  0  0  0  0
  -36.0341  -21.5971   27.6666 C   0  0  0  0  0  0  0  0  0  0  0  0
  -37.5377  -21.7427   27.9119 C   0  0  0  0  0  0  0  0  0  0  0  0
  -35.6834  -20.4984   26.6582 C   0  0  0  0  0  0  0  0  0  0  0  0
  -37.8302  -22.8729   28.9017 C   0  0  0  0  0  0  0  0  0  0  0  0
  -34.1793  -20.3766   26.3903 C   0  0  0  0  0  0  0  0  0  0  0  0
  -39.3276  -22.9995   29.1740 C   0  0  0  0  0  0  0  0  0  0  0  0
  -33.8569  -19.3201   25.3351 C   0  0  0  0  0  0  0  0  0  0  0  0
  -39.6302  -24.1487   30.1250 C   0  0  0  0  0  0  0  0  0  1  0  0
  -33.0109  -26.1879   33.7896 C   0  0  1  0  0  0  0  0  0  0  0  0
  -30.9977  -26.2254   30.5779 C   0  0  2  0  0  0  0  0  0  0  0  0
  -32.3919  -25.6478   35.1096 C   0  0  0  0  0  0  0  0  0  0  0  0
  -25.8606  -11.5429   20.2883 N   0  0  0  0  0  0  0  0  0  0  0  0
  -26.2386  -12.8261   20.1594 N   0  0  0  0  0  0  0  0  0  0  0  0
  -35.1069  -27.3962   34.3262 N   0  0  0  0  0  0  0  0  0  0  0  0
  -29.9701  -13.6107   20.3685 N   0  0  0  0  0  0  0  0  0  0  0  0
  -25.4737  -15.0544   20.4050 N   0  0  0  0  0  0  0  0  0  0  0  0
  -21.8857  -12.5839   21.5962 N   0  0  0  0  0  0  0  0  0  0  0  0
  -30.0817  -15.6907   21.4747 N   0  0  0  0  0  0  0  0  0  0  0  0
  -32.4343  -19.2350   25.1050 N   0  0  0  0  0  0  0  0  0  0  0  0
  -35.5476  -30.5514   35.9107 N   0  0  0  0  0  0  0  0  0  0  0  0
  -32.0386  -26.4319   32.7297 N   0  0  0  0  0  0  0  0  0  0  0  0
  -31.4689  -26.2538   29.1643 N   0  3  0  0  0  0  0  0  0  0  0  0
  -22.6633  -14.7228   21.3153 O   0  0  0  0  0  0  0  0  0  0  0  0
  -35.2798  -28.3901   36.7350 O   0  0  0  0  0  0  0  0  0  0  0  0
  -33.1433  -28.5528   33.8602 O   0  0  0  0  0  0  0  0  0  0  0  0
  -32.9995  -25.0094   31.1707 O   0  0  0  0  0  0  0  0  0  0  0  0
  -31.8587  -14.9320   20.1908 O   0  0  0  0  0  0  0  0  0  0  0  0
  -21.6080   -7.0210   21.7084 O   0  0  0  0  0  0  0  0  0  0  0  0
  -38.9499  -23.9218   31.3514 O   0  0  0  0  0  0  0  0  0  1  0  0
  -16.4433   -6.8392   19.7856 F   0  0  0  0  0  0  0  0  0  0  0  0
  -20.8294   -5.0643   19.9174 F   0  0  0  0  0  0  0  0  0  0  0  0
  1  2  1  0  0  0  0
  1  5  2  0  0  0  0
  2  6  2  0  0  0  0
  3 12  2  0  0  0  0
  3 19  1  0  0  0  0
  4 13  1  0  0  0  0
  4 19  2  0  0  0  0
  5 21  1  0  0  0  0
  6 23  1  0  0  0  0
  7 14  2  0  0  0  0
  7 22  1  0  0  0  0
  8 10  2  0  0  0  0
  8 25  1  0  0  0  0
  9 11  1  0  0  0  0
  9 25  2  0  0  0  0
 10 26  1  0  0  0  0
 11 26  2  0  0  0  0
 12 27  1  0  0  0  0
 13 27  2  0  0  0  0
 14 28  1  0  0  0  0
 15 16  2  0  0  0  0
 15 29  1  0  0  0  0
 16 30  1  0  0  0  0
 17 24  1  0  0  0  0
 17 28  2  0  0  0  0
 18 30  2  0  0  0  0
 18 31  1  0  0  0  0
 19 32  1  0  0  0  0
 20 32  1  0  0  0  0
 20 33  2  0  0  0  0
 20 34  1  0  0  0  0
 21 23  2  0  0  0  0
 21 39  1  0  0  0  0
 22 24  2  0  0  0  0
 22 40  1  0  0  0  0
 23 48  1  0  0  0  0
 24 41  1  0  0  0  0
 25 73  1  0  0  0  0
 26 74  1  0  0  0  0
 27 83  1  0  0  0  0
 28 84  1  0  0  0  0
 29 31  2  0  0  0  0
 29 83  1  0  0  0  0
 30 85  1  0  0  0  0
 31 86  1  0  0  0  0
 32 67  2  0  0  0  0
 33 68  1  0  0  0  0
 33 71  1  0  0  0  0
 34 72  1  0  0  0  0
 34 78  2  0  0  0  0
 35 49  1  0  0  0  0
 35 75  1  0  0  0  0
 35 79  2  0  0  0  0
 36 64  1  0  0  0  0
 36 69  1  0  0  0  0
 36 80  2  0  0  0  0
 37 65  1  0  0  0  0
 37 76  1  0  0  0  0
 37 81  2  0  0  0  0
 38 70  1  0  0  0  0
 38 73  1  0  0  0  0
 38 82  2  0  0  0  0
 39 42  1  0  0  0  0
 40 49  1  0  0  0  0
 41 69  1  0  0  0  0
 42 44  1  0  0  0  0
 43 45  1  0  0  0  0
 43 46  1  0  0  0  0
 44 48  1  0  0  0  0
 45 50  1  0  0  0  0
 46 70  1  0  0  0  0
 47 50  1  0  0  0  0
 47 70  1  0  0  0  0
 48 75  1  0  0  0  0
 49 69  1  0  0  0  0
 50 68  1  0  0  0  0
 51 65  1  0  0  0  0
 52 66  1  0  0  0  0
 53 66  1  0  0  0  0
 54 66  1  0  0  0  0
 55 77  1  0  0  0  0
 56 57  1  0  0  0  0
 56 58  1  0  0  0  0
 57 59  1  0  0  0  0
 58 60  1  0  0  0  0
 59 61  1  0  0  0  0
 60 62  1  0  0  0  0
 61 63  1  0  0  0  0
 62 74  1  0  0  0  0
 63 84  1  0  0  0  0
 64 66  1  0  0  0  0
 64 76  1  0  0  0  0
 65 77  1  0  0  0  0
 67 68  1  0  0  0  0
M  CHG  1  77   1
M  ISO  4  38 100  63 101  73 100  84 101
M  END
> <Batch ID>
0003

> <Smiles>
CNC(C)C(=O)NC(C(=O)N1Cc2cc([101O:1][101CH2:1]CCCCCCCNc3ccc([100NH:0][100C:0](=O)N4CCCC(n5nc(-c6ccc(Oc7ccc(F)cc7F)cc6)c(C(N)=O)c5N)C4)cc3)ccc2CC1C(=O)NC1CCCc2ccccc21)C(C)(C)C

> <Shape>
0.145

> <Color>
0.187

> <Negative vol penalty>
0.000

$$$$

  -OEChem-04042320203D

 90 98  0     1  0  0  0  0  0999 V2000
  -32.4020  -14.2510   21.1047 C   0  0  0  0  0  0  0  0  0  0  0  0
  -31.6179  -15.3963   21.1986 C   0  0  0  0  0  0  0  0  0  0  0  0
  -18.3744  -25.5378   22.9364 C   0  0  0  0  0  0  0  0  0  0  0  0
  -27.9348  -25.9908   17.9240 C   0  0  0  0  0  0  0  0  0  0  0  0
  -27.6923  -24.7005   19.9522 C   0  0  0  0  0  0  0  0  0  0  0  0
  -18.8036  -24.5452   22.0554 C   0  0  0  0  0  0  0  0  0  0  0  0
  -31.8571  -13.0747   20.5914 C   0  0  0  0  0  0  0  0  0  0  0  0
  -30.2887  -15.3664   20.7781 C   0  0  0  0  0  0  0  0  0  0  0  0
  -25.5814  -18.4199   23.2325 C   0  0  0  0  0  0  0  0  0  0  0  0
  -19.2739  -26.5006   23.3942 C   0  0  0  0  0  0  0  0  0  0  0  0
  -28.6995  -24.9674   17.3643 C   0  0  0  0  0  0  0  0  0  0  0  0
  -28.4570  -23.6770   19.3924 C   0  0  0  0  0  0  0  0  0  0  0  0
  -24.9466  -19.6089   22.8762 C   0  0  0  0  0  0  0  0  0  0  0  0
  -28.0048  -21.1471   17.1979 C   0  0  0  0  0  0  0  0  0  0  0  0
  -27.5453  -19.8391   17.3510 C   0  0  0  0  0  0  0  0  0  0  0  0
  -21.0319  -25.4783   22.0900 C   0  0  0  0  0  0  0  0  0  0  0  0
  -23.2713  -18.3496   21.6818 C   0  0  0  0  0  0  0  0  0  0  0  0
  -29.5805  -19.2609   18.5177 C   0  0  0  0  0  0  0  0  0  0  0  0
  -27.4313  -25.8575   19.2180 C   0  0  0  0  0  0  0  0  0  0  0  0
  -20.1324  -24.5155   21.6322 C   0  0  0  0  0  0  0  0  0  0  0  0
  -25.2441  -27.0676   19.7274 C   0  0  0  0  0  0  0  0  0  0  0  0
  -30.5178  -13.0277   20.1734 C   0  0  0  0  0  0  0  0  0  0  0  0
  -25.0712  -17.1852   22.8062 C   0  0  0  0  0  0  0  0  0  0  0  0
  -29.7258  -14.1888   20.2575 C   0  0  0  0  0  0  0  0  0  0  0  0
  -23.9001  -17.1462   22.0362 C   0  0  0  0  0  0  0  0  0  0  0  0
  -20.6026  -26.4708   22.9710 C   0  0  0  0  0  0  0  0  0  0  0  0
  -28.9605  -23.8104   18.0984 C   0  0  0  0  0  0  0  0  0  0  0  0
  -23.7931  -19.5741   22.0983 C   0  0  0  0  0  0  0  0  0  0  0  0
  -29.2521  -21.5121   17.7046 C   0  0  0  0  0  0  0  0  0  0  0  0
  -28.3332  -18.8960   18.0110 C   0  0  0  0  0  0  0  0  0  0  0  0
  -30.0399  -20.5690   18.3645 C   0  0  0  0  0  0  0  0  0  0  0  0
  -26.6418  -26.9146   19.7970 C   0  0  0  0  0  0  0  0  0  0  0  0
  -24.9893  -28.2195   20.4308 C   0  0  0  0  0  0  0  0  0  0  0  0
  -20.5890  -23.4585   20.6934 C   0  0  0  0  0  0  0  0  0  0  0  0
  -24.2637  -26.2422   19.0846 C   0  0  0  0  0  0  0  0  0  0  0  0
  -26.1582  -14.8166   20.9864 C   0  0  0  0  0  0  0  0  0  0  0  0
  -23.4242  -13.3525   21.9371 C   0  0  0  0  0  0  0  0  0  0  0  0
  -20.2320  -13.6535   23.1060 C   0  0  0  0  0  0  0  0  0  0  0  0
  -27.9348  -31.0661   24.7980 C   0  0  0  0  0  0  0  0  0  0  0  0
  -29.9867  -11.7463   19.5814 C   0  0  0  0  0  0  0  0  0  0  0  0
  -25.7527  -15.9102   23.2215 C   0  0  0  0  0  0  0  0  0  0  0  0
  -23.3004  -15.8455   21.5701 C   0  0  0  0  0  0  0  0  0  0  0  0
  -28.4628  -11.6957   19.5062 C   0  0  0  0  0  0  0  0  0  0  0  0
  -26.9940  -32.3945   21.6315 C   0  0  0  0  0  0  0  0  0  0  0  0
  -27.9129  -12.9995   18.9366 C   0  0  0  0  0  0  0  0  0  0  0  0
  -26.6709  -31.1545   20.7960 C   0  0  0  0  0  0  0  0  0  0  0  0
  -28.1643  -32.1463   22.5806 C   0  0  0  0  0  0  0  0  0  0  0  0
  -27.6905  -29.7281   22.6193 C   0  0  0  0  0  0  0  0  0  0  0  0
  -28.2727  -14.1892   19.8348 C   0  0  1  0  0  0  0  0  0  0  0  0
  -25.4351  -14.7358   22.3010 C   0  0  1  0  0  0  0  0  0  0  0  0
  -26.4810  -29.9121   21.6867 C   0  0  2  0  0  0  0  0  0  0  0  0
  -18.2326  -12.2808   23.7506 C   0  0  0  0  0  0  0  0  0  0  0  0
  -22.7953  -12.8880   18.9878 C   0  0  0  0  0  0  0  0  0  0  0  0
  -20.4281  -12.4003   19.6412 C   0  0  0  0  0  0  0  0  0  0  0  0
  -22.2761  -10.9515   20.4827 C   0  0  0  0  0  0  0  0  0  0  0  0
  -20.2972  -14.6547   25.8903 C   0  0  0  0  0  0  0  0  0  0  0  0
  -21.5646  -27.5003   23.4605 C   0  0  0  0  0  0  0  0  0  0  0  0
  -25.2347  -29.0991   27.0052 C   0  0  0  0  0  0  0  0  0  0  0  0
  -23.8193  -29.3731   27.5233 C   0  0  0  0  0  0  0  0  0  0  0  0
  -26.2714  -30.1089   27.5084 C   0  0  0  0  0  0  0  0  0  0  0  0
  -22.7698  -28.4109   26.9636 C   0  0  0  0  0  0  0  0  0  0  0  0
  -27.6639  -29.8459   26.9420 C   0  0  0  0  0  0  0  0  0  0  0  0
  -22.5320  -22.1338   19.9021 C   0  0  0  0  0  0  0  0  0  0  0  0
  -22.7223  -28.4829   25.4437 C   0  0  0  0  0  0  0  0  0  0  0  0
  -22.4664  -20.7434   20.5081 C   0  0  0  0  0  0  0  0  0  1  0  0
  -22.0094  -13.2865   21.4147 C   0  0  1  0  0  0  0  0  0  0  0  0
  -19.5047  -12.9548   24.2407 C   0  0  2  0  0  0  0  0  0  0  0  0
  -21.8894  -12.4063   20.1386 C   0  0  0  0  0  0  0  0  0  0  0  0
  -27.2336  -27.8913   20.4897 N   0  0  0  0  0  0  0  0  0  0  0  0
  -26.2027  -28.6691   20.8618 N   0  0  0  0  0  0  0  0  0  0  0  0
  -24.0069  -14.6263   21.9967 N   0  0  0  0  0  0  0  0  0  0  0  0
  -27.9207  -30.9552   23.3978 N   0  0  0  0  0  0  0  0  0  0  0  0
  -23.8480  -28.8815   20.7164 N   0  0  0  0  0  0  0  0  0  0  0  0
  -24.6973  -25.0952   18.4058 N   0  0  0  0  0  0  0  0  0  0  0  0
  -21.9349  -23.1209   20.7620 N   0  0  0  0  0  0  0  0  0  0  0  0
  -27.4078  -14.2266   20.9945 N   0  0  0  0  0  0  0  0  0  0  0  0
  -21.1829  -12.8378   22.5300 N   0  0  0  0  0  0  0  0  0  0  0  0
  -27.6885  -29.8908   25.4970 N   0  0  0  0  0  0  0  0  0  0  0  0
  -19.1385  -13.9346   25.3022 N   0  3  0  0  0  0  0  0  0  0  0  0
  -21.7252  -27.5023   24.9408 N   0  3  0  0  0  0  0  0  0  0  0  0
  -19.7833  -22.9628   19.9100 O   0  0  0  0  0  0  0  0  0  0  0  0
  -23.0411  -26.5226   19.0974 O   0  0  0  0  0  0  0  0  0  0  0  0
  -25.6216  -15.3716   20.0348 O   0  0  0  0  0  0  0  0  0  0  0  0
  -23.9889  -12.3129   22.2865 O   0  0  0  0  0  0  0  0  0  0  0  0
  -19.9792  -14.8061   22.7624 O   0  0  0  0  0  0  0  0  0  0  0  0
  -28.1457  -32.1345   25.3818 O   0  0  0  0  0  0  0  0  0  0  0  0
  -29.7064  -22.8114   17.5524 O   0  0  0  0  0  0  0  0  0  0  0  0
  -23.1718  -20.7332   21.7485 O   0  0  0  0  0  0  0  0  0  1  0  0
  -27.8912  -17.6402   18.1593 F   0  0  0  0  0  0  0  0  0  0  0  0
  -31.2385  -20.9140   18.8545 F   0  0  0  0  0  0  0  0  0  0  0  0
  1  2  1  0  0  0  0
  1  7  2  0  0  0  0
  2  8  2  0  0  0  0
  3  6  2  0  0  0  0
  3 10  1  0  0  0  0
  4 11  2  0  0  0  0
  4 19  1  0  0  0  0
  5 12  1  0  0  0  0
  5 19  2  0  0  0  0
  6 20  1  0  0  0  0
  7 22  1  0  0  0  0
  8 24  1  0  0  0  0
  9 13  2  0  0  0  0
  9 23  1  0  0  0  0
 10 26  2  0  0  0  0
 11 27  1  0  0  0  0
 12 27  2  0  0  0  0
 13 28  1  0  0  0  0
 14 15  2  0  0  0  0
 14 29  1  0  0  0  0
 15 30  1  0  0  0  0
 16 20  2  0  0  0  0
 16 26  1  0  0  0  0
 17 25  1  0  0  0  0
 17 28  2  0  0  0  0
 18 30  2  0  0  0  0
 18 31  1  0  0  0  0
 19 32  1  0  0  0  0
 20 34  1  0  0  0  0
 21 32  1  0  0  0  0
 21 33  2  0  0  0  0
 21 35  1  0  0  0  0
 22 24  2  0  0  0  0
 22 40  1  0  0  0  0
 23 25  2  0  0  0  0
 23 41  1  0  0  0  0
 24 49  1  0  0  0  0
 25 42  1  0  0  0  0
 26 57  1  0  0  0  0
 27 87  1  0  0  0  0
 28 88  1  0  0  0  0
 29 31  2  0  0  0  0
 29 87  1  0  0  0  0
 30 89  1  0  0  0  0
 31 90  1  0  0  0  0
 32 69  2  0  0  0  0
 33 70  1  0  0  0  0
 33 73  1  0  0  0  0
 34 75  1  0  0  0  0
 34 81  2  0  0  0  0
 35 74  1  0  0  0  0
 35 82  2  0  0  0  0
 36 50  1  0  0  0  0
 36 76  1  0  0  0  0
 36 83  2  0  0  0  0
 37 66  1  0  0  0  0
 37 71  1  0  0  0  0
 37 84  2  0  0  0  0
 38 67  1  0  0  0  0
 38 77  1  0  0  0  0
 38 85  2  0  0  0  0
 39 72  1  0  0  0  0
 39 78  1  0  0  0  0
 39 86  2  0  0  0  0
 40 43  1  0  0  0  0
 41 50  1  0  0  0  0
 42 71  1  0  0  0  0
 43 45  1  0  0  0  0
 44 46  1  0  0  0  0
 44 47  1  0  0  0  0
 45 49  1  0  0  0  0
 46 51  1  0  0  0  0
 47 72  1  0  0  0  0
 48 51  1  0  0  0  0
 48 72  1  0  0  0  0
 49 76  1  0  0  0  0
 50 71  1  0  0  0  0
 51 70  1  0  0  0  0
 52 67  1  0  0  0  0
 53 68  1  0  0  0  0
 54 68  1  0  0  0  0
 55 68  1  0  0  0  0
 56 79  1  0  0  0  0
 57 80  1  0  0  0  0
 58 59  1  0  0  0  0
 58 60  1  0  0  0  0
 59 61  1  0  0  0  0
 60 62  1  0  0  0  0
 61 64  1  0  0  0  0
 62 78  1  0  0  0  0
 63 65  1  0  0  0  0
 63 75  1  0  0  0  0
 64 80  1  0  0  0  0
 65 88  1  0  0  0  0
 66 68  1  0  0  0  0
 66 77  1  0  0  0  0
 67 79  1  0  0  0  0
 69 70  1  0  0  0  0
M  CHG  2  79   1  80   1
M  ISO  4  39 100  65 101  78 100  88 101
M  END
> <Batch ID>
0003

> <Smiles>
CNC(C)C(=O)NC(C(=O)N1Cc2cc([101O:1][101CH2:1]CNC(=O)c3cccc(CNCCCCCC[100NH:0][100C:0](=O)N4CCCC(n5nc(-c6ccc(Oc7ccc(F)cc7F)cc6)c(C(N)=O)c5N)C4)c3)ccc2CC1C(=O)NC1CCCc2ccccc21)C(C)(C)C

> <Shape>
0.251

> <Color>
0.054

> <Negative vol penalty>
0.000

$$$$

  -OEChem-04042320203D

 89 98  0     1  0  0  0  0  0999 V2000
  -29.1023  -16.3524   15.5047 C   0  0  0  0  0  0  0  0  0  0  0  0
  -28.5652  -16.9175   16.6569 C   0  0  0  0  0  0  0  0  0  0  0  0
  -32.9366  -20.9417   21.2474 C   0  0  0  0  0  0  0  0  0  0  0  0
  -23.0960   -9.8522   19.9199 C   0  0  0  0  0  0  0  0  0  0  0  0
  -23.8767   -9.8302   22.2062 C   0  0  0  0  0  0  0  0  0  0  0  0
  -32.2955  -21.8312   22.1096 C   0  0  0  0  0  0  0  0  0  0  0  0
  -30.1279  -17.0053   14.8223 C   0  0  0  0  0  0  0  0  0  0  0  0
  -29.0542  -18.1354   17.1281 C   0  0  0  0  0  0  0  0  0  0  0  0
  -25.8580  -22.5587   19.9073 C   0  0  0  0  0  0  0  0  0  0  0  0
  -32.3136  -19.7463   20.8891 C   0  0  0  0  0  0  0  0  0  0  0  0
  -22.3785   -8.6792   20.1536 C   0  0  0  0  0  0  0  0  0  0  0  0
  -23.1590   -8.6572   22.4399 C   0  0  0  0  0  0  0  0  0  0  0  0
  -25.6910  -22.8927   21.2506 C   0  0  0  0  0  0  0  0  0  0  0  0
  -19.9537   -7.7808   23.0550 C   0  0  0  0  0  0  0  0  0  0  0  0
  -19.2086   -7.7022   24.2314 C   0  0  0  0  0  0  0  0  0  0  0  0
  -30.4083  -20.3297   22.2552 C   0  0  0  0  0  0  0  0  0  0  0  0
  -27.4465  -24.5355   21.0541 C   0  0  0  0  0  0  0  0  0  0  0  0
  -20.4964   -5.7770   24.9186 C   0  0  0  0  0  0  0  0  0  0  0  0
  -23.8452  -10.4277   20.9462 C   0  0  0  0  0  0  0  0  0  0  0  0
  -31.0313  -21.5252   22.6135 C   0  0  0  0  0  0  0  0  0  0  0  0
  -24.1338  -12.9613   20.8729 C   0  0  0  0  0  0  0  0  0  0  0  0
  -30.6232  -18.2366   15.2799 C   0  0  0  0  0  0  0  0  0  0  0  0
  -26.8296  -23.2040   19.1289 C   0  0  0  0  0  0  0  0  0  0  0  0
  -30.0884  -18.8048   16.4519 C   0  0  0  0  0  0  0  0  0  0  0  0
  -27.6221  -24.2096   19.7006 C   0  0  0  0  0  0  0  0  0  0  0  0
  -31.0494  -19.4403   21.3930 C   0  0  0  0  0  0  0  0  0  0  0  0
  -22.4099   -8.0816   21.4136 C   0  0  0  0  0  0  0  0  0  0  0  0
  -26.4873  -23.8792   21.8250 C   0  0  0  0  0  0  0  0  0  0  0  0
  -20.9702   -6.8574   22.8102 C   0  0  0  0  0  0  0  0  0  0  0  0
  -19.4799   -6.7004   25.1633 C   0  0  0  0  0  0  0  0  0  0  0  0
  -21.2415   -5.8555   23.7421 C   0  0  0  0  0  0  0  0  0  0  0  0
  -24.5872  -11.6391   20.7052 C   0  0  0  0  0  0  0  0  0  0  0  0
  -25.2068  -13.7403   20.5149 C   0  0  0  0  0  0  0  0  0  0  0  0
  -30.3579  -22.4601   23.5186 C   0  0  0  0  0  0  0  0  0  0  0  0
  -22.8568  -13.4423   21.3131 C   0  0  0  0  0  0  0  0  0  0  0  0
  -29.4291  -22.2684   17.5570 C   0  0  0  0  0  0  0  0  0  0  0  0
  -29.4460  -25.3477   16.5373 C   0  0  0  0  0  0  0  0  0  0  0  0
  -28.5127  -28.5850   17.0813 C   0  0  0  0  0  0  0  0  0  0  0  0
  -30.6699  -14.8693   20.6751 C   0  0  0  0  0  0  0  0  0  0  0  0
  -31.7650  -18.8817   14.5352 C   0  0  0  0  0  0  0  0  0  0  0  0
  -26.9790  -22.8509   17.6745 C   0  0  0  0  0  0  0  0  0  0  0  0
  -28.6656  -24.9466   18.9027 C   0  0  0  0  0  0  0  0  0  0  0  0
  -31.9705  -20.3521   14.8904 C   0  0  0  0  0  0  0  0  0  0  0  0
  -29.5598  -12.5087   18.2519 C   0  0  0  0  0  0  0  0  0  0  0  0
  -30.1285  -24.1238   26.2230 C   0  0  0  0  0  0  0  0  0  0  0  0
  -31.9357  -20.5457   16.4031 C   0  0  0  0  0  0  0  0  0  0  0  0
  -30.7438  -22.7494   25.9709 C   0  0  0  0  0  0  0  0  0  0  0  0
  -28.1328  -12.1767   18.6916 C   0  0  0  0  0  0  0  0  0  0  0  0
  -30.4832  -12.7251   19.4488 C   0  0  0  0  0  0  0  0  0  0  0  0
  -28.5796  -13.3892   20.8662 C   0  0  0  0  0  0  0  0  0  0  0  0
  -28.6291  -24.0412   26.4576 C   0  0  0  0  0  0  0  0  0  0  0  0
  -28.4968  -21.9473   25.0850 C   0  0  0  0  0  0  0  0  0  0  0  0
  -30.5752  -20.1366   16.9804 C   0  0  1  0  0  0  0  0  0  0  0  0
  -30.0101  -21.9558   24.8900 C   0  0  1  0  0  0  0  0  0  0  0  0
  -28.3493  -23.2125   17.1096 C   0  0  1  0  0  0  0  0  0  0  0  0
  -27.5985  -13.2174   19.6939 C   0  0  2  0  0  0  0  0  0  0  0  0
  -28.7055  -30.8834   16.0926 C   0  0  0  0  0  0  0  0  0  0  0  0
  -32.3292  -25.5260   17.5198 C   0  0  0  0  0  0  0  0  0  0  0  0
  -32.1457  -28.0195   17.3907 C   0  0  0  0  0  0  0  0  0  0  0  0
  -31.9046  -26.6442   15.3236 C   0  0  0  0  0  0  0  0  0  0  0  0
  -25.5790  -28.8250   16.7738 C   0  0  0  0  0  0  0  0  0  0  0  0
  -30.3832  -18.1619   21.0100 C   0  0  0  0  0  0  0  0  0  0  0  0
  -30.7027  -16.9962   21.9535 C   0  0  0  0  0  0  0  0  0  0  0  0
  -26.4781  -23.3795   25.3889 C   0  0  0  0  0  0  0  0  0  0  0  0
  -25.8762  -23.1748   24.0127 C   0  0  0  0  0  0  0  0  0  1  0  0
  -30.0486  -26.6372   17.0404 C   0  0  1  0  0  0  0  0  0  0  0  0
  -27.8703  -29.6149   16.1697 C   0  0  2  0  0  0  0  0  0  0  0  0
  -31.5888  -26.6917   16.8344 C   0  0  0  0  0  0  0  0  0  0  0  0
  -25.8498  -11.5778   20.2740 N   0  0  0  0  0  0  0  0  0  0  0  0
  -26.1990  -12.8712   20.1677 N   0  0  0  0  0  0  0  0  0  0  0  0
  -28.7780  -24.5610   17.4863 N   0  0  0  0  0  0  0  0  0  0  0  0
  -29.9197  -13.7244   20.3597 N   0  0  0  0  0  0  0  0  0  0  0  0
  -25.3891  -15.0770   20.4663 N   0  0  0  0  0  0  0  0  0  0  0  0
  -21.8670  -12.5058   21.6412 N   0  0  0  0  0  0  0  0  0  0  0  0
  -29.5911  -21.1691   16.7356 N   0  0  0  0  0  0  0  0  0  0  0  0
  -29.3190  -27.7139   16.3795 N   0  0  0  0  0  0  0  0  0  0  0  0
  -30.0595  -15.7689   21.5405 N   0  0  0  0  0  0  0  0  0  0  0  0
  -27.9787  -23.3534   25.2835 N   0  3  1  0  0  0  0  0  0  0  0  0
  -26.5136  -29.9751   16.6702 N   0  3  0  0  0  0  0  0  0  0  0  0
  -30.0588  -23.6142   23.2301 O   0  0  0  0  0  0  0  0  0  0  0  0
  -22.5958  -14.6664   21.3967 O   0  0  0  0  0  0  0  0  0  0  0  0
  -30.0690  -22.5196   18.5715 O   0  0  0  0  0  0  0  0  0  0  0  0
  -29.5576  -25.0529   15.3447 O   0  0  0  0  0  0  0  0  0  0  0  0
  -28.3217  -28.5584   18.2951 O   0  0  0  0  0  0  0  0  0  0  0  0
  -31.7978  -15.0772   20.2150 O   0  0  0  0  0  0  0  0  0  0  0  0
  -21.7096   -6.9371   21.6421 O   0  0  0  0  0  0  0  0  0  0  0  0
  -26.3268  -24.2066   23.1360 O   0  0  0  0  0  0  0  0  0  1  0  0
  -18.7653   -6.6261   26.2938 F   0  0  0  0  0  0  0  0  0  0  0  0
  -22.2176   -4.9663   23.5131 F   0  0  0  0  0  0  0  0  0  0  0  0
  1  2  1  0  0  0  0
  1  7  2  0  0  0  0
  2  8  2  0  0  0  0
  3  6  2  0  0  0  0
  3 10  1  0  0  0  0
  4 11  2  0  0  0  0
  4 19  1  0  0  0  0
  5 12  1  0  0  0  0
  5 19  2  0  0  0  0
  6 20  1  0  0  0  0
  7 22  1  0  0  0  0
  8 24  1  0  0  0  0
  9 13  2  0  0  0  0
  9 23  1  0  0  0  0
 10 26  2  0  0  0  0
 11 27  1  0  0  0  0
 12 27  2  0  0  0  0
 13 28  1  0  0  0  0
 14 15  2  0  0  0  0
 14 29  1  0  0  0  0
 15 30  1  0  0  0  0
 16 20  2  0  0  0  0
 16 26  1  0  0  0  0
 17 25  1  0  0  0  0
 17 28  2  0  0  0  0
 18 30  2  0  0  0  0
 18 31  1  0  0  0  0
 19 32  1  0  0  0  0
 20 34  1  0  0  0  0
 21 32  1  0  0  0  0
 21 33  2  0  0  0  0
 21 35  1  0  0  0  0
 22 24  2  0  0  0  0
 22 40  1  0  0  0  0
 23 25  2  0  0  0  0
 23 41  1  0  0  0  0
 24 53  1  0  0  0  0
 25 42  1  0  0  0  0
 26 62  1  0  0  0  0
 27 86  1  0  0  0  0
 28 87  1  0  0  0  0
 29 31  2  0  0  0  0
 29 86  1  0  0  0  0
 30 88  1  0  0  0  0
 31 89  1  0  0  0  0
 32 69  2  0  0  0  0
 33 70  1  0  0  0  0
 33 73  1  0  0  0  0
 34 54  1  0  0  0  0
 34 80  2  0  0  0  0
 35 74  1  0  0  0  0
 35 81  2  0  0  0  0
 36 55  1  0  0  0  0
 36 75  1  0  0  0  0
 36 82  2  0  0  0  0
 37 66  1  0  0  0  0
 37 71  1  0  0  0  0
 37 83  2  0  0  0  0
 38 67  1  0  0  0  0
 38 76  1  0  0  0  0
 38 84  2  0  0  0  0
 39 72  1  0  0  0  0
 39 77  1  0  0  0  0
 39 85  2  0  0  0  0
 40 43  1  0  0  0  0
 41 55  1  0  0  0  0
 42 71  1  0  0  0  0
 43 46  1  0  0  0  0
 44 48  1  0  0  0  0
 44 49  1  0  0  0  0
 45 47  1  0  0  0  0
 45 51  1  0  0  0  0
 46 53  1  0  0  0  0
 47 54  1  0  0  0  0
 48 56  1  0  0  0  0
 49 72  1  0  0  0  0
 50 56  1  0  0  0  0
 50 72  1  0  0  0  0
 51 78  1  0  0  0  0
 52 54  1  0  0  0  0
 52 78  1  0  0  0  0
 53 75  1  0  0  0  0
 55 71  1  0  0  0  0
 56 70  1  0  0  0  0
 57 67  1  0  0  0  0
 58 68  1  0  0  0  0
 59 68  1  0  0  0  0
 60 68  1  0  0  0  0
 61 79  1  0  0  0  0
 62 63  1  0  0  0  0
 63 77  1  0  0  0  0
 64 65  1  0  0  0  0
 64 78  1  0  0  0  0
 65 87  1  0  0  0  0
 66 68  1  0  0  0  0
 66 76  1  0  0  0  0
 67 79  1  0  0  0  0
 69 70  1  0  0  0  0
M  CHG  2  78   1  79   1
M  ISO  4  39 100  65 101  77 100  87 101
M  END
> <Batch ID>
0003

> <Smiles>
CNC(C)C(=O)NC(C(=O)N1Cc2cc([101O:1][101CH2:1]CN3CCCC(C(=O)c4cccc(CC[100NH:0][100C:0](=O)N5CCCC(n6nc(-c7ccc(Oc8ccc(F)cc8F)cc7)c(C(N)=O)c6N)C5)c4)C3)ccc2CC1C(=O)NC1CCCc2ccccc21)C(C)(C)C

> <Shape>
0.208

> <Color>
0.187

> <Negative vol penalty>
0.000

$$$$

  -OEChem-04042320203D

 83 91  0     1  0  0  0  0  0999 V2000
  -28.6981  -10.8717   16.3746 C   0  0  0  0  0  0  0  0  0  0  0  0
  -28.0508  -12.0420   15.9917 C   0  0  0  0  0  0  0  0  0  0  0  0
  -24.8487  -30.2059   19.8399 C   0  0  0  0  0  0  0  0  0  0  0  0
  -24.3617  -29.0494   21.9045 C   0  0  0  0  0  0  0  0  0  0  0  0
  -29.2033  -10.7471   17.6681 C   0  0  0  0  0  0  0  0  0  0  0  0
  -27.9073  -13.0881   16.9025 C   0  0  0  0  0  0  0  0  0  0  0  0
  -28.9901  -17.5974   14.8680 C   0  0  0  0  0  0  0  0  0  0  0  0
  -23.8847  -19.7282   18.8408 C   0  0  0  0  0  0  0  0  0  0  0  0
  -24.8723  -31.4202   20.5256 C   0  0  0  0  0  0  0  0  0  0  0  0
  -24.3854  -30.2638   22.5903 C   0  0  0  0  0  0  0  0  0  0  0  0
  -28.0175  -18.1800   14.0567 C   0  0  0  0  0  0  0  0  0  0  0  0
  -24.6743  -33.0180   24.9460 C   0  0  0  0  0  0  0  0  0  0  0  0
  -24.4864  -18.5500   18.3987 C   0  0  0  0  0  0  0  0  0  0  0  0
  -25.3633  -33.0659   26.1578 C   0  0  0  0  0  0  0  0  0  0  0  0
  -27.3358  -19.5865   15.8942 C   0  0  0  0  0  0  0  0  0  0  0  0
  -22.2961  -19.5983   17.0251 C   0  0  0  0  0  0  0  0  0  0  0  0
  -27.4022  -32.4390   25.0234 C   0  0  0  0  0  0  0  0  0  0  0  0
  -24.5933  -29.0204   20.5293 C   0  0  0  0  0  0  0  0  0  0  0  0
  -25.6523  -26.8977   19.5911 C   0  0  0  0  0  0  0  0  0  0  0  0
  -29.0746  -11.7959   18.5922 C   0  0  0  0  0  0  0  0  0  0  0  0
  -29.1360  -17.9980   16.2039 C   0  0  0  0  0  0  0  0  0  0  0  0
  -28.4102  -12.9769   18.2099 C   0  0  0  0  0  0  0  0  0  0  0  0
  -28.3128  -19.0092   16.7197 C   0  0  0  0  0  0  0  0  0  0  0  0
  -22.8979  -18.4201   16.5830 C   0  0  0  0  0  0  0  0  0  0  0  0
  -22.7895  -20.2523   18.1540 C   0  0  0  0  0  0  0  0  0  0  0  0
  -24.6407  -31.4492   21.9008 C   0  0  0  0  0  0  0  0  0  0  0  0
  -27.1882  -19.1726   14.5706 C   0  0  0  0  0  0  0  0  0  0  0  0
  -25.3492  -32.6805   23.7728 C   0  0  0  0  0  0  0  0  0  0  0  0
  -26.7272  -32.7765   26.1966 C   0  0  0  0  0  0  0  0  0  0  0  0
  -23.9930  -17.8960   17.2698 C   0  0  0  0  0  0  0  0  0  0  0  0
  -26.7132  -32.3910   23.8116 C   0  0  0  0  0  0  0  0  0  0  0  0
  -24.5681  -27.7657   19.8214 C   0  0  0  0  0  0  0  0  0  0  0  0
  -25.1117  -25.8543   18.8801 C   0  0  0  0  0  0  0  0  0  0  0  0
  -27.0252  -27.0233   19.9848 C   0  0  0  0  0  0  0  0  0  0  0  0
  -28.8588  -16.5536   19.0219 C   0  0  0  0  0  0  0  0  0  0  0  0
  -29.9720  -19.3858   20.1451 C   0  0  0  0  0  0  0  0  0  0  0  0
  -30.3601  -22.7422   19.6644 C   0  0  0  0  0  0  0  0  0  0  0  0
  -21.0841  -22.1028   18.0384 C   0  0  0  0  0  0  0  0  0  0  0  0
  -29.5952  -11.5967   19.9936 C   0  0  0  0  0  0  0  0  0  0  0  0
  -30.2078  -17.3785   17.0583 C   0  0  0  0  0  0  0  0  0  0  0  0
  -28.4424  -19.4892   18.1414 C   0  0  0  0  0  0  0  0  0  0  0  0
  -29.7322  -12.8961   20.7830 C   0  0  0  0  0  0  0  0  0  0  0  0
  -20.5736  -25.3597   16.6932 C   0  0  0  0  0  0  0  0  0  0  0  0
  -28.4779  -13.7501   20.6273 C   0  0  0  0  0  0  0  0  0  0  0  0
  -21.6565  -26.2046   17.3681 C   0  0  0  0  0  0  0  0  0  0  0  0
  -20.0042  -24.3053   17.6406 C   0  0  0  0  0  0  0  0  0  0  0  0
  -22.0870  -24.2863   18.9562 C   0  0  0  0  0  0  0  0  0  0  0  0
  -28.2567  -14.1435   19.1617 C   0  0  1  0  0  0  0  0  0  0  0  0
  -29.9262  -17.5013   18.5526 C   0  0  1  0  0  0  0  0  0  0  0  0
  -22.7363  -25.3196   18.0212 C   0  0  2  0  0  0  0  0  0  0  0  0
  -31.2749  -24.7984   20.7746 C   0  0  0  0  0  0  0  0  0  0  0  0
  -27.5486  -19.4608   21.9977 C   0  0  0  0  0  0  0  0  0  0  0  0
  -27.9922  -21.8973   22.3649 C   0  0  0  0  0  0  0  0  0  0  0  0
  -29.6910  -20.2047   23.0518 C   0  0  0  0  0  0  0  0  0  0  0  0
  -32.2991  -23.2019   17.4763 C   0  0  0  0  0  0  0  0  0  0  0  0
  -22.3647  -17.7175   15.3693 C   0  0  0  0  0  0  0  0  0  0  0  0
  -24.2499  -19.3890   12.4859 C   0  0  0  0  0  0  0  0  0  0  0  0
  -23.3457  -19.3021   13.7062 C   0  0  0  0  0  0  0  0  0  0  0  0
  -25.6794  -18.9313   12.7481 C   0  0  0  0  0  0  0  0  0  1  0  0
  -29.3393  -20.6810   20.5938 C   0  0  1  0  0  0  0  0  0  0  0  0
  -31.5670  -23.6494   19.8221 C   0  0  2  0  0  0  0  0  0  0  0  0
  -28.6388  -20.5508   21.9758 C   0  0  0  0  0  0  0  0  0  0  0  0
  -23.4253  -27.3131   19.2989 N   0  0  0  0  0  0  0  0  0  0  0  0
  -23.7882  -26.1494   18.7332 N   0  0  0  0  0  0  0  0  0  0  0  0
  -29.5010  -18.8483   18.9388 N   0  0  0  0  0  0  0  0  0  0  0  0
  -21.0843  -23.5023   18.2180 N   0  0  0  0  0  0  0  0  0  0  0  0
  -25.6440  -24.7223   18.3725 N   0  0  0  0  0  0  0  0  0  0  0  0
  -27.4109  -28.1584   20.7107 N   0  0  0  0  0  0  0  0  0  0  0  0
  -22.1781  -21.4487   18.6040 N   0  0  0  0  0  0  0  0  0  0  0  0
  -29.1461  -15.2223   18.7882 N   0  0  0  0  0  0  0  0  0  0  0  0
  -30.3949  -21.6871   20.5514 N   0  0  0  0  0  0  0  0  0  0  0  0
  -31.9612  -24.2208   18.5033 N   0  3  0  0  0  0  0  0  0  0  0  0
  -23.2231  -17.8988   14.1660 N   0  3  0  0  0  0  0  0  0  0  0  0
  -27.8878  -26.1626   19.6870 O   0  0  0  0  0  0  0  0  0  0  0  0
  -27.8499  -16.9972   19.5576 O   0  0  0  0  0  0  0  0  0  0  0  0
  -30.8565  -18.8738   20.8357 O   0  0  0  0  0  0  0  0  0  0  0  0
  -29.4732  -22.9508   18.8396 O   0  0  0  0  0  0  0  0  0  0  0  0
  -20.1941  -21.5301   17.4044 O   0  0  0  0  0  0  0  0  0  0  0  0
  -24.6640  -32.6340   22.5704 O   0  0  0  0  0  0  0  0  0  0  0  0
  -26.2375  -19.7425   13.7810 O   0  0  0  0  0  0  0  0  0  1  0  0
  -27.3890  -32.8241   27.3601 F   0  0  0  0  0  0  0  0  0  0  0  0
  -24.5786  -16.7651   16.8520 F   0  0  0  0  0  0  0  0  0  0  0  0
  -27.3672  -32.0673   22.6876 F   0  0  0  0  0  0  0  0  0  0  0  0
  1  2  1  0  0  0  0
  1  5  2  0  0  0  0
  2  6  2  0  0  0  0
  3  9  2  0  0  0  0
  3 18  1  0  0  0  0
  4 10  1  0  0  0  0
  4 18  2  0  0  0  0
  5 20  1  0  0  0  0
  6 22  1  0  0  0  0
  7 11  2  0  0  0  0
  7 21  1  0  0  0  0
  8 13  2  0  0  0  0
  8 25  1  0  0  0  0
  9 26  1  0  0  0  0
 10 26  2  0  0  0  0
 11 27  1  0  0  0  0
 12 14  2  0  0  0  0
 12 28  1  0  0  0  0
 13 30  1  0  0  0  0
 14 29  1  0  0  0  0
 15 23  1  0  0  0  0
 15 27  2  0  0  0  0
 16 24  1  0  0  0  0
 16 25  2  0  0  0  0
 17 29  2  0  0  0  0
 17 31  1  0  0  0  0
 18 32  1  0  0  0  0
 19 32  1  0  0  0  0
 19 33  2  0  0  0  0
 19 34  1  0  0  0  0
 20 22  2  0  0  0  0
 20 39  1  0  0  0  0
 21 23  2  0  0  0  0
 21 40  1  0  0  0  0
 22 48  1  0  0  0  0
 23 41  1  0  0  0  0
 24 30  2  0  0  0  0
 24 56  1  0  0  0  0
 25 69  1  0  0  0  0
 26 79  1  0  0  0  0
 27 80  1  0  0  0  0
 28 31  2  0  0  0  0
 28 79  1  0  0  0  0
 29 81  1  0  0  0  0
 30 82  1  0  0  0  0
 31 83  1  0  0  0  0
 32 63  2  0  0  0  0
 33 64  1  0  0  0  0
 33 67  1  0  0  0  0
 34 68  1  0  0  0  0
 34 74  2  0  0  0  0
 35 49  1  0  0  0  0
 35 70  1  0  0  0  0
 35 75  2  0  0  0  0
 36 60  1  0  0  0  0
 36 65  1  0  0  0  0
 36 76  2  0  0  0  0
 37 61  1  0  0  0  0
 37 71  1  0  0  0  0
 37 77  2  0  0  0  0
 38 66  1  0  0  0  0
 38 69  1  0  0  0  0
 38 78  2  0  0  0  0
 39 42  1  0  0  0  0
 40 49  1  0  0  0  0
 41 65  1  0  0  0  0
 42 44  1  0  0  0  0
 43 45  1  0  0  0  0
 43 46  1  0  0  0  0
 44 48  1  0  0  0  0
 45 50  1  0  0  0  0
 46 66  1  0  0  0  0
 47 50  1  0  0  0  0
 47 66  1  0  0  0  0
 48 70  1  0  0  0  0
 49 65  1  0  0  0  0
 50 64  1  0  0  0  0
 51 61  1  0  0  0  0
 52 62  1  0  0  0  0
 53 62  1  0  0  0  0
 54 62  1  0  0  0  0
 55 72  1  0  0  0  0
 56 73  1  0  0  0  0
 57 58  1  0  0  0  0
 57 59  1  0  0  0  0
 58 73  1  0  0  0  0
 59 80  1  0  0  0  0
 60 62  1  0  0  0  0
 60 71  1  0  0  0  0
 61 72  1  0  0  0  0
 63 64  1  0  0  0  0
M  CHG  2  72   1  73   1
M  ISO  4  38 100  59 101  69 100  80 101
M  END
> <Batch ID>
0003

> <Smiles>
CNC(C)C(=O)NC(C(=O)N1Cc2cc([101O:1][101CH2:1]CCNCc3cc([100NH:0][100C:0](=O)N4CCCC(n5nc(-c6ccc(Oc7ccc(F)cc7F)cc6)c(C(N)=O)c5N)C4)ccc3F)ccc2CC1C(=O)NC1CCCc2ccccc21)C(C)(C)C

> <Shape>
0.223

> <Color>
0.063

> <Negative vol penalty>
0.000

$$$$

  -OEChem-04042320203D

 89 98  0     1  0  0  0  0  0999 V2000
  -25.1235  -30.9675   22.5034 C   0  0  0  0  0  0  0  0  0  0  0  0
  -24.5212  -29.7528   22.8150 C   0  0  0  0  0  0  0  0  0  0  0  0
  -19.5818  -28.9387   22.4029 C   0  0  0  0  0  0  0  0  0  0  0  0
  -22.6009  -16.6614   19.3431 C   0  0  0  0  0  0  0  0  0  0  0  0
  -23.6759  -18.1124   20.9480 C   0  0  0  0  0  0  0  0  0  0  0  0
  -19.7386  -28.2353   23.5971 C   0  0  0  0  0  0  0  0  0  0  0  0
  -25.8396  -31.1047   21.3150 C   0  0  0  0  0  0  0  0  0  0  0  0
  -24.6339  -28.6747   21.9377 C   0  0  0  0  0  0  0  0  0  0  0  0
  -25.7190  -24.3385   24.3179 C   0  0  0  0  0  0  0  0  0  0  0  0
  -19.0560  -28.2988   21.2804 C   0  0  0  0  0  0  0  0  0  0  0  0
  -23.6472  -15.7476   19.4683 C   0  0  0  0  0  0  0  0  0  0  0  0
  -24.7222  -17.1986   21.0734 C   0  0  0  0  0  0  0  0  0  0  0  0
  -24.6705  -23.6899   24.9689 C   0  0  0  0  0  0  0  0  0  0  0  0
  -24.6184  -13.3570   21.6535 C   0  0  0  0  0  0  0  0  0  0  0  0
  -24.2888  -12.0078   21.7817 C   0  0  0  0  0  0  0  0  0  0  0  0
  -18.8440  -26.2521   22.5465 C   0  0  0  0  0  0  0  0  0  0  0  0
  -24.4527  -22.1796   23.1006 C   0  0  0  0  0  0  0  0  0  0  0  0
  -25.5264  -11.5139   19.7664 C   0  0  0  0  0  0  0  0  0  0  0  0
  -22.6152  -17.8439   20.0829 C   0  0  0  0  0  0  0  0  0  0  0  0
  -19.3698  -26.8920   23.6690 C   0  0  0  0  0  0  0  0  0  0  0  0
  -20.3483  -18.8317   20.7096 C   0  0  0  0  0  0  0  0  0  0  0  0
  -25.9692  -30.0249   20.4273 C   0  0  0  0  0  0  0  0  0  0  0  0
  -26.1357  -23.9187   23.0465 C   0  0  0  0  0  0  0  0  0  0  0  0
  -25.3513  -28.7979   20.7357 C   0  0  0  0  0  0  0  0  0  0  0  0
  -25.5084  -22.8229   22.4366 C   0  0  0  0  0  0  0  0  0  0  0  0
  -18.6872  -26.9555   21.3523 C   0  0  0  0  0  0  0  0  0  0  0  0
  -24.7079  -16.0161   20.3335 C   0  0  0  0  0  0  0  0  0  0  0  0
  -24.0353  -22.6121   24.3591 C   0  0  0  0  0  0  0  0  0  0  0  0
  -25.4019  -13.7848   20.5817 C   0  0  0  0  0  0  0  0  0  0  0  0
  -24.7428  -11.0862   20.8382 C   0  0  0  0  0  0  0  0  0  0  0  0
  -25.8560  -12.8632   19.6382 C   0  0  0  0  0  0  0  0  0  0  0  0
  -21.5349  -18.7885   19.9535 C   0  0  0  0  0  0  0  0  0  0  0  0
  -19.6573  -19.9052   20.2032 C   0  0  0  0  0  0  0  0  0  0  0  0
  -19.5364  -26.1434   24.9413 C   0  0  0  0  0  0  0  0  0  0  0  0
  -19.9098  -17.9777   21.7746 C   0  0  0  0  0  0  0  0  0  0  0  0
  -26.2443  -25.2581   20.1658 C   0  0  0  0  0  0  0  0  0  0  0  0
  -27.7804  -22.5125   19.3756 C   0  0  0  0  0  0  0  0  0  0  0  0
  -28.3637  -19.2197   20.0571 C   0  0  0  0  0  0  0  0  0  0  0  0
  -19.5073  -25.1847   18.4004 C   0  0  0  0  0  0  0  0  0  0  0  0
  -26.7133  -30.2350   19.1324 C   0  0  0  0  0  0  0  0  0  0  0  0
  -27.2858  -24.6120   22.3690 C   0  0  0  0  0  0  0  0  0  0  0  0
  -25.9313  -22.3203   21.0813 C   0  0  0  0  0  0  0  0  0  0  0  0
  -27.1008  -28.9338   18.4346 C   0  0  0  0  0  0  0  0  0  0  0  0
  -20.4710  -22.6845   16.0559 C   0  0  0  0  0  0  0  0  0  0  0  0
  -25.9172  -27.9721   18.4026 C   0  0  0  0  0  0  0  0  0  0  0  0
  -15.5407  -26.6616   20.2240 C   0  0  0  0  0  0  0  0  0  0  0  0
  -15.7826  -25.5445   19.2475 C   0  0  0  0  0  0  0  0  0  0  0  0
  -20.7416  -21.4542   16.9236 C   0  0  0  0  0  0  0  0  0  0  0  0
  -20.9041  -23.9727   16.7523 C   0  0  0  0  0  0  0  0  0  0  0  0
  -20.6114  -22.9366   18.9692 C   0  0  0  0  0  0  0  0  0  0  0  0
  -25.4718  -27.5981   19.8215 C   0  0  1  0  0  0  0  0  0  0  0  0
  -27.2880  -24.4252   20.8549 C   0  0  1  0  0  0  0  0  0  0  0  0
  -16.7265  -25.7537   20.3991 C   0  0  0  0  0  0  0  0  0  0  0  0
  -20.1398  -21.6182   18.3323 C   0  0  2  0  0  0  0  0  0  0  0  0
  -29.6362  -17.2286   19.2124 C   0  0  0  0  0  0  0  0  0  0  0  0
  -25.7437  -22.1666   17.1301 C   0  0  0  0  0  0  0  0  0  0  0  0
  -26.4540  -19.7726   16.9489 C   0  0  0  0  0  0  0  0  0  0  0  0
  -28.0962  -21.5963   16.5017 C   0  0  0  0  0  0  0  0  0  0  0  0
  -29.9117  -18.9974   22.5697 C   0  0  0  0  0  0  0  0  0  0  0  0
  -18.6908  -24.2703   26.3315 C   0  0  0  0  0  0  0  0  0  0  0  0
  -18.9804  -22.8226   25.9829 C   0  0  0  0  0  0  0  0  0  0  0  0
  -20.6925  -21.3443   24.9236 C   0  0  0  0  0  0  0  0  0  0  0  0
  -22.0070  -21.3850   24.1695 C   0  0  0  0  0  0  0  0  0  1  0  0
  -18.1250  -26.2712   20.1520 C   0  0  2  0  0  0  0  0  0  0  0  0
  -27.3522  -21.1534   18.8771 C   0  0  1  0  0  0  0  0  0  0  0  0
  -29.6528  -18.4239   20.1525 C   0  0  2  0  0  0  0  0  0  0  0  0
  -26.9020  -21.1827   17.3892 C   0  0  0  0  0  0  0  0  0  0  0  0
  -21.5975  -19.7575   19.0363 N   0  0  0  0  0  0  0  0  0  0  0  0
  -20.4414  -20.4196   19.2128 N   0  0  0  0  0  0  0  0  0  0  0  0
  -27.0565  -23.0353   20.4566 N   0  0  0  0  0  0  0  0  0  0  0  0
  -20.2976  -24.0679   18.0823 N   0  0  0  0  0  0  0  0  0  0  0  0
  -18.4615  -20.4499   20.5127 N   0  0  0  0  0  0  0  0  0  0  0  0
  -20.7423  -16.9220   22.1704 N   0  0  0  0  0  0  0  0  0  0  0  0
  -18.6695  -25.0985   25.1052 N   0  0  0  0  0  0  0  0  0  0  0  0
  -26.3695  -26.6158   20.3905 N   0  0  0  0  0  0  0  0  0  0  0  0
  -28.4658  -20.2503   19.1467 N   0  0  0  0  0  0  0  0  0  0  0  0
  -18.9650  -25.1931   19.6797 N   0  0  0  0  0  0  0  0  0  0  0  0
  -29.8523  -17.9255   21.5428 N   0  3  0  0  0  0  0  0  0  0  0  0
  -20.2789  -22.7294   25.2625 N   0  3  0  0  0  0  0  0  0  0  0  0
  -20.3927  -26.5065   25.7434 O   0  0  0  0  0  0  0  0  0  0  0  0
  -18.8049  -18.1360   22.3471 O   0  0  0  0  0  0  0  0  0  0  0  0
  -25.3897  -24.7096   19.4799 O   0  0  0  0  0  0  0  0  0  0  0  0
  -28.7269  -23.0859   18.8307 O   0  0  0  0  0  0  0  0  0  0  0  0
  -27.3647  -18.9516   20.7209 O   0  0  0  0  0  0  0  0  0  0  0  0
  -19.2961  -26.1035   17.6017 O   0  0  0  0  0  0  0  0  0  0  0  0
  -25.7289  -15.1246   20.4562 O   0  0  0  0  0  0  0  0  0  0  0  0
  -23.0113  -21.9776   24.9920 O   0  0  0  0  0  0  0  0  0  1  0  0
  -24.4275   -9.7903   20.9624 F   0  0  0  0  0  0  0  0  0  0  0  0
  -26.6100  -13.2680   18.6070 F   0  0  0  0  0  0  0  0  0  0  0  0
  1  2  1  0  0  0  0
  1  7  2  0  0  0  0
  2  8  2  0  0  0  0
  3  6  2  0  0  0  0
  3 10  1  0  0  0  0
  4 11  2  0  0  0  0
  4 19  1  0  0  0  0
  5 12  1  0  0  0  0
  5 19  2  0  0  0  0
  6 20  1  0  0  0  0
  7 22  1  0  0  0  0
  8 24  1  0  0  0  0
  9 13  2  0  0  0  0
  9 23  1  0  0  0  0
 10 26  2  0  0  0  0
 11 27  1  0  0  0  0
 12 27  2  0  0  0  0
 13 28  1  0  0  0  0
 14 15  2  0  0  0  0
 14 29  1  0  0  0  0
 15 30  1  0  0  0  0
 16 20  2  0  0  0  0
 16 26  1  0  0  0  0
 17 25  1  0  0  0  0
 17 28  2  0  0  0  0
 18 30  2  0  0  0  0
 18 31  1  0  0  0  0
 19 32  1  0  0  0  0
 20 34  1  0  0  0  0
 21 32  1  0  0  0  0
 21 33  2  0  0  0  0
 21 35  1  0  0  0  0
 22 24  2  0  0  0  0
 22 40  1  0  0  0  0
 23 25  2  0  0  0  0
 23 41  1  0  0  0  0
 24 51  1  0  0  0  0
 25 42  1  0  0  0  0
 26 64  1  0  0  0  0
 27 86  1  0  0  0  0
 28 87  1  0  0  0  0
 29 31  2  0  0  0  0
 29 86  1  0  0  0  0
 30 88  1  0  0  0  0
 31 89  1  0  0  0  0
 32 68  2  0  0  0  0
 33 69  1  0  0  0  0
 33 72  1  0  0  0  0
 34 74  1  0  0  0  0
 34 80  2  0  0  0  0
 35 73  1  0  0  0  0
 35 81  2  0  0  0  0
 36 52  1  0  0  0  0
 36 75  1  0  0  0  0
 36 82  2  0  0  0  0
 37 65  1  0  0  0  0
 37 70  1  0  0  0  0
 37 83  2  0  0  0  0
 38 66  1  0  0  0  0
 38 76  1  0  0  0  0
 38 84  2  0  0  0  0
 39 71  1  0  0  0  0
 39 77  1  0  0  0  0
 39 85  2  0  0  0  0
 40 43  1  0  0  0  0
 41 52  1  0  0  0  0
 42 70  1  0  0  0  0
 43 45  1  0  0  0  0
 44 48  1  0  0  0  0
 44 49  1  0  0  0  0
 45 51  1  0  0  0  0
 46 47  1  0  0  0  0
 46 53  1  0  0  0  0
 47 53  1  0  0  0  0
 48 54  1  0  0  0  0
 49 71  1  0  0  0  0
 50 54  1  0  0  0  0
 50 71  1  0  0  0  0
 51 75  1  0  0  0  0
 52 70  1  0  0  0  0
 53 64  1  0  0  0  0
 54 69  1  0  0  0  0
 55 66  1  0  0  0  0
 56 67  1  0  0  0  0
 57 67  1  0  0  0  0
 58 67  1  0  0  0  0
 59 78  1  0  0  0  0
 60 61  1  0  0  0  0
 60 74  1  0  0  0  0
 61 79  1  0  0  0  0
 62 63  1  0  0  0  0
 62 79  1  0  0  0  0
 63 87  1  0  0  0  0
 64 77  1  0  0  0  0
 65 67  1  0  0  0  0
 65 76  1  0  0  0  0
 66 78  1  0  0  0  0
 68 69  1  0  0  0  0
M  CHG  2  78   1  79   1
M  ISO  4  39 100  63 101  77 100  87 101
M  END
> <Batch ID>
0003

> <Smiles>
CNC(C)C(=O)NC(C(=O)N1Cc2cc([101O:1][101CH2:1]CNCCNC(=O)c3cccc(C([100NH:0][100C:0](=O)N4CCCC(n5nc(-c6ccc(Oc7ccc(F)cc7F)cc6)c(C(N)=O)c5N)C4)C4CC4)c3)ccc2CC1C(=O)NC1CCCc2ccccc21)C(C)(C)C

> <Shape>
0.177

> <Color>
0.087

> <Negative vol penalty>
0.000

$$$$

  -OEChem-04042320203D

 79 87  0     1  0  0  0  0  0999 V2000
  -30.3817  -24.2799   17.5455 C   0  0  0  0  0  0  0  0  0  0  0  0
  -29.0087  -24.2038   17.7566 C   0  0  0  0  0  0  0  0  0  0  0  0
  -27.2509  -17.1656   21.2377 C   0  0  0  0  0  0  0  0  0  0  0  0
  -27.2752  -17.0670   18.8239 C   0  0  0  0  0  0  0  0  0  0  0  0
  -31.1940  -24.9270   18.4757 C   0  0  0  0  0  0  0  0  0  0  0  0
  -28.4473  -24.7738   18.8987 C   0  0  0  0  0  0  0  0  0  0  0  0
  -22.9651  -27.4649   19.3558 C   0  0  0  0  0  0  0  0  0  0  0  0
  -18.8146  -23.9707   21.1497 C   0  0  0  0  0  0  0  0  0  0  0  0
  -20.0013  -23.1531   23.0889 C   0  0  0  0  0  0  0  0  0  0  0  0
  -19.0950  -22.7816   20.4767 C   0  0  0  0  0  0  0  0  0  0  0  0
  -20.2816  -21.9639   22.4160 C   0  0  0  0  0  0  0  0  0  0  0  0
  -28.6010  -17.5158   21.2371 C   0  0  0  0  0  0  0  0  0  0  0  0
  -28.6254  -17.4173   18.8232 C   0  0  0  0  0  0  0  0  0  0  0  0
  -21.7312  -27.0076   19.8164 C   0  0  0  0  0  0  0  0  0  0  0  0
  -31.9496  -18.7882   21.8558 C   0  0  0  0  0  0  0  0  0  0  0  0
  -32.3497  -19.8302   22.6923 C   0  0  0  0  0  0  0  0  0  0  0  0
  -22.1853  -27.9776   21.9779 C   0  0  0  0  0  0  0  0  0  0  0  0
  -30.8555  -21.3342   21.5338 C   0  0  0  0  0  0  0  0  0  0  0  0
  -26.5880  -16.9411   20.0311 C   0  0  0  0  0  0  0  0  0  0  0  0
  -24.6089  -15.4480   20.6324 C   0  0  0  0  0  0  0  0  0  0  0  0
  -30.6411  -25.5137   19.6250 C   0  0  0  0  0  0  0  0  0  0  0  0
  -23.8245  -28.1738   20.2075 C   0  0  0  0  0  0  0  0  0  0  0  0
  -29.2532  -25.4282   19.8458 C   0  0  0  0  0  0  0  0  0  0  0  0
  -23.4284  -28.4451   21.5250 C   0  0  0  0  0  0  0  0  0  0  0  0
  -19.2678  -24.1565   22.4558 C   0  0  0  0  0  0  0  0  0  0  0  0
  -19.8284  -21.7781   21.1099 C   0  0  0  0  0  0  0  0  0  0  0  0
  -29.2883  -17.6417   20.0299 C   0  0  0  0  0  0  0  0  0  0  0  0
  -21.3424  -27.2614   21.1284 C   0  0  0  0  0  0  0  0  0  0  0  0
  -31.0025  -19.0193   20.8581 C   0  0  0  0  0  0  0  0  0  0  0  0
  -31.8026  -21.1031   22.5314 C   0  0  0  0  0  0  0  0  0  0  0  0
  -30.4554  -20.2922   20.6972 C   0  0  0  0  0  0  0  0  0  0  0  0
  -25.1934  -16.5788   20.0311 C   0  0  0  0  0  0  0  0  0  0  0  0
  -23.2698  -15.5620   20.3489 C   0  0  0  0  0  0  0  0  0  0  0  0
  -25.2216  -14.3893   21.3803 C   0  0  0  0  0  0  0  0  0  0  0  0
  -26.7489  -27.6879   21.3544 C   0  0  0  0  0  0  0  0  0  0  0  0
  -26.3600  -30.6825   22.5389 C   0  0  0  0  0  0  0  0  0  0  0  0
  -24.2221  -33.1496   23.5337 C   0  0  0  0  0  0  0  0  0  0  0  0
  -19.7379  -20.2248   19.1287 C   0  0  0  0  0  0  0  0  0  0  0  0
  -31.5652  -26.1613   20.6256 C   0  0  0  0  0  0  0  0  0  0  0  0
  -25.1407  -28.6834   19.6875 C   0  0  0  0  0  0  0  0  0  0  0  0
  -24.3058  -29.2193   22.4733 C   0  0  0  0  0  0  0  0  0  0  0  0
  -30.8455  -27.0654   21.6232 C   0  0  0  0  0  0  0  0  0  0  0  0
  -20.2753  -17.3658   17.0757 C   0  0  0  0  0  0  0  0  0  0  0  0
  -29.6066  -26.3692   22.1773 C   0  0  0  0  0  0  0  0  0  0  0  0
  -21.5409  -16.7332   17.6592 C   0  0  0  0  0  0  0  0  0  0  0  0
  -20.3329  -18.8918   17.1176 C   0  0  0  0  0  0  0  0  0  0  0  0
  -21.8983  -18.8332   19.0191 C   0  0  0  0  0  0  0  0  0  0  0  0
  -28.6038  -26.0558   21.0602 C   0  0  1  0  0  0  0  0  0  0  0  0
  -26.1572  -28.9500   20.7934 C   0  0  1  0  0  0  0  0  0  0  0  0
  -21.8592  -17.2968   19.0580 C   0  0  2  0  0  0  0  0  0  0  0  0
  -24.1998  -35.4694   24.4906 C   0  0  0  0  0  0  0  0  0  0  0  0
  -27.0744  -29.5550   25.2827 C   0  0  0  0  0  0  0  0  0  0  0  0
  -26.1268  -31.6339   26.3065 C   0  0  0  0  0  0  0  0  0  0  0  0
  -28.0894  -31.7833   24.7740 C   0  0  0  0  0  0  0  0  0  0  0  0
  -22.8102  -34.2359   21.1704 C   0  0  0  0  0  0  0  0  0  0  0  0
  -18.9645  -25.4434   23.1839 C   0  0  0  0  0  0  0  0  0  0  0  0
  -20.0432  -26.4994   22.9690 C   0  0  0  0  0  0  0  0  0  1  0  0
  -25.8074  -31.2627   23.8183 C   0  0  1  0  0  0  0  0  0  0  0  0
  -24.1814  -34.6343   23.2197 C   0  0  2  0  0  0  0  0  0  0  0  0
  -26.7586  -31.0424   25.0283 C   0  0  0  0  0  0  0  0  0  0  0  0
  -24.2989  -17.3540   19.4122 N   0  0  0  0  0  0  0  0  0  0  0  0
  -23.1388  -16.7092   19.6230 N   0  0  0  0  0  0  0  0  0  0  0  0
  -25.5858  -29.6910   21.9198 N   0  0  0  0  0  0  0  0  0  0  0  0
  -20.6343  -19.3534   18.4745 N   0  0  0  0  0  0  0  0  0  0  0  0
  -22.2035  -14.7917   20.6521 N   0  0  0  0  0  0  0  0  0  0  0  0
  -25.6731  -13.2570   20.6886 N   0  0  0  0  0  0  0  0  0  0  0  0
  -20.1131  -20.5699   20.4266 N   0  0  0  0  0  0  0  0  0  0  0  0
  -27.8756  -27.2490   20.6854 N   0  0  0  0  0  0  0  0  0  0  0  0
  -25.5125  -32.6636   23.5373 N   0  0  0  0  0  0  0  0  0  0  0  0
  -22.9463  -34.9685   22.4556 N   0  3  0  0  0  0  0  0  0  0  0  0
  -25.3497  -14.4385   22.6272 O   0  0  0  0  0  0  0  0  0  0  0  0
  -26.2232  -27.1527   22.3233 O   0  0  0  0  0  0  0  0  0  0  0  0
  -27.4354  -31.0989   22.1010 O   0  0  0  0  0  0  0  0  0  0  0  0
  -23.2108  -32.4881   23.7573 O   0  0  0  0  0  0  0  0  0  0  0  0
  -18.6992  -20.6130   18.5880 O   0  0  0  0  0  0  0  0  0  0  0  0
  -30.6057  -17.9836   20.0288 O   0  0  0  0  0  0  0  0  0  0  0  0
  -20.1388  -26.8156   21.5807 O   0  0  0  0  0  0  0  0  0  1  0  0
  -32.1858  -22.1032   23.3359 F   0  0  0  0  0  0  0  0  0  0  0  0
  -29.5442  -20.5200   19.7413 F   0  0  0  0  0  0  0  0  0  0  0  0
  1  2  1  0  0  0  0
  1  5  2  0  0  0  0
  2  6  2  0  0  0  0
  3 12  2  0  0  0  0
  3 19  1  0  0  0  0
  4 13  1  0  0  0  0
  4 19  2  0  0  0  0
  5 21  1  0  0  0  0
  6 23  1  0  0  0  0
  7 14  2  0  0  0  0
  7 22  1  0  0  0  0
  8 10  2  0  0  0  0
  8 25  1  0  0  0  0
  9 11  1  0  0  0  0
  9 25  2  0  0  0  0
 10 26  1  0  0  0  0
 11 26  2  0  0  0  0
 12 27  1  0  0  0  0
 13 27  2  0  0  0  0
 14 28  1  0  0  0  0
 15 16  2  0  0  0  0
 15 29  1  0  0  0  0
 16 30  1  0  0  0  0
 17 24  1  0  0  0  0
 17 28  2  0  0  0  0
 18 30  2  0  0  0  0
 18 31  1  0  0  0  0
 19 32  1  0  0  0  0
 20 32  1  0  0  0  0
 20 33  2  0  0  0  0
 20 34  1  0  0  0  0
 21 23  2  0  0  0  0
 21 39  1  0  0  0  0
 22 24  2  0  0  0  0
 22 40  1  0  0  0  0
 23 48  1  0  0  0  0
 24 41  1  0  0  0  0
 25 56  1  0  0  0  0
 26 67  1  0  0  0  0
 27 76  1  0  0  0  0
 28 77  1  0  0  0  0
 29 31  2  0  0  0  0
 29 76  1  0  0  0  0
 30 78  1  0  0  0  0
 31 79  1  0  0  0  0
 32 61  2  0  0  0  0
 33 62  1  0  0  0  0
 33 65  1  0  0  0  0
 34 66  1  0  0  0  0
 34 71  2  0  0  0  0
 35 49  1  0  0  0  0
 35 68  1  0  0  0  0
 35 72  2  0  0  0  0
 36 58  1  0  0  0  0
 36 63  1  0  0  0  0
 36 73  2  0  0  0  0
 37 59  1  0  0  0  0
 37 69  1  0  0  0  0
 37 74  2  0  0  0  0
 38 64  1  0  0  0  0
 38 67  1  0  0  0  0
 38 75  2  0  0  0  0
 39 42  1  0  0  0  0
 40 49  1  0  0  0  0
 41 63  1  0  0  0  0
 42 44  1  0  0  0  0
 43 45  1  0  0  0  0
 43 46  1  0  0  0  0
 44 48  1  0  0  0  0
 45 50  1  0  0  0  0
 46 64  1  0  0  0  0
 47 50  1  0  0  0  0
 47 64  1  0  0  0  0
 48 68  1  0  0  0  0
 49 63  1  0  0  0  0
 50 62  1  0  0  0  0
 51 59  1  0  0  0  0
 52 60  1  0  0  0  0
 53 60  1  0  0  0  0
 54 60  1  0  0  0  0
 55 70  1  0  0  0  0
 56 57  1  0  0  0  0
 57 77  1  0  0  0  0
 58 60  1  0  0  0  0
 58 69  1  0  0  0  0
 59 70  1  0  0  0  0
 61 62  1  0  0  0  0
M  CHG  1  70   1
M  ISO  4  38 100  57 101  67 100  77 101
M  END
> <Batch ID>
0003

> <Smiles>
CNC(C)C(=O)NC(C(=O)N1Cc2cc([101O:1][101CH2:1]Cc3ccc([100NH:0][100C:0](=O)N4CCCC(n5nc(-c6ccc(Oc7ccc(F)cc7F)cc6)c(C(N)=O)c5N)C4)cc3)ccc2CC1C(=O)NC1CCCc2ccccc21)C(C)(C)C

> <Shape>
0.245

> <Color>
0.073

> <Negative vol penalty>
0.000

$$$$

  -OEChem-04042320203D

 94104  0     1  0  0  0  0  0999 V2000
  -25.1470  -11.0657   21.3139 C   0  0  0  0  0  0  0  0  0  0  0  0
  -25.6332  -12.3548   21.5068 C   0  0  0  0  0  0  0  0  0  0  0  0
  -29.9207  -17.4882   19.6747 C   0  0  0  0  0  0  0  0  0  0  0  0
  -27.7321  -17.9346   20.5957 C   0  0  0  0  0  0  0  0  0  0  0  0
  -23.8176  -10.8719   20.9408 C   0  0  0  0  0  0  0  0  0  0  0  0
  -24.7905  -13.4510   21.3258 C   0  0  0  0  0  0  0  0  0  0  0  0
  -22.3697  -26.7844   20.2007 C   0  0  0  0  0  0  0  0  0  0  0  0
  -22.3058  -27.6018   22.4733 C   0  0  0  0  0  0  0  0  0  0  0  0
  -23.6001  -20.0528   23.8388 C   0  0  0  0  0  0  0  0  0  0  0  0
  -22.7139  -25.5155   20.6667 C   0  0  0  0  0  0  0  0  0  0  0  0
  -22.6499  -26.3329   22.9393 C   0  0  0  0  0  0  0  0  0  0  0  0
  -25.0100  -28.3884   19.1046 C   0  0  0  0  0  0  0  0  0  0  0  0
  -26.0061  -27.4162   19.1948 C   0  0  0  0  0  0  0  0  0  0  0  0
  -29.8174  -16.1560   20.0749 C   0  0  0  0  0  0  0  0  0  0  0  0
  -27.6288  -16.6023   20.9959 C   0  0  0  0  0  0  0  0  0  0  0  0
  -23.4521  -21.3650   23.3917 C   0  0  0  0  0  0  0  0  0  0  0  0
  -28.2919  -13.3402   18.9899 C   0  0  0  0  0  0  0  0  0  0  0  0
  -28.6688  -12.3574   18.0748 C   0  0  0  0  0  0  0  0  0  0  0  0
  -21.1529  -20.9058   22.8240 C   0  0  0  0  0  0  0  0  0  0  0  0
  -26.9118  -28.5246   21.1411 C   0  0  0  0  0  0  0  0  0  0  0  0
  -30.3539  -11.5685   19.6159 C   0  0  0  0  0  0  0  0  0  0  0  0
  -28.8780  -18.3775   19.9351 C   0  0  0  0  0  0  0  0  0  0  0  0
  -28.5793  -20.3064   18.2926 C   0  0  0  0  0  0  0  0  0  0  0  0
  -22.1658  -27.8275   21.1040 C   0  0  0  0  0  0  0  0  0  0  0  0
  -22.9557  -11.9658   20.7645 C   0  0  0  0  0  0  0  0  0  0  0  0
  -22.5269  -19.1526   23.7717 C   0  0  0  0  0  0  0  0  0  0  0  0
  -23.4487  -13.2716   20.9487 C   0  0  0  0  0  0  0  0  0  0  0  0
  -21.2891  -19.5834   23.2733 C   0  0  0  0  0  0  0  0  0  0  0  0
  -22.8539  -25.2897   22.0360 C   0  0  0  0  0  0  0  0  0  0  0  0
  -24.9649  -29.4289   20.0326 C   0  0  0  0  0  0  0  0  0  0  0  0
  -25.9157  -29.4969   21.0509 C   0  0  0  0  0  0  0  0  0  0  0  0
  -26.9570  -27.4842   20.2130 C   0  0  0  0  0  0  0  0  0  0  0  0
  -28.6715  -15.7131   20.7355 C   0  0  0  0  0  0  0  0  0  0  0  0
  -22.2292  -21.7909   22.8815 C   0  0  0  0  0  0  0  0  0  0  0  0
  -28.9461  -13.4373   20.2181 C   0  0  0  0  0  0  0  0  0  0  0  0
  -29.6997  -11.4715   18.3877 C   0  0  0  0  0  0  0  0  0  0  0  0
  -29.9771  -12.5514   20.5311 C   0  0  0  0  0  0  0  0  0  0  0  0
  -28.9843  -19.7539   19.5225 C   0  0  0  0  0  0  0  0  0  0  0  0
  -28.8933  -21.6396   18.3950 C   0  0  0  0  0  0  0  0  0  0  0  0
  -27.9732  -19.6713   17.1590 C   0  0  0  0  0  0  0  0  0  0  0  0
  -21.9966  -16.4026   22.2684 C   0  0  0  0  0  0  0  0  0  0  0  0
  -19.2612  -16.4259   24.0118 C   0  0  0  0  0  0  0  0  0  0  0  0
  -16.9248  -18.2414   25.7123 C   0  0  0  0  0  0  0  0  0  0  0  0
  -28.9866  -26.4161   21.2550 C   0  0  0  0  0  0  0  0  0  0  0  0
  -21.5392  -11.7087   20.3149 C   0  0  0  0  0  0  0  0  0  0  0  0
  -22.6951  -17.7480   24.2828 C   0  0  0  0  0  0  0  0  0  0  0  0
  -20.1002  -18.6619   23.1985 C   0  0  0  0  0  0  0  0  0  0  0  0
  -20.6120  -12.9059   20.5083 C   0  0  0  0  0  0  0  0  0  0  0  0
  -31.6433  -24.1203   21.8455 C   0  0  0  0  0  0  0  0  0  0  0  0
  -20.5820  -31.2286   20.8584 C   0  0  0  0  0  0  0  0  0  0  0  0
  -21.2761  -14.1826   20.0024 C   0  0  0  0  0  0  0  0  0  0  0  0
  -20.4835  -29.7474   21.1660 C   0  0  0  0  0  0  0  0  0  0  0  0
  -31.1550  -22.8251   21.1926 C   0  0  0  0  0  0  0  0  0  0  0  0
  -30.4994  -24.8901   22.5032 C   0  0  0  0  0  0  0  0  0  0  0  0
  -28.8603  -23.8621   20.9782 C   0  0  0  0  0  0  0  0  0  0  0  0
  -22.0170  -31.5748   21.2060 C   0  0  0  0  0  0  0  0  0  0  0  0
  -22.5590  -14.4849   20.7861 C   0  0  1  0  0  0  0  0  0  0  0  0
  -21.7938  -29.1996   20.6010 C   0  0  1  0  0  0  0  0  0  0  0  0
  -21.6834  -16.7716   23.6909 C   0  0  1  0  0  0  0  0  0  0  0  0
  -29.9663  -23.0843   20.2464 C   0  0  2  0  0  0  0  0  0  0  0  0
  -14.7845  -17.9863   26.9974 C   0  0  0  0  0  0  0  0  0  0  0  0
  -17.7382  -16.0467   21.3952 C   0  0  0  0  0  0  0  0  0  0  0  0
  -15.6513  -16.7442   22.5897 C   0  0  0  0  0  0  0  0  0  0  0  0
  -16.8730  -14.6926   23.3115 C   0  0  0  0  0  0  0  0  0  0  0  0
  -18.1391  -19.3383   28.1783 C   0  0  0  0  0  0  0  0  0  0  0  0
  -23.8846  -30.4633   19.9147 C   0  0  0  0  0  0  0  0  0  0  0  0
  -23.2224  -23.9241   22.5366 C   0  0  0  0  0  0  0  0  0  1  0  0
  -17.8662  -16.9646   23.8050 C   0  0  1  0  0  0  0  0  0  0  0  0
  -16.3015  -18.0489   27.0831 C   0  0  2  0  0  0  0  0  0  0  0  0
  -25.8859  -30.6004   22.0568 C   0  0  0  0  0  0  0  0  0  0  0  0
  -17.0549  -16.1291   22.7748 C   0  0  0  0  0  0  0  0  0  0  0  0
  -29.5154  -20.6619   20.3456 N   0  0  0  0  0  0  0  0  0  0  0  0
  -29.4462  -21.7984   19.6317 N   0  0  0  0  0  0  0  0  0  0  0  0
  -20.3164  -17.2965   23.7047 N   0  0  0  0  0  0  0  0  0  0  0  0
  -29.4113  -25.1024   21.5462 N   0  0  0  0  0  0  0  0  0  0  0  0
  -28.7478  -22.6798   17.5470 N   0  0  0  0  0  0  0  0  0  0  0  0
  -27.7193  -18.2943   17.2212 N   0  0  0  0  0  0  0  0  0  0  0  0
  -27.9678  -26.4957   20.3062 N   0  0  0  0  0  0  0  0  0  0  0  0
  -22.2400  -15.0558   22.0771 N   0  0  0  0  0  0  0  0  0  0  0  0
  -17.2563  -17.0371   25.1283 N   0  0  0  0  0  0  0  0  0  0  0  0
  -22.8036  -30.3027   20.9396 N   0  3  1  0  0  0  0  0  0  0  0  0
  -16.6753  -19.1750   27.9848 N   0  3  0  0  0  0  0  0  0  0  0  0
  -27.6809  -20.3030   16.1155 O   0  0  0  0  0  0  0  0  0  0  0  0
  -22.0146  -17.2748   21.4079 O   0  0  0  0  0  0  0  0  0  0  0  0
  -19.4091  -15.2774   24.4371 O   0  0  0  0  0  0  0  0  0  0  0  0
  -17.0966  -19.3491   25.2083 O   0  0  0  0  0  0  0  0  0  0  0  0
  -29.5083  -27.3996   21.7866 O   0  0  0  0  0  0  0  0  0  0  0  0
  -28.5703  -14.4131   21.1259 O   0  0  0  0  0  0  0  0  0  0  0  0
  -22.0822  -23.0710   22.4438 O   0  0  0  0  0  0  0  0  0  1  0  0
  -30.0605  -10.5267   17.5094 F   0  0  0  0  0  0  0  0  0  0  0  0
  -30.6084  -12.6389   21.7099 F   0  0  0  0  0  0  0  0  0  0  0  0
  -26.8834  -30.5193   22.9852 F   0  0  0  0  0  0  0  0  0  0  0  0
  -26.0101  -31.8432   21.5059 F   0  0  0  0  0  0  0  0  0  0  0  0
  -24.7224  -30.6280   22.7685 F   0  0  0  0  0  0  0  0  0  0  0  0
  1  2  1  0  0  0  0
  1  5  2  0  0  0  0
  2  6  2  0  0  0  0
  3 14  2  0  0  0  0
  3 22  1  0  0  0  0
  4 15  1  0  0  0  0
  4 22  2  0  0  0  0
  5 25  1  0  0  0  0
  6 27  1  0  0  0  0
  7 10  2  0  0  0  0
  7 24  1  0  0  0  0
  8 11  1  0  0  0  0
  8 24  2  0  0  0  0
  9 16  2  0  0  0  0
  9 26  1  0  0  0  0
 10 29  1  0  0  0  0
 11 29  2  0  0  0  0
 12 13  2  0  0  0  0
 12 30  1  0  0  0  0
 13 32  1  0  0  0  0
 14 33  1  0  0  0  0
 15 33  2  0  0  0  0
 16 34  1  0  0  0  0
 17 18  2  0  0  0  0
 17 35  1  0  0  0  0
 18 36  1  0  0  0  0
 19 28  1  0  0  0  0
 19 34  2  0  0  0  0
 20 31  1  0  0  0  0
 20 32  2  0  0  0  0
 21 36  2  0  0  0  0
 21 37  1  0  0  0  0
 22 38  1  0  0  0  0
 23 38  1  0  0  0  0
 23 39  2  0  0  0  0
 23 40  1  0  0  0  0
 24 58  1  0  0  0  0
 25 27  2  0  0  0  0
 25 45  1  0  0  0  0
 26 28  2  0  0  0  0
 26 46  1  0  0  0  0
 27 57  1  0  0  0  0
 28 47  1  0  0  0  0
 29 67  1  0  0  0  0
 30 31  2  0  0  0  0
 30 66  1  0  0  0  0
 31 70  1  0  0  0  0
 32 78  1  0  0  0  0
 33 88  1  0  0  0  0
 34 89  1  0  0  0  0
 35 37  2  0  0  0  0
 35 88  1  0  0  0  0
 36 90  1  0  0  0  0
 37 91  1  0  0  0  0
 38 72  2  0  0  0  0
 39 73  1  0  0  0  0
 39 76  1  0  0  0  0
 40 77  1  0  0  0  0
 40 83  2  0  0  0  0
 41 59  1  0  0  0  0
 41 79  1  0  0  0  0
 41 84  2  0  0  0  0
 42 68  1  0  0  0  0
 42 74  1  0  0  0  0
 42 85  2  0  0  0  0
 43 69  1  0  0  0  0
 43 80  1  0  0  0  0
 43 86  2  0  0  0  0
 44 75  1  0  0  0  0
 44 78  1  0  0  0  0
 44 87  2  0  0  0  0
 45 48  1  0  0  0  0
 46 59  1  0  0  0  0
 47 74  1  0  0  0  0
 48 51  1  0  0  0  0
 49 53  1  0  0  0  0
 49 54  1  0  0  0  0
 50 52  1  0  0  0  0
 50 56  1  0  0  0  0
 51 57  1  0  0  0  0
 52 58  1  0  0  0  0
 53 60  1  0  0  0  0
 54 75  1  0  0  0  0
 55 60  1  0  0  0  0
 55 75  1  0  0  0  0
 56 81  1  0  0  0  0
 57 79  1  0  0  0  0
 58 81  1  0  0  0  0
 59 74  1  0  0  0  0
 60 73  1  0  0  0  0
 61 69  1  0  0  0  0
 62 71  1  0  0  0  0
 63 71  1  0  0  0  0
 64 71  1  0  0  0  0
 65 82  1  0  0  0  0
 66 81  1  0  0  0  0
 67 89  1  0  0  0  0
 68 71  1  0  0  0  0
 68 80  1  0  0  0  0
 69 82  1  0  0  0  0
 70 92  1  0  0  0  0
 70 93  1  0  0  0  0
 70 94  1  0  0  0  0
 72 73  1  0  0  0  0
M  CHG  2  81   1  82   1
M  ISO  4  44 100  67 101  78 100  89 101
M  END
> <Batch ID>
0003

> <Smiles>
CNC(C)C(=O)NC(C(=O)N1Cc2cc([101O:1][101CH2:1]c3ccc(C4CCCN4Cc4ccc([100NH:0][100C:0](=O)N5CCCC(n6nc(-c7ccc(Oc8ccc(F)cc8F)cc7)c(C(N)=O)c6N)C5)cc4C(F)(F)F)cc3)ccc2CC1C(=O)NC1CCCc2ccccc21)C(C)(C)C

> <Shape>
0.254

> <Color>
0.054

> <Negative vol penalty>
0.000

$$$$

  -OEChem-04042320203D

 83 91  0     1  0  0  0  0  0999 V2000
  -30.0630  -36.4585   21.9919 C   0  0  0  0  0  0  0  0  0  0  0  0
  -30.2228  -35.1625   21.5122 C   0  0  0  0  0  0  0  0  0  0  0  0
  -22.8108  -10.2236   20.9472 C   0  0  0  0  0  0  0  0  0  0  0  0
  -24.5340   -8.9934   22.1110 C   0  0  0  0  0  0  0  0  0  0  0  0
  -29.1455  -36.7157   23.0097 C   0  0  0  0  0  0  0  0  0  0  0  0
  -29.4659  -34.1226   22.0508 C   0  0  0  0  0  0  0  0  0  0  0  0
  -27.2895  -29.2304   19.0783 C   0  0  0  0  0  0  0  0  0  0  0  0
  -30.3409  -17.5039   23.6883 C   0  0  0  0  0  0  0  0  0  0  0  0
  -31.7759  -18.1712   21.8628 C   0  0  0  0  0  0  0  0  0  0  0  0
  -22.0662   -9.0521   20.8113 C   0  0  0  0  0  0  0  0  0  0  0  0
  -23.7892   -7.8218   21.9751 C   0  0  0  0  0  0  0  0  0  0  0  0
  -27.7485  -27.9185   18.9689 C   0  0  0  0  0  0  0  0  0  0  0  0
  -29.9073  -18.8221   23.8294 C   0  0  0  0  0  0  0  0  0  0  0  0
  -31.3422  -19.4894   22.0038 C   0  0  0  0  0  0  0  0  0  0  0  0
  -21.1242   -6.3788   23.4704 C   0  0  0  0  0  0  0  0  0  0  0  0
  -21.0045   -5.5553   24.5897 C   0  0  0  0  0  0  0  0  0  0  0  0
  -26.2734  -27.2595   20.7603 C   0  0  0  0  0  0  0  0  0  0  0  0
  -22.0569   -3.7514   23.3749 C   0  0  0  0  0  0  0  0  0  0  0  0
  -24.0448  -10.1943   21.5970 C   0  0  0  0  0  0  0  0  0  0  0  0
  -24.7595  -12.3289   22.7971 C   0  0  0  0  0  0  0  0  0  0  0  0
  -28.3700  -35.6800   23.5544 C   0  0  0  0  0  0  0  0  0  0  0  0
  -26.3254  -29.5695   20.0385 C   0  0  0  0  0  0  0  0  0  0  0  0
  -28.5381  -34.3659   23.0778 C   0  0  0  0  0  0  0  0  0  0  0  0
  -25.8020  -28.5759   20.8781 C   0  0  0  0  0  0  0  0  0  0  0  0
  -31.2752  -17.1784   22.7051 C   0  0  0  0  0  0  0  0  0  0  0  0
  -22.5553   -7.8512   21.3252 C   0  0  0  0  0  0  0  0  0  0  0  0
  -30.4079  -19.8149   22.9871 C   0  0  0  0  0  0  0  0  0  0  0  0
  -27.2425  -26.9334   19.8119 C   0  0  0  0  0  0  0  0  0  0  0  0
  -21.7101   -5.8887   22.3032 C   0  0  0  0  0  0  0  0  0  0  0  0
  -21.4709   -4.2415   24.5420 C   0  0  0  0  0  0  0  0  0  0  0  0
  -22.1764   -4.5750   22.2555 C   0  0  0  0  0  0  0  0  0  0  0  0
  -24.8148  -11.4040   21.7372 C   0  0  0  0  0  0  0  0  0  0  0  0
  -25.6773  -13.2933   22.4595 C   0  0  0  0  0  0  0  0  0  0  0  0
  -23.9509  -12.3172   23.9811 C   0  0  0  0  0  0  0  0  0  0  0  0
  -26.2504  -31.5121   22.5533 C   0  0  0  0  0  0  0  0  0  0  0  0
  -23.1177  -30.6730   22.6174 C   0  0  0  0  0  0  0  0  0  0  0  0
  -20.7098  -28.3995   21.7927 C   0  0  0  0  0  0  0  0  0  0  0  0
  -30.7035  -14.7666   20.5330 C   0  0  0  0  0  0  0  0  0  0  0  0
  -27.4251  -35.9987   24.6859 C   0  0  0  0  0  0  0  0  0  0  0  0
  -25.8212  -30.9839   20.1258 C   0  0  0  0  0  0  0  0  0  0  0  0
  -24.7509  -28.8841   21.9119 C   0  0  0  0  0  0  0  0  0  0  0  0
  -26.3928  -34.9042   24.9440 C   0  0  0  0  0  0  0  0  0  0  0  0
  -28.1634  -14.1001   18.1288 C   0  0  0  0  0  0  0  0  0  0  0  0
  -27.0625  -33.5339   24.9689 C   0  0  0  0  0  0  0  0  0  0  0  0
  -27.0646  -13.4103   18.9393 C   0  0  0  0  0  0  0  0  0  0  0  0
  -29.5560  -13.7022   18.6130 C   0  0  0  0  0  0  0  0  0  0  0  0
  -28.6902  -13.2073   20.8667 C   0  0  0  0  0  0  0  0  0  0  0  0
  -27.7176  -33.2154   23.6195 C   0  0  1  0  0  0  0  0  0  0  0  0
  -25.2126  -31.3185   21.4841 C   0  0  1  0  0  0  0  0  0  0  0  0
  -27.2677  -13.6205   20.4519 C   0  0  2  0  0  0  0  0  0  0  0  0
  -18.2469  -27.9713   22.0123 C   0  0  0  0  0  0  0  0  0  0  0  0
  -23.5175  -29.8850   25.5378 C   0  0  0  0  0  0  0  0  0  0  0  0
  -21.3631  -28.6153   25.4177 C   0  0  0  0  0  0  0  0  0  0  0  0
  -21.3747  -31.0848   25.0650 C   0  0  0  0  0  0  0  0  0  0  0  0
  -20.3316  -28.3922   18.8574 C   0  0  0  0  0  0  0  0  0  0  0  0
  -31.7384  -15.7691   22.5537 C   0  0  0  0  0  0  0  0  0  0  0  0
  -28.8744  -22.9666   22.0586 C   0  0  0  0  0  0  0  0  0  0  0  0
  -28.8062  -23.8350   20.8072 C   0  0  0  0  0  0  0  0  0  0  0  0
  -29.9636  -21.9078   21.9489 C   0  0  0  0  0  0  0  0  0  0  0  0
  -27.6898  -24.8656   20.8983 C   0  0  0  0  0  0  0  0  0  1  0  0
  -22.3189  -29.5723   23.2725 C   0  0  1  0  0  0  0  0  0  0  0  0
  -19.3465  -28.5659   21.1461 C   0  0  2  0  0  0  0  0  0  0  0  0
  -22.1648  -29.7836   24.8052 C   0  0  0  0  0  0  0  0  0  0  0  0
  -25.6978  -11.7500   20.7966 N   0  0  0  0  0  0  0  0  0  0  0  0
  -26.2057  -12.9029   21.2643 N   0  0  0  0  0  0  0  0  0  0  0  0
  -24.2946  -30.2829   21.9627 N   0  0  0  0  0  0  0  0  0  0  0  0
  -29.6836  -13.9275   20.0548 N   0  0  0  0  0  0  0  0  0  0  0  0
  -26.0757  -14.4288   23.0714 N   0  0  0  0  0  0  0  0  0  0  0  0
  -23.0605  -11.2517   24.1715 N   0  0  0  0  0  0  0  0  0  0  0  0
  -26.7177  -32.8085   22.6557 N   0  0  0  0  0  0  0  0  0  0  0  0
  -21.0540  -29.4997   22.5492 N   0  0  0  0  0  0  0  0  0  0  0  0
  -30.7500  -14.9313   21.9120 N   0  0  0  0  0  0  0  0  0  0  0  0
  -19.3167  -27.8892   19.8187 N   0  3  0  0  0  0  0  0  0  0  0  0
  -24.0042  -13.2331   24.8365 O   0  0  0  0  0  0  0  0  0  0  0  0
  -26.6003  -30.5564   23.2359 O   0  0  0  0  0  0  0  0  0  0  0  0
  -22.7086  -31.8352   22.6779 O   0  0  0  0  0  0  0  0  0  0  0  0
  -21.3988  -27.3925   21.6448 O   0  0  0  0  0  0  0  0  0  0  0  0
  -31.5095  -15.3318   19.7860 O   0  0  0  0  0  0  0  0  0  0  0  0
  -21.8288   -6.7078   21.1930 O   0  0  0  0  0  0  0  0  0  0  0  0
  -29.9808  -21.1098   23.1250 O   0  0  0  0  0  0  0  0  0  0  0  0
  -27.6893  -25.6522   19.7077 O   0  0  0  0  0  0  0  0  0  1  0  0
  -21.3574   -3.4512   25.6175 F   0  0  0  0  0  0  0  0  0  0  0  0
  -22.7413   -4.0988   21.1375 F   0  0  0  0  0  0  0  0  0  0  0  0
  1  2  1  0  0  0  0
  1  5  2  0  0  0  0
  2  6  2  0  0  0  0
  3 10  2  0  0  0  0
  3 19  1  0  0  0  0
  4 11  1  0  0  0  0
  4 19  2  0  0  0  0
  5 21  1  0  0  0  0
  6 23  1  0  0  0  0
  7 12  2  0  0  0  0
  7 22  1  0  0  0  0
  8 13  2  0  0  0  0
  8 25  1  0  0  0  0
  9 14  1  0  0  0  0
  9 25  2  0  0  0  0
 10 26  1  0  0  0  0
 11 26  2  0  0  0  0
 12 28  1  0  0  0  0
 13 27  1  0  0  0  0
 14 27  2  0  0  0  0
 15 16  2  0  0  0  0
 15 29  1  0  0  0  0
 16 30  1  0  0  0  0
 17 24  1  0  0  0  0
 17 28  2  0  0  0  0
 18 30  2  0  0  0  0
 18 31  1  0  0  0  0
 19 32  1  0  0  0  0
 20 32  1  0  0  0  0
 20 33  2  0  0  0  0
 20 34  1  0  0  0  0
 21 23  2  0  0  0  0
 21 39  1  0  0  0  0
 22 24  2  0  0  0  0
 22 40  1  0  0  0  0
 23 48  1  0  0  0  0
 24 41  1  0  0  0  0
 25 56  1  0  0  0  0
 26 79  1  0  0  0  0
 27 80  1  0  0  0  0
 28 81  1  0  0  0  0
 29 31  2  0  0  0  0
 29 79  1  0  0  0  0
 30 82  1  0  0  0  0
 31 83  1  0  0  0  0
 32 64  2  0  0  0  0
 33 65  1  0  0  0  0
 33 68  1  0  0  0  0
 34 69  1  0  0  0  0
 34 74  2  0  0  0  0
 35 49  1  0  0  0  0
 35 70  1  0  0  0  0
 35 75  2  0  0  0  0
 36 61  1  0  0  0  0
 36 66  1  0  0  0  0
 36 76  2  0  0  0  0
 37 62  1  0  0  0  0
 37 71  1  0  0  0  0
 37 77  2  0  0  0  0
 38 67  1  0  0  0  0
 38 72  1  0  0  0  0
 38 78  2  0  0  0  0
 39 42  1  0  0  0  0
 40 49  1  0  0  0  0
 41 66  1  0  0  0  0
 42 44  1  0  0  0  0
 43 45  1  0  0  0  0
 43 46  1  0  0  0  0
 44 48  1  0  0  0  0
 45 50  1  0  0  0  0
 46 67  1  0  0  0  0
 47 50  1  0  0  0  0
 47 67  1  0  0  0  0
 48 70  1  0  0  0  0
 49 66  1  0  0  0  0
 50 65  1  0  0  0  0
 51 62  1  0  0  0  0
 52 63  1  0  0  0  0
 53 63  1  0  0  0  0
 54 63  1  0  0  0  0
 55 73  1  0  0  0  0
 56 72  1  0  0  0  0
 57 58  1  0  0  0  0
 57 59  1  0  0  0  0
 58 60  1  0  0  0  0
 59 80  1  0  0  0  0
 60 81  1  0  0  0  0
 61 63  1  0  0  0  0
 61 71  1  0  0  0  0
 62 73  1  0  0  0  0
 64 65  1  0  0  0  0
M  CHG  1  73   1
M  ISO  4  38 100  60 101  72 100  81 101
M  END
> <Batch ID>
0003

> <Smiles>
CNC(C)C(=O)NC(C(=O)N1Cc2cc([101O:1][101CH2:1]CCCOc3ccc(C[100NH:0][100C:0](=O)N4CCCC(n5nc(-c6ccc(Oc7ccc(F)cc7F)cc6)c(C(N)=O)c5N)C4)cc3)ccc2CC1C(=O)NC1CCCc2ccccc21)C(C)(C)C

> <Shape>
0.319

> <Color>
0.147

> <Negative vol penalty>
0.000

$$$$

  -OEChem-04042320203D

 85 94  0     1  0  0  0  0  0999 V2000
  -25.2126  -31.6446   20.8954 C   0  0  0  0  0  0  0  0  0  0  0  0
  -24.1339  -31.0310   21.5221 C   0  0  0  0  0  0  0  0  0  0  0  0
  -30.1643  -19.6160   20.0105 C   0  0  0  0  0  0  0  0  0  0  0  0
  -27.8502  -19.5461   20.7012 C   0  0  0  0  0  0  0  0  0  0  0  0
  -26.1607  -30.8696   20.2309 C   0  0  0  0  0  0  0  0  0  0  0  0
  -24.0093  -29.6415   21.4947 C   0  0  0  0  0  0  0  0  0  0  0  0
  -20.7801  -22.5163   22.9180 C   0  0  0  0  0  0  0  0  0  0  0  0
  -21.8078  -14.1278   20.3239 C   0  0  0  0  0  0  0  0  0  0  0  0
  -22.1120  -12.8355   22.3424 C   0  0  0  0  0  0  0  0  0  0  0  0
  -22.8124  -13.3888   19.6993 C   0  0  0  0  0  0  0  0  0  0  0  0
  -23.1166  -12.0964   21.7178 C   0  0  0  0  0  0  0  0  0  0  0  0
  -29.9788  -20.9084   19.5198 C   0  0  0  0  0  0  0  0  0  0  0  0
  -27.6647  -20.8386   20.2105 C   0  0  0  0  0  0  0  0  0  0  0  0
  -20.7789  -21.1896   22.4894 C   0  0  0  0  0  0  0  0  0  0  0  0
  -29.7896  -24.0443   20.7700 C   0  0  0  0  0  0  0  0  0  0  0  0
  -30.7612  -24.9982   21.0724 C   0  0  0  0  0  0  0  0  0  0  0  0
  -23.1687  -21.0923   22.8038 C   0  0  0  0  0  0  0  0  0  0  0  0
  -31.1803  -25.3189   18.7147 C   0  0  0  0  0  0  0  0  0  0  0  0
  -29.0999  -18.9348   20.6012 C   0  0  0  0  0  0  0  0  0  0  0  0
  -29.6894  -17.2321   22.4070 C   0  0  0  0  0  0  0  0  0  0  0  0
  -26.0403  -29.4709   20.1851 C   0  0  0  0  0  0  0  0  0  0  0  0
  -21.9790  -23.1454   23.2830 C   0  0  0  0  0  0  0  0  0  0  0  0
  -24.9687  -28.8403   20.8495 C   0  0  0  0  0  0  0  0  0  0  0  0
  -23.1820  -22.4263   23.2392 C   0  0  0  0  0  0  0  0  0  0  0  0
  -21.4576  -13.8512   21.6455 C   0  0  0  0  0  0  0  0  0  0  0  0
  -23.4668  -12.3730   20.3962 C   0  0  0  0  0  0  0  0  0  0  0  0
  -28.7290  -21.5197   19.6198 C   0  0  0  0  0  0  0  0  0  0  0  0
  -21.9737  -20.4783   22.4295 C   0  0  0  0  0  0  0  0  0  0  0  0
  -29.5133  -23.7276   19.4399 C   0  0  0  0  0  0  0  0  0  0  0  0
  -31.4566  -25.6355   20.0448 C   0  0  0  0  0  0  0  0  0  0  0  0
  -30.2086  -24.3649   18.4123 C   0  0  0  0  0  0  0  0  0  0  0  0
  -29.2907  -17.5995   21.1078 C   0  0  0  0  0  0  0  0  0  0  0  0
  -29.7221  -15.8593   22.3808 C   0  0  0  0  0  0  0  0  0  0  0  0
  -20.7138  -17.1143   21.9097 C   0  0  0  0  0  0  0  0  0  0  0  0
  -30.0021  -18.0579   23.5366 C   0  0  0  0  0  0  0  0  0  0  0  0
  -23.6183  -25.6464   22.2054 C   0  0  0  0  0  0  0  0  0  0  0  0
  -25.4653  -25.0635   24.8075 C   0  0  0  0  0  0  0  0  0  0  0  0
  -26.8168  -22.1676   26.4822 C   0  0  0  0  0  0  0  0  0  0  0  0
  -26.9110  -11.7771   19.0215 C   0  0  0  0  0  0  0  0  0  0  0  0
  -27.0994  -28.6801   19.4585 C   0  0  0  0  0  0  0  0  0  0  0  0
  -21.9597  -24.5688   23.7686 C   0  0  0  0  0  0  0  0  0  0  0  0
  -24.4934  -23.0495   23.6395 C   0  0  0  0  0  0  0  0  0  0  0  0
  -26.6486  -27.2663   19.1059 C   0  0  0  0  0  0  0  0  0  0  0  0
  -30.4279  -12.1869   19.3963 C   0  0  0  0  0  0  0  0  0  0  0  0
  -26.0513  -26.5905   20.3311 C   0  0  0  0  0  0  0  0  0  0  0  0
  -30.5712  -13.5874   19.9947 C   0  0  0  0  0  0  0  0  0  0  0  0
  -22.0599  -17.5833   23.8209 C   0  0  0  0  0  0  0  0  0  0  0  0
  -29.2818  -12.1180   18.3894 C   0  0  0  0  0  0  0  0  0  0  0  0
  -21.3938  -16.2328   23.9968 C   0  0  0  0  0  0  0  0  0  0  0  0
  -28.1240  -13.9905   19.4972 C   0  0  0  0  0  0  0  0  0  0  0  0
  -24.7961  -27.3328   20.8068 C   0  0  1  0  0  0  0  0  0  0  0  0
  -21.2112  -18.2698   22.7554 C   0  0  1  0  0  0  0  0  0  1  0  0
  -23.3085  -25.2672   23.6259 C   0  0  1  0  0  0  0  0  0  0  0  0
  -29.2312  -14.0955   20.5599 C   0  0  2  0  0  0  0  0  0  0  0  0
  -27.4618  -21.8244   28.8830 C   0  0  0  0  0  0  0  0  0  0  0  0
  -28.2581  -25.8569   23.8689 C   0  0  0  0  0  0  0  0  0  0  0  0
  -29.1943  -24.1280   25.4190 C   0  0  0  0  0  0  0  0  0  0  0  0
  -27.8929  -26.0487   26.3355 C   0  0  0  0  0  0  0  0  0  0  0  0
  -25.0573  -19.8017   26.7375 C   0  0  0  0  0  0  0  0  0  0  0  0
  -20.3764  -14.6463   22.3186 C   0  0  0  0  0  0  0  0  0  0  0  0
  -24.5397  -11.5821   19.7270 C   0  0  0  0  0  0  0  0  0  0  0  0
  -26.6817  -24.2142   25.0866 C   0  0  1  0  0  0  0  0  0  0  0  0
  -26.3867  -21.6132   27.8283 C   0  0  2  0  0  0  0  0  0  0  0  0
  -27.9878  -25.0547   25.1575 C   0  0  0  0  0  0  0  0  0  0  0  0
  -29.0851  -16.5452   20.3141 N   0  0  0  0  0  0  0  0  0  0  0  0
  -29.3557  -15.5018   21.1166 N   0  0  0  0  0  0  0  0  0  0  0  0
  -20.8299  -15.9681   22.6933 N   0  0  0  0  0  0  0  0  0  0  0  0
  -24.4235  -24.4456   24.1014 N   0  0  0  0  0  0  0  0  0  0  0  0
  -28.0398  -12.6125   18.9885 N   0  0  0  0  0  0  0  0  0  0  0  0
  -30.0284  -14.9351   23.3159 N   0  0  0  0  0  0  0  0  0  0  0  0
  -29.9174  -19.4493   23.3909 N   0  0  0  0  0  0  0  0  0  0  0  0
  -24.3824  -26.7912   22.0825 N   0  0  0  0  0  0  0  0  0  0  0  0
  -26.3863  -23.4653   26.3033 N   0  0  0  0  0  0  0  0  0  0  0  0
  -25.7772  -12.3211   19.6125 N   0  0  0  0  0  0  0  0  0  0  0  0
  -26.1123  -20.1521   27.7230 N   0  3  0  0  0  0  0  0  0  0  0  0
  -20.2850  -17.2118   20.7699 O   0  0  0  0  0  0  0  0  0  0  0  0
  -30.3623  -17.5768   24.6376 O   0  0  0  0  0  0  0  0  0  0  0  0
  -23.1967  -24.9510   21.2887 O   0  0  0  0  0  0  0  0  0  0  0  0
  -25.4375  -26.2300   25.2078 O   0  0  0  0  0  0  0  0  0  0  0  0
  -27.4725  -21.5162   25.6722 O   0  0  0  0  0  0  0  0  0  0  0  0
  -26.9150  -10.6295   18.5633 O   0  0  0  0  0  0  0  0  0  0  0  0
  -28.5478  -22.7809   19.1412 O   0  0  0  0  0  0  0  0  0  0  0  0
  -21.9755  -19.1835   22.0109 O   0  0  0  0  0  0  0  0  0  1  0  0
  -32.3886  -26.5527   20.3354 F   0  0  0  0  0  0  0  0  0  0  0  0
  -29.9468  -24.0658   17.1326 F   0  0  0  0  0  0  0  0  0  0  0  0
  1  2  1  0  0  0  0
  1  5  2  0  0  0  0
  2  6  2  0  0  0  0
  3 12  2  0  0  0  0
  3 19  1  0  0  0  0
  4 13  1  0  0  0  0
  4 19  2  0  0  0  0
  5 21  1  0  0  0  0
  6 23  1  0  0  0  0
  7 14  2  0  0  0  0
  7 22  1  0  0  0  0
  8 10  2  0  0  0  0
  8 25  1  0  0  0  0
  9 11  1  0  0  0  0
  9 25  2  0  0  0  0
 10 26  1  0  0  0  0
 11 26  2  0  0  0  0
 12 27  1  0  0  0  0
 13 27  2  0  0  0  0
 14 28  1  0  0  0  0
 15 16  2  0  0  0  0
 15 29  1  0  0  0  0
 16 30  1  0  0  0  0
 17 24  1  0  0  0  0
 17 28  2  0  0  0  0
 18 30  2  0  0  0  0
 18 31  1  0  0  0  0
 19 32  1  0  0  0  0
 20 32  1  0  0  0  0
 20 33  2  0  0  0  0
 20 35  1  0  0  0  0
 21 23  2  0  0  0  0
 21 40  1  0  0  0  0
 22 24  2  0  0  0  0
 22 41  1  0  0  0  0
 23 51  1  0  0  0  0
 24 42  1  0  0  0  0
 25 60  1  0  0  0  0
 26 61  1  0  0  0  0
 27 82  1  0  0  0  0
 28 83  1  0  0  0  0
 29 31  2  0  0  0  0
 29 82  1  0  0  0  0
 30 84  1  0  0  0  0
 31 85  1  0  0  0  0
 32 65  2  0  0  0  0
 33 66  1  0  0  0  0
 33 70  1  0  0  0  0
 34 52  1  0  0  0  0
 34 67  1  0  0  0  0
 34 76  2  0  0  0  0
 35 71  1  0  0  0  0
 35 77  2  0  0  0  0
 36 53  1  0  0  0  0
 36 72  1  0  0  0  0
 36 78  2  0  0  0  0
 37 62  1  0  0  0  0
 37 68  1  0  0  0  0
 37 79  2  0  0  0  0
 38 63  1  0  0  0  0
 38 73  1  0  0  0  0
 38 80  2  0  0  0  0
 39 69  1  0  0  0  0
 39 74  1  0  0  0  0
 39 81  2  0  0  0  0
 40 43  1  0  0  0  0
 41 53  1  0  0  0  0
 42 68  1  0  0  0  0
 43 45  1  0  0  0  0
 44 46  1  0  0  0  0
 44 48  1  0  0  0  0
 45 51  1  0  0  0  0
 46 54  1  0  0  0  0
 47 49  1  0  0  0  0
 47 52  1  0  0  0  0
 48 69  1  0  0  0  0
 49 67  1  0  0  0  0
 50 54  1  0  0  0  0
 50 69  1  0  0  0  0
 51 72  1  0  0  0  0
 52 83  1  0  0  0  0
 53 68  1  0  0  0  0
 54 66  1  0  0  0  0
 55 63  1  0  0  0  0
 56 64  1  0  0  0  0
 57 64  1  0  0  0  0
 58 64  1  0  0  0  0
 59 75  1  0  0  0  0
 60 67  1  0  0  0  0
 61 74  1  0  0  0  0
 62 64  1  0  0  0  0
 62 73  1  0  0  0  0
 63 75  1  0  0  0  0
 65 66  1  0  0  0  0
M  CHG  1  75   1
M  ISO  4  39 100  52 101  74 100  83 101
M  END
> <Batch ID>
0003

> <Smiles>
CNC(C)C(=O)NC(C(=O)N1Cc2cc([101O:1][101CH:1]3CCN(Cc4ccc(C[100NH:0][100C:0](=O)N5CCCC(n6nc(-c7ccc(Oc8ccc(F)cc8F)cc7)c(C(N)=O)c6N)C5)cc4)C3=O)ccc2CC1C(=O)NC1CCCc2ccccc21)C(C)(C)C

> <Shape>
0.224

> <Color>
0.065

> <Negative vol penalty>
0.000

$$$$

  -OEChem-04042320203D

 82 90  0     1  0  0  0  0  0999 V2000
  -24.2483  -35.8179   15.8978 C   0  0  0  0  0  0  0  0  0  0  0  0
  -24.5879  -34.4708   15.8239 C   0  0  0  0  0  0  0  0  0  0  0  0
  -25.9058  -12.1874   21.2405 C   0  0  0  0  0  0  0  0  0  0  0  0
  -25.8514  -13.8134   19.4544 C   0  0  0  0  0  0  0  0  0  0  0  0
  -24.5101  -36.5388   17.0621 C   0  0  0  0  0  0  0  0  0  0  0  0
  -25.1905  -33.8441   16.9141 C   0  0  0  0  0  0  0  0  0  0  0  0
  -24.4151  -28.0427   18.7164 C   0  0  0  0  0  0  0  0  0  0  0  0
  -32.0137  -22.0441   20.7628 C   0  0  0  0  0  0  0  0  0  0  0  0
  -31.1004  -21.2718   18.6637 C   0  0  0  0  0  0  0  0  0  0  0  0
  -32.0877  -20.7268   21.2153 C   0  0  0  0  0  0  0  0  0  0  0  0
  -31.1744  -19.9544   19.1161 C   0  0  0  0  0  0  0  0  0  0  0  0
  -24.5119  -12.1387   21.2387 C   0  0  0  0  0  0  0  0  0  0  0  0
  -24.4574  -13.7647   19.4525 C   0  0  0  0  0  0  0  0  0  0  0  0
  -25.1707  -26.8887   18.5140 C   0  0  0  0  0  0  0  0  0  0  0  0
  -22.0723  -10.6967   19.3942 C   0  0  0  0  0  0  0  0  0  0  0  0
  -21.4675   -9.4410   19.4487 C   0  0  0  0  0  0  0  0  0  0  0  0
  -26.2373  -27.2192   20.6523 C   0  0  0  0  0  0  0  0  0  0  0  0
  -20.3715  -10.0584   21.5115 C   0  0  0  0  0  0  0  0  0  0  0  0
  -26.5756  -13.0248   20.3484 C   0  0  0  0  0  0  0  0  0  0  0  0
  -28.8956  -12.2771   19.5959 C   0  0  0  0  0  0  0  0  0  0  0  0
  -25.1074  -35.9182   18.1706 C   0  0  0  0  0  0  0  0  0  0  0  0
  -24.5730  -28.8010   19.8854 C   0  0  0  0  0  0  0  0  0  0  0  0
  -25.4618  -34.5577   18.0939 C   0  0  0  0  0  0  0  0  0  0  0  0
  -25.4807  -28.3811   20.8683 C   0  0  0  0  0  0  0  0  0  0  0  0
  -31.5200  -22.3166   19.4870 C   0  0  0  0  0  0  0  0  0  0  0  0
  -31.6681  -19.6819   20.3920 C   0  0  0  0  0  0  0  0  0  0  0  0
  -23.7876  -12.9273   20.3446 C   0  0  0  0  0  0  0  0  0  0  0  0
  -26.0841  -26.4783   19.4807 C   0  0  0  0  0  0  0  0  0  0  0  0
  -21.8268  -11.6333   20.3983 C   0  0  0  0  0  0  0  0  0  0  0  0
  -20.6171   -9.1219   20.5073 C   0  0  0  0  0  0  0  0  0  0  0  0
  -20.9764  -11.3142   21.4569 C   0  0  0  0  0  0  0  0  0  0  0  0
  -28.0156  -13.0760   20.3503 C   0  0  0  0  0  0  0  0  0  0  0  0
  -30.1478  -12.7134   19.9538 C   0  0  0  0  0  0  0  0  0  0  0  0
  -28.6070  -11.2339   18.6556 C   0  0  0  0  0  0  0  0  0  0  0  0
  -25.5013  -31.7735   20.5227 C   0  0  0  0  0  0  0  0  0  0  0  0
  -24.6417  -30.9782   23.5478 C   0  0  0  0  0  0  0  0  0  0  0  0
  -29.0708  -24.4887   19.0472 C   0  0  0  0  0  0  0  0  0  0  0  0
  -24.1166  -28.5237   25.8600 C   0  0  0  0  0  0  0  0  0  0  0  0
  -32.2078  -17.9001   22.0891 C   0  0  0  0  0  0  0  0  0  0  0  0
  -25.4140  -36.7502   19.3906 C   0  0  0  0  0  0  0  0  0  0  0  0
  -23.7312  -30.0287   20.1007 C   0  0  0  0  0  0  0  0  0  0  0  0
  -25.6732  -29.1487   22.1498 C   0  0  0  0  0  0  0  0  0  0  0  0
  -25.7136  -35.9188   20.6353 C   0  0  0  0  0  0  0  0  0  0  0  0
  -32.5187  -14.6966   23.6117 C   0  0  0  0  0  0  0  0  0  0  0  0
  -26.6891  -34.7940   20.3037 C   0  0  0  0  0  0  0  0  0  0  0  0
  -31.4836  -13.8432   22.8753 C   0  0  0  0  0  0  0  0  0  0  0  0
  -32.0278  -16.1279   23.8217 C   0  0  0  0  0  0  0  0  0  0  0  0
  -30.5350  -15.9587   21.8692 C   0  0  0  0  0  0  0  0  0  0  0  0
  -26.0942  -33.8363   19.2642 C   0  0  1  0  0  0  0  0  0  0  0  0
  -24.3445  -31.0065   21.0982 C   0  0  1  0  0  0  0  0  0  0  0  0
  -31.0109  -14.5263   21.5770 C   0  0  2  0  0  0  0  0  0  0  0  0
  -23.4558  -28.1841   28.2570 C   0  0  0  0  0  0  0  0  0  0  0  0
  -27.4224  -31.8648   24.4374 C   0  0  0  0  0  0  0  0  0  0  0  0
  -27.0469  -30.6434   26.5904 C   0  0  0  0  0  0  0  0  0  0  0  0
  -25.5684  -32.5537   25.9680 C   0  0  0  0  0  0  0  0  0  0  0  0
  -21.7249  -26.9551   25.0995 C   0  0  0  0  0  0  0  0  0  0  0  0
  -31.4403  -23.7346   19.0000 C   0  0  0  0  0  0  0  0  0  0  0  0
  -28.1174  -25.3131   19.8856 C   0  0  0  0  0  0  0  0  0  1  0  0
  -25.3454  -30.3597   24.7315 C   0  0  1  0  0  0  0  0  0  0  0  0
  -22.9673  -28.2729   26.8195 C   0  0  2  0  0  0  0  0  0  0  0  0
  -26.3438  -31.3418   25.4069 C   0  0  0  0  0  0  0  0  0  0  0  0
  -28.6546  -13.9533   21.1288 N   0  0  0  0  0  0  0  0  0  0  0  0
  -29.9494  -13.7082   20.8656 N   0  0  0  0  0  0  0  0  0  0  0  0
  -24.8313  -30.3457   22.3109 N   0  0  0  0  0  0  0  0  0  0  0  0
  -31.6006  -16.7123   22.5486 N   0  0  0  0  0  0  0  0  0  0  0  0
  -31.3882  -12.3393   19.5745 N   0  0  0  0  0  0  0  0  0  0  0  0
  -27.2660  -10.9126   18.4050 N   0  0  0  0  0  0  0  0  0  0  0  0
  -31.7434  -18.3436   20.8513 N   0  0  0  0  0  0  0  0  0  0  0  0
  -25.1386  -32.9452   19.8864 N   0  0  0  0  0  0  0  0  0  0  0  0
  -30.3404  -24.4520   19.6021 N   0  0  0  0  0  0  0  0  0  0  0  0
  -24.2966  -29.8694   25.6193 N   0  0  0  0  0  0  0  0  0  0  0  0
  -22.2765  -26.9973   26.4783 N   0  3  0  0  0  0  0  0  0  0  0  0
  -29.5118  -10.5942   18.0678 O   0  0  0  0  0  0  0  0  0  0  0  0
  -26.6389  -31.3354   20.6481 O   0  0  0  0  0  0  0  0  0  0  0  0
  -23.9436  -31.9812   23.7156 O   0  0  0  0  0  0  0  0  0  0  0  0
  -28.7302  -23.9336   18.0061 O   0  0  0  0  0  0  0  0  0  0  0  0
  -24.7898  -27.6167   25.3755 O   0  0  0  0  0  0  0  0  0  0  0  0
  -33.0951  -18.4663   22.7327 O   0  0  0  0  0  0  0  0  0  0  0  0
  -22.4274  -12.8798   20.3423 O   0  0  0  0  0  0  0  0  0  0  0  0
  -26.8233  -25.3526   19.2854 O   0  0  0  0  0  0  0  0  0  1  0  0
  -20.0351   -7.9165   20.5588 F   0  0  0  0  0  0  0  0  0  0  0  0
  -20.7358  -12.2102   22.4239 F   0  0  0  0  0  0  0  0  0  0  0  0
  1  2  1  0  0  0  0
  1  5  2  0  0  0  0
  2  6  2  0  0  0  0
  3 12  2  0  0  0  0
  3 19  1  0  0  0  0
  4 13  1  0  0  0  0
  4 19  2  0  0  0  0
  5 21  1  0  0  0  0
  6 23  1  0  0  0  0
  7 14  2  0  0  0  0
  7 22  1  0  0  0  0
  8 10  2  0  0  0  0
  8 25  1  0  0  0  0
  9 11  1  0  0  0  0
  9 25  2  0  0  0  0
 10 26  1  0  0  0  0
 11 26  2  0  0  0  0
 12 27  1  0  0  0  0
 13 27  2  0  0  0  0
 14 28  1  0  0  0  0
 15 16  2  0  0  0  0
 15 29  1  0  0  0  0
 16 30  1  0  0  0  0
 17 24  1  0  0  0  0
 17 28  2  0  0  0  0
 18 30  2  0  0  0  0
 18 31  1  0  0  0  0
 19 32  1  0  0  0  0
 20 32  1  0  0  0  0
 20 33  2  0  0  0  0
 20 34  1  0  0  0  0
 21 23  2  0  0  0  0
 21 40  1  0  0  0  0
 22 24  2  0  0  0  0
 22 41  1  0  0  0  0
 23 49  1  0  0  0  0
 24 42  1  0  0  0  0
 25 57  1  0  0  0  0
 26 68  1  0  0  0  0
 27 79  1  0  0  0  0
 28 80  1  0  0  0  0
 29 31  2  0  0  0  0
 29 79  1  0  0  0  0
 30 81  1  0  0  0  0
 31 82  1  0  0  0  0
 32 62  2  0  0  0  0
 33 63  1  0  0  0  0
 33 66  1  0  0  0  0
 34 67  1  0  0  0  0
 34 73  2  0  0  0  0
 35 50  1  0  0  0  0
 35 69  1  0  0  0  0
 35 74  2  0  0  0  0
 36 59  1  0  0  0  0
 36 64  1  0  0  0  0
 36 75  2  0  0  0  0
 37 58  1  0  0  0  0
 37 70  1  0  0  0  0
 37 76  2  0  0  0  0
 38 60  1  0  0  0  0
 38 71  1  0  0  0  0
 38 77  2  0  0  0  0
 39 65  1  0  0  0  0
 39 68  1  0  0  0  0
 39 78  2  0  0  0  0
 40 43  1  0  0  0  0
 41 50  1  0  0  0  0
 42 64  1  0  0  0  0
 43 45  1  0  0  0  0
 44 46  1  0  0  0  0
 44 47  1  0  0  0  0
 45 49  1  0  0  0  0
 46 51  1  0  0  0  0
 47 65  1  0  0  0  0
 48 51  1  0  0  0  0
 48 65  1  0  0  0  0
 49 69  1  0  0  0  0
 50 64  1  0  0  0  0
 51 63  1  0  0  0  0
 52 60  1  0  0  0  0
 53 61  1  0  0  0  0
 54 61  1  0  0  0  0
 55 61  1  0  0  0  0
 56 72  1  0  0  0  0
 57 70  1  0  0  0  0
 58 80  1  0  0  0  0
 59 61  1  0  0  0  0
 59 71  1  0  0  0  0
 60 72  1  0  0  0  0
 62 63  1  0  0  0  0
M  CHG  1  72   1
M  ISO  4  39 100  58 101  68 100  80 101
M  END
> <Batch ID>
0003

> <Smiles>
CNC(C)C(=O)NC(C(=O)N1Cc2cc([101O:1][101CH2:1]C(=O)NCc3ccc([100NH:0][100C:0](=O)N4CCCC(n5nc(-c6ccc(Oc7ccc(F)cc7F)cc6)c(C(N)=O)c5N)C4)cc3)ccc2CC1C(=O)NC1CCCc2ccccc21)C(C)(C)C

> <Shape>
0.263

> <Color>
0.085

> <Negative vol penalty>
0.000

$$$$

  -OEChem-04042320203D

 87 95  0     1  0  0  0  0  0999 V2000
  -31.3025  -22.5673   19.6995 C   0  0  0  0  0  0  0  0  0  0  0  0
  -34.6240  -27.9429   17.0429 C   0  0  0  0  0  0  0  0  0  0  0  0
  -33.9206  -26.7928   17.3867 C   0  0  0  0  0  0  0  0  0  0  0  0
  -31.6537  -22.6195   21.0484 C   0  0  0  0  0  0  0  0  0  0  0  0
  -31.0990  -21.3347   19.0790 C   0  0  0  0  0  0  0  0  0  0  0  0
  -22.9383  -10.0798   19.8890 C   0  0  0  0  0  0  0  0  0  0  0  0
  -23.8502   -9.7376   22.1000 C   0  0  0  0  0  0  0  0  0  0  0  0
  -34.0953  -29.1977   17.3428 C   0  0  0  0  0  0  0  0  0  0  0  0
  -32.6887  -26.8969   18.0315 C   0  0  0  0  0  0  0  0  0  0  0  0
  -27.8537  -23.2000   17.3518 C   0  0  0  0  0  0  0  0  0  0  0  0
  -31.8015  -21.4392   21.7768 C   0  0  0  0  0  0  0  0  0  0  0  0
  -31.2468  -20.1543   19.8074 C   0  0  0  0  0  0  0  0  0  0  0  0
  -22.1565   -8.9338   20.0341 C   0  0  0  0  0  0  0  0  0  0  0  0
  -23.0683   -8.5916   22.2451 C   0  0  0  0  0  0  0  0  0  0  0  0
  -27.3800  -22.1271   18.1056 C   0  0  0  0  0  0  0  0  0  0  0  0
  -23.1553   -5.3703   21.2221 C   0  0  0  0  0  0  0  0  0  0  0  0
  -23.7659   -4.2314   21.7470 C   0  0  0  0  0  0  0  0  0  0  0  0
  -25.8569  -23.6092   19.2470 C   0  0  0  0  0  0  0  0  0  0  0  0
  -22.1939   -4.2342   23.5817 C   0  0  0  0  0  0  0  0  0  0  0  0
  -23.7852  -10.4817   20.9220 C   0  0  0  0  0  0  0  0  0  0  0  0
  -24.2435  -12.9833   21.1211 C   0  0  0  0  0  0  0  0  0  0  0  0
  -32.8517  -29.3174   17.9830 C   0  0  0  0  0  0  0  0  0  0  0  0
  -27.3393  -24.4897   17.5479 C   0  0  0  0  0  0  0  0  0  0  0  0
  -32.1435  -28.1545   18.3414 C   0  0  0  0  0  0  0  0  0  0  0  0
  -26.3239  -24.6963   18.4925 C   0  0  0  0  0  0  0  0  0  0  0  0
  -31.5980  -20.2066   21.1563 C   0  0  0  0  0  0  0  0  0  0  0  0
  -22.2214   -8.1898   21.2121 C   0  0  0  0  0  0  0  0  0  0  0  0
  -26.3835  -22.3321   19.0554 C   0  0  0  0  0  0  0  0  0  0  0  0
  -22.0641   -5.9413   21.8770 C   0  0  0  0  0  0  0  0  0  0  0  0
  -23.2852   -3.6633   22.9268 C   0  0  0  0  0  0  0  0  0  0  0  0
  -21.5833   -5.3732   23.0567 C   0  0  0  0  0  0  0  0  0  0  0  0
  -24.5936  -11.6650   20.7725 C   0  0  0  0  0  0  0  0  0  0  0  0
  -25.3447  -13.7316   20.7837 C   0  0  0  0  0  0  0  0  0  0  0  0
  -23.0313  -13.4863   21.6983 C   0  0  0  0  0  0  0  0  0  0  0  0
  -28.5581  -27.2725   18.4831 C   0  0  0  0  0  0  0  0  0  0  0  0
  -25.6000  -28.3752   17.7373 C   0  0  0  0  0  0  0  0  0  0  0  0
  -22.2813  -27.7051   17.3087 C   0  0  0  0  0  0  0  0  0  0  0  0
  -30.8726  -14.4942   20.7052 C   0  0  0  0  0  0  0  0  0  0  0  0
  -32.3429  -30.6943   18.3290 C   0  0  0  0  0  0  0  0  0  0  0  0
  -27.8421  -25.6317   16.7079 C   0  0  0  0  0  0  0  0  0  0  0  0
  -25.7241  -26.0578   18.7272 C   0  0  0  0  0  0  0  0  0  0  0  0
  -30.8571  -30.7248   18.6777 C   0  0  0  0  0  0  0  0  0  0  0  0
  -29.4598  -12.5119   18.1069 C   0  0  0  0  0  0  0  0  0  0  0  0
  -30.5128  -29.5979   19.6464 C   0  0  0  0  0  0  0  0  0  0  0  0
  -28.0418  -12.2187   18.6004 C   0  0  0  0  0  0  0  0  0  0  0  0
  -30.4654  -12.5268   19.2560 C   0  0  0  0  0  0  0  0  0  0  0  0
  -28.7000  -13.1337   20.8650 C   0  0  0  0  0  0  0  0  0  0  0  0
  -30.7925  -28.2267   19.0194 C   0  0  1  0  0  0  0  0  0  0  0  0
  -27.6090  -26.9949   17.3518 C   0  0  1  0  0  0  0  0  0  0  0  0
  -27.6414  -13.1636   19.7493 C   0  0  2  0  0  0  0  0  0  0  0  0
  -20.1051  -28.8163   16.7366 C   0  0  0  0  0  0  0  0  0  0  0  0
  -25.4731  -29.5661   20.5436 C   0  0  0  0  0  0  0  0  0  0  0  0
  -22.9985  -29.8108   20.2524 C   0  0  0  0  0  0  0  0  0  0  0  0
  -24.5579  -31.0401   18.7425 C   0  0  0  0  0  0  0  0  0  0  0  0
  -21.9231  -26.0242   14.8993 C   0  0  0  0  0  0  0  0  0  0  0  0
  -28.8431  -18.4987   22.8958 C   0  0  0  0  0  0  0  0  0  0  0  0
  -29.3581  -18.1685   21.4888 C   0  0  0  0  0  0  0  0  0  0  0  0
  -31.1284  -16.4476   22.2144 C   0  0  0  0  0  0  0  0  0  0  0  0
  -27.3545  -18.8278   22.9298 C   0  0  0  0  0  0  0  0  0  0  0  0
  -25.6172  -20.3565   21.9897 C   0  0  0  0  0  0  0  0  0  0  0  0
  -25.4486  -21.5781   21.1080 C   0  0  0  0  0  0  0  0  0  1  0  0
  -31.7585  -18.9245   21.9466 C   0  0  1  0  0  0  0  0  0  0  0  0
  -24.2995  -28.5381   18.4864 C   0  0  1  0  0  0  0  0  0  0  0  0
  -21.3153  -28.0706   16.1961 C   0  0  2  0  0  0  0  0  0  0  0  0
  -30.8532  -17.7588   21.4484 C   0  0  2  0  0  0  0  0  0  0  0  0
  -24.3447  -29.7134   19.5034 C   0  0  0  0  0  0  0  0  0  0  0  0
  -25.8211  -11.5777   20.2533 N   0  0  0  0  0  0  0  0  0  0  0  0
  -26.2519  -12.8505   20.2731 N   0  0  0  0  0  0  0  0  0  0  0  0
  -26.2535  -27.1436   17.8855 N   0  0  0  0  0  0  0  0  0  0  0  0
  -30.0276  -13.4435   20.3115 N   0  0  0  0  0  0  0  0  0  0  0  0
  -25.6157  -15.0508   20.8768 N   0  0  0  0  0  0  0  0  0  0  0  0
  -22.0004  -12.5804   21.9825 N   0  0  0  0  0  0  0  0  0  0  0  0
  -29.7403  -27.8712   18.0915 N   0  0  0  0  0  0  0  0  0  0  0  0
  -23.2578  -28.6647   17.4729 N   0  0  0  0  0  0  0  0  0  0  0  0
  -30.3784  -15.3202   21.7073 N   0  0  0  0  0  0  0  0  0  0  0  0
  -20.8382  -26.8423   15.5000 N   0  3  0  0  0  0  0  0  0  0  0  0
  -27.0567  -20.0008   22.0641 N   0  3  0  0  0  0  0  0  0  0  0  0
  -22.8610  -14.7055   21.9394 O   0  0  0  0  0  0  0  0  0  0  0  0
  -28.2407  -26.9675   19.6267 O   0  0  0  0  0  0  0  0  0  0  0  0
  -26.0170  -29.3037   17.0404 O   0  0  0  0  0  0  0  0  0  0  0  0
  -22.1775  -26.6736   17.9687 O   0  0  0  0  0  0  0  0  0  0  0  0
  -31.9828  -14.6853   20.1974 O   0  0  0  0  0  0  0  0  0  0  0  0
  -33.1384  -18.5629   21.8646 O   0  0  0  0  0  0  0  0  0  0  0  0
  -21.4585   -7.0716   21.3541 O   0  0  0  0  0  0  0  0  0  0  0  0
  -25.9198  -21.2867   19.7930 O   0  0  0  0  0  0  0  0  0  1  0  0
  -23.8707   -2.5687   23.4299 F   0  0  0  0  0  0  0  0  0  0  0  0
  -20.5346   -5.9166   23.6897 F   0  0  0  0  0  0  0  0  0  0  0  0
  1  4  1  0  0  0  0
  1  5  2  0  0  0  0
  2  3  1  0  0  0  0
  2  8  2  0  0  0  0
  3  9  2  0  0  0  0
  4 11  2  0  0  0  0
  5 12  1  0  0  0  0
  6 13  2  0  0  0  0
  6 20  1  0  0  0  0
  7 14  1  0  0  0  0
  7 20  2  0  0  0  0
  8 22  1  0  0  0  0
  9 24  1  0  0  0  0
 10 15  2  0  0  0  0
 10 23  1  0  0  0  0
 11 26  1  0  0  0  0
 12 26  2  0  0  0  0
 13 27  1  0  0  0  0
 14 27  2  0  0  0  0
 15 28  1  0  0  0  0
 16 17  2  0  0  0  0
 16 29  1  0  0  0  0
 17 30  1  0  0  0  0
 18 25  1  0  0  0  0
 18 28  2  0  0  0  0
 19 30  2  0  0  0  0
 19 31  1  0  0  0  0
 20 32  1  0  0  0  0
 21 32  1  0  0  0  0
 21 33  2  0  0  0  0
 21 34  1  0  0  0  0
 22 24  2  0  0  0  0
 22 39  1  0  0  0  0
 23 25  2  0  0  0  0
 23 40  1  0  0  0  0
 24 48  1  0  0  0  0
 25 41  1  0  0  0  0
 26 62  1  0  0  0  0
 27 84  1  0  0  0  0
 28 85  1  0  0  0  0
 29 31  2  0  0  0  0
 29 84  1  0  0  0  0
 30 86  1  0  0  0  0
 31 87  1  0  0  0  0
 32 67  2  0  0  0  0
 33 68  1  0  0  0  0
 33 71  1  0  0  0  0
 34 72  1  0  0  0  0
 34 78  2  0  0  0  0
 35 49  1  0  0  0  0
 35 73  1  0  0  0  0
 35 79  2  0  0  0  0
 36 63  1  0  0  0  0
 36 69  1  0  0  0  0
 36 80  2  0  0  0  0
 37 64  1  0  0  0  0
 37 74  1  0  0  0  0
 37 81  2  0  0  0  0
 38 70  1  0  0  0  0
 38 75  1  0  0  0  0
 38 82  2  0  0  0  0
 39 42  1  0  0  0  0
 40 49  1  0  0  0  0
 41 69  1  0  0  0  0
 42 44  1  0  0  0  0
 43 45  1  0  0  0  0
 43 46  1  0  0  0  0
 44 48  1  0  0  0  0
 45 50  1  0  0  0  0
 46 70  1  0  0  0  0
 47 50  1  0  0  0  0
 47 70  1  0  0  0  0
 48 73  1  0  0  0  0
 49 69  1  0  0  0  0
 50 68  1  0  0  0  0
 51 64  1  0  0  0  0
 52 66  1  0  0  0  0
 53 66  1  0  0  0  0
 54 66  1  0  0  0  0
 55 76  1  0  0  0  0
 56 57  1  0  0  0  0
 56 59  1  0  0  0  0
 57 65  1  0  0  0  0
 58 65  1  0  0  0  0
 58 75  1  0  0  0  0
 59 77  1  0  0  0  0
 60 61  1  0  0  0  0
 60 77  1  0  0  0  0
 61 85  1  0  0  0  0
 62 65  1  0  0  0  0
 62 83  1  0  0  0  0
 63 66  1  0  0  0  0
 63 74  1  0  0  0  0
 64 76  1  0  0  0  0
 67 68  1  0  0  0  0
M  CHG  2  76   1  77   1
M  ISO  4  38 100  61 101  75 100  85 101
M  END
> <Batch ID>
0003

> <Smiles>
CNC(C)C(=O)NC(C(=O)N1Cc2cc([101O:1][101CH2:1]CNCCCC(C[100NH:0][100C:0](=O)N3CCCC(n4nc(-c5ccc(Oc6ccc(F)cc6F)cc5)c(C(N)=O)c4N)C3)C(O)c3ccccc3)ccc2CC1C(=O)NC1CCCc2ccccc21)C(C)(C)C

> <Shape>
0.248

> <Color>
0.187

> <Negative vol penalty>
0.000

$$$$

  -OEChem-04042320203D

 75 82  0     1  0  0  0  0  0999 V2000
  -21.6576  -26.0082   22.2550 C   0  0  0  0  0  0  0  0  0  0  0  0
  -22.5356  -24.9529   22.0299 C   0  0  0  0  0  0  0  0  0  0  0  0
  -23.8221  -10.0103   22.1423 C   0  0  0  0  0  0  0  0  0  0  0  0
  -24.3934  -11.4271   24.0141 C   0  0  0  0  0  0  0  0  0  0  0  0
  -22.0394  -27.3110   21.9374 C   0  0  0  0  0  0  0  0  0  0  0  0
  -23.7956  -25.1996   21.4859 C   0  0  0  0  0  0  0  0  0  0  0  0
  -27.4742  -22.6745   23.8810 C   0  0  0  0  0  0  0  0  0  0  0  0
  -23.3018   -9.0598   23.0206 C   0  0  0  0  0  0  0  0  0  0  0  0
  -23.8731  -10.4766   24.8924 C   0  0  0  0  0  0  0  0  0  0  0  0
  -27.6174  -21.3207   23.5801 C   0  0  0  0  0  0  0  0  0  0  0  0
  -24.8491   -7.5351   26.2437 C   0  0  0  0  0  0  0  0  0  0  0  0
  -25.5983   -7.2219   27.3778 C   0  0  0  0  0  0  0  0  0  0  0  0
  -29.4494  -21.8491   22.1024 C   0  0  0  0  0  0  0  0  0  0  0  0
  -23.7739   -7.9504   28.7842 C   0  0  0  0  0  0  0  0  0  0  0  0
  -24.3679  -11.1940   22.6391 C   0  0  0  0  0  0  0  0  0  0  0  0
  -24.2169  -13.2470   21.1323 C   0  0  0  0  0  0  0  0  0  0  0  0
  -23.3083  -27.5750   21.3982 C   0  0  0  0  0  0  0  0  0  0  0  0
  -28.3119  -23.6285   23.2855 C   0  0  0  0  0  0  0  0  0  0  0  0
  -24.1942  -26.5070   21.1594 C   0  0  0  0  0  0  0  0  0  0  0  0
  -29.3165  -23.2141   22.3994 C   0  0  0  0  0  0  0  0  0  0  0  0
  -23.3273   -9.2929   24.3956 C   0  0  0  0  0  0  0  0  0  0  0  0
  -28.6032  -20.9081   22.6885 C   0  0  0  0  0  0  0  0  0  0  0  0
  -23.5623   -8.0560   26.3798 C   0  0  0  0  0  0  0  0  0  0  0  0
  -25.0607   -7.4295   28.6481 C   0  0  0  0  0  0  0  0  0  0  0  0
  -23.0247   -8.2636   27.6500 C   0  0  0  0  0  0  0  0  0  0  0  0
  -24.9060  -12.1760   21.7323 C   0  0  0  0  0  0  0  0  0  0  0  0
  -25.1651  -13.8790   20.3656 C   0  0  0  0  0  0  0  0  0  0  0  0
  -22.8425  -13.6357   21.2570 C   0  0  0  0  0  0  0  0  0  0  0  0
  -27.8632  -26.1195   21.3628 C   0  0  0  0  0  0  0  0  0  0  0  0
  -31.0302  -26.5937   21.8798 C   0  0  0  0  0  0  0  0  0  0  0  0
  -34.0557  -25.2690   22.7393 C   0  0  0  0  0  0  0  0  0  0  0  0
  -31.1355  -14.1863   20.6987 C   0  0  0  0  0  0  0  0  0  0  0  0
  -23.6583  -28.9942   21.0268 C   0  0  0  0  0  0  0  0  0  0  0  0
  -28.1620  -25.0822   23.6411 C   0  0  0  0  0  0  0  0  0  0  0  0
  -30.2547  -24.1964   21.7488 C   0  0  0  0  0  0  0  0  0  0  0  0
  -25.1521  -29.2144   20.8024 C   0  0  0  0  0  0  0  0  0  0  0  0
  -29.2021  -13.0226   17.9448 C   0  0  0  0  0  0  0  0  0  0  0  0
  -25.7287  -28.1085   19.9240 C   0  0  0  0  0  0  0  0  0  0  0  0
  -27.8196  -12.7703   18.5491 C   0  0  0  0  0  0  0  0  0  0  0  0
  -30.3192  -12.6648   18.9225 C   0  0  0  0  0  0  0  0  0  0  0  0
  -28.8331  -13.0581   20.8488 C   0  0  0  0  0  0  0  0  0  0  0  0
  -25.5789  -26.7373   20.5939 C   0  0  1  0  0  0  0  0  0  0  0  0
  -28.7355  -26.0186   22.5820 C   0  0  1  0  0  0  0  0  0  0  0  0
  -27.6733  -13.4569   19.9203 C   0  0  2  0  0  0  0  0  0  0  0  0
  -36.4673  -25.8955   23.0376 C   0  0  0  0  0  0  0  0  0  0  0  0
  -31.3900  -26.6419   18.8502 C   0  0  0  0  0  0  0  0  0  0  0  0
  -33.8462  -26.3127   19.2065 C   0  0  0  0  0  0  0  0  0  0  0  0
  -32.7232  -28.3590   20.0866 C   0  0  0  0  0  0  0  0  0  0  0  0
  -34.0184  -24.5131   25.6005 C   0  0  0  0  0  0  0  0  0  0  0  0
  -31.6127  -17.1488   22.1275 C   0  0  0  0  0  0  0  0  0  0  0  0
  -30.2124  -17.6705   22.4514 C   0  0  0  0  0  0  0  0  0  0  0  0
  -31.8074  -15.6961   22.5503 C   0  0  0  0  0  0  0  0  0  0  0  0
  -30.0554  -19.1337   22.0572 C   0  0  0  0  0  0  0  0  0  1  0  0
  -32.3032  -26.1339   21.2112 C   0  0  1  0  0  0  0  0  0  0  0  0
  -35.1174  -25.7346   23.7193 C   0  0  2  0  0  0  0  0  0  0  0  0
  -32.5469  -26.8433   19.8492 C   0  0  0  0  0  0  0  0  0  0  0  0
  -26.1927  -12.1272   21.3772 N   0  0  0  0  0  0  0  0  0  0  0  0
  -26.3196  -13.1754   20.5457 N   0  0  0  0  0  0  0  0  0  0  0  0
  -30.0641  -25.6073   22.1236 N   0  0  0  0  0  0  0  0  0  0  0  0
  -30.1222  -13.3497   20.2023 N   0  0  0  0  0  0  0  0  0  0  0  0
  -25.1157  -14.9623   19.5616 N   0  0  0  0  0  0  0  0  0  0  0  0
  -22.0059  -12.8763   22.0863 N   0  0  0  0  0  0  0  0  0  0  0  0
  -26.5815  -26.5654   21.6233 N   0  0  0  0  0  0  0  0  0  0  0  0
  -33.3704  -26.3301   22.1864 N   0  0  0  0  0  0  0  0  0  0  0  0
  -30.8653  -14.8020   21.9147 N   0  0  0  0  0  0  0  0  0  0  0  0
  -35.2654  -24.7508   24.8288 N   0  3  0  0  0  0  0  0  0  0  0  0
  -22.3663  -14.6175   20.6382 O   0  0  0  0  0  0  0  0  0  0  0  0
  -28.3196  -25.8167   20.2665 O   0  0  0  0  0  0  0  0  0  0  0  0
  -30.9009  -27.7828   22.1813 O   0  0  0  0  0  0  0  0  0  0  0  0
  -33.8568  -24.0828   22.4866 O   0  0  0  0  0  0  0  0  0  0  0  0
  -32.1998  -14.3751   20.0998 O   0  0  0  0  0  0  0  0  0  0  0  0
  -22.8195   -8.3657   25.2529 O   0  0  0  0  0  0  0  0  0  0  0  0
  -28.7447  -19.5874   22.3925 O   0  0  0  0  0  0  0  0  0  1  0  0
  -25.7797   -7.1273   29.7370 F   0  0  0  0  0  0  0  0  0  0  0  0
  -21.7886   -8.7626   27.7871 F   0  0  0  0  0  0  0  0  0  0  0  0
  1  2  1  0  0  0  0
  1  5  2  0  0  0  0
  2  6  2  0  0  0  0
  3  8  2  0  0  0  0
  3 15  1  0  0  0  0
  4  9  1  0  0  0  0
  4 15  2  0  0  0  0
  5 17  1  0  0  0  0
  6 19  1  0  0  0  0
  7 10  2  0  0  0  0
  7 18  1  0  0  0  0
  8 21  1  0  0  0  0
  9 21  2  0  0  0  0
 10 22  1  0  0  0  0
 11 12  2  0  0  0  0
 11 23  1  0  0  0  0
 12 24  1  0  0  0  0
 13 20  1  0  0  0  0
 13 22  2  0  0  0  0
 14 24  2  0  0  0  0
 14 25  1  0  0  0  0
 15 26  1  0  0  0  0
 16 26  1  0  0  0  0
 16 27  2  0  0  0  0
 16 28  1  0  0  0  0
 17 19  2  0  0  0  0
 17 33  1  0  0  0  0
 18 20  2  0  0  0  0
 18 34  1  0  0  0  0
 19 42  1  0  0  0  0
 20 35  1  0  0  0  0
 21 72  1  0  0  0  0
 22 73  1  0  0  0  0
 23 25  2  0  0  0  0
 23 72  1  0  0  0  0
 24 74  1  0  0  0  0
 25 75  1  0  0  0  0
 26 57  2  0  0  0  0
 27 58  1  0  0  0  0
 27 61  1  0  0  0  0
 28 62  1  0  0  0  0
 28 67  2  0  0  0  0
 29 43  1  0  0  0  0
 29 63  1  0  0  0  0
 29 68  2  0  0  0  0
 30 54  1  0  0  0  0
 30 59  1  0  0  0  0
 30 69  2  0  0  0  0
 31 55  1  0  0  0  0
 31 64  1  0  0  0  0
 31 70  2  0  0  0  0
 32 60  1  0  0  0  0
 32 65  1  0  0  0  0
 32 71  2  0  0  0  0
 33 36  1  0  0  0  0
 34 43  1  0  0  0  0
 35 59  1  0  0  0  0
 36 38  1  0  0  0  0
 37 39  1  0  0  0  0
 37 40  1  0  0  0  0
 38 42  1  0  0  0  0
 39 44  1  0  0  0  0
 40 60  1  0  0  0  0
 41 44  1  0  0  0  0
 41 60  1  0  0  0  0
 42 63  1  0  0  0  0
 43 59  1  0  0  0  0
 44 58  1  0  0  0  0
 45 55  1  0  0  0  0
 46 56  1  0  0  0  0
 47 56  1  0  0  0  0
 48 56  1  0  0  0  0
 49 66  1  0  0  0  0
 50 51  1  0  0  0  0
 50 52  1  0  0  0  0
 51 53  1  0  0  0  0
 52 65  1  0  0  0  0
 53 73  1  0  0  0  0
 54 56  1  0  0  0  0
 54 64  1  0  0  0  0
 55 66  1  0  0  0  0
 57 58  1  0  0  0  0
M  CHG  1  66   1
M  ISO  4  32 100  53 101  65 100  73 101
M  END
> <Batch ID>
0003

> <Smiles>
CNC(C)C(=O)NC(C(=O)N1Cc2cc([101O:1][101CH2:1]CCC[100NH:0][100C:0](=O)N3CCCC(n4nc(-c5ccc(Oc6ccc(F)cc6F)cc5)c(C(N)=O)c4N)C3)ccc2CC1C(=O)NC1CCCc2ccccc21)C(C)(C)C

> <Shape>
0.193

> <Color>
0.131

> <Negative vol penalty>
0.000

$$$$

  -OEChem-04042320203D

 79 87  0     1  0  0  0  0  0999 V2000
  -28.2431  -34.7706   26.1391 C   0  0  0  0  0  0  0  0  0  0  0  0
  -28.5044  -34.0231   24.9952 C   0  0  0  0  0  0  0  0  0  0  0  0
  -26.4723  -13.7334   21.8070 C   0  0  0  0  0  0  0  0  0  0  0  0
  -26.3944  -12.5564   19.6986 C   0  0  0  0  0  0  0  0  0  0  0  0
  -27.4526  -34.2348   27.1550 C   0  0  0  0  0  0  0  0  0  0  0  0
  -27.9763  -32.7389   24.8671 C   0  0  0  0  0  0  0  0  0  0  0  0
  -26.0719  -30.0391   19.7106 C   0  0  0  0  0  0  0  0  0  0  0  0
  -25.2087  -13.2387   22.1299 C   0  0  0  0  0  0  0  0  0  0  0  0
  -25.1309  -12.0616   20.0215 C   0  0  0  0  0  0  0  0  0  0  0  0
  -26.6811  -29.1286   18.8483 C   0  0  0  0  0  0  0  0  0  0  0  0
  -23.8372   -9.6067   21.9504 C   0  0  0  0  0  0  0  0  0  0  0  0
  -23.5927   -8.2540   21.7140 C   0  0  0  0  0  0  0  0  0  0  0  0
  -25.5749  -27.3151   19.9912 C   0  0  0  0  0  0  0  0  0  0  0  0
  -21.7954   -8.8417   20.2102 C   0  0  0  0  0  0  0  0  0  0  0  0
  -27.0651  -13.3923   20.5913 C   0  0  0  0  0  0  0  0  0  0  0  0
  -29.6143  -13.3099   20.5422 C   0  0  0  0  0  0  0  0  0  0  0  0
  -26.9066  -32.9472   27.0350 C   0  0  0  0  0  0  0  0  0  0  0  0
  -25.2166  -29.5928   20.7283 C   0  0  0  0  0  0  0  0  0  0  0  0
  -27.1789  -32.1849   25.8829 C   0  0  0  0  0  0  0  0  0  0  0  0
  -24.9540  -28.2221   20.8635 C   0  0  0  0  0  0  0  0  0  0  0  0
  -24.5380  -12.4027   21.2372 C   0  0  0  0  0  0  0  0  0  0  0  0
  -26.4350  -27.7662   18.9903 C   0  0  0  0  0  0  0  0  0  0  0  0
  -23.0607  -10.5770   21.3168 C   0  0  0  0  0  0  0  0  0  0  0  0
  -22.5719   -7.8715   20.8439 C   0  0  0  0  0  0  0  0  0  0  0  0
  -22.0398  -10.1944   20.4467 C   0  0  0  0  0  0  0  0  0  0  0  0
  -28.3701  -13.9035   20.2570 C   0  0  0  0  0  0  0  0  0  0  0  0
  -30.5384  -14.1819   20.0203 C   0  0  0  0  0  0  0  0  0  0  0  0
  -29.9085  -12.0803   21.2183 C   0  0  0  0  0  0  0  0  0  0  0  0
  -25.2401  -29.7404   23.9034 C   0  0  0  0  0  0  0  0  0  0  0  0
  -22.2875  -28.4324   23.5974 C   0  0  0  0  0  0  0  0  0  0  0  0
  -20.1113  -26.6012   21.7113 C   0  0  0  0  0  0  0  0  0  0  0  0
  -30.5700  -19.8786   19.0427 C   0  0  0  0  0  0  0  0  0  0  0  0
  -26.0971  -32.3923   28.1802 C   0  0  0  0  0  0  0  0  0  0  0  0
  -24.5463  -30.5898   21.6334 C   0  0  0  0  0  0  0  0  0  0  0  0
  -24.0280  -27.6932   21.9271 C   0  0  0  0  0  0  0  0  0  0  0  0
  -25.2664  -31.1686   27.8024 C   0  0  0  0  0  0  0  0  0  0  0  0
  -31.0921  -17.4400   16.5679 C   0  0  0  0  0  0  0  0  0  0  0  0
  -26.1092  -30.1759   27.0078 C   0  0  0  0  0  0  0  0  0  0  0  0
  -30.5695  -16.1842   17.2648 C   0  0  0  0  0  0  0  0  0  0  0  0
  -30.2128  -18.6598   16.8490 C   0  0  0  0  0  0  0  0  0  0  0  0
  -29.9742  -21.5728   17.2540 C   0  0  0  0  0  0  0  0  0  0  0  0
  -31.6523  -22.1044   18.9829 C   0  0  0  0  0  0  0  0  0  0  0  0
  -29.4654  -17.6624   18.9858 C   0  0  0  0  0  0  0  0  0  0  0  0
  -29.1558  -22.7945   17.6592 C   0  0  0  0  0  0  0  0  0  0  0  0
  -30.8500  -23.3156   19.4299 C   0  0  0  0  0  0  0  0  0  0  0  0
  -26.6036  -30.7978   25.6962 C   0  0  1  0  0  0  0  0  0  0  0  0
  -24.0967  -29.9848   22.9598 C   0  0  1  0  0  0  0  0  0  0  0  0
  -30.3616  -16.4334   18.7692 C   0  0  1  0  0  0  0  0  0  0  0  0
  -17.7832  -25.6651   21.7421 C   0  0  0  0  0  0  0  0  0  0  0  0
  -23.1972  -26.2397   25.5142 C   0  0  0  0  0  0  0  0  0  0  0  0
  -21.2356  -24.8729   24.7711 C   0  0  0  0  0  0  0  0  0  0  0  0
  -20.8688  -27.0653   25.9031 C   0  0  0  0  0  0  0  0  0  0  0  0
  -19.3265  -28.1646   19.3240 C   0  0  0  0  0  0  0  0  0  0  0  0
  -29.1044  -25.9579   17.3613 C   0  0  0  0  0  0  0  0  0  0  0  0
  -29.3157  -25.0999   18.5996 C   0  0  0  0  0  0  0  0  0  0  0  0
  -28.3068  -27.2292   17.6251 C   0  0  0  0  0  0  0  0  0  1  0  0
  -21.7429  -27.0260   23.5311 C   0  0  1  0  0  0  0  0  0  0  0  0
  -18.6604  -26.8380   21.3329 C   0  0  2  0  0  0  0  0  0  0  0  0
  -21.7801  -26.3105   24.9110 C   0  0  0  0  0  0  0  0  0  0  0  0
  -28.4894  -15.0630   19.6047 N   0  0  0  0  0  0  0  0  0  0  0  0
  -29.8195  -15.2050   19.4758 N   0  0  0  0  0  0  0  0  0  0  0  0
  -23.4015  -28.7071   22.7915 N   0  0  0  0  0  0  0  0  0  0  0  0
  -30.0092  -18.8331   18.2941 N   0  0  0  0  0  0  0  0  0  0  0  0
  -30.7907  -21.0926   18.3754 N   0  0  0  0  0  0  0  0  0  0  0  0
  -31.8876  -14.1655   19.9788 N   0  0  0  0  0  0  0  0  0  0  0  0
  -28.8404  -11.3057   21.6910 N   0  0  0  0  0  0  0  0  0  0  0  0
  -25.5405  -30.8182   24.7143 N   0  0  0  0  0  0  0  0  0  0  0  0
  -20.4095  -27.1317   22.9486 N   0  0  0  0  0  0  0  0  0  0  0  0
  -30.0650  -23.8441   18.2520 N   0  3  0  0  0  0  0  0  0  0  0  0
  -18.5336  -27.0284   19.8602 N   0  3  0  0  0  0  0  0  0  0  0  0
  -31.0842  -11.6884   21.4124 O   0  0  0  0  0  0  0  0  0  0  0  0
  -25.8069  -28.6539   23.8974 O   0  0  0  0  0  0  0  0  0  0  0  0
  -21.7403  -29.2589   24.3316 O   0  0  0  0  0  0  0  0  0  0  0  0
  -20.9002  -26.0021   20.9838 O   0  0  0  0  0  0  0  0  0  0  0  0
  -30.8563  -19.7359   20.2381 O   0  0  0  0  0  0  0  0  0  0  0  0
  -23.3052  -11.9196   21.5520 O   0  0  0  0  0  0  0  0  0  0  0  0
  -27.0330  -26.8690   18.1445 O   0  0  0  0  0  0  0  0  0  1  0  0
  -22.3382   -6.5724   20.6157 F   0  0  0  0  0  0  0  0  0  0  0  0
  -21.2913  -11.1220   19.8342 F   0  0  0  0  0  0  0  0  0  0  0  0
  1  2  1  0  0  0  0
  1  5  2  0  0  0  0
  2  6  2  0  0  0  0
  3  8  2  0  0  0  0
  3 15  1  0  0  0  0
  4  9  1  0  0  0  0
  4 15  2  0  0  0  0
  5 17  1  0  0  0  0
  6 19  1  0  0  0  0
  7 10  2  0  0  0  0
  7 18  1  0  0  0  0
  8 21  1  0  0  0  0
  9 21  2  0  0  0  0
 10 22  1  0  0  0  0
 11 12  2  0  0  0  0
 11 23  1  0  0  0  0
 12 24  1  0  0  0  0
 13 20  1  0  0  0  0
 13 22  2  0  0  0  0
 14 24  2  0  0  0  0
 14 25  1  0  0  0  0
 15 26  1  0  0  0  0
 16 26  1  0  0  0  0
 16 27  2  0  0  0  0
 16 28  1  0  0  0  0
 17 19  2  0  0  0  0
 17 33  1  0  0  0  0
 18 20  2  0  0  0  0
 18 34  1  0  0  0  0
 19 46  1  0  0  0  0
 20 35  1  0  0  0  0
 21 76  1  0  0  0  0
 22 77  1  0  0  0  0
 23 25  2  0  0  0  0
 23 76  1  0  0  0  0
 24 78  1  0  0  0  0
 25 79  1  0  0  0  0
 26 60  2  0  0  0  0
 27 61  1  0  0  0  0
 27 65  1  0  0  0  0
 28 66  1  0  0  0  0
 28 71  2  0  0  0  0
 29 47  1  0  0  0  0
 29 67  1  0  0  0  0
 29 72  2  0  0  0  0
 30 57  1  0  0  0  0
 30 62  1  0  0  0  0
 30 73  2  0  0  0  0
 31 58  1  0  0  0  0
 31 68  1  0  0  0  0
 31 74  2  0  0  0  0
 32 63  1  0  0  0  0
 32 64  1  0  0  0  0
 32 75  2  0  0  0  0
 33 36  1  0  0  0  0
 34 47  1  0  0  0  0
 35 62  1  0  0  0  0
 36 38  1  0  0  0  0
 37 39  1  0  0  0  0
 37 40  1  0  0  0  0
 38 46  1  0  0  0  0
 39 48  1  0  0  0  0
 40 63  1  0  0  0  0
 41 44  1  0  0  0  0
 41 64  1  0  0  0  0
 42 45  1  0  0  0  0
 42 64  1  0  0  0  0
 43 48  1  0  0  0  0
 43 63  1  0  0  0  0
 44 69  1  0  0  0  0
 45 69  1  0  0  0  0
 46 67  1  0  0  0  0
 47 62  1  0  0  0  0
 48 61  1  0  0  0  0
 49 58  1  0  0  0  0
 50 59  1  0  0  0  0
 51 59  1  0  0  0  0
 52 59  1  0  0  0  0
 53 70  1  0  0  0  0
 54 55  1  0  0  0  0
 54 56  1  0  0  0  0
 55 69  1  0  0  0  0
 56 77  1  0  0  0  0
 57 59  1  0  0  0  0
 57 68  1  0  0  0  0
 58 70  1  0  0  0  0
 60 61  1  0  0  0  0
M  CHG  2  69   1  70   1
M  ISO  4  32 100  56 101  64 100  77 101
M  END
> <Batch ID>
0003

> <Smiles>
CNC(C)C(=O)NC(C(=O)N1Cc2cc([101O:1][101CH2:1]CCN3CC[100N:0]([100C:0](=O)N4CCCC(n5nc(-c6ccc(Oc7ccc(F)cc7F)cc6)c(C(N)=O)c5N)C4)CC3)ccc2CC1C(=O)NC1CCCc2ccccc21)C(C)(C)C

> <Shape>
0.312

> <Color>
0.065

> <Negative vol penalty>
0.000

$$$$

  -OEChem-04042320203D

 82 90  0     1  0  0  0  0  0999 V2000
  -27.5095  -23.4483   18.3293 C   0  0  0  0  0  0  0  0  0  0  0  0
  -26.4307  -23.7745   19.1449 C   0  0  0  0  0  0  0  0  0  0  0  0
  -26.7034  -13.1660   20.0642 C   0  0  0  0  0  0  0  0  0  0  0  0
  -24.6179  -13.6471   21.1851 C   0  0  0  0  0  0  0  0  0  0  0  0
  -28.7371  -24.0835   18.5119 C   0  0  0  0  0  0  0  0  0  0  0  0
  -26.5792  -24.7354   20.1444 C   0  0  0  0  0  0  0  0  0  0  0  0
  -22.7120  -28.0017   20.2892 C   0  0  0  0  0  0  0  0  0  0  0  0
  -22.4256  -21.8347   25.2404 C   0  0  0  0  0  0  0  0  0  0  0  0
  -24.0597  -23.6104   25.1229 C   0  0  0  0  0  0  0  0  0  0  0  0
  -23.4201  -20.9003   24.9517 C   0  0  0  0  0  0  0  0  0  0  0  0
  -25.0543  -22.6759   24.8342 C   0  0  0  0  0  0  0  0  0  0  0  0
  -26.5356  -11.8080   20.3347 C   0  0  0  0  0  0  0  0  0  0  0  0
  -24.4501  -12.2891   21.4556 C   0  0  0  0  0  0  0  0  0  0  0  0
  -21.5331  -27.5664   20.8930 C   0  0  0  0  0  0  0  0  0  0  0  0
  -23.4360   -9.5267   19.7939 C   0  0  0  0  0  0  0  0  0  0  0  0
  -22.1756   -8.9735   19.5685 C   0  0  0  0  0  0  0  0  0  0  0  0
  -22.1310  -28.7564   22.9044 C   0  0  0  0  0  0  0  0  0  0  0  0
  -22.0301   -8.3551   21.8995 C   0  0  0  0  0  0  0  0  0  0  0  0
  -25.7446  -14.0856   20.4894 C   0  0  0  0  0  0  0  0  0  0  0  0
  -25.4697  -16.1916   19.0762 C   0  0  0  0  0  0  0  0  0  0  0  0
  -28.8981  -25.0597   19.5079 C   0  0  0  0  0  0  0  0  0  0  0  0
  -23.6160  -28.8101   20.9934 C   0  0  0  0  0  0  0  0  0  0  0  0
  -27.8105  -25.3834   20.3414 C   0  0  0  0  0  0  0  0  0  0  0  0
  -23.3194  -29.2027   22.3064 C   0  0  0  0  0  0  0  0  0  0  0  0
  -22.7454  -23.1898   25.3260 C   0  0  0  0  0  0  0  0  0  0  0  0
  -24.7344  -21.3209   24.7486 C   0  0  0  0  0  0  0  0  0  0  0  0
  -25.4089  -11.3695   21.0304 C   0  0  0  0  0  0  0  0  0  0  0  0
  -21.2439  -27.9413   22.2017 C   0  0  0  0  0  0  0  0  0  0  0  0
  -23.9936   -9.4941   21.0721 C   0  0  0  0  0  0  0  0  0  0  0  0
  -21.4726   -8.3877   20.6213 C   0  0  0  0  0  0  0  0  0  0  0  0
  -23.2906   -8.9083   22.1249 C   0  0  0  0  0  0  0  0  0  0  0  0
  -25.9176  -15.4886   20.2107 C   0  0  0  0  0  0  0  0  0  0  0  0
  -25.8813  -17.4846   19.2888 C   0  0  0  0  0  0  0  0  0  0  0  0
  -24.7463  -15.7181   17.9325 C   0  0  0  0  0  0  0  0  0  0  0  0
  -26.6362  -28.5031   21.9354 C   0  0  0  0  0  0  0  0  0  0  0  0
  -26.2561  -31.5919   22.8504 C   0  0  0  0  0  0  0  0  0  0  0  0
  -24.1337  -34.0998   23.7739 C   0  0  0  0  0  0  0  0  0  0  0  0
  -27.0977  -20.6217   24.2268 C   0  0  0  0  0  0  0  0  0  0  0  0
  -30.2572  -25.6851   19.6984 C   0  0  0  0  0  0  0  0  0  0  0  0
  -24.8705  -29.2933   20.3187 C   0  0  0  0  0  0  0  0  0  0  0  0
  -24.2471  -30.0860   23.0986 C   0  0  0  0  0  0  0  0  0  0  0  0
  -30.2285  -26.9616   20.5350 C   0  0  0  0  0  0  0  0  0  0  0  0
  -29.2987  -20.0119   21.4953 C   0  0  0  0  0  0  0  0  0  0  0  0
  -29.3793  -26.7608   21.7861 C   0  0  0  0  0  0  0  0  0  0  0  0
  -28.6375  -18.8507   20.7493 C   0  0  0  0  0  0  0  0  0  0  0  0
  -29.1330  -19.8815   23.0084 C   0  0  0  0  0  0  0  0  0  0  0  0
  -27.0894  -18.5359   22.7219 C   0  0  0  0  0  0  0  0  0  0  0  0
  -27.9254  -26.4383   21.4202 C   0  0  1  0  0  0  0  0  0  0  0  0
  -25.9645  -29.6902   21.3052 C   0  0  1  0  0  0  0  0  0  0  0  0
  -27.1738  -18.6572   21.1916 C   0  0  2  0  0  0  0  0  0  0  0  0
  -24.1204  -36.5023   24.4985 C   0  0  0  0  0  0  0  0  0  0  0  0
  -27.2219  -30.7588   25.6223 C   0  0  0  0  0  0  0  0  0  0  0  0
  -26.2991  -32.9087   26.5136 C   0  0  0  0  0  0  0  0  0  0  0  0
  -28.1267  -32.9465   24.8163 C   0  0  0  0  0  0  0  0  0  0  0  0
  -22.5048  -34.9150   21.4413 C   0  0  0  0  0  0  0  0  0  0  0  0
  -21.6755  -24.1948   25.6366 C   0  0  0  0  0  0  0  0  0  0  0  0
  -18.8144  -25.6288   23.5345 C   0  0  0  0  0  0  0  0  0  0  0  0
  -19.6683  -25.4051   24.7735 C   0  0  0  0  0  0  0  0  0  0  0  0
  -19.5731  -26.2574   22.3722 C   0  0  0  0  0  0  0  0  0  1  0  0
  -25.7914  -32.2848   24.1086 C   0  0  1  0  0  0  0  0  0  0  0  0
  -24.0242  -35.5446   23.3211 C   0  0  2  0  0  0  0  0  0  0  0  0
  -26.8430  -32.2064   25.2512 C   0  0  0  0  0  0  0  0  0  0  0  0
  -26.5643  -16.2703   21.0795 N   0  0  0  0  0  0  0  0  0  0  0  0
  -26.5259  -17.4777   20.4908 N   0  0  0  0  0  0  0  0  0  0  0  0
  -25.4641  -30.5274   22.3974 N   0  0  0  0  0  0  0  0  0  0  0  0
  -27.7206  -19.7054   23.3532 N   0  0  0  0  0  0  0  0  0  0  0  0
  -25.7512  -18.6154   18.5630 N   0  0  0  0  0  0  0  0  0  0  0  0
  -24.4027  -14.3605   17.8743 N   0  0  0  0  0  0  0  0  0  0  0  0
  -25.7450  -20.3719   24.4556 N   0  0  0  0  0  0  0  0  0  0  0  0
  -27.2239  -27.6420   21.0285 N   0  0  0  0  0  0  0  0  0  0  0  0
  -25.4339  -33.6441   23.7178 N   0  0  0  0  0  0  0  0  0  0  0  0
  -22.7224  -35.7746   22.6332 N   0  3  0  0  0  0  0  0  0  0  0  0
  -20.7751  -24.4642   24.4815 N   0  3  0  0  0  0  0  0  0  0  0  0
  -24.4287  -16.4730   16.9824 O   0  0  0  0  0  0  0  0  0  0  0  0
  -26.6236  -28.3785   23.1545 O   0  0  0  0  0  0  0  0  0  0  0  0
  -27.2801  -31.9855   22.2863 O   0  0  0  0  0  0  0  0  0  0  0  0
  -23.1635  -33.4424   24.1441 O   0  0  0  0  0  0  0  0  0  0  0  0
  -27.7119  -21.5747   24.7132 O   0  0  0  0  0  0  0  0  0  0  0  0
  -25.2447  -10.0444   21.2944 O   0  0  0  0  0  0  0  0  0  0  0  0
  -20.0942  -27.5173   22.7937 O   0  0  0  0  0  0  0  0  0  1  0  0
  -20.2616   -7.8579   20.4050 F   0  0  0  0  0  0  0  0  0  0  0  0
  -23.8206   -8.8750   23.3553 F   0  0  0  0  0  0  0  0  0  0  0  0
  1  2  1  0  0  0  0
  1  5  2  0  0  0  0
  2  6  2  0  0  0  0
  3 12  2  0  0  0  0
  3 19  1  0  0  0  0
  4 13  1  0  0  0  0
  4 19  2  0  0  0  0
  5 21  1  0  0  0  0
  6 23  1  0  0  0  0
  7 14  2  0  0  0  0
  7 22  1  0  0  0  0
  8 10  2  0  0  0  0
  8 25  1  0  0  0  0
  9 11  1  0  0  0  0
  9 25  2  0  0  0  0
 10 26  1  0  0  0  0
 11 26  2  0  0  0  0
 12 27  1  0  0  0  0
 13 27  2  0  0  0  0
 14 28  1  0  0  0  0
 15 16  2  0  0  0  0
 15 29  1  0  0  0  0
 16 30  1  0  0  0  0
 17 24  1  0  0  0  0
 17 28  2  0  0  0  0
 18 30  2  0  0  0  0
 18 31  1  0  0  0  0
 19 32  1  0  0  0  0
 20 32  1  0  0  0  0
 20 33  2  0  0  0  0
 20 34  1  0  0  0  0
 21 23  2  0  0  0  0
 21 39  1  0  0  0  0
 22 24  2  0  0  0  0
 22 40  1  0  0  0  0
 23 48  1  0  0  0  0
 24 41  1  0  0  0  0
 25 56  1  0  0  0  0
 26 69  1  0  0  0  0
 27 79  1  0  0  0  0
 28 80  1  0  0  0  0
 29 31  2  0  0  0  0
 29 79  1  0  0  0  0
 30 81  1  0  0  0  0
 31 82  1  0  0  0  0
 32 63  2  0  0  0  0
 33 64  1  0  0  0  0
 33 67  1  0  0  0  0
 34 68  1  0  0  0  0
 34 74  2  0  0  0  0
 35 49  1  0  0  0  0
 35 70  1  0  0  0  0
 35 75  2  0  0  0  0
 36 60  1  0  0  0  0
 36 65  1  0  0  0  0
 36 76  2  0  0  0  0
 37 61  1  0  0  0  0
 37 71  1  0  0  0  0
 37 77  2  0  0  0  0
 38 66  1  0  0  0  0
 38 69  1  0  0  0  0
 38 78  2  0  0  0  0
 39 42  1  0  0  0  0
 40 49  1  0  0  0  0
 41 65  1  0  0  0  0
 42 44  1  0  0  0  0
 43 45  1  0  0  0  0
 43 46  1  0  0  0  0
 44 48  1  0  0  0  0
 45 50  1  0  0  0  0
 46 66  1  0  0  0  0
 47 50  1  0  0  0  0
 47 66  1  0  0  0  0
 48 70  1  0  0  0  0
 49 65  1  0  0  0  0
 50 64  1  0  0  0  0
 51 61  1  0  0  0  0
 52 62  1  0  0  0  0
 53 62  1  0  0  0  0
 54 62  1  0  0  0  0
 55 72  1  0  0  0  0
 56 73  1  0  0  0  0
 57 58  1  0  0  0  0
 57 59  1  0  0  0  0
 58 73  1  0  0  0  0
 59 80  1  0  0  0  0
 60 62  1  0  0  0  0
 60 71  1  0  0  0  0
 61 72  1  0  0  0  0
 63 64  1  0  0  0  0
M  CHG  2  72   1  73   1
M  ISO  4  38 100  59 101  69 100  80 101
M  END
> <Batch ID>
0003

> <Smiles>
CNC(C)C(=O)NC(C(=O)N1Cc2cc([101O:1][101CH2:1]CCNCc3ccc([100NH:0][100C:0](=O)N4CCCC(n5nc(-c6ccc(Oc7ccc(F)cc7F)cc6)c(C(N)=O)c5N)C4)cc3)ccc2CC1C(=O)NC1CCCc2ccccc21)C(C)(C)C

> <Shape>
0.281

> <Color>
0.063

> <Negative vol penalty>
0.000

$$$$

  -OEChem-04042320203D

 88 98  0     1  0  0  0  0  0999 V2000
  -22.8132   -8.5318   21.8039 C   0  0  0  0  0  0  0  0  0  0  0  0
  -23.7611   -9.3230   22.4449 C   0  0  0  0  0  0  0  0  0  0  0  0
  -24.7318  -30.1753   20.3734 C   0  0  0  0  0  0  0  0  0  0  0  0
  -24.4324  -28.4862   22.0746 C   0  0  0  0  0  0  0  0  0  0  0  0
  -22.2742   -8.9414   20.5850 C   0  0  0  0  0  0  0  0  0  0  0  0
  -24.1715  -10.5238   21.8668 C   0  0  0  0  0  0  0  0  0  0  0  0
  -26.3538  -17.1133   23.6366 C   0  0  0  0  0  0  0  0  0  0  0  0
  -28.5883  -21.6409   18.1256 C   0  0  0  0  0  0  0  0  0  0  0  0
  -29.3300  -21.2654   19.2505 C   0  0  0  0  0  0  0  0  0  0  0  0
  -24.3349  -31.1585   21.2797 C   0  0  0  0  0  0  0  0  0  0  0  0
  -24.0356  -29.4694   22.9810 C   0  0  0  0  0  0  0  0  0  0  0  0
  -27.3947  -18.0065   23.3869 C   0  0  0  0  0  0  0  0  0  0  0  0
  -25.7023  -32.8697   23.8555 C   0  0  0  0  0  0  0  0  0  0  0  0
  -26.4575  -34.0410   23.9132 C   0  0  0  0  0  0  0  0  0  0  0  0
  -28.9969  -19.4879   17.0807 C   0  0  0  0  0  0  0  0  0  0  0  0
  -26.3365  -18.6516   21.3173 C   0  0  0  0  0  0  0  0  0  0  0  0
  -24.5053  -35.3296   23.3087 C   0  0  0  0  0  0  0  0  0  0  0  0
  -24.7804  -28.8391   20.7708 C   0  0  0  0  0  0  0  0  0  0  0  0
  -26.4981  -27.3576   19.6035 C   0  0  0  0  0  0  0  0  0  0  0  0
  -22.6710  -10.1525   19.9964 C   0  0  0  0  0  0  0  0  0  0  0  0
  -25.3001  -16.9744   22.7217 C   0  0  0  0  0  0  0  0  0  0  0  0
  -23.6383  -10.9493   20.6383 C   0  0  0  0  0  0  0  0  0  0  0  0
  -29.7202  -19.1287   18.2053 C   0  0  0  0  0  0  0  0  0  0  0  0
  -25.2821  -17.7578   21.5590 C   0  0  0  0  0  0  0  0  0  0  0  0
  -28.4233  -20.7583   17.0481 C   0  0  0  0  0  0  0  0  0  0  0  0
  -29.8962  -20.0006   19.2875 C   0  0  0  0  0  0  0  0  0  0  0  0
  -23.9869  -30.8056   22.5835 C   0  0  0  0  0  0  0  0  0  0  0  0
  -27.3877  -18.7738   22.2257 C   0  0  0  0  0  0  0  0  0  0  0  0
  -24.3485  -32.9284   23.5243 C   0  0  0  0  0  0  0  0  0  0  0  0
  -25.8591  -35.2709   23.6399 C   0  0  0  0  0  0  0  0  0  0  0  0
  -23.7501  -34.1583   23.2509 C   0  0  0  0  0  0  0  0  0  0  0  0
  -25.1897  -27.8229   19.8349 C   0  0  0  0  0  0  0  0  0  0  0  0
  -26.3547  -26.4003   18.6290 C   0  0  0  0  0  0  0  0  0  0  0  0
  -27.7326  -27.7551   20.2148 C   0  0  0  0  0  0  0  0  0  0  0  0
  -24.1719  -14.5927   20.9446 C   0  0  0  0  0  0  0  0  0  0  0  0
  -21.8368  -16.7347   20.2508 C   0  0  0  0  0  0  0  0  0  0  0  0
  -20.8726  -20.0013   20.0357 C   0  0  0  0  0  0  0  0  0  0  0  0
  -23.6781  -21.9945   16.4912 C   0  0  0  0  0  0  0  0  0  0  0  0
  -22.0953  -10.5304   18.6547 C   0  0  0  0  0  0  0  0  0  0  0  0
  -24.1712  -16.0259   23.0187 C   0  0  0  0  0  0  0  0  0  0  0  0
  -30.4518  -17.8525   18.4706 C   0  0  0  0  0  0  0  0  0  0  0  0
  -24.1638  -17.6609   20.5547 C   0  0  0  0  0  0  0  0  0  0  0  0
  -22.3069  -11.9983   18.2927 C   0  0  0  0  0  0  0  0  0  0  0  0
  -22.3798  -25.2215   15.7313 C   0  0  0  0  0  0  0  0  0  0  0  0
  -23.7489  -12.4132   18.5669 C   0  0  0  0  0  0  0  0  0  0  0  0
  -28.1141  -22.1494   13.4720 C   0  0  0  0  0  0  0  0  0  0  0  0
  -29.2979  -22.4990   14.3299 C   0  0  0  0  0  0  0  0  0  0  0  0
  -23.0981  -26.1460   16.7159 C   0  0  0  0  0  0  0  0  0  0  0  0
  -30.7797  -18.0005   19.9702 C   0  0  0  0  0  0  0  0  0  0  0  0
  -22.0611  -23.8665   16.3593 C   0  0  0  0  0  0  0  0  0  0  0  0
  -23.9360  -24.0982   17.9420 C   0  0  0  0  0  0  0  0  0  0  0  0
  -24.0906  -12.2704   20.0550 C   0  0  1  0  0  0  0  0  0  0  0  0
  -23.4110  -15.5920   21.7692 C   0  0  1  0  0  0  0  0  0  0  0  0
  -28.5008  -21.2573   14.6190 C   0  0  0  0  0  0  0  0  0  0  0  0
  -24.3282  -25.4569   17.3366 C   0  0  2  0  0  0  0  0  0  0  0  0
  -18.9166  -21.4403   19.4026 C   0  0  0  0  0  0  0  0  0  0  0  0
  -22.4241  -16.2303   17.2994 C   0  0  0  0  0  0  0  0  0  0  0  0
  -21.1613  -18.3242   16.7620 C   0  0  0  0  0  0  0  0  0  0  0  0
  -19.9945  -16.4140   17.8630 C   0  0  0  0  0  0  0  0  0  0  0  0
  -20.6894  -21.1512   22.7566 C   0  0  0  0  0  0  0  0  0  0  0  0
  -26.3797  -20.2926   15.5670 C   0  0  0  0  0  0  0  0  0  0  0  0
  -30.7665  -19.9299   21.6292 C   0  0  0  0  0  0  0  0  0  0  0  0
  -25.3870  -20.2102   16.7260 C   0  0  0  0  0  0  0  0  0  0  0  0
  -29.6876  -19.3118   22.5026 C   0  0  0  0  0  0  0  0  0  1  0  0
  -27.6242  -21.1815   15.8612 C   0  0  1  0  0  0  0  0  0  0  0  0
  -21.6390  -17.7964   19.1960 C   0  0  1  0  0  0  0  0  0  0  0  0
  -19.6324  -20.7205   20.5350 C   0  0  2  0  0  0  0  0  0  0  0  0
  -21.3269  -17.1919   17.7979 C   0  0  0  0  0  0  0  0  0  0  0  0
  -24.2821  -27.2116   19.0690 N   0  0  0  0  0  0  0  0  0  0  0  0
  -25.0212  -26.3525   18.3468 N   0  0  0  0  0  0  0  0  0  0  0  0
  -30.6716  -19.4238   20.2835 N   0  0  2  0  0  0  0  0  0  0  0  0
  -23.0861  -16.7146   20.8870 N   0  0  0  0  0  0  0  0  0  0  0  0
  -23.2700  -23.2656   16.9280 N   0  0  0  0  0  0  0  0  0  0  0  0
  -27.2405  -25.6033   17.9946 N   0  0  0  0  0  0  0  0  0  0  0  0
  -27.7001  -28.7528   21.1986 N   0  0  0  0  0  0  0  0  0  0  0  0
  -23.5353  -13.3737   20.8092 N   0  0  0  0  0  0  0  0  0  0  0  0
  -20.6042  -18.6899   19.7051 N   0  0  0  0  0  0  0  0  0  0  0  0
  -24.8377  -21.5010   17.0766 N   0  0  0  0  0  0  0  0  0  0  0  0
  -19.9987  -21.7249   21.5731 N   0  3  0  0  0  0  0  0  0  0  0  0
  -28.8339  -27.2524   19.8863 O   0  0  0  0  0  0  0  0  0  0  0  0
  -25.2556  -14.9049   20.4653 O   0  0  0  0  0  0  0  0  0  0  0  0
  -20.9143  -15.9566   20.5061 O   0  0  0  0  0  0  0  0  0  0  0  0
  -21.9689  -20.5493   19.9444 O   0  0  0  0  0  0  0  0  0  0  0  0
  -23.0583  -21.3498   15.6386 O   0  0  0  0  0  0  0  0  0  0  0  0
  -23.5998  -31.7648   23.4682 O   0  0  0  0  0  0  0  0  0  0  0  0
  -28.4028  -19.6459   21.9792 O   0  0  0  0  0  0  0  0  0  1  0  0
  -26.5841  -36.3957   23.6968 F   0  0  0  0  0  0  0  0  0  0  0  0
  -22.4497  -34.2211   22.9334 F   0  0  0  0  0  0  0  0  0  0  0  0
  1  2  1  0  0  0  0
  1  5  2  0  0  0  0
  2  6  2  0  0  0  0
  3 10  2  0  0  0  0
  3 18  1  0  0  0  0
  4 11  1  0  0  0  0
  4 18  2  0  0  0  0
  5 20  1  0  0  0  0
  6 22  1  0  0  0  0
  7 12  2  0  0  0  0
  7 21  1  0  0  0  0
  8  9  2  0  0  0  0
  8 25  1  0  0  0  0
  9 26  1  0  0  0  0
 10 27  1  0  0  0  0
 11 27  2  0  0  0  0
 12 28  1  0  0  0  0
 13 14  2  0  0  0  0
 13 29  1  0  0  0  0
 14 30  1  0  0  0  0
 15 23  1  0  0  0  0
 15 25  2  0  0  0  0
 16 24  1  0  0  0  0
 16 28  2  0  0  0  0
 17 30  2  0  0  0  0
 17 31  1  0  0  0  0
 18 32  1  0  0  0  0
 19 32  1  0  0  0  0
 19 33  2  0  0  0  0
 19 34  1  0  0  0  0
 20 22  2  0  0  0  0
 20 39  1  0  0  0  0
 21 24  2  0  0  0  0
 21 40  1  0  0  0  0
 22 52  1  0  0  0  0
 23 26  2  0  0  0  0
 23 41  1  0  0  0  0
 24 42  1  0  0  0  0
 25 65  1  0  0  0  0
 26 71  1  0  0  0  0
 27 85  1  0  0  0  0
 28 86  1  0  0  0  0
 29 31  2  0  0  0  0
 29 85  1  0  0  0  0
 30 87  1  0  0  0  0
 31 88  1  0  0  0  0
 32 69  2  0  0  0  0
 33 70  1  0  0  0  0
 33 74  1  0  0  0  0
 34 75  1  0  0  0  0
 34 80  2  0  0  0  0
 35 53  1  0  0  0  0
 35 76  1  0  0  0  0
 35 81  2  0  0  0  0
 36 66  1  0  0  0  0
 36 72  1  0  0  0  0
 36 82  2  0  0  0  0
 37 67  1  0  0  0  0
 37 77  1  0  0  0  0
 37 83  2  0  0  0  0
 38 73  1  0  0  0  0
 38 78  1  0  0  0  0
 38 84  2  0  0  0  0
 39 43  1  0  0  0  0
 40 53  1  0  0  0  0
 41 49  1  0  0  0  0
 42 72  1  0  0  0  0
 43 45  1  0  0  0  0
 44 48  1  0  0  0  0
 44 50  1  0  0  0  0
 45 52  1  0  0  0  0
 46 47  1  0  0  0  0
 46 54  1  0  0  0  0
 47 54  1  0  0  0  0
 48 55  1  0  0  0  0
 49 71  1  0  0  0  0
 50 73  1  0  0  0  0
 51 55  1  0  0  0  0
 51 73  1  0  0  0  0
 52 76  1  0  0  0  0
 53 72  1  0  0  0  0
 54 65  1  0  0  0  0
 55 70  1  0  0  0  0
 56 67  1  0  0  0  0
 57 68  1  0  0  0  0
 58 68  1  0  0  0  0
 59 68  1  0  0  0  0
 60 79  1  0  0  0  0
 61 63  1  0  0  0  0
 61 65  1  0  0  0  0
 62 64  1  0  0  0  0
 62 71  1  0  0  0  0
 63 78  1  0  0  0  0
 64 86  1  0  0  0  0
 66 68  1  0  0  0  0
 66 77  1  0  0  0  0
 67 79  1  0  0  0  0
 69 70  1  0  0  0  0
M  CHG  1  79   1
M  ISO  4  38 100  64 101  78 100  86 101
M  END
> <Batch ID>
0003

> <Smiles>
CNC(C)C(=O)NC(C(=O)N1Cc2cc([101O:1][101CH2:1]CN3CCc4cc(C(CC[100NH:0][100C:0](=O)N5CCCC(n6nc(-c7ccc(Oc8ccc(F)cc8F)cc7)c(C(N)=O)c6N)C5)C5CC5)ccc43)ccc2CC1C(=O)NC1CCCc2ccccc21)C(C)(C)C

> <Shape>
0.200

> <Color>
0.072

> <Negative vol penalty>
0.000

$$$$

  -OEChem-04042320203D

 85 94  0     1  0  0  0  0  0999 V2000
  -25.4056  -36.2892   22.7114 C   0  0  0  0  0  0  0  0  0  0  0  0
  -26.2184  -35.6328   21.7929 C   0  0  0  0  0  0  0  0  0  0  0  0
  -26.2277  -20.7543   18.0754 C   0  0  0  0  0  0  0  0  0  0  0  0
  -22.2277  -13.1720   22.3576 C   0  0  0  0  0  0  0  0  0  0  0  0
  -23.8860  -12.5305   23.9933 C   0  0  0  0  0  0  0  0  0  0  0  0
  -27.2071  -21.7161   18.3227 C   0  0  0  0  0  0  0  0  0  0  0  0
  -25.0349  -35.6504   23.8940 C   0  0  0  0  0  0  0  0  0  0  0  0
  -26.6620  -34.3374   22.0568 C   0  0  0  0  0  0  0  0  0  0  0  0
  -28.3058  -28.2119   18.7263 C   0  0  0  0  0  0  0  0  0  0  0  0
  -26.4793  -19.4127   18.3628 C   0  0  0  0  0  0  0  0  0  0  0  0
  -21.2614  -13.2344   23.3617 C   0  0  0  0  0  0  0  0  0  0  0  0
  -22.9198  -12.5930   24.9974 C   0  0  0  0  0  0  0  0  0  0  0  0
  -29.3367  -27.2775   18.6370 C   0  0  0  0  0  0  0  0  0  0  0  0
  -19.3467  -11.0688   25.1133 C   0  0  0  0  0  0  0  0  0  0  0  0
  -18.1055  -10.4874   24.8543 C   0  0  0  0  0  0  0  0  0  0  0  0
  -28.6898  -19.9948   19.1448 C   0  0  0  0  0  0  0  0  0  0  0  0
  -28.5678  -26.2434   20.6763 C   0  0  0  0  0  0  0  0  0  0  0  0
  -17.0347  -12.6287   25.1794 C   0  0  0  0  0  0  0  0  0  0  0  0
  -23.5400  -12.8200   22.6734 C   0  0  0  0  0  0  0  0  0  0  0  0
  -28.4382  -21.3364   18.8574 C   0  0  0  0  0  0  0  0  0  0  0  0
  -24.5272  -11.9293   20.4964 C   0  0  0  0  0  0  0  0  0  0  0  0
  -25.4662  -34.3429   24.1681 C   0  0  0  0  0  0  0  0  0  0  0  0
  -27.4032  -28.1756   19.7989 C   0  0  0  0  0  0  0  0  0  0  0  0
  -26.2978  -33.6810   23.2448 C   0  0  0  0  0  0  0  0  0  0  0  0
  -27.5248  -27.1769   20.7755 C   0  0  0  0  0  0  0  0  0  0  0  0
  -27.7104  -19.0330   18.8975 C   0  0  0  0  0  0  0  0  0  0  0  0
  -21.6075  -12.9449   24.6815 C   0  0  0  0  0  0  0  0  0  0  0  0
  -29.4696  -26.2948   19.6136 C   0  0  0  0  0  0  0  0  0  0  0  0
  -19.4319  -12.4301   25.4054 C   0  0  0  0  0  0  0  0  0  0  0  0
  -16.9495  -11.2673   24.8873 C   0  0  0  0  0  0  0  0  0  0  0  0
  -18.2759  -13.2100   25.4385 C   0  0  0  0  0  0  0  0  0  0  0  0
  -24.5384  -12.7548   21.6366 C   0  0  0  0  0  0  0  0  0  0  0  0
  -25.6885  -12.2434   19.8337 C   0  0  0  0  0  0  0  0  0  0  0  0
  -29.4691  -22.3507   19.1175 C   0  0  0  0  0  0  0  0  0  0  0  0
  -23.5540  -10.9649   20.0739 C   0  0  0  0  0  0  0  0  0  0  0  0
  -26.6395  -30.1665   22.1562 C   0  0  0  0  0  0  0  0  0  0  0  0
  -24.3496  -27.9504   22.7625 C   0  0  0  0  0  0  0  0  0  0  0  0
  -23.3014  -24.7151   22.4785 C   0  0  0  0  0  0  0  0  0  0  0  0
  -29.1330  -17.1248   19.7228 C   0  0  0  0  0  0  0  0  0  0  0  0
  -25.0784  -33.7109   25.4815 C   0  0  0  0  0  0  0  0  0  0  0  0
  -26.2806  -29.1744   19.8665 C   0  0  0  0  0  0  0  0  0  0  0  0
  -26.5697  -27.0822   21.9362 C   0  0  0  0  0  0  0  0  0  0  0  0
  -25.2836  -32.1986   25.5138 C   0  0  0  0  0  0  0  0  0  0  0  0
  -30.1380  -13.8294   20.6215 C   0  0  0  0  0  0  0  0  0  0  0  0
  -31.4143  -22.7973   15.9785 C   0  0  0  0  0  0  0  0  0  0  0  0
  -26.6529  -31.8335   24.9496 C   0  0  0  0  0  0  0  0  0  0  0  0
  -28.8149  -13.1031   20.8741 C   0  0  0  0  0  0  0  0  0  0  0  0
  -32.3679  -23.3055   17.0549 C   0  0  0  0  0  0  0  0  0  0  0  0
  -30.3866  -22.0035   16.7692 C   0  0  0  0  0  0  0  0  0  0  0  0
  -30.0861  -15.2822   21.0909 C   0  0  0  0  0  0  0  0  0  0  0  0
  -27.6386  -15.3392   20.8154 C   0  0  0  0  0  0  0  0  0  0  0  0
  -26.7789  -32.2662   23.4839 C   0  0  1  0  0  0  0  0  0  0  0  0
  -25.7283  -29.3580   21.2767 C   0  0  1  0  0  0  0  0  0  0  0  0
  -27.6210  -13.8908   20.2999 C   0  0  2  0  0  0  0  0  0  0  0  0
  -31.4484  -23.5957   18.2428 C   0  0  1  0  0  0  0  0  0  0  0  0
  -21.4046  -23.1967   23.1061 C   0  0  0  0  0  0  0  0  0  0  0  0
  -25.3806  -27.8527   25.6326 C   0  0  0  0  0  0  0  0  0  0  0  0
  -24.1297  -25.7052   25.9350 C   0  0  0  0  0  0  0  0  0  0  0  0
  -22.8895  -27.8066   25.4168 C   0  0  0  0  0  0  0  0  0  0  0  0
  -22.6787  -24.1308   19.6449 C   0  0  0  0  0  0  0  0  0  0  0  0
  -30.9267  -25.0320   18.2215 C   0  0  0  0  0  0  0  0  0  1  0  0
  -24.2670  -26.7021   23.6073 C   0  0  1  0  0  0  0  0  0  0  0  0
  -21.9747  -24.1208   22.0413 C   0  0  2  0  0  0  0  0  0  0  0  0
  -24.1860  -27.0194   25.1272 C   0  0  0  0  0  0  0  0  0  0  0  0
  -25.6210  -13.5346   21.6980 N   0  0  0  0  0  0  0  0  0  0  0  0
  -26.3010  -13.2004   20.5881 N   0  0  0  0  0  0  0  0  0  0  0  0
  -30.3601  -22.6287   18.0903 N   0  0  0  0  0  0  0  0  0  0  0  0
  -25.4925  -28.0854   21.9615 N   0  0  0  0  0  0  0  0  0  0  0  0
  -28.9323  -15.9668   20.5035 N   0  0  0  0  0  0  0  0  0  0  0  0
  -26.2353  -11.7915   18.6851 N   0  0  0  0  0  0  0  0  0  0  0  0
  -22.4195  -10.7666   20.8726 N   0  0  0  0  0  0  0  0  0  0  0  0
  -27.9656  -17.6702   19.1896 N   0  0  0  0  0  0  0  0  0  0  0  0
  -26.0772  -31.3399   22.6213 N   0  0  0  0  0  0  0  0  0  0  0  0
  -23.1351  -25.9370   23.0955 N   0  0  0  0  0  0  0  0  0  0  0  0
  -22.1464  -23.3395   20.7839 N   0  3  0  0  0  0  0  0  0  0  0  0
  -29.4619  -22.8870   20.2232 O   0  0  0  0  0  0  0  0  0  0  0  0
  -23.6946  -10.2868   19.0280 O   0  0  0  0  0  0  0  0  0  0  0  0
  -27.7687  -29.7555   22.3963 O   0  0  0  0  0  0  0  0  0  0  0  0
  -23.4306  -28.7721   22.8061 O   0  0  0  0  0  0  0  0  0  0  0  0
  -24.3773  -24.1501   22.2948 O   0  0  0  0  0  0  0  0  0  0  0  0
  -30.2604  -17.5822   19.5182 O   0  0  0  0  0  0  0  0  0  0  0  0
  -20.6650  -13.0059   25.6616 O   0  0  0  0  0  0  0  0  0  0  0  0
  -30.4753  -25.3820   19.5292 O   0  0  0  0  0  0  0  0  0  1  0  0
  -15.7579  -10.7092   24.6371 F   0  0  0  0  0  0  0  0  0  0  0  0
  -18.3516  -14.5185   25.7174 F   0  0  0  0  0  0  0  0  0  0  0  0
  1  2  1  0  0  0  0
  1  7  2  0  0  0  0
  2  8  2  0  0  0  0
  3  6  2  0  0  0  0
  3 10  1  0  0  0  0
  4 11  2  0  0  0  0
  4 19  1  0  0  0  0
  5 12  1  0  0  0  0
  5 19  2  0  0  0  0
  6 20  1  0  0  0  0
  7 22  1  0  0  0  0
  8 24  1  0  0  0  0
  9 13  2  0  0  0  0
  9 23  1  0  0  0  0
 10 26  2  0  0  0  0
 11 27  1  0  0  0  0
 12 27  2  0  0  0  0
 13 28  1  0  0  0  0
 14 15  2  0  0  0  0
 14 29  1  0  0  0  0
 15 30  1  0  0  0  0
 16 20  2  0  0  0  0
 16 26  1  0  0  0  0
 17 25  1  0  0  0  0
 17 28  2  0  0  0  0
 18 30  2  0  0  0  0
 18 31  1  0  0  0  0
 19 32  1  0  0  0  0
 20 34  1  0  0  0  0
 21 32  1  0  0  0  0
 21 33  2  0  0  0  0
 21 35  1  0  0  0  0
 22 24  2  0  0  0  0
 22 40  1  0  0  0  0
 23 25  2  0  0  0  0
 23 41  1  0  0  0  0
 24 52  1  0  0  0  0
 25 42  1  0  0  0  0
 26 72  1  0  0  0  0
 27 82  1  0  0  0  0
 28 83  1  0  0  0  0
 29 31  2  0  0  0  0
 29 82  1  0  0  0  0
 30 84  1  0  0  0  0
 31 85  1  0  0  0  0
 32 65  2  0  0  0  0
 33 66  1  0  0  0  0
 33 70  1  0  0  0  0
 34 67  1  0  0  0  0
 34 76  2  0  0  0  0
 35 71  1  0  0  0  0
 35 77  2  0  0  0  0
 36 53  1  0  0  0  0
 36 73  1  0  0  0  0
 36 78  2  0  0  0  0
 37 62  1  0  0  0  0
 37 68  1  0  0  0  0
 37 79  2  0  0  0  0
 38 63  1  0  0  0  0
 38 74  1  0  0  0  0
 38 80  2  0  0  0  0
 39 69  1  0  0  0  0
 39 72  1  0  0  0  0
 39 81  2  0  0  0  0
 40 43  1  0  0  0  0
 41 53  1  0  0  0  0
 42 68  1  0  0  0  0
 43 46  1  0  0  0  0
 44 47  1  0  0  0  0
 44 50  1  0  0  0  0
 45 48  1  0  0  0  0
 45 49  1  0  0  0  0
 46 52  1  0  0  0  0
 47 54  1  0  0  0  0
 48 55  1  0  0  0  0
 49 67  1  0  0  0  0
 50 69  1  0  0  0  0
 51 54  1  0  0  0  0
 51 69  1  0  0  0  0
 52 73  1  0  0  0  0
 53 68  1  0  0  0  0
 54 66  1  0  0  0  0
 55 61  1  0  0  0  0
 55 67  1  0  0  0  0
 56 63  1  0  0  0  0
 57 64  1  0  0  0  0
 58 64  1  0  0  0  0
 59 64  1  0  0  0  0
 60 75  1  0  0  0  0
 61 83  1  0  0  0  0
 62 64  1  0  0  0  0
 62 74  1  0  0  0  0
 63 75  1  0  0  0  0
 65 66  1  0  0  0  0
M  CHG  1  75   1
M  ISO  4  39 100  61 101  72 100  83 101
M  END
> <Batch ID>
0003

> <Smiles>
CNC(C)C(=O)NC(C(=O)N1Cc2cc([101O:1][101CH2:1]C3CCCN3C(=O)c3cccc([100NH:0][100C:0](=O)N4CCCC(n5nc(-c6ccc(Oc7ccc(F)cc7F)cc6)c(C(N)=O)c5N)C4)c3)ccc2CC1C(=O)NC1CCCc2ccccc21)C(C)(C)C

> <Shape>
0.269

> <Color>
0.078

> <Negative vol penalty>
0.000

$$$$

  -OEChem-04042320203D

 78 86  0     1  0  0  0  0  0999 V2000
  -26.7739  -32.6995   28.1675 C   0  0  0  0  0  0  0  0  0  0  0  0
  -27.2042  -31.6974   27.3039 C   0  0  0  0  0  0  0  0  0  0  0  0
  -27.9925  -22.3141   16.9447 C   0  0  0  0  0  0  0  0  0  0  0  0
  -26.5064  -12.7174   21.6170 C   0  0  0  0  0  0  0  0  0  0  0  0
  -26.0125  -13.7464   19.4877 C   0  0  0  0  0  0  0  0  0  0  0  0
  -25.4236  -33.0436   28.2165 C   0  0  0  0  0  0  0  0  0  0  0  0
  -26.2843  -31.0379   26.4894 C   0  0  0  0  0  0  0  0  0  0  0  0
  -27.2352  -28.9309   20.8182 C   0  0  0  0  0  0  0  0  0  0  0  0
  -27.8815  -23.5924   17.4918 C   0  0  0  0  0  0  0  0  0  0  0  0
  -28.5263  -21.2739   17.7054 C   0  0  0  0  0  0  0  0  0  0  0  0
  -25.2502  -12.1112   21.6155 C   0  0  0  0  0  0  0  0  0  0  0  0
  -24.7563  -13.1402   19.4860 C   0  0  0  0  0  0  0  0  0  0  0  0
  -27.5382  -27.6615   20.3277 C   0  0  0  0  0  0  0  0  0  0  0  0
  -23.7752   -9.4401   20.1584 C   0  0  0  0  0  0  0  0  0  0  0  0
  -23.7052   -8.0929   20.5128 C   0  0  0  0  0  0  0  0  0  0  0  0
  -25.1982  -27.2824   19.8806 C   0  0  0  0  0  0  0  0  0  0  0  0
  -28.8381  -22.7902   19.5602 C   0  0  0  0  0  0  0  0  0  0  0  0
  -22.2435   -8.6529   22.3531 C   0  0  0  0  0  0  0  0  0  0  0  0
  -26.8875  -13.5351   20.5531 C   0  0  0  0  0  0  0  0  0  0  0  0
  -29.3811  -13.6417   20.0253 C   0  0  0  0  0  0  0  0  0  0  0  0
  -24.4882  -32.3946   27.3953 C   0  0  0  0  0  0  0  0  0  0  0  0
  -25.9080  -29.3822   20.8538 C   0  0  0  0  0  0  0  0  0  0  0  0
  -24.9201  -31.3726   26.5285 C   0  0  0  0  0  0  0  0  0  0  0  0
  -24.8813  -28.5589   20.3697 C   0  0  0  0  0  0  0  0  0  0  0  0
  -28.3043  -23.8305   18.7995 C   0  0  0  0  0  0  0  0  0  0  0  0
  -28.9491  -21.5119   19.0131 C   0  0  0  0  0  0  0  0  0  0  0  0
  -24.3751  -12.3225   20.5500 C   0  0  0  0  0  0  0  0  0  0  0  0
  -26.5193  -26.8359   19.8615 C   0  0  0  0  0  0  0  0  0  0  0  0
  -23.0795  -10.3938   20.9015 C   0  0  0  0  0  0  0  0  0  0  0  0
  -22.9393   -7.6992   21.6101 C   0  0  0  0  0  0  0  0  0  0  0  0
  -22.3136  -10.0001   21.9988 C   0  0  0  0  0  0  0  0  0  0  0  0
  -28.1848  -14.1621   20.5545 C   0  0  0  0  0  0  0  0  0  0  0  0
  -30.3189  -14.6133   20.2763 C   0  0  0  0  0  0  0  0  0  0  0  0
  -29.6229  -12.3918   19.3657 C   0  0  0  0  0  0  0  0  0  0  0  0
  -23.8999  -30.2656   23.1541 C   0  0  0  0  0  0  0  0  0  0  0  0
  -21.9913  -31.0484   20.6508 C   0  0  0  0  0  0  0  0  0  0  0  0
  -21.1684  -30.5681   17.3737 C   0  0  0  0  0  0  0  0  0  0  0  0
  -29.9572  -20.5208   21.0983 C   0  0  0  0  0  0  0  0  0  0  0  0
  -23.0321  -32.7683   27.5176 C   0  0  0  0  0  0  0  0  0  0  0  0
  -25.6007  -30.7644   21.3612 C   0  0  0  0  0  0  0  0  0  0  0  0
  -23.4424  -29.0040   20.3674 C   0  0  0  0  0  0  0  0  0  0  0  0
  -22.1777  -32.2795   26.3509 C   0  0  0  0  0  0  0  0  0  0  0  0
  -31.3281  -18.1363   23.3592 C   0  0  0  0  0  0  0  0  0  0  0  0
  -22.4919  -30.8209   26.0335 C   0  0  0  0  0  0  0  0  0  0  0  0
  -30.7915  -16.7986   22.8447 C   0  0  0  0  0  0  0  0  0  0  0  0
  -30.2992  -19.2555   23.2095 C   0  0  0  0  0  0  0  0  0  0  0  0
  -29.2062  -18.0732   21.3449 C   0  0  0  0  0  0  0  0  0  0  0  0
  -23.9563  -30.6512   25.6115 C   0  0  1  0  0  0  0  0  0  0  0  0
  -24.1568  -30.9225   21.8274 C   0  0  1  0  0  0  0  0  0  0  0  0
  -30.2305  -16.9288   21.4151 C   0  0  2  0  0  0  0  0  0  0  0  0
  -19.5398  -31.3237   15.6205 C   0  0  0  0  0  0  0  0  0  0  0  0
  -19.8198  -29.3285   21.9301 C   0  0  0  0  0  0  0  0  0  0  0  0
  -18.6126  -29.3443   19.7367 C   0  0  0  0  0  0  0  0  0  0  0  0
  -19.0056  -31.4839   20.9576 C   0  0  0  0  0  0  0  0  0  0  0  0
  -23.3324  -31.6255   15.6538 C   0  0  0  0  0  0  0  0  0  0  0  0
  -28.1847  -25.2057   19.3875 C   0  0  0  0  0  0  0  0  0  1  0  0
  -20.9499  -30.3236   19.8328 C   0  0  1  0  0  0  0  0  0  0  0  0
  -20.9071  -31.5505   16.2463 C   0  0  2  0  0  0  0  0  0  0  0  0
  -19.6238  -30.1106   20.6160 C   0  0  0  0  0  0  0  0  0  0  0  0
  -28.3453  -15.3704   21.1006 N   0  0  0  0  0  0  0  0  0  0  0  0
  -29.6533  -15.6173   20.9160 N   0  0  0  0  0  0  0  0  0  0  0  0
  -23.1921  -30.3615   20.8793 N   0  0  0  0  0  0  0  0  0  0  0  0
  -29.8156  -19.3219   21.8287 N   0  0  0  0  0  0  0  0  0  0  0  0
  -31.6396  -14.6981   20.0102 N   0  0  0  0  0  0  0  0  0  0  0  0
  -28.5477  -11.5102   19.1899 N   0  0  0  0  0  0  0  0  0  0  0  0
  -29.4906  -20.4548   19.7858 N   0  0  0  0  0  0  0  0  0  0  0  0
  -24.1410  -31.0823   24.2423 N   0  0  0  0  0  0  0  0  0  0  0  0
  -20.7987  -31.0848   18.5974 N   0  0  0  0  0  0  0  0  0  0  0  0
  -21.9408  -31.4053   15.1827 N   0  3  0  0  0  0  0  0  0  0  0  0
  -30.7622  -12.0595   18.9593 O   0  0  0  0  0  0  0  0  0  0  0  0
  -23.5105  -29.1042   23.1878 O   0  0  0  0  0  0  0  0  0  0  0  0
  -21.7511  -32.1850   21.0655 O   0  0  0  0  0  0  0  0  0  0  0  0
  -21.6488  -29.4523   17.1870 O   0  0  0  0  0  0  0  0  0  0  0  0
  -30.4803  -21.5233   21.5915 O   0  0  0  0  0  0  0  0  0  0  0  0
  -23.1494  -11.7309   20.5480 O   0  0  0  0  0  0  0  0  0  0  0  0
  -26.8122  -25.5962   19.3828 O   0  0  0  0  0  0  0  0  0  1  0  0
  -22.8709   -6.4052   21.9493 F   0  0  0  0  0  0  0  0  0  0  0  0
  -21.6420  -10.9116   22.7158 F   0  0  0  0  0  0  0  0  0  0  0  0
  1  2  1  0  0  0  0
  1  6  2  0  0  0  0
  2  7  2  0  0  0  0
  3  9  2  0  0  0  0
  3 10  1  0  0  0  0
  4 11  2  0  0  0  0
  4 19  1  0  0  0  0
  5 12  1  0  0  0  0
  5 19  2  0  0  0  0
  6 21  1  0  0  0  0
  7 23  1  0  0  0  0
  8 13  2  0  0  0  0
  8 22  1  0  0  0  0
  9 25  1  0  0  0  0
 10 26  2  0  0  0  0
 11 27  1  0  0  0  0
 12 27  2  0  0  0  0
 13 28  1  0  0  0  0
 14 15  2  0  0  0  0
 14 29  1  0  0  0  0
 15 30  1  0  0  0  0
 16 24  1  0  0  0  0
 16 28  2  0  0  0  0
 17 25  2  0  0  0  0
 17 26  1  0  0  0  0
 18 30  2  0  0  0  0
 18 31  1  0  0  0  0
 19 32  1  0  0  0  0
 20 32  1  0  0  0  0
 20 33  2  0  0  0  0
 20 34  1  0  0  0  0
 21 23  2  0  0  0  0
 21 39  1  0  0  0  0
 22 24  2  0  0  0  0
 22 40  1  0  0  0  0
 23 48  1  0  0  0  0
 24 41  1  0  0  0  0
 25 56  1  0  0  0  0
 26 66  1  0  0  0  0
 27 75  1  0  0  0  0
 28 76  1  0  0  0  0
 29 31  2  0  0  0  0
 29 75  1  0  0  0  0
 30 77  1  0  0  0  0
 31 78  1  0  0  0  0
 32 60  2  0  0  0  0
 33 61  1  0  0  0  0
 33 64  1  0  0  0  0
 34 65  1  0  0  0  0
 34 70  2  0  0  0  0
 35 49  1  0  0  0  0
 35 67  1  0  0  0  0
 35 71  2  0  0  0  0
 36 57  1  0  0  0  0
 36 62  1  0  0  0  0
 36 72  2  0  0  0  0
 37 58  1  0  0  0  0
 37 68  1  0  0  0  0
 37 73  2  0  0  0  0
 38 63  1  0  0  0  0
 38 66  1  0  0  0  0
 38 74  2  0  0  0  0
 39 42  1  0  0  0  0
 40 49  1  0  0  0  0
 41 62  1  0  0  0  0
 42 44  1  0  0  0  0
 43 45  1  0  0  0  0
 43 46  1  0  0  0  0
 44 48  1  0  0  0  0
 45 50  1  0  0  0  0
 46 63  1  0  0  0  0
 47 50  1  0  0  0  0
 47 63  1  0  0  0  0
 48 67  1  0  0  0  0
 49 62  1  0  0  0  0
 50 61  1  0  0  0  0
 51 58  1  0  0  0  0
 52 59  1  0  0  0  0
 53 59  1  0  0  0  0
 54 59  1  0  0  0  0
 55 69  1  0  0  0  0
 56 76  1  0  0  0  0
 57 59  1  0  0  0  0
 57 68  1  0  0  0  0
 58 69  1  0  0  0  0
 60 61  1  0  0  0  0
M  CHG  1  69   1
M  ISO  4  38 100  56 101  66 100  76 101
M  END
> <Batch ID>
0003

> <Smiles>
CNC(C)C(=O)NC(C(=O)N1Cc2cc([101O:1][101CH2:1]c3cccc([100NH:0][100C:0](=O)N4CCCC(n5nc(-c6ccc(Oc7ccc(F)cc7F)cc6)c(C(N)=O)c5N)C4)c3)ccc2CC1C(=O)NC1CCCc2ccccc21)C(C)(C)C

> <Shape>
0.294

> <Color>
0.112

> <Negative vol penalty>
0.000

$$$$

  -OEChem-04042320203D

 92102  0     1  0  0  0  0  0999 V2000
  -24.4065  -10.5077   19.7713 C   0  0  0  0  0  0  0  0  0  0  0  0
  -18.1960  -28.3617   22.3907 C   0  0  0  0  0  0  0  0  0  0  0  0
  -18.3120  -27.2584   21.5513 C   0  0  0  0  0  0  0  0  0  0  0  0
  -25.7518  -10.7058   19.4609 C   0  0  0  0  0  0  0  0  0  0  0  0
  -23.6780  -11.5210   20.3945 C   0  0  0  0  0  0  0  0  0  0  0  0
  -25.9052  -28.4023   20.1140 C   0  0  0  0  0  0  0  0  0  0  0  0
  -27.5651  -29.7334   21.2586 C   0  0  0  0  0  0  0  0  0  0  0  0
  -19.1975  -28.6369   23.3209 C   0  0  0  0  0  0  0  0  0  0  0  0
  -19.4303  -26.4302   21.6408 C   0  0  0  0  0  0  0  0  0  0  0  0
  -21.3763  -19.5769   20.8910 C   0  0  0  0  0  0  0  0  0  0  0  0
  -26.3688  -11.9170   19.7737 C   0  0  0  0  0  0  0  0  0  0  0  0
  -24.2949  -12.7322   20.7074 C   0  0  0  0  0  0  0  0  0  0  0  0
  -24.9794  -29.4362   20.2543 C   0  0  0  0  0  0  0  0  0  0  0  0
  -26.6393  -30.7673   21.3989 C   0  0  0  0  0  0  0  0  0  0  0  0
  -22.3174  -18.7909   20.2276 C   0  0  0  0  0  0  0  0  0  0  0  0
  -24.6074  -33.6176   22.3769 C   0  0  0  0  0  0  0  0  0  0  0  0
  -24.5201  -34.2457   23.6193 C   0  0  0  0  0  0  0  0  0  0  0  0
  -23.9469  -19.3189   21.9263 C   0  0  0  0  0  0  0  0  0  0  0  0
  -23.9296  -32.1385   24.6430 C   0  0  0  0  0  0  0  0  0  0  0  0
  -27.1980  -28.5509   20.6162 C   0  0  0  0  0  0  0  0  0  0  0  0
  -29.0510  -27.2830   19.4053 C   0  0  0  0  0  0  0  0  0  0  0  0
  -20.3240  -27.8062   23.4284 C   0  0  0  0  0  0  0  0  0  0  0  0
  -21.7171  -20.2497   22.0732 C   0  0  0  0  0  0  0  0  0  0  0  0
  -20.4485  -26.6953   22.5723 C   0  0  0  0  0  0  0  0  0  0  0  0
  -23.0074  -20.1107   22.6042 C   0  0  0  0  0  0  0  0  0  0  0  0
  -25.6403  -12.9303   20.3970 C   0  0  0  0  0  0  0  0  0  0  0  0
  -25.3464  -30.6186   20.8967 C   0  0  0  0  0  0  0  0  0  0  0  0
  -23.6038  -18.6641   20.7436 C   0  0  0  0  0  0  0  0  0  0  0  0
  -24.3556  -32.2500   22.2675 C   0  0  0  0  0  0  0  0  0  0  0  0
  -24.1813  -33.5061   24.7524 C   0  0  0  0  0  0  0  0  0  0  0  0
  -24.0168  -31.5104   23.4006 C   0  0  0  0  0  0  0  0  0  0  0  0
  -28.1546  -27.4831   20.4721 C   0  0  0  0  0  0  0  0  0  0  0  0
  -29.7359  -26.1410   19.7418 C   0  0  0  0  0  0  0  0  0  0  0  0
  -29.2471  -28.0600   18.2164 C   0  0  0  0  0  0  0  0  0  0  0  0
  -21.8520  -23.2993   22.9596 C   0  0  0  0  0  0  0  0  0  0  0  0
  -22.4730  -22.0198   25.8750 C   0  0  0  0  0  0  0  0  0  0  0  0
  -23.6318  -19.3720   27.6897 C   0  0  0  0  0  0  0  0  0  0  0  0
  -30.0155  -21.0938   21.5495 C   0  0  0  0  0  0  0  0  0  0  0  0
  -21.4033  -28.1709   24.4167 C   0  0  0  0  0  0  0  0  0  0  0  0
  -20.6825  -21.0722   22.7912 C   0  0  0  0  0  0  0  0  0  0  0  0
  -23.4176  -20.7961   23.8811 C   0  0  0  0  0  0  0  0  0  0  0  0
  -22.3767  -27.0307   24.7041 C   0  0  0  0  0  0  0  0  0  0  0  0
  -29.2609  -13.3520   21.5382 C   0  0  0  0  0  0  0  0  0  0  0  0
  -29.8980  -23.5398   24.0689 C   0  0  0  0  0  0  0  0  0  0  0  0
  -22.8253  -26.3713   23.4038 C   0  0  0  0  0  0  0  0  0  0  0  0
  -27.9544  -13.0903   22.2870 C   0  0  0  0  0  0  0  0  0  0  0  0
  -29.5018  -24.7802   23.2688 C   0  0  0  0  0  0  0  0  0  0  0  0
  -29.8688  -14.6998   21.9190 C   0  0  0  0  0  0  0  0  0  0  0  0
  -27.5633  -15.5816   22.4865 C   0  0  0  0  0  0  0  0  0  0  0  0
  -29.1427  -22.2929   23.6051 C   0  0  0  0  0  0  0  0  0  0  0  0
  -29.0945  -19.3751   23.1689 C   0  0  0  0  0  0  0  0  0  0  0  0
  -31.1297  -18.9042   21.8558 C   0  0  0  0  0  0  0  0  0  0  0  0
  -28.8541  -23.2725   21.3521 C   0  0  0  0  0  0  0  0  0  0  0  0
  -28.4261  -18.1287   22.5977 C   0  0  0  0  0  0  0  0  0  0  0  0
  -30.4858  -17.6691   21.2473 C   0  0  0  0  0  0  0  0  0  0  0  0
  -21.6346  -25.7592   22.6561 C   0  0  1  0  0  0  0  0  0  0  0  0
  -21.2904  -22.1260   23.7117 C   0  0  1  0  0  0  0  0  0  0  0  0
  -26.9306  -14.2260   22.1340 C   0  0  1  0  0  0  0  0  0  0  0  0
  -29.6398  -24.5294   21.7566 C   0  0  1  0  0  0  0  0  0  0  0  0
  -28.8648  -15.8329   21.7249 C   0  0  1  0  0  0  0  0  0  0  0  0
  -24.0522  -18.6357   30.0516 C   0  0  0  0  0  0  0  0  0  0  0  0
  -24.9656  -23.7766   25.9764 C   0  0  0  0  0  0  0  0  0  0  0  0
  -25.8163  -22.3415   27.8432 C   0  0  0  0  0  0  0  0  0  0  0  0
  -23.7018  -23.6337   28.1297 C   0  0  0  0  0  0  0  0  0  0  0  0
  -21.7378  -17.1110   27.4448 C   0  0  0  0  0  0  0  0  0  0  0  0
  -24.0354  -16.7840   19.3526 C   0  0  0  0  0  0  0  0  0  1  0  0
  -25.0808  -15.6855   19.3466 C   0  0  0  0  0  0  0  0  0  0  0  0
  -26.3067  -14.2397   20.7357 C   0  0  2  0  0  0  0  0  0  0  0  0
  -23.7209  -21.6074   26.6177 C   0  0  1  0  0  0  0  0  0  0  0  0
  -23.0610  -18.6522   28.8983 C   0  0  2  0  0  0  0  0  0  0  0  0
  -24.5443  -22.8283   27.1166 C   0  0  0  0  0  0  0  0  0  0  0  0
  -28.2582  -26.5434   21.4157 N   0  0  0  0  0  0  0  0  0  0  0  0
  -29.2277  -25.7418   20.9429 N   0  0  0  0  0  0  0  0  0  0  0  0
  -22.3723  -21.5941   24.5429 N   0  0  0  0  0  0  0  0  0  0  0  0
  -29.2694  -22.1180   22.1516 N   0  0  0  0  0  0  0  0  0  0  0  0
  -30.1226  -19.8854   22.2538 N   0  0  0  0  0  0  0  0  0  0  0  0
  -30.7172  -25.4493   19.1245 N   0  0  0  0  0  0  0  0  0  0  0  0
  -28.4590  -29.2035   18.0280 N   0  0  0  0  0  0  0  0  0  0  0  0
  -21.2474  -24.5041   23.2636 N   0  0  0  0  0  0  0  0  0  0  0  0
  -23.2852  -20.7065   27.6793 N   0  0  0  0  0  0  0  0  0  0  0  0
  -29.4775  -17.1113   22.2246 N   0  3  0  0  0  0  0  0  0  0  0  0
  -22.7219  -17.2435   28.5498 N   0  3  0  0  0  0  0  0  0  0  0  0
  -30.0847  -27.7403   17.3390 O   0  0  0  0  0  0  0  0  0  0  0  0
  -22.7671  -23.1246   22.1635 O   0  0  0  0  0  0  0  0  0  0  0  0
  -21.6157  -22.6887   26.4575 O   0  0  0  0  0  0  0  0  0  0  0  0
  -24.3196  -18.8076   26.8417 O   0  0  0  0  0  0  0  0  0  0  0  0
  -30.5542  -21.2498   20.4464 O   0  0  0  0  0  0  0  0  0  0  0  0
  -24.4434  -31.6278   21.0335 O   0  0  0  0  0  0  0  0  0  0  0  0
  -24.5308  -17.8928   20.0933 O   0  0  0  0  0  0  0  0  0  1  0  0
  -25.3287  -15.2739   20.6829 O   0  0  0  0  0  0  0  0  0  0  0  0
  -24.0991  -34.1090   25.9456 F   0  0  0  0  0  0  0  0  0  0  0  0
  -23.7750  -30.1960   23.3020 F   0  0  0  0  0  0  0  0  0  0  0  0
  1  4  1  0  0  0  0
  1  5  2  0  0  0  0
  2  3  1  0  0  0  0
  2  8  2  0  0  0  0
  3  9  2  0  0  0  0
  4 11  2  0  0  0  0
  5 12  1  0  0  0  0
  6 13  2  0  0  0  0
  6 20  1  0  0  0  0
  7 14  1  0  0  0  0
  7 20  2  0  0  0  0
  8 22  1  0  0  0  0
  9 24  1  0  0  0  0
 10 15  2  0  0  0  0
 10 23  1  0  0  0  0
 11 26  1  0  0  0  0
 12 26  2  0  0  0  0
 13 27  1  0  0  0  0
 14 27  2  0  0  0  0
 15 28  1  0  0  0  0
 16 17  2  0  0  0  0
 16 29  1  0  0  0  0
 17 30  1  0  0  0  0
 18 25  1  0  0  0  0
 18 28  2  0  0  0  0
 19 30  2  0  0  0  0
 19 31  1  0  0  0  0
 20 32  1  0  0  0  0
 21 32  1  0  0  0  0
 21 33  2  0  0  0  0
 21 34  1  0  0  0  0
 22 24  2  0  0  0  0
 22 39  1  0  0  0  0
 23 25  2  0  0  0  0
 23 40  1  0  0  0  0
 24 56  1  0  0  0  0
 25 41  1  0  0  0  0
 26 68  1  0  0  0  0
 27 88  1  0  0  0  0
 28 89  1  0  0  0  0
 29 31  2  0  0  0  0
 29 88  1  0  0  0  0
 30 91  1  0  0  0  0
 31 92  1  0  0  0  0
 32 72  2  0  0  0  0
 33 73  1  0  0  0  0
 33 77  1  0  0  0  0
 34 78  1  0  0  0  0
 34 83  2  0  0  0  0
 35 57  1  0  0  0  0
 35 79  1  0  0  0  0
 35 84  2  0  0  0  0
 36 69  1  0  0  0  0
 36 74  1  0  0  0  0
 36 85  2  0  0  0  0
 37 70  1  0  0  0  0
 37 80  1  0  0  0  0
 37 86  2  0  0  0  0
 38 75  1  0  0  0  0
 38 76  1  0  0  0  0
 38 87  2  0  0  0  0
 39 42  1  0  0  0  0
 40 57  1  0  0  0  0
 41 74  1  0  0  0  0
 42 45  1  0  0  0  0
 43 46  1  0  0  0  0
 43 48  1  0  0  0  0
 44 47  1  0  0  0  0
 44 50  1  0  0  0  0
 45 56  1  0  0  0  0
 46 58  1  0  0  0  0
 47 59  1  0  0  0  0
 48 60  1  0  0  0  0
 49 58  1  0  0  0  0
 49 60  1  0  0  0  0
 50 75  1  0  0  0  0
 51 54  1  0  0  0  0
 51 76  1  0  0  0  0
 52 55  1  0  0  0  0
 52 76  1  0  0  0  0
 53 59  1  0  0  0  0
 53 75  1  0  0  0  0
 54 81  1  0  0  0  0
 55 81  1  0  0  0  0
 56 79  1  0  0  0  0
 57 74  1  0  0  0  0
 58 68  1  0  0  0  0
 59 73  1  0  0  0  0
 60 81  1  0  0  0  0
 61 70  1  0  0  0  0
 62 71  1  0  0  0  0
 63 71  1  0  0  0  0
 64 71  1  0  0  0  0
 65 82  1  0  0  0  0
 66 67  1  0  0  0  0
 66 89  1  0  0  0  0
 67 90  1  0  0  0  0
 68 90  1  0  0  0  0
 69 71  1  0  0  0  0
 69 80  1  0  0  0  0
 70 82  1  0  0  0  0
 72 73  1  0  0  0  0
M  CHG  2  81   1  82   1
M  ISO  4  38 100  66 101  76 100  89 101
M  END
> <Batch ID>
0003

> <Smiles>
CNC(C)C(=O)NC(C(=O)N1Cc2cc([101O:1][101CH2:1]COC(c3ccccc3)C3CCCC(N4CC[100N:0]([100C:0](=O)N5CCCC(n6nc(-c7ccc(Oc8ccc(F)cc8F)cc7)c(C(N)=O)c6N)C5)CC4)C3)ccc2CC1C(=O)NC1CCCc2ccccc21)C(C)(C)C

> <Shape>
0.239

> <Color>
0.064

> <Negative vol penalty>
0.000

$$$$

  -OEChem-04042320203D

 86 95  0     1  0  0  0  0  0999 V2000
  -26.8384  -34.6882   23.1521 C   0  0  0  0  0  0  0  0  0  0  0  0
  -27.2506  -33.3741   22.9561 C   0  0  0  0  0  0  0  0  0  0  0  0
  -22.7709  -10.7619   20.8050 C   0  0  0  0  0  0  0  0  0  0  0  0
  -21.5619  -11.8396   22.5977 C   0  0  0  0  0  0  0  0  0  0  0  0
  -27.4344  -20.6670   18.0166 C   0  0  0  0  0  0  0  0  0  0  0  0
  -25.9276  -22.4980   17.5542 C   0  0  0  0  0  0  0  0  0  0  0  0
  -25.5365  -34.9536   23.5747 C   0  0  0  0  0  0  0  0  0  0  0  0
  -26.3614  -32.3243   23.1837 C   0  0  0  0  0  0  0  0  0  0  0  0
  -26.4919  -28.8374   19.5136 C   0  0  0  0  0  0  0  0  0  0  0  0
  -26.6081  -19.8049   17.2959 C   0  0  0  0  0  0  0  0  0  0  0  0
  -25.1012  -21.6359   16.8334 C   0  0  0  0  0  0  0  0  0  0  0  0
  -22.2282   -9.5323   21.1782 C   0  0  0  0  0  0  0  0  0  0  0  0
  -21.0191  -10.6101   22.9709 C   0  0  0  0  0  0  0  0  0  0  0  0
  -27.5529  -27.9331   19.5320 C   0  0  0  0  0  0  0  0  0  0  0  0
  -22.7692   -7.1893   23.5535 C   0  0  0  0  0  0  0  0  0  0  0  0
  -23.6304   -6.0939   23.6164 C   0  0  0  0  0  0  0  0  0  0  0  0
  -26.1178  -26.2792   20.5440 C   0  0  0  0  0  0  0  0  0  0  0  0
  -22.3055   -4.9563   21.9467 C   0  0  0  0  0  0  0  0  0  0  0  0
  -22.4378  -11.9155   21.5148 C   0  0  0  0  0  0  0  0  0  0  0  0
  -27.0942  -22.0136   18.1458 C   0  0  0  0  0  0  0  0  0  0  0  0
  -24.3617  -13.5345   21.0845 C   0  0  0  0  0  0  0  0  0  0  0  0
  -24.6280  -33.9070   23.7983 C   0  0  0  0  0  0  0  0  0  0  0  0
  -25.2367  -28.4724   20.0212 C   0  0  0  0  0  0  0  0  0  0  0  0
  -25.0465  -32.5758   23.6110 C   0  0  0  0  0  0  0  0  0  0  0  0
  -25.0418  -27.1798   20.5286 C   0  0  0  0  0  0  0  0  0  0  0  0
  -25.4415  -20.2893   16.7043 C   0  0  0  0  0  0  0  0  0  0  0  0
  -21.3523   -9.4564   22.2611 C   0  0  0  0  0  0  0  0  0  0  0  0
  -27.3667  -26.6547   20.0498 C   0  0  0  0  0  0  0  0  0  0  0  0
  -21.6760   -7.1682   22.6872 C   0  0  0  0  0  0  0  0  0  0  0  0
  -23.3986   -4.9774   22.8130 C   0  0  0  0  0  0  0  0  0  0  0  0
  -21.4442   -6.0517   21.8839 C   0  0  0  0  0  0  0  0  0  0  0  0
  -22.9985  -13.1859   21.1302 C   0  0  0  0  0  0  0  0  0  0  0  0
  -24.3679  -14.8409   20.6606 C   0  0  0  0  0  0  0  0  0  0  0  0
  -27.9643  -22.9228   18.9045 C   0  0  0  0  0  0  0  0  0  0  0  0
  -25.5188  -12.7478   21.3973 C   0  0  0  0  0  0  0  0  0  0  0  0
  -23.3862  -29.5097   22.3883 C   0  0  0  0  0  0  0  0  0  0  0  0
  -21.2729  -27.3855   21.1458 C   0  0  0  0  0  0  0  0  0  0  0  0
  -20.7485  -24.5570   19.3097 C   0  0  0  0  0  0  0  0  0  0  0  0
  -22.5229  -18.8626   17.2594 C   0  0  0  0  0  0  0  0  0  0  0  0
  -23.2454  -34.2408   24.3002 C   0  0  0  0  0  0  0  0  0  0  0  0
  -24.0952  -29.4505   19.9697 C   0  0  0  0  0  0  0  0  0  0  0  0
  -23.7084  -26.7319   21.0669 C   0  0  0  0  0  0  0  0  0  0  0  0
  -22.2518  -33.0906   24.1582 C   0  0  0  0  0  0  0  0  0  0  0  0
  -20.5818  -18.1578   20.1598 C   0  0  0  0  0  0  0  0  0  0  0  0
  -30.2315  -24.3688   16.3717 C   0  0  0  0  0  0  0  0  0  0  0  0
  -22.8701  -31.7869   24.6533 C   0  0  0  0  0  0  0  0  0  0  0  0
  -21.1457  -16.8278   20.6629 C   0  0  0  0  0  0  0  0  0  0  0  0
  -31.0366  -24.5824   17.6484 C   0  0  0  0  0  0  0  0  0  0  0  0
  -29.1640  -23.3739   16.7936 C   0  0  0  0  0  0  0  0  0  0  0  0
  -20.5642  -18.2222   18.6341 C   0  0  0  0  0  0  0  0  0  0  0  0
  -22.4233  -16.6108   18.4906 C   0  0  0  0  0  0  0  0  0  0  0  0
  -24.1037  -31.4113   23.8235 C   0  0  1  0  0  0  0  0  0  0  0  0
  -22.9981  -29.1425   20.9840 C   0  0  1  0  0  0  0  0  0  0  0  0
  -22.5132  -16.5207   20.0236 C   0  0  2  0  0  0  0  0  0  0  0  0
  -29.9823  -24.5168   18.7576 C   0  0  1  0  0  0  0  0  0  0  0  0
  -18.9161  -23.0460   18.4993 C   0  0  0  0  0  0  0  0  0  0  0  0
  -21.0394  -26.1754   23.9370 C   0  0  0  0  0  0  0  0  0  0  0  0
  -19.9865  -24.1558   22.8975 C   0  0  0  0  0  0  0  0  0  0  0  0
  -18.8732  -26.3797   22.7041 C   0  0  0  0  0  0  0  0  0  0  0  0
  -21.4024  -25.0932   16.4736 C   0  0  0  0  0  0  0  0  0  0  0  0
  -24.5587  -19.3672   15.9328 C   0  0  0  0  0  0  0  0  0  0  0  0
  -29.3803  -25.8933   19.0391 C   0  0  0  0  0  0  0  0  0  1  0  0
  -20.9707  -25.9233   21.3684 C   0  0  1  0  0  0  0  0  0  0  0  0
  -19.7816  -24.2548   18.1791 C   0  0  2  0  0  0  0  0  0  0  0  0
  -20.2432  -25.6673   22.7185 C   0  0  0  0  0  0  0  0  0  0  0  0
  -22.1970  -14.1898   20.7646 N   0  0  0  0  0  0  0  0  0  0  0  0
  -23.0591  -15.1822   20.4852 N   0  0  0  0  0  0  0  0  0  0  0  0
  -28.9771  -23.5854   18.2230 N   0  0  0  0  0  0  0  0  0  0  0  0
  -22.6250  -27.7266   21.0005 N   0  0  0  0  0  0  0  0  0  0  0  0
  -21.8913  -17.9230   18.0909 N   0  0  0  0  0  0  0  0  0  0  0  0
  -25.3652  -15.7196   20.4244 N   0  0  0  0  0  0  0  0  0  0  0  0
  -26.0001  -12.7613   22.7136 N   0  0  0  0  0  0  0  0  0  0  0  0
  -23.7049  -30.8442   22.5532 N   0  0  0  0  0  0  0  0  0  0  0  0
  -20.2275  -25.4768   20.1951 N   0  0  0  0  0  0  0  0  0  0  0  0
  -23.7813  -18.5029   16.7927 N   0  0  0  0  0  0  0  0  0  0  0  0
  -20.5281  -23.9779   16.9193 N   0  3  0  0  0  0  0  0  0  0  0  0
  -27.7317  -23.0384   20.1070 O   0  0  0  0  0  0  0  0  0  0  0  0
  -26.1183  -12.0664   20.5314 O   0  0  0  0  0  0  0  0  0  0  0  0
  -23.3944  -28.6466   23.2582 O   0  0  0  0  0  0  0  0  0  0  0  0
  -20.3428  -28.1943   21.0953 O   0  0  0  0  0  0  0  0  0  0  0  0
  -21.8537  -24.0270   19.4006 O   0  0  0  0  0  0  0  0  0  0  0  0
  -22.0061  -19.9443   16.9599 O   0  0  0  0  0  0  0  0  0  0  0  0
  -20.8223   -8.2568   22.6254 O   0  0  0  0  0  0  0  0  0  0  0  0
  -28.4008  -25.7703   20.0695 O   0  0  0  0  0  0  0  0  0  1  0  0
  -24.2266   -3.9262   22.8724 F   0  0  0  0  0  0  0  0  0  0  0  0
  -20.3964   -6.0261   21.0489 F   0  0  0  0  0  0  0  0  0  0  0  0
  1  2  1  0  0  0  0
  1  7  2  0  0  0  0
  2  8  2  0  0  0  0
  3 12  2  0  0  0  0
  3 19  1  0  0  0  0
  4 13  1  0  0  0  0
  4 19  2  0  0  0  0
  5 10  2  0  0  0  0
  5 20  1  0  0  0  0
  6 11  1  0  0  0  0
  6 20  2  0  0  0  0
  7 22  1  0  0  0  0
  8 24  1  0  0  0  0
  9 14  2  0  0  0  0
  9 23  1  0  0  0  0
 10 26  1  0  0  0  0
 11 26  2  0  0  0  0
 12 27  1  0  0  0  0
 13 27  2  0  0  0  0
 14 28  1  0  0  0  0
 15 16  2  0  0  0  0
 15 29  1  0  0  0  0
 16 30  1  0  0  0  0
 17 25  1  0  0  0  0
 17 28  2  0  0  0  0
 18 30  2  0  0  0  0
 18 31  1  0  0  0  0
 19 32  1  0  0  0  0
 20 34  1  0  0  0  0
 21 32  1  0  0  0  0
 21 33  2  0  0  0  0
 21 35  1  0  0  0  0
 22 24  2  0  0  0  0
 22 40  1  0  0  0  0
 23 25  2  0  0  0  0
 23 41  1  0  0  0  0
 24 52  1  0  0  0  0
 25 42  1  0  0  0  0
 26 61  1  0  0  0  0
 27 83  1  0  0  0  0
 28 84  1  0  0  0  0
 29 31  2  0  0  0  0
 29 83  1  0  0  0  0
 30 85  1  0  0  0  0
 31 86  1  0  0  0  0
 32 66  2  0  0  0  0
 33 67  1  0  0  0  0
 33 71  1  0  0  0  0
 34 68  1  0  0  0  0
 34 77  2  0  0  0  0
 35 72  1  0  0  0  0
 35 78  2  0  0  0  0
 36 53  1  0  0  0  0
 36 73  1  0  0  0  0
 36 79  2  0  0  0  0
 37 63  1  0  0  0  0
 37 69  1  0  0  0  0
 37 80  2  0  0  0  0
 38 64  1  0  0  0  0
 38 74  1  0  0  0  0
 38 81  2  0  0  0  0
 39 70  1  0  0  0  0
 39 75  1  0  0  0  0
 39 82  2  0  0  0  0
 40 43  1  0  0  0  0
 41 53  1  0  0  0  0
 42 69  1  0  0  0  0
 43 46  1  0  0  0  0
 44 47  1  0  0  0  0
 44 50  1  0  0  0  0
 45 48  1  0  0  0  0
 45 49  1  0  0  0  0
 46 52  1  0  0  0  0
 47 54  1  0  0  0  0
 48 55  1  0  0  0  0
 49 68  1  0  0  0  0
 50 70  1  0  0  0  0
 51 54  1  0  0  0  0
 51 70  1  0  0  0  0
 52 73  1  0  0  0  0
 53 69  1  0  0  0  0
 54 67  1  0  0  0  0
 55 62  1  0  0  0  0
 55 68  1  0  0  0  0
 56 64  1  0  0  0  0
 57 65  1  0  0  0  0
 58 65  1  0  0  0  0
 59 65  1  0  0  0  0
 60 76  1  0  0  0  0
 61 75  1  0  0  0  0
 62 84  1  0  0  0  0
 63 65  1  0  0  0  0
 63 74  1  0  0  0  0
 64 76  1  0  0  0  0
 66 67  1  0  0  0  0
M  CHG  1  76   1
M  ISO  4  39 100  62 101  75 100  84 101
M  END
> <Batch ID>
0003

> <Smiles>
CNC(C)C(=O)NC(C(=O)N1Cc2cc([101O:1][101CH2:1]C3CCCN3C(=O)c3ccc(C[100NH:0][100C:0](=O)N4CCCC(n5nc(-c6ccc(Oc7ccc(F)cc7F)cc6)c(C(N)=O)c5N)C4)cc3)ccc2CC1C(=O)NC1CCCc2ccccc21)C(C)(C)C

> <Shape>
0.257

> <Color>
0.104

> <Negative vol penalty>
0.000

$$$$

  -OEChem-04042320203D

 79 87  0     1  0  0  0  0  0999 V2000
  -23.3441   -6.3416   24.2992 C   0  0  0  0  0  0  0  0  0  0  0  0
  -24.5661   -7.0065   24.3070 C   0  0  0  0  0  0  0  0  0  0  0  0
  -26.1003  -30.7071   20.8867 C   0  0  0  0  0  0  0  0  0  0  0  0
  -23.9565  -29.6755   20.4660 C   0  0  0  0  0  0  0  0  0  0  0  0
  -22.4219   -6.5924   23.2841 C   0  0  0  0  0  0  0  0  0  0  0  0
  -24.8671   -7.9217   23.2989 C   0  0  0  0  0  0  0  0  0  0  0  0
  -28.4368  -14.0326   22.1904 C   0  0  0  0  0  0  0  0  0  0  0  0
  -25.5635  -31.3733   21.9884 C   0  0  0  0  0  0  0  0  0  0  0  0
  -23.4197  -30.3416   21.5677 C   0  0  0  0  0  0  0  0  0  0  0  0
  -29.3998  -14.5790   21.3430 C   0  0  0  0  0  0  0  0  0  0  0  0
  -23.6394  -34.0928   22.5597 C   0  0  0  0  0  0  0  0  0  0  0  0
  -23.9427  -35.4460   22.7088 C   0  0  0  0  0  0  0  0  0  0  0  0
  -27.6975  -14.9908   19.6840 C   0  0  0  0  0  0  0  0  0  0  0  0
  -24.9681  -34.9807   24.8464 C   0  0  0  0  0  0  0  0  0  0  0  0
  -25.2967  -29.8583   20.1254 C   0  0  0  0  0  0  0  0  0  0  0  0
  -26.4278  -29.7503   17.8414 C   0  0  0  0  0  0  0  0  0  0  0  0
  -22.7077   -7.5183   22.2684 C   0  0  0  0  0  0  0  0  0  0  0  0
  -27.0966  -13.9512   21.7859 C   0  0  0  0  0  0  0  0  0  0  0  0
  -23.9484   -8.1840   22.2685 C   0  0  0  0  0  0  0  0  0  0  0  0
  -26.7191  -14.4453   20.5292 C   0  0  0  0  0  0  0  0  0  0  0  0
  -24.2233  -31.1905   22.3289 C   0  0  0  0  0  0  0  0  0  0  0  0
  -29.0307  -15.0555   20.0885 C   0  0  0  0  0  0  0  0  0  0  0  0
  -24.0004  -33.1834   23.5540 C   0  0  0  0  0  0  0  0  0  0  0  0
  -24.6070  -35.8900   23.8521 C   0  0  0  0  0  0  0  0  0  0  0  0
  -24.6647  -33.6274   24.6973 C   0  0  0  0  0  0  0  0  0  0  0  0
  -25.8505  -29.1704   18.9869 C   0  0  0  0  0  0  0  0  0  0  0  0
  -26.7967  -28.6802   17.0635 C   0  0  0  0  0  0  0  0  0  0  0  0
  -26.6141  -31.1328   17.5102 C   0  0  0  0  0  0  0  0  0  0  0  0
  -25.0427  -11.5758   21.2932 C   0  0  0  0  0  0  0  0  0  0  0  0
  -22.9352  -14.0053   20.8708 C   0  0  0  0  0  0  0  0  0  0  0  0
  -22.9226  -17.2285   19.2497 C   0  0  0  0  0  0  0  0  0  0  0  0
  -28.1883  -23.1105   18.4410 C   0  0  0  0  0  0  0  0  0  0  0  0
  -21.6987   -7.7210   21.1659 C   0  0  0  0  0  0  0  0  0  0  0  0
  -26.0655  -13.3835   22.7223 C   0  0  0  0  0  0  0  0  0  0  0  0
  -25.2901  -14.3996   20.0557 C   0  0  0  0  0  0  0  0  0  0  0  0
  -21.9420   -8.9830   20.3421 C   0  0  0  0  0  0  0  0  0  0  0  0
  -25.6013  -24.1408   16.1295 C   0  0  0  0  0  0  0  0  0  0  0  0
  -23.4144   -9.0954   19.9598 C   0  0  0  0  0  0  0  0  0  0  0  0
  -25.4315  -25.6151   16.5005 C   0  0  0  0  0  0  0  0  0  0  0  0
  -29.2525  -20.2273   19.5815 C   0  0  0  0  0  0  0  0  0  0  0  0
  -29.5976  -19.9654   17.0972 C   0  0  0  0  0  0  0  0  0  0  0  0
  -25.8631  -23.2862   17.3661 C   0  0  0  0  0  0  0  0  0  0  0  0
  -26.8605  -25.2000   18.5561 C   0  0  0  0  0  0  0  0  0  0  0  0
  -30.4258  -19.2903   19.8368 C   0  0  0  0  0  0  0  0  0  0  0  0
  -30.7683  -19.0287   17.3651 C   0  0  0  0  0  0  0  0  0  0  0  0
  -24.3014   -9.2023   21.2061 C   0  0  1  0  0  0  0  0  0  0  0  0
  -24.8175  -12.8808   22.0031 C   0  0  1  0  0  0  0  0  0  0  0  0
  -26.6155  -26.1201   17.3463 C   0  0  2  0  0  0  0  0  0  0  0  0
  -29.3957  -20.9553   18.2445 C   0  0  0  0  0  0  0  0  0  0  0  0
  -21.5812  -19.2932   19.7343 C   0  0  0  0  0  0  0  0  0  0  0  0
  -21.0233  -12.9074   18.7614 C   0  0  0  0  0  0  0  0  0  0  0  0
  -20.6754  -15.2526   17.9567 C   0  0  0  0  0  0  0  0  0  0  0  0
  -20.0252  -14.6242   20.2816 C   0  0  0  0  0  0  0  0  0  0  0  0
  -25.3579  -18.8899   19.5108 C   0  0  0  0  0  0  0  0  0  0  0  0
  -31.6287  -17.2991   18.9408 C   0  0  0  0  0  0  0  0  0  0  0  0
  -31.0861  -16.2319   19.8707 C   0  0  0  0  0  0  0  0  0  1  0  0
  -22.4753  -14.8288   19.6922 C   0  0  1  0  0  0  0  0  0  0  0  0
  -22.9139  -18.5867   19.9277 C   0  0  2  0  0  0  0  0  0  0  0  0
  -21.0759  -14.3920   19.1740 C   0  0  0  0  0  0  0  0  0  0  0  0
  -25.8502  -27.8354   18.9445 N   0  0  0  0  0  0  0  0  0  0  0  0
  -26.4318  -27.5676   17.7629 N   0  0  0  0  0  0  0  0  0  0  0  0
  -24.3197  -13.8295   21.0049 N   0  0  0  0  0  0  0  0  0  0  0  0
  -27.0136  -23.8091   18.1165 N   0  0  0  0  0  0  0  0  0  0  0  0
  -27.3944  -28.5917   15.8563 N   0  0  0  0  0  0  0  0  0  0  0  0
  -25.5972  -31.7946   16.8084 N   0  0  0  0  0  0  0  0  0  0  0  0
  -24.2482  -10.5420   21.7509 N   0  0  0  0  0  0  0  0  0  0  0  0
  -22.5473  -16.2231   20.1154 N   0  0  0  0  0  0  0  0  0  0  0  0
  -28.2511  -21.7965   17.9937 N   0  0  0  0  0  0  0  0  0  0  0  0
  -30.5588  -18.3245   18.6840 N   0  3  0  0  0  0  0  0  0  0  0  0
  -23.9903  -19.4521   19.3677 N   0  3  0  0  0  0  0  0  0  0  0  0
  -27.6585  -31.7583   17.8127 O   0  0  0  0  0  0  0  0  0  0  0  0
  -25.8746  -11.5119   20.3957 O   0  0  0  0  0  0  0  0  0  0  0  0
  -22.0973  -13.5412   21.6481 O   0  0  0  0  0  0  0  0  0  0  0  0
  -23.2280  -17.0753   18.0691 O   0  0  0  0  0  0  0  0  0  0  0  0
  -29.1156  -23.6217   19.0781 O   0  0  0  0  0  0  0  0  0  0  0  0
  -23.6993  -31.8401   23.4041 O   0  0  0  0  0  0  0  0  0  0  0  0
  -29.9687  -15.5887   19.2591 O   0  0  0  0  0  0  0  0  0  1  0  0
  -24.8996  -37.1894   23.9945 F   0  0  0  0  0  0  0  0  0  0  0  0
  -25.0151  -32.7583   25.6553 F   0  0  0  0  0  0  0  0  0  0  0  0
  1  2  1  0  0  0  0
  1  5  2  0  0  0  0
  2  6  2  0  0  0  0
  3  8  2  0  0  0  0
  3 15  1  0  0  0  0
  4  9  1  0  0  0  0
  4 15  2  0  0  0  0
  5 17  1  0  0  0  0
  6 19  1  0  0  0  0
  7 10  2  0  0  0  0
  7 18  1  0  0  0  0
  8 21  1  0  0  0  0
  9 21  2  0  0  0  0
 10 22  1  0  0  0  0
 11 12  2  0  0  0  0
 11 23  1  0  0  0  0
 12 24  1  0  0  0  0
 13 20  1  0  0  0  0
 13 22  2  0  0  0  0
 14 24  2  0  0  0  0
 14 25  1  0  0  0  0
 15 26  1  0  0  0  0
 16 26  1  0  0  0  0
 16 27  2  0  0  0  0
 16 28  1  0  0  0  0
 17 19  2  0  0  0  0
 17 33  1  0  0  0  0
 18 20  2  0  0  0  0
 18 34  1  0  0  0  0
 19 46  1  0  0  0  0
 20 35  1  0  0  0  0
 21 76  1  0  0  0  0
 22 77  1  0  0  0  0
 23 25  2  0  0  0  0
 23 76  1  0  0  0  0
 24 78  1  0  0  0  0
 25 79  1  0  0  0  0
 26 60  2  0  0  0  0
 27 61  1  0  0  0  0
 27 64  1  0  0  0  0
 28 65  1  0  0  0  0
 28 71  2  0  0  0  0
 29 47  1  0  0  0  0
 29 66  1  0  0  0  0
 29 72  2  0  0  0  0
 30 57  1  0  0  0  0
 30 62  1  0  0  0  0
 30 73  2  0  0  0  0
 31 58  1  0  0  0  0
 31 67  1  0  0  0  0
 31 74  2  0  0  0  0
 32 63  1  0  0  0  0
 32 68  1  0  0  0  0
 32 75  2  0  0  0  0
 33 36  1  0  0  0  0
 34 47  1  0  0  0  0
 35 62  1  0  0  0  0
 36 38  1  0  0  0  0
 37 39  1  0  0  0  0
 37 42  1  0  0  0  0
 38 46  1  0  0  0  0
 39 48  1  0  0  0  0
 40 44  1  0  0  0  0
 40 49  1  0  0  0  0
 41 45  1  0  0  0  0
 41 49  1  0  0  0  0
 42 63  1  0  0  0  0
 43 48  1  0  0  0  0
 43 63  1  0  0  0  0
 44 69  1  0  0  0  0
 45 69  1  0  0  0  0
 46 66  1  0  0  0  0
 47 62  1  0  0  0  0
 48 61  1  0  0  0  0
 49 68  1  0  0  0  0
 50 58  1  0  0  0  0
 51 59  1  0  0  0  0
 52 59  1  0  0  0  0
 53 59  1  0  0  0  0
 54 70  1  0  0  0  0
 55 56  1  0  0  0  0
 55 69  1  0  0  0  0
 56 77  1  0  0  0  0
 57 59  1  0  0  0  0
 57 67  1  0  0  0  0
 58 70  1  0  0  0  0
 60 61  1  0  0  0  0
M  CHG  2  69   1  70   1
M  ISO  4  32 100  56 101  68 100  77 101
M  END
> <Batch ID>
0003

> <Smiles>
CNC(C)C(=O)NC(C(=O)N1Cc2cc([101O:1][101CH2:1]CN3CCC([100NH:0][100C:0](=O)N4CCCC(n5nc(-c6ccc(Oc7ccc(F)cc7F)cc6)c(C(N)=O)c5N)C4)CC3)ccc2CC1C(=O)NC1CCCc2ccccc21)C(C)(C)C

> <Shape>
0.238

> <Color>
0.076

> <Negative vol penalty>
0.000

$$$$

  -OEChem-04042320203D

 85 94  0     1  0  0  0  0  0999 V2000
  -28.5308  -37.5854   24.5249 C   0  0  0  0  0  0  0  0  0  0  0  0
  -29.0622  -36.3985   24.0308 C   0  0  0  0  0  0  0  0  0  0  0  0
  -23.0325  -10.9053   22.6092 C   0  0  0  0  0  0  0  0  0  0  0  0
  -24.5201   -9.1840   21.7962 C   0  0  0  0  0  0  0  0  0  0  0  0
  -27.3486  -37.5642   25.2637 C   0  0  0  0  0  0  0  0  0  0  0  0
  -28.4122  -35.1894   24.2761 C   0  0  0  0  0  0  0  0  0  0  0  0
  -28.0917  -30.3555   20.5296 C   0  0  0  0  0  0  0  0  0  0  0  0
  -27.9453  -18.6812   21.4499 C   0  0  0  0  0  0  0  0  0  0  0  0
  -30.2173  -18.9187   20.6635 C   0  0  0  0  0  0  0  0  0  0  0  0
  -27.5634  -19.7785   20.6780 C   0  0  0  0  0  0  0  0  0  0  0  0
  -29.8355  -20.0159   19.8916 C   0  0  0  0  0  0  0  0  0  0  0  0
  -22.5209  -10.0166   23.5547 C   0  0  0  0  0  0  0  0  0  0  0  0
  -24.0085   -8.2953   22.7417 C   0  0  0  0  0  0  0  0  0  0  0  0
  -28.8129  -29.1638   20.4723 C   0  0  0  0  0  0  0  0  0  0  0  0
  -21.2563   -6.3676   23.1159 C   0  0  0  0  0  0  0  0  0  0  0  0
  -20.9457   -5.0762   22.6901 C   0  0  0  0  0  0  0  0  0  0  0  0
  -27.0838  -28.0631   21.7442 C   0  0  0  0  0  0  0  0  0  0  0  0
  -22.5291   -4.1726   24.2755 C   0  0  0  0  0  0  0  0  0  0  0  0
  -24.0321  -10.4890   21.7298 C   0  0  0  0  0  0  0  0  0  0  0  0
  -23.8493  -12.0615   19.7295 C   0  0  0  0  0  0  0  0  0  0  0  0
  -26.6786  -36.3555   25.5100 C   0  0  0  0  0  0  0  0  0  0  0  0
  -26.8642  -30.4128   21.2051 C   0  0  0  0  0  0  0  0  0  0  0  0
  -27.2206  -35.1519   25.0200 C   0  0  0  0  0  0  0  0  0  0  0  0
  -26.3477  -29.2562   21.8065 C   0  0  0  0  0  0  0  0  0  0  0  0
  -29.2723  -18.2513   21.4427 C   0  0  0  0  0  0  0  0  0  0  0  0
  -28.5085  -20.4458   19.8988 C   0  0  0  0  0  0  0  0  0  0  0  0
  -23.0089   -8.7116   23.6210 C   0  0  0  0  0  0  0  0  0  0  0  0
  -28.3104  -28.0180   21.0821 C   0  0  0  0  0  0  0  0  0  0  0  0
  -22.2034   -6.5615   24.1215 C   0  0  0  0  0  0  0  0  0  0  0  0
  -21.5820   -3.9786   23.2698 C   0  0  0  0  0  0  0  0  0  0  0  0
  -22.8397   -5.4640   24.7013 C   0  0  0  0  0  0  0  0  0  0  0  0
  -24.5606  -11.4064   20.7525 C   0  0  0  0  0  0  0  0  0  0  0  0
  -24.7968  -12.8148   19.0805 C   0  0  0  0  0  0  0  0  0  0  0  0
  -22.4565  -11.9950   19.3956 C   0  0  0  0  0  0  0  0  0  0  0  0
  -25.7574  -32.0205   23.7140 C   0  0  0  0  0  0  0  0  0  0  0  0
  -22.9448  -30.6480   22.8607 C   0  0  0  0  0  0  0  0  0  0  0  0
  -21.3313  -28.0969   21.2685 C   0  0  0  0  0  0  0  0  0  0  0  0
  -30.0522  -15.1155   20.7949 C   0  0  0  0  0  0  0  0  0  0  0  0
  -25.4288  -36.3771   26.3539 C   0  0  0  0  0  0  0  0  0  0  0  0
  -26.0856  -31.6994   21.2350 C   0  0  0  0  0  0  0  0  0  0  0  0
  -25.0249  -29.2599   22.5268 C   0  0  0  0  0  0  0  0  0  0  0  0
  -24.6021  -35.0980   26.2509 C   0  0  0  0  0  0  0  0  0  0  0  0
  -29.4736  -12.8926   18.0745 C   0  0  0  0  0  0  0  0  0  0  0  0
  -25.4993  -33.8708   26.3770 C   0  0  0  0  0  0  0  0  0  0  0  0
  -28.0847  -12.3187   18.3601 C   0  0  0  0  0  0  0  0  0  0  0  0
  -29.1982  -25.2830   19.2058 C   0  0  0  0  0  0  0  0  0  0  0  0
  -28.2336  -24.6233   21.4346 C   0  0  0  0  0  0  0  0  0  0  0  0
  -30.2702  -13.1084   19.3594 C   0  0  0  0  0  0  0  0  0  0  0  0
  -28.1962  -13.3446   20.6696 C   0  0  0  0  0  0  0  0  0  0  0  0
  -28.6354  -24.0120   18.5892 C   0  0  0  0  0  0  0  0  0  0  0  0
  -27.6723  -23.3540   20.8134 C   0  0  0  0  0  0  0  0  0  0  0  0
  -26.5316  -33.8233   25.2440 C   0  0  1  0  0  0  0  0  0  0  0  0
  -25.0918  -31.7698   22.3904 C   0  0  1  0  0  0  0  0  0  0  0  0
  -27.3344  -13.1619   19.4086 C   0  0  2  0  0  0  0  0  0  0  0  0
  -28.3770  -25.7420   20.4076 C   0  0  0  0  0  0  0  0  0  1  0  0
  -19.0305  -27.2255   20.7740 C   0  0  0  0  0  0  0  0  0  0  0  0
  -22.7206  -29.6212   25.7252 C   0  0  0  0  0  0  0  0  0  0  0  0
  -20.9657  -28.0179   24.9392 C   0  0  0  0  0  0  0  0  0  0  0  0
  -20.5807  -30.4754   24.7528 C   0  0  0  0  0  0  0  0  0  0  0  0
  -21.7367  -28.3510   18.3479 C   0  0  0  0  0  0  0  0  0  0  0  0
  -29.6814  -17.0783   22.2677 C   0  0  0  0  0  0  0  0  0  0  0  0
  -28.0966  -21.6249   19.0675 C   0  0  0  0  0  0  0  0  0  0  0  0
  -22.2370  -29.3592   23.2026 C   0  0  1  0  0  0  0  0  0  0  0  0
  -20.1773  -28.0948   20.2822 C   0  0  2  0  0  0  0  0  0  0  0  0
  -21.6519  -29.3685   24.6431 C   0  0  0  0  0  0  0  0  0  0  0  0
  -25.8598  -11.7162   20.7571 N   0  0  0  0  0  0  0  0  0  0  0  0
  -25.9724  -12.5743   19.7288 N   0  0  0  0  0  0  0  0  0  0  0  0
  -24.3042  -30.5437   22.5339 N   0  0  0  0  0  0  0  0  0  0  0  0
  -29.5034  -13.9165   20.3108 N   0  0  0  0  0  0  0  0  0  0  0  0
  -24.7308  -13.6528   18.0242 N   0  0  0  0  0  0  0  0  0  0  0  0
  -21.6235  -11.1718   20.1655 N   0  0  0  0  0  0  0  0  0  0  0  0
  -25.9166  -33.3587   24.0191 N   0  0  0  0  0  0  0  0  0  0  0  0
  -21.2432  -29.1490   22.1554 N   0  0  0  0  0  0  0  0  0  0  0  0
  -29.2571  -15.8235   21.6878 N   0  0  0  0  0  0  0  0  0  0  0  0
  -28.5401  -22.9393   19.6485 N   0  3  0  0  0  0  0  0  0  0  0  0
  -20.6272  -27.5754   18.9598 N   0  3  0  0  0  0  0  0  0  0  0  0
  -21.9683  -12.6337   18.4327 O   0  0  0  0  0  0  0  0  0  0  0  0
  -26.0997  -31.0701   24.4077 O   0  0  0  0  0  0  0  0  0  0  0  0
  -22.3130  -31.7074   22.8759 O   0  0  0  0  0  0  0  0  0  0  0  0
  -22.2197  -27.2478   21.2561 O   0  0  0  0  0  0  0  0  0  0  0  0
  -31.1657  -15.5273   20.4524 O   0  0  0  0  0  0  0  0  0  0  0  0
  -22.5101   -7.8442   24.5437 O   0  0  0  0  0  0  0  0  0  0  0  0
  -29.0127  -26.8537   21.0282 O   0  0  0  0  0  0  0  0  0  1  0  0
  -21.2825   -2.7385   22.8619 F   0  0  0  0  0  0  0  0  0  0  0  0
  -23.7495   -5.6440   25.6685 F   0  0  0  0  0  0  0  0  0  0  0  0
  1  2  1  0  0  0  0
  1  5  2  0  0  0  0
  2  6  2  0  0  0  0
  3 12  2  0  0  0  0
  3 19  1  0  0  0  0
  4 13  1  0  0  0  0
  4 19  2  0  0  0  0
  5 21  1  0  0  0  0
  6 23  1  0  0  0  0
  7 14  2  0  0  0  0
  7 22  1  0  0  0  0
  8 10  2  0  0  0  0
  8 25  1  0  0  0  0
  9 11  1  0  0  0  0
  9 25  2  0  0  0  0
 10 26  1  0  0  0  0
 11 26  2  0  0  0  0
 12 27  1  0  0  0  0
 13 27  2  0  0  0  0
 14 28  1  0  0  0  0
 15 16  2  0  0  0  0
 15 29  1  0  0  0  0
 16 30  1  0  0  0  0
 17 24  1  0  0  0  0
 17 28  2  0  0  0  0
 18 30  2  0  0  0  0
 18 31  1  0  0  0  0
 19 32  1  0  0  0  0
 20 32  1  0  0  0  0
 20 33  2  0  0  0  0
 20 34  1  0  0  0  0
 21 23  2  0  0  0  0
 21 39  1  0  0  0  0
 22 24  2  0  0  0  0
 22 40  1  0  0  0  0
 23 52  1  0  0  0  0
 24 41  1  0  0  0  0
 25 61  1  0  0  0  0
 26 62  1  0  0  0  0
 27 82  1  0  0  0  0
 28 83  1  0  0  0  0
 29 31  2  0  0  0  0
 29 82  1  0  0  0  0
 30 84  1  0  0  0  0
 31 85  1  0  0  0  0
 32 66  2  0  0  0  0
 33 67  1  0  0  0  0
 33 70  1  0  0  0  0
 34 71  1  0  0  0  0
 34 77  2  0  0  0  0
 35 53  1  0  0  0  0
 35 72  1  0  0  0  0
 35 78  2  0  0  0  0
 36 63  1  0  0  0  0
 36 68  1  0  0  0  0
 36 79  2  0  0  0  0
 37 64  1  0  0  0  0
 37 73  1  0  0  0  0
 37 80  2  0  0  0  0
 38 69  1  0  0  0  0
 38 74  1  0  0  0  0
 38 81  2  0  0  0  0
 39 42  1  0  0  0  0
 40 53  1  0  0  0  0
 41 68  1  0  0  0  0
 42 44  1  0  0  0  0
 43 45  1  0  0  0  0
 43 48  1  0  0  0  0
 44 52  1  0  0  0  0
 45 54  1  0  0  0  0
 46 50  1  0  0  0  0
 46 55  1  0  0  0  0
 47 51  1  0  0  0  0
 47 55  1  0  0  0  0
 48 69  1  0  0  0  0
 49 54  1  0  0  0  0
 49 69  1  0  0  0  0
 50 75  1  0  0  0  0
 51 75  1  0  0  0  0
 52 72  1  0  0  0  0
 53 68  1  0  0  0  0
 54 67  1  0  0  0  0
 55 83  1  0  0  0  0
 56 64  1  0  0  0  0
 57 65  1  0  0  0  0
 58 65  1  0  0  0  0
 59 65  1  0  0  0  0
 60 76  1  0  0  0  0
 61 74  1  0  0  0  0
 62 75  1  0  0  0  0
 63 65  1  0  0  0  0
 63 73  1  0  0  0  0
 64 76  1  0  0  0  0
 66 67  1  0  0  0  0
M  CHG  2  75   1  76   1
M  ISO  4  38 100  55 101  74 100  83 101
M  END
> <Batch ID>
0003

> <Smiles>
CNC(C)C(=O)NC(C(=O)N1Cc2cc([101O:1][101CH:1]3CCN(Cc4ccc(C[100NH:0][100C:0](=O)N5CCCC(n6nc(-c7ccc(Oc8ccc(F)cc8F)cc7)c(C(N)=O)c6N)C5)cc4)CC3)ccc2CC1C(=O)NC1CCCc2ccccc21)C(C)(C)C

> <Shape>
0.375

> <Color>
0.108

> <Negative vol penalty>
0.000

$$$$

  -OEChem-04042320203D

 83 91  0     1  0  0  0  0  0999 V2000
  -28.5290  -17.5739   22.7564 C   0  0  0  0  0  0  0  0  0  0  0  0
  -32.2819  -32.6716   21.7656 C   0  0  0  0  0  0  0  0  0  0  0  0
  -32.1452  -31.4318   22.3819 C   0  0  0  0  0  0  0  0  0  0  0  0
  -23.0613   -9.8457   20.0466 C   0  0  0  0  0  0  0  0  0  0  0  0
  -23.7799   -9.9866   22.3489 C   0  0  0  0  0  0  0  0  0  0  0  0
  -31.3297  -33.0978   20.8408 C   0  0  0  0  0  0  0  0  0  0  0  0
  -31.0554  -30.6180   22.0744 C   0  0  0  0  0  0  0  0  0  0  0  0
  -32.3842  -25.7868   21.3406 C   0  0  0  0  0  0  0  0  0  0  0  0
  -32.7239  -17.4981   23.2256 C   0  0  0  0  0  0  0  0  0  0  0  0
  -32.1100  -16.5795   22.3743 C   0  0  0  0  0  0  0  0  0  0  0  0
  -22.2946   -8.7220   20.3546 C   0  0  0  0  0  0  0  0  0  0  0  0
  -23.0132   -8.8629   22.6570 C   0  0  0  0  0  0  0  0  0  0  0  0
  -32.6312  -25.0150   22.4751 C   0  0  0  0  0  0  0  0  0  0  0  0
  -19.7623   -8.1532   23.2474 C   0  0  0  0  0  0  0  0  0  0  0  0
  -18.9839   -8.1989   24.4039 C   0  0  0  0  0  0  0  0  0  0  0  0
  -30.5673  -18.4513   23.7523 C   0  0  0  0  0  0  0  0  0  0  0  0
  -30.4276  -24.0507   22.2914 C   0  0  0  0  0  0  0  0  0  0  0  0
  -20.1805   -6.2936   25.2845 C   0  0  0  0  0  0  0  0  0  0  0  0
  -29.9534  -17.5327   22.9009 C   0  0  0  0  0  0  0  0  0  0  0  0
  -23.8041  -10.4780   21.0437 C   0  0  0  0  0  0  0  0  0  0  0  0
  -24.1886  -12.9851   20.7712 C   0  0  0  0  0  0  0  0  0  0  0  0
  -30.2328  -32.2848   20.5146 C   0  0  0  0  0  0  0  0  0  0  0  0
  -31.1510  -25.7042   20.6782 C   0  0  0  0  0  0  0  0  0  0  0  0
  -30.0868  -31.0344   21.1453 C   0  0  0  0  0  0  0  0  0  0  0  0
  -30.1685  -24.8206   21.1472 C   0  0  0  0  0  0  0  0  0  0  0  0
  -31.9526  -18.4340   23.9147 C   0  0  0  0  0  0  0  0  0  0  0  0
  -30.7248  -16.5968   22.2119 C   0  0  0  0  0  0  0  0  0  0  0  0
  -22.2705   -8.2306   21.6599 C   0  0  0  0  0  0  0  0  0  0  0  0
  -31.6518  -24.1489   22.9524 C   0  0  0  0  0  0  0  0  0  0  0  0
  -20.7498   -7.1777   23.1094 C   0  0  0  0  0  0  0  0  0  0  0  0
  -19.1930   -7.2691   25.4225 C   0  0  0  0  0  0  0  0  0  0  0  0
  -20.9589   -6.2480   24.1279 C   0  0  0  0  0  0  0  0  0  0  0  0
  -24.5967  -11.6386   20.7260 C   0  0  0  0  0  0  0  0  0  0  0  0
  -25.2991  -13.6937   20.3821 C   0  0  0  0  0  0  0  0  0  0  0  0
  -22.9193  -13.5454   21.1326 C   0  0  0  0  0  0  0  0  0  0  0  0
  -28.7948  -27.7467   20.0614 C   0  0  0  0  0  0  0  0  0  0  0  0
  -27.6241  -25.2682   18.3269 C   0  0  0  0  0  0  0  0  0  0  0  0
  -27.5218  -21.8992   17.7918 C   0  0  0  0  0  0  0  0  0  0  0  0
  -30.7774  -14.6665   20.5940 C   0  0  0  0  0  0  0  0  0  0  0  0
  -29.2040  -32.8086   19.5440 C   0  0  0  0  0  0  0  0  0  0  0  0
  -30.9101  -26.5237   19.4401 C   0  0  0  0  0  0  0  0  0  0  0  0
  -28.8354  -24.6799   20.4604 C   0  0  0  0  0  0  0  0  0  0  0  0
  -28.2783  -31.7263   18.9946 C   0  0  0  0  0  0  0  0  0  0  0  0
  -29.6669  -12.1243   18.3620 C   0  0  0  0  0  0  0  0  0  0  0  0
  -27.7714  -30.8340   20.1232 C   0  0  0  0  0  0  0  0  0  0  0  0
  -28.2153  -11.8821   18.7818 C   0  0  0  0  0  0  0  0  0  0  0  0
  -30.5639  -12.4151   19.5640 C   0  0  0  0  0  0  0  0  0  0  0  0
  -28.6443  -13.2541   20.8604 C   0  0  0  0  0  0  0  0  0  0  0  0
  -28.9317  -30.1126   20.8195 C   0  0  1  0  0  0  0  0  0  0  0  0
  -29.4289  -26.7389   19.1449 C   0  0  1  0  0  0  0  0  0  0  0  0
  -27.6902  -13.0211   19.6777 C   0  0  2  0  0  0  0  0  0  0  0  0
  -26.4459  -20.1691   16.3267 C   0  0  0  0  0  0  0  0  0  0  0  0
  -25.0203  -25.5680   19.8890 C   0  0  0  0  0  0  0  0  0  0  0  0
  -24.3601  -23.2888   19.0905 C   0  0  0  0  0  0  0  0  0  0  0  0
  -24.7257  -25.1276   17.4449 C   0  0  0  0  0  0  0  0  0  0  0  0
  -30.1369  -20.9925   16.7441 C   0  0  0  0  0  0  0  0  0  0  0  0
  -32.6136  -19.4223   24.8300 C   0  0  0  0  0  0  0  0  0  0  0  0
  -33.2419  -23.0092   24.3045 C   0  0  0  0  0  0  0  0  0  1  0  0
  -33.2535  -21.6751   25.0254 C   0  0  0  0  0  0  0  0  0  0  0  0
  -26.7162  -24.0968   18.6142 C   0  0  1  0  0  0  0  0  0  0  0  0
  -27.6505  -21.0765   16.5225 C   0  0  2  0  0  0  0  0  0  0  0  0
  -25.2299  -24.5242   18.7740 C   0  0  0  0  0  0  0  0  0  0  0  0
  -27.3749  -17.6072   22.6394 N   0  0  0  0  0  0  0  0  0  0  0  0
  -25.8672  -11.4975   20.3386 N   0  0  0  0  0  0  0  0  0  0  0  0
  -26.2670  -12.7646   20.1368 N   0  0  0  0  0  0  0  0  0  0  0  0
  -28.6453  -25.5070   19.2574 N   0  0  0  0  0  0  0  0  0  0  0  0
  -30.0059  -13.5077   20.3638 N   0  0  0  0  0  0  0  0  0  0  0  0
  -25.5322  -15.0145   20.2292 N   0  0  0  0  0  0  0  0  0  0  0  0
  -21.8870  -12.6746   21.5073 N   0  0  0  0  0  0  0  0  0  0  0  0
  -30.1304  -15.6511   21.3400 N   0  0  0  0  0  0  0  0  0  0  0  0
  -29.3853  -28.9953   20.0193 N   0  0  0  0  0  0  0  0  0  0  0  0
  -26.9484  -23.1291   17.5473 N   0  0  0  0  0  0  0  0  0  0  0  0
  -28.8742  -20.2278   16.5772 N   0  3  0  0  0  0  0  0  0  0  0  0
  -22.7019  -14.7805   21.1077 O   0  0  0  0  0  0  0  0  0  0  0  0
  -27.8396  -27.4164   20.7543 O   0  0  0  0  0  0  0  0  0  0  0  0
  -27.4385  -25.9420   17.3104 O   0  0  0  0  0  0  0  0  0  0  0  0
  -27.8894  -21.4901   18.8909 O   0  0  0  0  0  0  0  0  0  0  0  0
  -31.9172  -14.7883   20.1382 O   0  0  0  0  0  0  0  0  0  0  0  0
  -21.5223   -7.1342   21.9609 O   0  0  0  0  0  0  0  0  0  0  0  0
  -31.8900  -23.3950   24.0599 O   0  0  0  0  0  0  0  0  0  1  0  0
  -32.6357  -20.6954   24.1998 O   0  0  0  0  0  0  0  0  0  0  0  0
  -18.4464   -7.3140   26.5337 F   0  0  0  0  0  0  0  0  0  0  0  0
  -21.9068   -5.3092   24.0016 F   0  0  0  0  0  0  0  0  0  0  0  0
  1 19  1  0  0  0  0
  1 63  3  0  0  0  0
  2  3  1  0  0  0  0
  2  6  2  0  0  0  0
  3  7  2  0  0  0  0
  4 11  2  0  0  0  0
  4 20  1  0  0  0  0
  5 12  1  0  0  0  0
  5 20  2  0  0  0  0
  6 22  1  0  0  0  0
  7 24  1  0  0  0  0
  8 13  2  0  0  0  0
  8 23  1  0  0  0  0
  9 10  2  0  0  0  0
  9 26  1  0  0  0  0
 10 27  1  0  0  0  0
 11 28  1  0  0  0  0
 12 28  2  0  0  0  0
 13 29  1  0  0  0  0
 14 15  2  0  0  0  0
 14 30  1  0  0  0  0
 15 31  1  0  0  0  0
 16 19  1  0  0  0  0
 16 26  2  0  0  0  0
 17 25  1  0  0  0  0
 17 29  2  0  0  0  0
 18 31  2  0  0  0  0
 18 32  1  0  0  0  0
 19 27  2  0  0  0  0
 20 33  1  0  0  0  0
 21 33  1  0  0  0  0
 21 34  2  0  0  0  0
 21 35  1  0  0  0  0
 22 24  2  0  0  0  0
 22 40  1  0  0  0  0
 23 25  2  0  0  0  0
 23 41  1  0  0  0  0
 24 49  1  0  0  0  0
 25 42  1  0  0  0  0
 26 57  1  0  0  0  0
 27 70  1  0  0  0  0
 28 79  1  0  0  0  0
 29 80  1  0  0  0  0
 30 32  2  0  0  0  0
 30 79  1  0  0  0  0
 31 82  1  0  0  0  0
 32 83  1  0  0  0  0
 33 64  2  0  0  0  0
 34 65  1  0  0  0  0
 34 68  1  0  0  0  0
 35 69  1  0  0  0  0
 35 74  2  0  0  0  0
 36 50  1  0  0  0  0
 36 71  1  0  0  0  0
 36 75  2  0  0  0  0
 37 60  1  0  0  0  0
 37 66  1  0  0  0  0
 37 76  2  0  0  0  0
 38 61  1  0  0  0  0
 38 72  1  0  0  0  0
 38 77  2  0  0  0  0
 39 67  1  0  0  0  0
 39 70  1  0  0  0  0
 39 78  2  0  0  0  0
 40 43  1  0  0  0  0
 41 50  1  0  0  0  0
 42 66  1  0  0  0  0
 43 45  1  0  0  0  0
 44 46  1  0  0  0  0
 44 47  1  0  0  0  0
 45 49  1  0  0  0  0
 46 51  1  0  0  0  0
 47 67  1  0  0  0  0
 48 51  1  0  0  0  0
 48 67  1  0  0  0  0
 49 71  1  0  0  0  0
 50 66  1  0  0  0  0
 51 65  1  0  0  0  0
 52 61  1  0  0  0  0
 53 62  1  0  0  0  0
 54 62  1  0  0  0  0
 55 62  1  0  0  0  0
 56 73  1  0  0  0  0
 57 81  1  0  0  0  0
 58 59  1  0  0  0  0
 58 80  1  0  0  0  0
 59 81  1  0  0  0  0
 60 62  1  0  0  0  0
 60 72  1  0  0  0  0
 61 73  1  0  0  0  0
 64 65  1  0  0  0  0
M  CHG  1  73   1
M  ISO  4  39 100  58 101  70 100  80 101
M  END
> <Batch ID>
0003

> <Smiles>
CNC(C)C(=O)NC(C(=O)N1Cc2cc([101O:1][101CH2:1]COCc3ccc([100NH:0][100C:0](=O)N4CCCC(n5nc(-c6ccc(Oc7ccc(F)cc7F)cc6)c(C(N)=O)c5N)C4)c(C#N)c3)ccc2CC1C(=O)NC1CCCc2ccccc21)C(C)(C)C

> <Shape>
0.233

> <Color>
0.194

> <Negative vol penalty>
0.000

$$$$

  -OEChem-04042320203D

 81 89  0     1  0  0  0  0  0999 V2000
  -25.2681  -31.6434   24.3631 C   0  0  0  0  0  0  0  0  0  0  0  0
  -26.0192  -30.4975   24.6040 C   0  0  0  0  0  0  0  0  0  0  0  0
  -23.3378   -9.8631   21.0434 C   0  0  0  0  0  0  0  0  0  0  0  0
  -23.9482  -10.6260   23.2531 C   0  0  0  0  0  0  0  0  0  0  0  0
  -24.6097  -31.8005   23.1442 C   0  0  0  0  0  0  0  0  0  0  0  0
  -26.1116  -29.5074   23.6264 C   0  0  0  0  0  0  0  0  0  0  0  0
  -30.9557  -25.9571   22.4283 C   0  0  0  0  0  0  0  0  0  0  0  0
  -30.9308  -16.2650   23.9291 C   0  0  0  0  0  0  0  0  0  0  0  0
  -32.9439  -16.2358   22.5934 C   0  0  0  0  0  0  0  0  0  0  0  0
  -30.9434  -17.6598   23.9175 C   0  0  0  0  0  0  0  0  0  0  0  0
  -32.9564  -17.6306   22.5819 C   0  0  0  0  0  0  0  0  0  0  0  0
  -22.6435   -8.7917   21.6051 C   0  0  0  0  0  0  0  0  0  0  0  0
  -23.2539   -9.5545   23.8148 C   0  0  0  0  0  0  0  0  0  0  0  0
  -31.2773  -24.6524   22.8001 C   0  0  0  0  0  0  0  0  0  0  0  0
  -19.6564   -8.2686   23.1008 C   0  0  0  0  0  0  0  0  0  0  0  0
  -18.3877   -7.9827   22.5968 C   0  0  0  0  0  0  0  0  0  0  0  0
  -30.3960  -23.8446   20.7049 C   0  0  0  0  0  0  0  0  0  0  0  0
  -19.1358   -5.7735   21.9668 C   0  0  0  0  0  0  0  0  0  0  0  0
  -23.9902  -10.7803   21.8674 C   0  0  0  0  0  0  0  0  0  0  0  0
  -24.2008  -13.1652   20.9868 C   0  0  0  0  0  0  0  0  0  0  0  0
  -24.7018  -30.8162   22.1475 C   0  0  0  0  0  0  0  0  0  0  0  0
  -30.3408  -26.2146   21.1946 C   0  0  0  0  0  0  0  0  0  0  0  0
  -25.4527  -29.6508   22.3935 C   0  0  0  0  0  0  0  0  0  0  0  0
  -30.0699  -25.1536   20.3187 C   0  0  0  0  0  0  0  0  0  0  0  0
  -31.9311  -15.5530   23.2670 C   0  0  0  0  0  0  0  0  0  0  0  0
  -31.9562  -18.3425   23.2439 C   0  0  0  0  0  0  0  0  0  0  0  0
  -22.6015   -8.6374   22.9908 C   0  0  0  0  0  0  0  0  0  0  0  0
  -30.9948  -23.5956   21.9396 C   0  0  0  0  0  0  0  0  0  0  0  0
  -20.6649   -7.3070   23.0377 C   0  0  0  0  0  0  0  0  0  0  0  0
  -18.1273   -6.7352   22.0298 C   0  0  0  0  0  0  0  0  0  0  0  0
  -20.4046   -6.0595   22.4708 C   0  0  0  0  0  0  0  0  0  0  0  0
  -24.7081  -11.8869   21.2878 C   0  0  0  0  0  0  0  0  0  0  0  0
  -25.2714  -13.8437   20.4577 C   0  0  0  0  0  0  0  0  0  0  0  0
  -22.8800  -13.6922   21.1693 C   0  0  0  0  0  0  0  0  0  0  0  0
  -27.5605  -27.4624   20.2910 C   0  0  0  0  0  0  0  0  0  0  0  0
  -28.8498  -27.1990   17.3261 C   0  0  0  0  0  0  0  0  0  0  0  0
  -31.0961  -25.6586   15.2700 C   0  0  0  0  0  0  0  0  0  0  0  0
  -31.1958  -13.2188   21.0597 C   0  0  0  0  0  0  0  0  0  0  0  0
  -23.9339  -31.0089   20.8638 C   0  0  0  0  0  0  0  0  0  0  0  0
  -30.0246  -27.6303   20.7970 C   0  0  0  0  0  0  0  0  0  0  0  0
  -29.4293  -25.3790   18.9744 C   0  0  0  0  0  0  0  0  0  0  0  0
  -24.3884  -30.0841   19.7375 C   0  0  0  0  0  0  0  0  0  0  0  0
  -29.3302  -13.1249   18.0286 C   0  0  0  0  0  0  0  0  0  0  0  0
  -24.5338  -28.6537   20.2471 C   0  0  0  0  0  0  0  0  0  0  0  0
  -27.8883  -12.9123   18.4930 C   0  0  0  0  0  0  0  0  0  0  0  0
  -30.3232  -12.3642   18.9046 C   0  0  0  0  0  0  0  0  0  0  0  0
  -28.7664  -12.4225   20.8142 C   0  0  0  0  0  0  0  0  0  0  0  0
  -25.5971  -28.5658   21.3485 C   0  0  1  0  0  0  0  0  0  0  0  0
  -28.9323  -27.7232   19.7360 C   0  0  1  0  0  0  0  0  0  0  0  0
  -27.7328  -13.2148   19.9956 C   0  0  2  0  0  0  0  0  0  0  0  0
  -31.8913  -25.6306   12.8900 C   0  0  0  0  0  0  0  0  0  0  0  0
  -26.3444  -25.6606   16.5097 C   0  0  0  0  0  0  0  0  0  0  0  0
  -27.5805  -24.8595   14.4852 C   0  0  0  0  0  0  0  0  0  0  0  0
  -27.1645  -27.2980   14.8065 C   0  0  0  0  0  0  0  0  0  0  0  0
  -33.8407  -26.4387   16.0559 C   0  0  0  0  0  0  0  0  0  0  0  0
  -31.9187  -14.0618   23.2792 C   0  0  0  0  0  0  0  0  0  0  0  0
  -30.9723  -20.5435   23.8871 C   0  0  0  0  0  0  0  0  0  0  0  0
  -31.2875  -22.0174   23.6944 C   0  0  0  0  0  0  0  0  0  1  0  0
  -28.8711  -26.1297   16.2607 C   0  0  1  0  0  0  0  0  0  0  0  0
  -32.1007  -26.2162   14.2778 C   0  0  2  0  0  0  0  0  0  0  0  0
  -27.5004  -25.9822   15.5416 C   0  0  0  0  0  0  0  0  0  0  0  0
  -26.0004  -11.7585   20.9756 N   0  0  0  0  0  0  0  0  0  0  0  0
  -26.3142  -12.9647   20.4730 N   0  0  0  0  0  0  0  0  0  0  0  0
  -29.1333  -26.7804   18.6338 N   0  0  0  0  0  0  0  0  0  0  0  0
  -30.1238  -12.6969   20.3172 N   0  0  0  0  0  0  0  0  0  0  0  0
  -25.4132  -15.1004   19.9855 N   0  0  0  0  0  0  0  0  0  0  0  0
  -21.8997  -12.8599   21.7266 N   0  0  0  0  0  0  0  0  0  0  0  0
  -31.9680  -19.7275   23.2307 N   0  0  0  0  0  0  0  0  0  0  0  0
  -26.9246  -28.5907   20.7726 N   0  0  0  0  0  0  0  0  0  0  0  0
  -29.9795  -26.4611   15.3719 N   0  0  0  0  0  0  0  0  0  0  0  0
  -30.9198  -13.5130   22.3894 N   0  0  0  0  0  0  0  0  0  0  0  0
  -33.4902  -25.9022   14.7156 N   0  3  0  0  0  0  0  0  0  0  0  0
  -22.5738  -14.8610   20.8325 O   0  0  0  0  0  0  0  0  0  0  0  0
  -27.1116  -26.3221   20.2815 O   0  0  0  0  0  0  0  0  0  0  0  0
  -28.5981  -28.3641   17.0085 O   0  0  0  0  0  0  0  0  0  0  0  0
  -31.2817  -24.6135   15.8897 O   0  0  0  0  0  0  0  0  0  0  0  0
  -32.3145  -13.4135   20.5723 O   0  0  0  0  0  0  0  0  0  0  0  0
  -21.9239   -7.5921   23.5393 O   0  0  0  0  0  0  0  0  0  0  0  0
  -31.3071  -22.3212   22.3003 O   0  0  0  0  0  0  0  0  0  1  0  0
  -16.9084   -6.4602   21.5472 F   0  0  0  0  0  0  0  0  0  0  0  0
  -21.3691   -5.1312   22.4085 F   0  0  0  0  0  0  0  0  0  0  0  0
  1  2  1  0  0  0  0
  1  5  2  0  0  0  0
  2  6  2  0  0  0  0
  3 12  2  0  0  0  0
  3 19  1  0  0  0  0
  4 13  1  0  0  0  0
  4 19  2  0  0  0  0
  5 21  1  0  0  0  0
  6 23  1  0  0  0  0
  7 14  2  0  0  0  0
  7 22  1  0  0  0  0
  8 10  2  0  0  0  0
  8 25  1  0  0  0  0
  9 11  1  0  0  0  0
  9 25  2  0  0  0  0
 10 26  1  0  0  0  0
 11 26  2  0  0  0  0
 12 27  1  0  0  0  0
 13 27  2  0  0  0  0
 14 28  1  0  0  0  0
 15 16  2  0  0  0  0
 15 29  1  0  0  0  0
 16 30  1  0  0  0  0
 17 24  1  0  0  0  0
 17 28  2  0  0  0  0
 18 30  2  0  0  0  0
 18 31  1  0  0  0  0
 19 32  1  0  0  0  0
 20 32  1  0  0  0  0
 20 33  2  0  0  0  0
 20 34  1  0  0  0  0
 21 23  2  0  0  0  0
 21 39  1  0  0  0  0
 22 24  2  0  0  0  0
 22 40  1  0  0  0  0
 23 48  1  0  0  0  0
 24 41  1  0  0  0  0
 25 56  1  0  0  0  0
 26 68  1  0  0  0  0
 27 78  1  0  0  0  0
 28 79  1  0  0  0  0
 29 31  2  0  0  0  0
 29 78  1  0  0  0  0
 30 80  1  0  0  0  0
 31 81  1  0  0  0  0
 32 62  2  0  0  0  0
 33 63  1  0  0  0  0
 33 66  1  0  0  0  0
 34 67  1  0  0  0  0
 34 73  2  0  0  0  0
 35 49  1  0  0  0  0
 35 69  1  0  0  0  0
 35 74  2  0  0  0  0
 36 59  1  0  0  0  0
 36 64  1  0  0  0  0
 36 75  2  0  0  0  0
 37 60  1  0  0  0  0
 37 70  1  0  0  0  0
 37 76  2  0  0  0  0
 38 65  1  0  0  0  0
 38 71  1  0  0  0  0
 38 77  2  0  0  0  0
 39 42  1  0  0  0  0
 40 49  1  0  0  0  0
 41 64  1  0  0  0  0
 42 44  1  0  0  0  0
 43 45  1  0  0  0  0
 43 46  1  0  0  0  0
 44 48  1  0  0  0  0
 45 50  1  0  0  0  0
 46 65  1  0  0  0  0
 47 50  1  0  0  0  0
 47 65  1  0  0  0  0
 48 69  1  0  0  0  0
 49 64  1  0  0  0  0
 50 63  1  0  0  0  0
 51 60  1  0  0  0  0
 52 61  1  0  0  0  0
 53 61  1  0  0  0  0
 54 61  1  0  0  0  0
 55 72  1  0  0  0  0
 56 71  1  0  0  0  0
 57 58  1  0  0  0  0
 57 68  1  0  0  0  0
 58 79  1  0  0  0  0
 59 61  1  0  0  0  0
 59 70  1  0  0  0  0
 60 72  1  0  0  0  0
 62 63  1  0  0  0  0
M  CHG  1  72   1
M  ISO  4  38 100  58 101  71 100  79 101
M  END
> <Batch ID>
0003

> <Smiles>
CNC(C)C(=O)NC(C(=O)N1Cc2cc([101O:1][101CH2:1]CNc3ccc(C[100NH:0][100C:0](=O)N4CCCC(n5nc(-c6ccc(Oc7ccc(F)cc7F)cc6)c(C(N)=O)c5N)C4)cc3)ccc2CC1C(=O)NC1CCCc2ccccc21)C(C)(C)C

> <Shape>
0.259

> <Color>
0.159

> <Negative vol penalty>
0.000

$$$$

  -OEChem-04042320203D

 82 91  0     1  0  0  0  0  0999 V2000
  -26.2386  -34.7201   21.5340 C   0  0  0  0  0  0  0  0  0  0  0  0
  -26.4434  -33.4166   21.0930 C   0  0  0  0  0  0  0  0  0  0  0  0
  -26.7072  -12.6351   21.7293 C   0  0  0  0  0  0  0  0  0  0  0  0
  -26.1454  -13.9771   19.8005 C   0  0  0  0  0  0  0  0  0  0  0  0
  -25.3961  -34.9638   22.6178 C   0  0  0  0  0  0  0  0  0  0  0  0
  -25.8065  -32.3559   21.7363 C   0  0  0  0  0  0  0  0  0  0  0  0
  -23.8015  -29.0328   18.4833 C   0  0  0  0  0  0  0  0  0  0  0  0
  -28.6317  -22.6257   18.2028 C   0  0  0  0  0  0  0  0  0  0  0  0
  -29.1418  -21.4657   18.7948 C   0  0  0  0  0  0  0  0  0  0  0  0
  -25.4079  -12.1285   21.7553 C   0  0  0  0  0  0  0  0  0  0  0  0
  -24.8461  -13.4705   19.8264 C   0  0  0  0  0  0  0  0  0  0  0  0
  -24.6740  -28.1310   17.8756 C   0  0  0  0  0  0  0  0  0  0  0  0
  -23.6103   -9.7954   20.0944 C   0  0  0  0  0  0  0  0  0  0  0  0
  -23.4538   -8.4214   20.2759 C   0  0  0  0  0  0  0  0  0  0  0  0
  -29.7167  -22.6917   20.8098 C   0  0  0  0  0  0  0  0  0  0  0  0
  -24.0046  -26.4312   19.4511 C   0  0  0  0  0  0  0  0  0  0  0  0
  -22.1843   -8.8320   22.2901 C   0  0  0  0  0  0  0  0  0  0  0  0
  -27.0760  -13.5595   20.7519 C   0  0  0  0  0  0  0  0  0  0  0  0
  -29.5238  -13.5535   20.0337 C   0  0  0  0  0  0  0  0  0  0  0  0
  -24.7410  -33.9064   23.2686 C   0  0  0  0  0  0  0  0  0  0  0  0
  -23.0308  -28.6432   19.5881 C   0  0  0  0  0  0  0  0  0  0  0  0
  -24.9555  -32.5856   22.8307 C   0  0  0  0  0  0  0  0  0  0  0  0
  -29.2159  -23.8326   20.2060 C   0  0  0  0  0  0  0  0  0  0  0  0
  -23.1212  -27.3293   20.0694 C   0  0  0  0  0  0  0  0  0  0  0  0
  -28.6723  -23.8145   18.9151 C   0  0  0  0  0  0  0  0  0  0  0  0
  -29.6804  -21.4986   20.0894 C   0  0  0  0  0  0  0  0  0  0  0  0
  -24.4773  -12.5461   20.8038 C   0  0  0  0  0  0  0  0  0  0  0  0
  -24.7777  -26.8308   18.3613 C   0  0  0  0  0  0  0  0  0  0  0  0
  -23.0538  -10.6879   21.0108 C   0  0  0  0  0  0  0  0  0  0  0  0
  -22.7408   -7.9396   21.3737 C   0  0  0  0  0  0  0  0  0  0  0  0
  -22.3408  -10.2061   22.1086 C   0  0  0  0  0  0  0  0  0  0  0  0
  -28.4179  -14.0836   20.7249 C   0  0  0  0  0  0  0  0  0  0  0  0
  -30.5558  -14.4106   20.3284 C   0  0  0  0  0  0  0  0  0  0  0  0
  -29.6104  -12.3904   19.1998 C   0  0  0  0  0  0  0  0  0  0  0  0
  -22.8277  -29.5721   22.6212 C   0  0  0  0  0  0  0  0  0  0  0  0
  -20.3331  -27.4994   22.6820 C   0  0  0  0  0  0  0  0  0  0  0  0
  -18.8153  -24.7525   21.3412 C   0  0  0  0  0  0  0  0  0  0  0  0
  -30.7530  -20.1622   21.9360 C   0  0  0  0  0  0  0  0  0  0  0  0
  -23.8768  -34.2148   24.4656 C   0  0  0  0  0  0  0  0  0  0  0  0
  -22.0747  -29.6201   20.2156 C   0  0  0  0  0  0  0  0  0  0  0  0
  -29.1108  -25.2126   20.7706 C   0  0  0  0  0  0  0  0  0  0  0  0
  -22.3007  -26.8553   21.2400 C   0  0  0  0  0  0  0  0  0  0  0  0
  -22.9459  -33.0697   24.8560 C   0  0  0  0  0  0  0  0  0  0  0  0
  -32.0823  -17.3988   23.7452 C   0  0  0  0  0  0  0  0  0  0  0  0
  -23.7056  -31.7471   24.8752 C   0  0  0  0  0  0  0  0  0  0  0  0
  -31.3987  -16.1863   23.1091 C   0  0  0  0  0  0  0  0  0  0  0  0
  -28.7436  -26.0247   19.5120 C   0  0  0  0  0  0  0  0  0  0  0  0
  -31.1427  -18.6004   23.8291 C   0  0  0  0  0  0  0  0  0  0  0  0
  -29.8196  -17.7656   21.9261 C   0  0  0  0  0  0  0  0  0  0  0  0
  -24.2631  -31.4108   23.4868 C   0  0  1  0  0  0  0  0  0  0  0  0
  -21.7177  -29.2656   21.6559 C   0  0  1  0  0  0  0  0  0  0  0  0
  -30.7465  -16.5502   21.7608 C   0  0  2  0  0  0  0  0  0  0  0  0
  -16.8079  -23.2743   21.6282 C   0  0  0  0  0  0  0  0  0  0  0  0
  -21.6600  -26.1681   25.0855 C   0  0  0  0  0  0  0  0  0  0  0  0
  -20.1624  -24.1934   24.7304 C   0  0  0  0  0  0  0  0  0  0  0  0
  -19.1789  -26.4212   25.2711 C   0  0  0  0  0  0  0  0  0  0  0  0
  -17.7983  -25.4135   18.6417 C   0  0  0  0  0  0  0  0  0  0  0  0
  -27.9064  -25.4428   17.1807 C   0  0  0  0  0  0  0  0  0  0  0  0
  -26.8024  -26.4866   17.1619 C   0  0  0  0  0  0  0  0  0  1  0  0
  -20.1726  -26.0282   22.9798 C   0  0  1  0  0  0  0  0  0  0  0  0
  -17.3773  -24.4978   20.9271 C   0  0  2  0  0  0  0  0  0  0  0  0
  -20.3105  -25.7119   24.4958 C   0  0  0  0  0  0  0  0  0  0  0  0
  -28.7191  -15.1915   21.4074 N   0  0  0  0  0  0  0  0  0  0  0  0
  -30.0260  -15.3645   21.1466 N   0  0  0  0  0  0  0  0  0  0  0  0
  -28.2201  -25.0707   18.5368 N   0  0  1  0  0  0  0  0  0  0  0  0
  -21.3849  -27.8495   21.8235 N   0  0  0  0  0  0  0  0  0  0  0  0
  -30.5657  -18.8890   22.5143 N   0  0  0  0  0  0  0  0  0  0  0  0
  -31.8557  -14.4337   19.9650 N   0  0  0  0  0  0  0  0  0  0  0  0
  -28.4550  -11.6221   19.0027 N   0  0  0  0  0  0  0  0  0  0  0  0
  -30.1869  -20.3095   20.6702 N   0  0  0  0  0  0  0  0  0  0  0  0
  -23.2141  -30.8988   22.6314 N   0  0  0  0  0  0  0  0  0  0  0  0
  -18.8937  -25.6316   22.4006 N   0  0  0  0  0  0  0  0  0  0  0  0
  -17.2932  -24.2779   19.4555 N   0  3  0  0  0  0  0  0  0  0  0  0
  -30.6846  -12.0336   18.6591 O   0  0  0  0  0  0  0  0  0  0  0  0
  -23.2976  -28.6719   23.3070 O   0  0  0  0  0  0  0  0  0  0  0  0
  -19.5496  -28.3075   23.1866 O   0  0  0  0  0  0  0  0  0  0  0  0
  -19.7732  -24.2216   20.7834 O   0  0  0  0  0  0  0  0  0  0  0  0
  -31.3934  -21.0474   22.5090 O   0  0  0  0  0  0  0  0  0  0  0  0
  -23.2094  -12.0518   20.8287 O   0  0  0  0  0  0  0  0  0  0  0  0
  -25.6290  -25.9487   17.7704 O   0  0  0  0  0  0  0  0  0  1  0  0
  -22.5893   -6.6201   21.5470 F   0  0  0  0  0  0  0  0  0  0  0  0
  -21.8030  -11.0586   22.9916 F   0  0  0  0  0  0  0  0  0  0  0  0
  1  2  1  0  0  0  0
  1  5  2  0  0  0  0
  2  6  2  0  0  0  0
  3 10  2  0  0  0  0
  3 18  1  0  0  0  0
  4 11  1  0  0  0  0
  4 18  2  0  0  0  0
  5 20  1  0  0  0  0
  6 22  1  0  0  0  0
  7 12  2  0  0  0  0
  7 21  1  0  0  0  0
  8  9  2  0  0  0  0
  8 25  1  0  0  0  0
  9 26  1  0  0  0  0
 10 27  1  0  0  0  0
 11 27  2  0  0  0  0
 12 28  1  0  0  0  0
 13 14  2  0  0  0  0
 13 29  1  0  0  0  0
 14 30  1  0  0  0  0
 15 23  1  0  0  0  0
 15 26  2  0  0  0  0
 16 24  1  0  0  0  0
 16 28  2  0  0  0  0
 17 30  2  0  0  0  0
 17 31  1  0  0  0  0
 18 32  1  0  0  0  0
 19 32  1  0  0  0  0
 19 33  2  0  0  0  0
 19 34  1  0  0  0  0
 20 22  2  0  0  0  0
 20 39  1  0  0  0  0
 21 24  2  0  0  0  0
 21 40  1  0  0  0  0
 22 50  1  0  0  0  0
 23 25  2  0  0  0  0
 23 41  1  0  0  0  0
 24 42  1  0  0  0  0
 25 65  1  0  0  0  0
 26 70  1  0  0  0  0
 27 79  1  0  0  0  0
 28 80  1  0  0  0  0
 29 31  2  0  0  0  0
 29 79  1  0  0  0  0
 30 81  1  0  0  0  0
 31 82  1  0  0  0  0
 32 63  2  0  0  0  0
 33 64  1  0  0  0  0
 33 68  1  0  0  0  0
 34 69  1  0  0  0  0
 34 74  2  0  0  0  0
 35 51  1  0  0  0  0
 35 71  1  0  0  0  0
 35 75  2  0  0  0  0
 36 60  1  0  0  0  0
 36 66  1  0  0  0  0
 36 76  2  0  0  0  0
 37 61  1  0  0  0  0
 37 72  1  0  0  0  0
 37 77  2  0  0  0  0
 38 67  1  0  0  0  0
 38 70  1  0  0  0  0
 38 78  2  0  0  0  0
 39 43  1  0  0  0  0
 40 51  1  0  0  0  0
 41 47  1  0  0  0  0
 42 66  1  0  0  0  0
 43 45  1  0  0  0  0
 44 46  1  0  0  0  0
 44 48  1  0  0  0  0
 45 50  1  0  0  0  0
 46 52  1  0  0  0  0
 47 65  1  0  0  0  0
 48 67  1  0  0  0  0
 49 52  1  0  0  0  0
 49 67  1  0  0  0  0
 50 71  1  0  0  0  0
 51 66  1  0  0  0  0
 52 64  1  0  0  0  0
 53 61  1  0  0  0  0
 54 62  1  0  0  0  0
 55 62  1  0  0  0  0
 56 62  1  0  0  0  0
 57 73  1  0  0  0  0
 58 59  1  0  0  0  0
 58 65  1  0  0  0  0
 59 80  1  0  0  0  0
 60 62  1  0  0  0  0
 60 72  1  0  0  0  0
 61 73  1  0  0  0  0
 63 64  1  0  0  0  0
M  CHG  1  73   1
M  ISO  4  38 100  59 101  70 100  80 101
M  END
> <Batch ID>
0003

> <Smiles>
CNC(C)C(=O)NC(C(=O)N1Cc2cc([101O:1][101CH2:1]CN3CCc4cc([100NH:0][100C:0](=O)N5CCCC(n6nc(-c7ccc(Oc8ccc(F)cc8F)cc7)c(C(N)=O)c6N)C5)ccc43)ccc2CC1C(=O)NC1CCCc2ccccc21)C(C)(C)C

> <Shape>
0.314

> <Color>
0.067

> <Negative vol penalty>
0.000

$$$$

  -OEChem-04042320203D

 78 86  0     1  0  0  0  0  0999 V2000
  -28.0667  -37.0392   21.1568 C   0  0  0  0  0  0  0  0  0  0  0  0
  -28.4786  -35.7212   20.9880 C   0  0  0  0  0  0  0  0  0  0  0  0
  -26.8779  -12.7381   21.8118 C   0  0  0  0  0  0  0  0  0  0  0  0
  -26.2289  -14.3697   20.1524 C   0  0  0  0  0  0  0  0  0  0  0  0
  -26.9484  -37.3241   21.9392 C   0  0  0  0  0  0  0  0  0  0  0  0
  -27.7731  -34.6872   21.6025 C   0  0  0  0  0  0  0  0  0  0  0  0
  -26.8406  -29.0494   19.4001 C   0  0  0  0  0  0  0  0  0  0  0  0
  -29.9140  -23.9385   21.6652 C   0  0  0  0  0  0  0  0  0  0  0  0
  -29.0925  -23.0456   19.5759 C   0  0  0  0  0  0  0  0  0  0  0  0
  -30.3903  -22.6757   22.0176 C   0  0  0  0  0  0  0  0  0  0  0  0
  -29.5689  -21.7828   19.9283 C   0  0  0  0  0  0  0  0  0  0  0  0
  -25.5581  -12.2939   21.8913 C   0  0  0  0  0  0  0  0  0  0  0  0
  -24.9090  -13.9255   20.2318 C   0  0  0  0  0  0  0  0  0  0  0  0
  -27.4760  -27.8317   19.6398 C   0  0  0  0  0  0  0  0  0  0  0  0
  -22.4256  -10.4880   22.2670 C   0  0  0  0  0  0  0  0  0  0  0  0
  -22.2040   -9.1109   22.2726 C   0  0  0  0  0  0  0  0  0  0  0  0
  -25.7862  -27.2777   21.2698 C   0  0  0  0  0  0  0  0  0  0  0  0
  -23.2629   -8.9317   20.1084 C   0  0  0  0  0  0  0  0  0  0  0  0
  -27.2133  -13.7760   20.9424 C   0  0  0  0  0  0  0  0  0  0  0  0
  -29.5834  -13.7604   19.9988 C   0  0  0  0  0  0  0  0  0  0  0  0
  -26.2231  -36.2924   22.5558 C   0  0  0  0  0  0  0  0  0  0  0  0
  -25.6774  -29.3956   20.1025 C   0  0  0  0  0  0  0  0  0  0  0  0
  -26.6449  -34.9587   22.3951 C   0  0  0  0  0  0  0  0  0  0  0  0
  -25.1365  -28.4992   21.0353 C   0  0  0  0  0  0  0  0  0  0  0  0
  -29.2650  -24.1234   20.4444 C   0  0  0  0  0  0  0  0  0  0  0  0
  -30.2178  -21.5979   21.1491 C   0  0  0  0  0  0  0  0  0  0  0  0
  -24.5736  -12.8876   21.1013 C   0  0  0  0  0  0  0  0  0  0  0  0
  -26.9505  -26.9469   20.5769 C   0  0  0  0  0  0  0  0  0  0  0  0
  -23.0657  -11.0870   21.1821 C   0  0  0  0  0  0  0  0  0  0  0  0
  -22.6227   -8.3327   21.1933 C   0  0  0  0  0  0  0  0  0  0  0  0
  -23.4844  -10.3089   20.1028 C   0  0  0  0  0  0  0  0  0  0  0  0
  -28.5764  -14.2357   20.8602 C   0  0  0  0  0  0  0  0  0  0  0  0
  -30.6867  -14.5170   20.3100 C   0  0  0  0  0  0  0  0  0  0  0  0
  -29.5265  -12.7275   19.0061 C   0  0  0  0  0  0  0  0  0  0  0  0
  -24.8815  -31.7237   22.1150 C   0  0  0  0  0  0  0  0  0  0  0  0
  -21.9265  -30.4122   21.8504 C   0  0  0  0  0  0  0  0  0  0  0  0
  -20.0285  -27.6660   21.1412 C   0  0  0  0  0  0  0  0  0  0  0  0
  -31.3678  -19.9601   22.6793 C   0  0  0  0  0  0  0  0  0  0  0  0
  -25.0489  -36.6530   23.4308 C   0  0  0  0  0  0  0  0  0  0  0  0
  -24.9890  -30.7013   19.8131 C   0  0  0  0  0  0  0  0  0  0  0  0
  -23.8787  -28.8147   21.8013 C   0  0  0  0  0  0  0  0  0  0  0  0
  -24.1351  -35.4704   23.7419 C   0  0  0  0  0  0  0  0  0  0  0  0
  -32.6846  -16.9053   23.9485 C   0  0  0  0  0  0  0  0  0  0  0  0
  -24.9579  -34.2549   24.1570 C   0  0  0  0  0  0  0  0  0  0  0  0
  -31.8764  -15.8307   23.2177 C   0  0  0  0  0  0  0  0  0  0  0  0
  -31.8295  -18.1244   24.2893 C   0  0  0  0  0  0  0  0  0  0  0  0
  -30.2959  -17.6360   22.4242 C   0  0  0  0  0  0  0  0  0  0  0  0
  -25.8910  -33.8077   23.0253 C   0  0  1  0  0  0  0  0  0  0  0  0
  -24.0974  -31.1732   20.9575 C   0  0  1  0  0  0  0  0  0  0  0  0
  -31.1304  -16.4157   22.0024 C   0  0  2  0  0  0  0  0  0  0  0  0
  -17.6438  -26.8901   21.0485 C   0  0  0  0  0  0  0  0  0  0  0  0
  -21.8657  -30.2428   24.8963 C   0  0  0  0  0  0  0  0  0  0  0  0
  -19.9531  -28.6392   24.6994 C   0  0  0  0  0  0  0  0  0  0  0  0
  -19.7150  -30.9722   23.8490 C   0  0  0  0  0  0  0  0  0  0  0  0
  -20.2148  -27.0650   18.2493 C   0  0  0  0  0  0  0  0  0  0  0  0
  -28.7526  -25.4818   20.0654 C   0  0  0  0  0  0  0  0  0  1  0  0
  -21.1660  -29.3336   22.5834 C   0  0  1  0  0  0  0  0  0  0  0  0
  -18.8017  -27.4884   20.2649 C   0  0  2  0  0  0  0  0  0  0  0  0
  -20.6998  -29.7915   23.9942 C   0  0  0  0  0  0  0  0  0  0  0  0
  -29.0023  -15.2180   21.6588 N   0  0  0  0  0  0  0  0  0  0  0  0
  -30.2891  -15.3661   21.3005 N   0  0  0  0  0  0  0  0  0  0  0  0
  -23.2458  -30.1064   21.4875 N   0  0  0  0  0  0  0  0  0  0  0  0
  -31.1567  -18.6266   23.0893 N   0  0  0  0  0  0  0  0  0  0  0  0
  -31.9484  -14.5321   19.8303 N   0  0  0  0  0  0  0  0  0  0  0  0
  -28.3144  -12.0502   18.8153 N   0  0  0  0  0  0  0  0  0  0  0  0
  -30.7018  -20.3151   21.5067 N   0  0  0  0  0  0  0  0  0  0  0  0
  -25.1513  -33.0756   22.0197 N   0  0  0  0  0  0  0  0  0  0  0  0
  -20.0802  -28.9263   21.6982 N   0  0  0  0  0  0  0  0  0  0  0  0
  -19.1097  -26.5865   19.1192 N   0  3  0  0  0  0  0  0  0  0  0  0
  -30.5255  -12.4032   18.3203 O   0  0  0  0  0  0  0  0  0  0  0  0
  -25.2157  -30.9775   23.0278 O   0  0  0  0  0  0  0  0  0  0  0  0
  -21.3681  -31.4838   21.6025 O   0  0  0  0  0  0  0  0  0  0  0  0
  -20.8560  -26.7746   21.3172 O   0  0  0  0  0  0  0  0  0  0  0  0
  -32.1080  -20.7224   23.3063 O   0  0  0  0  0  0  0  0  0  0  0  0
  -23.2857  -12.4542   21.1784 O   0  0  0  0  0  0  0  0  0  0  0  0
  -27.5690  -25.7581   20.8132 O   0  0  0  0  0  0  0  0  0  1  0  0
  -22.4112   -7.0101   21.1995 F   0  0  0  0  0  0  0  0  0  0  0  0
  -24.1010  -10.8786   19.0582 F   0  0  0  0  0  0  0  0  0  0  0  0
  1  2  1  0  0  0  0
  1  5  2  0  0  0  0
  2  6  2  0  0  0  0
  3 12  2  0  0  0  0
  3 19  1  0  0  0  0
  4 13  1  0  0  0  0
  4 19  2  0  0  0  0
  5 21  1  0  0  0  0
  6 23  1  0  0  0  0
  7 14  2  0  0  0  0
  7 22  1  0  0  0  0
  8 10  2  0  0  0  0
  8 25  1  0  0  0  0
  9 11  1  0  0  0  0
  9 25  2  0  0  0  0
 10 26  1  0  0  0  0
 11 26  2  0  0  0  0
 12 27  1  0  0  0  0
 13 27  2  0  0  0  0
 14 28  1  0  0  0  0
 15 16  2  0  0  0  0
 15 29  1  0  0  0  0
 16 30  1  0  0  0  0
 17 24  1  0  0  0  0
 17 28  2  0  0  0  0
 18 30  2  0  0  0  0
 18 31  1  0  0  0  0
 19 32  1  0  0  0  0
 20 32  1  0  0  0  0
 20 33  2  0  0  0  0
 20 34  1  0  0  0  0
 21 23  2  0  0  0  0
 21 39  1  0  0  0  0
 22 24  2  0  0  0  0
 22 40  1  0  0  0  0
 23 48  1  0  0  0  0
 24 41  1  0  0  0  0
 25 56  1  0  0  0  0
 26 66  1  0  0  0  0
 27 75  1  0  0  0  0
 28 76  1  0  0  0  0
 29 31  2  0  0  0  0
 29 75  1  0  0  0  0
 30 77  1  0  0  0  0
 31 78  1  0  0  0  0
 32 60  2  0  0  0  0
 33 61  1  0  0  0  0
 33 64  1  0  0  0  0
 34 65  1  0  0  0  0
 34 70  2  0  0  0  0
 35 49  1  0  0  0  0
 35 67  1  0  0  0  0
 35 71  2  0  0  0  0
 36 57  1  0  0  0  0
 36 62  1  0  0  0  0
 36 72  2  0  0  0  0
 37 58  1  0  0  0  0
 37 68  1  0  0  0  0
 37 73  2  0  0  0  0
 38 63  1  0  0  0  0
 38 66  1  0  0  0  0
 38 74  2  0  0  0  0
 39 42  1  0  0  0  0
 40 49  1  0  0  0  0
 41 62  1  0  0  0  0
 42 44  1  0  0  0  0
 43 45  1  0  0  0  0
 43 46  1  0  0  0  0
 44 48  1  0  0  0  0
 45 50  1  0  0  0  0
 46 63  1  0  0  0  0
 47 50  1  0  0  0  0
 47 63  1  0  0  0  0
 48 67  1  0  0  0  0
 49 62  1  0  0  0  0
 50 61  1  0  0  0  0
 51 58  1  0  0  0  0
 52 59  1  0  0  0  0
 53 59  1  0  0  0  0
 54 59  1  0  0  0  0
 55 69  1  0  0  0  0
 56 76  1  0  0  0  0
 57 59  1  0  0  0  0
 57 68  1  0  0  0  0
 58 69  1  0  0  0  0
 60 61  1  0  0  0  0
M  CHG  1  69   1
M  ISO  4  38 100  56 101  66 100  76 101
M  END
> <Batch ID>
0003

> <Smiles>
CNC(C)C(=O)NC(C(=O)N1Cc2cc([101O:1][101CH2:1]c3ccc([100NH:0][100C:0](=O)N4CCCC(n5nc(-c6ccc(Oc7ccc(F)cc7F)cc6)c(C(N)=O)c5N)C4)cc3)ccc2CC1C(=O)NC1CCCc2ccccc21)C(C)(C)C

> <Shape>
0.340

> <Color>
0.078

> <Negative vol penalty>
0.000

$$$$

  -OEChem-04042320203D

102112  0     1  0  0  0  0  0999 V2000
  -28.7920  -33.7015   26.6009 C   0  0  0  0  0  0  0  0  0  0  0  0
  -28.7712  -32.5047   25.8920 C   0  0  0  0  0  0  0  0  0  0  0  0
  -23.3702   -6.4457   23.8569 C   0  0  0  0  0  0  0  0  0  0  0  0
  -23.6259   -8.6288   24.8596 C   0  0  0  0  0  0  0  0  0  0  0  0
  -30.4446  -23.1073   20.1550 C   0  0  0  0  0  0  0  0  0  0  0  0
  -30.8027  -23.7667   17.8585 C   0  0  0  0  0  0  0  0  0  0  0  0
  -27.5961  -34.3483   26.9100 C   0  0  0  0  0  0  0  0  0  0  0  0
  -27.5543  -31.9534   25.4926 C   0  0  0  0  0  0  0  0  0  0  0  0
  -27.6322  -30.3148   20.6140 C   0  0  0  0  0  0  0  0  0  0  0  0
  -30.0123  -24.3983   20.4583 C   0  0  0  0  0  0  0  0  0  0  0  0
  -30.3704  -25.0578   18.1617 C   0  0  0  0  0  0  0  0  0  0  0  0
  -23.3594   -5.8645   25.1248 C   0  0  0  0  0  0  0  0  0  0  0  0
  -23.6151   -8.0477   26.1276 C   0  0  0  0  0  0  0  0  0  0  0  0
  -28.2516  -29.0975   20.3338 C   0  0  0  0  0  0  0  0  0  0  0  0
  -21.3195   -6.8308   28.2886 C   0  0  0  0  0  0  0  0  0  0  0  0
  -20.5372   -7.4374   29.2712 C   0  0  0  0  0  0  0  0  0  0  0  0
  -26.1002  -28.0070   20.3458 C   0  0  0  0  0  0  0  0  0  0  0  0
  -22.5076   -7.7841   30.6257 C   0  0  0  0  0  0  0  0  0  0  0  0
  -23.5035   -7.8279   23.7243 C   0  0  0  0  0  0  0  0  0  0  0  0
  -30.8398  -22.7915   18.8551 C   0  0  0  0  0  0  0  0  0  0  0  0
  -22.4966   -8.3730   21.4446 C   0  0  0  0  0  0  0  0  0  0  0  0
  -26.3644  -33.8095   26.5058 C   0  0  0  0  0  0  0  0  0  0  0  0
  -26.2406  -30.3860   20.7728 C   0  0  0  0  0  0  0  0  0  0  0  0
  -26.3407  -32.5928   25.7976 C   0  0  0  0  0  0  0  0  0  0  0  0
  -25.4652  -29.2271   20.6232 C   0  0  0  0  0  0  0  0  0  0  0  0
  -29.9752  -25.3736   19.4617 C   0  0  0  0  0  0  0  0  0  0  0  0
  -23.4819   -6.6655   26.2602 C   0  0  0  0  0  0  0  0  0  0  0  0
  -27.4858  -27.9430   20.2019 C   0  0  0  0  0  0  0  0  0  0  0  0
  -22.6958   -6.7006   28.4745 C   0  0  0  0  0  0  0  0  0  0  0  0
  -21.1313   -7.9141   30.4398 C   0  0  0  0  0  0  0  0  0  0  0  0
  -23.2898   -7.1773   29.6431 C   0  0  0  0  0  0  0  0  0  0  0  0
  -23.5153   -8.4287   22.4147 C   0  0  0  0  0  0  0  0  0  0  0  0
  -22.9908   -9.0952   20.3860 C   0  0  0  0  0  0  0  0  0  0  0  0
  -31.2947  -21.4336   18.5358 C   0  0  0  0  0  0  0  0  0  0  0  0
  -30.6374  -20.2685   18.6446 C   0  0  0  0  0  0  0  0  0  0  0  0
  -21.2180   -7.7262   21.4959 C   0  0  0  0  0  0  0  0  0  0  0  0
  -29.2437  -20.0656   19.0884 C   0  0  0  0  0  0  0  0  0  0  0  0
  -24.2130  -31.2324   23.1004 C   0  0  0  0  0  0  0  0  0  0  0  0
  -22.0163  -30.7363   20.6546 C   0  0  0  0  0  0  0  0  0  0  0  0
  -28.8172  -15.9406   20.4536 C   0  0  0  0  0  0  0  0  0  0  0  0
  -19.6372  -32.2873   22.5450 C   0  0  0  0  0  0  0  0  0  0  0  0
  -26.9415  -13.4739   20.1140 C   0  0  0  0  0  0  0  0  0  0  0  0
  -28.9203  -18.5791   14.4899 C   0  0  0  0  0  0  0  0  0  0  0  0
  -25.0953  -34.5204   26.9041 C   0  0  0  0  0  0  0  0  0  0  0  0
  -25.5890  -31.7148   21.0449 C   0  0  0  0  0  0  0  0  0  0  0  0
  -23.9688  -29.2517   20.7804 C   0  0  0  0  0  0  0  0  0  0  0  0
  -32.6650  -21.2093   17.9587 C   0  0  0  0  0  0  0  0  0  0  0  0
  -31.4665  -19.1052   18.2057 C   0  0  0  0  0  0  0  0  0  0  0  0
  -23.8687  -34.0628   26.1191 C   0  0  0  0  0  0  0  0  0  0  0  0
  -32.8677  -19.7064   18.1468 C   0  0  0  0  0  0  0  0  0  0  0  0
  -27.1160  -10.3442   18.3051 C   0  0  0  0  0  0  0  0  0  0  0  0
  -23.8152  -32.5398   26.0525 C   0  0  0  0  0  0  0  0  0  0  0  0
  -26.1046   -9.4918   19.0737 C   0  0  0  0  0  0  0  0  0  0  0  0
  -30.4898  -18.4390   21.8661 C   0  0  0  0  0  0  0  0  0  0  0  0
  -27.8991  -11.2554   19.2456 C   0  0  0  0  0  0  0  0  0  0  0  0
  -30.0439  -19.8530   21.4996 C   0  0  0  0  0  0  0  0  0  0  0  0
  -29.3376  -17.5171   22.2720 C   0  0  0  0  0  0  0  0  0  0  0  0
  -27.6671  -19.5122   20.8879 C   0  0  0  0  0  0  0  0  0  0  0  0
  -27.3886  -18.0124   20.7592 C   0  0  0  0  0  0  0  0  0  0  0  0
  -26.0400  -11.2902   20.8631 C   0  0  0  0  0  0  0  0  0  0  0  0
  -25.0420  -31.9759   25.3254 C   0  0  1  0  0  0  0  0  0  0  0  0
  -24.1886  -31.5966   21.6430 C   0  0  1  0  0  0  0  0  0  0  0  0
  -25.2003  -10.3633   19.9653 C   0  0  2  0  0  0  0  0  0  0  0  0
  -17.2940  -33.1770   22.4210 C   0  0  0  0  0  0  0  0  0  0  0  0
  -23.0216  -33.1574   19.0948 C   0  0  0  0  0  0  0  0  0  0  0  0
  -20.9657  -34.3890   19.8189 C   0  0  0  0  0  0  0  0  0  0  0  0
  -20.7592  -32.3409   18.4099 C   0  0  0  0  0  0  0  0  0  0  0  0
  -18.6989  -30.4360   24.6547 C   0  0  0  0  0  0  0  0  0  0  0  0
  -29.5079  -26.7615   19.7882 C   0  0  0  0  0  0  0  0  0  1  0  0
  -27.6726  -15.8063   16.7715 C   0  0  0  0  0  0  0  0  0  0  0  0
  -28.5614  -16.1047   17.9842 C   0  0  0  0  0  0  0  0  0  0  0  0
  -28.2469  -16.3807   15.4807 C   0  0  0  0  0  0  0  0  0  0  0  0
  -21.4283  -32.1131   20.8374 C   0  0  1  0  0  0  0  0  0  0  0  0
  -27.9476  -15.5811   19.2746 C   0  0  1  0  0  0  0  0  0  0  0  0
  -18.1669  -31.9801   22.7649 C   0  0  2  0  0  0  0  0  0  0  0  0
  -21.5613  -32.9888   19.5595 C   0  0  0  0  0  0  0  0  0  0  0  0
  -24.5764   -9.1307   22.0084 N   0  0  0  0  0  0  0  0  0  0  0  0
  -24.2273   -9.5226   20.7712 N   0  0  0  0  0  0  0  0  0  0  0  0
  -29.0179  -19.8668   20.4495 N   0  0  0  0  0  0  0  0  0  0  0  0
  -23.3745  -30.5826   20.9607 N   0  0  0  0  0  0  0  0  0  0  0  0
  -28.5115  -17.1323   21.1222 N   0  0  0  0  0  0  0  0  0  0  0  0
  -26.9803  -12.0710   20.0523 N   0  0  0  0  0  0  0  0  0  0  0  0
  -22.4839   -9.3998   19.1725 N   0  0  0  0  0  0  0  0  0  0  0  0
  -20.1224   -8.4500   21.9857 N   0  0  0  0  0  0  0  0  0  0  0  0
  -29.0553  -19.9561   14.6319 N   0  0  0  0  0  0  0  0  0  0  0  0
  -29.2898  -17.9818   13.2892 N   0  0  0  0  0  0  0  0  0  0  0  0
  -24.8976  -32.1329   23.8940 N   0  0  0  0  0  0  0  0  0  0  0  0
  -20.0540  -31.9139   21.2848 N   0  0  0  0  0  0  0  0  0  0  0  0
  -27.8696  -14.1379   19.3213 N   0  0  0  0  0  0  0  0  0  0  0  0
  -28.4170  -17.8299   15.5551 N   0  3  0  0  0  0  0  0  0  0  0  0
  -17.9217  -31.6130   24.1883 N   0  3  0  0  0  0  0  0  0  0  0  0
  -21.0554   -6.5363   21.1339 O   0  0  0  0  0  0  0  0  0  0  0  0
  -28.3608  -20.0719   18.2287 O   0  0  0  0  0  0  0  0  0  0  0  0
  -23.6509  -30.2108   23.4774 O   0  0  0  0  0  0  0  0  0  0  0  0
  -21.2954  -29.8224   20.2445 O   0  0  0  0  0  0  0  0  0  0  0  0
  -29.7426  -15.1884   20.7713 O   0  0  0  0  0  0  0  0  0  0  0  0
  -20.3441  -32.8100   23.4038 O   0  0  0  0  0  0  0  0  0  0  0  0
  -26.1354  -14.0898   20.8197 O   0  0  0  0  0  0  0  0  0  0  0  0
  -23.4711   -6.0988   27.4977 O   0  0  0  0  0  0  0  0  0  0  0  0
  -28.0877  -26.7537   19.9279 O   0  0  0  0  0  0  0  0  0  1  0  0
  -20.3802   -8.4981   31.3826 F   0  0  0  0  0  0  0  0  0  0  0  0
  -24.6117   -7.0562   29.8268 F   0  0  0  0  0  0  0  0  0  0  0  0
  1  2  1  0  0  0  0
  1  7  2  0  0  0  0
  2  8  2  0  0  0  0
  3 12  2  0  0  0  0
  3 19  1  0  0  0  0
  4 13  1  0  0  0  0
  4 19  2  0  0  0  0
  5 10  2  0  0  0  0
  5 20  1  0  0  0  0
  6 11  1  0  0  0  0
  6 20  2  0  0  0  0
  7 22  1  0  0  0  0
  8 24  1  0  0  0  0
  9 14  2  0  0  0  0
  9 23  1  0  0  0  0
 10 26  1  0  0  0  0
 11 26  2  0  0  0  0
 12 27  1  0  0  0  0
 13 27  2  0  0  0  0
 14 28  1  0  0  0  0
 15 16  2  0  0  0  0
 15 29  1  0  0  0  0
 16 30  1  0  0  0  0
 17 25  1  0  0  0  0
 17 28  2  0  0  0  0
 18 30  2  0  0  0  0
 18 31  1  0  0  0  0
 19 32  1  0  0  0  0
 20 34  1  0  0  0  0
 21 32  1  0  0  0  0
 21 33  2  0  0  0  0
 21 36  1  0  0  0  0
 22 24  2  0  0  0  0
 22 44  1  0  0  0  0
 23 25  2  0  0  0  0
 23 45  1  0  0  0  0
 24 61  1  0  0  0  0
 25 46  1  0  0  0  0
 26 69  1  0  0  0  0
 27 99  1  0  0  0  0
 28100  1  0  0  0  0
 29 31  2  0  0  0  0
 29 99  1  0  0  0  0
 30101  1  0  0  0  0
 31102  1  0  0  0  0
 32 77  2  0  0  0  0
 33 78  1  0  0  0  0
 33 83  1  0  0  0  0
 34 35  2  0  0  0  0
 34 47  1  0  0  0  0
 35 37  1  0  0  0  0
 35 48  1  0  0  0  0
 36 84  1  0  0  0  0
 36 92  2  0  0  0  0
 37 79  1  0  0  0  0
 37 93  2  0  0  0  0
 38 62  1  0  0  0  0
 38 87  1  0  0  0  0
 38 94  2  0  0  0  0
 39 73  1  0  0  0  0
 39 80  1  0  0  0  0
 39 95  2  0  0  0  0
 40 74  1  0  0  0  0
 40 81  1  0  0  0  0
 40 96  2  0  0  0  0
 41 75  1  0  0  0  0
 41 88  1  0  0  0  0
 41 97  2  0  0  0  0
 42 82  1  0  0  0  0
 42 89  1  0  0  0  0
 42 98  2  0  0  0  0
 43 85  1  0  0  0  0
 43 86  1  0  0  0  0
 43 90  2  0  0  0  0
 44 49  1  0  0  0  0
 45 62  1  0  0  0  0
 46 80  1  0  0  0  0
 47 50  1  0  0  0  0
 48 50  1  0  0  0  0
 49 52  1  0  0  0  0
 51 53  1  0  0  0  0
 51 55  1  0  0  0  0
 52 61  1  0  0  0  0
 53 63  1  0  0  0  0
 54 56  1  0  0  0  0
 54 57  1  0  0  0  0
 55 82  1  0  0  0  0
 56 79  1  0  0  0  0
 57 81  1  0  0  0  0
 58 59  1  0  0  0  0
 58 79  1  0  0  0  0
 59 81  1  0  0  0  0
 60 63  1  0  0  0  0
 60 82  1  0  0  0  0
 61 87  1  0  0  0  0
 62 80  1  0  0  0  0
 63 78  1  0  0  0  0
 64 75  1  0  0  0  0
 65 76  1  0  0  0  0
 66 76  1  0  0  0  0
 67 76  1  0  0  0  0
 68 91  1  0  0  0  0
 69100  1  0  0  0  0
 70 71  1  0  0  0  0
 70 72  1  0  0  0  0
 71 74  1  0  0  0  0
 72 90  1  0  0  0  0
 73 76  1  0  0  0  0
 73 88  1  0  0  0  0
 74 89  1  0  0  0  0
 75 91  1  0  0  0  0
 77 78  1  0  0  0  0
M  CHG  2  90   1  91   1
M  ISO  4  42 100  69 101  89 100 100 101
M  END
> <Batch ID>
0003

> <Smiles>
CNC(C)C(=O)NC(C(=O)N1Cc2cc([101O:1][101CH2:1]c3ccc(C4=C(C(=O)N5CCCN(C(=O)C(CCCNC(=N)N)[100NH:0][100C:0](=O)N6CCCC(n7nc(-c8ccc(Oc9ccc(F)cc9F)cc8)c(C(N)=O)c7N)C6)CC5)CCC4)cc3)ccc2CC1C(=O)NC1CCCc2ccccc21)C(C)(C)C

> <Shape>
0.297

> <Color>
0.062

> <Negative vol penalty>
0.000

$$$$

  -OEChem-04042320203D

 85 93  0     1  0  0  0  0  0999 V2000
  -22.4407   -8.7201   20.4680 C   0  0  0  0  0  0  0  0  0  0  0  0
  -21.9460  -10.0192   20.5232 C   0  0  0  0  0  0  0  0  0  0  0  0
  -29.3783  -26.2356   18.4291 C   0  0  0  0  0  0  0  0  0  0  0  0
  -29.0392  -25.4238   20.6793 C   0  0  0  0  0  0  0  0  0  0  0  0
  -18.2418  -26.2347   21.9175 C   0  0  0  0  0  0  0  0  0  0  0  0
  -19.4492  -25.8275   23.9701 C   0  0  0  0  0  0  0  0  0  0  0  0
  -23.6844   -8.4248   21.0246 C   0  0  0  0  0  0  0  0  0  0  0  0
  -22.6945  -11.0236   21.1360 C   0  0  0  0  0  0  0  0  0  0  0  0
  -22.9899  -16.9163   19.4944 C   0  0  0  0  0  0  0  0  0  0  0  0
  -18.7690  -27.5249   21.8633 C   0  0  0  0  0  0  0  0  0  0  0  0
  -19.9765  -27.1177   23.9159 C   0  0  0  0  0  0  0  0  0  0  0  0
  -30.6960  -25.7793   18.4631 C   0  0  0  0  0  0  0  0  0  0  0  0
  -30.3569  -24.9675   20.7132 C   0  0  0  0  0  0  0  0  0  0  0  0
  -22.3470  -18.0568   19.9736 C   0  0  0  0  0  0  0  0  0  0  0  0
  -33.4377  -26.2824   21.1717 C   0  0  0  0  0  0  0  0  0  0  0  0
  -34.1869  -26.5498   22.3175 C   0  0  0  0  0  0  0  0  0  0  0  0
  -24.2546  -18.5383   21.3695 C   0  0  0  0  0  0  0  0  0  0  0  0
  -34.4891  -24.1793   22.6732 C   0  0  0  0  0  0  0  0  0  0  0  0
  -28.5499  -26.0579   19.5372 C   0  0  0  0  0  0  0  0  0  0  0  0
  -18.5818  -25.3860   22.9709 C   0  0  0  0  0  0  0  0  0  0  0  0
  -26.0528  -25.8170   19.0749 C   0  0  0  0  0  0  0  0  0  0  0  0
  -24.4528   -9.4280   21.6359 C   0  0  0  0  0  0  0  0  0  0  0  0
  -24.2677  -16.5717   19.9581 C   0  0  0  0  0  0  0  0  0  0  0  0
  -23.9491  -10.7411   21.7024 C   0  0  0  0  0  0  0  0  0  0  0  0
  -24.9126  -17.3943   20.8927 C   0  0  0  0  0  0  0  0  0  0  0  0
  -19.6364  -27.9664   22.8625 C   0  0  0  0  0  0  0  0  0  0  0  0
  -31.1853  -25.1452   19.6051 C   0  0  0  0  0  0  0  0  0  0  0  0
  -22.9781  -18.8665   20.9134 C   0  0  0  0  0  0  0  0  0  0  0  0
  -33.2142  -24.9634   20.7767 C   0  0  0  0  0  0  0  0  0  0  0  0
  -34.7126  -25.4983   23.0683 C   0  0  0  0  0  0  0  0  0  0  0  0
  -33.7399  -23.9119   21.5274 C   0  0  0  0  0  0  0  0  0  0  0  0
  -27.1889  -26.5296   19.5030 C   0  0  0  0  0  0  0  0  0  0  0  0
  -25.0127  -26.6992   19.2374 C   0  0  0  0  0  0  0  0  0  0  0  0
  -18.0212  -24.0114   23.0294 C   0  0  0  0  0  0  0  0  0  0  0  0
  -25.9470  -24.4773   18.5752 C   0  0  0  0  0  0  0  0  0  0  0  0
  -25.4908  -14.0947   21.5305 C   0  0  0  0  0  0  0  0  0  0  0  0
  -28.2980  -15.6159   20.9582 C   0  0  0  0  0  0  0  0  0  0  0  0
  -29.9243  -18.5401   20.2866 C   0  0  0  0  0  0  0  0  0  0  0  0
  -22.3109  -30.5340   22.2606 C   0  0  0  0  0  0  0  0  0  0  0  0
  -25.7705   -9.0510   22.2654 C   0  0  0  0  0  0  0  0  0  0  0  0
  -24.9587  -15.3526   19.4114 C   0  0  0  0  0  0  0  0  0  0  0  0
  -26.2926  -17.0794   21.4074 C   0  0  0  0  0  0  0  0  0  0  0  0
  -26.6672  -10.2493   22.5653 C   0  0  0  0  0  0  0  0  0  0  0  0
  -25.0272  -31.6551   20.2502 C   0  0  0  0  0  0  0  0  0  0  0  0
  -25.8687  -11.3566   23.2458 C   0  0  0  0  0  0  0  0  0  0  0  0
  -25.7411  -30.3637   19.8468 C   0  0  0  0  0  0  0  0  0  0  0  0
  -24.4801  -31.5765   21.6737 C   0  0  0  0  0  0  0  0  0  0  0  0
  -24.3299  -29.1203   21.5383 C   0  0  0  0  0  0  0  0  0  0  0  0
  -24.7423  -11.8630   22.3367 C   0  0  1  0  0  0  0  0  0  0  0  0
  -26.0473  -14.8176   20.3366 C   0  0  1  0  0  0  0  0  0  0  0  0
  -24.8502  -29.1308   20.0907 C   0  0  2  0  0  0  0  0  0  0  0  0
  -32.2227  -19.4743   19.9099 C   0  0  0  0  0  0  0  0  0  0  0  0
  -28.8514  -15.4562   23.9546 C   0  0  0  0  0  0  0  0  0  0  0  0
  -30.6293  -17.1921   23.6481 C   0  0  0  0  0  0  0  0  0  0  0  0
  -30.8318  -14.9860   22.5015 C   0  0  0  0  0  0  0  0  0  0  0  0
  -29.2369  -19.4391   17.5519 C   0  0  0  0  0  0  0  0  0  0  0  0
  -20.2008  -29.3458   22.8035 C   0  0  0  0  0  0  0  0  0  0  0  0
  -18.9084  -20.8287   22.6717 C   0  0  0  0  0  0  0  0  0  0  0  0
  -20.4336  -20.8477   22.5651 C   0  0  0  0  0  0  0  0  0  0  0  0
  -18.3921  -21.6893   23.8205 C   0  0  0  0  0  0  0  0  0  0  0  0
  -20.9269  -19.9499   21.4374 C   0  0  0  0  0  0  0  0  0  1  0  0
  -29.1181  -16.6552   21.6836 C   0  0  1  0  0  0  0  0  0  0  0  0
  -30.9806  -18.8911   19.2543 C   0  0  2  0  0  0  0  0  0  0  0  0
  -29.8308  -16.0775   22.9389 C   0  0  0  0  0  0  0  0  0  0  0  0
  -26.8982  -27.7691   19.9069 N   0  0  0  0  0  0  0  0  0  0  0  0
  -25.5675  -27.8422   19.7332 N   0  0  0  0  0  0  0  0  0  0  0  0
  -26.9243  -15.8732   20.8472 N   0  0  0  0  0  0  0  0  0  0  0  0
  -23.6424  -30.3861   21.8383 N   0  0  0  0  0  0  0  0  0  0  0  0
  -23.6869  -26.6011   19.0029 N   0  0  0  0  0  0  0  0  0  0  0  0
  -27.1142  -23.7082   18.4729 N   0  0  0  0  0  0  0  0  0  0  0  0
  -18.7881  -23.0656   23.7000 N   0  0  0  0  0  0  0  0  0  0  0  0
  -25.2718  -12.7466   21.3203 N   0  0  0  0  0  0  0  0  0  0  0  0
  -30.0234  -17.2259   20.6921 N   0  0  0  0  0  0  0  0  0  0  0  0
  -21.5849  -29.3559   22.3849 N   0  0  0  0  0  0  0  0  0  0  0  0
  -30.4468  -19.8906   18.2863 N   0  3  0  0  0  0  0  0  0  0  0  0
  -16.9475  -23.7775   22.4806 O   0  0  0  0  0  0  0  0  0  0  0  0
  -24.8523  -23.9825   18.2142 O   0  0  0  0  0  0  0  0  0  0  0  0
  -25.2772  -14.7138   22.5662 O   0  0  0  0  0  0  0  0  0  0  0  0
  -28.8570  -14.6160   20.5004 O   0  0  0  0  0  0  0  0  0  0  0  0
  -29.0967  -19.3516   20.6952 O   0  0  0  0  0  0  0  0  0  0  0  0
  -21.8050  -31.6350   22.5033 O   0  0  0  0  0  0  0  0  0  0  0  0
  -32.4709  -24.6996   19.6384 O   0  0  0  0  0  0  0  0  0  0  0  0
  -22.3526  -19.9799   21.3832 O   0  0  0  0  0  0  0  0  0  1  0  0
  -35.4332  -25.7553   24.1677 F   0  0  0  0  0  0  0  0  0  0  0  0
  -33.5295  -22.6427   21.1522 F   0  0  0  0  0  0  0  0  0  0  0  0
  1  2  1  0  0  0  0
  1  7  2  0  0  0  0
  2  8  2  0  0  0  0
  3 12  2  0  0  0  0
  3 19  1  0  0  0  0
  4 13  1  0  0  0  0
  4 19  2  0  0  0  0
  5 10  2  0  0  0  0
  5 20  1  0  0  0  0
  6 11  1  0  0  0  0
  6 20  2  0  0  0  0
  7 22  1  0  0  0  0
  8 24  1  0  0  0  0
  9 14  2  0  0  0  0
  9 23  1  0  0  0  0
 10 26  1  0  0  0  0
 11 26  2  0  0  0  0
 12 27  1  0  0  0  0
 13 27  2  0  0  0  0
 14 28  1  0  0  0  0
 15 16  2  0  0  0  0
 15 29  1  0  0  0  0
 16 30  1  0  0  0  0
 17 25  1  0  0  0  0
 17 28  2  0  0  0  0
 18 30  2  0  0  0  0
 18 31  1  0  0  0  0
 19 32  1  0  0  0  0
 20 34  1  0  0  0  0
 21 32  1  0  0  0  0
 21 33  2  0  0  0  0
 21 35  1  0  0  0  0
 22 24  2  0  0  0  0
 22 40  1  0  0  0  0
 23 25  2  0  0  0  0
 23 41  1  0  0  0  0
 24 49  1  0  0  0  0
 25 42  1  0  0  0  0
 26 57  1  0  0  0  0
 27 82  1  0  0  0  0
 28 83  1  0  0  0  0
 29 31  2  0  0  0  0
 29 82  1  0  0  0  0
 30 84  1  0  0  0  0
 31 85  1  0  0  0  0
 32 65  2  0  0  0  0
 33 66  1  0  0  0  0
 33 69  1  0  0  0  0
 34 71  1  0  0  0  0
 34 76  2  0  0  0  0
 35 70  1  0  0  0  0
 35 77  2  0  0  0  0
 36 50  1  0  0  0  0
 36 72  1  0  0  0  0
 36 78  2  0  0  0  0
 37 62  1  0  0  0  0
 37 67  1  0  0  0  0
 37 79  2  0  0  0  0
 38 63  1  0  0  0  0
 38 73  1  0  0  0  0
 38 80  2  0  0  0  0
 39 68  1  0  0  0  0
 39 74  1  0  0  0  0
 39 81  2  0  0  0  0
 40 43  1  0  0  0  0
 41 50  1  0  0  0  0
 42 67  1  0  0  0  0
 43 45  1  0  0  0  0
 44 46  1  0  0  0  0
 44 47  1  0  0  0  0
 45 49  1  0  0  0  0
 46 51  1  0  0  0  0
 47 68  1  0  0  0  0
 48 51  1  0  0  0  0
 48 68  1  0  0  0  0
 49 72  1  0  0  0  0
 50 67  1  0  0  0  0
 51 66  1  0  0  0  0
 52 63  1  0  0  0  0
 53 64  1  0  0  0  0
 54 64  1  0  0  0  0
 55 64  1  0  0  0  0
 56 75  1  0  0  0  0
 57 74  1  0  0  0  0
 58 59  1  0  0  0  0
 58 60  1  0  0  0  0
 59 61  1  0  0  0  0
 60 71  1  0  0  0  0
 61 83  1  0  0  0  0
 62 64  1  0  0  0  0
 62 73  1  0  0  0  0
 63 75  1  0  0  0  0
 65 66  1  0  0  0  0
M  CHG  1  75   1
M  ISO  4  39 100  61 101  74 100  83 101
M  END
> <Batch ID>
0003

> <Smiles>
CNC(C)C(=O)NC(C(=O)N1Cc2cc([101O:1][101CH2:1]CCCNC(=O)c3ccc(C[100NH:0][100C:0](=O)N4CCCC(n5nc(-c6ccc(Oc7ccc(F)cc7F)cc6)c(C(N)=O)c5N)C4)cc3)ccc2CC1C(=O)NC1CCCc2ccccc21)C(C)(C)C

> <Shape>
0.251

> <Color>
0.064

> <Negative vol penalty>
0.000

$$$$

  -OEChem-04042320203D

 84 93  0     1  0  0  0  0  0999 V2000
  -30.5199  -33.9908   23.5720 C   0  0  0  0  0  0  0  0  0  0  0  0
  -30.0991  -32.6771   23.3921 C   0  0  0  0  0  0  0  0  0  0  0  0
  -23.1881  -10.4916   21.7200 C   0  0  0  0  0  0  0  0  0  0  0  0
  -24.7684   -8.6715   21.5565 C   0  0  0  0  0  0  0  0  0  0  0  0
  -29.5965  -34.9759   23.9198 C   0  0  0  0  0  0  0  0  0  0  0  0
  -28.7548  -32.3473   23.5610 C   0  0  0  0  0  0  0  0  0  0  0  0
  -27.1828  -21.6115   22.3621 C   0  0  0  0  0  0  0  0  0  0  0  0
  -27.0173  -29.3310   19.8830 C   0  0  0  0  0  0  0  0  0  0  0  0
  -26.6797  -22.9116   22.3164 C   0  0  0  0  0  0  0  0  0  0  0  0
  -22.1344   -9.5777   21.7101 C   0  0  0  0  0  0  0  0  0  0  0  0
  -23.7148   -7.7575   21.5466 C   0  0  0  0  0  0  0  0  0  0  0  0
  -27.3507  -27.9793   19.9573 C   0  0  0  0  0  0  0  0  0  0  0  0
  -21.4554   -4.9244   21.8415 C   0  0  0  0  0  0  0  0  0  0  0  0
  -21.5705   -3.7921   22.6478 C   0  0  0  0  0  0  0  0  0  0  0  0
  -25.1717  -27.4984   20.8738 C   0  0  0  0  0  0  0  0  0  0  0  0
  -26.9253  -21.4275   19.9670 C   0  0  0  0  0  0  0  0  0  0  0  0
  -21.7446   -5.2015   24.6024 C   0  0  0  0  0  0  0  0  0  0  0  0
  -24.5051  -10.0385   21.6432 C   0  0  0  0  0  0  0  0  0  0  0  0
  -26.2803  -11.4767   22.7781 C   0  0  0  0  0  0  0  0  0  0  0  0
  -27.3057  -20.8694   21.1874 C   0  0  0  0  0  0  0  0  0  0  0  0
  -28.2386  -34.6599   24.0837 C   0  0  0  0  0  0  0  0  0  0  0  0
  -25.7604  -29.7788   20.3144 C   0  0  0  0  0  0  0  0  0  0  0  0
  -27.8126  -33.3288   23.9127 C   0  0  0  0  0  0  0  0  0  0  0  0
  -24.8239  -28.8559   20.8015 C   0  0  0  0  0  0  0  0  0  0  0  0
  -26.2993  -23.4697   21.0959 C   0  0  0  0  0  0  0  0  0  0  0  0
  -22.3977   -8.2107   21.6233 C   0  0  0  0  0  0  0  0  0  0  0  0
  -26.4290  -27.0632   20.4555 C   0  0  0  0  0  0  0  0  0  0  0  0
  -21.4850   -6.1954   22.4156 C   0  0  0  0  0  0  0  0  0  0  0  0
  -21.7151   -3.9306   24.0282 C   0  0  0  0  0  0  0  0  0  0  0  0
  -26.4221  -22.7276   19.9212 C   0  0  0  0  0  0  0  0  0  0  0  0
  -21.6296   -6.3339   23.7960 C   0  0  0  0  0  0  0  0  0  0  0  0
  -25.5940  -10.9822   21.6528 C   0  0  0  0  0  0  0  0  0  0  0  0
  -27.2174  -12.3359   22.2584 C   0  0  0  0  0  0  0  0  0  0  0  0
  -26.0880  -11.1854   24.1687 C   0  0  0  0  0  0  0  0  0  0  0  0
  -24.7424  -31.7665   22.5763 C   0  0  0  0  0  0  0  0  0  0  0  0
  -21.8541  -31.2329   21.1997 C   0  0  0  0  0  0  0  0  0  0  0  0
  -19.8751  -29.1855   19.3185 C   0  0  0  0  0  0  0  0  0  0  0  0
  -28.8091  -16.2876   18.8128 C   0  0  0  0  0  0  0  0  0  0  0  0
  -27.2855  -35.7497   24.5063 C   0  0  0  0  0  0  0  0  0  0  0  0
  -25.4064  -31.2364   20.2027 C   0  0  0  0  0  0  0  0  0  0  0  0
  -23.4537  -29.2828   21.2585 C   0  0  0  0  0  0  0  0  0  0  0  0
  -25.8168  -35.3884   24.2996 C   0  0  0  0  0  0  0  0  0  0  0  0
  -28.7231  -13.0924   17.4969 C   0  0  0  0  0  0  0  0  0  0  0  0
  -25.5342  -33.9832   24.8216 C   0  0  0  0  0  0  0  0  0  0  0  0
  -27.9593  -12.2871   18.5477 C   0  0  0  0  0  0  0  0  0  0  0  0
  -26.8172  -18.4192   20.7638 C   0  0  0  0  0  0  0  0  0  0  0  0
  -29.1632  -19.3149   20.4418 C   0  0  0  0  0  0  0  0  0  0  0  0
  -28.0923  -14.4656   17.2971 C   0  0  0  0  0  0  0  0  0  0  0  0
  -27.3866  -16.9978   20.7858 C   0  0  0  0  0  0  0  0  0  0  0  0
  -29.6783  -17.8796   20.4976 C   0  0  0  0  0  0  0  0  0  0  0  0
  -27.2244  -14.4769   19.6133 C   0  0  0  0  0  0  0  0  0  0  0  0
  -27.8526  -19.4552   21.2372 C   0  0  0  0  0  0  0  0  0  0  0  0
  -26.3588  -32.9365   24.0627 C   0  0  1  0  0  0  0  0  0  0  0  0
  -24.2852  -31.6532   21.1495 C   0  0  1  0  0  0  0  0  0  0  0  0
  -27.8252  -13.0782   19.8609 C   0  0  1  0  0  0  0  0  0  0  0  0
  -17.5499  -28.9994   18.3934 C   0  0  0  0  0  0  0  0  0  0  0  0
  -20.8179  -30.4652   23.9650 C   0  0  0  0  0  0  0  0  0  0  0  0
  -18.8405  -29.4057   22.8533 C   0  0  0  0  0  0  0  0  0  0  0  0
  -19.2420  -31.8556   22.6094 C   0  0  0  0  0  0  0  0  0  0  0  0
  -20.8624  -29.1594   16.5286 C   0  0  0  0  0  0  0  0  0  0  0  0
  -25.7605  -24.8597   21.0502 C   0  0  0  0  0  0  0  0  0  1  0  0
  -20.7462  -30.2262   21.3952 C   0  0  1  0  0  0  0  0  0  0  0  0
  -18.9723  -29.4696   18.1317 C   0  0  2  0  0  0  0  0  0  0  0  0
  -19.9381  -30.4801   22.6990 C   0  0  0  0  0  0  0  0  0  0  0  0
  -26.0556  -11.4854   20.5050 N   0  0  0  0  0  0  0  0  0  0  0  0
  -27.0420  -12.3053   20.9062 N   0  0  0  0  0  0  0  0  0  0  0  0
  -23.1572  -30.7196   21.1354 N   0  0  0  0  0  0  0  0  0  0  0  0
  -27.9792  -15.1834   18.5666 N   0  0  0  0  0  0  0  0  0  0  0  0
  -28.6558  -16.9354   20.0478 N   0  0  0  0  0  0  0  0  0  0  0  0
  -28.1661  -13.1072   22.8308 N   0  0  0  0  0  0  0  0  0  0  0  0
  -25.0809  -10.2796   24.5286 N   0  0  0  0  0  0  0  0  0  0  0  0
  -25.7696  -32.6708   22.7678 N   0  0  0  0  0  0  0  0  0  0  0  0
  -19.9429  -30.2617   20.1778 N   0  0  0  0  0  0  0  0  0  0  0  0
  -19.4809  -28.7741   16.9157 N   0  3  0  0  0  0  0  0  0  0  0  0
  -26.7777  -11.7252   25.0667 O   0  0  0  0  0  0  0  0  0  0  0  0
  -24.2022  -31.0851   23.4398 O   0  0  0  0  0  0  0  0  0  0  0  0
  -21.5729  -32.4299   21.1002 O   0  0  0  0  0  0  0  0  0  0  0  0
  -20.4587  -28.1145   19.4702 O   0  0  0  0  0  0  0  0  0  0  0  0
  -29.6388  -16.6721   17.9792 O   0  0  0  0  0  0  0  0  0  0  0  0
  -21.3698   -7.3186   21.6139 O   0  0  0  0  0  0  0  0  0  0  0  0
  -26.7543  -25.7342   20.5302 O   0  0  0  0  0  0  0  0  0  1  0  0
  -21.8241   -2.8431   24.8025 F   0  0  0  0  0  0  0  0  0  0  0  0
  -26.0582  -23.2552   18.7440 F   0  0  0  0  0  0  0  0  0  0  0  0
  -21.6574   -7.5522   24.3534 F   0  0  0  0  0  0  0  0  0  0  0  0
  1  2  1  0  0  0  0
  1  5  2  0  0  0  0
  2  6  2  0  0  0  0
  3 10  2  0  0  0  0
  3 18  1  0  0  0  0
  4 11  1  0  0  0  0
  4 18  2  0  0  0  0
  5 21  1  0  0  0  0
  6 23  1  0  0  0  0
  7  9  2  0  0  0  0
  7 20  1  0  0  0  0
  8 12  2  0  0  0  0
  8 22  1  0  0  0  0
  9 25  1  0  0  0  0
 10 26  1  0  0  0  0
 11 26  2  0  0  0  0
 12 27  1  0  0  0  0
 13 14  2  0  0  0  0
 13 28  1  0  0  0  0
 14 29  1  0  0  0  0
 15 24  1  0  0  0  0
 15 27  2  0  0  0  0
 16 20  2  0  0  0  0
 16 30  1  0  0  0  0
 17 29  2  0  0  0  0
 17 31  1  0  0  0  0
 18 32  1  0  0  0  0
 19 32  1  0  0  0  0
 19 33  2  0  0  0  0
 19 34  1  0  0  0  0
 20 52  1  0  0  0  0
 21 23  2  0  0  0  0
 21 39  1  0  0  0  0
 22 24  2  0  0  0  0
 22 40  1  0  0  0  0
 23 53  1  0  0  0  0
 24 41  1  0  0  0  0
 25 30  2  0  0  0  0
 25 61  1  0  0  0  0
 26 80  1  0  0  0  0
 27 81  1  0  0  0  0
 28 31  2  0  0  0  0
 28 80  1  0  0  0  0
 29 82  1  0  0  0  0
 30 83  1  0  0  0  0
 31 84  1  0  0  0  0
 32 65  2  0  0  0  0
 33 66  1  0  0  0  0
 33 70  1  0  0  0  0
 34 71  1  0  0  0  0
 34 75  2  0  0  0  0
 35 54  1  0  0  0  0
 35 72  1  0  0  0  0
 35 76  2  0  0  0  0
 36 62  1  0  0  0  0
 36 67  1  0  0  0  0
 36 77  2  0  0  0  0
 37 63  1  0  0  0  0
 37 73  1  0  0  0  0
 37 78  2  0  0  0  0
 38 68  1  0  0  0  0
 38 69  1  0  0  0  0
 38 79  2  0  0  0  0
 39 42  1  0  0  0  0
 40 54  1  0  0  0  0
 41 67  1  0  0  0  0
 42 44  1  0  0  0  0
 43 45  1  0  0  0  0
 43 48  1  0  0  0  0
 44 53  1  0  0  0  0
 45 55  1  0  0  0  0
 46 49  1  0  0  0  0
 46 52  1  0  0  0  0
 47 50  1  0  0  0  0
 47 52  1  0  0  0  0
 48 68  1  0  0  0  0
 49 69  1  0  0  0  0
 50 69  1  0  0  0  0
 51 55  1  0  0  0  0
 51 68  1  0  0  0  0
 53 72  1  0  0  0  0
 54 67  1  0  0  0  0
 55 66  1  0  0  0  0
 56 63  1  0  0  0  0
 57 64  1  0  0  0  0
 58 64  1  0  0  0  0
 59 64  1  0  0  0  0
 60 74  1  0  0  0  0
 61 81  1  0  0  0  0
 62 64  1  0  0  0  0
 62 73  1  0  0  0  0
 63 74  1  0  0  0  0
 65 66  1  0  0  0  0
M  CHG  1  74   1
M  ISO  4  38 100  61 101  69 100  81 101
M  END
> <Batch ID>
0003

> <Smiles>
CNC(C)C(=O)NC(C(=O)N1Cc2cc([101O:1][101CH2:1]c3ccc(C4CC[100N:0]([100C:0](=O)N5CCCC(n6nc(-c7ccc(Oc8ccc(F)cc8F)cc7)c(C(N)=O)c6N)C5)CC4)cc3F)ccc2CC1C(=O)NC1CCCc2ccccc21)C(C)(C)C

> <Shape>
0.290

> <Color>
0.111

> <Negative vol penalty>
0.000

$$$$

  -OEChem-04042320203D

 82 90  0     1  0  0  0  0  0999 V2000
  -32.2863  -21.7237   22.3400 C   0  0  0  0  0  0  0  0  0  0  0  0
  -31.1143  -22.1578   22.9510 C   0  0  0  0  0  0  0  0  0  0  0  0
  -29.8275  -27.6994   20.2072 C   0  0  0  0  0  0  0  0  0  0  0  0
  -28.7228  -26.3480   21.8777 C   0  0  0  0  0  0  0  0  0  0  0  0
  -32.2250  -21.0183   21.1389 C   0  0  0  0  0  0  0  0  0  0  0  0
  -29.8802  -21.8876   22.3606 C   0  0  0  0  0  0  0  0  0  0  0  0
  -23.0656  -20.4807   24.0631 C   0  0  0  0  0  0  0  0  0  0  0  0
  -19.1345  -27.2321   23.5484 C   0  0  0  0  0  0  0  0  0  0  0  0
  -19.4897  -28.0188   21.2918 C   0  0  0  0  0  0  0  0  0  0  0  0
  -18.6299  -26.0309   23.0502 C   0  0  0  0  0  0  0  0  0  0  0  0
  -18.9851  -26.8176   20.7936 C   0  0  0  0  0  0  0  0  0  0  0  0
  -31.0674  -27.2649   20.6757 C   0  0  0  0  0  0  0  0  0  0  0  0
  -29.9627  -25.9135   22.3461 C   0  0  0  0  0  0  0  0  0  0  0  0
  -21.7725  -20.9188   23.7809 C   0  0  0  0  0  0  0  0  0  0  0  0
  -33.0152  -24.5161   20.3879 C   0  0  0  0  0  0  0  0  0  0  0  0
  -33.9660  -24.1298   19.4433 C   0  0  0  0  0  0  0  0  0  0  0  0
  -21.7841  -19.6232   21.7460 C   0  0  0  0  0  0  0  0  0  0  0  0
  -35.4654  -25.8429   20.2520 C   0  0  0  0  0  0  0  0  0  0  0  0
  -28.6552  -27.2409   20.8082 C   0  0  0  0  0  0  0  0  0  0  0  0
  -26.5871  -27.0929   19.3221 C   0  0  0  0  0  0  0  0  0  0  0  0
  -30.9890  -20.7310   20.5385 C   0  0  0  0  0  0  0  0  0  0  0  0
  -23.7330  -19.6178   23.1819 C   0  0  0  0  0  0  0  0  0  0  0  0
  -29.8024  -21.1789   21.1497 C   0  0  0  0  0  0  0  0  0  0  0  0
  -23.0847  -19.1736   22.0206 C   0  0  0  0  0  0  0  0  0  0  0  0
  -19.5644  -28.2260   22.6692 C   0  0  0  0  0  0  0  0  0  0  0  0
  -18.5552  -25.8237   21.6729 C   0  0  0  0  0  0  0  0  0  0  0  0
  -31.1350  -26.3720   21.7451 C   0  0  0  0  0  0  0  0  0  0  0  0
  -21.1326  -20.4924   22.6208 C   0  0  0  0  0  0  0  0  0  0  0  0
  -33.2894  -25.5658   21.2646 C   0  0  0  0  0  0  0  0  0  0  0  0
  -35.1911  -24.7932   19.3753 C   0  0  0  0  0  0  0  0  0  0  0  0
  -34.5146  -26.2292   21.1966 C   0  0  0  0  0  0  0  0  0  0  0  0
  -27.3741  -27.6898   20.3251 C   0  0  0  0  0  0  0  0  0  0  0  0
  -25.4748  -27.8942   19.2360 C   0  0  0  0  0  0  0  0  0  0  0  0
  -26.8388  -25.9190   18.5383 C   0  0  0  0  0  0  0  0  0  0  0  0
  -26.3857  -19.8024   21.4404 C   0  0  0  0  0  0  0  0  0  0  0  0
  -25.7311  -16.6862   20.8217 C   0  0  0  0  0  0  0  0  0  0  0  0
  -23.4055  -14.1952   20.6386 C   0  0  0  0  0  0  0  0  0  0  0  0
  -21.9620  -31.0400   22.5943 C   0  0  0  0  0  0  0  0  0  0  0  0
  -30.9755  -20.0065   19.2158 C   0  0  0  0  0  0  0  0  0  0  0  0
  -25.1176  -19.1332   23.5141 C   0  0  0  0  0  0  0  0  0  0  0  0
  -23.7500  -18.2312   21.0522 C   0  0  0  0  0  0  0  0  0  0  0  0
  -29.6084  -19.4357   18.8478 C   0  0  0  0  0  0  0  0  0  0  0  0
  -24.4288  -32.5525   20.5197 C   0  0  0  0  0  0  0  0  0  0  0  0
  -28.5165  -20.4760   19.0765 C   0  0  0  0  0  0  0  0  0  0  0  0
  -25.3666  -31.3973   20.1648 C   0  0  0  0  0  0  0  0  0  0  0  0
  -23.9047  -32.4351   21.9492 C   0  0  0  0  0  0  0  0  0  0  0  0
  -24.2054  -29.9893   21.9163 C   0  0  0  0  0  0  0  0  0  0  0  0
  -28.4434  -20.8837   20.5530 C   0  0  1  0  0  0  0  0  0  0  0  0
  -25.8961  -18.6633   22.2891 C   0  0  1  0  0  0  0  0  0  0  0  0
  -24.7156  -30.0339   20.4658 C   0  0  2  0  0  0  0  0  0  0  0  0
  -23.1645  -11.7633   20.0682 C   0  0  0  0  0  0  0  0  0  0  0  0
  -25.9152  -17.3667   17.8530 C   0  0  0  0  0  0  0  0  0  0  0  0
  -24.7570  -15.2033   17.3566 C   0  0  0  0  0  0  0  0  0  0  0  0
  -26.9775  -15.1950   18.4933 C   0  0  0  0  0  0  0  0  0  0  0  0
  -22.4639  -13.5300   23.3643 C   0  0  0  0  0  0  0  0  0  0  0  0
  -20.1040  -29.5105   23.2009 C   0  0  0  0  0  0  0  0  0  0  0  0
  -18.0139  -24.5307   21.1379 C   0  0  0  0  0  0  0  0  0  0  0  0
  -18.4401  -22.0920   20.8064 C   0  0  0  0  0  0  0  0  0  0  0  0
  -19.5119  -21.0319   20.9661 C   0  0  0  0  0  0  0  0  0  1  0  0
  -24.9322  -15.9491   19.7741 C   0  0  1  0  0  0  0  0  0  0  0  0
  -23.4052  -12.7759   21.1771 C   0  0  2  0  0  0  0  0  0  0  0  0
  -25.6334  -15.9478   18.3863 C   0  0  0  0  0  0  0  0  0  0  0  0
  -26.8098  -28.7858   20.8393 N   0  0  0  0  0  0  0  0  0  0  0  0
  -25.6564  -28.8839   20.1566 N   0  0  0  0  0  0  0  0  0  0  0  0
  -25.1062  -17.7906   21.4181 N   0  0  0  0  0  0  0  0  0  0  0  0
  -23.2983  -31.1198   22.1688 N   0  0  0  0  0  0  0  0  0  0  0  0
  -24.3691  -27.8416   18.4633 N   0  0  0  0  0  0  0  0  0  0  0  0
  -28.0306  -25.2139   18.7549 N   0  0  0  0  0  0  0  0  0  0  0  0
  -27.7611  -19.8672   21.3248 N   0  0  0  0  0  0  0  0  0  0  0  0
  -24.6775  -14.6188   20.3161 N   0  0  0  0  0  0  0  0  0  0  0  0
  -21.4631  -29.7554   22.7723 N   0  0  0  0  0  0  0  0  0  0  0  0
  -22.3373  -12.6116   22.2035 N   0  3  0  0  0  0  0  0  0  0  0  0
  -18.9696  -23.3983   21.2726 N   0  3  0  0  0  0  0  0  0  0  0  0
  -26.0385  -25.5168   17.6601 O   0  0  0  0  0  0  0  0  0  0  0  0
  -25.5755  -20.5652   20.9272 O   0  0  0  0  0  0  0  0  0  0  0  0
  -26.8650  -16.2921   21.1057 O   0  0  0  0  0  0  0  0  0  0  0  0
  -22.3796  -14.8602   20.5128 O   0  0  0  0  0  0  0  0  0  0  0  0
  -21.2635  -32.0393   22.7950 O   0  0  0  0  0  0  0  0  0  0  0  0
  -32.3448  -25.9477   22.2024 O   0  0  0  0  0  0  0  0  0  0  0  0
  -19.8706  -20.9189   22.3426 O   0  0  0  0  0  0  0  0  0  1  0  0
  -36.1046  -24.4211   18.4692 F   0  0  0  0  0  0  0  0  0  0  0  0
  -34.7843  -27.2377   22.0369 F   0  0  0  0  0  0  0  0  0  0  0  0
  1  2  1  0  0  0  0
  1  5  2  0  0  0  0
  2  6  2  0  0  0  0
  3 12  2  0  0  0  0
  3 19  1  0  0  0  0
  4 13  1  0  0  0  0
  4 19  2  0  0  0  0
  5 21  1  0  0  0  0
  6 23  1  0  0  0  0
  7 14  2  0  0  0  0
  7 22  1  0  0  0  0
  8 10  2  0  0  0  0
  8 25  1  0  0  0  0
  9 11  1  0  0  0  0
  9 25  2  0  0  0  0
 10 26  1  0  0  0  0
 11 26  2  0  0  0  0
 12 27  1  0  0  0  0
 13 27  2  0  0  0  0
 14 28  1  0  0  0  0
 15 16  2  0  0  0  0
 15 29  1  0  0  0  0
 16 30  1  0  0  0  0
 17 24  1  0  0  0  0
 17 28  2  0  0  0  0
 18 30  2  0  0  0  0
 18 31  1  0  0  0  0
 19 32  1  0  0  0  0
 20 32  1  0  0  0  0
 20 33  2  0  0  0  0
 20 34  1  0  0  0  0
 21 23  2  0  0  0  0
 21 39  1  0  0  0  0
 22 24  2  0  0  0  0
 22 40  1  0  0  0  0
 23 48  1  0  0  0  0
 24 41  1  0  0  0  0
 25 56  1  0  0  0  0
 26 57  1  0  0  0  0
 27 79  1  0  0  0  0
 28 80  1  0  0  0  0
 29 31  2  0  0  0  0
 29 79  1  0  0  0  0
 30 81  1  0  0  0  0
 31 82  1  0  0  0  0
 32 63  2  0  0  0  0
 33 64  1  0  0  0  0
 33 67  1  0  0  0  0
 34 68  1  0  0  0  0
 34 74  2  0  0  0  0
 35 49  1  0  0  0  0
 35 69  1  0  0  0  0
 35 75  2  0  0  0  0
 36 60  1  0  0  0  0
 36 65  1  0  0  0  0
 36 76  2  0  0  0  0
 37 61  1  0  0  0  0
 37 70  1  0  0  0  0
 37 77  2  0  0  0  0
 38 66  1  0  0  0  0
 38 71  1  0  0  0  0
 38 78  2  0  0  0  0
 39 42  1  0  0  0  0
 40 49  1  0  0  0  0
 41 65  1  0  0  0  0
 42 44  1  0  0  0  0
 43 45  1  0  0  0  0
 43 46  1  0  0  0  0
 44 48  1  0  0  0  0
 45 50  1  0  0  0  0
 46 66  1  0  0  0  0
 47 50  1  0  0  0  0
 47 66  1  0  0  0  0
 48 69  1  0  0  0  0
 49 65  1  0  0  0  0
 50 64  1  0  0  0  0
 51 61  1  0  0  0  0
 52 62  1  0  0  0  0
 53 62  1  0  0  0  0
 54 62  1  0  0  0  0
 55 72  1  0  0  0  0
 56 71  1  0  0  0  0
 57 73  1  0  0  0  0
 58 59  1  0  0  0  0
 58 73  1  0  0  0  0
 59 80  1  0  0  0  0
 60 62  1  0  0  0  0
 60 70  1  0  0  0  0
 61 72  1  0  0  0  0
 63 64  1  0  0  0  0
M  CHG  2  72   1  73   1
M  ISO  4  38 100  59 101  71 100  80 101
M  END
> <Batch ID>
0003

> <Smiles>
CNC(C)C(=O)NC(C(=O)N1Cc2cc([101O:1][101CH2:1]CNCc3ccc(C[100NH:0][100C:0](=O)N4CCCC(n5nc(-c6ccc(Oc7ccc(F)cc7F)cc6)c(C(N)=O)c5N)C4)cc3)ccc2CC1C(=O)NC1CCCc2ccccc21)C(C)(C)C

> <Shape>
0.208

> <Color>
0.088

> <Negative vol penalty>
0.000

$$$$

  -OEChem-04042320203D

 78 86  0     1  0  0  0  0  0999 V2000
  -26.7739  -32.6995   28.1675 C   0  0  0  0  0  0  0  0  0  0  0  0
  -27.2042  -31.6974   27.3039 C   0  0  0  0  0  0  0  0  0  0  0  0
  -27.9925  -22.3141   16.9447 C   0  0  0  0  0  0  0  0  0  0  0  0
  -26.5064  -12.7174   21.6170 C   0  0  0  0  0  0  0  0  0  0  0  0
  -26.0125  -13.7464   19.4877 C   0  0  0  0  0  0  0  0  0  0  0  0
  -25.4236  -33.0436   28.2165 C   0  0  0  0  0  0  0  0  0  0  0  0
  -26.2843  -31.0379   26.4894 C   0  0  0  0  0  0  0  0  0  0  0  0
  -27.2352  -28.9309   20.8182 C   0  0  0  0  0  0  0  0  0  0  0  0
  -27.8815  -23.5924   17.4918 C   0  0  0  0  0  0  0  0  0  0  0  0
  -28.5263  -21.2739   17.7054 C   0  0  0  0  0  0  0  0  0  0  0  0
  -25.2502  -12.1112   21.6155 C   0  0  0  0  0  0  0  0  0  0  0  0
  -24.7563  -13.1402   19.4860 C   0  0  0  0  0  0  0  0  0  0  0  0
  -27.5382  -27.6615   20.3277 C   0  0  0  0  0  0  0  0  0  0  0  0
  -23.7752   -9.4401   20.1584 C   0  0  0  0  0  0  0  0  0  0  0  0
  -23.7052   -8.0929   20.5128 C   0  0  0  0  0  0  0  0  0  0  0  0
  -25.1982  -27.2824   19.8806 C   0  0  0  0  0  0  0  0  0  0  0  0
  -28.8381  -22.7902   19.5602 C   0  0  0  0  0  0  0  0  0  0  0  0
  -22.2435   -8.6529   22.3531 C   0  0  0  0  0  0  0  0  0  0  0  0
  -26.8875  -13.5351   20.5531 C   0  0  0  0  0  0  0  0  0  0  0  0
  -29.3811  -13.6417   20.0253 C   0  0  0  0  0  0  0  0  0  0  0  0
  -24.4882  -32.3946   27.3953 C   0  0  0  0  0  0  0  0  0  0  0  0
  -25.9080  -29.3822   20.8538 C   0  0  0  0  0  0  0  0  0  0  0  0
  -24.9201  -31.3726   26.5285 C   0  0  0  0  0  0  0  0  0  0  0  0
  -24.8813  -28.5589   20.3697 C   0  0  0  0  0  0  0  0  0  0  0  0
  -28.3043  -23.8305   18.7995 C   0  0  0  0  0  0  0  0  0  0  0  0
  -28.9491  -21.5119   19.0131 C   0  0  0  0  0  0  0  0  0  0  0  0
  -24.3751  -12.3225   20.5500 C   0  0  0  0  0  0  0  0  0  0  0  0
  -26.5193  -26.8359   19.8615 C   0  0  0  0  0  0  0  0  0  0  0  0
  -23.0795  -10.3938   20.9015 C   0  0  0  0  0  0  0  0  0  0  0  0
  -22.9393   -7.6992   21.6101 C   0  0  0  0  0  0  0  0  0  0  0  0
  -22.3136  -10.0001   21.9988 C   0  0  0  0  0  0  0  0  0  0  0  0
  -28.1848  -14.1621   20.5545 C   0  0  0  0  0  0  0  0  0  0  0  0
  -30.3189  -14.6133   20.2763 C   0  0  0  0  0  0  0  0  0  0  0  0
  -29.6229  -12.3918   19.3657 C   0  0  0  0  0  0  0  0  0  0  0  0
  -23.8999  -30.2656   23.1541 C   0  0  0  0  0  0  0  0  0  0  0  0
  -21.9913  -31.0484   20.6508 C   0  0  0  0  0  0  0  0  0  0  0  0
  -21.1684  -30.5681   17.3737 C   0  0  0  0  0  0  0  0  0  0  0  0
  -29.9572  -20.5208   21.0983 C   0  0  0  0  0  0  0  0  0  0  0  0
  -23.0321  -32.7683   27.5176 C   0  0  0  0  0  0  0  0  0  0  0  0
  -25.6007  -30.7644   21.3612 C   0  0  0  0  0  0  0  0  0  0  0  0
  -23.4424  -29.0040   20.3674 C   0  0  0  0  0  0  0  0  0  0  0  0
  -22.1777  -32.2795   26.3509 C   0  0  0  0  0  0  0  0  0  0  0  0
  -31.3281  -18.1363   23.3592 C   0  0  0  0  0  0  0  0  0  0  0  0
  -22.4919  -30.8209   26.0335 C   0  0  0  0  0  0  0  0  0  0  0  0
  -30.7915  -16.7986   22.8447 C   0  0  0  0  0  0  0  0  0  0  0  0
  -30.2992  -19.2555   23.2095 C   0  0  0  0  0  0  0  0  0  0  0  0
  -29.2062  -18.0732   21.3449 C   0  0  0  0  0  0  0  0  0  0  0  0
  -23.9563  -30.6512   25.6115 C   0  0  1  0  0  0  0  0  0  0  0  0
  -24.1568  -30.9225   21.8274 C   0  0  1  0  0  0  0  0  0  0  0  0
  -30.2305  -16.9288   21.4151 C   0  0  2  0  0  0  0  0  0  0  0  0
  -19.5398  -31.3237   15.6205 C   0  0  0  0  0  0  0  0  0  0  0  0
  -19.8198  -29.3285   21.9301 C   0  0  0  0  0  0  0  0  0  0  0  0
  -18.6126  -29.3443   19.7367 C   0  0  0  0  0  0  0  0  0  0  0  0
  -19.0056  -31.4839   20.9576 C   0  0  0  0  0  0  0  0  0  0  0  0
  -23.3324  -31.6255   15.6538 C   0  0  0  0  0  0  0  0  0  0  0  0
  -28.1847  -25.2057   19.3875 C   0  0  0  0  0  0  0  0  0  1  0  0
  -20.9499  -30.3236   19.8328 C   0  0  1  0  0  0  0  0  0  0  0  0
  -20.9071  -31.5505   16.2463 C   0  0  2  0  0  0  0  0  0  0  0  0
  -19.6238  -30.1106   20.6160 C   0  0  0  0  0  0  0  0  0  0  0  0
  -28.3453  -15.3704   21.1006 N   0  0  0  0  0  0  0  0  0  0  0  0
  -29.6533  -15.6173   20.9160 N   0  0  0  0  0  0  0  0  0  0  0  0
  -23.1921  -30.3615   20.8793 N   0  0  0  0  0  0  0  0  0  0  0  0
  -29.8156  -19.3219   21.8287 N   0  0  0  0  0  0  0  0  0  0  0  0
  -31.6396  -14.6981   20.0102 N   0  0  0  0  0  0  0  0  0  0  0  0
  -28.5477  -11.5102   19.1899 N   0  0  0  0  0  0  0  0  0  0  0  0
  -29.4906  -20.4548   19.7858 N   0  0  0  0  0  0  0  0  0  0  0  0
  -24.1410  -31.0823   24.2423 N   0  0  0  0  0  0  0  0  0  0  0  0
  -20.7987  -31.0848   18.5974 N   0  0  0  0  0  0  0  0  0  0  0  0
  -21.9408  -31.4053   15.1827 N   0  3  0  0  0  0  0  0  0  0  0  0
  -30.7622  -12.0595   18.9593 O   0  0  0  0  0  0  0  0  0  0  0  0
  -23.5105  -29.1042   23.1878 O   0  0  0  0  0  0  0  0  0  0  0  0
  -21.7511  -32.1850   21.0655 O   0  0  0  0  0  0  0  0  0  0  0  0
  -21.6488  -29.4523   17.1870 O   0  0  0  0  0  0  0  0  0  0  0  0
  -30.4803  -21.5233   21.5915 O   0  0  0  0  0  0  0  0  0  0  0  0
  -23.1494  -11.7309   20.5480 O   0  0  0  0  0  0  0  0  0  0  0  0
  -26.8122  -25.5962   19.3828 O   0  0  0  0  0  0  0  0  0  1  0  0
  -22.8709   -6.4052   21.9493 F   0  0  0  0  0  0  0  0  0  0  0  0
  -21.6420  -10.9116   22.7158 F   0  0  0  0  0  0  0  0  0  0  0  0
  1  2  1  0  0  0  0
  1  6  2  0  0  0  0
  2  7  2  0  0  0  0
  3  9  2  0  0  0  0
  3 10  1  0  0  0  0
  4 11  2  0  0  0  0
  4 19  1  0  0  0  0
  5 12  1  0  0  0  0
  5 19  2  0  0  0  0
  6 21  1  0  0  0  0
  7 23  1  0  0  0  0
  8 13  2  0  0  0  0
  8 22  1  0  0  0  0
  9 25  1  0  0  0  0
 10 26  2  0  0  0  0
 11 27  1  0  0  0  0
 12 27  2  0  0  0  0
 13 28  1  0  0  0  0
 14 15  2  0  0  0  0
 14 29  1  0  0  0  0
 15 30  1  0  0  0  0
 16 24  1  0  0  0  0
 16 28  2  0  0  0  0
 17 25  2  0  0  0  0
 17 26  1  0  0  0  0
 18 30  2  0  0  0  0
 18 31  1  0  0  0  0
 19 32  1  0  0  0  0
 20 32  1  0  0  0  0
 20 33  2  0  0  0  0
 20 34  1  0  0  0  0
 21 23  2  0  0  0  0
 21 39  1  0  0  0  0
 22 24  2  0  0  0  0
 22 40  1  0  0  0  0
 23 48  1  0  0  0  0
 24 41  1  0  0  0  0
 25 56  1  0  0  0  0
 26 66  1  0  0  0  0
 27 75  1  0  0  0  0
 28 76  1  0  0  0  0
 29 31  2  0  0  0  0
 29 75  1  0  0  0  0
 30 77  1  0  0  0  0
 31 78  1  0  0  0  0
 32 60  2  0  0  0  0
 33 61  1  0  0  0  0
 33 64  1  0  0  0  0
 34 65  1  0  0  0  0
 34 70  2  0  0  0  0
 35 49  1  0  0  0  0
 35 67  1  0  0  0  0
 35 71  2  0  0  0  0
 36 57  1  0  0  0  0
 36 62  1  0  0  0  0
 36 72  2  0  0  0  0
 37 58  1  0  0  0  0
 37 68  1  0  0  0  0
 37 73  2  0  0  0  0
 38 63  1  0  0  0  0
 38 66  1  0  0  0  0
 38 74  2  0  0  0  0
 39 42  1  0  0  0  0
 40 49  1  0  0  0  0
 41 62  1  0  0  0  0
 42 44  1  0  0  0  0
 43 45  1  0  0  0  0
 43 46  1  0  0  0  0
 44 48  1  0  0  0  0
 45 50  1  0  0  0  0
 46 63  1  0  0  0  0
 47 50  1  0  0  0  0
 47 63  1  0  0  0  0
 48 67  1  0  0  0  0
 49 62  1  0  0  0  0
 50 61  1  0  0  0  0
 51 58  1  0  0  0  0
 52 59  1  0  0  0  0
 53 59  1  0  0  0  0
 54 59  1  0  0  0  0
 55 69  1  0  0  0  0
 56 76  1  0  0  0  0
 57 59  1  0  0  0  0
 57 68  1  0  0  0  0
 58 69  1  0  0  0  0
 60 61  1  0  0  0  0
M  CHG  1  69   1
M  ISO  4  38 100  56 101  66 100  76 101
M  END
> <Batch ID>
0003

> <Smiles>
CNC(C)C(=O)NC(C(=O)N1Cc2cc([101O:1][101CH2:1]c3cccc([100NH:0][100C:0](=O)N4CCCC(n5nc(-c6ccc(Oc7ccc(F)cc7F)cc6)c(C(N)=O)c5N)C4)c3)ccc2CC1C(=O)NC1CCCc2ccccc21)C(C)(C)C

> <Shape>
0.294

> <Color>
0.112

> <Negative vol penalty>
0.000

$$$$

  -OEChem-04042320203D

 88 97  0     1  0  0  0  0  0999 V2000
  -29.5141  -30.1685   15.2654 C   0  0  0  0  0  0  0  0  0  0  0  0
  -29.3210  -29.3599   16.3808 C   0  0  0  0  0  0  0  0  0  0  0  0
  -23.4971   -9.9067   21.1555 C   0  0  0  0  0  0  0  0  0  0  0  0
  -24.9952  -10.2394   23.0215 C   0  0  0  0  0  0  0  0  0  0  0  0
  -25.8320  -21.5571   25.2188 C   0  0  0  0  0  0  0  0  0  0  0  0
  -28.1422  -22.2247   25.4519 C   0  0  0  0  0  0  0  0  0  0  0  0
  -29.3676  -31.5508   15.3740 C   0  0  0  0  0  0  0  0  0  0  0  0
  -28.9823  -29.9333   17.6060 C   0  0  0  0  0  0  0  0  0  0  0  0
  -25.1707  -27.4178   19.9800 C   0  0  0  0  0  0  0  0  0  0  0  0
  -25.5145  -22.8254   24.7326 C   0  0  0  0  0  0  0  0  0  0  0  0
  -27.8247  -23.4930   24.9657 C   0  0  0  0  0  0  0  0  0  0  0  0
  -23.0511   -8.7146   21.7260 C   0  0  0  0  0  0  0  0  0  0  0  0
  -24.5492   -9.0473   23.5921 C   0  0  0  0  0  0  0  0  0  0  0  0
  -25.4736  -26.2297   20.6437 C   0  0  0  0  0  0  0  0  0  0  0  0
  -20.9261   -7.7699   24.1805 C   0  0  0  0  0  0  0  0  0  0  0  0
  -19.5515   -7.5338   24.1974 C   0  0  0  0  0  0  0  0  0  0  0  0
  -25.5738  -27.4298   22.7336 C   0  0  0  0  0  0  0  0  0  0  0  0
  -19.8794   -5.5308   22.8868 C   0  0  0  0  0  0  0  0  0  0  0  0
  -24.4692  -10.6691   21.8032 C   0  0  0  0  0  0  0  0  0  0  0  0
  -27.1458  -21.2568   25.5785 C   0  0  0  0  0  0  0  0  0  0  0  0
  -24.1591  -13.0365   20.9049 C   0  0  0  0  0  0  0  0  0  0  0  0
  -29.0174  -32.1405   16.5989 C   0  0  0  0  0  0  0  0  0  0  0  0
  -25.0770  -28.6250   20.6875 C   0  0  0  0  0  0  0  0  0  0  0  0
  -28.8322  -31.3248   17.7314 C   0  0  0  0  0  0  0  0  0  0  0  0
  -25.2649  -28.6309   22.0772 C   0  0  0  0  0  0  0  0  0  0  0  0
  -26.5109  -23.7933   24.6060 C   0  0  0  0  0  0  0  0  0  0  0  0
  -23.5771   -8.2849   22.9443 C   0  0  0  0  0  0  0  0  0  0  0  0
  -25.6774  -26.2360   22.0203 C   0  0  0  0  0  0  0  0  0  0  0  0
  -21.7774   -6.8865   23.5167 C   0  0  0  0  0  0  0  0  0  0  0  0
  -19.0281   -6.4142   23.5506 C   0  0  0  0  0  0  0  0  0  0  0  0
  -21.2540   -5.7669   22.8699 C   0  0  0  0  0  0  0  0  0  0  0  0
  -24.9308  -11.9004   21.2141 C   0  0  0  0  0  0  0  0  0  0  0  0
  -25.0577  -13.9262   20.3687 C   0  0  0  0  0  0  0  0  0  0  0  0
  -27.4790  -19.9308   26.0865 C   0  0  0  0  0  0  0  0  0  0  0  0
  -22.7557  -13.2670   21.0862 C   0  0  0  0  0  0  0  0  0  0  0  0
  -26.5686  -31.4569   20.6489 C   0  0  0  0  0  0  0  0  0  0  0  0
  -24.1940  -32.1521   22.8695 C   0  0  0  0  0  0  0  0  0  0  0  0
  -24.9647  -35.4632   22.5819 C   0  0  0  0  0  0  0  0  0  0  0  0
  -30.9774  -14.6007   20.9631 C   0  0  0  0  0  0  0  0  0  0  0  0
  -28.9167  -33.6433   16.6785 C   0  0  0  0  0  0  0  0  0  0  0  0
  -24.7193  -29.8909   19.9567 C   0  0  0  0  0  0  0  0  0  0  0  0
  -25.1716  -29.8991   22.8820 C   0  0  0  0  0  0  0  0  0  0  0  0
  -28.1892  -34.1397   17.9253 C   0  0  0  0  0  0  0  0  0  0  0  0
  -29.1748  -14.0831   17.9366 C   0  0  0  0  0  0  0  0  0  0  0  0
  -28.7013  -33.4153   19.1662 C   0  0  0  0  0  0  0  0  0  0  0  0
  -27.8131  -13.5675   18.4055 C   0  0  0  0  0  0  0  0  0  0  0  0
  -29.3399  -18.8024   23.1781 C   0  0  0  0  0  0  0  0  0  0  0  0
  -29.6351  -17.2451   25.1339 C   0  0  0  0  0  0  0  0  0  0  0  0
  -30.3091  -13.5615   18.8160 C   0  0  0  0  0  0  0  0  0  0  0  0
  -27.9436  -19.1530   23.6929 C   0  0  0  0  0  0  0  0  0  0  0  0
  -28.2304  -17.6127   25.6034 C   0  0  0  0  0  0  0  0  0  0  0  0
  -28.7773  -13.2965   20.7283 C   0  0  0  0  0  0  0  0  0  0  0  0
  -28.4397  -31.9073   19.0719 C   0  0  1  0  0  0  0  0  0  0  0  0
  -25.0970  -31.1612   20.7158 C   0  0  1  0  0  0  0  0  0  0  0  0
  -29.7626  -17.3909   23.6105 C   0  0  0  0  0  0  0  0  0  0  0  0
  -27.5965  -13.8406   19.9061 C   0  0  2  0  0  0  0  0  0  0  0  0
  -24.1565  -37.7400   23.2604 C   0  0  0  0  0  0  0  0  0  0  0  0
  -22.0009  -32.0001   20.7547 C   0  0  0  0  0  0  0  0  0  0  0  0
  -21.8791  -34.5004   20.8027 C   0  0  0  0  0  0  0  0  0  0  0  0
  -21.3442  -33.1877   22.8554 C   0  0  0  0  0  0  0  0  0  0  0  0
  -27.4521  -36.0261   24.0835 C   0  0  0  0  0  0  0  0  0  0  0  0
  -26.1691  -25.1571   24.0819 C   0  0  0  0  0  0  0  0  0  1  0  0
  -31.1869  -17.0859   23.1528 C   0  0  0  0  0  0  0  0  0  0  0  0
  -31.5020  -15.5967   23.1749 C   0  0  0  0  0  0  0  0  0  0  0  0
  -23.7462  -33.3601   22.0853 C   0  0  1  0  0  0  0  0  0  0  0  0
  -25.0591  -36.5692   23.6174 C   0  0  2  0  0  0  0  0  0  0  0  0
  -22.2671  -33.2489   21.6188 C   0  0  0  0  0  0  0  0  0  0  0  0
  -26.2202  -12.0518   20.9002 N   0  0  0  0  0  0  0  0  0  0  0  0
  -26.2657  -13.2935   20.3882 N   0  0  0  0  0  0  0  0  0  0  0  0
  -27.8572  -18.9531   25.1468 N   0  0  0  0  0  0  0  0  0  0  0  0
  -24.7381  -31.0888   22.1379 N   0  0  0  0  0  0  0  0  0  0  0  0
  -30.0431  -13.8540   20.2265 N   0  0  0  0  0  0  0  0  0  0  0  0
  -24.9243  -15.1803   19.8870 N   0  0  0  0  0  0  0  0  0  0  0  0
  -21.9786  -12.2468   21.6516 N   0  0  0  0  0  0  0  0  0  0  0  0
  -27.0527  -31.6156   19.3644 N   0  0  0  0  0  0  0  0  0  0  0  0
  -24.0214  -34.5189   22.9278 N   0  0  0  0  0  0  0  0  0  0  0  0
  -30.6448  -14.8383   22.2911 N   0  0  0  0  0  0  0  0  0  0  0  0
  -26.4598  -37.0687   23.7156 N   0  3  0  0  0  0  0  0  0  0  0  0
  -27.4256  -19.7008   27.2960 O   0  0  0  0  0  0  0  0  0  0  0  0
  -22.2040  -14.3396   20.7415 O   0  0  0  0  0  0  0  0  0  0  0  0
  -27.2166  -31.5367   21.6859 O   0  0  0  0  0  0  0  0  0  0  0  0
  -24.0592  -32.1459   24.0963 O   0  0  0  0  0  0  0  0  0  0  0  0
  -25.6558  -35.4412   21.5658 O   0  0  0  0  0  0  0  0  0  0  0  0
  -32.0274  -15.0289   20.4720 O   0  0  0  0  0  0  0  0  0  0  0  0
  -23.1419   -7.1218   23.5015 O   0  0  0  0  0  0  0  0  0  0  0  0
  -25.9726  -25.0777   22.6708 O   0  0  0  0  0  0  0  0  0  1  0  0
  -17.7082   -6.1868   23.5682 F   0  0  0  0  0  0  0  0  0  0  0  0
  -22.0670   -4.9140   22.2315 F   0  0  0  0  0  0  0  0  0  0  0  0
  1  2  1  0  0  0  0
  1  7  2  0  0  0  0
  2  8  2  0  0  0  0
  3 12  2  0  0  0  0
  3 19  1  0  0  0  0
  4 13  1  0  0  0  0
  4 19  2  0  0  0  0
  5 10  2  0  0  0  0
  5 20  1  0  0  0  0
  6 11  1  0  0  0  0
  6 20  2  0  0  0  0
  7 22  1  0  0  0  0
  8 24  1  0  0  0  0
  9 14  2  0  0  0  0
  9 23  1  0  0  0  0
 10 26  1  0  0  0  0
 11 26  2  0  0  0  0
 12 27  1  0  0  0  0
 13 27  2  0  0  0  0
 14 28  1  0  0  0  0
 15 16  2  0  0  0  0
 15 29  1  0  0  0  0
 16 30  1  0  0  0  0
 17 25  1  0  0  0  0
 17 28  2  0  0  0  0
 18 30  2  0  0  0  0
 18 31  1  0  0  0  0
 19 32  1  0  0  0  0
 20 34  1  0  0  0  0
 21 32  1  0  0  0  0
 21 33  2  0  0  0  0
 21 35  1  0  0  0  0
 22 24  2  0  0  0  0
 22 40  1  0  0  0  0
 23 25  2  0  0  0  0
 23 41  1  0  0  0  0
 24 53  1  0  0  0  0
 25 42  1  0  0  0  0
 26 62  1  0  0  0  0
 27 85  1  0  0  0  0
 28 86  1  0  0  0  0
 29 31  2  0  0  0  0
 29 85  1  0  0  0  0
 30 87  1  0  0  0  0
 31 88  1  0  0  0  0
 32 68  2  0  0  0  0
 33 69  1  0  0  0  0
 33 73  1  0  0  0  0
 34 70  1  0  0  0  0
 34 79  2  0  0  0  0
 35 74  1  0  0  0  0
 35 80  2  0  0  0  0
 36 54  1  0  0  0  0
 36 75  1  0  0  0  0
 36 81  2  0  0  0  0
 37 65  1  0  0  0  0
 37 71  1  0  0  0  0
 37 82  2  0  0  0  0
 38 66  1  0  0  0  0
 38 76  1  0  0  0  0
 38 83  2  0  0  0  0
 39 72  1  0  0  0  0
 39 77  1  0  0  0  0
 39 84  2  0  0  0  0
 40 43  1  0  0  0  0
 41 54  1  0  0  0  0
 42 71  1  0  0  0  0
 43 45  1  0  0  0  0
 44 46  1  0  0  0  0
 44 49  1  0  0  0  0
 45 53  1  0  0  0  0
 46 56  1  0  0  0  0
 47 50  1  0  0  0  0
 47 55  1  0  0  0  0
 48 51  1  0  0  0  0
 48 55  1  0  0  0  0
 49 72  1  0  0  0  0
 50 70  1  0  0  0  0
 51 70  1  0  0  0  0
 52 56  1  0  0  0  0
 52 72  1  0  0  0  0
 53 75  1  0  0  0  0
 54 71  1  0  0  0  0
 55 63  1  0  0  0  0
 56 69  1  0  0  0  0
 57 66  1  0  0  0  0
 58 67  1  0  0  0  0
 59 67  1  0  0  0  0
 60 67  1  0  0  0  0
 61 78  1  0  0  0  0
 62 86  1  0  0  0  0
 63 64  1  0  0  0  0
 64 77  1  0  0  0  0
 65 67  1  0  0  0  0
 65 76  1  0  0  0  0
 66 78  1  0  0  0  0
 68 69  1  0  0  0  0
M  CHG  1  78   1
M  ISO  4  39 100  62 101  77 100  86 101
M  END
> <Batch ID>
0003

> <Smiles>
CNC(C)C(=O)NC(C(=O)N1Cc2cc([101O:1][101CH2:1]c3ccc(C(=O)N4CCC(CC[100NH:0][100C:0](=O)N5CCCC(n6nc(-c7ccc(Oc8ccc(F)cc8F)cc7)c(C(N)=O)c6N)C5)CC4)cc3)ccc2CC1C(=O)NC1CCCc2ccccc21)C(C)(C)C

> <Shape>
0.247

> <Color>
0.194

> <Negative vol penalty>
0.000

$$$$

  -OEChem-04042320203D

 79 87  0     1  0  0  0  0  0999 V2000
  -26.2557  -33.1308   18.4077 C   0  0  0  0  0  0  0  0  0  0  0  0
  -26.8579  -31.9800   18.9060 C   0  0  0  0  0  0  0  0  0  0  0  0
  -23.1007   -9.8373   19.9341 C   0  0  0  0  0  0  0  0  0  0  0  0
  -23.8695   -9.8462   22.2244 C   0  0  0  0  0  0  0  0  0  0  0  0
  -25.3740  -33.0446   17.3311 C   0  0  0  0  0  0  0  0  0  0  0  0
  -26.5779  -30.7420   18.3287 C   0  0  0  0  0  0  0  0  0  0  0  0
  -30.4333  -26.0292   17.6725 C   0  0  0  0  0  0  0  0  0  0  0  0
  -29.1411  -18.7571   21.0185 C   0  0  0  0  0  0  0  0  0  0  0  0
  -31.3554  -18.5679   20.0707 C   0  0  0  0  0  0  0  0  0  0  0  0
  -28.8580  -19.8089   20.1472 C   0  0  0  0  0  0  0  0  0  0  0  0
  -31.0723  -19.6197   19.1994 C   0  0  0  0  0  0  0  0  0  0  0  0
  -22.3825   -8.6671   20.1797 C   0  0  0  0  0  0  0  0  0  0  0  0
  -23.1512   -8.6760   22.4701 C   0  0  0  0  0  0  0  0  0  0  0  0
  -30.6269  -24.8652   18.4152 C   0  0  0  0  0  0  0  0  0  0  0  0
  -19.9432   -7.8061   23.0802 C   0  0  0  0  0  0  0  0  0  0  0  0
  -19.1920   -7.7429   24.2538 C   0  0  0  0  0  0  0  0  0  0  0  0
  -29.1880  -23.6642   16.8965 C   0  0  0  0  0  0  0  0  0  0  0  0
  -20.4772   -5.8277   24.9732 C   0  0  0  0  0  0  0  0  0  0  0  0
  -23.8443  -10.4268   20.9564 C   0  0  0  0  0  0  0  0  0  0  0  0
  -24.1320  -12.9594   20.8509 C   0  0  0  0  0  0  0  0  0  0  0  0
  -25.0904  -31.8062   16.7341 C   0  0  0  0  0  0  0  0  0  0  0  0
  -29.6055  -26.0219   16.5406 C   0  0  0  0  0  0  0  0  0  0  0  0
  -25.6905  -30.6389   17.2439 C   0  0  0  0  0  0  0  0  0  0  0  0
  -28.9876  -24.8287   16.1397 C   0  0  0  0  0  0  0  0  0  0  0  0
  -30.3898  -18.1366   20.9803 C   0  0  0  0  0  0  0  0  0  0  0  0
  -29.8236  -20.2402   19.2377 C   0  0  0  0  0  0  0  0  0  0  0  0
  -22.4077   -8.0864   21.4477 C   0  0  0  0  0  0  0  0  0  0  0  0
  -30.0019  -23.6832   18.0289 C   0  0  0  0  0  0  0  0  0  0  0  0
  -20.9613   -6.8801   22.8531 C   0  0  0  0  0  0  0  0  0  0  0  0
  -19.4590   -6.7537   25.2003 C   0  0  0  0  0  0  0  0  0  0  0  0
  -21.2283   -5.8909   23.7996 C   0  0  0  0  0  0  0  0  0  0  0  0
  -24.5869  -11.6354   20.7032 C   0  0  0  0  0  0  0  0  0  0  0  0
  -25.2065  -13.7341   20.4881 C   0  0  0  0  0  0  0  0  0  0  0  0
  -22.8525  -13.4455   21.2780 C   0  0  0  0  0  0  0  0  0  0  0  0
  -26.9174  -27.5054   15.7179 C   0  0  0  0  0  0  0  0  0  0  0  0
  -27.4575  -26.0678   12.8607 C   0  0  0  0  0  0  0  0  0  0  0  0
  -28.9270  -23.5185   11.1320 C   0  0  0  0  0  0  0  0  0  0  0  0
  -30.6681  -14.8682   20.6614 C   0  0  0  0  0  0  0  0  0  0  0  0
  -24.0943  -31.7568   15.6028 C   0  0  0  0  0  0  0  0  0  0  0  0
  -29.4283  -27.2796   15.7349 C   0  0  0  0  0  0  0  0  0  0  0  0
  -28.1054  -24.7632   14.9207 C   0  0  0  0  0  0  0  0  0  0  0  0
  -24.1397  -30.4546   14.8075 C   0  0  0  0  0  0  0  0  0  0  0  0
  -29.5717  -12.4749   18.2642 C   0  0  0  0  0  0  0  0  0  0  0  0
  -24.1751  -29.2550   15.7492 C   0  0  0  0  0  0  0  0  0  0  0  0
  -28.1426  -12.1480   18.7009 C   0  0  0  0  0  0  0  0  0  0  0  0
  -30.4888  -12.7077   19.4629 C   0  0  0  0  0  0  0  0  0  0  0  0
  -28.5776  -13.3896   20.8614 C   0  0  0  0  0  0  0  0  0  0  0  0
  -25.4311  -29.2809   16.6286 C   0  0  1  0  0  0  0  0  0  0  0  0
  -28.1542  -27.2771   14.8958 C   0  0  1  0  0  0  0  0  0  0  0  0
  -27.6026  -13.2017   19.6865 C   0  0  2  0  0  0  0  0  0  0  0  0
  -29.1577  -22.5866    8.8134 C   0  0  0  0  0  0  0  0  0  0  0  0
  -24.6287  -24.9379   13.0360 C   0  0  0  0  0  0  0  0  0  0  0  0
  -25.2453  -23.3033   11.2426 C   0  0  0  0  0  0  0  0  0  0  0  0
  -25.2883  -25.7512   10.7649 C   0  0  0  0  0  0  0  0  0  0  0  0
  -31.8638  -23.8847   11.1519 C   0  0  0  0  0  0  0  0  0  0  0  0
  -30.6933  -17.0120   21.9115 C   0  0  0  0  0  0  0  0  0  0  0  0
  -29.5177  -21.3705   18.2996 C   0  0  0  0  0  0  0  0  0  1  0  0
  -27.0774  -24.7449   12.2408 C   0  0  1  0  0  0  0  0  0  0  0  0
  -29.7581  -23.5105    9.8616 C   0  0  2  0  0  0  0  0  0  0  0  0
  -25.5749  -24.6857   11.8452 C   0  0  0  0  0  0  0  0  0  0  0  0
  -25.8518  -11.5690   20.2794 N   0  0  0  0  0  0  0  0  0  0  0  0
  -26.2008  -12.8611   20.1576 N   0  0  0  0  0  0  0  0  0  0  0  0
  -27.9582  -26.0208   14.1695 N   0  0  0  0  0  0  0  0  0  0  0  0
  -29.9201  -13.7188   20.3574 N   0  0  0  0  0  0  0  0  0  0  0  0
  -25.3883  -15.0702   20.4226 N   0  0  0  0  0  0  0  0  0  0  0  0
  -21.8615  -12.5130   21.6135 N   0  0  0  0  0  0  0  0  0  0  0  0
  -26.5846  -28.8373   15.8756 N   0  0  0  0  0  0  0  0  0  0  0  0
  -27.9970  -24.5365   11.1275 N   0  0  0  0  0  0  0  0  0  0  0  0
  -30.0528  -15.7789   21.5116 N   0  0  0  0  0  0  0  0  0  0  0  0
  -31.1456  -23.0516   10.1533 N   0  3  0  0  0  0  0  0  0  0  0  0
  -22.5905  -14.6704   21.3440 O   0  0  0  0  0  0  0  0  0  0  0  0
  -26.3092  -26.5444   16.1741 O   0  0  0  0  0  0  0  0  0  0  0  0
  -27.3221  -27.1040   12.2052 O   0  0  0  0  0  0  0  0  0  0  0  0
  -29.0845  -22.7010   12.0361 O   0  0  0  0  0  0  0  0  0  0  0  0
  -31.7982  -15.0706   20.2045 O   0  0  0  0  0  0  0  0  0  0  0  0
  -21.7068   -6.9447   21.6878 O   0  0  0  0  0  0  0  0  0  0  0  0
  -30.1886  -22.5458   18.7524 O   0  0  0  0  0  0  0  0  0  1  0  0
  -18.7385   -6.6940   26.3279 F   0  0  0  0  0  0  0  0  0  0  0  0
  -22.2060   -4.9993   23.5875 F   0  0  0  0  0  0  0  0  0  0  0  0
  1  2  1  0  0  0  0
  1  5  2  0  0  0  0
  2  6  2  0  0  0  0
  3 12  2  0  0  0  0
  3 19  1  0  0  0  0
  4 13  1  0  0  0  0
  4 19  2  0  0  0  0
  5 21  1  0  0  0  0
  6 23  1  0  0  0  0
  7 14  2  0  0  0  0
  7 22  1  0  0  0  0
  8 10  2  0  0  0  0
  8 25  1  0  0  0  0
  9 11  1  0  0  0  0
  9 25  2  0  0  0  0
 10 26  1  0  0  0  0
 11 26  2  0  0  0  0
 12 27  1  0  0  0  0
 13 27  2  0  0  0  0
 14 28  1  0  0  0  0
 15 16  2  0  0  0  0
 15 29  1  0  0  0  0
 16 30  1  0  0  0  0
 17 24  1  0  0  0  0
 17 28  2  0  0  0  0
 18 30  2  0  0  0  0
 18 31  1  0  0  0  0
 19 32  1  0  0  0  0
 20 32  1  0  0  0  0
 20 33  2  0  0  0  0
 20 34  1  0  0  0  0
 21 23  2  0  0  0  0
 21 39  1  0  0  0  0
 22 24  2  0  0  0  0
 22 40  1  0  0  0  0
 23 48  1  0  0  0  0
 24 41  1  0  0  0  0
 25 56  1  0  0  0  0
 26 57  1  0  0  0  0
 27 76  1  0  0  0  0
 28 77  1  0  0  0  0
 29 31  2  0  0  0  0
 29 76  1  0  0  0  0
 30 78  1  0  0  0  0
 31 79  1  0  0  0  0
 32 61  2  0  0  0  0
 33 62  1  0  0  0  0
 33 65  1  0  0  0  0
 34 66  1  0  0  0  0
 34 71  2  0  0  0  0
 35 49  1  0  0  0  0
 35 67  1  0  0  0  0
 35 72  2  0  0  0  0
 36 58  1  0  0  0  0
 36 63  1  0  0  0  0
 36 73  2  0  0  0  0
 37 59  1  0  0  0  0
 37 68  1  0  0  0  0
 37 74  2  0  0  0  0
 38 64  1  0  0  0  0
 38 69  1  0  0  0  0
 38 75  2  0  0  0  0
 39 42  1  0  0  0  0
 40 49  1  0  0  0  0
 41 63  1  0  0  0  0
 42 44  1  0  0  0  0
 43 45  1  0  0  0  0
 43 46  1  0  0  0  0
 44 48  1  0  0  0  0
 45 50  1  0  0  0  0
 46 64  1  0  0  0  0
 47 50  1  0  0  0  0
 47 64  1  0  0  0  0
 48 67  1  0  0  0  0
 49 63  1  0  0  0  0
 50 62  1  0  0  0  0
 51 59  1  0  0  0  0
 52 60  1  0  0  0  0
 53 60  1  0  0  0  0
 54 60  1  0  0  0  0
 55 70  1  0  0  0  0
 56 69  1  0  0  0  0
 57 77  1  0  0  0  0
 58 60  1  0  0  0  0
 58 68  1  0  0  0  0
 59 70  1  0  0  0  0
 61 62  1  0  0  0  0
M  CHG  1  70   1
M  ISO  4  38 100  57 101  69 100  77 101
M  END
> <Batch ID>
0003

> <Smiles>
CNC(C)C(=O)NC(C(=O)N1Cc2cc([101O:1][101CH2:1]c3ccc(C[100NH:0][100C:0](=O)N4CCCC(n5nc(-c6ccc(Oc7ccc(F)cc7F)cc6)c(C(N)=O)c5N)C4)cc3)ccc2CC1C(=O)NC1CCCc2ccccc21)C(C)(C)C

> <Shape>
0.232

> <Color>
0.203

> <Negative vol penalty>
0.000

$$$$

  -OEChem-04042320203D

 84 92  0     1  0  0  0  0  0999 V2000
  -23.2179   -8.2516   21.3740 C   0  0  0  0  0  0  0  0  0  0  0  0
  -24.0345   -8.8495   20.4195 C   0  0  0  0  0  0  0  0  0  0  0  0
  -28.1342  -28.8786   22.0496 C   0  0  0  0  0  0  0  0  0  0  0  0
  -26.6990  -27.0117   22.5899 C   0  0  0  0  0  0  0  0  0  0  0  0
  -22.5228   -9.0418   22.2886 C   0  0  0  0  0  0  0  0  0  0  0  0
  -24.1556  -10.2380   20.3783 C   0  0  0  0  0  0  0  0  0  0  0  0
  -28.9556  -11.7538   19.8234 C   0  0  0  0  0  0  0  0  0  0  0  0
  -32.0459  -19.5863   14.8631 C   0  0  0  0  0  0  0  0  0  0  0  0
  -31.8757  -18.8693   17.1640 C   0  0  0  0  0  0  0  0  0  0  0  0
  -31.0267  -20.5142   15.0768 C   0  0  0  0  0  0  0  0  0  0  0  0
  -30.8565  -19.7973   17.3777 C   0  0  0  0  0  0  0  0  0  0  0  0
  -27.3719  -29.7039   22.8762 C   0  0  0  0  0  0  0  0  0  0  0  0
  -25.9367  -27.8370   23.4166 C   0  0  0  0  0  0  0  0  0  0  0  0
  -29.5043  -11.6752   18.5442 C   0  0  0  0  0  0  0  0  0  0  0  0
  -26.0191  -32.2185   25.1261 C   0  0  0  0  0  0  0  0  0  0  0  0
  -26.6988  -33.0773   25.9897 C   0  0  0  0  0  0  0  0  0  0  0  0
  -29.1121  -14.0356   18.2375 C   0  0  0  0  0  0  0  0  0  0  0  0
  -27.7491  -31.1783   27.0517 C   0  0  0  0  0  0  0  0  0  0  0  0
  -27.7977  -27.5325   21.9063 C   0  0  0  0  0  0  0  0  0  0  0  0
  -29.7114  -25.9184   21.4161 C   0  0  0  0  0  0  0  0  0  0  0  0
  -22.6430  -10.4402   22.2647 C   0  0  0  0  0  0  0  0  0  0  0  0
  -28.4703  -12.9737   20.3160 C   0  0  0  0  0  0  0  0  0  0  0  0
  -23.4604  -11.0477   21.2926 C   0  0  0  0  0  0  0  0  0  0  0  0
  -28.5601  -14.1275   19.5243 C   0  0  0  0  0  0  0  0  0  0  0  0
  -32.4704  -18.7637   15.9066 C   0  0  0  0  0  0  0  0  0  0  0  0
  -30.4320  -20.6198   16.3341 C   0  0  0  0  0  0  0  0  0  0  0  0
  -26.2732  -29.1832   23.5597 C   0  0  0  0  0  0  0  0  0  0  0  0
  -29.5800  -12.8156   17.7499 C   0  0  0  0  0  0  0  0  0  0  0  0
  -26.2042  -30.8395   25.2253 C   0  0  0  0  0  0  0  0  0  0  0  0
  -27.5638  -32.5573   26.9525 C   0  0  0  0  0  0  0  0  0  0  0  0
  -27.0693  -30.3194   26.1881 C   0  0  0  0  0  0  0  0  0  0  0  0
  -28.5845  -26.6796   21.0521 C   0  0  0  0  0  0  0  0  0  0  0  0
  -30.0906  -25.2898   20.2553 C   0  0  0  0  0  0  0  0  0  0  0  0
  -30.3575  -25.7909   22.6897 C   0  0  0  0  0  0  0  0  0  0  0  0
  -25.6301  -14.0385   21.2666 C   0  0  0  0  0  0  0  0  0  0  0  0
  -27.3314  -16.6704   22.1036 C   0  0  0  0  0  0  0  0  0  0  0  0
  -30.1173  -18.5870   21.6425 C   0  0  0  0  0  0  0  0  0  0  0  0
  -28.8577  -22.4541   15.6248 C   0  0  0  0  0  0  0  0  0  0  0  0
  -21.8351  -11.2551   23.2435 C   0  0  0  0  0  0  0  0  0  0  0  0
  -27.9057  -13.0473   21.7083 C   0  0  0  0  0  0  0  0  0  0  0  0
  -28.0718  -15.4654   20.0142 C   0  0  0  0  0  0  0  0  0  0  0  0
  -22.3107  -12.6999   23.3718 C   0  0  0  0  0  0  0  0  0  0  0  0
  -28.5756  -26.0003   15.4781 C   0  0  0  0  0  0  0  0  0  0  0  0
  -22.5442  -13.3095   21.9931 C   0  0  0  0  0  0  0  0  0  0  0  0
  -28.6455  -26.4306   16.9451 C   0  0  0  0  0  0  0  0  0  0  0  0
  -27.8142  -24.6869   15.3079 C   0  0  0  0  0  0  0  0  0  0  0  0
  -28.3619  -24.0095   17.6123 C   0  0  0  0  0  0  0  0  0  0  0  0
  -23.6370  -12.5495   21.2317 C   0  0  1  0  0  0  0  0  0  0  0  0
  -26.9722  -14.2365   21.9124 C   0  0  1  0  0  0  0  0  0  0  0  0
  -29.1753  -25.2939   17.8411 C   0  0  2  0  0  0  0  0  0  0  0  0
  -31.2109  -20.6982   22.4450 C   0  0  0  0  0  0  0  0  0  0  0  0
  -25.3600  -18.3154   20.4551 C   0  0  0  0  0  0  0  0  0  0  0  0
  -27.0025  -20.2043   20.5041 C   0  0  0  0  0  0  0  0  0  0  0  0
  -26.0194  -19.3531   22.6329 C   0  0  0  0  0  0  0  0  0  0  0  0
  -32.4913  -17.1200   22.6281 C   0  0  0  0  0  0  0  0  0  0  0  0
  -33.5722  -17.7606   15.6754 C   0  0  0  0  0  0  0  0  0  0  0  0
  -33.0727  -16.3878   15.2107 C   0  0  0  0  0  0  0  0  0  0  0  0
  -34.1985  -15.3609   15.0555 C   0  0  0  0  0  0  0  0  0  0  0  0
  -33.6541  -14.0281   14.5617 C   0  0  0  0  0  0  0  0  0  0  0  0
  -32.0480  -12.2150   15.1714 C   0  0  0  0  0  0  0  0  0  0  0  0
  -31.1253  -11.7578   16.2839 C   0  0  0  0  0  0  0  0  0  1  0  0
  -27.7309  -17.9504   21.4100 C   0  0  1  0  0  0  0  0  0  0  0  0
  -31.0979  -19.1930   22.6303 C   0  0  2  0  0  0  0  0  0  0  0  0
  -26.5357  -18.9304   21.2402 C   0  0  0  0  0  0  0  0  0  0  0  0
  -28.2686  -26.5482   19.7610 N   0  0  0  0  0  0  0  0  0  0  0  0
  -29.2027  -25.6971   19.3036 N   0  0  0  0  0  0  0  0  0  0  0  0
  -27.5223  -15.4848   21.3800 N   0  0  0  0  0  0  0  0  0  0  0  0
  -28.3743  -23.6558   16.1842 N   0  0  0  0  0  0  0  0  0  0  0  0
  -31.0938  -24.4340   19.9660 N   0  0  0  0  0  0  0  0  0  0  0  0
  -29.8378  -26.5061   23.7771 N   0  0  0  0  0  0  0  0  0  0  0  0
  -29.3968  -21.5625   16.5517 N   0  0  0  0  0  0  0  0  0  0  0  0
  -24.9470  -12.9256   21.7186 N   0  0  0  0  0  0  0  0  0  0  0  0
  -28.8478  -18.4968   22.1730 N   0  0  0  0  0  0  0  0  0  0  0  0
  -32.4508  -18.5944   22.4506 N   0  3  0  0  0  0  0  0  0  0  0  0
  -32.6971  -13.4905   15.5662 N   0  3  0  0  0  0  0  0  0  0  0  0
  -31.3757  -25.0770   22.8546 O   0  0  0  0  0  0  0  0  0  0  0  0
  -25.2424  -14.8371   20.4218 O   0  0  0  0  0  0  0  0  0  0  0  0
  -26.8738  -16.7202   23.2480 O   0  0  0  0  0  0  0  0  0  0  0  0
  -30.4440  -18.2327   20.5118 O   0  0  0  0  0  0  0  0  0  0  0  0
  -28.8225  -22.2436   14.4097 O   0  0  0  0  0  0  0  0  0  0  0  0
  -25.5292  -29.9881   24.3666 O   0  0  0  0  0  0  0  0  0  0  0  0
  -30.1145  -12.7415   16.5006 O   0  0  0  0  0  0  0  0  0  1  0  0
  -28.2177  -33.3823   27.7807 F   0  0  0  0  0  0  0  0  0  0  0  0
  -27.2521  -28.9956   26.2874 F   0  0  0  0  0  0  0  0  0  0  0  0
  1  2  1  0  0  0  0
  1  5  2  0  0  0  0
  2  6  2  0  0  0  0
  3 12  2  0  0  0  0
  3 19  1  0  0  0  0
  4 13  1  0  0  0  0
  4 19  2  0  0  0  0
  5 21  1  0  0  0  0
  6 23  1  0  0  0  0
  7 14  2  0  0  0  0
  7 22  1  0  0  0  0
  8 10  2  0  0  0  0
  8 25  1  0  0  0  0
  9 11  1  0  0  0  0
  9 25  2  0  0  0  0
 10 26  1  0  0  0  0
 11 26  2  0  0  0  0
 12 27  1  0  0  0  0
 13 27  2  0  0  0  0
 14 28  1  0  0  0  0
 15 16  2  0  0  0  0
 15 29  1  0  0  0  0
 16 30  1  0  0  0  0
 17 24  1  0  0  0  0
 17 28  2  0  0  0  0
 18 30  2  0  0  0  0
 18 31  1  0  0  0  0
 19 32  1  0  0  0  0
 20 32  1  0  0  0  0
 20 33  2  0  0  0  0
 20 34  1  0  0  0  0
 21 23  2  0  0  0  0
 21 39  1  0  0  0  0
 22 24  2  0  0  0  0
 22 40  1  0  0  0  0
 23 48  1  0  0  0  0
 24 41  1  0  0  0  0
 25 56  1  0  0  0  0
 26 71  1  0  0  0  0
 27 81  1  0  0  0  0
 28 82  1  0  0  0  0
 29 31  2  0  0  0  0
 29 81  1  0  0  0  0
 30 83  1  0  0  0  0
 31 84  1  0  0  0  0
 32 65  2  0  0  0  0
 33 66  1  0  0  0  0
 33 69  1  0  0  0  0
 34 70  1  0  0  0  0
 34 76  2  0  0  0  0
 35 49  1  0  0  0  0
 35 72  1  0  0  0  0
 35 77  2  0  0  0  0
 36 62  1  0  0  0  0
 36 67  1  0  0  0  0
 36 78  2  0  0  0  0
 37 63  1  0  0  0  0
 37 73  1  0  0  0  0
 37 79  2  0  0  0  0
 38 68  1  0  0  0  0
 38 71  1  0  0  0  0
 38 80  2  0  0  0  0
 39 42  1  0  0  0  0
 40 49  1  0  0  0  0
 41 67  1  0  0  0  0
 42 44  1  0  0  0  0
 43 45  1  0  0  0  0
 43 46  1  0  0  0  0
 44 48  1  0  0  0  0
 45 50  1  0  0  0  0
 46 68  1  0  0  0  0
 47 50  1  0  0  0  0
 47 68  1  0  0  0  0
 48 72  1  0  0  0  0
 49 67  1  0  0  0  0
 50 66  1  0  0  0  0
 51 63  1  0  0  0  0
 52 64  1  0  0  0  0
 53 64  1  0  0  0  0
 54 64  1  0  0  0  0
 55 74  1  0  0  0  0
 56 57  1  0  0  0  0
 57 58  1  0  0  0  0
 58 59  1  0  0  0  0
 59 75  1  0  0  0  0
 60 61  1  0  0  0  0
 60 75  1  0  0  0  0
 61 82  1  0  0  0  0
 62 64  1  0  0  0  0
 62 73  1  0  0  0  0
 63 74  1  0  0  0  0
 65 66  1  0  0  0  0
M  CHG  2  74   1  75   1
M  ISO  4  38 100  61 101  71 100  82 101
M  END
> <Batch ID>
0003

> <Smiles>
CNC(C)C(=O)NC(C(=O)N1Cc2cc([101O:1][101CH2:1]CNCCCCc3ccc([100NH:0][100C:0](=O)N4CCCC(n5nc(-c6ccc(Oc7ccc(F)cc7F)cc6)c(C(N)=O)c5N)C4)cc3)ccc2CC1C(=O)NC1CCCc2ccccc21)C(C)(C)C

> <Shape>
0.225

> <Color>
0.080

> <Negative vol penalty>
0.000

$$$$

  -OEChem-04042320203D

 73 80  0     1  0  0  0  0  0999 V2000
  -28.7807  -11.4027   19.8413 C   0  0  0  0  0  0  0  0  0  0  0  0
  -28.8747  -12.6791   19.2960 C   0  0  0  0  0  0  0  0  0  0  0  0
  -25.9114  -28.9143   20.8188 C   0  0  0  0  0  0  0  0  0  0  0  0
  -25.2447  -26.5922   20.8056 C   0  0  0  0  0  0  0  0  0  0  0  0
  -27.5741  -10.9659   20.3863 C   0  0  0  0  0  0  0  0  0  0  0  0
  -27.7616  -13.5191   19.2943 C   0  0  0  0  0  0  0  0  0  0  0  0
  -28.8908  -18.2435   20.7261 C   0  0  0  0  0  0  0  0  0  0  0  0
  -24.5811  -29.2972   20.6476 C   0  0  0  0  0  0  0  0  0  0  0  0
  -23.9144  -26.9751   20.6344 C   0  0  0  0  0  0  0  0  0  0  0  0
  -29.5037  -19.0657   19.7816 C   0  0  0  0  0  0  0  0  0  0  0  0
  -20.2991  -27.3512   20.5553 C   0  0  0  0  0  0  0  0  0  0  0  0
  -19.3346  -26.7145   21.3363 C   0  0  0  0  0  0  0  0  0  0  0  0
  -27.3782  -20.1087   19.3193 C   0  0  0  0  0  0  0  0  0  0  0  0
  -20.4277  -27.5133   23.3374 C   0  0  0  0  0  0  0  0  0  0  0  0
  -26.2432  -27.5618   20.8978 C   0  0  0  0  0  0  0  0  0  0  0  0
  -28.2943  -26.9641   22.2918 C   0  0  0  0  0  0  0  0  0  0  0  0
  -26.4483  -11.8044   20.4000 C   0  0  0  0  0  0  0  0  0  0  0  0
  -27.5128  -18.3403   20.9669 C   0  0  0  0  0  0  0  0  0  0  0  0
  -26.5384  -13.0925   19.8388 C   0  0  0  0  0  0  0  0  0  0  0  0
  -26.7507  -19.2883   20.2692 C   0  0  0  0  0  0  0  0  0  0  0  0
  -23.5826  -28.3276   20.5554 C   0  0  0  0  0  0  0  0  0  0  0  0
  -28.7469  -19.9965   19.0760 C   0  0  0  0  0  0  0  0  0  0  0  0
  -21.3280  -28.0688   21.1653 C   0  0  0  0  0  0  0  0  0  0  0  0
  -19.3988  -26.7956   22.7274 C   0  0  0  0  0  0  0  0  0  0  0  0
  -21.3923  -28.1499   22.5564 C   0  0  0  0  0  0  0  0  0  0  0  0
  -27.6173  -27.1656   21.0741 C   0  0  0  0  0  0  0  0  0  0  0  0
  -29.5659  -26.6003   21.9215 C   0  0  0  0  0  0  0  0  0  0  0  0
  -27.8165  -27.0941   23.6374 C   0  0  0  0  0  0  0  0  0  0  0  0
  -25.0394  -16.3661   20.6693 C   0  0  0  0  0  0  0  0  0  0  0  0
  -23.4301  -18.7916   22.1009 C   0  0  0  0  0  0  0  0  0  0  0  0
  -23.2352  -22.1273   22.7949 C   0  0  0  0  0  0  0  0  0  0  0  0
  -31.8053  -24.0606   16.9833 C   0  0  0  0  0  0  0  0  0  0  0  0
  -25.1525  -11.2708   20.9575 C   0  0  0  0  0  0  0  0  0  0  0  0
  -26.8716  -17.4645   22.0082 C   0  0  0  0  0  0  0  0  0  0  0  0
  -25.2716  -19.4460   20.5052 C   0  0  0  0  0  0  0  0  0  0  0  0
  -24.1234  -12.3586   21.2544 C   0  0  0  0  0  0  0  0  0  0  0  0
  -32.7528  -27.1859   18.4013 C   0  0  0  0  0  0  0  0  0  0  0  0
  -24.0228  -13.3319   20.0842 C   0  0  0  0  0  0  0  0  0  0  0  0
  -31.6052  -27.5169   19.3570 C   0  0  0  0  0  0  0  0  0  0  0  0
  -32.2517  -26.4924   17.1365 C   0  0  0  0  0  0  0  0  0  0  0  0
  -30.2768  -25.6255   18.3290 C   0  0  0  0  0  0  0  0  0  0  0  0
  -25.3600  -14.0420   19.8407 C   0  0  1  0  0  0  0  0  0  0  0  0
  -25.3693  -17.2948   21.8034 C   0  0  1  0  0  0  0  0  0  0  0  0
  -30.7390  -26.2758   19.6442 C   0  0  2  0  0  0  0  0  0  0  0  0
  -21.7856  -23.8170   23.9528 C   0  0  0  0  0  0  0  0  0  0  0  0
  -21.4554  -18.6861   19.7772 C   0  0  0  0  0  0  0  0  0  0  0  0
  -20.6243  -20.9432   20.4723 C   0  0  0  0  0  0  0  0  0  0  0  0
  -20.4056  -19.0030   22.0249 C   0  0  0  0  0  0  0  0  0  0  0  0
  -25.3980  -22.8660   24.6752 C   0  0  0  0  0  0  0  0  0  0  0  0
  -31.2354  -21.6456   16.9357 C   0  0  0  0  0  0  0  0  0  0  0  0
  -30.7465  -20.6355   17.9583 C   0  0  0  0  0  0  0  0  0  1  0  0
  -22.6870  -20.0136   21.6176 C   0  0  1  0  0  0  0  0  0  0  0  0
  -22.9697  -22.8728   24.0904 C   0  0  2  0  0  0  0  0  0  0  0  0
  -21.3206  -19.6574   20.9669 C   0  0  0  0  0  0  0  0  0  0  0  0
  -28.3944  -26.9480   20.0099 N   0  0  0  0  0  0  0  0  0  0  0  0
  -29.5730  -26.6061   20.5576 N   0  0  0  0  0  0  0  0  0  0  0  0
  -24.6895  -18.5623   21.5289 N   0  0  0  0  0  0  0  0  0  0  0  0
  -31.4385  -25.3228   17.4784 N   0  0  0  0  0  0  0  0  0  0  0  0
  -30.6675  -26.2792   22.6327 N   0  0  0  0  0  0  0  0  0  0  0  0
  -26.4833  -27.4765   23.8389 N   0  0  0  0  0  0  0  0  0  0  0  0
  -25.5584  -15.0937   20.8148 N   0  0  0  0  0  0  0  0  0  0  0  0
  -22.5873  -20.9105   22.7639 N   0  0  0  0  0  0  0  0  0  0  0  0
  -30.9843  -23.0048   17.3602 N   0  0  0  0  0  0  0  0  0  0  0  0
  -24.1650  -23.6719   24.4825 N   0  3  0  0  0  0  0  0  0  0  0  0
  -28.5547  -26.8935   24.6315 O   0  0  0  0  0  0  0  0  0  0  0  0
  -24.3627  -16.7733   19.7323 O   0  0  0  0  0  0  0  0  0  0  0  0
  -22.9152  -18.0710   22.9596 O   0  0  0  0  0  0  0  0  0  0  0  0
  -23.9432  -22.5808   21.8985 O   0  0  0  0  0  0  0  0  0  0  0  0
  -32.7944  -23.8864   16.2633 O   0  0  0  0  0  0  0  0  0  0  0  0
  -22.2844  -28.7009   20.3885 O   0  0  0  0  0  0  0  0  0  0  0  0
  -29.3424  -20.7999   18.1530 O   0  0  0  0  0  0  0  0  0  1  0  0
  -18.4716  -26.1855   23.4772 F   0  0  0  0  0  0  0  0  0  0  0  0
  -22.3777  -28.8388   23.1481 F   0  0  0  0  0  0  0  0  0  0  0  0
  1  2  1  0  0  0  0
  1  5  2  0  0  0  0
  2  6  2  0  0  0  0
  3  8  2  0  0  0  0
  3 15  1  0  0  0  0
  4  9  1  0  0  0  0
  4 15  2  0  0  0  0
  5 17  1  0  0  0  0
  6 19  1  0  0  0  0
  7 10  2  0  0  0  0
  7 18  1  0  0  0  0
  8 21  1  0  0  0  0
  9 21  2  0  0  0  0
 10 22  1  0  0  0  0
 11 12  2  0  0  0  0
 11 23  1  0  0  0  0
 12 24  1  0  0  0  0
 13 20  1  0  0  0  0
 13 22  2  0  0  0  0
 14 24  2  0  0  0  0
 14 25  1  0  0  0  0
 15 26  1  0  0  0  0
 16 26  1  0  0  0  0
 16 27  2  0  0  0  0
 16 28  1  0  0  0  0
 17 19  2  0  0  0  0
 17 33  1  0  0  0  0
 18 20  2  0  0  0  0
 18 34  1  0  0  0  0
 19 42  1  0  0  0  0
 20 35  1  0  0  0  0
 21 70  1  0  0  0  0
 22 71  1  0  0  0  0
 23 25  2  0  0  0  0
 23 70  1  0  0  0  0
 24 72  1  0  0  0  0
 25 73  1  0  0  0  0
 26 55  2  0  0  0  0
 27 56  1  0  0  0  0
 27 59  1  0  0  0  0
 28 60  1  0  0  0  0
 28 65  2  0  0  0  0
 29 43  1  0  0  0  0
 29 61  1  0  0  0  0
 29 66  2  0  0  0  0
 30 52  1  0  0  0  0
 30 57  1  0  0  0  0
 30 67  2  0  0  0  0
 31 53  1  0  0  0  0
 31 62  1  0  0  0  0
 31 68  2  0  0  0  0
 32 58  1  0  0  0  0
 32 63  1  0  0  0  0
 32 69  2  0  0  0  0
 33 36  1  0  0  0  0
 34 43  1  0  0  0  0
 35 57  1  0  0  0  0
 36 38  1  0  0  0  0
 37 39  1  0  0  0  0
 37 40  1  0  0  0  0
 38 42  1  0  0  0  0
 39 44  1  0  0  0  0
 40 58  1  0  0  0  0
 41 44  1  0  0  0  0
 41 58  1  0  0  0  0
 42 61  1  0  0  0  0
 43 57  1  0  0  0  0
 44 56  1  0  0  0  0
 45 53  1  0  0  0  0
 46 54  1  0  0  0  0
 47 54  1  0  0  0  0
 48 54  1  0  0  0  0
 49 64  1  0  0  0  0
 50 51  1  0  0  0  0
 50 63  1  0  0  0  0
 51 71  1  0  0  0  0
 52 54  1  0  0  0  0
 52 62  1  0  0  0  0
 53 64  1  0  0  0  0
 55 56  1  0  0  0  0
M  CHG  1  64   1
M  ISO  4  32 100  51 101  63 100  71 101
M  END
> <Batch ID>
0003

> <Smiles>
CNC(C)C(=O)NC(C(=O)N1Cc2cc([101O:1][101CH2:1]C[100NH:0][100C:0](=O)N3CCCC(n4nc(-c5ccc(Oc6ccc(F)cc6F)cc5)c(C(N)=O)c4N)C3)ccc2CC1C(=O)NC1CCCc2ccccc21)C(C)(C)C

> <Shape>
0.226

> <Color>
0.066

> <Negative vol penalty>
0.000

$$$$

  -OEChem-04042320203D

 96105  0     1  0  0  0  0  0999 V2000
  -20.3835  -34.8211   25.4125 C   0  0  0  0  0  0  0  0  0  0  0  0
  -21.7204  -34.5051   25.1931 C   0  0  0  0  0  0  0  0  0  0  0  0
  -22.2947  -10.3713   20.4359 C   0  0  0  0  0  0  0  0  0  0  0  0
  -24.4333   -9.5044   21.1512 C   0  0  0  0  0  0  0  0  0  0  0  0
  -19.4097  -33.8273   25.3230 C   0  0  0  0  0  0  0  0  0  0  0  0
  -22.0845  -33.1948   24.8851 C   0  0  0  0  0  0  0  0  0  0  0  0
  -26.5985  -31.4089   21.1515 C   0  0  0  0  0  0  0  0  0  0  0  0
  -31.1947  -20.6119   21.6077 C   0  0  0  0  0  0  0  0  0  0  0  0
  -30.6907  -21.7886   21.0536 C   0  0  0  0  0  0  0  0  0  0  0  0
  -21.6999   -9.1435   20.7263 C   0  0  0  0  0  0  0  0  0  0  0  0
  -23.8385   -8.2766   21.4416 C   0  0  0  0  0  0  0  0  0  0  0  0
  -27.9037  -30.9833   21.3945 C   0  0  0  0  0  0  0  0  0  0  0  0
  -20.6174   -7.4864   23.4677 C   0  0  0  0  0  0  0  0  0  0  0  0
  -19.4067   -7.5003   24.1601 C   0  0  0  0  0  0  0  0  0  0  0  0
  -27.1660  -28.6884   21.3032 C   0  0  0  0  0  0  0  0  0  0  0  0
  -32.5168  -20.2420   19.6197 C   0  0  0  0  0  0  0  0  0  0  0  0
  -18.3382   -6.3648   22.3145 C   0  0  0  0  0  0  0  0  0  0  0  0
  -23.6614  -10.5517   20.6483 C   0  0  0  0  0  0  0  0  0  0  0  0
  -24.4309  -12.9166   21.2166 C   0  0  0  0  0  0  0  0  0  0  0  0
  -19.7609  -32.5061   25.0042 C   0  0  0  0  0  0  0  0  0  0  0  0
  -25.5635  -30.4760   20.9931 C   0  0  0  0  0  0  0  0  0  0  0  0
  -21.1146  -32.1821   24.7925 C   0  0  0  0  0  0  0  0  0  0  0  0
  -25.8490  -29.1046   21.0557 C   0  0  0  0  0  0  0  0  0  0  0  0
  -32.1078  -19.8386   20.8907 C   0  0  0  0  0  0  0  0  0  0  0  0
  -31.0997  -22.1920   19.7825 C   0  0  0  0  0  0  0  0  0  0  0  0
  -32.0128  -21.4187   19.0655 C   0  0  0  0  0  0  0  0  0  0  0  0
  -22.4717   -8.0962   21.2292 C   0  0  0  0  0  0  0  0  0  0  0  0
  -28.1871  -29.6229   21.4733 C   0  0  0  0  0  0  0  0  0  0  0  0
  -20.6886   -6.9118   22.1987 C   0  0  0  0  0  0  0  0  0  0  0  0
  -18.2671   -6.9395   23.5835 C   0  0  0  0  0  0  0  0  0  0  0  0
  -19.5490   -6.3509   21.6221 C   0  0  0  0  0  0  0  0  0  0  0  0
  -24.2766  -11.8196   20.3479 C   0  0  0  0  0  0  0  0  0  0  0  0
  -25.0705  -13.8671   20.4591 C   0  0  0  0  0  0  0  0  0  0  0  0
  -24.0319  -13.0632   22.5859 C   0  0  0  0  0  0  0  0  0  0  0  0
  -22.8714  -29.8260   22.5530 C   0  0  0  0  0  0  0  0  0  0  0  0
  -22.3971  -27.7720   20.0875 C   0  0  0  0  0  0  0  0  0  0  0  0
  -23.7522  -25.8789   17.5922 C   0  0  0  0  0  0  0  0  0  0  0  0
  -28.6321  -13.5356   15.6574 C   0  0  0  0  0  0  0  0  0  0  0  0
  -18.6785  -31.4565   24.9652 C   0  0  0  0  0  0  0  0  0  0  0  0
  -24.1657  -30.9508   20.7049 C   0  0  0  0  0  0  0  0  0  0  0  0
  -24.7772  -28.0624   20.8726 C   0  0  0  0  0  0  0  0  0  0  0  0
  -19.1042  -30.1682   24.2657 C   0  0  0  0  0  0  0  0  0  0  0  0
  -25.5711  -15.3332   15.9324 C   0  0  0  0  0  0  0  0  0  0  0  0
  -20.4791  -29.7243   24.7550 C   0  0  0  0  0  0  0  0  0  0  0  0
  -24.9062  -14.7356   17.1736 C   0  0  0  0  0  0  0  0  0  0  0  0
  -32.7639  -26.2463   20.6016 C   0  0  0  0  0  0  0  0  0  0  0  0
  -32.2892  -26.6992   18.1579 C   0  0  0  0  0  0  0  0  0  0  0  0
  -26.3269  -14.2748   15.1321 C   0  0  0  0  0  0  0  0  0  0  0  0
  -26.6425  -12.8961   17.1504 C   0  0  0  0  0  0  0  0  0  0  0  0
  -31.6648  -25.1902   20.6090 C   0  0  0  0  0  0  0  0  0  0  0  0
  -31.1940  -25.6394   18.1846 C   0  0  0  0  0  0  0  0  0  0  0  0
  -21.5461  -30.7772   24.4318 C   0  0  1  0  0  0  0  0  0  0  0  0
  -23.0985  -29.9239   21.0710 C   0  0  1  0  0  0  0  0  0  0  0  0
  -25.9148  -13.9357   18.0199 C   0  0  2  0  0  0  0  0  0  0  0  0
  -32.5643  -27.3151   19.5285 C   0  0  0  0  0  0  0  0  0  0  0  0
  -32.4649  -21.8305   17.7029 C   0  0  0  0  0  0  0  0  0  0  0  0
  -23.1162  -24.2786   15.7668 C   0  0  0  0  0  0  0  0  0  0  0  0
  -21.9819  -25.5739   22.1626 C   0  0  0  0  0  0  0  0  0  0  0  0
  -22.3006  -23.8885   20.3389 C   0  0  0  0  0  0  0  0  0  0  0  0
  -20.3969  -25.4967   20.2297 C   0  0  0  0  0  0  0  0  0  0  0  0
  -24.8433  -27.6578   15.4936 C   0  0  0  0  0  0  0  0  0  0  0  0
  -30.5430  -23.4607   19.2068 C   0  0  0  0  0  0  0  0  0  0  0  0
  -32.6461  -18.5804   21.4832 C   0  0  0  0  0  0  0  0  0  0  0  0
  -31.3821  -13.8761   18.5124 C   0  0  0  0  0  0  0  0  0  0  0  0
  -32.1034  -15.0416   19.1922 C   0  0  0  0  0  0  0  0  0  0  0  0
  -31.6329  -13.8696   17.0044 C   0  0  0  0  0  0  0  0  0  0  0  0
  -31.8266  -15.0634   20.6982 C   0  0  0  0  0  0  0  0  0  0  0  0
  -30.8837  -12.7311   16.3225 C   0  0  0  0  0  0  0  0  0  0  0  0
  -31.7442  -29.1948   20.9591 C   0  0  0  0  0  0  0  0  0  0  0  0
  -32.5085  -16.2361   21.3927 C   0  0  0  0  0  0  0  0  0  0  0  0
  -30.5168  -30.0395   21.2387 C   0  0  0  0  0  0  0  0  0  1  0  0
  -22.7479  -26.3291   19.8155 C   0  0  1  0  0  0  0  0  0  0  0  0
  -23.3846  -25.7316   16.1267 C   0  0  2  0  0  0  0  0  0  0  0  0
  -21.8769  -25.3415   20.6421 C   0  0  0  0  0  0  0  0  0  0  0  0
  -24.7776  -12.0507   19.1316 N   0  0  0  0  0  0  0  0  0  0  0  0
  -25.2530  -13.3038   19.2305 N   0  0  0  0  0  0  0  0  0  0  0  0
  -23.4251  -28.5767   20.5991 N   0  0  0  0  0  0  0  0  0  0  0  0
  -27.2681  -13.5536   15.9923 N   0  0  0  0  0  0  0  0  0  0  0  0
  -25.4889  -15.1215   20.7307 N   0  0  0  0  0  0  0  0  0  0  0  0
  -23.3860  -11.9886   23.2124 N   0  0  0  0  0  0  0  0  0  0  0  0
  -21.9208  -30.7050   23.0358 N   0  0  0  0  0  0  0  0  0  0  0  0
  -22.6472  -26.1499   18.3712 N   0  0  0  0  0  0  0  0  0  0  0  0
  -29.4563  -12.8348   16.5293 N   0  0  0  0  0  0  0  0  0  0  0  0
  -31.5268  -24.5983   19.2266 N   0  3  0  0  0  0  0  0  0  0  0  0
  -31.4211  -28.1920   19.9131 N   0  3  0  0  0  0  0  0  0  0  0  0
  -24.4901  -26.2334   15.2624 N   0  3  0  0  0  0  0  0  0  0  0  0
  -24.2272  -14.1218   23.2298 O   0  0  0  0  0  0  0  0  0  0  0  0
  -23.5102  -29.0121   23.2097 O   0  0  0  0  0  0  0  0  0  0  0  0
  -21.2552  -28.1723   19.8480 O   0  0  0  0  0  0  0  0  0  0  0  0
  -24.9038  -25.7614   18.0051 O   0  0  0  0  0  0  0  0  0  0  0  0
  -29.0828  -14.1065   14.6584 O   0  0  0  0  0  0  0  0  0  0  0  0
  -21.8916   -6.8980   21.5129 O   0  0  0  0  0  0  0  0  0  0  0  0
  -29.4601  -29.2048   21.7111 O   0  0  0  0  0  0  0  0  0  1  0  0
  -32.0266  -17.4619   20.8601 O   0  0  0  0  0  0  0  0  0  0  0  0
  -17.1048   -6.9515   24.2492 F   0  0  0  0  0  0  0  0  0  0  0  0
  -19.6115   -5.7963   20.4038 F   0  0  0  0  0  0  0  0  0  0  0  0
  1  2  1  0  0  0  0
  1  5  2  0  0  0  0
  2  6  2  0  0  0  0
  3 10  2  0  0  0  0
  3 18  1  0  0  0  0
  4 11  1  0  0  0  0
  4 18  2  0  0  0  0
  5 20  1  0  0  0  0
  6 22  1  0  0  0  0
  7 12  2  0  0  0  0
  7 21  1  0  0  0  0
  8  9  2  0  0  0  0
  8 24  1  0  0  0  0
  9 25  1  0  0  0  0
 10 27  1  0  0  0  0
 11 27  2  0  0  0  0
 12 28  1  0  0  0  0
 13 14  2  0  0  0  0
 13 29  1  0  0  0  0
 14 30  1  0  0  0  0
 15 23  1  0  0  0  0
 15 28  2  0  0  0  0
 16 24  2  0  0  0  0
 16 26  1  0  0  0  0
 17 30  2  0  0  0  0
 17 31  1  0  0  0  0
 18 32  1  0  0  0  0
 19 32  1  0  0  0  0
 19 33  2  0  0  0  0
 19 34  1  0  0  0  0
 20 22  2  0  0  0  0
 20 39  1  0  0  0  0
 21 23  2  0  0  0  0
 21 40  1  0  0  0  0
 22 52  1  0  0  0  0
 23 41  1  0  0  0  0
 24 63  1  0  0  0  0
 25 26  2  0  0  0  0
 25 62  1  0  0  0  0
 26 56  1  0  0  0  0
 27 92  1  0  0  0  0
 28 93  1  0  0  0  0
 29 31  2  0  0  0  0
 29 92  1  0  0  0  0
 30 95  1  0  0  0  0
 31 96  1  0  0  0  0
 32 75  2  0  0  0  0
 33 76  1  0  0  0  0
 33 79  1  0  0  0  0
 34 80  1  0  0  0  0
 34 87  2  0  0  0  0
 35 53  1  0  0  0  0
 35 81  1  0  0  0  0
 35 88  2  0  0  0  0
 36 72  1  0  0  0  0
 36 77  1  0  0  0  0
 36 89  2  0  0  0  0
 37 73  1  0  0  0  0
 37 82  1  0  0  0  0
 37 90  2  0  0  0  0
 38 78  1  0  0  0  0
 38 83  1  0  0  0  0
 38 91  2  0  0  0  0
 39 42  1  0  0  0  0
 40 53  1  0  0  0  0
 41 77  1  0  0  0  0
 42 44  1  0  0  0  0
 43 45  1  0  0  0  0
 43 48  1  0  0  0  0
 44 52  1  0  0  0  0
 45 54  1  0  0  0  0
 46 50  1  0  0  0  0
 46 55  1  0  0  0  0
 47 51  1  0  0  0  0
 47 55  1  0  0  0  0
 48 78  1  0  0  0  0
 49 54  1  0  0  0  0
 49 78  1  0  0  0  0
 50 84  1  0  0  0  0
 51 84  1  0  0  0  0
 52 81  1  0  0  0  0
 53 77  1  0  0  0  0
 54 76  1  0  0  0  0
 55 85  1  0  0  0  0
 57 73  1  0  0  0  0
 58 74  1  0  0  0  0
 59 74  1  0  0  0  0
 60 74  1  0  0  0  0
 61 86  1  0  0  0  0
 62 84  1  0  0  0  0
 63 94  1  0  0  0  0
 64 65  1  0  0  0  0
 64 66  1  0  0  0  0
 65 67  1  0  0  0  0
 66 68  1  0  0  0  0
 67 70  1  0  0  0  0
 68 83  1  0  0  0  0
 69 71  1  0  0  0  0
 69 85  1  0  0  0  0
 70 94  1  0  0  0  0
 71 93  1  0  0  0  0
 72 74  1  0  0  0  0
 72 82  1  0  0  0  0
 73 86  1  0  0  0  0
 75 76  1  0  0  0  0
M  CHG  3  84   1  85   1  86   1
M  ISO  4  38 100  71 101  83 100  93 101
M  END
> <Batch ID>
0003

> <Smiles>
CNC(C)C(=O)NC(C(=O)N1Cc2cc([101O:1][101CH2:1]CNC3CCN(Cc4ccc(COCCCCCC[100NH:0][100C:0](=O)N5CCCC(n6nc(-c7ccc(Oc8ccc(F)cc8F)cc7)c(C(N)=O)c6N)C5)cc4C)CC3)ccc2CC1C(=O)NC1CCCc2ccccc21)C(C)(C)C

> <Shape>
0.216

> <Color>
0.108

> <Negative vol penalty>
0.000

$$$$

  -OEChem-04042320203D

 80 88  0     1  0  0  0  0  0999 V2000
  -27.4219  -10.3894   22.7039 C   0  0  0  0  0  0  0  0  0  0  0  0
  -28.1902  -11.5377   22.5409 C   0  0  0  0  0  0  0  0  0  0  0  0
  -22.2962  -28.3993   20.8392 C   0  0  0  0  0  0  0  0  0  0  0  0
  -23.7079  -28.0060   22.7600 C   0  0  0  0  0  0  0  0  0  0  0  0
  -26.2156  -10.2560   22.0177 C   0  0  0  0  0  0  0  0  0  0  0  0
  -27.7530  -12.5529   21.6908 C   0  0  0  0  0  0  0  0  0  0  0  0
  -28.2753  -17.1571   23.7336 C   0  0  0  0  0  0  0  0  0  0  0  0
  -32.2006  -21.1643   18.6180 C   0  0  0  0  0  0  0  0  0  0  0  0
  -32.8674  -22.7400   20.3237 C   0  0  0  0  0  0  0  0  0  0  0  0
  -32.4659  -20.1083   19.4897 C   0  0  0  0  0  0  0  0  0  0  0  0
  -33.1327  -21.6840   21.1955 C   0  0  0  0  0  0  0  0  0  0  0  0
  -21.1648  -28.2810   21.6465 C   0  0  0  0  0  0  0  0  0  0  0  0
  -22.5766  -27.8877   23.5673 C   0  0  0  0  0  0  0  0  0  0  0  0
  -29.5533  -17.7142   23.7297 C   0  0  0  0  0  0  0  0  0  0  0  0
  -17.9150  -28.4408   23.2675 C   0  0  0  0  0  0  0  0  0  0  0  0
  -16.9015  -29.3855   23.1061 C   0  0  0  0  0  0  0  0  0  0  0  0
  -28.9626  -19.0410   21.8036 C   0  0  0  0  0  0  0  0  0  0  0  0
  -18.4499  -31.1463   23.6885 C   0  0  0  0  0  0  0  0  0  0  0  0
  -23.5677  -28.2618   21.3960 C   0  0  0  0  0  0  0  0  0  0  0  0
  -25.4568  -29.5581   20.2741 C   0  0  0  0  0  0  0  0  0  0  0  0
  -25.7587  -11.2742   21.1662 C   0  0  0  0  0  0  0  0  0  0  0  0
  -27.3332  -17.5304   22.7643 C   0  0  0  0  0  0  0  0  0  0  0  0
  -26.5400  -12.4324   20.9916 C   0  0  0  0  0  0  0  0  0  0  0  0
  -27.6724  -18.4891   21.7989 C   0  0  0  0  0  0  0  0  0  0  0  0
  -32.4013  -22.4802   19.0349 C   0  0  0  0  0  0  0  0  0  0  0  0
  -32.9319  -20.3681   20.7785 C   0  0  0  0  0  0  0  0  0  0  0  0
  -21.3050  -28.0252   23.0105 C   0  0  0  0  0  0  0  0  0  0  0  0
  -29.8981  -18.6541   22.7629 C   0  0  0  0  0  0  0  0  0  0  0  0
  -19.1959  -28.8489   23.6395 C   0  0  0  0  0  0  0  0  0  0  0  0
  -17.1689  -30.7382   23.3166 C   0  0  0  0  0  0  0  0  0  0  0  0
  -19.4634  -30.2016   23.8499 C   0  0  0  0  0  0  0  0  0  0  0  0
  -24.7368  -28.3833   20.5625 C   0  0  0  0  0  0  0  0  0  0  0  0
  -26.4708  -29.1446   19.4452 C   0  0  0  0  0  0  0  0  0  0  0  0
  -25.2293  -30.9030   20.7161 C   0  0  0  0  0  0  0  0  0  0  0  0
  -25.7550  -16.0045   20.4654 C   0  0  0  0  0  0  0  0  0  0  0  0
  -24.2419  -18.8561   20.1481 C   0  0  0  0  0  0  0  0  0  0  0  0
  -24.1627  -22.4621   20.0585 C   0  0  0  0  0  0  0  0  0  0  0  0
  -30.0154  -24.7390   18.7828 C   0  0  0  0  0  0  0  0  0  0  0  0
  -24.4712  -11.0642   20.4092 C   0  0  0  0  0  0  0  0  0  0  0  0
  -25.9502  -16.9400   22.7984 C   0  0  0  0  0  0  0  0  0  0  0  0
  -26.6910  -18.9388   20.7487 C   0  0  0  0  0  0  0  0  0  0  0  0
  -23.8967  -12.3483   19.8166 C   0  0  0  0  0  0  0  0  0  0  0  0
  -27.2139  -25.2117   16.5411 C   0  0  0  0  0  0  0  0  0  0  0  0
  -24.9892  -13.1469   19.1127 C   0  0  0  0  0  0  0  0  0  0  0  0
  -26.3556  -26.2011   17.3314 C   0  0  0  0  0  0  0  0  0  0  0  0
  -27.8796  -24.1963   17.4652 C   0  0  0  0  0  0  0  0  0  0  0  0
  -27.8418  -25.7879   19.3464 C   0  0  0  0  0  0  0  0  0  0  0  0
  -26.0874  -13.5662   20.0974 C   0  0  1  0  0  0  0  0  0  0  0  0
  -25.2364  -17.0121   21.4520 C   0  0  1  0  0  0  0  0  0  0  0  0
  -27.1595  -26.8547   18.4709 C   0  0  2  0  0  0  0  0  0  0  0  0
  -22.2352  -24.0453   19.7831 C   0  0  0  0  0  0  0  0  0  0  0  0
  -24.9719  -18.7722   17.1867 C   0  0  0  0  0  0  0  0  0  0  0  0
  -24.4461  -21.2167   17.0593 C   0  0  0  0  0  0  0  0  0  0  0  0
  -22.6573  -19.5880   17.6679 C   0  0  0  0  0  0  0  0  0  0  0  0
  -24.8347  -23.8982   22.5575 C   0  0  0  0  0  0  0  0  0  0  0  0
  -32.1179  -23.6098   18.1035 C   0  0  0  0  0  0  0  0  0  0  0  0
  -33.2164  -19.2277   21.7195 C   0  0  0  0  0  0  0  0  0  0  0  0
  -24.4804  -20.1089   19.3403 C   0  0  1  0  0  0  0  0  0  0  0  0
  -23.1731  -23.3673   20.7697 C   0  0  2  0  0  0  0  0  0  0  0  0
  -24.1583  -19.9117   17.8320 C   0  0  0  0  0  0  0  0  0  0  0  0
  -25.2498  -27.3044   19.9651 N   0  0  0  0  0  0  0  0  0  0  0  0
  -26.3029  -27.7997   19.2930 N   0  0  0  0  0  0  0  0  0  0  0  0
  -25.3534  -18.3278   20.8200 N   0  0  0  0  0  0  0  0  0  0  0  0
  -28.6438  -24.8832   18.5160 N   0  0  0  0  0  0  0  0  0  0  0  0
  -27.4808  -29.8039   18.8387 N   0  0  0  0  0  0  0  0  0  0  0  0
  -24.1425  -31.1525   21.5651 N   0  0  0  0  0  0  0  0  0  0  0  0
  -25.6502  -14.6942   20.8917 N   0  0  0  0  0  0  0  0  0  0  0  0
  -23.7048  -21.1636   19.9840 N   0  0  0  0  0  0  0  0  0  0  0  0
  -30.7011  -23.8581   17.9554 N   0  0  0  0  0  0  0  0  0  0  0  0
  -32.0425  -18.3925   21.9296 N   0  0  0  0  0  0  0  0  0  1  0  0
  -23.8944  -24.4237   21.5344 N   0  3  0  0  0  0  0  0  0  0  0  0
  -25.9584  -31.8579   20.3553 O   0  0  0  0  0  0  0  0  0  0  0  0
  -26.2149  -16.3873   19.3960 O   0  0  0  0  0  0  0  0  0  0  0  0
  -23.1095  -18.3685   20.1876 O   0  0  0  0  0  0  0  0  0  0  0  0
  -25.2330  -22.8672   19.6103 O   0  0  0  0  0  0  0  0  0  0  0  0
  -30.5884  -25.3542   19.6886 O   0  0  0  0  0  0  0  0  0  0  0  0
  -20.2013  -27.9099   23.7986 O   0  0  0  0  0  0  0  0  0  0  0  0
  -31.1451  -19.1989   22.7564 O   0  0  0  0  0  0  0  0  0  1  0  0
  -16.1959  -31.6453   23.1600 F   0  0  0  0  0  0  0  0  0  0  0  0
  -20.6923  -30.5998   24.2062 F   0  0  0  0  0  0  0  0  0  0  0  0
  1  2  1  0  0  0  0
  1  5  2  0  0  0  0
  2  6  2  0  0  0  0
  3 12  2  0  0  0  0
  3 19  1  0  0  0  0
  4 13  1  0  0  0  0
  4 19  2  0  0  0  0
  5 21  1  0  0  0  0
  6 23  1  0  0  0  0
  7 14  2  0  0  0  0
  7 22  1  0  0  0  0
  8 10  2  0  0  0  0
  8 25  1  0  0  0  0
  9 11  1  0  0  0  0
  9 25  2  0  0  0  0
 10 26  1  0  0  0  0
 11 26  2  0  0  0  0
 12 27  1  0  0  0  0
 13 27  2  0  0  0  0
 14 28  1  0  0  0  0
 15 16  2  0  0  0  0
 15 29  1  0  0  0  0
 16 30  1  0  0  0  0
 17 24  1  0  0  0  0
 17 28  2  0  0  0  0
 18 30  2  0  0  0  0
 18 31  1  0  0  0  0
 19 32  1  0  0  0  0
 20 32  1  0  0  0  0
 20 33  2  0  0  0  0
 20 34  1  0  0  0  0
 21 23  2  0  0  0  0
 21 39  1  0  0  0  0
 22 24  2  0  0  0  0
 22 40  1  0  0  0  0
 23 48  1  0  0  0  0
 24 41  1  0  0  0  0
 25 56  1  0  0  0  0
 26 57  1  0  0  0  0
 27 77  1  0  0  0  0
 28 78  1  0  0  0  0
 29 31  2  0  0  0  0
 29 77  1  0  0  0  0
 30 79  1  0  0  0  0
 31 80  1  0  0  0  0
 32 61  2  0  0  0  0
 33 62  1  0  0  0  0
 33 65  1  0  0  0  0
 34 66  1  0  0  0  0
 34 72  2  0  0  0  0
 35 49  1  0  0  0  0
 35 67  1  0  0  0  0
 35 73  2  0  0  0  0
 36 58  1  0  0  0  0
 36 63  1  0  0  0  0
 36 74  2  0  0  0  0
 37 59  1  0  0  0  0
 37 68  1  0  0  0  0
 37 75  2  0  0  0  0
 38 64  1  0  0  0  0
 38 69  1  0  0  0  0
 38 76  2  0  0  0  0
 39 42  1  0  0  0  0
 40 49  1  0  0  0  0
 41 63  1  0  0  0  0
 42 44  1  0  0  0  0
 43 45  1  0  0  0  0
 43 46  1  0  0  0  0
 44 48  1  0  0  0  0
 45 50  1  0  0  0  0
 46 64  1  0  0  0  0
 47 50  1  0  0  0  0
 47 64  1  0  0  0  0
 48 67  1  0  0  0  0
 49 63  1  0  0  0  0
 50 62  1  0  0  0  0
 51 59  1  0  0  0  0
 52 60  1  0  0  0  0
 53 60  1  0  0  0  0
 54 60  1  0  0  0  0
 55 71  1  0  0  0  0
 56 69  1  0  0  0  0
 57 70  1  0  0  0  0
 58 60  1  0  0  0  0
 58 68  1  0  0  0  0
 59 71  1  0  0  0  0
 61 62  1  0  0  0  0
 70 78  1  0  0  0  0
M  CHG  1  71   1
M  ISO  4  38 100  69 100  70 101  78 101
M  END
> <Batch ID>
0003

> <Smiles>
CNC(C)C(=O)NC(C(=O)N1Cc2cc([101O:1][101NH:1]Cc3ccc(C[100NH:0][100C:0](=O)N4CCCC(n5nc(-c6ccc(Oc7ccc(F)cc7F)cc6)c(C(N)=O)c5N)C4)cc3)ccc2CC1C(=O)NC1CCCc2ccccc21)C(C)(C)C

> <Shape>
0.203

> <Color>
0.078

> <Negative vol penalty>
0.000

$$$$

  -OEChem-04042320203D

 80 88  0     1  0  0  0  0  0999 V2000
  -28.2581  -37.1802   23.2709 C   0  0  0  0  0  0  0  0  0  0  0  0
  -28.6579  -36.1975   22.3709 C   0  0  0  0  0  0  0  0  0  0  0  0
  -24.4467   -9.1524   21.4318 C   0  0  0  0  0  0  0  0  0  0  0  0
  -23.0359  -11.0323   20.8727 C   0  0  0  0  0  0  0  0  0  0  0  0
  -27.8175  -20.2236   20.5530 C   0  0  0  0  0  0  0  0  0  0  0  0
  -25.7082  -19.6826   19.5066 C   0  0  0  0  0  0  0  0  0  0  0  0
  -27.5114  -36.8317   24.3955 C   0  0  0  0  0  0  0  0  0  0  0  0
  -28.3120  -34.8655   22.5958 C   0  0  0  0  0  0  0  0  0  0  0  0
  -26.6509  -28.8568   19.0669 C   0  0  0  0  0  0  0  0  0  0  0  0
  -28.2604  -18.9191   20.3346 C   0  0  0  0  0  0  0  0  0  0  0  0
  -26.1511  -18.3781   19.2881 C   0  0  0  0  0  0  0  0  0  0  0  0
  -23.4887   -8.7037   22.3408 C   0  0  0  0  0  0  0  0  0  0  0  0
  -22.0778  -10.5836   21.7818 C   0  0  0  0  0  0  0  0  0  0  0  0
  -27.0196  -27.5143   18.9928 C   0  0  0  0  0  0  0  0  0  0  0  0
  -20.5459   -7.0414   22.2410 C   0  0  0  0  0  0  0  0  0  0  0  0
  -20.2312   -5.6825   22.2333 C   0  0  0  0  0  0  0  0  0  0  0  0
  -25.6595  -27.0403   20.9279 C   0  0  0  0  0  0  0  0  0  0  0  0
  -20.9401   -5.5053   24.5362 C   0  0  0  0  0  0  0  0  0  0  0  0
  -24.2204  -10.3167   20.6978 C   0  0  0  0  0  0  0  0  0  0  0  0
  -26.5414  -20.6053   20.1390 C   0  0  0  0  0  0  0  0  0  0  0  0
  -25.3087  -10.4496   18.3944 C   0  0  0  0  0  0  0  0  0  0  0  0
  -27.1479  -35.4961   24.6292 C   0  0  0  0  0  0  0  0  0  0  0  0
  -25.7909  -29.3039   20.0802 C   0  0  0  0  0  0  0  0  0  0  0  0
  -27.5609  -34.4986   23.7253 C   0  0  0  0  0  0  0  0  0  0  0  0
  -25.2794  -28.3885   21.0111 C   0  0  0  0  0  0  0  0  0  0  0  0
  -27.4272  -17.9963   19.7021 C   0  0  0  0  0  0  0  0  0  0  0  0
  -22.3042   -9.4193   22.5158 C   0  0  0  0  0  0  0  0  0  0  0  0
  -26.5262  -26.6063   19.9251 C   0  0  0  0  0  0  0  0  0  0  0  0
  -21.0578   -7.6322   23.3963 C   0  0  0  0  0  0  0  0  0  0  0  0
  -20.4283   -4.9145   23.3809 C   0  0  0  0  0  0  0  0  0  0  0  0
  -21.2548   -6.8642   24.5439 C   0  0  0  0  0  0  0  0  0  0  0  0
  -25.2099  -10.7811   19.7590 C   0  0  0  0  0  0  0  0  0  0  0  0
  -26.4079  -11.1437   17.9511 C   0  0  0  0  0  0  0  0  0  0  0  0
  -26.0733  -21.9825   20.3683 C   0  0  0  0  0  0  0  0  0  0  0  0
  -26.8654  -23.0405   20.6018 C   0  0  0  0  0  0  0  0  0  0  0  0
  -24.4808   -9.5911   17.5986 C   0  0  0  0  0  0  0  0  0  0  0  0
  -26.0395  -31.3684   22.4843 C   0  0  0  0  0  0  0  0  0  0  0  0
  -22.8777  -30.7367   22.8404 C   0  0  0  0  0  0  0  0  0  0  0  0
  -20.2780  -28.5849   22.3322 C   0  0  0  0  0  0  0  0  0  0  0  0
  -29.1152  -16.1303   19.8245 C   0  0  0  0  0  0  0  0  0  0  0  0
  -26.3804  -35.1614   25.8836 C   0  0  0  0  0  0  0  0  0  0  0  0
  -25.3816  -30.7504   20.1304 C   0  0  0  0  0  0  0  0  0  0  0  0
  -24.3370  -28.8140   22.1062 C   0  0  0  0  0  0  0  0  0  0  0  0
  -25.7356  -33.7781   25.8523 C   0  0  0  0  0  0  0  0  0  0  0  0
  -30.5895  -12.9078   19.4795 C   0  0  0  0  0  0  0  0  0  0  0  0
  -26.7317  -32.7360   25.3536 C   0  0  0  0  0  0  0  0  0  0  0  0
  -29.3863  -11.9672   19.3817 C   0  0  0  0  0  0  0  0  0  0  0  0
  -30.3332  -14.0573   20.4524 C   0  0  0  0  0  0  0  0  0  0  0  0
  -27.9009  -13.8802   20.1036 C   0  0  0  0  0  0  0  0  0  0  0  0
  -27.1841  -33.0462   23.9216 C   0  0  1  0  0  0  0  0  0  0  0  0
  -24.9077  -31.1897   21.5123 C   0  0  1  0  0  0  0  0  0  0  0  0
  -28.0874  -12.7426   19.0864 C   0  0  2  0  0  0  0  0  0  0  0  0
  -17.8202  -28.3273   22.7680 C   0  0  0  0  0  0  0  0  0  0  0  0
  -23.4676  -30.0690   25.7586 C   0  0  0  0  0  0  0  0  0  0  0  0
  -21.2381  -28.9361   25.8775 C   0  0  0  0  0  0  0  0  0  0  0  0
  -21.3693  -31.3793   25.3918 C   0  0  0  0  0  0  0  0  0  0  0  0
  -19.6606  -28.4580   19.4406 C   0  0  0  0  0  0  0  0  0  0  0  0
  -26.3422  -24.4202   20.8431 C   0  0  0  0  0  0  0  0  0  1  0  0
  -22.0706  -29.7231   23.6150 C   0  0  1  0  0  0  0  0  0  0  0  0
  -18.8787  -28.8067   21.7870 C   0  0  2  0  0  0  0  0  0  0  0  0
  -22.0557  -30.0189   25.1414 C   0  0  0  0  0  0  0  0  0  0  0  0
  -26.1699  -11.6203   20.1566 N   0  0  0  0  0  0  0  0  0  0  0  0
  -26.8824  -11.8221   19.0350 N   0  0  0  0  0  0  0  0  0  0  0  0
  -23.9714  -30.2401   22.1171 N   0  0  0  0  0  0  0  0  0  0  0  0
  -29.0887  -14.7484   20.1083 N   0  0  0  0  0  0  0  0  0  0  0  0
  -27.0051  -11.2339   16.7438 N   0  0  0  0  0  0  0  0  0  0  0  0
  -23.3925   -8.9559   18.2122 N   0  0  0  0  0  0  0  0  0  0  0  0
  -27.8776  -16.6716   19.4782 N   0  0  0  0  0  0  0  0  0  0  0  0
  -26.1634  -32.6549   22.9732 N   0  0  0  0  0  0  0  0  0  0  0  0
  -20.7487  -29.6966   22.9986 N   0  0  0  0  0  0  0  0  0  0  0  0
  -18.6995  -28.0690   20.5046 N   0  3  0  0  0  0  0  0  0  0  0  0
  -24.7093   -9.3802   16.3834 O   0  0  0  0  0  0  0  0  0  0  0  0
  -26.7469  -30.4097   22.7708 O   0  0  0  0  0  0  0  0  0  0  0  0
  -22.5457  -31.9244   22.8699 O   0  0  0  0  0  0  0  0  0  0  0  0
  -20.8907  -27.5297   22.1852 O   0  0  0  0  0  0  0  0  0  0  0  0
  -30.1637  -16.7796   19.8576 O   0  0  0  0  0  0  0  0  0  0  0  0
  -21.3690   -8.9816   23.4026 O   0  0  0  0  0  0  0  0  0  0  0  0
  -26.8850  -25.2955   19.8555 O   0  0  0  0  0  0  0  0  0  1  0  0
  -20.1246   -3.6099   23.3738 F   0  0  0  0  0  0  0  0  0  0  0  0
  -21.7451   -7.4265   25.6571 F   0  0  0  0  0  0  0  0  0  0  0  0
  1  2  1  0  0  0  0
  1  7  2  0  0  0  0
  2  8  2  0  0  0  0
  3 12  2  0  0  0  0
  3 19  1  0  0  0  0
  4 13  1  0  0  0  0
  4 19  2  0  0  0  0
  5 10  2  0  0  0  0
  5 20  1  0  0  0  0
  6 11  1  0  0  0  0
  6 20  2  0  0  0  0
  7 22  1  0  0  0  0
  8 24  1  0  0  0  0
  9 14  2  0  0  0  0
  9 23  1  0  0  0  0
 10 26  1  0  0  0  0
 11 26  2  0  0  0  0
 12 27  1  0  0  0  0
 13 27  2  0  0  0  0
 14 28  1  0  0  0  0
 15 16  2  0  0  0  0
 15 29  1  0  0  0  0
 16 30  1  0  0  0  0
 17 25  1  0  0  0  0
 17 28  2  0  0  0  0
 18 30  2  0  0  0  0
 18 31  1  0  0  0  0
 19 32  1  0  0  0  0
 20 34  1  0  0  0  0
 21 32  1  0  0  0  0
 21 33  2  0  0  0  0
 21 36  1  0  0  0  0
 22 24  2  0  0  0  0
 22 41  1  0  0  0  0
 23 25  2  0  0  0  0
 23 42  1  0  0  0  0
 24 50  1  0  0  0  0
 25 43  1  0  0  0  0
 26 68  1  0  0  0  0
 27 77  1  0  0  0  0
 28 78  1  0  0  0  0
 29 31  2  0  0  0  0
 29 77  1  0  0  0  0
 30 79  1  0  0  0  0
 31 80  1  0  0  0  0
 32 62  2  0  0  0  0
 33 63  1  0  0  0  0
 33 66  1  0  0  0  0
 34 35  2  0  0  0  0
 35 58  1  0  0  0  0
 36 67  1  0  0  0  0
 36 72  2  0  0  0  0
 37 51  1  0  0  0  0
 37 69  1  0  0  0  0
 37 73  2  0  0  0  0
 38 59  1  0  0  0  0
 38 64  1  0  0  0  0
 38 74  2  0  0  0  0
 39 60  1  0  0  0  0
 39 70  1  0  0  0  0
 39 75  2  0  0  0  0
 40 65  1  0  0  0  0
 40 68  1  0  0  0  0
 40 76  2  0  0  0  0
 41 44  1  0  0  0  0
 42 51  1  0  0  0  0
 43 64  1  0  0  0  0
 44 46  1  0  0  0  0
 45 47  1  0  0  0  0
 45 48  1  0  0  0  0
 46 50  1  0  0  0  0
 47 52  1  0  0  0  0
 48 65  1  0  0  0  0
 49 52  1  0  0  0  0
 49 65  1  0  0  0  0
 50 69  1  0  0  0  0
 51 64  1  0  0  0  0
 52 63  1  0  0  0  0
 53 60  1  0  0  0  0
 54 61  1  0  0  0  0
 55 61  1  0  0  0  0
 56 61  1  0  0  0  0
 57 71  1  0  0  0  0
 58 78  1  0  0  0  0
 59 61  1  0  0  0  0
 59 70  1  0  0  0  0
 60 71  1  0  0  0  0
 62 63  1  0  0  0  0
M  CHG  1  71   1
M  ISO  4  40 100  58 101  68 100  78 101
M  END
> <Batch ID>
0003

> <Smiles>
CNC(C)C(=O)NC(C(=O)N1Cc2cc([101O:1][101CH2:1]C=Cc3ccc([100NH:0][100C:0](=O)N4CCCC(n5nc(-c6ccc(Oc7ccc(F)cc7F)cc6)c(C(N)=O)c5N)C4)cc3)ccc2CC1C(=O)NC1CCCc2ccccc21)C(C)(C)C

> <Shape>
0.302

> <Color>
0.099

> <Negative vol penalty>
0.000

$$$$

  -OEChem-04042320203D

 76 84  0     1  0  0  0  0  0999 V2000
  -29.2559  -32.5665   23.6122 C   0  0  0  0  0  0  0  0  0  0  0  0
  -29.4539  -31.2280   23.9358 C   0  0  0  0  0  0  0  0  0  0  0  0
  -23.9836   -9.9667   18.6949 C   0  0  0  0  0  0  0  0  0  0  0  0
  -23.3546   -9.6720   21.0089 C   0  0  0  0  0  0  0  0  0  0  0  0
  -28.6909  -32.9094   22.3846 C   0  0  0  0  0  0  0  0  0  0  0  0
  -29.0860  -30.2316   23.0324 C   0  0  0  0  0  0  0  0  0  0  0  0
  -31.0300  -23.6983   20.8293 C   0  0  0  0  0  0  0  0  0  0  0  0
  -23.3298   -8.7794   18.3659 C   0  0  0  0  0  0  0  0  0  0  0  0
  -22.7006   -8.4847   20.6799 C   0  0  0  0  0  0  0  0  0  0  0  0
  -30.4965  -22.4257   20.6304 C   0  0  0  0  0  0  0  0  0  0  0  0
  -20.5581   -5.5618   20.3898 C   0  0  0  0  0  0  0  0  0  0  0  0
  -19.2901   -5.3476   20.9301 C   0  0  0  0  0  0  0  0  0  0  0  0
  -29.6023  -23.1392   18.5066 C   0  0  0  0  0  0  0  0  0  0  0  0
  -18.4872   -7.3479   19.8386 C   0  0  0  0  0  0  0  0  0  0  0  0
  -23.9961  -10.4130   20.0164 C   0  0  0  0  0  0  0  0  0  0  0  0
  -24.1237  -12.9357   20.3733 C   0  0  0  0  0  0  0  0  0  0  0  0
  -28.3248  -31.9171   21.4616 C   0  0  0  0  0  0  0  0  0  0  0  0
  -30.8440  -24.7058   19.8718 C   0  0  0  0  0  0  0  0  0  0  0  0
  -28.5143  -30.5616   21.7918 C   0  0  0  0  0  0  0  0  0  0  0  0
  -30.1367  -24.4230   18.6946 C   0  0  0  0  0  0  0  0  0  0  0  0
  -22.6883   -8.0384   19.3584 C   0  0  0  0  0  0  0  0  0  0  0  0
  -29.7801  -22.1468   19.4702 C   0  0  0  0  0  0  0  0  0  0  0  0
  -20.7907   -6.6690   19.5740 C   0  0  0  0  0  0  0  0  0  0  0  0
  -18.2547   -6.2407   20.6545 C   0  0  0  0  0  0  0  0  0  0  0  0
  -19.7553   -7.5621   19.2984 C   0  0  0  0  0  0  0  0  0  0  0  0
  -24.6718  -11.6392   20.3570 C   0  0  0  0  0  0  0  0  0  0  0  0
  -25.1647  -13.7439   20.7601 C   0  0  0  0  0  0  0  0  0  0  0  0
  -22.7924  -13.3707   20.0663 C   0  0  0  0  0  0  0  0  0  0  0  0
  -29.4240  -27.5495   19.8545 C   0  0  0  0  0  0  0  0  0  0  0  0
  -30.7158  -27.7426   16.8853 C   0  0  0  0  0  0  0  0  0  0  0  0
  -31.9328  -26.1147   14.1438 C   0  0  0  0  0  0  0  0  0  0  0  0
  -30.5989  -15.1130   20.0740 C   0  0  0  0  0  0  0  0  0  0  0  0
  -27.6740  -32.3347   20.1667 C   0  0  0  0  0  0  0  0  0  0  0  0
  -31.4487  -26.0657   20.0891 C   0  0  0  0  0  0  0  0  0  0  0  0
  -29.9262  -25.4638   17.6265 C   0  0  0  0  0  0  0  0  0  0  0  0
  -27.6569  -31.2326   19.1105 C   0  0  0  0  0  0  0  0  0  0  0  0
  -29.7312  -12.5993   22.6045 C   0  0  0  0  0  0  0  0  0  0  0  0
  -27.1940  -29.9141   19.7221 C   0  0  0  0  0  0  0  0  0  0  0  0
  -28.3080  -12.2005   22.2114 C   0  0  0  0  0  0  0  0  0  0  0  0
  -29.0906  -18.3865   20.7952 C   0  0  0  0  0  0  0  0  0  0  0  0
  -30.5592  -13.0289   21.3954 C   0  0  0  0  0  0  0  0  0  0  0  0
  -28.8887  -16.8751   20.8106 C   0  0  0  0  0  0  0  0  0  0  0  0
  -28.5170  -13.6760   20.1774 C   0  0  0  0  0  0  0  0  0  0  0  0
  -30.5929  -17.4373   19.2144 C   0  0  0  0  0  0  0  0  0  0  0  0
  -28.1510  -29.4529   20.8279 C   0  0  1  0  0  0  0  0  0  0  0  0
  -30.7587  -27.1621   19.2834 C   0  0  1  0  0  0  0  0  0  0  0  0
  -27.6330  -13.3040   21.3758 C   0  0  1  0  0  0  0  0  0  0  0  0
  -29.6525  -18.6230   19.3944 C   0  0  2  0  0  0  0  0  0  0  0  0
  -32.8801  -26.5404   11.8593 C   0  0  0  0  0  0  0  0  0  0  0  0
  -27.9175  -28.3728   15.8450 C   0  0  0  0  0  0  0  0  0  0  0  0
  -28.7335  -27.8494   13.5366 C   0  0  0  0  0  0  0  0  0  0  0  0
  -29.7444  -29.7366   14.8169 C   0  0  0  0  0  0  0  0  0  0  0  0
  -34.4965  -24.8083   14.8365 C   0  0  0  0  0  0  0  0  0  0  0  0
  -30.2659  -27.3579   15.4966 C   0  0  1  0  0  0  0  0  0  0  0  0
  -33.1979  -26.3192   13.3300 C   0  0  2  0  0  0  0  0  0  0  0  0
  -29.1674  -28.3099   14.9446 C   0  0  0  0  0  0  0  0  0  0  0  0
  -25.9611  -11.6201   20.7056 N   0  0  0  0  0  0  0  0  0  0  0  0
  -26.2317  -12.9146   20.9445 N   0  0  0  0  0  0  0  0  0  0  0  0
  -30.5315  -26.7802   17.8881 N   0  0  0  0  0  0  0  0  0  0  0  0
  -29.8626  -14.0561   20.6207 N   0  0  0  0  0  0  0  0  0  0  0  0
  -29.9700  -16.3530   19.9701 N   0  0  0  0  0  0  0  0  0  0  0  0
  -25.2624  -15.0758   20.9570 N   0  0  0  0  0  0  0  0  0  0  0  0
  -21.8464  -12.4092   19.6859 N   0  0  0  0  0  0  0  0  0  0  0  0
  -29.3445  -28.8703   20.2529 N   0  0  0  0  0  0  0  0  0  0  0  0
  -31.4722  -27.2994   14.6782 N   0  0  0  0  0  0  0  0  0  0  0  0
  -30.3242  -19.9029   19.2653 N   0  0  0  0  0  0  0  0  0  1  0  0
  -34.0860  -25.1280   13.4450 N   0  3  0  0  0  0  0  0  0  0  0  0
  -22.4562  -14.5784   20.1116 O   0  0  0  0  0  0  0  0  0  0  0  0
  -28.5319  -26.7125   19.9270 O   0  0  0  0  0  0  0  0  0  0  0  0
  -31.2191  -28.8532   17.0720 O   0  0  0  0  0  0  0  0  0  0  0  0
  -31.4040  -25.0146   14.2877 O   0  0  0  0  0  0  0  0  0  0  0  0
  -31.7814  -14.9677   19.7369 O   0  0  0  0  0  0  0  0  0  0  0  0
  -22.0499   -6.8798   19.0377 O   0  0  0  0  0  0  0  0  0  0  0  0
  -29.2525  -20.8932   19.2718 O   0  0  0  0  0  0  0  0  0  1  0  0
  -17.0367   -6.0341   21.1722 F   0  0  0  0  0  0  0  0  0  0  0  0
  -19.9724   -8.6270   18.5143 F   0  0  0  0  0  0  0  0  0  0  0  0
  1  2  1  0  0  0  0
  1  5  2  0  0  0  0
  2  6  2  0  0  0  0
  3  8  2  0  0  0  0
  3 15  1  0  0  0  0
  4  9  1  0  0  0  0
  4 15  2  0  0  0  0
  5 17  1  0  0  0  0
  6 19  1  0  0  0  0
  7 10  2  0  0  0  0
  7 18  1  0  0  0  0
  8 21  1  0  0  0  0
  9 21  2  0  0  0  0
 10 22  1  0  0  0  0
 11 12  2  0  0  0  0
 11 23  1  0  0  0  0
 12 24  1  0  0  0  0
 13 20  1  0  0  0  0
 13 22  2  0  0  0  0
 14 24  2  0  0  0  0
 14 25  1  0  0  0  0
 15 26  1  0  0  0  0
 16 26  1  0  0  0  0
 16 27  2  0  0  0  0
 16 28  1  0  0  0  0
 17 19  2  0  0  0  0
 17 33  1  0  0  0  0
 18 20  2  0  0  0  0
 18 34  1  0  0  0  0
 19 45  1  0  0  0  0
 20 35  1  0  0  0  0
 21 73  1  0  0  0  0
 22 74  1  0  0  0  0
 23 25  2  0  0  0  0
 23 73  1  0  0  0  0
 24 75  1  0  0  0  0
 25 76  1  0  0  0  0
 26 57  2  0  0  0  0
 27 58  1  0  0  0  0
 27 62  1  0  0  0  0
 28 63  1  0  0  0  0
 28 68  2  0  0  0  0
 29 46  1  0  0  0  0
 29 64  1  0  0  0  0
 29 69  2  0  0  0  0
 30 54  1  0  0  0  0
 30 59  1  0  0  0  0
 30 70  2  0  0  0  0
 31 55  1  0  0  0  0
 31 65  1  0  0  0  0
 31 71  2  0  0  0  0
 32 60  1  0  0  0  0
 32 61  1  0  0  0  0
 32 72  2  0  0  0  0
 33 36  1  0  0  0  0
 34 46  1  0  0  0  0
 35 59  1  0  0  0  0
 36 38  1  0  0  0  0
 37 39  1  0  0  0  0
 37 41  1  0  0  0  0
 38 45  1  0  0  0  0
 39 47  1  0  0  0  0
 40 42  1  0  0  0  0
 40 48  1  0  0  0  0
 41 60  1  0  0  0  0
 42 61  1  0  0  0  0
 43 47  1  0  0  0  0
 43 60  1  0  0  0  0
 44 48  1  0  0  0  0
 44 61  1  0  0  0  0
 45 64  1  0  0  0  0
 46 59  1  0  0  0  0
 47 58  1  0  0  0  0
 48 66  1  0  0  0  0
 49 55  1  0  0  0  0
 50 56  1  0  0  0  0
 51 56  1  0  0  0  0
 52 56  1  0  0  0  0
 53 67  1  0  0  0  0
 54 56  1  0  0  0  0
 54 65  1  0  0  0  0
 55 67  1  0  0  0  0
 57 58  1  0  0  0  0
 66 74  1  0  0  0  0
M  CHG  1  67   1
M  ISO  4  32 100  61 100  66 101  74 101
M  END
> <Batch ID>
0003

> <Smiles>
CNC(C)C(=O)NC(C(=O)N1Cc2cc([101O:1][101NH:1]C3CC[100N:0]([100C:0](=O)N4CCCC(n5nc(-c6ccc(Oc7ccc(F)cc7F)cc6)c(C(N)=O)c5N)C4)C3)ccc2CC1C(=O)NC1CCCc2ccccc21)C(C)(C)C

> <Shape>
0.211

> <Color>
0.133

> <Negative vol penalty>
0.000

$$$$

  -OEChem-04042320203D

 73 80  0     1  0  0  0  0  0999 V2000
  -28.7807  -11.4027   19.8413 C   0  0  0  0  0  0  0  0  0  0  0  0
  -28.8747  -12.6791   19.2960 C   0  0  0  0  0  0  0  0  0  0  0  0
  -25.9114  -28.9143   20.8188 C   0  0  0  0  0  0  0  0  0  0  0  0
  -25.2447  -26.5922   20.8056 C   0  0  0  0  0  0  0  0  0  0  0  0
  -27.5741  -10.9659   20.3863 C   0  0  0  0  0  0  0  0  0  0  0  0
  -27.7616  -13.5191   19.2943 C   0  0  0  0  0  0  0  0  0  0  0  0
  -28.8908  -18.2435   20.7261 C   0  0  0  0  0  0  0  0  0  0  0  0
  -24.5811  -29.2972   20.6476 C   0  0  0  0  0  0  0  0  0  0  0  0
  -23.9144  -26.9751   20.6344 C   0  0  0  0  0  0  0  0  0  0  0  0
  -29.5037  -19.0657   19.7816 C   0  0  0  0  0  0  0  0  0  0  0  0
  -20.2991  -27.3512   20.5553 C   0  0  0  0  0  0  0  0  0  0  0  0
  -19.3346  -26.7145   21.3363 C   0  0  0  0  0  0  0  0  0  0  0  0
  -27.3782  -20.1087   19.3193 C   0  0  0  0  0  0  0  0  0  0  0  0
  -20.4277  -27.5133   23.3374 C   0  0  0  0  0  0  0  0  0  0  0  0
  -26.2432  -27.5618   20.8978 C   0  0  0  0  0  0  0  0  0  0  0  0
  -28.2943  -26.9641   22.2918 C   0  0  0  0  0  0  0  0  0  0  0  0
  -26.4483  -11.8044   20.4000 C   0  0  0  0  0  0  0  0  0  0  0  0
  -27.5128  -18.3403   20.9669 C   0  0  0  0  0  0  0  0  0  0  0  0
  -26.5384  -13.0925   19.8388 C   0  0  0  0  0  0  0  0  0  0  0  0
  -26.7507  -19.2883   20.2692 C   0  0  0  0  0  0  0  0  0  0  0  0
  -23.5826  -28.3276   20.5554 C   0  0  0  0  0  0  0  0  0  0  0  0
  -28.7469  -19.9965   19.0760 C   0  0  0  0  0  0  0  0  0  0  0  0
  -21.3280  -28.0688   21.1653 C   0  0  0  0  0  0  0  0  0  0  0  0
  -19.3988  -26.7956   22.7274 C   0  0  0  0  0  0  0  0  0  0  0  0
  -21.3923  -28.1499   22.5564 C   0  0  0  0  0  0  0  0  0  0  0  0
  -27.6173  -27.1656   21.0741 C   0  0  0  0  0  0  0  0  0  0  0  0
  -29.5659  -26.6003   21.9215 C   0  0  0  0  0  0  0  0  0  0  0  0
  -27.8165  -27.0941   23.6374 C   0  0  0  0  0  0  0  0  0  0  0  0
  -25.0394  -16.3661   20.6693 C   0  0  0  0  0  0  0  0  0  0  0  0
  -23.4301  -18.7916   22.1009 C   0  0  0  0  0  0  0  0  0  0  0  0
  -23.2352  -22.1273   22.7949 C   0  0  0  0  0  0  0  0  0  0  0  0
  -31.8053  -24.0606   16.9833 C   0  0  0  0  0  0  0  0  0  0  0  0
  -25.1525  -11.2708   20.9575 C   0  0  0  0  0  0  0  0  0  0  0  0
  -26.8716  -17.4645   22.0082 C   0  0  0  0  0  0  0  0  0  0  0  0
  -25.2716  -19.4460   20.5052 C   0  0  0  0  0  0  0  0  0  0  0  0
  -24.1234  -12.3586   21.2544 C   0  0  0  0  0  0  0  0  0  0  0  0
  -32.7528  -27.1859   18.4013 C   0  0  0  0  0  0  0  0  0  0  0  0
  -24.0228  -13.3319   20.0842 C   0  0  0  0  0  0  0  0  0  0  0  0
  -31.6052  -27.5169   19.3570 C   0  0  0  0  0  0  0  0  0  0  0  0
  -32.2517  -26.4924   17.1365 C   0  0  0  0  0  0  0  0  0  0  0  0
  -30.2768  -25.6255   18.3290 C   0  0  0  0  0  0  0  0  0  0  0  0
  -25.3600  -14.0420   19.8407 C   0  0  1  0  0  0  0  0  0  0  0  0
  -25.3693  -17.2948   21.8034 C   0  0  1  0  0  0  0  0  0  0  0  0
  -30.7390  -26.2758   19.6442 C   0  0  2  0  0  0  0  0  0  0  0  0
  -21.7856  -23.8170   23.9528 C   0  0  0  0  0  0  0  0  0  0  0  0
  -21.4554  -18.6861   19.7772 C   0  0  0  0  0  0  0  0  0  0  0  0
  -20.6243  -20.9432   20.4723 C   0  0  0  0  0  0  0  0  0  0  0  0
  -20.4056  -19.0030   22.0249 C   0  0  0  0  0  0  0  0  0  0  0  0
  -25.3980  -22.8660   24.6752 C   0  0  0  0  0  0  0  0  0  0  0  0
  -31.2354  -21.6456   16.9357 C   0  0  0  0  0  0  0  0  0  0  0  0
  -30.7465  -20.6355   17.9583 C   0  0  0  0  0  0  0  0  0  1  0  0
  -22.6870  -20.0136   21.6176 C   0  0  1  0  0  0  0  0  0  0  0  0
  -22.9697  -22.8728   24.0904 C   0  0  2  0  0  0  0  0  0  0  0  0
  -21.3206  -19.6574   20.9669 C   0  0  0  0  0  0  0  0  0  0  0  0
  -28.3944  -26.9480   20.0099 N   0  0  0  0  0  0  0  0  0  0  0  0
  -29.5730  -26.6061   20.5576 N   0  0  0  0  0  0  0  0  0  0  0  0
  -24.6895  -18.5623   21.5289 N   0  0  0  0  0  0  0  0  0  0  0  0
  -31.4385  -25.3228   17.4784 N   0  0  0  0  0  0  0  0  0  0  0  0
  -30.6675  -26.2792   22.6327 N   0  0  0  0  0  0  0  0  0  0  0  0
  -26.4833  -27.4765   23.8389 N   0  0  0  0  0  0  0  0  0  0  0  0
  -25.5584  -15.0937   20.8148 N   0  0  0  0  0  0  0  0  0  0  0  0
  -22.5873  -20.9105   22.7639 N   0  0  0  0  0  0  0  0  0  0  0  0
  -30.9843  -23.0048   17.3602 N   0  0  0  0  0  0  0  0  0  0  0  0
  -24.1650  -23.6719   24.4825 N   0  3  0  0  0  0  0  0  0  0  0  0
  -28.5547  -26.8935   24.6315 O   0  0  0  0  0  0  0  0  0  0  0  0
  -24.3627  -16.7733   19.7323 O   0  0  0  0  0  0  0  0  0  0  0  0
  -22.9152  -18.0710   22.9596 O   0  0  0  0  0  0  0  0  0  0  0  0
  -23.9432  -22.5808   21.8985 O   0  0  0  0  0  0  0  0  0  0  0  0
  -32.7944  -23.8864   16.2633 O   0  0  0  0  0  0  0  0  0  0  0  0
  -22.2844  -28.7009   20.3885 O   0  0  0  0  0  0  0  0  0  0  0  0
  -29.3424  -20.7999   18.1530 O   0  0  0  0  0  0  0  0  0  1  0  0
  -18.4716  -26.1855   23.4772 F   0  0  0  0  0  0  0  0  0  0  0  0
  -22.3777  -28.8388   23.1481 F   0  0  0  0  0  0  0  0  0  0  0  0
  1  2  1  0  0  0  0
  1  5  2  0  0  0  0
  2  6  2  0  0  0  0
  3  8  2  0  0  0  0
  3 15  1  0  0  0  0
  4  9  1  0  0  0  0
  4 15  2  0  0  0  0
  5 17  1  0  0  0  0
  6 19  1  0  0  0  0
  7 10  2  0  0  0  0
  7 18  1  0  0  0  0
  8 21  1  0  0  0  0
  9 21  2  0  0  0  0
 10 22  1  0  0  0  0
 11 12  2  0  0  0  0
 11 23  1  0  0  0  0
 12 24  1  0  0  0  0
 13 20  1  0  0  0  0
 13 22  2  0  0  0  0
 14 24  2  0  0  0  0
 14 25  1  0  0  0  0
 15 26  1  0  0  0  0
 16 26  1  0  0  0  0
 16 27  2  0  0  0  0
 16 28  1  0  0  0  0
 17 19  2  0  0  0  0
 17 33  1  0  0  0  0
 18 20  2  0  0  0  0
 18 34  1  0  0  0  0
 19 42  1  0  0  0  0
 20 35  1  0  0  0  0
 21 70  1  0  0  0  0
 22 71  1  0  0  0  0
 23 25  2  0  0  0  0
 23 70  1  0  0  0  0
 24 72  1  0  0  0  0
 25 73  1  0  0  0  0
 26 55  2  0  0  0  0
 27 56  1  0  0  0  0
 27 59  1  0  0  0  0
 28 60  1  0  0  0  0
 28 65  2  0  0  0  0
 29 43  1  0  0  0  0
 29 61  1  0  0  0  0
 29 66  2  0  0  0  0
 30 52  1  0  0  0  0
 30 57  1  0  0  0  0
 30 67  2  0  0  0  0
 31 53  1  0  0  0  0
 31 62  1  0  0  0  0
 31 68  2  0  0  0  0
 32 58  1  0  0  0  0
 32 63  1  0  0  0  0
 32 69  2  0  0  0  0
 33 36  1  0  0  0  0
 34 43  1  0  0  0  0
 35 57  1  0  0  0  0
 36 38  1  0  0  0  0
 37 39  1  0  0  0  0
 37 40  1  0  0  0  0
 38 42  1  0  0  0  0
 39 44  1  0  0  0  0
 40 58  1  0  0  0  0
 41 44  1  0  0  0  0
 41 58  1  0  0  0  0
 42 61  1  0  0  0  0
 43 57  1  0  0  0  0
 44 56  1  0  0  0  0
 45 53  1  0  0  0  0
 46 54  1  0  0  0  0
 47 54  1  0  0  0  0
 48 54  1  0  0  0  0
 49 64  1  0  0  0  0
 50 51  1  0  0  0  0
 50 63  1  0  0  0  0
 51 71  1  0  0  0  0
 52 54  1  0  0  0  0
 52 62  1  0  0  0  0
 53 64  1  0  0  0  0
 55 56  1  0  0  0  0
M  CHG  1  64   1
M  ISO  4  32 100  51 101  63 100  71 101
M  END
> <Batch ID>
0003

> <Smiles>
CNC(C)C(=O)NC(C(=O)N1Cc2cc([101O:1][101CH2:1]C[100NH:0][100C:0](=O)N3CCCC(n4nc(-c5ccc(Oc6ccc(F)cc6F)cc5)c(C(N)=O)c4N)C3)ccc2CC1C(=O)NC1CCCc2ccccc21)C(C)(C)C

> <Shape>
0.226

> <Color>
0.066

> <Negative vol penalty>
0.000

$$$$

  -OEChem-04042320203D

100110  0     1  0  0  0  0  0999 V2000
  -20.7092  -19.9924   16.6913 C   0  0  0  0  0  0  0  0  0  0  0  0
  -29.2232  -24.8213   17.2381 C   0  0  0  0  0  0  0  0  0  0  0  0
  -27.8551  -25.0581   17.3262 C   0  0  0  0  0  0  0  0  0  0  0  0
  -19.9995  -18.7958   16.7923 C   0  0  0  0  0  0  0  0  0  0  0  0
  -26.7093  -14.0823   19.5494 C   0  0  0  0  0  0  0  0  0  0  0  0
  -24.6339  -14.4795   20.7206 C   0  0  0  0  0  0  0  0  0  0  0  0
  -21.3405  -20.5259   17.8150 C   0  0  0  0  0  0  0  0  0  0  0  0
  -30.0550  -25.1389   18.3110 C   0  0  0  0  0  0  0  0  0  0  0  0
  -27.3179  -25.6117   18.4878 C   0  0  0  0  0  0  0  0  0  0  0  0
  -22.5907  -29.4860   18.8743 C   0  0  0  0  0  0  0  0  0  0  0  0
  -26.7076  -12.7604   19.9945 C   0  0  0  0  0  0  0  0  0  0  0  0
  -24.6321  -13.1575   21.1657 C   0  0  0  0  0  0  0  0  0  0  0  0
  -21.2413  -29.2931   19.1668 C   0  0  0  0  0  0  0  0  0  0  0  0
  -23.8641  -10.1121   19.9183 C   0  0  0  0  0  0  0  0  0  0  0  0
  -22.6654   -9.4038   19.8357 C   0  0  0  0  0  0  0  0  0  0  0  0
  -19.9209  -18.1328   18.0170 C   0  0  0  0  0  0  0  0  0  0  0  0
  -22.9638  -24.2783   23.5530 C   0  0  0  0  0  0  0  0  0  0  0  0
  -23.0293  -22.1691   22.3767 C   0  0  0  0  0  0  0  0  0  0  0  0
  -21.6651  -29.8666   21.4713 C   0  0  0  0  0  0  0  0  0  0  0  0
  -21.4640  -23.8809   21.7011 C   0  0  0  0  0  0  0  0  0  0  0  0
  -22.6924   -9.0790   22.2296 C   0  0  0  0  0  0  0  0  0  0  0  0
  -25.6725  -14.9419   19.9125 C   0  0  0  0  0  0  0  0  0  0  0  0
  -21.2618  -19.8629   19.0397 C   0  0  0  0  0  0  0  0  0  0  0  0
  -25.1008  -16.8070   18.2687 C   0  0  0  0  0  0  0  0  0  0  0  0
  -29.5290  -25.7057   19.4827 C   0  0  0  0  0  0  0  0  0  0  0  0
  -23.4910  -29.8608   19.8820 C   0  0  0  0  0  0  0  0  0  0  0  0
  -28.1432  -25.9360   19.5779 C   0  0  0  0  0  0  0  0  0  0  0  0
  -23.5074  -23.0047   23.3861 C   0  0  0  0  0  0  0  0  0  0  0  0
  -23.0250  -30.0662   21.1884 C   0  0  0  0  0  0  0  0  0  0  0  0
  -21.9420  -24.7164   22.7105 C   0  0  0  0  0  0  0  0  0  0  0  0
  -22.0076  -22.6072   21.5342 C   0  0  0  0  0  0  0  0  0  0  0  0
  -25.6689  -12.2980   20.8026 C   0  0  0  0  0  0  0  0  0  0  0  0
  -20.7788  -29.4805   20.4661 C   0  0  0  0  0  0  0  0  0  0  0  0
  -24.4771  -10.3039   21.1565 C   0  0  0  0  0  0  0  0  0  0  0  0
  -22.0795   -8.8872   20.9914 C   0  0  0  0  0  0  0  0  0  0  0  0
  -23.8912   -9.7873   22.3122 C   0  0  0  0  0  0  0  0  0  0  0  0
  -20.5521  -18.6663   19.1407 C   0  0  0  0  0  0  0  0  0  0  0  0
  -25.6741  -16.3077   19.4535 C   0  0  0  0  0  0  0  0  0  0  0  0
  -25.3730  -18.1530   18.2963 C   0  0  0  0  0  0  0  0  0  0  0  0
  -21.9440  -20.4642   20.1984 C   0  0  0  0  0  0  0  0  0  0  0  0
  -24.3861  -16.1159   17.2356 C   0  0  0  0  0  0  0  0  0  0  0  0
  -26.0782  -28.5477   21.1803 C   0  0  0  0  0  0  0  0  0  0  0  0
  -26.2637  -31.3892   22.7340 C   0  0  0  0  0  0  0  0  0  0  0  0
  -18.4333  -25.7419   22.0175 C   0  0  0  0  0  0  0  0  0  0  0  0
  -24.6577  -34.1708   23.8874 C   0  0  0  0  0  0  0  0  0  0  0  0
  -26.4327  -22.0121   22.6632 C   0  0  0  0  0  0  0  0  0  0  0  0
  -30.4611  -25.9885   20.6341 C   0  0  0  0  0  0  0  0  0  0  0  0
  -24.9386  -30.0909   19.5446 C   0  0  0  0  0  0  0  0  0  0  0  0
  -23.9470  -30.4883   22.3021 C   0  0  0  0  0  0  0  0  0  0  0  0
  -29.8641  -26.9190   21.6867 C   0  0  0  0  0  0  0  0  0  0  0  0
  -25.1965  -20.7919   25.8463 C   0  0  0  0  0  0  0  0  0  0  0  0
  -28.5385  -21.3152   19.9596 C   0  0  0  0  0  0  0  0  0  0  0  0
  -24.0814  -21.7796   25.5270 C   0  0  0  0  0  0  0  0  0  0  0  0
  -28.4442  -26.4864   22.0380 C   0  0  0  0  0  0  0  0  0  0  0  0
  -28.0110  -19.9909   19.4111 C   0  0  0  0  0  0  0  0  0  0  0  0
  -28.4954  -21.3274   21.4825 C   0  0  0  0  0  0  0  0  0  0  0  0
  -25.6853  -20.3774   24.4672 C   0  0  0  0  0  0  0  0  0  0  0  0
  -26.5786  -19.7594   21.5033 C   0  0  0  0  0  0  0  0  0  0  0  0
  -24.6148  -22.5299   24.2994 C   0  0  1  0  0  0  0  0  0  0  0  0
  -27.5263  -26.5581   20.8117 C   0  0  1  0  0  0  0  0  0  0  0  0
  -25.8603  -29.9720   20.7545 C   0  0  1  0  0  0  0  0  0  0  0  0
  -26.6071  -19.6919   19.9625 C   0  0  2  0  0  0  0  0  0  0  0  0
  -17.7947  -25.4593   24.3985 C   0  0  0  0  0  0  0  0  0  0  0  0
  -25.0667  -36.2994   25.1520 C   0  0  0  0  0  0  0  0  0  0  0  0
  -26.3895  -29.8121   25.3430 C   0  0  0  0  0  0  0  0  0  0  0  0
  -25.8410  -31.9265   26.5664 C   0  0  0  0  0  0  0  0  0  0  0  0
  -27.9423  -31.7694   25.2312 C   0  0  0  0  0  0  0  0  0  0  0  0
  -23.8060  -35.8341   21.5925 C   0  0  0  0  0  0  0  0  0  0  0  0
  -21.3610  -26.0784   22.8890 C   0  0  0  0  0  0  0  0  0  0  0  0
  -20.1564  -26.1391   23.8515 C   0  0  0  0  0  0  0  0  0  0  0  0
  -17.6154  -27.7473   20.7846 C   0  0  0  0  0  0  0  0  0  0  0  0
  -18.7556  -28.3327   19.9709 C   0  0  0  0  0  0  0  0  0  1  0  0
  -25.7220  -31.9346   24.0332 C   0  0  1  0  0  0  0  0  0  0  0  0
  -18.9402  -25.3125   23.3942 C   0  0  2  0  0  0  0  0  0  0  0  0
  -24.9965  -35.6466   23.7802 C   0  0  2  0  0  0  0  0  0  0  0  0
  -26.4564  -31.3508   25.2731 C   0  0  0  0  0  0  0  0  0  0  0  0
  -26.2660  -17.2590   20.1807 N   0  0  0  0  0  0  0  0  0  0  0  0
  -26.0661  -18.3696   19.4508 N   0  0  0  0  0  0  0  0  0  0  0  0
  -25.3547  -30.6946   21.9234 N   0  0  0  0  0  0  0  0  0  0  0  0
  -27.1543  -21.0231   21.9829 N   0  0  0  0  0  0  0  0  0  0  0  0
  -25.5453  -21.5889   23.6570 N   0  0  0  0  0  0  0  0  0  0  0  0
  -25.0847  -19.1605   17.4453 N   0  0  0  0  0  0  0  0  0  0  0  0
  -24.1954  -14.7335   17.3650 N   0  0  0  0  0  0  0  0  0  0  0  0
  -21.5294  -21.7714   20.5244 N   0  0  0  0  0  0  0  0  0  0  0  0
  -27.1398  -27.9279   20.5491 N   0  0  0  0  0  0  0  0  0  0  0  0
  -18.0914  -27.0859   21.9781 N   0  0  0  0  0  0  0  0  0  0  0  0
  -25.7921  -33.3879   23.9267 N   0  0  0  0  0  0  0  0  0  0  0  0
  -23.9646  -36.3577   22.9737 N   0  3  0  0  0  0  0  0  0  0  0  0
  -22.8307  -19.8575   20.7955 O   0  0  0  0  0  0  0  0  0  0  0  0
  -23.9442  -16.7042   16.2196 O   0  0  0  0  0  0  0  0  0  0  0  0
  -25.3390  -28.0484   22.0205 O   0  0  0  0  0  0  0  0  0  0  0  0
  -27.4480  -31.5788   22.4455 O   0  0  0  0  0  0  0  0  0  0  0  0
  -18.3730  -24.9713   21.0620 O   0  0  0  0  0  0  0  0  0  0  0  0
  -23.5024  -33.7543   23.9355 O   0  0  0  0  0  0  0  0  0  0  0  0
  -26.5882  -23.2140   22.4119 O   0  0  0  0  0  0  0  0  0  0  0  0
  -25.6668  -11.0080   21.2369 O   0  0  0  0  0  0  0  0  0  0  0  0
  -19.4530  -29.2909   20.7565 O   0  0  0  0  0  0  0  0  0  1  0  0
  -20.9276   -8.2083   20.9121 F   0  0  0  0  0  0  0  0  0  0  0  0
  -24.4748   -9.9694   23.5047 F   0  0  0  0  0  0  0  0  0  0  0  0
  -20.4303  -17.8141   20.6378 Cl  0  0  0  0  0  0  0  0  0  0  0  0
  1  4  1  0  0  0  0
  1  7  2  0  0  0  0
  2  3  1  0  0  0  0
  2  8  2  0  0  0  0
  3  9  2  0  0  0  0
  4 16  2  0  0  0  0
  5 11  2  0  0  0  0
  5 22  1  0  0  0  0
  6 12  1  0  0  0  0
  6 22  2  0  0  0  0
  7 23  1  0  0  0  0
  8 25  1  0  0  0  0
  9 27  1  0  0  0  0
 10 13  2  0  0  0  0
 10 26  1  0  0  0  0
 11 32  1  0  0  0  0
 12 32  2  0  0  0  0
 13 33  1  0  0  0  0
 14 15  2  0  0  0  0
 14 34  1  0  0  0  0
 15 35  1  0  0  0  0
 16 37  1  0  0  0  0
 17 28  1  0  0  0  0
 17 30  2  0  0  0  0
 18 28  2  0  0  0  0
 18 31  1  0  0  0  0
 19 29  1  0  0  0  0
 19 33  2  0  0  0  0
 20 30  1  0  0  0  0
 20 31  2  0  0  0  0
 21 35  2  0  0  0  0
 21 36  1  0  0  0  0
 22 38  1  0  0  0  0
 23 37  2  0  0  0  0
 23 40  1  0  0  0  0
 24 38  1  0  0  0  0
 24 39  2  0  0  0  0
 24 41  1  0  0  0  0
 25 27  2  0  0  0  0
 25 47  1  0  0  0  0
 26 29  2  0  0  0  0
 26 48  1  0  0  0  0
 27 60  1  0  0  0  0
 28 59  1  0  0  0  0
 29 49  1  0  0  0  0
 30 69  1  0  0  0  0
 31 84  1  0  0  0  0
 32 96  1  0  0  0  0
 33 97  1  0  0  0  0
 34 36  2  0  0  0  0
 34 96  1  0  0  0  0
 35 98  1  0  0  0  0
 36 99  1  0  0  0  0
 37100  1  0  0  0  0
 38 77  2  0  0  0  0
 39 78  1  0  0  0  0
 39 82  1  0  0  0  0
 40 84  1  0  0  0  0
 40 89  2  0  0  0  0
 41 83  1  0  0  0  0
 41 90  2  0  0  0  0
 42 61  1  0  0  0  0
 42 85  1  0  0  0  0
 42 91  2  0  0  0  0
 43 73  1  0  0  0  0
 43 79  1  0  0  0  0
 43 92  2  0  0  0  0
 44 74  1  0  0  0  0
 44 86  1  0  0  0  0
 44 93  2  0  0  0  0
 45 75  1  0  0  0  0
 45 87  1  0  0  0  0
 45 94  2  0  0  0  0
 46 80  1  0  0  0  0
 46 81  1  0  0  0  0
 46 95  2  0  0  0  0
 47 50  1  0  0  0  0
 48 61  1  0  0  0  0
 49 79  1  0  0  0  0
 50 54  1  0  0  0  0
 51 53  1  0  0  0  0
 51 57  1  0  0  0  0
 52 55  1  0  0  0  0
 52 56  1  0  0  0  0
 53 59  1  0  0  0  0
 54 60  1  0  0  0  0
 55 62  1  0  0  0  0
 56 80  1  0  0  0  0
 57 81  1  0  0  0  0
 58 62  1  0  0  0  0
 58 80  1  0  0  0  0
 59 81  1  0  0  0  0
 60 85  1  0  0  0  0
 61 79  1  0  0  0  0
 62 78  1  0  0  0  0
 63 74  1  0  0  0  0
 64 75  1  0  0  0  0
 65 76  1  0  0  0  0
 66 76  1  0  0  0  0
 67 76  1  0  0  0  0
 68 88  1  0  0  0  0
 69 70  1  0  0  0  0
 70 74  1  0  0  0  0
 71 72  1  0  0  0  0
 71 86  1  0  0  0  0
 72 97  1  0  0  0  0
 73 76  1  0  0  0  0
 73 87  1  0  0  0  0
 75 88  1  0  0  0  0
 77 78  1  0  0  0  0
M  CHG  1  88   1
M  ISO  4  46 100  72 101  81 100  97 101
M  END
> <Batch ID>
0003

> <Smiles>
CNC(C)C(=O)NC(C(=O)N1Cc2cc([101O:1][101CH2:1]CNC(=O)C(C)CCc3cc(NC(=O)c4ccccc4Cl)cc(C4CCC[100N:0]4[100C:0](=O)N4CCCC(n5nc(-c6ccc(Oc7ccc(F)cc7F)cc6)c(C(N)=O)c5N)C4)c3)ccc2CC1C(=O)NC1CCCc2ccccc21)C(C)(C)C

> <Shape>
0.305

> <Color>
0.074

> <Negative vol penalty>
0.000

$$$$

  -OEChem-04042320203D

 81 89  0     1  0  0  0  0  0999 V2000
  -25.2681  -31.6434   24.3631 C   0  0  0  0  0  0  0  0  0  0  0  0
  -26.0192  -30.4975   24.6040 C   0  0  0  0  0  0  0  0  0  0  0  0
  -23.3378   -9.8631   21.0434 C   0  0  0  0  0  0  0  0  0  0  0  0
  -23.9482  -10.6260   23.2531 C   0  0  0  0  0  0  0  0  0  0  0  0
  -24.6097  -31.8005   23.1442 C   0  0  0  0  0  0  0  0  0  0  0  0
  -26.1116  -29.5074   23.6264 C   0  0  0  0  0  0  0  0  0  0  0  0
  -30.9557  -25.9571   22.4283 C   0  0  0  0  0  0  0  0  0  0  0  0
  -30.9308  -16.2650   23.9291 C   0  0  0  0  0  0  0  0  0  0  0  0
  -32.9439  -16.2358   22.5934 C   0  0  0  0  0  0  0  0  0  0  0  0
  -30.9434  -17.6598   23.9175 C   0  0  0  0  0  0  0  0  0  0  0  0
  -32.9564  -17.6306   22.5819 C   0  0  0  0  0  0  0  0  0  0  0  0
  -22.6435   -8.7917   21.6051 C   0  0  0  0  0  0  0  0  0  0  0  0
  -23.2539   -9.5545   23.8148 C   0  0  0  0  0  0  0  0  0  0  0  0
  -31.2773  -24.6524   22.8001 C   0  0  0  0  0  0  0  0  0  0  0  0
  -19.6564   -8.2686   23.1008 C   0  0  0  0  0  0  0  0  0  0  0  0
  -18.3877   -7.9827   22.5968 C   0  0  0  0  0  0  0  0  0  0  0  0
  -30.3960  -23.8446   20.7049 C   0  0  0  0  0  0  0  0  0  0  0  0
  -19.1358   -5.7735   21.9668 C   0  0  0  0  0  0  0  0  0  0  0  0
  -23.9902  -10.7803   21.8674 C   0  0  0  0  0  0  0  0  0  0  0  0
  -24.2008  -13.1652   20.9868 C   0  0  0  0  0  0  0  0  0  0  0  0
  -24.7018  -30.8162   22.1475 C   0  0  0  0  0  0  0  0  0  0  0  0
  -30.3408  -26.2146   21.1946 C   0  0  0  0  0  0  0  0  0  0  0  0
  -25.4527  -29.6508   22.3935 C   0  0  0  0  0  0  0  0  0  0  0  0
  -30.0699  -25.1536   20.3187 C   0  0  0  0  0  0  0  0  0  0  0  0
  -31.9311  -15.5530   23.2670 C   0  0  0  0  0  0  0  0  0  0  0  0
  -31.9562  -18.3425   23.2439 C   0  0  0  0  0  0  0  0  0  0  0  0
  -22.6015   -8.6374   22.9908 C   0  0  0  0  0  0  0  0  0  0  0  0
  -30.9948  -23.5956   21.9396 C   0  0  0  0  0  0  0  0  0  0  0  0
  -20.6649   -7.3070   23.0377 C   0  0  0  0  0  0  0  0  0  0  0  0
  -18.1273   -6.7352   22.0298 C   0  0  0  0  0  0  0  0  0  0  0  0
  -20.4046   -6.0595   22.4708 C   0  0  0  0  0  0  0  0  0  0  0  0
  -24.7081  -11.8869   21.2878 C   0  0  0  0  0  0  0  0  0  0  0  0
  -25.2714  -13.8437   20.4577 C   0  0  0  0  0  0  0  0  0  0  0  0
  -22.8800  -13.6922   21.1693 C   0  0  0  0  0  0  0  0  0  0  0  0
  -27.5605  -27.4624   20.2910 C   0  0  0  0  0  0  0  0  0  0  0  0
  -28.8498  -27.1990   17.3261 C   0  0  0  0  0  0  0  0  0  0  0  0
  -31.0961  -25.6586   15.2700 C   0  0  0  0  0  0  0  0  0  0  0  0
  -31.1958  -13.2188   21.0597 C   0  0  0  0  0  0  0  0  0  0  0  0
  -23.9339  -31.0089   20.8638 C   0  0  0  0  0  0  0  0  0  0  0  0
  -30.0246  -27.6303   20.7970 C   0  0  0  0  0  0  0  0  0  0  0  0
  -29.4293  -25.3790   18.9744 C   0  0  0  0  0  0  0  0  0  0  0  0
  -24.3884  -30.0841   19.7375 C   0  0  0  0  0  0  0  0  0  0  0  0
  -29.3302  -13.1249   18.0286 C   0  0  0  0  0  0  0  0  0  0  0  0
  -24.5338  -28.6537   20.2471 C   0  0  0  0  0  0  0  0  0  0  0  0
  -27.8883  -12.9123   18.4930 C   0  0  0  0  0  0  0  0  0  0  0  0
  -30.3232  -12.3642   18.9046 C   0  0  0  0  0  0  0  0  0  0  0  0
  -28.7664  -12.4225   20.8142 C   0  0  0  0  0  0  0  0  0  0  0  0
  -25.5971  -28.5658   21.3485 C   0  0  1  0  0  0  0  0  0  0  0  0
  -28.9323  -27.7232   19.7360 C   0  0  1  0  0  0  0  0  0  0  0  0
  -27.7328  -13.2148   19.9956 C   0  0  2  0  0  0  0  0  0  0  0  0
  -31.8913  -25.6306   12.8900 C   0  0  0  0  0  0  0  0  0  0  0  0
  -26.3444  -25.6606   16.5097 C   0  0  0  0  0  0  0  0  0  0  0  0
  -27.5805  -24.8595   14.4852 C   0  0  0  0  0  0  0  0  0  0  0  0
  -27.1645  -27.2980   14.8065 C   0  0  0  0  0  0  0  0  0  0  0  0
  -33.8407  -26.4387   16.0559 C   0  0  0  0  0  0  0  0  0  0  0  0
  -31.9187  -14.0618   23.2792 C   0  0  0  0  0  0  0  0  0  0  0  0
  -30.9723  -20.5435   23.8871 C   0  0  0  0  0  0  0  0  0  0  0  0
  -31.2875  -22.0174   23.6944 C   0  0  0  0  0  0  0  0  0  1  0  0
  -28.8711  -26.1297   16.2607 C   0  0  1  0  0  0  0  0  0  0  0  0
  -32.1007  -26.2162   14.2778 C   0  0  2  0  0  0  0  0  0  0  0  0
  -27.5004  -25.9822   15.5416 C   0  0  0  0  0  0  0  0  0  0  0  0
  -26.0004  -11.7585   20.9756 N   0  0  0  0  0  0  0  0  0  0  0  0
  -26.3142  -12.9647   20.4730 N   0  0  0  0  0  0  0  0  0  0  0  0
  -29.1333  -26.7804   18.6338 N   0  0  0  0  0  0  0  0  0  0  0  0
  -30.1238  -12.6969   20.3172 N   0  0  0  0  0  0  0  0  0  0  0  0
  -25.4132  -15.1004   19.9855 N   0  0  0  0  0  0  0  0  0  0  0  0
  -21.8997  -12.8599   21.7266 N   0  0  0  0  0  0  0  0  0  0  0  0
  -31.9680  -19.7275   23.2307 N   0  0  0  0  0  0  0  0  0  0  0  0
  -26.9246  -28.5907   20.7726 N   0  0  0  0  0  0  0  0  0  0  0  0
  -29.9795  -26.4611   15.3719 N   0  0  0  0  0  0  0  0  0  0  0  0
  -30.9198  -13.5130   22.3894 N   0  0  0  0  0  0  0  0  0  0  0  0
  -33.4902  -25.9022   14.7156 N   0  3  0  0  0  0  0  0  0  0  0  0
  -22.5738  -14.8610   20.8325 O   0  0  0  0  0  0  0  0  0  0  0  0
  -27.1116  -26.3221   20.2815 O   0  0  0  0  0  0  0  0  0  0  0  0
  -28.5981  -28.3641   17.0085 O   0  0  0  0  0  0  0  0  0  0  0  0
  -31.2817  -24.6135   15.8897 O   0  0  0  0  0  0  0  0  0  0  0  0
  -32.3145  -13.4135   20.5723 O   0  0  0  0  0  0  0  0  0  0  0  0
  -21.9239   -7.5921   23.5393 O   0  0  0  0  0  0  0  0  0  0  0  0
  -31.3071  -22.3212   22.3003 O   0  0  0  0  0  0  0  0  0  1  0  0
  -16.9084   -6.4602   21.5472 F   0  0  0  0  0  0  0  0  0  0  0  0
  -21.3691   -5.1312   22.4085 F   0  0  0  0  0  0  0  0  0  0  0  0
  1  2  1  0  0  0  0
  1  5  2  0  0  0  0
  2  6  2  0  0  0  0
  3 12  2  0  0  0  0
  3 19  1  0  0  0  0
  4 13  1  0  0  0  0
  4 19  2  0  0  0  0
  5 21  1  0  0  0  0
  6 23  1  0  0  0  0
  7 14  2  0  0  0  0
  7 22  1  0  0  0  0
  8 10  2  0  0  0  0
  8 25  1  0  0  0  0
  9 11  1  0  0  0  0
  9 25  2  0  0  0  0
 10 26  1  0  0  0  0
 11 26  2  0  0  0  0
 12 27  1  0  0  0  0
 13 27  2  0  0  0  0
 14 28  1  0  0  0  0
 15 16  2  0  0  0  0
 15 29  1  0  0  0  0
 16 30  1  0  0  0  0
 17 24  1  0  0  0  0
 17 28  2  0  0  0  0
 18 30  2  0  0  0  0
 18 31  1  0  0  0  0
 19 32  1  0  0  0  0
 20 32  1  0  0  0  0
 20 33  2  0  0  0  0
 20 34  1  0  0  0  0
 21 23  2  0  0  0  0
 21 39  1  0  0  0  0
 22 24  2  0  0  0  0
 22 40  1  0  0  0  0
 23 48  1  0  0  0  0
 24 41  1  0  0  0  0
 25 56  1  0  0  0  0
 26 68  1  0  0  0  0
 27 78  1  0  0  0  0
 28 79  1  0  0  0  0
 29 31  2  0  0  0  0
 29 78  1  0  0  0  0
 30 80  1  0  0  0  0
 31 81  1  0  0  0  0
 32 62  2  0  0  0  0
 33 63  1  0  0  0  0
 33 66  1  0  0  0  0
 34 67  1  0  0  0  0
 34 73  2  0  0  0  0
 35 49  1  0  0  0  0
 35 69  1  0  0  0  0
 35 74  2  0  0  0  0
 36 59  1  0  0  0  0
 36 64  1  0  0  0  0
 36 75  2  0  0  0  0
 37 60  1  0  0  0  0
 37 70  1  0  0  0  0
 37 76  2  0  0  0  0
 38 65  1  0  0  0  0
 38 71  1  0  0  0  0
 38 77  2  0  0  0  0
 39 42  1  0  0  0  0
 40 49  1  0  0  0  0
 41 64  1  0  0  0  0
 42 44  1  0  0  0  0
 43 45  1  0  0  0  0
 43 46  1  0  0  0  0
 44 48  1  0  0  0  0
 45 50  1  0  0  0  0
 46 65  1  0  0  0  0
 47 50  1  0  0  0  0
 47 65  1  0  0  0  0
 48 69  1  0  0  0  0
 49 64  1  0  0  0  0
 50 63  1  0  0  0  0
 51 60  1  0  0  0  0
 52 61  1  0  0  0  0
 53 61  1  0  0  0  0
 54 61  1  0  0  0  0
 55 72  1  0  0  0  0
 56 71  1  0  0  0  0
 57 58  1  0  0  0  0
 57 68  1  0  0  0  0
 58 79  1  0  0  0  0
 59 61  1  0  0  0  0
 59 70  1  0  0  0  0
 60 72  1  0  0  0  0
 62 63  1  0  0  0  0
M  CHG  1  72   1
M  ISO  4  38 100  58 101  71 100  79 101
M  END
> <Batch ID>
0003

> <Smiles>
CNC(C)C(=O)NC(C(=O)N1Cc2cc([101O:1][101CH2:1]CNc3ccc(C[100NH:0][100C:0](=O)N4CCCC(n5nc(-c6ccc(Oc7ccc(F)cc7F)cc6)c(C(N)=O)c5N)C4)cc3)ccc2CC1C(=O)NC1CCCc2ccccc21)C(C)(C)C

> <Shape>
0.259

> <Color>
0.159

> <Negative vol penalty>
0.000

$$$$

  -OEChem-04042320203D

 79 87  0     1  0  0  0  0  0999 V2000
  -17.4802  -23.1131   24.9873 C   0  0  0  0  0  0  0  0  0  0  0  0
  -18.8266  -22.9147   24.6988 C   0  0  0  0  0  0  0  0  0  0  0  0
  -31.2477  -19.4820   19.1739 C   0  0  0  0  0  0  0  0  0  0  0  0
  -23.0743   -9.8691   19.9414 C   0  0  0  0  0  0  0  0  0  0  0  0
  -23.8387   -9.8740   22.2333 C   0  0  0  0  0  0  0  0  0  0  0  0
  -16.5195  -22.2592   24.4472 C   0  0  0  0  0  0  0  0  0  0  0  0
  -19.2132  -21.8614   23.8707 C   0  0  0  0  0  0  0  0  0  0  0  0
  -23.8641  -21.8265   19.8866 C   0  0  0  0  0  0  0  0  0  0  0  0
  -31.5069  -18.4283   20.0502 C   0  0  0  0  0  0  0  0  0  0  0  0
  -30.0125  -20.1292   19.2073 C   0  0  0  0  0  0  0  0  0  0  0  0
  -22.3316   -8.7152   20.1915 C   0  0  0  0  0  0  0  0  0  0  0  0
  -23.0959   -8.7201   22.4834 C   0  0  0  0  0  0  0  0  0  0  0  0
  -25.1647  -21.3308   19.9673 C   0  0  0  0  0  0  0  0  0  0  0  0
  -21.1153   -5.9803   23.8209 C   0  0  0  0  0  0  0  0  0  0  0  0
  -20.3613   -5.9350   24.9935 C   0  0  0  0  0  0  0  0  0  0  0  0
  -24.4524  -19.3012   18.8753 C   0  0  0  0  0  0  0  0  0  0  0  0
  -29.2957  -18.6688   20.9934 C   0  0  0  0  0  0  0  0  0  0  0  0
  -19.1141   -7.8723   24.2665 C   0  0  0  0  0  0  0  0  0  0  0  0
  -23.8279  -10.4484   20.9622 C   0  0  0  0  0  0  0  0  0  0  0  0
  -24.1680  -12.9739   20.8443 C   0  0  0  0  0  0  0  0  0  0  0  0
  -16.8936  -21.2008   23.6043 C   0  0  0  0  0  0  0  0  0  0  0  0
  -22.8439  -21.0575   19.3084 C   0  0  0  0  0  0  0  0  0  0  0  0
  -18.2566  -20.9917   23.3199 C   0  0  0  0  0  0  0  0  0  0  0  0
  -23.1403  -19.7905   18.7861 C   0  0  0  0  0  0  0  0  0  0  0  0
  -30.5309  -18.0216   20.9600 C   0  0  0  0  0  0  0  0  0  0  0  0
  -29.0365  -19.7226   20.1171 C   0  0  0  0  0  0  0  0  0  0  0  0
  -22.3424   -8.1407   21.4625 C   0  0  0  0  0  0  0  0  0  0  0  0
  -25.4584  -20.0668   19.4643 C   0  0  0  0  0  0  0  0  0  0  0  0
  -20.8687   -6.9717   22.8711 C   0  0  0  0  0  0  0  0  0  0  0  0
  -19.3607   -6.8809   25.2163 C   0  0  0  0  0  0  0  0  0  0  0  0
  -19.8682   -7.9177   23.0939 C   0  0  0  0  0  0  0  0  0  0  0  0
  -24.5957  -11.6401   20.7043 C   0  0  0  0  0  0  0  0  0  0  0  0
  -25.2589  -13.7245   20.4798 C   0  0  0  0  0  0  0  0  0  0  0  0
  -22.8980  -13.4885   21.2663 C   0  0  0  0  0  0  0  0  0  0  0  0
  -20.1084  -19.8154   20.3467 C   0  0  0  0  0  0  0  0  0  0  0  0
  -19.7350  -19.0210   17.2239 C   0  0  0  0  0  0  0  0  0  0  0  0
  -21.1893  -18.3748   14.2049 C   0  0  0  0  0  0  0  0  0  0  0  0
  -30.7424  -14.7466   20.6586 C   0  0  0  0  0  0  0  0  0  0  0  0
  -15.8233  -20.2754   23.0822 C   0  0  0  0  0  0  0  0  0  0  0  0
  -21.4518  -21.6175   19.2048 C   0  0  0  0  0  0  0  0  0  0  0  0
  -22.0852  -18.9335   18.1373 C   0  0  0  0  0  0  0  0  0  0  0  0
  -16.2841  -19.4098   21.9123 C   0  0  0  0  0  0  0  0  0  0  0  0
  -29.6016  -12.3640   18.2714 C   0  0  0  0  0  0  0  0  0  0  0  0
  -17.6464  -18.7914   22.2099 C   0  0  0  0  0  0  0  0  0  0  0  0
  -28.1652  -12.0690   18.7068 C   0  0  0  0  0  0  0  0  0  0  0  0
  -30.5210  -12.5841   19.4707 C   0  0  0  0  0  0  0  0  0  0  0  0
  -28.6215  -13.3125   20.8618 C   0  0  0  0  0  0  0  0  0  0  0  0
  -18.7133  -19.8753   22.4060 C   0  0  1  0  0  0  0  0  0  0  0  0
  -20.3831  -20.5387   19.0586 C   0  0  1  0  0  0  0  0  0  0  0  0
  -27.6451  -13.1386   19.6859 C   0  0  2  0  0  0  0  0  0  0  0  0
  -20.6289  -17.7163   11.8491 C   0  0  0  0  0  0  0  0  0  0  0  0
  -19.2731  -16.1473   18.1396 C   0  0  0  0  0  0  0  0  0  0  0  0
  -19.6676  -15.4060   15.7810 C   0  0  0  0  0  0  0  0  0  0  0  0
  -17.7531  -16.9157   16.3083 C   0  0  0  0  0  0  0  0  0  0  0  0
  -22.3314  -20.8763   13.1108 C   0  0  0  0  0  0  0  0  0  0  0  0
  -30.8094  -16.8958   21.8977 C   0  0  0  0  0  0  0  0  0  0  0  0
  -27.7076  -20.4183   20.1525 C   0  0  0  0  0  0  0  0  0  1  0  0
  -20.1084  -17.8326   16.3710 C   0  0  1  0  0  0  0  0  0  0  0  0
  -20.8713  -18.8727   12.8065 C   0  0  2  0  0  0  0  0  0  0  0  0
  -19.2203  -16.5905   16.6639 C   0  0  0  0  0  0  0  0  0  0  0  0
  -25.8598  -11.5454   20.2835 N   0  0  0  0  0  0  0  0  0  0  0  0
  -26.2357  -12.8294   20.1558 N   0  0  0  0  0  0  0  0  0  0  0  0
  -20.7379  -19.5226   18.0656 N   0  0  0  0  0  0  0  0  0  0  0  0
  -29.9715  -13.6113   20.3589 N   0  0  0  0  0  0  0  0  0  0  0  0
  -25.4684  -15.0561   20.4078 N   0  0  0  0  0  0  0  0  0  0  0  0
  -21.8873  -12.5783   21.6046 N   0  0  0  0  0  0  0  0  0  0  0  0
  -19.1341  -20.4073   21.1276 N   0  0  0  0  0  0  0  0  0  0  0  0
  -20.0568  -18.2912   14.9870 N   0  0  0  0  0  0  0  0  0  0  0  0
  -30.1444  -15.6741   21.5028 N   0  0  0  0  0  0  0  0  0  0  0  0
  -21.9997  -19.6910   12.2790 N   0  3  0  0  0  0  0  0  0  0  0  0
  -22.6611  -14.7189   21.3255 O   0  0  0  0  0  0  0  0  0  0  0  0
  -20.7332  -18.7950   20.6117 O   0  0  0  0  0  0  0  0  0  0  0  0
  -18.5977  -19.4914   17.1409 O   0  0  0  0  0  0  0  0  0  0  0  0
  -22.3278  -18.0853   14.5660 O   0  0  0  0  0  0  0  0  0  0  0  0
  -31.8774  -14.9233   20.2029 O   0  0  0  0  0  0  0  0  0  0  0  0
  -21.6176   -7.0149   21.7070 O   0  0  0  0  0  0  0  0  0  0  0  0
  -26.7269  -19.5802   19.5424 O   0  0  0  0  0  0  0  0  0  1  0  0
  -18.6357   -6.8363   26.3417 F   0  0  0  0  0  0  0  0  0  0  0  0
  -19.6259   -8.8717   22.1845 F   0  0  0  0  0  0  0  0  0  0  0  0
  1  2  1  0  0  0  0
  1  6  2  0  0  0  0
  2  7  2  0  0  0  0
  3  9  1  0  0  0  0
  3 10  2  0  0  0  0
  4 11  2  0  0  0  0
  4 19  1  0  0  0  0
  5 12  1  0  0  0  0
  5 19  2  0  0  0  0
  6 21  1  0  0  0  0
  7 23  1  0  0  0  0
  8 13  2  0  0  0  0
  8 22  1  0  0  0  0
  9 25  2  0  0  0  0
 10 26  1  0  0  0  0
 11 27  1  0  0  0  0
 12 27  2  0  0  0  0
 13 28  1  0  0  0  0
 14 15  2  0  0  0  0
 14 29  1  0  0  0  0
 15 30  1  0  0  0  0
 16 24  1  0  0  0  0
 16 28  2  0  0  0  0
 17 25  1  0  0  0  0
 17 26  2  0  0  0  0
 18 30  2  0  0  0  0
 18 31  1  0  0  0  0
 19 32  1  0  0  0  0
 20 32  1  0  0  0  0
 20 33  2  0  0  0  0
 20 34  1  0  0  0  0
 21 23  2  0  0  0  0
 21 39  1  0  0  0  0
 22 24  2  0  0  0  0
 22 40  1  0  0  0  0
 23 48  1  0  0  0  0
 24 41  1  0  0  0  0
 25 56  1  0  0  0  0
 26 57  1  0  0  0  0
 27 76  1  0  0  0  0
 28 77  1  0  0  0  0
 29 31  2  0  0  0  0
 29 76  1  0  0  0  0
 30 78  1  0  0  0  0
 31 79  1  0  0  0  0
 32 61  2  0  0  0  0
 33 62  1  0  0  0  0
 33 65  1  0  0  0  0
 34 66  1  0  0  0  0
 34 71  2  0  0  0  0
 35 49  1  0  0  0  0
 35 67  1  0  0  0  0
 35 72  2  0  0  0  0
 36 58  1  0  0  0  0
 36 63  1  0  0  0  0
 36 73  2  0  0  0  0
 37 59  1  0  0  0  0
 37 68  1  0  0  0  0
 37 74  2  0  0  0  0
 38 64  1  0  0  0  0
 38 69  1  0  0  0  0
 38 75  2  0  0  0  0
 39 42  1  0  0  0  0
 40 49  1  0  0  0  0
 41 63  1  0  0  0  0
 42 44  1  0  0  0  0
 43 45  1  0  0  0  0
 43 46  1  0  0  0  0
 44 48  1  0  0  0  0
 45 50  1  0  0  0  0
 46 64  1  0  0  0  0
 47 50  1  0  0  0  0
 47 64  1  0  0  0  0
 48 67  1  0  0  0  0
 49 63  1  0  0  0  0
 50 62  1  0  0  0  0
 51 59  1  0  0  0  0
 52 60  1  0  0  0  0
 53 60  1  0  0  0  0
 54 60  1  0  0  0  0
 55 70  1  0  0  0  0
 56 69  1  0  0  0  0
 57 77  1  0  0  0  0
 58 60  1  0  0  0  0
 58 68  1  0  0  0  0
 59 70  1  0  0  0  0
 61 62  1  0  0  0  0
M  CHG  1  70   1
M  ISO  4  38 100  57 101  69 100  77 101
M  END
> <Batch ID>
0003

> <Smiles>
CNC(C)C(=O)NC(C(=O)N1Cc2cc([101O:1][101CH2:1]c3cccc(C[100NH:0][100C:0](=O)N4CCCC(n5nc(-c6ccc(Oc7ccc(F)cc7F)cc6)c(C(N)=O)c5N)C4)c3)ccc2CC1C(=O)NC1CCCc2ccccc21)C(C)(C)C

> <Shape>
0.192

> <Color>
0.200

> <Negative vol penalty>
0.000

$$$$

  -OEChem-04042320203D

 82 91  0     1  0  0  0  0  0999 V2000
  -25.0298  -26.0749   15.0305 C   0  0  0  0  0  0  0  0  0  0  0  0
  -25.8500  -25.0437   15.4770 C   0  0  0  0  0  0  0  0  0  0  0  0
  -32.6427  -17.1351   24.1706 C   0  0  0  0  0  0  0  0  0  0  0  0
  -23.2914   -9.7942   19.9477 C   0  0  0  0  0  0  0  0  0  0  0  0
  -23.7503   -9.9705   22.3132 C   0  0  0  0  0  0  0  0  0  0  0  0
  -24.2114  -26.7533   15.9327 C   0  0  0  0  0  0  0  0  0  0  0  0
  -25.8532  -24.6912   16.8261 C   0  0  0  0  0  0  0  0  0  0  0  0
  -32.6884  -15.7414   24.1380 C   0  0  0  0  0  0  0  0  0  0  0  0
  -26.5661  -19.0751   19.1621 C   0  0  0  0  0  0  0  0  0  0  0  0
  -31.4739  -17.8033   23.8057 C   0  0  0  0  0  0  0  0  0  0  0  0
  -22.5683   -8.6233   20.1752 C   0  0  0  0  0  0  0  0  0  0  0  0
  -23.0272   -8.7996   22.5407 C   0  0  0  0  0  0  0  0  0  0  0  0
  -27.6715  -18.4151   19.6971 C   0  0  0  0  0  0  0  0  0  0  0  0
  -23.2309   -5.3584   20.7462 C   0  0  0  0  0  0  0  0  0  0  0  0
  -23.4586   -4.2805   19.8908 C   0  0  0  0  0  0  0  0  0  0  0  0
  -30.3966  -15.6841   23.3753 C   0  0  0  0  0  0  0  0  0  0  0  0
  -26.9700  -19.0513   21.9157 C   0  0  0  0  0  0  0  0  0  0  0  0
  -21.1341   -4.3115   19.2329 C   0  0  0  0  0  0  0  0  0  0  0  0
  -23.8824  -10.4678   21.0167 C   0  0  0  0  0  0  0  0  0  0  0  0
  -24.1356  -12.9952   20.7801 C   0  0  0  0  0  0  0  0  0  0  0  0
  -31.5654  -15.0159   23.7403 C   0  0  0  0  0  0  0  0  0  0  0  0
  -24.1974  -26.4026   17.2918 C   0  0  0  0  0  0  0  0  0  0  0  0
  -25.6587  -19.7385   20.0005 C   0  0  0  0  0  0  0  0  0  0  0  0
  -25.0349  -25.3665   17.7475 C   0  0  0  0  0  0  0  0  0  0  0  0
  -25.8525  -19.7168   21.3890 C   0  0  0  0  0  0  0  0  0  0  0  0
  -30.3509  -17.0778   23.4080 C   0  0  0  0  0  0  0  0  0  0  0  0
  -22.4362   -8.1260   21.4717 C   0  0  0  0  0  0  0  0  0  0  0  0
  -27.8752  -18.4056   21.0738 C   0  0  0  0  0  0  0  0  0  0  0  0
  -21.9548   -5.9129   20.8450 C   0  0  0  0  0  0  0  0  0  0  0  0
  -22.4102   -3.7570   19.1341 C   0  0  0  0  0  0  0  0  0  0  0  0
  -20.9064   -5.3895   20.0883 C   0  0  0  0  0  0  0  0  0  0  0  0
  -24.6299  -11.6771   20.7822 C   0  0  0  0  0  0  0  0  0  0  0  0
  -25.2344  -13.7736   20.5098 C   0  0  0  0  0  0  0  0  0  0  0  0
  -22.8023  -13.4732   21.0026 C   0  0  0  0  0  0  0  0  0  0  0  0
  -24.7092  -22.7531   20.3391 C   0  0  0  0  0  0  0  0  0  0  0  0
  -22.6041  -21.4455   22.4323 C   0  0  0  0  0  0  0  0  0  0  0  0
  -21.8298  -18.8720   24.5358 C   0  0  0  0  0  0  0  0  0  0  0  0
  -31.0558  -13.0339   21.3161 C   0  0  0  0  0  0  0  0  0  0  0  0
  -23.3310  -27.1962   18.2375 C   0  0  0  0  0  0  0  0  0  0  0  0
  -24.4568  -20.4232   19.4097 C   0  0  0  0  0  0  0  0  0  0  0  0
  -24.8967  -20.3967   22.3338 C   0  0  0  0  0  0  0  0  0  0  0  0
  -23.1154  -26.5125   19.5852 C   0  0  0  0  0  0  0  0  0  0  0  0
  -30.5508  -11.5427   24.5826 C   0  0  0  0  0  0  0  0  0  0  0  0
  -29.4519  -13.6777   18.2759 C   0  0  0  0  0  0  0  0  0  0  0  0
  -31.1468  -12.8734   25.0241 C   0  0  0  0  0  0  0  0  0  0  0  0
  -24.4380  -25.9884   20.1356 C   0  0  0  0  0  0  0  0  0  0  0  0
  -27.9863  -13.3493   18.5535 C   0  0  0  0  0  0  0  0  0  0  0  0
  -30.3720  -12.6783   18.9658 C   0  0  0  0  0  0  0  0  0  0  0  0
  -29.8775  -11.8950   23.2654 C   0  0  0  0  0  0  0  0  0  0  0  0
  -28.7011  -12.2756   20.7488 C   0  0  0  0  0  0  0  0  0  0  0  0
  -31.6153  -13.5052   23.7067 C   0  0  1  0  0  0  0  0  0  0  0  0
  -25.0479  -24.9385   19.1989 C   0  0  1  0  0  0  0  0  0  0  0  0
  -23.8768  -21.5023   20.3189 C   0  0  1  0  0  0  0  0  0  0  0  0
  -27.7249  -13.2553   20.0659 C   0  0  2  0  0  0  0  0  0  0  0  0
  -20.4525  -17.4848   26.1093 C   0  0  0  0  0  0  0  0  0  0  0  0
  -23.6104  -23.4485   24.5024 C   0  0  0  0  0  0  0  0  0  0  0  0
  -22.5382  -22.0464   26.2780 C   0  0  0  0  0  0  0  0  0  0  0  0
  -21.1339  -23.1000   24.5058 C   0  0  0  0  0  0  0  0  0  0  0  0
  -20.6188  -17.3416   22.3109 C   0  0  0  0  0  0  0  0  0  0  0  0
  -29.1014  -17.7925   23.0172 C   0  0  0  0  0  0  0  0  0  1  0  0
  -22.6163  -21.1403   23.9107 C   0  0  1  0  0  0  0  0  0  0  0  0
  -20.5612  -18.0553   24.7038 C   0  0  2  0  0  0  0  0  0  0  0  0
  -22.4940  -22.4225   24.7815 C   0  0  0  0  0  0  0  0  0  0  0  0
  -25.9408  -11.6176   20.5329 N   0  0  0  0  0  0  0  0  0  0  0  0
  -26.2794  -12.9081   20.3714 N   0  0  0  0  0  0  0  0  0  0  0  0
  -23.7400  -21.0579   21.7074 N   0  0  0  0  0  0  0  0  0  0  0  0
  -30.0922  -12.5940   20.3997 N   0  0  0  0  0  0  0  0  0  0  0  0
  -30.7518  -12.9102   22.6749 N   0  0  0  0  0  0  0  0  0  0  0  0
  -25.3990  -15.1071   20.3791 N   0  0  0  0  0  0  0  0  0  0  0  0
  -21.7926  -12.5378   21.2675 N   0  0  0  0  0  0  0  0  0  0  0  0
  -24.3750  -23.6672   19.3582 N   0  0  0  0  0  0  0  0  0  0  0  0
  -21.5568  -20.1627   24.1345 N   0  0  0  0  0  0  0  0  0  0  0  0
  -20.5416  -16.9236   23.7344 N   0  3  0  0  0  0  0  0  0  0  0  0
  -22.5116  -14.6924   20.9515 O   0  0  0  0  0  0  0  0  0  0  0  0
  -25.5885  -22.8801   21.1832 O   0  0  0  0  0  0  0  0  0  0  0  0
  -21.6199  -22.0006   21.9375 O   0  0  0  0  0  0  0  0  0  0  0  0
  -22.9505  -18.4123   24.7436 O   0  0  0  0  0  0  0  0  0  0  0  0
  -32.1420  -13.4938   20.9412 O   0  0  0  0  0  0  0  0  0  0  0  0
  -21.7305   -6.9836   21.6941 O   0  0  0  0  0  0  0  0  0  0  0  0
  -28.9611  -17.7582   21.6022 O   0  0  0  0  0  0  0  0  0  1  0  0
  -22.6293   -2.7229   18.3115 F   0  0  0  0  0  0  0  0  0  0  0  0
  -19.6785   -5.9188   20.1782 F   0  0  0  0  0  0  0  0  0  0  0  0
  1  2  1  0  0  0  0
  1  6  2  0  0  0  0
  2  7  2  0  0  0  0
  3  8  1  0  0  0  0
  3 10  2  0  0  0  0
  4 11  2  0  0  0  0
  4 19  1  0  0  0  0
  5 12  1  0  0  0  0
  5 19  2  0  0  0  0
  6 22  1  0  0  0  0
  7 24  1  0  0  0  0
  8 21  2  0  0  0  0
  9 13  2  0  0  0  0
  9 23  1  0  0  0  0
 10 26  1  0  0  0  0
 11 27  1  0  0  0  0
 12 27  2  0  0  0  0
 13 28  1  0  0  0  0
 14 15  2  0  0  0  0
 14 29  1  0  0  0  0
 15 30  1  0  0  0  0
 16 21  1  0  0  0  0
 16 26  2  0  0  0  0
 17 25  1  0  0  0  0
 17 28  2  0  0  0  0
 18 30  2  0  0  0  0
 18 31  1  0  0  0  0
 19 32  1  0  0  0  0
 20 32  1  0  0  0  0
 20 33  2  0  0  0  0
 20 34  1  0  0  0  0
 21 51  1  0  0  0  0
 22 24  2  0  0  0  0
 22 39  1  0  0  0  0
 23 25  2  0  0  0  0
 23 40  1  0  0  0  0
 24 52  1  0  0  0  0
 25 41  1  0  0  0  0
 26 60  1  0  0  0  0
 27 79  1  0  0  0  0
 28 80  1  0  0  0  0
 29 31  2  0  0  0  0
 29 79  1  0  0  0  0
 30 81  1  0  0  0  0
 31 82  1  0  0  0  0
 32 64  2  0  0  0  0
 33 65  1  0  0  0  0
 33 69  1  0  0  0  0
 34 70  1  0  0  0  0
 34 74  2  0  0  0  0
 35 53  1  0  0  0  0
 35 71  1  0  0  0  0
 35 75  2  0  0  0  0
 36 61  1  0  0  0  0
 36 66  1  0  0  0  0
 36 76  2  0  0  0  0
 37 62  1  0  0  0  0
 37 72  1  0  0  0  0
 37 77  2  0  0  0  0
 38 67  1  0  0  0  0
 38 68  1  0  0  0  0
 38 78  2  0  0  0  0
 39 42  1  0  0  0  0
 40 53  1  0  0  0  0
 41 66  1  0  0  0  0
 42 46  1  0  0  0  0
 43 45  1  0  0  0  0
 43 49  1  0  0  0  0
 44 47  1  0  0  0  0
 44 48  1  0  0  0  0
 45 51  1  0  0  0  0
 46 52  1  0  0  0  0
 47 54  1  0  0  0  0
 48 67  1  0  0  0  0
 49 68  1  0  0  0  0
 50 54  1  0  0  0  0
 50 67  1  0  0  0  0
 51 68  1  0  0  0  0
 52 71  1  0  0  0  0
 53 66  1  0  0  0  0
 54 65  1  0  0  0  0
 55 62  1  0  0  0  0
 56 63  1  0  0  0  0
 57 63  1  0  0  0  0
 58 63  1  0  0  0  0
 59 73  1  0  0  0  0
 60 80  1  0  0  0  0
 61 63  1  0  0  0  0
 61 72  1  0  0  0  0
 62 73  1  0  0  0  0
 64 65  1  0  0  0  0
M  CHG  1  73   1
M  ISO  4  38 100  60 101  68 100  80 101
M  END
> <Batch ID>
0003

> <Smiles>
CNC(C)C(=O)NC(C(=O)N1Cc2cc([101O:1][101CH2:1]c3cccc(C4CCC[100N:0]4[100C:0](=O)N4CCCC(n5nc(-c6ccc(Oc7ccc(F)cc7F)cc6)c(C(N)=O)c5N)C4)c3)ccc2CC1C(=O)NC1CCCc2ccccc21)C(C)(C)C

> <Shape>
0.161

> <Color>
0.183

> <Negative vol penalty>
0.000

$$$$

  -OEChem-04042320203D

 83 92  0     1  0  0  0  0  0999 V2000
  -26.7739  -31.6126   27.3735 C   0  0  0  0  0  0  0  0  0  0  0  0
  -27.4346  -30.6311   26.6417 C   0  0  0  0  0  0  0  0  0  0  0  0
  -31.7079  -21.1803   17.2185 C   0  0  0  0  0  0  0  0  0  0  0  0
  -22.8633  -11.2700   20.8606 C   0  0  0  0  0  0  0  0  0  0  0  0
  -23.7854   -9.1173   21.4546 C   0  0  0  0  0  0  0  0  0  0  0  0
  -25.4019  -31.7979   27.2093 C   0  0  0  0  0  0  0  0  0  0  0  0
  -26.7234  -29.8336   25.7460 C   0  0  0  0  0  0  0  0  0  0  0  0
  -31.3470  -20.0538   17.9577 C   0  0  0  0  0  0  0  0  0  0  0  0
  -28.7287  -27.6075   20.4047 C   0  0  0  0  0  0  0  0  0  0  0  0
  -31.3609  -22.4528   17.6722 C   0  0  0  0  0  0  0  0  0  0  0  0
  -21.6612  -10.6574   20.5066 C   0  0  0  0  0  0  0  0  0  0  0  0
  -22.5832   -8.5047   21.1007 C   0  0  0  0  0  0  0  0  0  0  0  0
  -29.2382  -26.3622   20.0395 C   0  0  0  0  0  0  0  0  0  0  0  0
  -18.9364   -9.4223   22.0823 C   0  0  0  0  0  0  0  0  0  0  0  0
  -17.7527  -10.0150   22.5218 C   0  0  0  0  0  0  0  0  0  0  0  0
  -30.2920  -21.4725   19.6044 C   0  0  0  0  0  0  0  0  0  0  0  0
  -27.0460  -25.6925   19.2879 C   0  0  0  0  0  0  0  0  0  0  0  0
  -17.0420  -10.2955   20.2298 C   0  0  0  0  0  0  0  0  0  0  0  0
  -23.9254  -10.4999   21.3345 C   0  0  0  0  0  0  0  0  0  0  0  0
  -25.5260  -11.6344   22.9651 C   0  0  0  0  0  0  0  0  0  0  0  0
  -30.6391  -20.1999   19.1507 C   0  0  0  0  0  0  0  0  0  0  0  0
  -24.6751  -31.0087   26.3040 C   0  0  0  0  0  0  0  0  0  0  0  0
  -27.3695  -27.9013   20.2240 C   0  0  0  0  0  0  0  0  0  0  0  0
  -25.3400  -30.0076   25.5704 C   0  0  0  0  0  0  0  0  0  0  0  0
  -26.5223  -26.9432   19.6493 C   0  0  0  0  0  0  0  0  0  0  0  0
  -30.6530  -22.5989   18.8651 C   0  0  0  0  0  0  0  0  0  0  0  0
  -21.5211   -9.2748   20.6267 C   0  0  0  0  0  0  0  0  0  0  0  0
  -28.3962  -25.4034   19.4837 C   0  0  0  0  0  0  0  0  0  0  0  0
  -19.1729   -9.2662   20.7164 C   0  0  0  0  0  0  0  0  0  0  0  0
  -16.8056  -10.4516   21.5956 C   0  0  0  0  0  0  0  0  0  0  0  0
  -18.2257   -9.7028   19.7902 C   0  0  0  0  0  0  0  0  0  0  0  0
  -25.1677  -11.1320   21.6998 C   0  0  0  0  0  0  0  0  0  0  0  0
  -26.7954  -12.1292   22.7911 C   0  0  0  0  0  0  0  0  0  0  0  0
  -24.7783  -11.6522   24.1883 C   0  0  0  0  0  0  0  0  0  0  0  0
  -24.9584  -28.6427   22.1580 C   0  0  0  0  0  0  0  0  0  0  0  0
  -23.3674  -29.0868   19.3663 C   0  0  0  0  0  0  0  0  0  0  0  0
  -23.0966  -28.3711   16.0404 C   0  0  0  0  0  0  0  0  0  0  0  0
  -30.5934  -14.8869   19.9642 C   0  0  0  0  0  0  0  0  0  0  0  0
  -23.1849  -31.2143   26.1953 C   0  0  0  0  0  0  0  0  0  0  0  0
  -26.8409  -29.2588   20.5984 C   0  0  0  0  0  0  0  0  0  0  0  0
  -25.0596  -27.2161   19.4156 C   0  0  0  0  0  0  0  0  0  0  0  0
  -22.5715  -30.5784   24.9505 C   0  0  0  0  0  0  0  0  0  0  0  0
  -30.0365  -11.6298   18.9495 C   0  0  0  0  0  0  0  0  0  0  0  0
  -23.0871  -29.1542   24.7693 C   0  0  0  0  0  0  0  0  0  0  0  0
  -28.7493  -11.2383   19.6750 C   0  0  0  0  0  0  0  0  0  0  0  0
  -29.2966  -18.0508   19.1733 C   0  0  0  0  0  0  0  0  0  0  0  0
  -31.4784  -18.1922   20.4496 C   0  0  0  0  0  0  0  0  0  0  0  0
  -29.9533  -13.0578   18.4230 C   0  0  0  0  0  0  0  0  0  0  0  0
  -28.9321  -16.8001   19.9784 C   0  0  0  0  0  0  0  0  0  0  0  0
  -31.0525  -16.9582   21.2399 C   0  0  0  0  0  0  0  0  0  0  0  0
  -28.3686  -13.6955   20.2119 C   0  0  0  0  0  0  0  0  0  0  0  0
  -30.2483  -18.9743   19.9549 C   0  0  0  0  0  0  0  0  0  0  0  0
  -24.6076  -29.1390   24.5708 C   0  0  1  0  0  0  0  0  0  0  0  0
  -25.3353  -29.2668   20.8442 C   0  0  1  0  0  0  0  0  0  0  0  0
  -28.4008  -12.2591   20.7727 C   0  0  1  0  0  0  0  0  0  0  0  0
  -21.6728  -28.8537   14.0312 C   0  0  0  0  0  0  0  0  0  0  0  0
  -21.2320  -27.1817   20.4250 C   0  0  0  0  0  0  0  0  0  0  0  0
  -20.3686  -26.9605   18.0854 C   0  0  0  0  0  0  0  0  0  0  0  0
  -20.3396  -29.1825   19.2187 C   0  0  0  0  0  0  0  0  0  0  0  0
  -25.3625  -29.5988   14.5852 C   0  0  0  0  0  0  0  0  0  0  0  0
  -30.2814  -23.9597   19.3499 C   0  0  0  0  0  0  0  0  0  1  0  0
  -22.5444  -28.2100   18.4536 C   0  0  1  0  0  0  0  0  0  0  0  0
  -22.8991  -29.2661   14.8303 C   0  0  2  0  0  0  0  0  0  0  0  0
  -21.1483  -27.8775   19.0517 C   0  0  0  0  0  0  0  0  0  0  0  0
  -26.1315  -11.2930   20.7892 N   0  0  0  0  0  0  0  0  0  0  0  0
  -27.1080  -11.9022   21.4831 N   0  0  0  0  0  0  0  0  0  0  0  0
  -24.5890  -28.5560   19.8041 N   0  0  0  0  0  0  0  0  0  0  0  0
  -29.6171  -13.9958   19.4939 N   0  0  0  0  0  0  0  0  0  0  0  0
  -30.1433  -16.1205   20.4584 N   0  0  0  0  0  0  0  0  0  0  0  0
  -27.6636  -12.7320   23.6310 N   0  0  0  0  0  0  0  0  0  0  0  0
  -23.4893  -11.1018   24.1916 N   0  0  0  0  0  0  0  0  0  0  0  0
  -24.9446  -29.5287   23.2184 N   0  0  0  0  0  0  0  0  0  0  0  0
  -22.4953  -28.8938   17.1658 N   0  0  0  0  0  0  0  0  0  0  0  0
  -24.0886  -29.1968   13.9351 N   0  3  0  0  0  0  0  0  0  0  0  0
  -25.2332  -12.1564   25.2430 O   0  0  0  0  0  0  0  0  0  0  0  0
  -24.6978  -27.4463   22.2059 O   0  0  0  0  0  0  0  0  0  0  0  0
  -22.9453  -30.2044   19.6735 O   0  0  0  0  0  0  0  0  0  0  0  0
  -23.7187  -27.3123   15.9914 O   0  0  0  0  0  0  0  0  0  0  0  0
  -31.7964  -14.5978   19.9449 O   0  0  0  0  0  0  0  0  0  0  0  0
  -20.3482   -8.6768   20.2816 O   0  0  0  0  0  0  0  0  0  0  0  0
  -28.8942  -24.1785   19.1245 O   0  0  0  0  0  0  0  0  0  1  0  0
  -15.6683  -11.0194   22.0179 F   0  0  0  0  0  0  0  0  0  0  0  0
  -18.4468   -9.5545   18.4769 F   0  0  0  0  0  0  0  0  0  0  0  0
  1  2  1  0  0  0  0
  1  6  2  0  0  0  0
  2  7  2  0  0  0  0
  3  8  1  0  0  0  0
  3 10  2  0  0  0  0
  4 11  2  0  0  0  0
  4 19  1  0  0  0  0
  5 12  1  0  0  0  0
  5 19  2  0  0  0  0
  6 22  1  0  0  0  0
  7 24  1  0  0  0  0
  8 21  2  0  0  0  0
  9 13  2  0  0  0  0
  9 23  1  0  0  0  0
 10 26  1  0  0  0  0
 11 27  1  0  0  0  0
 12 27  2  0  0  0  0
 13 28  1  0  0  0  0
 14 15  2  0  0  0  0
 14 29  1  0  0  0  0
 15 30  1  0  0  0  0
 16 21  1  0  0  0  0
 16 26  2  0  0  0  0
 17 25  1  0  0  0  0
 17 28  2  0  0  0  0
 18 30  2  0  0  0  0
 18 31  1  0  0  0  0
 19 32  1  0  0  0  0
 20 32  1  0  0  0  0
 20 33  2  0  0  0  0
 20 34  1  0  0  0  0
 21 52  1  0  0  0  0
 22 24  2  0  0  0  0
 22 39  1  0  0  0  0
 23 25  2  0  0  0  0
 23 40  1  0  0  0  0
 24 53  1  0  0  0  0
 25 41  1  0  0  0  0
 26 61  1  0  0  0  0
 27 80  1  0  0  0  0
 28 81  1  0  0  0  0
 29 31  2  0  0  0  0
 29 80  1  0  0  0  0
 30 82  1  0  0  0  0
 31 83  1  0  0  0  0
 32 65  2  0  0  0  0
 33 66  1  0  0  0  0
 33 70  1  0  0  0  0
 34 71  1  0  0  0  0
 34 75  2  0  0  0  0
 35 54  1  0  0  0  0
 35 72  1  0  0  0  0
 35 76  2  0  0  0  0
 36 62  1  0  0  0  0
 36 67  1  0  0  0  0
 36 77  2  0  0  0  0
 37 63  1  0  0  0  0
 37 73  1  0  0  0  0
 37 78  2  0  0  0  0
 38 68  1  0  0  0  0
 38 69  1  0  0  0  0
 38 79  2  0  0  0  0
 39 42  1  0  0  0  0
 40 54  1  0  0  0  0
 41 67  1  0  0  0  0
 42 44  1  0  0  0  0
 43 45  1  0  0  0  0
 43 48  1  0  0  0  0
 44 53  1  0  0  0  0
 45 55  1  0  0  0  0
 46 49  1  0  0  0  0
 46 52  1  0  0  0  0
 47 50  1  0  0  0  0
 47 52  1  0  0  0  0
 48 68  1  0  0  0  0
 49 69  1  0  0  0  0
 50 69  1  0  0  0  0
 51 55  1  0  0  0  0
 51 68  1  0  0  0  0
 53 72  1  0  0  0  0
 54 67  1  0  0  0  0
 55 66  1  0  0  0  0
 56 63  1  0  0  0  0
 57 64  1  0  0  0  0
 58 64  1  0  0  0  0
 59 64  1  0  0  0  0
 60 74  1  0  0  0  0
 61 81  1  0  0  0  0
 62 64  1  0  0  0  0
 62 73  1  0  0  0  0
 63 74  1  0  0  0  0
 65 66  1  0  0  0  0
M  CHG  1  74   1
M  ISO  4  38 100  61 101  69 100  81 101
M  END
> <Batch ID>
0003

> <Smiles>
CNC(C)C(=O)NC(C(=O)N1Cc2cc([101O:1][101CH2:1]c3cccc(C4CC[100N:0]([100C:0](=O)N5CCCC(n6nc(-c7ccc(Oc8ccc(F)cc8F)cc7)c(C(N)=O)c6N)C5)CC4)c3)ccc2CC1C(=O)NC1CCCc2ccccc21)C(C)(C)C

> <Shape>
0.254

> <Color>
0.091

> <Negative vol penalty>
0.000

$$$$

  -OEChem-04042320203D

 85 94  0     1  0  0  0  0  0999 V2000
  -21.7428  -18.3969   22.2756 C   0  0  0  0  0  0  0  0  0  0  0  0
  -22.8171  -19.2807   22.2608 C   0  0  0  0  0  0  0  0  0  0  0  0
  -23.0546   -9.7922   19.9660 C   0  0  0  0  0  0  0  0  0  0  0  0
  -23.7274   -9.9092   22.2834 C   0  0  0  0  0  0  0  0  0  0  0  0
  -20.5090  -18.7926   21.7608 C   0  0  0  0  0  0  0  0  0  0  0  0
  -22.6585  -20.5604   21.7301 C   0  0  0  0  0  0  0  0  0  0  0  0
  -31.2790  -19.0317   20.4994 C   0  0  0  0  0  0  0  0  0  0  0  0
  -29.5822  -19.3034   22.1977 C   0  0  0  0  0  0  0  0  0  0  0  0
  -24.7363  -24.1433   24.6440 C   0  0  0  0  0  0  0  0  0  0  0  0
  -31.1100  -17.6482   20.5518 C   0  0  0  0  0  0  0  0  0  0  0  0
  -29.4131  -17.9199   22.2501 C   0  0  0  0  0  0  0  0  0  0  0  0
  -22.3002   -8.6520   20.2425 C   0  0  0  0  0  0  0  0  0  0  0  0
  -22.9729   -8.7691   22.5601 C   0  0  0  0  0  0  0  0  0  0  0  0
  -26.1206  -24.2950   24.5770 C   0  0  0  0  0  0  0  0  0  0  0  0
  -21.5136   -5.6817   23.8044 C   0  0  0  0  0  0  0  0  0  0  0  0
  -22.0985   -4.6936   24.5964 C   0  0  0  0  0  0  0  0  0  0  0  0
  -25.8364  -26.1813   23.1005 C   0  0  0  0  0  0  0  0  0  0  0  0
  -23.8653   -4.4350   22.9689 C   0  0  0  0  0  0  0  0  0  0  0  0
  -23.7683  -10.4207   20.9864 C   0  0  0  0  0  0  0  0  0  0  0  0
  -24.1180  -12.9374   20.7587 C   0  0  0  0  0  0  0  0  0  0  0  0
  -30.5152  -19.8594   21.3224 C   0  0  0  0  0  0  0  0  0  0  0  0
  -20.3325  -20.0811   21.2324 C   0  0  0  0  0  0  0  0  0  0  0  0
  -23.8906  -25.0042   23.9299 C   0  0  0  0  0  0  0  0  0  0  0  0
  -21.4215  -20.9733   21.2066 C   0  0  0  0  0  0  0  0  0  0  0  0
  -24.4416  -26.0401   23.1622 C   0  0  0  0  0  0  0  0  0  0  0  0
  -30.1770  -17.0922   21.4271 C   0  0  0  0  0  0  0  0  0  0  0  0
  -22.2593   -8.1405   21.5396 C   0  0  0  0  0  0  0  0  0  0  0  0
  -26.6710  -25.3123   23.8028 C   0  0  0  0  0  0  0  0  0  0  0  0
  -22.1045   -6.0464   22.5947 C   0  0  0  0  0  0  0  0  0  0  0  0
  -23.2744   -4.0703   24.1787 C   0  0  0  0  0  0  0  0  0  0  0  0
  -23.2804   -5.4231   22.1769 C   0  0  0  0  0  0  0  0  0  0  0  0
  -24.5482  -11.5982   20.7012 C   0  0  0  0  0  0  0  0  0  0  0  0
  -25.2241  -13.6690   20.4015 C   0  0  0  0  0  0  0  0  0  0  0  0
  -22.8333  -13.4722   21.1042 C   0  0  0  0  0  0  0  0  0  0  0  0
  -21.7542  -24.6315   21.6059 C   0  0  0  0  0  0  0  0  0  0  0  0
  -21.1874  -27.7781   22.1534 C   0  0  0  0  0  0  0  0  0  0  0  0
  -22.3385  -30.7673   23.3310 C   0  0  0  0  0  0  0  0  0  0  0  0
  -30.6813  -14.7239   20.7323 C   0  0  0  0  0  0  0  0  0  0  0  0
  -18.9929  -20.4473   20.6441 C   0  0  0  0  0  0  0  0  0  0  0  0
  -22.3986  -24.8440   24.0340 C   0  0  0  0  0  0  0  0  0  0  0  0
  -23.5766  -27.0035   22.3928 C   0  0  0  0  0  0  0  0  0  0  0  0
  -18.8065  -21.9488   20.4415 C   0  0  0  0  0  0  0  0  0  0  0  0
  -29.6537  -12.1990   18.4418 C   0  0  0  0  0  0  0  0  0  0  0  0
  -20.0401  -22.5553   19.7802 C   0  0  0  0  0  0  0  0  0  0  0  0
  -28.1984  -11.9278   18.8302 C   0  0  0  0  0  0  0  0  0  0  0  0
  -29.3862  -22.0221   20.8372 C   0  0  0  0  0  0  0  0  0  0  0  0
  -31.1588  -21.8735   22.6324 C   0  0  0  0  0  0  0  0  0  0  0  0
  -30.5231  -12.4854   19.6649 C   0  0  0  0  0  0  0  0  0  0  0  0
  -28.5664  -13.2745   20.9368 C   0  0  0  0  0  0  0  0  0  0  0  0
  -29.5142  -23.5400   20.8502 C   0  0  0  0  0  0  0  0  0  0  0  0
  -31.2734  -23.3925   22.6314 C   0  0  0  0  0  0  0  0  0  0  0  0
  -30.6964  -21.3420   21.2661 C   0  0  0  0  0  0  0  0  0  0  0  0
  -21.2821  -22.3783   20.6620 C   0  0  1  0  0  0  0  0  0  0  0  0
  -21.6481  -25.4580   22.8563 C   0  0  1  0  0  0  0  0  0  0  0  0
  -27.6385  -13.0446   19.7328 C   0  0  2  0  0  0  0  0  0  0  0  0
  -21.6610  -33.1674   23.6099 C   0  0  0  0  0  0  0  0  0  0  0  0
  -21.6400  -28.2497   19.1730 C   0  0  0  0  0  0  0  0  0  0  0  0
  -21.8951  -30.6904   19.6689 C   0  0  0  0  0  0  0  0  0  0  0  0
  -19.7362  -29.5395   20.1559 C   0  0  0  0  0  0  0  0  0  0  0  0
  -22.6103  -30.6229   26.2745 C   0  0  0  0  0  0  0  0  0  0  0  0
  -29.9706  -25.4961   22.3267 C   0  0  0  0  0  0  0  0  0  0  0  0
  -28.5557  -26.0020   22.5268 C   0  0  0  0  0  0  0  0  0  1  0  0
  -21.7461  -29.0741   21.6173 C   0  0  1  0  0  0  0  0  0  0  0  0
  -21.7125  -31.7929   24.2587 C   0  0  2  0  0  0  0  0  0  0  0  0
  -21.2710  -29.3692   20.1666 C   0  0  0  0  0  0  0  0  0  0  0  0
  -25.8278  -11.4829   20.3361 N   0  0  0  0  0  0  0  0  0  0  0  0
  -26.2111  -12.7590   20.1608 N   0  0  0  0  0  0  0  0  0  0  0  0
  -22.1239  -26.8018   22.5215 N   0  0  0  0  0  0  0  0  0  0  0  0
  -29.9329  -13.5569   20.4702 N   0  0  0  0  0  0  0  0  0  0  0  0
  -25.4391  -14.9955   20.2728 N   0  0  0  0  0  0  0  0  0  0  0  0
  -21.8081  -12.5798   21.4461 N   0  0  0  0  0  0  0  0  0  0  0  0
  -30.0049  -15.6868   21.4804 N   0  0  0  0  0  0  0  0  0  0  0  0
  -21.2768  -23.3419   21.7418 N   0  0  0  0  0  0  0  0  0  0  0  0
  -21.3866  -30.1049   22.5852 N   0  0  0  0  0  0  0  0  0  0  0  0
  -29.9515  -24.0151   22.2229 N   0  3  0  0  0  0  0  0  0  0  0  0
  -22.4984  -31.8980   25.5205 N   0  3  0  0  0  0  0  0  0  0  0  0
  -22.5968  -14.7040   21.0936 O   0  0  0  0  0  0  0  0  0  0  0  0
  -22.2324  -25.1276   20.5926 O   0  0  0  0  0  0  0  0  0  0  0  0
  -19.9654  -27.6400   22.2488 O   0  0  0  0  0  0  0  0  0  0  0  0
  -23.5511  -30.5757   23.2711 O   0  0  0  0  0  0  0  0  0  0  0  0
  -31.8275  -14.8704   20.3001 O   0  0  0  0  0  0  0  0  0  0  0  0
  -21.5231   -7.0281   21.8099 O   0  0  0  0  0  0  0  0  0  0  0  0
  -28.0218  -25.4621   23.7351 O   0  0  0  0  0  0  0  0  0  1  0  0
  -23.8368   -3.1226   24.9400 F   0  0  0  0  0  0  0  0  0  0  0  0
  -23.8533   -5.7701   21.0163 F   0  0  0  0  0  0  0  0  0  0  0  0
  1  2  1  0  0  0  0
  1  5  2  0  0  0  0
  2  6  2  0  0  0  0
  3 12  2  0  0  0  0
  3 19  1  0  0  0  0
  4 13  1  0  0  0  0
  4 19  2  0  0  0  0
  5 22  1  0  0  0  0
  6 24  1  0  0  0  0
  7 10  2  0  0  0  0
  7 21  1  0  0  0  0
  8 11  1  0  0  0  0
  8 21  2  0  0  0  0
  9 14  2  0  0  0  0
  9 23  1  0  0  0  0
 10 26  1  0  0  0  0
 11 26  2  0  0  0  0
 12 27  1  0  0  0  0
 13 27  2  0  0  0  0
 14 28  1  0  0  0  0
 15 16  2  0  0  0  0
 15 29  1  0  0  0  0
 16 30  1  0  0  0  0
 17 25  1  0  0  0  0
 17 28  2  0  0  0  0
 18 30  2  0  0  0  0
 18 31  1  0  0  0  0
 19 32  1  0  0  0  0
 20 32  1  0  0  0  0
 20 33  2  0  0  0  0
 20 34  1  0  0  0  0
 21 52  1  0  0  0  0
 22 24  2  0  0  0  0
 22 39  1  0  0  0  0
 23 25  2  0  0  0  0
 23 40  1  0  0  0  0
 24 53  1  0  0  0  0
 25 41  1  0  0  0  0
 26 72  1  0  0  0  0
 27 82  1  0  0  0  0
 28 83  1  0  0  0  0
 29 31  2  0  0  0  0
 29 82  1  0  0  0  0
 30 84  1  0  0  0  0
 31 85  1  0  0  0  0
 32 66  2  0  0  0  0
 33 67  1  0  0  0  0
 33 70  1  0  0  0  0
 34 71  1  0  0  0  0
 34 77  2  0  0  0  0
 35 54  1  0  0  0  0
 35 73  1  0  0  0  0
 35 78  2  0  0  0  0
 36 63  1  0  0  0  0
 36 68  1  0  0  0  0
 36 79  2  0  0  0  0
 37 64  1  0  0  0  0
 37 74  1  0  0  0  0
 37 80  2  0  0  0  0
 38 69  1  0  0  0  0
 38 72  1  0  0  0  0
 38 81  2  0  0  0  0
 39 42  1  0  0  0  0
 40 54  1  0  0  0  0
 41 68  1  0  0  0  0
 42 44  1  0  0  0  0
 43 45  1  0  0  0  0
 43 48  1  0  0  0  0
 44 53  1  0  0  0  0
 45 55  1  0  0  0  0
 46 50  1  0  0  0  0
 46 52  1  0  0  0  0
 47 51  1  0  0  0  0
 47 52  1  0  0  0  0
 48 69  1  0  0  0  0
 49 55  1  0  0  0  0
 49 69  1  0  0  0  0
 50 75  1  0  0  0  0
 51 75  1  0  0  0  0
 53 73  1  0  0  0  0
 54 68  1  0  0  0  0
 55 67  1  0  0  0  0
 56 64  1  0  0  0  0
 57 65  1  0  0  0  0
 58 65  1  0  0  0  0
 59 65  1  0  0  0  0
 60 76  1  0  0  0  0
 61 62  1  0  0  0  0
 61 75  1  0  0  0  0
 62 83  1  0  0  0  0
 63 65  1  0  0  0  0
 63 74  1  0  0  0  0
 64 76  1  0  0  0  0
 66 67  1  0  0  0  0
M  CHG  2  75   1  76   1
M  ISO  4  38 100  62 101  72 100  83 101
M  END
> <Batch ID>
0003

> <Smiles>
CNC(C)C(=O)NC(C(=O)N1Cc2cc([101O:1][101CH2:1]CN3CCC(c4ccc([100NH:0][100C:0](=O)N5CCCC(n6nc(-c7ccc(Oc8ccc(F)cc8F)cc7)c(C(N)=O)c6N)C5)cc4)CC3)ccc2CC1C(=O)NC1CCCc2ccccc21)C(C)(C)C

> <Shape>
0.255

> <Color>
0.208

> <Negative vol penalty>
0.000

$$$$

  -OEChem-04042320203D

 84 92  0     1  0  0  0  0  0999 V2000
  -21.8472  -11.5729   19.0132 C   0  0  0  0  0  0  0  0  0  0  0  0
  -21.6870  -12.9525   19.0934 C   0  0  0  0  0  0  0  0  0  0  0  0
  -17.9431  -26.7537   23.4923 C   0  0  0  0  0  0  0  0  0  0  0  0
  -28.9362  -26.6279   19.9001 C   0  0  0  0  0  0  0  0  0  0  0  0
  -26.8912  -26.0383   18.7567 C   0  0  0  0  0  0  0  0  0  0  0  0
  -22.9526  -10.9649   19.6068 C   0  0  0  0  0  0  0  0  0  0  0  0
  -22.6317  -13.7249   19.7684 C   0  0  0  0  0  0  0  0  0  0  0  0
  -24.4493  -19.3962   18.3406 C   0  0  0  0  0  0  0  0  0  0  0  0
  -18.5159  -28.0254   23.5114 C   0  0  0  0  0  0  0  0  0  0  0  0
  -18.2605  -25.8612   22.4685 C   0  0  0  0  0  0  0  0  0  0  0  0
  -29.4453  -25.3544   19.6464 C   0  0  0  0  0  0  0  0  0  0  0  0
  -27.4003  -24.7647   18.5029 C   0  0  0  0  0  0  0  0  0  0  0  0
  -24.0871  -20.6491   18.8332 C   0  0  0  0  0  0  0  0  0  0  0  0
  -28.3025  -21.4770   17.2399 C   0  0  0  0  0  0  0  0  0  0  0  0
  -28.1379  -20.9558   15.9566 C   0  0  0  0  0  0  0  0  0  0  0  0
  -25.9886  -20.6089   20.3170 C   0  0  0  0  0  0  0  0  0  0  0  0
  -19.7233  -27.5120   21.4827 C   0  0  0  0  0  0  0  0  0  0  0  0
  -29.3904  -22.8091   15.0434 C   0  0  0  0  0  0  0  0  0  0  0  0
  -27.6591  -26.9699   19.4553 C   0  0  0  0  0  0  0  0  0  0  0  0
  -27.2567  -29.4282   18.9054 C   0  0  0  0  0  0  0  0  0  0  0  0
  -23.9163  -11.7312   20.2811 C   0  0  0  0  0  0  0  0  0  0  0  0
  -25.5796  -18.7342   18.8412 C   0  0  0  0  0  0  0  0  0  0  0  0
  -23.7503  -13.1264   20.3727 C   0  0  0  0  0  0  0  0  0  0  0  0
  -26.3645  -19.3487   19.8273 C   0  0  0  0  0  0  0  0  0  0  0  0
  -19.4059  -28.4046   22.5066 C   0  0  0  0  0  0  0  0  0  0  0  0
  -19.1505  -26.2403   21.4636 C   0  0  0  0  0  0  0  0  0  0  0  0
  -28.6774  -24.4227   18.9478 C   0  0  0  0  0  0  0  0  0  0  0  0
  -24.8551  -21.2544   19.8236 C   0  0  0  0  0  0  0  0  0  0  0  0
  -29.0109  -22.6643   17.4250 C   0  0  0  0  0  0  0  0  0  0  0  0
  -28.6819  -21.6219   14.8583 C   0  0  0  0  0  0  0  0  0  0  0  0
  -29.5548  -23.3303   16.3268 C   0  0  0  0  0  0  0  0  0  0  0  0
  -27.1324  -28.2851   19.7176 C   0  0  0  0  0  0  0  0  0  0  0  0
  -26.5881  -30.4119   19.5922 C   0  0  0  0  0  0  0  0  0  0  0  0
  -27.9175  -29.5866   17.6428 C   0  0  0  0  0  0  0  0  0  0  0  0
  -26.0793  -15.9950   20.3743 C   0  0  0  0  0  0  0  0  0  0  0  0
  -29.1986  -16.7840   19.9625 C   0  0  0  0  0  0  0  0  0  0  0  0
  -31.5262  -19.2274   19.4538 C   0  0  0  0  0  0  0  0  0  0  0  0
  -22.1773  -30.2810   23.6393 C   0  0  0  0  0  0  0  0  0  0  0  0
  -25.0697  -11.0241   20.9476 C   0  0  0  0  0  0  0  0  0  0  0  0
  -25.9721  -17.3949   18.2803 C   0  0  0  0  0  0  0  0  0  0  0  0
  -27.5988  -18.6889   20.3837 C   0  0  0  0  0  0  0  0  0  0  0  0
  -26.2202  -11.9548   21.3223 C   0  0  0  0  0  0  0  0  0  0  0  0
  -25.4041  -31.7327   24.0357 C   0  0  0  0  0  0  0  0  0  0  0  0
  -25.6899  -13.2095   22.0088 C   0  0  0  0  0  0  0  0  0  0  0  0
  -26.2242  -31.1169   22.9007 C   0  0  0  0  0  0  0  0  0  0  0  0
  -24.4074  -30.7332   24.6184 C   0  0  0  0  0  0  0  0  0  0  0  0
  -24.3343  -29.4852   22.4945 C   0  0  0  0  0  0  0  0  0  0  0  0
  -24.7664  -14.0009   21.0748 C   0  0  1  0  0  0  0  0  0  0  0  0
  -26.8512  -16.5846   19.2280 C   0  0  1  0  0  0  0  0  0  0  0  0
  -25.3146  -30.4721   21.8376 C   0  0  2  0  0  0  0  0  0  0  0  0
  -19.1499  -25.8195   18.9705 C   0  0  0  0  0  0  0  0  0  0  0  0
  -33.7773  -20.2419   19.0056 C   0  0  0  0  0  0  0  0  0  0  0  0
  -29.5578  -16.4218   22.9708 C   0  0  0  0  0  0  0  0  0  0  0  0
  -31.7216  -17.6684   22.7922 C   0  0  0  0  0  0  0  0  0  0  0  0
  -31.4247  -15.5085   21.5799 C   0  0  0  0  0  0  0  0  0  0  0  0
  -31.1481  -19.0579   16.5234 C   0  0  0  0  0  0  0  0  0  0  0  0
  -20.0190  -29.7640   22.5286 C   0  0  0  0  0  0  0  0  0  0  0  0
  -22.8337  -23.7602   21.4552 C   0  0  0  0  0  0  0  0  0  0  0  0
  -21.3723  -24.1660   21.5720 C   0  0  0  0  0  0  0  0  0  0  0  0
  -23.1136  -22.8009   20.3048 C   0  0  0  0  0  0  0  0  0  1  0  0
  -19.4937  -25.2734   20.3540 C   0  0  1  0  0  0  0  0  0  0  0  0
  -30.2161  -17.5698   20.7539 C   0  0  1  0  0  0  0  0  0  0  0  0
  -32.6825  -19.3291   18.4755 C   0  0  2  0  0  0  0  0  0  0  0  0
  -30.7058  -16.8040   22.0153 C   0  0  0  0  0  0  0  0  0  0  0  0
  -26.4394  -28.5196   20.8351 N   0  0  0  0  0  0  0  0  0  0  0  0
  -26.1224  -29.8213   20.7300 N   0  0  0  0  0  0  0  0  0  0  0  0
  -27.9377  -17.3771   19.8076 N   0  0  0  0  0  0  0  0  0  0  0  0
  -23.5744  -30.1595   23.5588 N   0  0  0  0  0  0  0  0  0  0  0  0
  -26.3590  -31.7157   19.3279 N   0  0  0  0  0  0  0  0  0  0  0  0
  -28.5551  -28.4736   17.0781 N   0  0  0  0  0  0  0  0  0  0  0  0
  -25.5438  -14.7488   20.1101 N   0  0  0  0  0  0  0  0  0  0  0  0
  -31.2787  -17.9207   19.8179 N   0  0  0  0  0  0  0  0  0  0  0  0
  -21.4628  -29.7149   22.5906 N   0  0  0  0  0  0  0  0  0  0  0  0
  -32.2103  -19.8707   17.1699 N   0  3  0  0  0  0  0  0  0  0  0  0
  -20.9315  -24.8856   20.3540 N   0  3  0  0  0  0  0  0  0  0  0  0
  -27.9558  -30.6868   17.0414 O   0  0  0  0  0  0  0  0  0  0  0  0
  -25.9783  -16.6233   21.4215 O   0  0  0  0  0  0  0  0  0  0  0  0
  -29.5134  -15.6877   19.4929 O   0  0  0  0  0  0  0  0  0  0  0  0
  -30.9071  -20.2093   19.8577 O   0  0  0  0  0  0  0  0  0  0  0  0
  -21.6091  -30.8563   24.5737 O   0  0  0  0  0  0  0  0  0  0  0  0
  -29.1740  -23.1800   18.6998 O   0  0  0  0  0  0  0  0  0  0  0  0
  -24.5034  -22.4771   20.3066 O   0  0  0  0  0  0  0  0  0  1  0  0
  -28.5252  -21.1205   13.6262 F   0  0  0  0  0  0  0  0  0  0  0  0
  -30.2374  -24.4707   16.4985 F   0  0  0  0  0  0  0  0  0  0  0  0
  1  2  1  0  0  0  0
  1  6  2  0  0  0  0
  2  7  2  0  0  0  0
  3  9  1  0  0  0  0
  3 10  2  0  0  0  0
  4 11  2  0  0  0  0
  4 19  1  0  0  0  0
  5 12  1  0  0  0  0
  5 19  2  0  0  0  0
  6 21  1  0  0  0  0
  7 23  1  0  0  0  0
  8 13  2  0  0  0  0
  8 22  1  0  0  0  0
  9 25  2  0  0  0  0
 10 26  1  0  0  0  0
 11 27  1  0  0  0  0
 12 27  2  0  0  0  0
 13 28  1  0  0  0  0
 14 15  2  0  0  0  0
 14 29  1  0  0  0  0
 15 30  1  0  0  0  0
 16 24  1  0  0  0  0
 16 28  2  0  0  0  0
 17 25  1  0  0  0  0
 17 26  2  0  0  0  0
 18 30  2  0  0  0  0
 18 31  1  0  0  0  0
 19 32  1  0  0  0  0
 20 32  1  0  0  0  0
 20 33  2  0  0  0  0
 20 34  1  0  0  0  0
 21 23  2  0  0  0  0
 21 39  1  0  0  0  0
 22 24  2  0  0  0  0
 22 40  1  0  0  0  0
 23 48  1  0  0  0  0
 24 41  1  0  0  0  0
 25 57  1  0  0  0  0
 26 61  1  0  0  0  0
 27 81  1  0  0  0  0
 28 82  1  0  0  0  0
 29 31  2  0  0  0  0
 29 81  1  0  0  0  0
 30 83  1  0  0  0  0
 31 84  1  0  0  0  0
 32 65  2  0  0  0  0
 33 66  1  0  0  0  0
 33 69  1  0  0  0  0
 34 70  1  0  0  0  0
 34 76  2  0  0  0  0
 35 49  1  0  0  0  0
 35 71  1  0  0  0  0
 35 77  2  0  0  0  0
 36 62  1  0  0  0  0
 36 67  1  0  0  0  0
 36 78  2  0  0  0  0
 37 63  1  0  0  0  0
 37 72  1  0  0  0  0
 37 79  2  0  0  0  0
 38 68  1  0  0  0  0
 38 73  1  0  0  0  0
 38 80  2  0  0  0  0
 39 42  1  0  0  0  0
 40 49  1  0  0  0  0
 41 67  1  0  0  0  0
 42 44  1  0  0  0  0
 43 45  1  0  0  0  0
 43 46  1  0  0  0  0
 44 48  1  0  0  0  0
 45 50  1  0  0  0  0
 46 68  1  0  0  0  0
 47 50  1  0  0  0  0
 47 68  1  0  0  0  0
 48 71  1  0  0  0  0
 49 67  1  0  0  0  0
 50 66  1  0  0  0  0
 51 61  1  0  0  0  0
 52 63  1  0  0  0  0
 53 64  1  0  0  0  0
 54 64  1  0  0  0  0
 55 64  1  0  0  0  0
 56 74  1  0  0  0  0
 57 73  1  0  0  0  0
 58 59  1  0  0  0  0
 58 60  1  0  0  0  0
 59 75  1  0  0  0  0
 60 82  1  0  0  0  0
 61 75  1  0  0  0  0
 62 64  1  0  0  0  0
 62 72  1  0  0  0  0
 63 74  1  0  0  0  0
 65 66  1  0  0  0  0
M  CHG  2  74   1  75   1
M  ISO  4  38 100  60 101  73 100  82 101
M  END
> <Batch ID>
0003

> <Smiles>
CNC(C)C(=O)NC(C(=O)N1Cc2cc([101O:1][101CH2:1]CCNC(C)c3cccc(C[100NH:0][100C:0](=O)N4CCCC(n5nc(-c6ccc(Oc7ccc(F)cc7F)cc6)c(C(N)=O)c5N)C4)c3)ccc2CC1C(=O)NC1CCCc2ccccc21)C(C)(C)C

> <Shape>
0.245

> <Color>
0.081

> <Negative vol penalty>
0.000

$$$$

  -OEChem-04042320203D

 78 86  0     1  0  0  0  0  0999 V2000
  -28.0667  -37.0392   21.1568 C   0  0  0  0  0  0  0  0  0  0  0  0
  -28.4786  -35.7212   20.9880 C   0  0  0  0  0  0  0  0  0  0  0  0
  -26.8779  -12.7381   21.8118 C   0  0  0  0  0  0  0  0  0  0  0  0
  -26.2289  -14.3697   20.1524 C   0  0  0  0  0  0  0  0  0  0  0  0
  -26.9484  -37.3241   21.9392 C   0  0  0  0  0  0  0  0  0  0  0  0
  -27.7731  -34.6872   21.6025 C   0  0  0  0  0  0  0  0  0  0  0  0
  -26.8406  -29.0494   19.4001 C   0  0  0  0  0  0  0  0  0  0  0  0
  -29.9140  -23.9385   21.6652 C   0  0  0  0  0  0  0  0  0  0  0  0
  -29.0925  -23.0456   19.5759 C   0  0  0  0  0  0  0  0  0  0  0  0
  -30.3903  -22.6757   22.0176 C   0  0  0  0  0  0  0  0  0  0  0  0
  -29.5689  -21.7828   19.9283 C   0  0  0  0  0  0  0  0  0  0  0  0
  -25.5581  -12.2939   21.8913 C   0  0  0  0  0  0  0  0  0  0  0  0
  -24.9090  -13.9255   20.2318 C   0  0  0  0  0  0  0  0  0  0  0  0
  -27.4760  -27.8317   19.6398 C   0  0  0  0  0  0  0  0  0  0  0  0
  -22.4256  -10.4880   22.2670 C   0  0  0  0  0  0  0  0  0  0  0  0
  -22.2040   -9.1109   22.2726 C   0  0  0  0  0  0  0  0  0  0  0  0
  -25.7862  -27.2777   21.2698 C   0  0  0  0  0  0  0  0  0  0  0  0
  -23.2629   -8.9317   20.1084 C   0  0  0  0  0  0  0  0  0  0  0  0
  -27.2133  -13.7760   20.9424 C   0  0  0  0  0  0  0  0  0  0  0  0
  -29.5834  -13.7604   19.9988 C   0  0  0  0  0  0  0  0  0  0  0  0
  -26.2231  -36.2924   22.5558 C   0  0  0  0  0  0  0  0  0  0  0  0
  -25.6774  -29.3956   20.1025 C   0  0  0  0  0  0  0  0  0  0  0  0
  -26.6449  -34.9587   22.3951 C   0  0  0  0  0  0  0  0  0  0  0  0
  -25.1365  -28.4992   21.0353 C   0  0  0  0  0  0  0  0  0  0  0  0
  -29.2650  -24.1234   20.4444 C   0  0  0  0  0  0  0  0  0  0  0  0
  -30.2178  -21.5979   21.1491 C   0  0  0  0  0  0  0  0  0  0  0  0
  -24.5736  -12.8876   21.1013 C   0  0  0  0  0  0  0  0  0  0  0  0
  -26.9505  -26.9469   20.5769 C   0  0  0  0  0  0  0  0  0  0  0  0
  -23.0657  -11.0870   21.1821 C   0  0  0  0  0  0  0  0  0  0  0  0
  -22.6227   -8.3327   21.1933 C   0  0  0  0  0  0  0  0  0  0  0  0
  -23.4844  -10.3089   20.1028 C   0  0  0  0  0  0  0  0  0  0  0  0
  -28.5764  -14.2357   20.8602 C   0  0  0  0  0  0  0  0  0  0  0  0
  -30.6867  -14.5170   20.3100 C   0  0  0  0  0  0  0  0  0  0  0  0
  -29.5265  -12.7275   19.0061 C   0  0  0  0  0  0  0  0  0  0  0  0
  -24.8815  -31.7237   22.1150 C   0  0  0  0  0  0  0  0  0  0  0  0
  -21.9265  -30.4122   21.8504 C   0  0  0  0  0  0  0  0  0  0  0  0
  -20.0285  -27.6660   21.1412 C   0  0  0  0  0  0  0  0  0  0  0  0
  -31.3678  -19.9601   22.6793 C   0  0  0  0  0  0  0  0  0  0  0  0
  -25.0489  -36.6530   23.4308 C   0  0  0  0  0  0  0  0  0  0  0  0
  -24.9890  -30.7013   19.8131 C   0  0  0  0  0  0  0  0  0  0  0  0
  -23.8787  -28.8147   21.8013 C   0  0  0  0  0  0  0  0  0  0  0  0
  -24.1351  -35.4704   23.7419 C   0  0  0  0  0  0  0  0  0  0  0  0
  -32.6846  -16.9053   23.9485 C   0  0  0  0  0  0  0  0  0  0  0  0
  -24.9579  -34.2549   24.1570 C   0  0  0  0  0  0  0  0  0  0  0  0
  -31.8764  -15.8307   23.2177 C   0  0  0  0  0  0  0  0  0  0  0  0
  -31.8295  -18.1244   24.2893 C   0  0  0  0  0  0  0  0  0  0  0  0
  -30.2959  -17.6360   22.4242 C   0  0  0  0  0  0  0  0  0  0  0  0
  -25.8910  -33.8077   23.0253 C   0  0  1  0  0  0  0  0  0  0  0  0
  -24.0974  -31.1732   20.9575 C   0  0  1  0  0  0  0  0  0  0  0  0
  -31.1304  -16.4157   22.0024 C   0  0  2  0  0  0  0  0  0  0  0  0
  -17.6438  -26.8901   21.0485 C   0  0  0  0  0  0  0  0  0  0  0  0
  -21.8657  -30.2428   24.8963 C   0  0  0  0  0  0  0  0  0  0  0  0
  -19.9531  -28.6392   24.6994 C   0  0  0  0  0  0  0  0  0  0  0  0
  -19.7150  -30.9722   23.8490 C   0  0  0  0  0  0  0  0  0  0  0  0
  -20.2148  -27.0650   18.2493 C   0  0  0  0  0  0  0  0  0  0  0  0
  -28.7526  -25.4818   20.0654 C   0  0  0  0  0  0  0  0  0  1  0  0
  -21.1660  -29.3336   22.5834 C   0  0  1  0  0  0  0  0  0  0  0  0
  -18.8017  -27.4884   20.2649 C   0  0  2  0  0  0  0  0  0  0  0  0
  -20.6998  -29.7915   23.9942 C   0  0  0  0  0  0  0  0  0  0  0  0
  -29.0023  -15.2180   21.6588 N   0  0  0  0  0  0  0  0  0  0  0  0
  -30.2891  -15.3661   21.3005 N   0  0  0  0  0  0  0  0  0  0  0  0
  -23.2458  -30.1064   21.4875 N   0  0  0  0  0  0  0  0  0  0  0  0
  -31.1567  -18.6266   23.0893 N   0  0  0  0  0  0  0  0  0  0  0  0
  -31.9484  -14.5321   19.8303 N   0  0  0  0  0  0  0  0  0  0  0  0
  -28.3144  -12.0502   18.8153 N   0  0  0  0  0  0  0  0  0  0  0  0
  -30.7018  -20.3151   21.5067 N   0  0  0  0  0  0  0  0  0  0  0  0
  -25.1513  -33.0756   22.0197 N   0  0  0  0  0  0  0  0  0  0  0  0
  -20.0802  -28.9263   21.6982 N   0  0  0  0  0  0  0  0  0  0  0  0
  -19.1097  -26.5865   19.1192 N   0  3  0  0  0  0  0  0  0  0  0  0
  -30.5255  -12.4032   18.3203 O   0  0  0  0  0  0  0  0  0  0  0  0
  -25.2157  -30.9775   23.0278 O   0  0  0  0  0  0  0  0  0  0  0  0
  -21.3681  -31.4838   21.6025 O   0  0  0  0  0  0  0  0  0  0  0  0
  -20.8560  -26.7746   21.3172 O   0  0  0  0  0  0  0  0  0  0  0  0
  -32.1080  -20.7224   23.3063 O   0  0  0  0  0  0  0  0  0  0  0  0
  -23.2857  -12.4542   21.1784 O   0  0  0  0  0  0  0  0  0  0  0  0
  -27.5690  -25.7581   20.8132 O   0  0  0  0  0  0  0  0  0  1  0  0
  -22.4112   -7.0101   21.1995 F   0  0  0  0  0  0  0  0  0  0  0  0
  -24.1010  -10.8786   19.0582 F   0  0  0  0  0  0  0  0  0  0  0  0
  1  2  1  0  0  0  0
  1  5  2  0  0  0  0
  2  6  2  0  0  0  0
  3 12  2  0  0  0  0
  3 19  1  0  0  0  0
  4 13  1  0  0  0  0
  4 19  2  0  0  0  0
  5 21  1  0  0  0  0
  6 23  1  0  0  0  0
  7 14  2  0  0  0  0
  7 22  1  0  0  0  0
  8 10  2  0  0  0  0
  8 25  1  0  0  0  0
  9 11  1  0  0  0  0
  9 25  2  0  0  0  0
 10 26  1  0  0  0  0
 11 26  2  0  0  0  0
 12 27  1  0  0  0  0
 13 27  2  0  0  0  0
 14 28  1  0  0  0  0
 15 16  2  0  0  0  0
 15 29  1  0  0  0  0
 16 30  1  0  0  0  0
 17 24  1  0  0  0  0
 17 28  2  0  0  0  0
 18 30  2  0  0  0  0
 18 31  1  0  0  0  0
 19 32  1  0  0  0  0
 20 32  1  0  0  0  0
 20 33  2  0  0  0  0
 20 34  1  0  0  0  0
 21 23  2  0  0  0  0
 21 39  1  0  0  0  0
 22 24  2  0  0  0  0
 22 40  1  0  0  0  0
 23 48  1  0  0  0  0
 24 41  1  0  0  0  0
 25 56  1  0  0  0  0
 26 66  1  0  0  0  0
 27 75  1  0  0  0  0
 28 76  1  0  0  0  0
 29 31  2  0  0  0  0
 29 75  1  0  0  0  0
 30 77  1  0  0  0  0
 31 78  1  0  0  0  0
 32 60  2  0  0  0  0
 33 61  1  0  0  0  0
 33 64  1  0  0  0  0
 34 65  1  0  0  0  0
 34 70  2  0  0  0  0
 35 49  1  0  0  0  0
 35 67  1  0  0  0  0
 35 71  2  0  0  0  0
 36 57  1  0  0  0  0
 36 62  1  0  0  0  0
 36 72  2  0  0  0  0
 37 58  1  0  0  0  0
 37 68  1  0  0  0  0
 37 73  2  0  0  0  0
 38 63  1  0  0  0  0
 38 66  1  0  0  0  0
 38 74  2  0  0  0  0
 39 42  1  0  0  0  0
 40 49  1  0  0  0  0
 41 62  1  0  0  0  0
 42 44  1  0  0  0  0
 43 45  1  0  0  0  0
 43 46  1  0  0  0  0
 44 48  1  0  0  0  0
 45 50  1  0  0  0  0
 46 63  1  0  0  0  0
 47 50  1  0  0  0  0
 47 63  1  0  0  0  0
 48 67  1  0  0  0  0
 49 62  1  0  0  0  0
 50 61  1  0  0  0  0
 51 58  1  0  0  0  0
 52 59  1  0  0  0  0
 53 59  1  0  0  0  0
 54 59  1  0  0  0  0
 55 69  1  0  0  0  0
 56 76  1  0  0  0  0
 57 59  1  0  0  0  0
 57 68  1  0  0  0  0
 58 69  1  0  0  0  0
 60 61  1  0  0  0  0
M  CHG  1  69   1
M  ISO  4  38 100  56 101  66 100  76 101
M  END
> <Batch ID>
0003

> <Smiles>
CNC(C)C(=O)NC(C(=O)N1Cc2cc([101O:1][101CH2:1]c3ccc([100NH:0][100C:0](=O)N4CCCC(n5nc(-c6ccc(Oc7ccc(F)cc7F)cc6)c(C(N)=O)c5N)C4)cc3)ccc2CC1C(=O)NC1CCCc2ccccc21)C(C)(C)C

> <Shape>
0.340

> <Color>
0.078

> <Negative vol penalty>
0.000

$$$$

  -OEChem-04042320203D

 83 91  0     1  0  0  0  0  0999 V2000
  -28.8968  -36.7713   23.2341 C   0  0  0  0  0  0  0  0  0  0  0  0
  -29.2057  -35.4610   22.8833 C   0  0  0  0  0  0  0  0  0  0  0  0
  -24.3449   -9.7275   22.0319 C   0  0  0  0  0  0  0  0  0  0  0  0
  -24.8515  -11.3171   23.7793 C   0  0  0  0  0  0  0  0  0  0  0  0
  -29.9710  -20.7745   19.1380 C   0  0  0  0  0  0  0  0  0  0  0  0
  -27.6835  -37.0570   23.8589 C   0  0  0  0  0  0  0  0  0  0  0  0
  -28.3019  -34.4353   23.1582 C   0  0  0  0  0  0  0  0  0  0  0  0
  -27.2679  -29.4351   19.7767 C   0  0  0  0  0  0  0  0  0  0  0  0
  -29.8208  -19.3960   18.9871 C   0  0  0  0  0  0  0  0  0  0  0  0
  -24.0821   -8.7529   22.9945 C   0  0  0  0  0  0  0  0  0  0  0  0
  -24.5887  -10.3425   24.7420 C   0  0  0  0  0  0  0  0  0  0  0  0
  -27.7279  -28.1229   19.8777 C   0  0  0  0  0  0  0  0  0  0  0  0
  -21.5556   -7.9373   25.0884 C   0  0  0  0  0  0  0  0  0  0  0  0
  -20.4113   -7.1566   24.9250 C   0  0  0  0  0  0  0  0  0  0  0  0
  -27.5921  -20.9943   19.4980 C   0  0  0  0  0  0  0  0  0  0  0  0
  -25.7165  -27.5154   21.0629 C   0  0  0  0  0  0  0  0  0  0  0  0
  -21.7806   -5.1680   24.8372 C   0  0  0  0  0  0  0  0  0  0  0  0
  -24.7297  -11.0096   22.4243 C   0  0  0  0  0  0  0  0  0  0  0  0
  -28.8566  -21.5737   19.3935 C   0  0  0  0  0  0  0  0  0  0  0  0
  -27.4419  -19.6158   19.3471 C   0  0  0  0  0  0  0  0  0  0  0  0
  -24.0858  -12.9262   20.8687 C   0  0  0  0  0  0  0  0  0  0  0  0
  -26.7603  -36.0357   24.1328 C   0  0  0  0  0  0  0  0  0  0  0  0
  -26.0316  -29.8004   20.3285 C   0  0  0  0  0  0  0  0  0  0  0  0
  -27.0757  -34.7074   23.7885 C   0  0  0  0  0  0  0  0  0  0  0  0
  -25.2420  -28.8324   20.9653 C   0  0  0  0  0  0  0  0  0  0  0  0
  -28.5563  -18.8167   19.0916 C   0  0  0  0  0  0  0  0  0  0  0  0
  -24.2040   -9.0604   24.3496 C   0  0  0  0  0  0  0  0  0  0  0  0
  -26.9535  -27.1635   20.5233 C   0  0  0  0  0  0  0  0  0  0  0  0
  -22.8124   -7.3334   25.1262 C   0  0  0  0  0  0  0  0  0  0  0  0
  -20.5238   -5.7720   24.7994 C   0  0  0  0  0  0  0  0  0  0  0  0
  -22.9249   -5.9487   25.0006 C   0  0  0  0  0  0  0  0  0  0  0  0
  -25.0018  -12.0166   21.4303 C   0  0  0  0  0  0  0  0  0  0  0  0
  -24.8331  -13.6632   19.9828 C   0  0  0  0  0  0  0  0  0  0  0  0
  -29.0158  -23.0289   19.5524 C   0  0  0  0  0  0  0  0  0  0  0  0
  -28.0335  -23.9340   19.4211 C   0  0  0  0  0  0  0  0  0  0  0  0
  -26.1069  -19.0410   19.4623 C   0  0  0  0  0  0  0  0  0  0  0  0
  -22.6847  -13.0903   21.1250 C   0  0  0  0  0  0  0  0  0  0  0  0
  -25.0966  -31.8250   22.5937 C   0  0  0  0  0  0  0  0  0  0  0  0
  -22.1329  -30.9710   21.5887 C   0  0  0  0  0  0  0  0  0  0  0  0
  -20.1495  -28.6579   20.0517 C   0  0  0  0  0  0  0  0  0  0  0  0
  -29.4458  -16.4962   18.6789 C   0  0  0  0  0  0  0  0  0  0  0  0
  -25.4821  -36.3864   24.8525 C   0  0  0  0  0  0  0  0  0  0  0  0
  -25.5375  -31.2141   20.1877 C   0  0  0  0  0  0  0  0  0  0  0  0
  -23.8983  -29.1688   21.5567 C   0  0  0  0  0  0  0  0  0  0  0  0
  -24.4177  -35.2952   24.7704 C   0  0  0  0  0  0  0  0  0  0  0  0
  -29.5421  -12.9612   18.2642 C   0  0  0  0  0  0  0  0  0  0  0  0
  -25.0280  -33.9303   25.0725 C   0  0  0  0  0  0  0  0  0  0  0  0
  -28.2941  -12.4752   19.0047 C   0  0  0  0  0  0  0  0  0  0  0  0
  -30.1968  -14.1457   18.9728 C   0  0  0  0  0  0  0  0  0  0  0  0
  -28.0506  -14.7857   19.9993 C   0  0  0  0  0  0  0  0  0  0  0  0
  -26.1106  -33.5710   24.0477 C   0  0  1  0  0  0  0  0  0  0  0  0
  -24.4956  -31.5902   21.2367 C   0  0  1  0  0  0  0  0  0  0  0  0
  -27.3196  -13.6351   19.2883 C   0  0  2  0  0  0  0  0  0  0  0  0
  -17.7621  -28.2234   19.4125 C   0  0  0  0  0  0  0  0  0  0  0  0
  -21.4841  -30.2826   24.4896 C   0  0  0  0  0  0  0  0  0  0  0  0
  -19.4988  -28.9976   23.6676 C   0  0  0  0  0  0  0  0  0  0  0  0
  -19.6484  -31.4540   23.2598 C   0  0  0  0  0  0  0  0  0  0  0  0
  -20.8187  -28.5512   17.1708 C   0  0  0  0  0  0  0  0  0  0  0  0
  -28.2467  -25.4054   19.5785 C   0  0  0  0  0  0  0  0  0  1  0  0
  -21.1489  -29.8881   21.9602 C   0  0  1  0  0  0  0  0  0  0  0  0
  -19.0984  -28.7951   18.9651 C   0  0  2  0  0  0  0  0  0  0  0  0
  -20.4712  -30.1493   23.3350 C   0  0  0  0  0  0  0  0  0  0  0  0
  -26.2366  -12.1606   20.9419 N   0  0  0  0  0  0  0  0  0  0  0  0
  -26.1018  -13.1693   20.0641 N   0  0  0  0  0  0  0  0  0  0  0  0
  -23.4618  -30.5660   21.3990 N   0  0  0  0  0  0  0  0  0  0  0  0
  -29.2148  -15.2073   19.2044 N   0  0  0  0  0  0  0  0  0  0  0  0
  -24.5221  -14.6791   19.1499 N   0  0  0  0  0  0  0  0  0  0  0  0
  -25.6869  -18.6360   20.7241 N   0  0  0  0  0  0  0  0  0  0  0  0
  -22.0746  -12.2494   22.0658 N   0  0  0  0  0  0  0  0  0  0  0  0
  -28.4279  -17.4142   18.9352 N   0  0  0  0  0  0  0  0  0  0  0  0
  -25.5070  -33.1267   22.8097 N   0  0  0  0  0  0  0  0  0  0  0  0
  -20.2153  -29.7846   20.8439 N   0  0  0  0  0  0  0  0  0  0  0  0
  -19.5292  -28.0746   17.7337 N   0  3  0  0  0  0  0  0  0  0  0  0
  -25.3770  -18.9019   18.4675 O   0  0  0  0  0  0  0  0  0  0  0  0
  -21.9908  -13.9460   20.5253 O   0  0  0  0  0  0  0  0  0  0  0  0
  -25.1803  -30.8944   23.3866 O   0  0  0  0  0  0  0  0  0  0  0  0
  -21.7358  -32.1322   21.4643 O   0  0  0  0  0  0  0  0  0  0  0  0
  -20.8404  -27.6504   20.1867 O   0  0  0  0  0  0  0  0  0  0  0  0
  -30.4584  -16.7584   18.0248 O   0  0  0  0  0  0  0  0  0  0  0  0
  -23.9475   -8.1097   25.2893 O   0  0  0  0  0  0  0  0  0  0  0  0
  -27.4004  -25.8820   20.6239 O   0  0  0  0  0  0  0  0  0  1  0  0
  -19.4247   -5.0223   24.6440 F   0  0  0  0  0  0  0  0  0  0  0  0
  -24.1295   -5.3627   25.0373 F   0  0  0  0  0  0  0  0  0  0  0  0
  1  2  1  0  0  0  0
  1  6  2  0  0  0  0
  2  7  2  0  0  0  0
  3 10  2  0  0  0  0
  3 18  1  0  0  0  0
  4 11  1  0  0  0  0
  4 18  2  0  0  0  0
  5  9  2  0  0  0  0
  5 19  1  0  0  0  0
  6 22  1  0  0  0  0
  7 24  1  0  0  0  0
  8 12  2  0  0  0  0
  8 23  1  0  0  0  0
  9 26  1  0  0  0  0
 10 27  1  0  0  0  0
 11 27  2  0  0  0  0
 12 28  1  0  0  0  0
 13 14  2  0  0  0  0
 13 29  1  0  0  0  0
 14 30  1  0  0  0  0
 15 19  2  0  0  0  0
 15 20  1  0  0  0  0
 16 25  1  0  0  0  0
 16 28  2  0  0  0  0
 17 30  2  0  0  0  0
 17 31  1  0  0  0  0
 18 32  1  0  0  0  0
 19 34  1  0  0  0  0
 20 26  2  0  0  0  0
 20 36  1  0  0  0  0
 21 32  1  0  0  0  0
 21 33  2  0  0  0  0
 21 37  1  0  0  0  0
 22 24  2  0  0  0  0
 22 42  1  0  0  0  0
 23 25  2  0  0  0  0
 23 43  1  0  0  0  0
 24 51  1  0  0  0  0
 25 44  1  0  0  0  0
 26 70  1  0  0  0  0
 27 80  1  0  0  0  0
 28 81  1  0  0  0  0
 29 31  2  0  0  0  0
 29 80  1  0  0  0  0
 30 82  1  0  0  0  0
 31 83  1  0  0  0  0
 32 63  2  0  0  0  0
 33 64  1  0  0  0  0
 33 67  1  0  0  0  0
 34 35  2  0  0  0  0
 35 59  1  0  0  0  0
 36 68  1  0  0  0  0
 36 74  2  0  0  0  0
 37 69  1  0  0  0  0
 37 75  2  0  0  0  0
 38 52  1  0  0  0  0
 38 71  1  0  0  0  0
 38 76  2  0  0  0  0
 39 60  1  0  0  0  0
 39 65  1  0  0  0  0
 39 77  2  0  0  0  0
 40 61  1  0  0  0  0
 40 72  1  0  0  0  0
 40 78  2  0  0  0  0
 41 66  1  0  0  0  0
 41 70  1  0  0  0  0
 41 79  2  0  0  0  0
 42 45  1  0  0  0  0
 43 52  1  0  0  0  0
 44 65  1  0  0  0  0
 45 47  1  0  0  0  0
 46 48  1  0  0  0  0
 46 49  1  0  0  0  0
 47 51  1  0  0  0  0
 48 53  1  0  0  0  0
 49 66  1  0  0  0  0
 50 53  1  0  0  0  0
 50 66  1  0  0  0  0
 51 71  1  0  0  0  0
 52 65  1  0  0  0  0
 53 64  1  0  0  0  0
 54 61  1  0  0  0  0
 55 62  1  0  0  0  0
 56 62  1  0  0  0  0
 57 62  1  0  0  0  0
 58 73  1  0  0  0  0
 59 81  1  0  0  0  0
 60 62  1  0  0  0  0
 60 72  1  0  0  0  0
 61 73  1  0  0  0  0
 63 64  1  0  0  0  0
M  CHG  1  73   1
M  ISO  4  41 100  59 101  70 100  81 101
M  END
> <Batch ID>
0003

> <Smiles>
CNC(C)C(=O)NC(C(=O)N1Cc2cc([101O:1][101CH2:1]C=Cc3ccc([100NH:0][100C:0](=O)N4CCCC(n5nc(-c6ccc(Oc7ccc(F)cc7F)cc6)c(C(N)=O)c5N)C4)c(C(N)=O)c3)ccc2CC1C(=O)NC1CCCc2ccccc21)C(C)(C)C

> <Shape>
0.320

> <Color>
0.104

> <Negative vol penalty>
0.000

$$$$

  -OEChem-04042320203D

103112  0     1  0  0  0  0  0999 V2000
  -31.3207  -38.9838   22.9578 C   0  0  0  0  0  0  0  0  0  0  0  0
  -31.4584  -37.8217   22.2056 C   0  0  0  0  0  0  0  0  0  0  0  0
  -23.3125   -9.6383   19.8641 C   0  0  0  0  0  0  0  0  0  0  0  0
  -23.9662   -9.7211   22.1885 C   0  0  0  0  0  0  0  0  0  0  0  0
  -30.7407  -38.9283   24.2245 C   0  0  0  0  0  0  0  0  0  0  0  0
  -31.0172  -36.6031   22.7200 C   0  0  0  0  0  0  0  0  0  0  0  0
  -21.9970  -22.0503   14.8387 C   0  0  0  0  0  0  0  0  0  0  0  0
  -28.5504  -31.9587   19.5816 C   0  0  0  0  0  0  0  0  0  0  0  0
  -23.2555  -22.0873   15.4383 C   0  0  0  0  0  0  0  0  0  0  0  0
  -22.6730   -8.4190   20.0873 C   0  0  0  0  0  0  0  0  0  0  0  0
  -23.3267   -8.5017   22.4118 C   0  0  0  0  0  0  0  0  0  0  0  0
  -29.0870  -30.7701   19.0884 C   0  0  0  0  0  0  0  0  0  0  0  0
  -20.1670   -7.3966   22.8765 C   0  0  0  0  0  0  0  0  0  0  0  0
  -19.3665   -7.2850   24.0133 C   0  0  0  0  0  0  0  0  0  0  0  0
  -22.2204  -22.5063   17.5769 C   0  0  0  0  0  0  0  0  0  0  0  0
  -28.3140  -29.6110   21.0578 C   0  0  0  0  0  0  0  0  0  0  0  0
  -20.7553   -5.4772   24.8137 C   0  0  0  0  0  0  0  0  0  0  0  0
  -23.9592  -10.2894   20.9147 C   0  0  0  0  0  0  0  0  0  0  0  0
  -24.0609  -12.8356   20.7964 C   0  0  0  0  0  0  0  0  0  0  0  0
  -30.2834  -37.7099   24.7508 C   0  0  0  0  0  0  0  0  0  0  0  0
  -20.8359  -22.2488   15.6010 C   0  0  0  0  0  0  0  0  0  0  0  0
  -27.9001  -31.9846   20.8237 C   0  0  0  0  0  0  0  0  0  0  0  0
  -30.4318  -36.5309   23.9955 C   0  0  0  0  0  0  0  0  0  0  0  0
  -20.9478  -22.4610   16.9877 C   0  0  0  0  0  0  0  0  0  0  0  0
  -27.7678  -30.8007   21.5633 C   0  0  0  0  0  0  0  0  0  0  0  0
  -23.3673  -22.3176   16.8063 C   0  0  0  0  0  0  0  0  0  0  0  0
  -22.6800   -7.8507   21.3612 C   0  0  0  0  0  0  0  0  0  0  0  0
  -28.9713  -29.5967   19.8278 C   0  0  0  0  0  0  0  0  0  0  0  0
  -21.2616   -6.5484   22.7082 C   0  0  0  0  0  0  0  0  0  0  0  0
  -19.6606   -6.3253   24.9819 C   0  0  0  0  0  0  0  0  0  0  0  0
  -21.5557   -5.5888   23.6768 C   0  0  0  0  0  0  0  0  0  0  0  0
  -24.6205  -11.5487   20.6846 C   0  0  0  0  0  0  0  0  0  0  0  0
  -25.0907  -13.6866   20.4773 C   0  0  0  0  0  0  0  0  0  0  0  0
  -22.7294  -13.2268   21.1565 C   0  0  0  0  0  0  0  0  0  0  0  0
  -28.4037  -33.4692   23.5888 C   0  0  0  0  0  0  0  0  0  0  0  0
  -25.5488  -32.1442   24.3739 C   0  0  0  0  0  0  0  0  0  0  0  0
  -25.5384  -24.7005   17.2073 C   0  0  0  0  0  0  0  0  0  0  0  0
  -23.2541  -29.6763   23.8349 C   0  0  0  0  0  0  0  0  0  0  0  0
  -30.4369  -15.2306   20.9004 C   0  0  0  0  0  0  0  0  0  0  0  0
  -29.7062  -37.6920   26.1441 C   0  0  0  0  0  0  0  0  0  0  0  0
  -19.4915  -22.1679   14.9220 C   0  0  0  0  0  0  0  0  0  0  0  0
  -27.3033  -33.2693   21.3294 C   0  0  0  0  0  0  0  0  0  0  0  0
  -19.7332  -22.7028   17.8487 C   0  0  0  0  0  0  0  0  0  0  0  0
  -27.0611  -30.7711   22.8930 C   0  0  0  0  0  0  0  0  0  0  0  0
  -28.9237  -36.4206   26.4629 C   0  0  0  0  0  0  0  0  0  0  0  0
  -18.3583  -22.7647   15.7544 C   0  0  0  0  0  0  0  0  0  0  0  0
  -18.4287  -22.2590   17.1895 C   0  0  0  0  0  0  0  0  0  0  0  0
  -29.6410  -12.7449   18.4788 C   0  0  0  0  0  0  0  0  0  0  0  0
  -29.7070  -35.1875   26.0242 C   0  0  0  0  0  0  0  0  0  0  0  0
  -28.2208  -12.3142   18.8498 C   0  0  0  0  0  0  0  0  0  0  0  0
  -30.4787  -13.0545   19.7175 C   0  0  0  0  0  0  0  0  0  0  0  0
  -28.4559  -13.6000   21.0155 C   0  0  0  0  0  0  0  0  0  0  0  0
  -29.9429  -35.1940   24.5090 C   0  0  1  0  0  0  0  0  0  0  0  0
  -27.1125  -33.2845   22.8429 C   0  0  1  0  0  0  0  0  0  0  0  0
  -27.5561  -13.3309   19.7973 C   0  0  2  0  0  0  0  0  0  0  0  0
  -24.8642  -28.0041   20.2063 C   0  0  0  0  0  0  0  0  0  0  0  0
  -21.0981  -28.4120   24.0596 C   0  0  0  0  0  0  0  0  0  0  0  0
  -24.1579  -27.2964   16.4459 C   0  0  0  0  0  0  0  0  0  0  0  0
  -26.9104  -30.9788   26.8433 C   0  0  0  0  0  0  0  0  0  0  0  0
  -24.9684  -29.4183   27.0919 C   0  0  0  0  0  0  0  0  0  0  0  0
  -24.6138  -31.8826   27.2472 C   0  0  0  0  0  0  0  0  0  0  0  0
  -29.5605  -26.6831   16.0005 C   0  0  0  0  0  0  0  0  0  0  0  0
  -30.7127  -26.0616   18.1284 C   0  0  0  0  0  0  0  0  0  0  0  0
  -21.9666  -31.2617   21.6930 C   0  0  0  0  0  0  0  0  0  0  0  0
  -24.6482  -28.2330   18.7174 C   0  0  0  0  0  0  0  0  0  0  0  0
  -28.3836  -18.7041   21.0060 C   0  0  0  0  0  0  0  0  0  0  0  0
  -29.8944  -18.5000   21.1528 C   0  0  0  0  0  0  0  0  0  0  0  0
  -28.0688  -19.8245   20.0131 C   0  0  0  0  0  0  0  0  0  0  0  0
  -30.2405  -17.3788   22.1276 C   0  0  0  0  0  0  0  0  0  0  0  0
  -26.5668  -19.9989   19.8445 C   0  0  0  0  0  0  0  0  0  0  0  0
  -24.8720  -21.2903   18.5410 C   0  0  0  0  0  0  0  0  0  0  0  0
  -28.2256  -26.0829   18.0806 C   0  0  0  0  0  0  0  0  0  0  0  0
  -29.5445  -28.2811   17.9313 C   0  0  0  0  0  0  0  0  0  1  0  0
  -24.7338  -22.3629   17.4583 C   0  0  2  0  0  0  0  0  0  0  0  0
  -25.1103  -30.8412   24.9975 C   0  0  1  0  0  0  0  0  0  0  0  0
  -25.7310  -25.9893   17.9975 C   0  0  2  0  0  0  0  0  0  0  0  0
  -21.7482  -29.7241   23.6492 C   0  0  2  0  0  0  0  0  0  0  0  0
  -24.5071  -26.9314   17.8972 C   0  0  2  0  0  0  0  0  0  0  0  0
  -25.4158  -30.7808   26.5208 C   0  0  0  0  0  0  0  0  0  0  0  0
  -29.4877  -26.7891   17.5350 C   0  0  0  0  0  0  0  0  0  0  0  0
  -25.9059  -11.5750   20.3226 N   0  0  0  0  0  0  0  0  0  0  0  0
  -26.1626  -12.8888   20.2042 N   0  0  0  0  0  0  0  0  0  0  0  0
  -26.5000  -32.0540   23.3477 N   0  0  0  0  0  0  0  0  0  0  0  0
  -29.7929  -14.0260   20.5730 N   0  0  0  0  0  0  0  0  0  0  0  0
  -25.1747  -15.0321   20.4065 N   0  0  0  0  0  0  0  0  0  0  0  0
  -21.7959  -12.2245   21.4539 N   0  0  0  0  0  0  0  0  0  0  0  0
  -28.7423  -34.7907   23.8088 N   0  0  0  0  0  0  0  0  0  0  0  0
  -25.0029  -23.6819   17.9815 N   0  0  0  0  0  0  0  0  0  0  0  0
  -23.6987  -30.6839   24.6645 N   0  0  0  0  0  0  0  0  0  0  0  0
  -29.7144  -16.0981   21.7104 N   0  0  0  0  0  0  0  0  0  0  0  0
  -21.4104  -29.9899   22.2223 N   0  3  0  0  0  0  0  0  0  0  0  0
  -26.3099  -21.0647   18.8391 N   0  3  0  0  0  0  0  0  0  0  0  0
  -26.9736  -26.6766   17.5513 N   0  3  0  0  0  0  0  0  0  0  0  0
  -22.3733  -14.4289   21.1969 O   0  0  0  0  0  0  0  0  0  0  0  0
  -29.0445  -32.4855   23.9401 O   0  0  0  0  0  0  0  0  0  0  0  0
  -25.0599  -33.2024   24.7773 O   0  0  0  0  0  0  0  0  0  0  0  0
  -25.8368  -24.5988   16.0192 O   0  0  0  0  0  0  0  0  0  0  0  0
  -23.9645  -28.8275   23.3006 O   0  0  0  0  0  0  0  0  0  0  0  0
  -31.5696  -15.5145   20.4961 O   0  0  0  0  0  0  0  0  0  0  0  0
  -22.0559   -6.6610   21.5794 O   0  0  0  0  0  0  0  0  0  0  0  0
  -29.4947  -28.4353   19.3491 O   0  0  0  0  0  0  0  0  0  1  0  0
  -18.8928   -6.2193   26.0742 F   0  0  0  0  0  0  0  0  0  0  0  0
  -22.6067   -4.7720   23.5213 F   0  0  0  0  0  0  0  0  0  0  0  0
  1  2  1  0  0  0  0
  1  5  2  0  0  0  0
  2  6  2  0  0  0  0
  3 10  2  0  0  0  0
  3 18  1  0  0  0  0
  4 11  1  0  0  0  0
  4 18  2  0  0  0  0
  5 20  1  0  0  0  0
  6 23  1  0  0  0  0
  7  9  2  0  0  0  0
  7 21  1  0  0  0  0
  8 12  2  0  0  0  0
  8 22  1  0  0  0  0
  9 26  1  0  0  0  0
 10 27  1  0  0  0  0
 11 27  2  0  0  0  0
 12 28  1  0  0  0  0
 13 14  2  0  0  0  0
 13 29  1  0  0  0  0
 14 30  1  0  0  0  0
 15 24  1  0  0  0  0
 15 26  2  0  0  0  0
 16 25  1  0  0  0  0
 16 28  2  0  0  0  0
 17 30  2  0  0  0  0
 17 31  1  0  0  0  0
 18 32  1  0  0  0  0
 19 32  1  0  0  0  0
 19 33  2  0  0  0  0
 19 34  1  0  0  0  0
 20 23  2  0  0  0  0
 20 40  1  0  0  0  0
 21 24  2  0  0  0  0
 21 41  1  0  0  0  0
 22 25  2  0  0  0  0
 22 42  1  0  0  0  0
 23 53  1  0  0  0  0
 24 43  1  0  0  0  0
 25 44  1  0  0  0  0
 26 74  1  0  0  0  0
 27100  1  0  0  0  0
 28101  1  0  0  0  0
 29 31  2  0  0  0  0
 29100  1  0  0  0  0
 30102  1  0  0  0  0
 31103  1  0  0  0  0
 32 81  2  0  0  0  0
 33 82  1  0  0  0  0
 33 85  1  0  0  0  0
 34 86  1  0  0  0  0
 34 94  2  0  0  0  0
 35 54  1  0  0  0  0
 35 87  1  0  0  0  0
 35 95  2  0  0  0  0
 36 75  1  0  0  0  0
 36 83  1  0  0  0  0
 36 96  2  0  0  0  0
 37 76  1  0  0  0  0
 37 88  1  0  0  0  0
 37 97  2  0  0  0  0
 38 77  1  0  0  0  0
 38 89  1  0  0  0  0
 38 98  2  0  0  0  0
 39 84  1  0  0  0  0
 39 90  1  0  0  0  0
 39 99  2  0  0  0  0
 40 45  1  0  0  0  0
 41 46  1  0  0  0  0
 42 54  1  0  0  0  0
 43 47  1  0  0  0  0
 44 83  1  0  0  0  0
 45 49  1  0  0  0  0
 46 47  1  0  0  0  0
 48 50  1  0  0  0  0
 48 51  1  0  0  0  0
 49 53  1  0  0  0  0
 50 55  1  0  0  0  0
 51 84  1  0  0  0  0
 52 55  1  0  0  0  0
 52 84  1  0  0  0  0
 53 87  1  0  0  0  0
 54 83  1  0  0  0  0
 55 82  1  0  0  0  0
 56 65  1  0  0  0  0
 57 77  1  0  0  0  0
 58 78  1  0  0  0  0
 59 79  1  0  0  0  0
 60 79  1  0  0  0  0
 61 79  1  0  0  0  0
 62 80  1  0  0  0  0
 63 80  1  0  0  0  0
 64 91  1  0  0  0  0
 65 78  1  0  0  0  0
 66 67  1  0  0  0  0
 66 68  1  0  0  0  0
 67 69  1  0  0  0  0
 68 70  1  0  0  0  0
 69 90  1  0  0  0  0
 70 92  1  0  0  0  0
 71 74  1  0  0  0  0
 71 92  1  0  0  0  0
 72 80  1  0  0  0  0
 72 93  1  0  0  0  0
 73 80  1  0  0  0  0
 73101  1  0  0  0  0
 74 88  1  0  0  0  0
 75 79  1  0  0  0  0
 75 89  1  0  0  0  0
 76 78  1  0  0  0  0
 76 93  1  0  0  0  0
 77 91  1  0  0  0  0
 81 82  1  0  0  0  0
M  CHG  3  91   1  92   1  93   1
M  ISO  4  39 100  73 101  90 100 101 101
M  END
> <Batch ID>
0003

> <Smiles>
CCC(C)C(NCC(C)(C)[101CH2:1][101O:1]c1ccc2c(c1)CN(C(=O)C(NC(=O)C(C)NC)C(C)(C)C)C(C(=O)NC1CCCc3ccccc31)C2)C(=O)NC(CNCCCCC[100NH:0][100C:0](=O)N1CCCC(n2nc(-c3ccc(Oc4ccc(F)cc4F)cc3)c(C(N)=O)c2N)C1)c1ccc2c(c1)CCCC2

> <Shape>
0.314

> <Color>
0.172

> <Negative vol penalty>
0.000

$$$$

  -OEChem-04042320203D

 78 86  0     1  0  0  0  0  0999 V2000
  -18.7570  -27.7116   26.2306 C   0  0  0  0  0  0  0  0  0  0  0  0
  -20.1246  -27.4788   26.1271 C   0  0  0  0  0  0  0  0  0  0  0  0
  -25.9928  -13.4467   22.0115 C   0  0  0  0  0  0  0  0  0  0  0  0
  -24.6837  -13.1658   20.0004 C   0  0  0  0  0  0  0  0  0  0  0  0
  -18.0015  -27.9429   25.0818 C   0  0  0  0  0  0  0  0  0  0  0  0
  -20.7374  -27.4760   24.8746 C   0  0  0  0  0  0  0  0  0  0  0  0
  -26.3906  -29.4150   23.5376 C   0  0  0  0  0  0  0  0  0  0  0  0
  -25.2757  -12.4178   22.6220 C   0  0  0  0  0  0  0  0  0  0  0  0
  -23.9666  -12.1368   20.6109 C   0  0  0  0  0  0  0  0  0  0  0  0
  -27.5977  -28.7391   23.3649 C   0  0  0  0  0  0  0  0  0  0  0  0
  -22.0333   -9.1938   21.5157 C   0  0  0  0  0  0  0  0  0  0  0  0
  -21.8059   -8.0332   20.7761 C   0  0  0  0  0  0  0  0  0  0  0  0
  -27.2374  -28.7174   20.9798 C   0  0  0  0  0  0  0  0  0  0  0  0
  -24.1896   -7.6982   20.5691 C   0  0  0  0  0  0  0  0  0  0  0  0
  -25.6968  -13.8207   20.7007 C   0  0  0  0  0  0  0  0  0  0  0  0
  -27.6199  -14.7652   19.3159 C   0  0  0  0  0  0  0  0  0  0  0  0
  -18.6070  -27.9525   23.8154 C   0  0  0  0  0  0  0  0  0  0  0  0
  -25.5912  -29.7381   22.4317 C   0  0  0  0  0  0  0  0  0  0  0  0
  -19.9891  -27.7063   23.7077 C   0  0  0  0  0  0  0  0  0  0  0  0
  -26.0218  -29.3996   21.1409 C   0  0  0  0  0  0  0  0  0  0  0  0
  -24.2626  -11.7628   21.9217 C   0  0  0  0  0  0  0  0  0  0  0  0
  -28.0199  -28.3876   22.0861 C   0  0  0  0  0  0  0  0  0  0  0  0
  -23.3388   -9.6066   21.7819 C   0  0  0  0  0  0  0  0  0  0  0  0
  -22.8841   -7.2854   20.3028 C   0  0  0  0  0  0  0  0  0  0  0  0
  -24.4170   -8.8588   21.3087 C   0  0  0  0  0  0  0  0  0  0  0  0
  -26.4368  -14.8839   20.0697 C   0  0  0  0  0  0  0  0  0  0  0  0
  -27.9185  -16.0522   18.9407 C   0  0  0  0  0  0  0  0  0  0  0  0
  -28.3807  -13.5960   18.9845 C   0  0  0  0  0  0  0  0  0  0  0  0
  -22.6566  -28.9678   21.4838 C   0  0  0  0  0  0  0  0  0  0  0  0
  -23.2577  -31.1453   19.1557 C   0  0  0  0  0  0  0  0  0  0  0  0
  -25.5665  -32.8331   17.2936 C   0  0  0  0  0  0  0  0  0  0  0  0
  -28.4985  -21.3003   19.9110 C   0  0  0  0  0  0  0  0  0  0  0  0
  -17.7410  -28.1602   22.5982 C   0  0  0  0  0  0  0  0  0  0  0  0
  -24.3047  -30.4910   22.6327 C   0  0  0  0  0  0  0  0  0  0  0  0
  -25.2100  -29.7414   19.9191 C   0  0  0  0  0  0  0  0  0  0  0  0
  -18.5319  -28.5121   21.3408 C   0  0  0  0  0  0  0  0  0  0  0  0
  -25.1981  -20.2976   19.2436 C   0  0  0  0  0  0  0  0  0  0  0  0
  -19.7295  -27.5803   21.1853 C   0  0  0  0  0  0  0  0  0  0  0  0
  -25.3180  -18.7770   19.3394 C   0  0  0  0  0  0  0  0  0  0  0  0
  -26.0151  -21.0065   20.3253 C   0  0  0  0  0  0  0  0  0  0  0  0
  -27.6342  -23.3253   21.1668 C   0  0  0  0  0  0  0  0  0  0  0  0
  -29.3400  -23.5722   19.4012 C   0  0  0  0  0  0  0  0  0  0  0  0
  -27.5569  -19.0770   20.4634 C   0  0  0  0  0  0  0  0  0  0  0  0
  -28.5611  -24.0036   22.1704 C   0  0  0  0  0  0  0  0  0  0  0  0
  -30.2994  -24.2291   20.3802 C   0  0  0  0  0  0  0  0  0  0  0  0
  -20.6945  -27.7199   22.3689 C   0  0  1  0  0  0  0  0  0  0  0  0
  -23.3227  -30.3147   21.4785 C   0  0  1  0  0  0  0  0  0  0  0  0
  -26.7933  -18.3391   19.3529 C   0  0  1  0  0  0  0  0  0  0  0  0
  -25.7543  -34.5181   15.4435 C   0  0  0  0  0  0  0  0  0  0  0  0
  -22.5071  -28.9954   17.1248 C   0  0  0  0  0  0  0  0  0  0  0  0
  -23.6032  -30.3845   15.3536 C   0  0  0  0  0  0  0  0  0  0  0  0
  -21.6345  -31.2790   16.5973 C   0  0  0  0  0  0  0  0  0  0  0  0
  -27.0154  -34.7458   19.0259 C   0  0  0  0  0  0  0  0  0  0  0  0
  -30.3853  -25.6899   22.4015 C   0  0  0  0  0  0  0  0  0  0  0  0
  -29.6219  -26.8691   22.9714 C   0  0  0  0  0  0  0  0  0  1  0  0
  -23.8643  -31.0936   17.7743 C   0  0  1  0  0  0  0  0  0  0  0  0
  -25.7008  -34.3052   16.9484 C   0  0  2  0  0  0  0  0  0  0  0  0
  -22.9169  -30.4298   16.7355 C   0  0  0  0  0  0  0  0  0  0  0  0
  -26.0129  -16.1466   20.1685 N   0  0  0  0  0  0  0  0  0  0  0  0
  -26.9347  -16.8332   19.4721 N   0  0  0  0  0  0  0  0  0  0  0  0
  -23.9566  -30.4724   20.1680 N   0  0  0  0  0  0  0  0  0  0  0  0
  -27.4042  -20.5271   20.3267 N   0  0  0  0  0  0  0  0  0  0  0  0
  -28.4023  -22.6882   20.0903 N   0  0  0  0  0  0  0  0  0  0  0  0
  -28.9241  -16.5807   18.2115 N   0  0  0  0  0  0  0  0  0  0  0  0
  -27.9324  -12.3527   19.4509 N   0  0  0  0  0  0  0  0  0  0  0  0
  -21.4947  -28.9177   22.2300 N   0  0  0  0  0  0  0  0  0  0  0  0
  -24.2471  -32.4623   17.4451 N   0  0  0  0  0  0  0  0  0  0  0  0
  -29.4992  -24.9397   21.4469 N   0  3  0  0  0  0  0  0  0  0  0  0
  -26.9449  -34.8663   17.5469 N   0  3  0  0  0  0  0  0  0  0  0  0
  -29.4361  -13.6541   18.3091 O   0  0  0  0  0  0  0  0  0  0  0  0
  -23.1588  -28.0430   20.8559 O   0  0  0  0  0  0  0  0  0  0  0  0
  -22.2063  -31.7660   19.3317 O   0  0  0  0  0  0  0  0  0  0  0  0
  -26.5350  -32.0859   17.4130 O   0  0  0  0  0  0  0  0  0  0  0  0
  -29.5034  -20.7806   19.4095 O   0  0  0  0  0  0  0  0  0  0  0  0
  -23.5629  -10.7586   22.5170 O   0  0  0  0  0  0  0  0  0  0  0  0
  -29.2058  -27.7226   21.9135 O   0  0  0  0  0  0  0  0  0  1  0  0
  -22.6656   -6.1701   19.5939 F   0  0  0  0  0  0  0  0  0  0  0  0
  -25.6734   -9.2498   21.5623 F   0  0  0  0  0  0  0  0  0  0  0  0
  1  2  1  0  0  0  0
  1  5  2  0  0  0  0
  2  6  2  0  0  0  0
  3  8  2  0  0  0  0
  3 15  1  0  0  0  0
  4  9  1  0  0  0  0
  4 15  2  0  0  0  0
  5 17  1  0  0  0  0
  6 19  1  0  0  0  0
  7 10  2  0  0  0  0
  7 18  1  0  0  0  0
  8 21  1  0  0  0  0
  9 21  2  0  0  0  0
 10 22  1  0  0  0  0
 11 12  2  0  0  0  0
 11 23  1  0  0  0  0
 12 24  1  0  0  0  0
 13 20  1  0  0  0  0
 13 22  2  0  0  0  0
 14 24  2  0  0  0  0
 14 25  1  0  0  0  0
 15 26  1  0  0  0  0
 16 26  1  0  0  0  0
 16 27  2  0  0  0  0
 16 28  1  0  0  0  0
 17 19  2  0  0  0  0
 17 33  1  0  0  0  0
 18 20  2  0  0  0  0
 18 34  1  0  0  0  0
 19 46  1  0  0  0  0
 20 35  1  0  0  0  0
 21 75  1  0  0  0  0
 22 76  1  0  0  0  0
 23 25  2  0  0  0  0
 23 75  1  0  0  0  0
 24 77  1  0  0  0  0
 25 78  1  0  0  0  0
 26 59  2  0  0  0  0
 27 60  1  0  0  0  0
 27 64  1  0  0  0  0
 28 65  1  0  0  0  0
 28 70  2  0  0  0  0
 29 47  1  0  0  0  0
 29 66  1  0  0  0  0
 29 71  2  0  0  0  0
 30 56  1  0  0  0  0
 30 61  1  0  0  0  0
 30 72  2  0  0  0  0
 31 57  1  0  0  0  0
 31 67  1  0  0  0  0
 31 73  2  0  0  0  0
 32 62  1  0  0  0  0
 32 63  1  0  0  0  0
 32 74  2  0  0  0  0
 33 36  1  0  0  0  0
 34 47  1  0  0  0  0
 35 61  1  0  0  0  0
 36 38  1  0  0  0  0
 37 39  1  0  0  0  0
 37 40  1  0  0  0  0
 38 46  1  0  0  0  0
 39 48  1  0  0  0  0
 40 62  1  0  0  0  0
 41 44  1  0  0  0  0
 41 63  1  0  0  0  0
 42 45  1  0  0  0  0
 42 63  1  0  0  0  0
 43 48  1  0  0  0  0
 43 62  1  0  0  0  0
 44 68  1  0  0  0  0
 45 68  1  0  0  0  0
 46 66  1  0  0  0  0
 47 61  1  0  0  0  0
 48 60  1  0  0  0  0
 49 57  1  0  0  0  0
 50 58  1  0  0  0  0
 51 58  1  0  0  0  0
 52 58  1  0  0  0  0
 53 69  1  0  0  0  0
 54 55  1  0  0  0  0
 54 68  1  0  0  0  0
 55 76  1  0  0  0  0
 56 58  1  0  0  0  0
 56 67  1  0  0  0  0
 57 69  1  0  0  0  0
 59 60  1  0  0  0  0
M  CHG  2  68   1  69   1
M  ISO  4  32 100  55 101  63 100  76 101
M  END
> <Batch ID>
0003

> <Smiles>
CNC(C)C(=O)NC(C(=O)N1Cc2cc([101O:1][101CH2:1]CN3CC[100N:0]([100C:0](=O)N4CCCC(n5nc(-c6ccc(Oc7ccc(F)cc7F)cc6)c(C(N)=O)c5N)C4)CC3)ccc2CC1C(=O)NC1CCCc2ccccc21)C(C)(C)C

> <Shape>
0.253

> <Color>
0.093

> <Negative vol penalty>
0.000

$$$$

  -OEChem-04042320203D

 84 92  0     1  0  0  0  0  0999 V2000
  -18.9068  -24.8797   21.3804 C   0  0  0  0  0  0  0  0  0  0  0  0
  -20.2957  -24.9305   21.4428 C   0  0  0  0  0  0  0  0  0  0  0  0
  -24.0307   -8.8358   21.4935 C   0  0  0  0  0  0  0  0  0  0  0  0
  -23.2949  -11.0142   20.7517 C   0  0  0  0  0  0  0  0  0  0  0  0
  -28.5524  -18.3420   19.1896 C   0  0  0  0  0  0  0  0  0  0  0  0
  -30.6680  -18.2875   20.3551 C   0  0  0  0  0  0  0  0  0  0  0  0
  -18.1776  -26.0448   21.1462 C   0  0  0  0  0  0  0  0  0  0  0  0
  -20.9563  -26.1463   21.2699 C   0  0  0  0  0  0  0  0  0  0  0  0
  -24.6332  -26.8613   24.6778 C   0  0  0  0  0  0  0  0  0  0  0  0
  -28.5875  -16.9536   19.0608 C   0  0  0  0  0  0  0  0  0  0  0  0
  -30.7031  -16.8990   20.2263 C   0  0  0  0  0  0  0  0  0  0  0  0
  -22.9342   -8.7578   22.3521 C   0  0  0  0  0  0  0  0  0  0  0  0
  -22.1984  -10.9362   21.6103 C   0  0  0  0  0  0  0  0  0  0  0  0
  -25.8352  -26.1867   24.4686 C   0  0  0  0  0  0  0  0  0  0  0  0
  -19.6336   -8.0611   22.1205 C   0  0  0  0  0  0  0  0  0  0  0  0
  -18.9190   -6.8636   22.1522 C   0  0  0  0  0  0  0  0  0  0  0  0
  -26.7990  -28.2000   23.5539 C   0  0  0  0  0  0  0  0  0  0  0  0
  -19.4157   -6.6295   24.5050 C   0  0  0  0  0  0  0  0  0  0  0  0
  -24.2111   -9.9641   20.6933 C   0  0  0  0  0  0  0  0  0  0  0  0
  -29.5927  -19.0090   19.8368 C   0  0  0  0  0  0  0  0  0  0  0  0
  -25.4091   -9.6121   18.4688 C   0  0  0  0  0  0  0  0  0  0  0  0
  -18.8291  -27.2771   20.9800 C   0  0  0  0  0  0  0  0  0  0  0  0
  -24.5014  -28.2097   24.3160 C   0  0  0  0  0  0  0  0  0  0  0  0
  -20.2352  -27.3287   21.0319 C   0  0  0  0  0  0  0  0  0  0  0  0
  -25.5950  -28.8902   23.7619 C   0  0  0  0  0  0  0  0  0  0  0  0
  -29.6629  -16.2321   19.5791 C   0  0  0  0  0  0  0  0  0  0  0  0
  -22.0180   -9.8080   22.4105 C   0  0  0  0  0  0  0  0  0  0  0  0
  -26.9174  -26.8552   23.9039 C   0  0  0  0  0  0  0  0  0  0  0  0
  -20.2394   -8.5428   23.2810 C   0  0  0  0  0  0  0  0  0  0  0  0
  -18.8100   -6.1478   23.3445 C   0  0  0  0  0  0  0  0  0  0  0  0
  -20.1304   -7.8270   24.4733 C   0  0  0  0  0  0  0  0  0  0  0  0
  -25.3439  -10.0455   19.8066 C   0  0  0  0  0  0  0  0  0  0  0  0
  -26.6899   -9.9109   18.0731 C   0  0  0  0  0  0  0  0  0  0  0  0
  -29.5554  -20.4878   19.9738 C   0  0  0  0  0  0  0  0  0  0  0  0
  -24.4018   -8.9948   17.6563 C   0  0  0  0  0  0  0  0  0  0  0  0
  -22.6695  -29.8155   22.2741 C   0  0  0  0  0  0  0  0  0  0  0  0
  -24.0715  -32.3966   23.6506 C   0  0  0  0  0  0  0  0  0  0  0  0
  -26.7274  -33.6796   25.3671 C   0  0  0  0  0  0  0  0  0  0  0  0
  -30.6896  -13.9548   19.9047 C   0  0  0  0  0  0  0  0  0  0  0  0
  -18.0008  -28.5018   20.6819 C   0  0  0  0  0  0  0  0  0  0  0  0
  -23.2064  -28.9304   24.5728 C   0  0  0  0  0  0  0  0  0  0  0  0
  -25.5114  -30.3433   23.3747 C   0  0  0  0  0  0  0  0  0  0  0  0
  -18.7574  -29.8124   20.8823 C   0  0  0  0  0  0  0  0  0  0  0  0
  -31.1231  -10.4220   19.8111 C   0  0  0  0  0  0  0  0  0  0  0  0
  -20.1364  -29.7371   20.2346 C   0  0  0  0  0  0  0  0  0  0  0  0
  -29.6967   -9.8853   19.6714 C   0  0  0  0  0  0  0  0  0  0  0  0
  -31.1794  -11.6556   20.7104 C   0  0  0  0  0  0  0  0  0  0  0  0
  -28.8318  -12.2006   20.1993 C   0  0  0  0  0  0  0  0  0  0  0  0
  -20.9867  -28.6327   20.8741 C   0  0  1  0  0  0  0  0  0  0  0  0
  -23.0236  -30.1628   23.6924 C   0  0  1  0  0  0  0  0  0  0  0  0
  -28.7152  -10.9966   19.2504 C   0  0  2  0  0  0  0  0  0  0  0  0
  -27.6064  -35.8300   26.3162 C   0  0  0  0  0  0  0  0  0  0  0  0
  -24.8457  -33.3152   20.8458 C   0  0  0  0  0  0  0  0  0  0  0  0
  -26.4864  -34.8916   21.8905 C   0  0  0  0  0  0  0  0  0  0  0  0
  -24.0488  -35.1403   22.3584 C   0  0  0  0  0  0  0  0  0  0  0  0
  -26.7302  -32.5976   28.1218 C   0  0  0  0  0  0  0  0  0  0  0  0
  -29.1344  -22.8743   22.2483 C   0  0  0  0  0  0  0  0  0  0  0  0
  -29.1884  -24.3688   22.5667 C   0  0  0  0  0  0  0  0  0  0  0  0
  -30.2769  -22.4284   21.3412 C   0  0  0  0  0  0  0  0  0  0  0  0
  -28.0158  -24.7976   23.4398 C   0  0  0  0  0  0  0  0  0  1  0  0
  -25.3164  -33.2071   23.3821 C   0  0  1  0  0  0  0  0  0  0  0  0
  -26.7983  -34.5719   26.5932 C   0  0  2  0  0  0  0  0  0  0  0  0
  -25.1756  -34.1107   22.1246 C   0  0  0  0  0  0  0  0  0  0  0  0
  -26.4920  -10.5788   20.2324 N   0  0  0  0  0  0  0  0  0  0  0  0
  -27.2908  -10.4825   19.1559 N   0  0  0  0  0  0  0  0  0  0  0  0
  -24.2220  -31.0027   23.6399 N   0  0  0  0  0  0  0  0  0  0  0  0
  -30.2264  -12.6671   20.2483 N   0  0  0  0  0  0  0  0  0  0  0  0
  -27.3497   -9.7378   16.9081 N   0  0  0  0  0  0  0  0  0  0  0  0
  -23.1403   -8.7597   18.2199 N   0  0  0  0  0  0  0  0  0  0  0  0
  -29.6974  -14.8216   19.4479 N   0  0  0  0  0  0  0  0  0  0  0  0
  -30.2406  -21.0193   21.0603 N   0  0  0  0  0  0  0  0  0  0  0  0
  -21.5109  -29.0729   22.1492 N   0  0  0  0  0  0  0  0  0  0  0  0
  -25.6020  -33.9364   24.6129 N   0  0  0  0  0  0  0  0  0  0  0  0
  -27.4353  -33.8443   27.7272 N   0  3  0  0  0  0  0  0  0  0  0  0
  -28.9221  -21.1504   19.1563 O   0  0  0  0  0  0  0  0  0  0  0  0
  -24.6193   -8.6465   16.4711 O   0  0  0  0  0  0  0  0  0  0  0  0
  -23.3930  -30.1945   21.3605 O   0  0  0  0  0  0  0  0  0  0  0  0
  -23.0062  -32.9789   23.8690 O   0  0  0  0  0  0  0  0  0  0  0  0
  -27.5865  -32.8415   25.1027 O   0  0  0  0  0  0  0  0  0  0  0  0
  -31.8832  -14.2571   19.9823 O   0  0  0  0  0  0  0  0  0  0  0  0
  -20.9478   -9.7321   23.2480 O   0  0  0  0  0  0  0  0  0  0  0  0
  -28.0916  -26.1990   23.6980 O   0  0  0  0  0  0  0  0  0  1  0  0
  -18.1225   -4.9987   23.3751 F   0  0  0  0  0  0  0  0  0  0  0  0
  -20.7091   -8.2854   25.5916 F   0  0  0  0  0  0  0  0  0  0  0  0
  1  2  1  0  0  0  0
  1  7  2  0  0  0  0
  2  8  2  0  0  0  0
  3 12  2  0  0  0  0
  3 19  1  0  0  0  0
  4 13  1  0  0  0  0
  4 19  2  0  0  0  0
  5 10  2  0  0  0  0
  5 20  1  0  0  0  0
  6 11  1  0  0  0  0
  6 20  2  0  0  0  0
  7 22  1  0  0  0  0
  8 24  1  0  0  0  0
  9 14  2  0  0  0  0
  9 23  1  0  0  0  0
 10 26  1  0  0  0  0
 11 26  2  0  0  0  0
 12 27  1  0  0  0  0
 13 27  2  0  0  0  0
 14 28  1  0  0  0  0
 15 16  2  0  0  0  0
 15 29  1  0  0  0  0
 16 30  1  0  0  0  0
 17 25  1  0  0  0  0
 17 28  2  0  0  0  0
 18 30  2  0  0  0  0
 18 31  1  0  0  0  0
 19 32  1  0  0  0  0
 20 34  1  0  0  0  0
 21 32  1  0  0  0  0
 21 33  2  0  0  0  0
 21 35  1  0  0  0  0
 22 24  2  0  0  0  0
 22 40  1  0  0  0  0
 23 25  2  0  0  0  0
 23 41  1  0  0  0  0
 24 49  1  0  0  0  0
 25 42  1  0  0  0  0
 26 70  1  0  0  0  0
 27 81  1  0  0  0  0
 28 82  1  0  0  0  0
 29 31  2  0  0  0  0
 29 81  1  0  0  0  0
 30 83  1  0  0  0  0
 31 84  1  0  0  0  0
 32 64  2  0  0  0  0
 33 65  1  0  0  0  0
 33 68  1  0  0  0  0
 34 71  1  0  0  0  0
 34 75  2  0  0  0  0
 35 69  1  0  0  0  0
 35 76  2  0  0  0  0
 36 50  1  0  0  0  0
 36 72  1  0  0  0  0
 36 77  2  0  0  0  0
 37 61  1  0  0  0  0
 37 66  1  0  0  0  0
 37 78  2  0  0  0  0
 38 62  1  0  0  0  0
 38 73  1  0  0  0  0
 38 79  2  0  0  0  0
 39 67  1  0  0  0  0
 39 70  1  0  0  0  0
 39 80  2  0  0  0  0
 40 43  1  0  0  0  0
 41 50  1  0  0  0  0
 42 66  1  0  0  0  0
 43 45  1  0  0  0  0
 44 46  1  0  0  0  0
 44 47  1  0  0  0  0
 45 49  1  0  0  0  0
 46 51  1  0  0  0  0
 47 67  1  0  0  0  0
 48 51  1  0  0  0  0
 48 67  1  0  0  0  0
 49 72  1  0  0  0  0
 50 66  1  0  0  0  0
 51 65  1  0  0  0  0
 52 62  1  0  0  0  0
 53 63  1  0  0  0  0
 54 63  1  0  0  0  0
 55 63  1  0  0  0  0
 56 74  1  0  0  0  0
 57 58  1  0  0  0  0
 57 59  1  0  0  0  0
 58 60  1  0  0  0  0
 59 71  1  0  0  0  0
 60 82  1  0  0  0  0
 61 63  1  0  0  0  0
 61 73  1  0  0  0  0
 62 74  1  0  0  0  0
 64 65  1  0  0  0  0
M  CHG  1  74   1
M  ISO  4  39 100  60 101  70 100  82 101
M  END
> <Batch ID>
0003

> <Smiles>
CNC(C)C(=O)NC(C(=O)N1Cc2cc([101O:1][101CH2:1]CCCNC(=O)c3ccc([100NH:0][100C:0](=O)N4CCCC(n5nc(-c6ccc(Oc7ccc(F)cc7F)cc6)c(C(N)=O)c5N)C4)cc3)ccc2CC1C(=O)NC1CCCc2ccccc21)C(C)(C)C

> <Shape>
0.240

> <Color>
0.078

> <Negative vol penalty>
0.000

$$$$

  -OEChem-04042320203D

 86 95  0     1  0  0  0  0  0999 V2000
  -24.5946  -18.9227   22.6317 C   0  0  0  0  0  0  0  0  0  0  0  0
  -25.6136  -19.4517   23.4174 C   0  0  0  0  0  0  0  0  0  0  0  0
  -23.0802   -9.8617   19.9422 C   0  0  0  0  0  0  0  0  0  0  0  0
  -23.8341   -9.8775   22.2375 C   0  0  0  0  0  0  0  0  0  0  0  0
  -24.2394  -19.5494   21.4380 C   0  0  0  0  0  0  0  0  0  0  0  0
  -26.2787  -20.6073   23.0092 C   0  0  0  0  0  0  0  0  0  0  0  0
  -32.6346  -17.5134   23.4550 C   0  0  0  0  0  0  0  0  0  0  0  0
  -30.4474  -18.3603   24.0347 C   0  0  0  0  0  0  0  0  0  0  0  0
  -26.9015  -23.9262   26.7830 C   0  0  0  0  0  0  0  0  0  0  0  0
  -32.0511  -16.6249   22.5517 C   0  0  0  0  0  0  0  0  0  0  0  0
  -29.8639  -17.4718   23.1315 C   0  0  0  0  0  0  0  0  0  0  0  0
  -22.3373   -8.7084   20.1941 C   0  0  0  0  0  0  0  0  0  0  0  0
  -23.0912   -8.7242   22.4895 C   0  0  0  0  0  0  0  0  0  0  0  0
  -27.9240  -23.6686   27.6952 C   0  0  0  0  0  0  0  0  0  0  0  0
  -19.8626   -7.9239   23.0863 C   0  0  0  0  0  0  0  0  0  0  0  0
  -19.1026   -7.8869   24.2553 C   0  0  0  0  0  0  0  0  0  0  0  0
  -29.3330  -25.2614   26.5564 C   0  0  0  0  0  0  0  0  0  0  0  0
  -20.3448   -5.9537   25.0016 C   0  0  0  0  0  0  0  0  0  0  0  0
  -23.8287  -10.4463   20.9639 C   0  0  0  0  0  0  0  0  0  0  0  0
  -24.1673  -12.9715   20.8362 C   0  0  0  0  0  0  0  0  0  0  0  0
  -31.8327  -18.3810   24.1965 C   0  0  0  0  0  0  0  0  0  0  0  0
  -24.8940  -20.7187   21.0198 C   0  0  0  0  0  0  0  0  0  0  0  0
  -27.0913  -24.8468   25.7424 C   0  0  0  0  0  0  0  0  0  0  0  0
  -25.9328  -21.2495   21.8081 C   0  0  0  0  0  0  0  0  0  0  0  0
  -28.3106  -25.5307   25.6338 C   0  0  0  0  0  0  0  0  0  0  0  0
  -30.6658  -16.6042   22.3899 C   0  0  0  0  0  0  0  0  0  0  0  0
  -22.3427   -8.1396   21.4678 C   0  0  0  0  0  0  0  0  0  0  0  0
  -29.1410  -24.3341   27.5802 C   0  0  0  0  0  0  0  0  0  0  0  0
  -20.8636   -6.9758   22.8748 C   0  0  0  0  0  0  0  0  0  0  0  0
  -19.3437   -6.9018   25.2130 C   0  0  0  0  0  0  0  0  0  0  0  0
  -21.1047   -5.9907   23.8325 C   0  0  0  0  0  0  0  0  0  0  0  0
  -24.5968  -11.6373   20.7041 C   0  0  0  0  0  0  0  0  0  0  0  0
  -25.2594  -13.7212   20.4733 C   0  0  0  0  0  0  0  0  0  0  0  0
  -22.8951  -13.4869   21.2501 C   0  0  0  0  0  0  0  0  0  0  0  0
  -27.0849  -24.6770   22.5683 C   0  0  0  0  0  0  0  0  0  0  0  0
  -27.3682  -27.9012   22.7841 C   0  0  0  0  0  0  0  0  0  0  0  0
  -28.3321  -30.6081   24.6253 C   0  0  0  0  0  0  0  0  0  0  0  0
  -30.7237  -14.7750   20.6587 C   0  0  0  0  0  0  0  0  0  0  0  0
  -24.5071  -21.3340   19.6983 C   0  0  0  0  0  0  0  0  0  0  0  0
  -25.9692  -25.1332   24.7826 C   0  0  0  0  0  0  0  0  0  0  0  0
  -28.5577  -26.5434   24.5467 C   0  0  0  0  0  0  0  0  0  0  0  0
  -25.0077  -22.7655   19.5232 C   0  0  0  0  0  0  0  0  0  0  0  0
  -29.6188  -12.3517   18.2957 C   0  0  0  0  0  0  0  0  0  0  0  0
  -26.4734  -22.8723   19.9318 C   0  0  0  0  0  0  0  0  0  0  0  0
  -28.1784  -12.0596   18.7225 C   0  0  0  0  0  0  0  0  0  0  0  0
  -32.1449  -20.7831   24.7618 C   0  0  0  0  0  0  0  0  0  0  0  0
  -31.9572  -19.0480   26.5896 C   0  0  0  0  0  0  0  0  0  0  0  0
  -30.5304  -12.5858   19.4989 C   0  0  0  0  0  0  0  0  0  0  0  0
  -28.6189  -13.3123   20.8728 C   0  0  0  0  0  0  0  0  0  0  0  0
  -32.6988  -21.7766   25.7751 C   0  0  0  0  0  0  0  0  0  0  0  0
  -32.5129  -20.0546   27.5888 C   0  0  0  0  0  0  0  0  0  0  0  0
  -32.4580  -19.3330   25.1645 C   0  0  0  0  0  0  0  0  0  0  0  0
  -26.6611  -22.5154   21.4113 C   0  0  1  0  0  0  0  0  0  0  0  0
  -26.4510  -25.7109   23.4554 C   0  0  1  0  0  0  0  0  0  0  0  0
  -27.6494  -13.1337   19.6930 C   0  0  2  0  0  0  0  0  0  0  0  0
  -28.4761  -33.1113   24.5211 C   0  0  0  0  0  0  0  0  0  0  0  0
  -29.8108  -27.6827   20.9687 C   0  0  0  0  0  0  0  0  0  0  0  0
  -30.4489  -30.0014   21.6648 C   0  0  0  0  0  0  0  0  0  0  0  0
  -28.3009  -29.6099   20.4584 C   0  0  0  0  0  0  0  0  0  0  0  0
  -26.5066  -30.9251   26.9331 C   0  0  0  0  0  0  0  0  0  0  0  0
  -31.6419  -22.4440   29.3689 C   0  0  0  0  0  0  0  0  0  0  0  0
  -32.5688  -22.4799   28.1632 C   0  0  0  0  0  0  0  0  0  0  0  0
  -30.1921  -22.7764   29.0378 C   0  0  0  0  0  0  0  0  0  1  0  0
  -28.5232  -28.8699   22.8657 C   0  0  1  0  0  0  0  0  0  0  0  0
  -27.6295  -31.9177   24.9349 C   0  0  2  0  0  0  0  0  0  0  0  0
  -29.2673  -29.0205   21.5088 C   0  0  0  0  0  0  0  0  0  0  0  0
  -25.8629  -11.5419   20.2895 N   0  0  0  0  0  0  0  0  0  0  0  0
  -26.2383  -12.8255   20.1578 N   0  0  0  0  0  0  0  0  0  0  0  0
  -27.4319  -26.7841   23.6289 N   0  0  0  0  0  0  0  0  0  0  0  0
  -29.9677  -13.6188   20.3714 N   0  0  0  0  0  0  0  0  0  0  0  0
  -25.4682  -15.0528   20.3963 N   0  0  0  0  0  0  0  0  0  0  0  0
  -21.8835  -12.5775   21.5878 N   0  0  0  0  0  0  0  0  0  0  0  0
  -30.0729  -15.7020   21.4723 N   0  0  0  0  0  0  0  0  0  0  0  0
  -26.2531  -23.6196   22.2533 N   0  0  0  0  0  0  0  0  0  0  0  0
  -27.9742  -30.1167   23.3877 N   0  0  0  0  0  0  0  0  0  0  0  0
  -32.1605  -21.4681   27.1607 N   0  3  0  0  0  0  0  0  0  0  0  0
  -27.3503  -32.0231   26.3950 N   0  3  0  0  0  0  0  0  0  0  0  0
  -22.6570  -14.7174   21.3027 O   0  0  0  0  0  0  0  0  0  0  0  0
  -28.2426  -24.8282   22.1960 O   0  0  0  0  0  0  0  0  0  0  0  0
  -26.4400  -28.1311   22.0048 O   0  0  0  0  0  0  0  0  0  0  0  0
  -29.1225  -30.0764   25.4019 O   0  0  0  0  0  0  0  0  0  0  0  0
  -31.8537  -14.9438   20.1934 O   0  0  0  0  0  0  0  0  0  0  0  0
  -21.6177   -7.0143   21.7140 O   0  0  0  0  0  0  0  0  0  0  0  0
  -30.1408  -24.0841   28.4689 O   0  0  0  0  0  0  0  0  0  1  0  0
  -18.6149   -6.8673   26.3363 F   0  0  0  0  0  0  0  0  0  0  0  0
  -22.0658   -5.0778   23.6354 F   0  0  0  0  0  0  0  0  0  0  0  0
  1  2  1  0  0  0  0
  1  5  2  0  0  0  0
  2  6  2  0  0  0  0
  3 12  2  0  0  0  0
  3 19  1  0  0  0  0
  4 13  1  0  0  0  0
  4 19  2  0  0  0  0
  5 22  1  0  0  0  0
  6 24  1  0  0  0  0
  7 10  2  0  0  0  0
  7 21  1  0  0  0  0
  8 11  1  0  0  0  0
  8 21  2  0  0  0  0
  9 14  2  0  0  0  0
  9 23  1  0  0  0  0
 10 26  1  0  0  0  0
 11 26  2  0  0  0  0
 12 27  1  0  0  0  0
 13 27  2  0  0  0  0
 14 28  1  0  0  0  0
 15 16  2  0  0  0  0
 15 29  1  0  0  0  0
 16 30  1  0  0  0  0
 17 25  1  0  0  0  0
 17 28  2  0  0  0  0
 18 30  2  0  0  0  0
 18 31  1  0  0  0  0
 19 32  1  0  0  0  0
 20 32  1  0  0  0  0
 20 33  2  0  0  0  0
 20 34  1  0  0  0  0
 21 52  1  0  0  0  0
 22 24  2  0  0  0  0
 22 39  1  0  0  0  0
 23 25  2  0  0  0  0
 23 40  1  0  0  0  0
 24 53  1  0  0  0  0
 25 41  1  0  0  0  0
 26 73  1  0  0  0  0
 27 83  1  0  0  0  0
 28 84  1  0  0  0  0
 29 31  2  0  0  0  0
 29 83  1  0  0  0  0
 30 85  1  0  0  0  0
 31 86  1  0  0  0  0
 32 67  2  0  0  0  0
 33 68  1  0  0  0  0
 33 71  1  0  0  0  0
 34 72  1  0  0  0  0
 34 78  2  0  0  0  0
 35 54  1  0  0  0  0
 35 74  1  0  0  0  0
 35 79  2  0  0  0  0
 36 64  1  0  0  0  0
 36 69  1  0  0  0  0
 36 80  2  0  0  0  0
 37 65  1  0  0  0  0
 37 75  1  0  0  0  0
 37 81  2  0  0  0  0
 38 70  1  0  0  0  0
 38 73  1  0  0  0  0
 38 82  2  0  0  0  0
 39 42  1  0  0  0  0
 40 54  1  0  0  0  0
 41 69  1  0  0  0  0
 42 44  1  0  0  0  0
 43 45  1  0  0  0  0
 43 48  1  0  0  0  0
 44 53  1  0  0  0  0
 45 55  1  0  0  0  0
 46 50  1  0  0  0  0
 46 52  1  0  0  0  0
 47 51  1  0  0  0  0
 47 52  1  0  0  0  0
 48 70  1  0  0  0  0
 49 55  1  0  0  0  0
 49 70  1  0  0  0  0
 50 76  1  0  0  0  0
 51 76  1  0  0  0  0
 53 74  1  0  0  0  0
 54 69  1  0  0  0  0
 55 68  1  0  0  0  0
 56 65  1  0  0  0  0
 57 66  1  0  0  0  0
 58 66  1  0  0  0  0
 59 66  1  0  0  0  0
 60 77  1  0  0  0  0
 61 62  1  0  0  0  0
 61 63  1  0  0  0  0
 62 76  1  0  0  0  0
 63 84  1  0  0  0  0
 64 66  1  0  0  0  0
 64 75  1  0  0  0  0
 65 77  1  0  0  0  0
 67 68  1  0  0  0  0
M  CHG  2  76   1  77   1
M  ISO  4  38 100  63 101  73 100  84 101
M  END
> <Batch ID>
0003

> <Smiles>
CNC(C)C(=O)NC(C(=O)N1Cc2cc([101O:1][101CH2:1]CCN3CCC(c4ccc([100NH:0][100C:0](=O)N5CCCC(n6nc(-c7ccc(Oc8ccc(F)cc8F)cc7)c(C(N)=O)c6N)C5)cc4)CC3)ccc2CC1C(=O)NC1CCCc2ccccc21)C(C)(C)C

> <Shape>
0.224

> <Color>
0.188

> <Negative vol penalty>
0.000

$$$$

  -OEChem-04042320203D

 83 91  0     1  0  0  0  0  0999 V2000
  -29.4002  -32.6838   25.6700 C   0  0  0  0  0  0  0  0  0  0  0  0
  -29.3062  -31.7156   24.6755 C   0  0  0  0  0  0  0  0  0  0  0  0
  -22.9387  -10.9622   21.5041 C   0  0  0  0  0  0  0  0  0  0  0  0
  -22.7329  -12.8318   19.9878 C   0  0  0  0  0  0  0  0  0  0  0  0
  -28.3347  -32.8875   26.5459 C   0  0  0  0  0  0  0  0  0  0  0  0
  -28.1470  -30.9497   24.5570 C   0  0  0  0  0  0  0  0  0  0  0  0
  -26.5982  -30.4994   19.7566 C   0  0  0  0  0  0  0  0  0  0  0  0
  -31.2246  -18.6917   18.9967 C   0  0  0  0  0  0  0  0  0  0  0  0
  -29.3814  -18.5853   17.4384 C   0  0  0  0  0  0  0  0  0  0  0  0
  -31.0366  -17.3459   19.3110 C   0  0  0  0  0  0  0  0  0  0  0  0
  -29.1934  -17.2393   17.7526 C   0  0  0  0  0  0  0  0  0  0  0  0
  -21.7156  -11.2981   22.0843 C   0  0  0  0  0  0  0  0  0  0  0  0
  -21.5097  -13.1677   20.5679 C   0  0  0  0  0  0  0  0  0  0  0  0
  -27.2762  -29.5847   18.9520 C   0  0  0  0  0  0  0  0  0  0  0  0
  -20.4233  -14.7347   23.3599 C   0  0  0  0  0  0  0  0  0  0  0  0
  -20.1943  -16.0780   23.6576 C   0  0  0  0  0  0  0  0  0  0  0  0
  -25.5017  -27.9850   19.2858 C   0  0  0  0  0  0  0  0  0  0  0  0
  -18.2770  -16.0771   22.1875 C   0  0  0  0  0  0  0  0  0  0  0  0
  -23.4474  -11.7291   20.4559 C   0  0  0  0  0  0  0  0  0  0  0  0
  -24.9265  -10.5212   18.7644 C   0  0  0  0  0  0  0  0  0  0  0  0
  -27.1581  -32.1304   26.4320 C   0  0  0  0  0  0  0  0  0  0  0  0
  -25.3701  -30.1593   20.3417 C   0  0  0  0  0  0  0  0  0  0  0  0
  -27.0653  -31.1425   25.4330 C   0  0  0  0  0  0  0  0  0  0  0  0
  -24.8089  -28.8981   20.0954 C   0  0  0  0  0  0  0  0  0  0  0  0
  -30.3969  -19.3115   18.0604 C   0  0  0  0  0  0  0  0  0  0  0  0
  -30.0211  -16.6196   18.6890 C   0  0  0  0  0  0  0  0  0  0  0  0
  -21.0010  -12.4008   21.6162 C   0  0  0  0  0  0  0  0  0  0  0  0
  -26.7294  -28.3262   18.7188 C   0  0  0  0  0  0  0  0  0  0  0  0
  -19.5791  -14.0626   22.4759 C   0  0  0  0  0  0  0  0  0  0  0  0
  -19.1212  -16.7492   23.0715 C   0  0  0  0  0  0  0  0  0  0  0  0
  -18.5060  -14.7338   21.8898 C   0  0  0  0  0  0  0  0  0  0  0  0
  -24.7112  -11.3830   19.8566 C   0  0  0  0  0  0  0  0  0  0  0  0
  -26.2882  -10.5271   18.5856 C   0  0  0  0  0  0  0  0  0  0  0  0
  -23.9801   -9.7815   17.9816 C   0  0  0  0  0  0  0  0  0  0  0  0
  -24.3090  -29.8737   23.3244 C   0  0  0  0  0  0  0  0  0  0  0  0
  -21.4531  -29.4283   21.8521 C   0  0  0  0  0  0  0  0  0  0  0  0
  -19.7567  -28.4905   19.0432 C   0  0  0  0  0  0  0  0  0  0  0  0
  -30.5627  -14.4857   19.9136 C   0  0  0  0  0  0  0  0  0  0  0  0
  -26.0513  -32.3541   27.4317 C   0  0  0  0  0  0  0  0  0  0  0  0
  -24.6385  -31.1669   21.1855 C   0  0  0  0  0  0  0  0  0  0  0  0
  -23.4834  -28.4913   20.6836 C   0  0  0  0  0  0  0  0  0  0  0  0
  -24.7130  -31.7582   27.0024 C   0  0  0  0  0  0  0  0  0  0  0  0
  -30.3806  -11.1018   21.0057 C   0  0  0  0  0  0  0  0  0  0  0  0
  -24.9028  -30.3342   26.4895 C   0  0  0  0  0  0  0  0  0  0  0  0
  -28.9272  -10.7095   20.7299 C   0  0  0  0  0  0  0  0  0  0  0  0
  -30.4979  -12.5516   21.4724 C   0  0  0  0  0  0  0  0  0  0  0  0
  -28.4039  -13.1477   20.3197 C   0  0  0  0  0  0  0  0  0  0  0  0
  -25.8147  -30.3087   25.2569 C   0  0  1  0  0  0  0  0  0  0  0  0
  -23.6418  -30.5290   22.1483 C   0  0  1  0  0  0  0  0  0  0  0  0
  -28.2416  -11.7156   19.7847 C   0  0  2  0  0  0  0  0  0  0  0  0
  -17.4286  -28.1944   18.1548 C   0  0  0  0  0  0  0  0  0  0  0  0
  -21.1769  -26.8407   23.4452 C   0  0  0  0  0  0  0  0  0  0  0  0
  -19.3693  -26.1401   21.8609 C   0  0  0  0  0  0  0  0  0  0  0  0
  -19.0745  -28.1827   23.2623 C   0  0  0  0  0  0  0  0  0  0  0  0
  -20.1864  -30.5059   16.9190 C   0  0  0  0  0  0  0  0  0  0  0  0
  -30.5991  -20.7592   17.7224 C   0  0  0  0  0  0  0  0  0  0  0  0
  -28.3197  -23.7901   18.1203 C   0  0  0  0  0  0  0  0  0  0  0  0
  -28.4497  -25.2817   17.8211 C   0  0  0  0  0  0  0  0  0  0  0  0
  -29.5940  -23.0456   17.7509 C   0  0  0  0  0  0  0  0  0  0  0  0
  -27.1979  -26.0474   18.2254 C   0  0  0  0  0  0  0  0  0  1  0  0
  -20.6974  -28.2328   21.3243 C   0  0  1  0  0  0  0  0  0  0  0  0
  -18.6087  -29.1433   18.2948 C   0  0  2  0  0  0  0  0  0  0  0  0
  -20.1055  -27.3557   22.4635 C   0  0  0  0  0  0  0  0  0  0  0  0
  -25.8454  -11.8988   20.3377 N   0  0  0  0  0  0  0  0  0  0  0  0
  -26.7865  -11.3594   19.5443 N   0  0  0  0  0  0  0  0  0  0  0  0
  -22.8096  -29.5091   21.5068 N   0  0  0  0  0  0  0  0  0  0  0  0
  -29.8295  -13.4474   20.5261 N   0  0  0  0  0  0  0  0  0  0  0  0
  -27.0961   -9.9015   17.7034 N   0  0  0  0  0  0  0  0  0  0  0  0
  -22.6196   -9.8895   18.3006 N   0  0  0  0  0  0  0  0  0  0  0  0
  -29.8301  -15.2523   19.0079 N   0  0  0  0  0  0  0  0  0  0  0  0
  -25.0859  -30.7310   24.0801 N   0  0  0  0  0  0  0  0  0  0  0  0
  -19.7022  -28.7567   20.3951 N   0  0  0  0  0  0  0  0  0  0  0  0
  -19.0464  -29.5535   16.9306 N   0  3  0  0  0  0  0  0  0  0  0  0
  -29.4054  -21.5989   18.0157 N   0  3  0  0  0  0  0  0  0  0  0  0
  -24.3319   -9.0337   17.0379 O   0  0  0  0  0  0  0  0  0  0  0  0
  -24.1310  -28.6792   23.5318 O   0  0  0  0  0  0  0  0  0  0  0  0
  -20.8600  -30.2636   22.5393 O   0  0  0  0  0  0  0  0  0  0  0  0
  -20.6140  -27.8092   18.4851 O   0  0  0  0  0  0  0  0  0  0  0  0
  -31.7598  -14.6635   20.1530 O   0  0  0  0  0  0  0  0  0  0  0  0
  -19.8073  -12.7287   22.1819 O   0  0  0  0  0  0  0  0  0  0  0  0
  -27.3893  -27.4313   17.9344 O   0  0  0  0  0  0  0  0  0  1  0  0
  -18.9006  -18.0388   23.3587 F   0  0  0  0  0  0  0  0  0  0  0  0
  -17.6909  -14.0930   21.0407 F   0  0  0  0  0  0  0  0  0  0  0  0
  1  2  1  0  0  0  0
  1  5  2  0  0  0  0
  2  6  2  0  0  0  0
  3 12  2  0  0  0  0
  3 19  1  0  0  0  0
  4 13  1  0  0  0  0
  4 19  2  0  0  0  0
  5 21  1  0  0  0  0
  6 23  1  0  0  0  0
  7 14  2  0  0  0  0
  7 22  1  0  0  0  0
  8 10  2  0  0  0  0
  8 25  1  0  0  0  0
  9 11  1  0  0  0  0
  9 25  2  0  0  0  0
 10 26  1  0  0  0  0
 11 26  2  0  0  0  0
 12 27  1  0  0  0  0
 13 27  2  0  0  0  0
 14 28  1  0  0  0  0
 15 16  2  0  0  0  0
 15 29  1  0  0  0  0
 16 30  1  0  0  0  0
 17 24  1  0  0  0  0
 17 28  2  0  0  0  0
 18 30  2  0  0  0  0
 18 31  1  0  0  0  0
 19 32  1  0  0  0  0
 20 32  1  0  0  0  0
 20 33  2  0  0  0  0
 20 34  1  0  0  0  0
 21 23  2  0  0  0  0
 21 39  1  0  0  0  0
 22 24  2  0  0  0  0
 22 40  1  0  0  0  0
 23 48  1  0  0  0  0
 24 41  1  0  0  0  0
 25 56  1  0  0  0  0
 26 70  1  0  0  0  0
 27 80  1  0  0  0  0
 28 81  1  0  0  0  0
 29 31  2  0  0  0  0
 29 80  1  0  0  0  0
 30 82  1  0  0  0  0
 31 83  1  0  0  0  0
 32 64  2  0  0  0  0
 33 65  1  0  0  0  0
 33 68  1  0  0  0  0
 34 69  1  0  0  0  0
 34 75  2  0  0  0  0
 35 49  1  0  0  0  0
 35 71  1  0  0  0  0
 35 76  2  0  0  0  0
 36 61  1  0  0  0  0
 36 66  1  0  0  0  0
 36 77  2  0  0  0  0
 37 62  1  0  0  0  0
 37 72  1  0  0  0  0
 37 78  2  0  0  0  0
 38 67  1  0  0  0  0
 38 70  1  0  0  0  0
 38 79  2  0  0  0  0
 39 42  1  0  0  0  0
 40 49  1  0  0  0  0
 41 66  1  0  0  0  0
 42 44  1  0  0  0  0
 43 45  1  0  0  0  0
 43 46  1  0  0  0  0
 44 48  1  0  0  0  0
 45 50  1  0  0  0  0
 46 67  1  0  0  0  0
 47 50  1  0  0  0  0
 47 67  1  0  0  0  0
 48 71  1  0  0  0  0
 49 66  1  0  0  0  0
 50 65  1  0  0  0  0
 51 62  1  0  0  0  0
 52 63  1  0  0  0  0
 53 63  1  0  0  0  0
 54 63  1  0  0  0  0
 55 73  1  0  0  0  0
 56 74  1  0  0  0  0
 57 58  1  0  0  0  0
 57 59  1  0  0  0  0
 58 60  1  0  0  0  0
 59 74  1  0  0  0  0
 60 81  1  0  0  0  0
 61 63  1  0  0  0  0
 61 72  1  0  0  0  0
 62 73  1  0  0  0  0
 64 65  1  0  0  0  0
M  CHG  2  73   1  74   1
M  ISO  4  38 100  60 101  70 100  81 101
M  END
> <Batch ID>
0003

> <Smiles>
CNC(C)C(=O)NC(C(=O)N1Cc2cc([101O:1][101CH2:1]CCCNCc3ccc([100NH:0][100C:0](=O)N4CCCC(n5nc(-c6ccc(Oc7ccc(F)cc7F)cc6)c(C(N)=O)c5N)C4)cc3)ccc2CC1C(=O)NC1CCCc2ccccc21)C(C)(C)C

> <Shape>
0.265

> <Color>
0.068

> <Negative vol penalty>
0.000

$$$$
