
  -OEChem-04042320233D

 83 91  0     1  0  0  0  0  0999 V2000
  -29.4002  -32.6838   25.6700 C   0  0  0  0  0  0  0  0  0  0  0  0
  -29.3062  -31.7156   24.6755 C   0  0  0  0  0  0  0  0  0  0  0  0
  -22.9387  -10.9622   21.5041 C   0  0  0  0  0  0  0  0  0  0  0  0
  -22.7329  -12.8318   19.9878 C   0  0  0  0  0  0  0  0  0  0  0  0
  -28.3347  -32.8875   26.5459 C   0  0  0  0  0  0  0  0  0  0  0  0
  -28.1470  -30.9497   24.5570 C   0  0  0  0  0  0  0  0  0  0  0  0
  -26.5982  -30.4994   19.7566 C   0  0  0  0  0  0  0  0  0  0  0  0
  -31.2246  -18.6917   18.9967 C   0  0  0  0  0  0  0  0  0  0  0  0
  -29.3814  -18.5853   17.4384 C   0  0  0  0  0  0  0  0  0  0  0  0
  -31.0366  -17.3459   19.3110 C   0  0  0  0  0  0  0  0  0  0  0  0
  -29.1934  -17.2393   17.7526 C   0  0  0  0  0  0  0  0  0  0  0  0
  -21.7156  -11.2981   22.0843 C   0  0  0  0  0  0  0  0  0  0  0  0
  -21.5097  -13.1677   20.5679 C   0  0  0  0  0  0  0  0  0  0  0  0
  -27.2762  -29.5847   18.9520 C   0  0  0  0  0  0  0  0  0  0  0  0
  -20.4233  -14.7347   23.3599 C   0  0  0  0  0  0  0  0  0  0  0  0
  -20.1943  -16.0780   23.6576 C   0  0  0  0  0  0  0  0  0  0  0  0
  -25.5017  -27.9850   19.2858 C   0  0  0  0  0  0  0  0  0  0  0  0
  -18.2770  -16.0771   22.1875 C   0  0  0  0  0  0  0  0  0  0  0  0
  -23.4474  -11.7291   20.4559 C   0  0  0  0  0  0  0  0  0  0  0  0
  -24.9265  -10.5212   18.7644 C   0  0  0  0  0  0  0  0  0  0  0  0
  -27.1581  -32.1304   26.4320 C   0  0  0  0  0  0  0  0  0  0  0  0
  -25.3701  -30.1593   20.3417 C   0  0  0  0  0  0  0  0  0  0  0  0
  -27.0653  -31.1425   25.4330 C   0  0  0  0  0  0  0  0  0  0  0  0
  -24.8089  -28.8981   20.0954 C   0  0  0  0  0  0  0  0  0  0  0  0
  -30.3969  -19.3115   18.0604 C   0  0  0  0  0  0  0  0  0  0  0  0
  -30.0211  -16.6196   18.6890 C   0  0  0  0  0  0  0  0  0  0  0  0
  -21.0010  -12.4008   21.6162 C   0  0  0  0  0  0  0  0  0  0  0  0
  -26.7294  -28.3262   18.7188 C   0  0  0  0  0  0  0  0  0  0  0  0
  -19.5791  -14.0626   22.4759 C   0  0  0  0  0  0  0  0  0  0  0  0
  -19.1212  -16.7492   23.0715 C   0  0  0  0  0  0  0  0  0  0  0  0
  -18.5060  -14.7338   21.8898 C   0  0  0  0  0  0  0  0  0  0  0  0
  -24.7112  -11.3830   19.8566 C   0  0  0  0  0  0  0  0  0  0  0  0
  -26.2882  -10.5271   18.5856 C   0  0  0  0  0  0  0  0  0  0  0  0
  -23.9801   -9.7815   17.9816 C   0  0  0  0  0  0  0  0  0  0  0  0
  -24.3090  -29.8737   23.3244 C   0  0  0  0  0  0  0  0  0  0  0  0
  -21.4531  -29.4283   21.8521 C   0  0  0  0  0  0  0  0  0  0  0  0
  -19.7567  -28.4905   19.0432 C   0  0  0  0  0  0  0  0  0  0  0  0
  -30.5627  -14.4857   19.9136 C   0  0  0  0  0  0  0  0  0  0  0  0
  -26.0513  -32.3541   27.4317 C   0  0  0  0  0  0  0  0  0  0  0  0
  -24.6385  -31.1669   21.1855 C   0  0  0  0  0  0  0  0  0  0  0  0
  -23.4834  -28.4913   20.6836 C   0  0  0  0  0  0  0  0  0  0  0  0
  -24.7130  -31.7582   27.0024 C   0  0  0  0  0  0  0  0  0  0  0  0
  -30.3806  -11.1018   21.0057 C   0  0  0  0  0  0  0  0  0  0  0  0
  -24.9028  -30.3342   26.4895 C   0  0  0  0  0  0  0  0  0  0  0  0
  -28.9272  -10.7095   20.7299 C   0  0  0  0  0  0  0  0  0  0  0  0
  -30.4979  -12.5516   21.4724 C   0  0  0  0  0  0  0  0  0  0  0  0
  -28.4039  -13.1477   20.3197 C   0  0  0  0  0  0  0  0  0  0  0  0
  -25.8147  -30.3087   25.2569 C   0  0  1  0  0  0  0  0  0  0  0  0
  -23.6418  -30.5290   22.1483 C   0  0  1  0  0  0  0  0  0  0  0  0
  -28.2416  -11.7156   19.7847 C   0  0  2  0  0  0  0  0  0  0  0  0
  -17.4286  -28.1944   18.1548 C   0  0  0  0  0  0  0  0  0  0  0  0
  -21.1769  -26.8407   23.4452 C   0  0  0  0  0  0  0  0  0  0  0  0
  -19.3693  -26.1401   21.8609 C   0  0  0  0  0  0  0  0  0  0  0  0
  -19.0745  -28.1827   23.2623 C   0  0  0  0  0  0  0  0  0  0  0  0
  -20.1864  -30.5059   16.9190 C   0  0  0  0  0  0  0  0  0  0  0  0
  -30.5991  -20.7592   17.7224 C   0  0  0  0  0  0  0  0  0  0  0  0
  -28.3197  -23.7901   18.1203 C   0  0  0  0  0  0  0  0  0  0  0  0
  -28.4497  -25.2817   17.8211 C   0  0  0  0  0  0  0  0  0  0  0  0
  -29.5940  -23.0456   17.7509 C   0  0  0  0  0  0  0  0  0  0  0  0
  -27.1979  -26.0474   18.2254 C   0  0  0  0  0  0  0  0  0  1  0  0
  -20.6974  -28.2328   21.3243 C   0  0  1  0  0  0  0  0  0  0  0  0
  -18.6087  -29.1433   18.2948 C   0  0  2  0  0  0  0  0  0  0  0  0
  -20.1055  -27.3557   22.4635 C   0  0  0  0  0  0  0  0  0  0  0  0
  -25.8454  -11.8988   20.3377 N   0  0  0  0  0  0  0  0  0  0  0  0
  -26.7865  -11.3594   19.5443 N   0  0  0  0  0  0  0  0  0  0  0  0
  -22.8096  -29.5091   21.5068 N   0  0  0  0  0  0  0  0  0  0  0  0
  -29.8295  -13.4474   20.5261 N   0  0  0  0  0  0  0  0  0  0  0  0
  -27.0961   -9.9015   17.7034 N   0  0  0  0  0  0  0  0  0  0  0  0
  -22.6196   -9.8895   18.3006 N   0  0  0  0  0  0  0  0  0  0  0  0
  -29.8301  -15.2523   19.0079 N   0  0  0  0  0  0  0  0  0  0  0  0
  -25.0859  -30.7310   24.0801 N   0  0  0  0  0  0  0  0  0  0  0  0
  -19.7022  -28.7567   20.3951 N   0  0  0  0  0  0  0  0  0  0  0  0
  -19.0464  -29.5535   16.9306 N   0  3  0  0  0  0  0  0  0  0  0  0
  -29.4054  -21.5989   18.0157 N   0  3  0  0  0  0  0  0  0  0  0  0
  -24.3319   -9.0337   17.0379 O   0  0  0  0  0  0  0  0  0  0  0  0
  -24.1310  -28.6792   23.5318 O   0  0  0  0  0  0  0  0  0  0  0  0
  -20.8600  -30.2636   22.5393 O   0  0  0  0  0  0  0  0  0  0  0  0
  -20.6140  -27.8092   18.4851 O   0  0  0  0  0  0  0  0  0  0  0  0
  -31.7598  -14.6635   20.1530 O   0  0  0  0  0  0  0  0  0  0  0  0
  -19.8073  -12.7287   22.1819 O   0  0  0  0  0  0  0  0  0  0  0  0
  -27.3893  -27.4313   17.9344 O   0  0  0  0  0  0  0  0  0  1  0  0
  -18.9006  -18.0388   23.3587 F   0  0  0  0  0  0  0  0  0  0  0  0
  -17.6909  -14.0930   21.0407 F   0  0  0  0  0  0  0  0  0  0  0  0
  1  2  1  0  0  0  0
  1  5  2  0  0  0  0
  2  6  2  0  0  0  0
  3 12  2  0  0  0  0
  3 19  1  0  0  0  0
  4 13  1  0  0  0  0
  4 19  2  0  0  0  0
  5 21  1  0  0  0  0
  6 23  1  0  0  0  0
  7 14  2  0  0  0  0
  7 22  1  0  0  0  0
  8 10  2  0  0  0  0
  8 25  1  0  0  0  0
  9 11  1  0  0  0  0
  9 25  2  0  0  0  0
 10 26  1  0  0  0  0
 11 26  2  0  0  0  0
 12 27  1  0  0  0  0
 13 27  2  0  0  0  0
 14 28  1  0  0  0  0
 15 16  2  0  0  0  0
 15 29  1  0  0  0  0
 16 30  1  0  0  0  0
 17 24  1  0  0  0  0
 17 28  2  0  0  0  0
 18 30  2  0  0  0  0
 18 31  1  0  0  0  0
 19 32  1  0  0  0  0
 20 32  1  0  0  0  0
 20 33  2  0  0  0  0
 20 34  1  0  0  0  0
 21 23  2  0  0  0  0
 21 39  1  0  0  0  0
 22 24  2  0  0  0  0
 22 40  1  0  0  0  0
 23 48  1  0  0  0  0
 24 41  1  0  0  0  0
 25 56  1  0  0  0  0
 26 70  1  0  0  0  0
 27 80  1  0  0  0  0
 28 81  1  0  0  0  0
 29 31  2  0  0  0  0
 29 80  1  0  0  0  0
 30 82  1  0  0  0  0
 31 83  1  0  0  0  0
 32 64  2  0  0  0  0
 33 65  1  0  0  0  0
 33 68  1  0  0  0  0
 34 69  1  0  0  0  0
 34 75  2  0  0  0  0
 35 49  1  0  0  0  0
 35 71  1  0  0  0  0
 35 76  2  0  0  0  0
 36 61  1  0  0  0  0
 36 66  1  0  0  0  0
 36 77  2  0  0  0  0
 37 62  1  0  0  0  0
 37 72  1  0  0  0  0
 37 78  2  0  0  0  0
 38 67  1  0  0  0  0
 38 70  1  0  0  0  0
 38 79  2  0  0  0  0
 39 42  1  0  0  0  0
 40 49  1  0  0  0  0
 41 66  1  0  0  0  0
 42 44  1  0  0  0  0
 43 45  1  0  0  0  0
 43 46  1  0  0  0  0
 44 48  1  0  0  0  0
 45 50  1  0  0  0  0
 46 67  1  0  0  0  0
 47 50  1  0  0  0  0
 47 67  1  0  0  0  0
 48 71  1  0  0  0  0
 49 66  1  0  0  0  0
 50 65  1  0  0  0  0
 51 62  1  0  0  0  0
 52 63  1  0  0  0  0
 53 63  1  0  0  0  0
 54 63  1  0  0  0  0
 55 73  1  0  0  0  0
 56 74  1  0  0  0  0
 57 58  1  0  0  0  0
 57 59  1  0  0  0  0
 58 60  1  0  0  0  0
 59 74  1  0  0  0  0
 60 81  1  0  0  0  0
 61 63  1  0  0  0  0
 61 72  1  0  0  0  0
 62 73  1  0  0  0  0
 64 65  1  0  0  0  0
M  CHG  2  73   1  74   1
M  ISO  4  38 100  60 101  70 100  81 101
M  END
> <Batch ID>
0004

> <Smiles>
CNC(C)C(=O)NC(C(=O)N1Cc2cc([101O:1][101CH2:1]CCCNCc3ccc([100NH:0][100C:0](=O)N4CCCC(n5nc(-c6ccc(Oc7ccc(F)cc7F)cc6)c(C(N)=O)c5N)C4)cc3)ccc2CC1C(=O)NC1CCCc2ccccc21)C(C)(C)C

> <Shape>
0.265

> <Color>
0.068

> <Negative vol penalty>
0.000

$$$$

  -OEChem-04042320233D

 87 96  0     1  0  0  0  0  0999 V2000
  -27.4734  -24.5877   16.5106 C   0  0  0  0  0  0  0  0  0  0  0  0
  -26.3912  -25.3579   16.9211 C   0  0  0  0  0  0  0  0  0  0  0  0
  -22.8758  -21.9062   20.7493 C   0  0  0  0  0  0  0  0  0  0  0  0
  -26.0644  -23.1876   22.1533 C   0  0  0  0  0  0  0  0  0  0  0  0
  -27.8667  -11.9280   20.0029 C   0  0  0  0  0  0  0  0  0  0  0  0
  -25.7307  -13.0571   19.9951 C   0  0  0  0  0  0  0  0  0  0  0  0
  -21.9540  -22.7821   21.3234 C   0  0  0  0  0  0  0  0  0  0  0  0
  -28.6301  -24.5483   17.2863 C   0  0  0  0  0  0  0  0  0  0  0  0
  -26.4696  -26.0984   18.1011 C   0  0  0  0  0  0  0  0  0  0  0  0
  -22.7349  -29.1479   19.0786 C   0  0  0  0  0  0  0  0  0  0  0  0
  -26.9861  -22.3117   21.5791 C   0  0  0  0  0  0  0  0  0  0  0  0
  -27.3184  -10.8961   20.7646 C   0  0  0  0  0  0  0  0  0  0  0  0
  -25.1824  -12.0251   20.7567 C   0  0  0  0  0  0  0  0  0  0  0  0
  -21.4754  -28.6959   19.4700 C   0  0  0  0  0  0  0  0  0  0  0  0
  -24.0314   -8.8902   20.2392 C   0  0  0  0  0  0  0  0  0  0  0  0
  -22.7841   -8.3967   19.8567 C   0  0  0  0  0  0  0  0  0  0  0  0
  -23.7500  -23.9340   22.4526 C   0  0  0  0  0  0  0  0  0  0  0  0
  -25.1901  -21.1598   20.4500 C   0  0  0  0  0  0  0  0  0  0  0  0
  -21.9666  -29.3187   21.7482 C   0  0  0  0  0  0  0  0  0  0  0  0
  -21.8784   -9.0176   22.0087 C   0  0  0  0  0  0  0  0  0  0  0  0
  -24.6919  -23.0614   21.8835 C   0  0  0  0  0  0  0  0  0  0  0  0
  -24.2483  -22.0324   21.0191 C   0  0  0  0  0  0  0  0  0  0  0  0
  -27.0728  -13.0086   19.6182 C   0  0  0  0  0  0  0  0  0  0  0  0
  -22.3903  -23.7940   22.1734 C   0  0  0  0  0  0  0  0  0  0  0  0
  -27.6893  -14.1616   17.4277 C   0  0  0  0  0  0  0  0  0  0  0  0
  -28.7173  -25.2791   18.4827 C   0  0  0  0  0  0  0  0  0  0  0  0
  -23.6253  -29.6796   20.0225 C   0  0  0  0  0  0  0  0  0  0  0  0
  -27.6372  -26.0905   18.8855 C   0  0  0  0  0  0  0  0  0  0  0  0
  -23.2358  -29.7791   21.3658 C   0  0  0  0  0  0  0  0  0  0  0  0
  -26.5499  -21.2998   20.7291 C   0  0  0  0  0  0  0  0  0  0  0  0
  -25.9763  -10.9446   21.1415 C   0  0  0  0  0  0  0  0  0  0  0  0
  -21.0922  -28.7786   20.8054 C   0  0  0  0  0  0  0  0  0  0  0  0
  -24.2022   -9.4474   21.5065 C   0  0  0  0  0  0  0  0  0  0  0  0
  -21.7077   -8.4604   20.7414 C   0  0  0  0  0  0  0  0  0  0  0  0
  -23.1258   -9.5111   22.3912 C   0  0  0  0  0  0  0  0  0  0  0  0
  -27.6387  -14.0752   18.8319 C   0  0  0  0  0  0  0  0  0  0  0  0
  -28.3206  -15.3559   17.1797 C   0  0  0  0  0  0  0  0  0  0  0  0
  -21.4072  -24.7253   22.7844 C   0  0  0  0  0  0  0  0  0  0  0  0
  -27.2086  -13.2443   16.4362 C   0  0  0  0  0  0  0  0  0  0  0  0
  -26.5122  -28.8773   21.0835 C   0  0  0  0  0  0  0  0  0  0  0  0
  -26.2758  -31.6866   22.6879 C   0  0  0  0  0  0  0  0  0  0  0  0
  -24.2661  -34.0959   24.0307 C   0  0  0  0  0  0  0  0  0  0  0  0
  -28.8709  -20.4111   20.3178 C   0  0  0  0  0  0  0  0  0  0  0  0
  -29.9960  -25.2064   19.2795 C   0  0  0  0  0  0  0  0  0  0  0  0
  -24.9701  -30.1874   19.5797 C   0  0  0  0  0  0  0  0  0  0  0  0
  -24.1470  -30.3605   22.4147 C   0  0  0  0  0  0  0  0  0  0  0  0
  -29.8231  -25.6645   20.7240 C   0  0  0  0  0  0  0  0  0  0  0  0
  -31.5161  -18.3696   19.0879 C   0  0  0  0  0  0  0  0  0  0  0  0
  -29.1028  -27.0040   20.7617 C   0  0  0  0  0  0  0  0  0  0  0  0
  -30.8255  -17.0465   18.7492 C   0  0  0  0  0  0  0  0  0  0  0  0
  -30.9253  -19.0132   20.3411 C   0  0  0  0  0  0  0  0  0  0  0  0
  -28.7765  -17.8626   19.9832 C   0  0  0  0  0  0  0  0  0  0  0  0
  -27.6885  -26.8801   20.1810 C   0  0  1  0  0  0  0  0  0  0  0  0
  -25.9923  -30.2369   20.7112 C   0  0  1  0  0  0  0  0  0  0  0  0
  -29.2938  -17.2090   18.6914 C   0  0  2  0  0  0  0  0  0  0  0  0
  -24.3612  -36.2515   25.3120 C   0  0  0  0  0  0  0  0  0  0  0  0
  -26.9113  -30.1390   25.2395 C   0  0  0  0  0  0  0  0  0  0  0  0
  -26.0693  -32.0967   26.5536 C   0  0  0  0  0  0  0  0  0  0  0  0
  -28.0469  -32.3597   25.0561 C   0  0  0  0  0  0  0  0  0  0  0  0
  -22.9293  -35.5855   21.8505 C   0  0  0  0  0  0  0  0  0  0  0  0
  -18.4174  -26.4306   21.3642 C   0  0  0  0  0  0  0  0  0  0  0  0
  -19.1945  -25.8164   22.5207 C   0  0  0  0  0  0  0  0  0  0  0  0
  -19.2934  -27.2667   20.4391 C   0  0  0  0  0  0  0  0  0  1  0  0
  -25.7466  -32.1053   24.0383 C   0  0  1  0  0  0  0  0  0  0  0  0
  -24.3065  -35.6103   23.9341 C   0  0  2  0  0  0  0  0  0  0  0  0
  -26.6769  -31.6624   25.2027 C   0  0  0  0  0  0  0  0  0  0  0  0
  -28.1938  -15.1305   19.4338 N   0  0  0  0  0  0  0  0  0  0  0  0
  -28.5992  -15.8913   18.4028 N   0  0  0  0  0  0  0  0  0  0  0  0
  -25.4539  -30.8376   21.9333 N   0  0  0  0  0  0  0  0  0  0  0  0
  -29.4718  -19.1388   20.2127 N   0  0  0  0  0  0  0  0  0  0  0  0
  -28.6591  -15.9898   16.0370 N   0  0  0  0  0  0  0  0  0  0  0  0
  -26.5843  -12.0646   16.8641 N   0  0  0  0  0  0  0  0  0  0  0  0
  -27.4870  -20.4111   20.1463 N   0  0  0  0  0  0  0  0  0  0  0  0
  -20.2301  -24.9271   22.0724 N   0  0  0  0  0  0  0  0  0  0  0  0
  -27.1180  -28.2018   20.0413 N   0  0  0  0  0  0  0  0  0  0  0  0
  -25.5286  -33.5459   23.9625 N   0  0  0  0  0  0  0  0  0  0  0  0
  -23.0960  -36.1169   23.2277 N   0  3  0  0  0  0  0  0  0  0  0  0
  -21.6813  -25.2734   23.8489 O   0  0  0  0  0  0  0  0  0  0  0  0
  -27.3437  -13.4564   15.2073 O   0  0  0  0  0  0  0  0  0  0  0  0
  -26.3754  -28.4717   22.2318 O   0  0  0  0  0  0  0  0  0  0  0  0
  -27.3747  -32.1035   22.3132 O   0  0  0  0  0  0  0  0  0  0  0  0
  -23.2195  -33.4643   24.1579 O   0  0  0  0  0  0  0  0  0  0  0  0
  -29.5383  -21.4296   20.5163 O   0  0  0  0  0  0  0  0  0  0  0  0
  -25.4410   -9.9377   21.8845 O   0  0  0  0  0  0  0  0  0  0  0  0
  -19.8637  -28.3376   21.1903 O   0  0  0  0  0  0  0  0  0  1  0  0
  -20.5096   -7.9878   20.3734 F   0  0  0  0  0  0  0  0  0  0  0  0
  -23.2835  -10.0464   23.6096 F   0  0  0  0  0  0  0  0  0  0  0  0
  1  2  1  0  0  0  0
  1  8  2  0  0  0  0
  2  9  2  0  0  0  0
  3  7  2  0  0  0  0
  3 22  1  0  0  0  0
  4 11  2  0  0  0  0
  4 21  1  0  0  0  0
  5 12  2  0  0  0  0
  5 23  1  0  0  0  0
  6 13  1  0  0  0  0
  6 23  2  0  0  0  0
  7 24  1  0  0  0  0
  8 26  1  0  0  0  0
  9 28  1  0  0  0  0
 10 14  2  0  0  0  0
 10 27  1  0  0  0  0
 11 30  1  0  0  0  0
 12 31  1  0  0  0  0
 13 31  2  0  0  0  0
 14 32  1  0  0  0  0
 15 16  2  0  0  0  0
 15 33  1  0  0  0  0
 16 34  1  0  0  0  0
 17 21  1  0  0  0  0
 17 24  2  0  0  0  0
 18 22  1  0  0  0  0
 18 30  2  0  0  0  0
 19 29  1  0  0  0  0
 19 32  2  0  0  0  0
 20 34  2  0  0  0  0
 20 35  1  0  0  0  0
 21 22  2  0  0  0  0
 23 36  1  0  0  0  0
 24 38  1  0  0  0  0
 25 36  1  0  0  0  0
 25 37  2  0  0  0  0
 25 39  1  0  0  0  0
 26 28  2  0  0  0  0
 26 44  1  0  0  0  0
 27 29  2  0  0  0  0
 27 45  1  0  0  0  0
 28 53  1  0  0  0  0
 29 46  1  0  0  0  0
 30 73  1  0  0  0  0
 31 84  1  0  0  0  0
 32 85  1  0  0  0  0
 33 35  2  0  0  0  0
 33 84  1  0  0  0  0
 34 86  1  0  0  0  0
 35 87  1  0  0  0  0
 36 67  2  0  0  0  0
 37 68  1  0  0  0  0
 37 71  1  0  0  0  0
 38 74  1  0  0  0  0
 38 78  2  0  0  0  0
 39 72  1  0  0  0  0
 39 79  2  0  0  0  0
 40 54  1  0  0  0  0
 40 75  1  0  0  0  0
 40 80  2  0  0  0  0
 41 64  1  0  0  0  0
 41 69  1  0  0  0  0
 41 81  2  0  0  0  0
 42 65  1  0  0  0  0
 42 76  1  0  0  0  0
 42 82  2  0  0  0  0
 43 70  1  0  0  0  0
 43 73  1  0  0  0  0
 43 83  2  0  0  0  0
 44 47  1  0  0  0  0
 45 54  1  0  0  0  0
 46 69  1  0  0  0  0
 47 49  1  0  0  0  0
 48 50  1  0  0  0  0
 48 51  1  0  0  0  0
 49 53  1  0  0  0  0
 50 55  1  0  0  0  0
 51 70  1  0  0  0  0
 52 55  1  0  0  0  0
 52 70  1  0  0  0  0
 53 75  1  0  0  0  0
 54 69  1  0  0  0  0
 55 68  1  0  0  0  0
 56 65  1  0  0  0  0
 57 66  1  0  0  0  0
 58 66  1  0  0  0  0
 59 66  1  0  0  0  0
 60 77  1  0  0  0  0
 61 62  1  0  0  0  0
 61 63  1  0  0  0  0
 62 74  1  0  0  0  0
 63 85  1  0  0  0  0
 64 66  1  0  0  0  0
 64 76  1  0  0  0  0
 65 77  1  0  0  0  0
 67 68  1  0  0  0  0
M  CHG  1  77   1
M  ISO  4  43 100  63 101  73 100  85 101
M  END
> <Batch ID>
0004

> <Smiles>
CNC(C)C(=O)NC(C(=O)N1Cc2cc([101O:1][101CH2:1]CCNC(=O)c3ccc4cc([100NH:0][100C:0](=O)N5CCCC(n6nc(-c7ccc(Oc8ccc(F)cc8F)cc7)c(C(N)=O)c6N)C5)ccc4c3)ccc2CC1C(=O)NC1CCCc2ccccc21)C(C)(C)C

> <Shape>
0.330

> <Color>
0.077

> <Negative vol penalty>
0.000

$$$$

  -OEChem-04042320233D

 89 98  0     1  0  0  0  0  0999 V2000
  -16.1763  -29.1189   23.1649 C   0  0  0  0  0  0  0  0  0  0  0  0
  -15.7748  -27.7929   23.0390 C   0  0  0  0  0  0  0  0  0  0  0  0
  -24.2676  -11.8659   21.3342 C   0  0  0  0  0  0  0  0  0  0  0  0
  -28.7826  -21.7005   22.0051 C   0  0  0  0  0  0  0  0  0  0  0  0
  -28.6106  -22.7436   19.8326 C   0  0  0  0  0  0  0  0  0  0  0  0
  -23.5632  -12.9707   20.8559 C   0  0  0  0  0  0  0  0  0  0  0  0
  -17.5289  -29.4472   23.0835 C   0  0  0  0  0  0  0  0  0  0  0  0
  -16.7256  -26.7944   22.8304 C   0  0  0  0  0  0  0  0  0  0  0  0
  -25.6476  -11.7844   21.1477 C   0  0  0  0  0  0  0  0  0  0  0  0
  -18.0178  -19.9124   24.3416 C   0  0  0  0  0  0  0  0  0  0  0  0
  -28.8258  -22.9587   22.6057 C   0  0  0  0  0  0  0  0  0  0  0  0
  -28.6537  -24.0017   20.4333 C   0  0  0  0  0  0  0  0  0  0  0  0
  -18.3511  -18.7151   23.7098 C   0  0  0  0  0  0  0  0  0  0  0  0
  -30.9973  -26.0623   21.7343 C   0  0  0  0  0  0  0  0  0  0  0  0
  -31.8271  -27.0259   21.1613 C   0  0  0  0  0  0  0  0  0  0  0  0
  -25.6187  -13.9127   20.0046 C   0  0  0  0  0  0  0  0  0  0  0  0
  -20.6666  -19.3902   23.6653 C   0  0  0  0  0  0  0  0  0  0  0  0
  -29.9137  -28.4539   20.7915 C   0  0  0  0  0  0  0  0  0  0  0  0
  -28.6751  -21.5930   20.6185 C   0  0  0  0  0  0  0  0  0  0  0  0
  -24.2387  -13.9941   20.1911 C   0  0  0  0  0  0  0  0  0  0  0  0
  -27.4864  -19.5233   19.7179 C   0  0  0  0  0  0  0  0  0  0  0  0
  -26.3231  -12.8078   20.4829 C   0  0  0  0  0  0  0  0  0  0  0  0
  -18.4977  -28.4511   22.8835 C   0  0  0  0  0  0  0  0  0  0  0  0
  -19.0065  -20.8639   24.6307 C   0  0  0  0  0  0  0  0  0  0  0  0
  -18.0923  -27.1099   22.7449 C   0  0  0  0  0  0  0  0  0  0  0  0
  -20.3436  -20.5976   24.3032 C   0  0  0  0  0  0  0  0  0  0  0  0
  -28.7613  -24.1093   21.8199 C   0  0  0  0  0  0  0  0  0  0  0  0
  -19.6752  -18.4551   23.3689 C   0  0  0  0  0  0  0  0  0  0  0  0
  -29.6256  -26.2944   21.8358 C   0  0  0  0  0  0  0  0  0  0  0  0
  -31.2854  -28.2217   20.6899 C   0  0  0  0  0  0  0  0  0  0  0  0
  -29.0838  -27.4903   21.3645 C   0  0  0  0  0  0  0  0  0  0  0  0
  -28.6311  -20.2936   19.9973 C   0  0  0  0  0  0  0  0  0  0  0  0
  -27.9754  -18.3822   19.1304 C   0  0  0  0  0  0  0  0  0  0  0  0
  -23.5041  -15.1461   19.6931 C   0  0  0  0  0  0  0  0  0  0  0  0
  -26.1045  -19.8133   19.9671 C   0  0  0  0  0  0  0  0  0  0  0  0
  -19.5541  -23.8685   23.7496 C   0  0  0  0  0  0  0  0  0  0  0  0
  -21.9395  -23.6649   25.9383 C   0  0  0  0  0  0  0  0  0  0  0  0
  -24.0923  -21.6897   27.7022 C   0  0  0  0  0  0  0  0  0  0  0  0
  -31.5473  -14.2566   18.7616 C   0  0  0  0  0  0  0  0  0  0  0  0
  -19.9436  -28.8601   22.7550 C   0  0  0  0  0  0  0  0  0  0  0  0
  -18.6346  -22.1389   25.3367 C   0  0  0  0  0  0  0  0  0  0  0  0
  -21.4455  -21.5775   24.6100 C   0  0  0  0  0  0  0  0  0  0  0  0
  -20.9213  -27.6976   22.9069 C   0  0  0  0  0  0  0  0  0  0  0  0
  -32.5927  -17.2637   17.4138 C   0  0  0  0  0  0  0  0  0  0  0  0
  -20.4648  -26.5039   22.0741 C   0  0  0  0  0  0  0  0  0  0  0  0
  -31.5671  -18.2700   17.9359 C   0  0  0  0  0  0  0  0  0  0  0  0
  -28.2028  -12.6727   18.7895 C   0  0  0  0  0  0  0  0  0  0  0  0
  -28.5699  -13.8614   20.9925 C   0  0  0  0  0  0  0  0  0  0  0  0
  -32.9765  -16.2624   18.4975 C   0  0  0  0  0  0  0  0  0  0  0  0
  -29.7162  -12.6096   18.5978 C   0  0  0  0  0  0  0  0  0  0  0  0
  -30.0739  -13.7700   20.7522 C   0  0  0  0  0  0  0  0  0  0  0  0
  -30.7805  -16.5203   19.6045 C   0  0  0  0  0  0  0  0  0  0  0  0
  -27.8241  -12.7193   20.2799 C   0  0  0  0  0  0  0  0  0  0  0  0
  -19.0960  -25.9955   22.5427 C   0  0  1  0  0  0  0  0  0  0  0  0
  -19.6471  -23.2592   25.1199 C   0  0  1  0  0  0  0  0  0  0  0  0
  -30.3489  -17.5520   18.5431 C   0  0  1  0  0  0  0  0  0  0  0  0
  -25.9493  -21.8133   29.3855 C   0  0  0  0  0  0  0  0  0  0  0  0
  -23.8538  -24.6004   23.7542 C   0  0  0  0  0  0  0  0  0  0  0  0
  -25.7545  -23.8031   25.1755 C   0  0  0  0  0  0  0  0  0  0  0  0
  -24.2577  -25.6194   26.0021 C   0  0  0  0  0  0  0  0  0  0  0  0
  -22.5675  -20.0937   29.6737 C   0  0  0  0  0  0  0  0  0  0  0  0
  -20.5899  -16.7757   19.9442 C   0  0  0  0  0  0  0  0  0  0  0  0
  -19.6799  -15.8948   20.8008 C   0  0  0  0  0  0  0  0  0  0  0  0
  -21.3000  -15.9892   18.8468 C   0  0  0  0  0  0  0  0  0  0  0  0
  -19.0138  -16.6941   21.9138 C   0  0  0  0  0  0  0  0  0  1  0  0
  -23.3897  -23.2469   25.9033 C   0  0  1  0  0  0  0  0  0  0  0  0
  -24.4510  -21.6572   29.1768 C   0  0  2  0  0  0  0  0  0  0  0  0
  -24.2931  -24.2997   25.2011 C   0  0  0  0  0  0  0  0  0  0  0  0
  -29.7621  -19.6925   19.6186 N   0  0  0  0  0  0  0  0  0  0  0  0
  -29.3305  -18.5324   19.0953 N   0  0  0  0  0  0  0  0  0  0  0  0
  -21.0305  -22.8125   25.2956 N   0  0  0  0  0  0  0  0  0  0  0  0
  -31.7925  -15.6072   19.0529 N   0  0  0  0  0  0  0  0  0  0  0  0
  -30.3907  -13.6877   19.3198 N   0  0  0  0  0  0  0  0  0  0  0  0
  -27.3742  -17.2750   18.6456 N   0  0  0  0  0  0  0  0  0  0  0  0
  -25.7772  -21.0312   20.5786 N   0  0  0  0  0  0  0  0  0  0  0  0
  -22.1554  -14.9502   19.3737 N   0  0  0  0  0  0  0  0  0  0  0  0
  -19.2345  -25.2128   23.7521 N   0  0  0  0  0  0  0  0  0  0  0  0
  -23.7660  -22.9624   27.2838 N   0  0  0  0  0  0  0  0  0  0  0  0
  -24.0237  -20.3657   29.7855 N   0  3  0  0  0  0  0  0  0  0  0  0
  -24.0732  -16.2422   19.5453 O   0  0  0  0  0  0  0  0  0  0  0  0
  -25.1884  -19.0090   19.6716 O   0  0  0  0  0  0  0  0  0  0  0  0
  -19.7586  -23.1709   22.7630 O   0  0  0  0  0  0  0  0  0  0  0  0
  -21.6240  -24.7054   26.5207 O   0  0  0  0  0  0  0  0  0  0  0  0
  -24.1042  -20.6870   26.9915 O   0  0  0  0  0  0  0  0  0  0  0  0
  -32.3098  -13.5989   18.0428 O   0  0  0  0  0  0  0  0  0  0  0  0
  -28.8031  -25.3371   22.4057 O   0  0  0  0  0  0  0  0  0  0  0  0
  -20.0056  -17.2791   22.7471 O   0  0  0  0  0  0  0  0  0  1  0  0
  -32.0827  -29.1476   20.1411 F   0  0  0  0  0  0  0  0  0  0  0  0
  -27.7670  -27.7195   21.4604 F   0  0  0  0  0  0  0  0  0  0  0  0
  1  2  1  0  0  0  0
  1  7  2  0  0  0  0
  2  8  2  0  0  0  0
  3  6  2  0  0  0  0
  3  9  1  0  0  0  0
  4 11  2  0  0  0  0
  4 19  1  0  0  0  0
  5 12  1  0  0  0  0
  5 19  2  0  0  0  0
  6 20  1  0  0  0  0
  7 23  1  0  0  0  0
  8 25  1  0  0  0  0
  9 22  2  0  0  0  0
 10 13  2  0  0  0  0
 10 24  1  0  0  0  0
 11 27  1  0  0  0  0
 12 27  2  0  0  0  0
 13 28  1  0  0  0  0
 14 15  2  0  0  0  0
 14 29  1  0  0  0  0
 15 30  1  0  0  0  0
 16 20  2  0  0  0  0
 16 22  1  0  0  0  0
 17 26  1  0  0  0  0
 17 28  2  0  0  0  0
 18 30  2  0  0  0  0
 18 31  1  0  0  0  0
 19 32  1  0  0  0  0
 20 34  1  0  0  0  0
 21 32  1  0  0  0  0
 21 33  2  0  0  0  0
 21 35  1  0  0  0  0
 22 53  1  0  0  0  0
 23 25  2  0  0  0  0
 23 40  1  0  0  0  0
 24 26  2  0  0  0  0
 24 41  1  0  0  0  0
 25 54  1  0  0  0  0
 26 42  1  0  0  0  0
 27 86  1  0  0  0  0
 28 87  1  0  0  0  0
 29 31  2  0  0  0  0
 29 86  1  0  0  0  0
 30 88  1  0  0  0  0
 31 89  1  0  0  0  0
 32 69  2  0  0  0  0
 33 70  1  0  0  0  0
 33 74  1  0  0  0  0
 34 76  1  0  0  0  0
 34 80  2  0  0  0  0
 35 75  1  0  0  0  0
 35 81  2  0  0  0  0
 36 55  1  0  0  0  0
 36 77  1  0  0  0  0
 36 82  2  0  0  0  0
 37 66  1  0  0  0  0
 37 71  1  0  0  0  0
 37 83  2  0  0  0  0
 38 67  1  0  0  0  0
 38 78  1  0  0  0  0
 38 84  2  0  0  0  0
 39 72  1  0  0  0  0
 39 73  1  0  0  0  0
 39 85  2  0  0  0  0
 40 43  1  0  0  0  0
 41 55  1  0  0  0  0
 42 71  1  0  0  0  0
 43 45  1  0  0  0  0
 44 46  1  0  0  0  0
 44 49  1  0  0  0  0
 45 54  1  0  0  0  0
 46 56  1  0  0  0  0
 47 50  1  0  0  0  0
 47 53  1  0  0  0  0
 48 51  1  0  0  0  0
 48 53  1  0  0  0  0
 49 72  1  0  0  0  0
 50 73  1  0  0  0  0
 51 73  1  0  0  0  0
 52 56  1  0  0  0  0
 52 72  1  0  0  0  0
 54 77  1  0  0  0  0
 55 71  1  0  0  0  0
 56 70  1  0  0  0  0
 57 67  1  0  0  0  0
 58 68  1  0  0  0  0
 59 68  1  0  0  0  0
 60 68  1  0  0  0  0
 61 79  1  0  0  0  0
 62 63  1  0  0  0  0
 62 64  1  0  0  0  0
 63 65  1  0  0  0  0
 64 76  1  0  0  0  0
 65 87  1  0  0  0  0
 66 68  1  0  0  0  0
 66 78  1  0  0  0  0
 67 79  1  0  0  0  0
 69 70  1  0  0  0  0
M  CHG  1  79   1
M  ISO  4  39 100  65 101  73 100  87 101
M  END
> <Batch ID>
0004

> <Smiles>
CNC(C)C(=O)NC(C(=O)N1Cc2cc([101O:1][101CH2:1]CCCNC(=O)c3cccc(C4CC[100N:0]([100C:0](=O)N5CCCC(n6nc(-c7ccc(Oc8ccc(F)cc8F)cc7)c(C(N)=O)c6N)C5)CC4)c3)ccc2CC1C(=O)NC1CCCc2ccccc21)C(C)(C)C

> <Shape>
0.224

> <Color>
0.060

> <Negative vol penalty>
0.000

$$$$

  -OEChem-04042320233D

 88 97  0     1  0  0  0  0  0999 V2000
  -16.9287  -30.2195   24.1892 C   0  0  0  0  0  0  0  0  0  0  0  0
  -18.1600  -30.5783   24.7282 C   0  0  0  0  0  0  0  0  0  0  0  0
  -26.6974  -14.4444   18.5324 C   0  0  0  0  0  0  0  0  0  0  0  0
  -25.4258  -15.1541   20.4603 C   0  0  0  0  0  0  0  0  0  0  0  0
  -16.8537  -29.1959   23.2456 C   0  0  0  0  0  0  0  0  0  0  0  0
  -19.3170  -29.9128   24.3246 C   0  0  0  0  0  0  0  0  0  0  0  0
  -24.9163  -32.3134   23.6988 C   0  0  0  0  0  0  0  0  0  0  0  0
  -26.8444  -22.6584   25.5084 C   0  0  0  0  0  0  0  0  0  0  0  0
  -29.0968  -23.5192   25.3567 C   0  0  0  0  0  0  0  0  0  0  0  0
  -26.9185  -22.2309   24.1827 C   0  0  0  0  0  0  0  0  0  0  0  0
  -29.1709  -23.0917   24.0310 C   0  0  0  0  0  0  0  0  0  0  0  0
  -26.6480  -13.1260   18.9851 C   0  0  0  0  0  0  0  0  0  0  0  0
  -25.3764  -13.8356   20.9130 C   0  0  0  0  0  0  0  0  0  0  0  0
  -26.0349  -32.3141   24.5309 C   0  0  0  0  0  0  0  0  0  0  0  0
  -23.6182  -11.0324   20.2267 C   0  0  0  0  0  0  0  0  0  0  0  0
  -22.3927  -10.5531   20.6892 C   0  0  0  0  0  0  0  0  0  0  0  0
  -26.9157  -30.4111   23.3385 C   0  0  0  0  0  0  0  0  0  0  0  0
  -23.3768  -10.1258   22.8540 C   0  0  0  0  0  0  0  0  0  0  0  0
  -26.0863  -15.4585   19.2700 C   0  0  0  0  0  0  0  0  0  0  0  0
  -25.2145  -17.4647   17.9576 C   0  0  0  0  0  0  0  0  0  0  0  0
  -18.0116  -28.5241   22.8231 C   0  0  0  0  0  0  0  0  0  0  0  0
  -24.7835  -31.3532   22.6856 C   0  0  0  0  0  0  0  0  0  0  0  0
  -19.2573  -28.8784   23.3754 C   0  0  0  0  0  0  0  0  0  0  0  0
  -25.7956  -30.4019   22.4932 C   0  0  0  0  0  0  0  0  0  0  0  0
  -27.9335  -23.3026   26.0954 C   0  0  0  0  0  0  0  0  0  0  0  0
  -28.0817  -22.4475   23.4441 C   0  0  0  0  0  0  0  0  0  0  0  0
  -25.9875  -12.8216   20.1754 C   0  0  0  0  0  0  0  0  0  0  0  0
  -27.0334  -31.3611   24.3527 C   0  0  0  0  0  0  0  0  0  0  0  0
  -24.7231  -11.0583   21.0778 C   0  0  0  0  0  0  0  0  0  0  0  0
  -22.2719  -10.0998   22.0028 C   0  0  0  0  0  0  0  0  0  0  0  0
  -24.6023  -10.6050   22.3914 C   0  0  0  0  0  0  0  0  0  0  0  0
  -26.1375  -16.8206   18.8032 C   0  0  0  0  0  0  0  0  0  0  0  0
  -25.7091  -18.7382   17.8160 C   0  0  0  0  0  0  0  0  0  0  0  0
  -24.0170  -16.9572   17.3540 C   0  0  0  0  0  0  0  0  0  0  0  0
  -22.7028  -29.0358   22.0500 C   0  0  0  0  0  0  0  0  0  0  0  0
  -24.4288  -28.7683   19.3165 C   0  0  0  0  0  0  0  0  0  0  0  0
  -27.3908  -29.2752   17.6991 C   0  0  0  0  0  0  0  0  0  0  0  0
  -29.2368  -22.1496   21.2252 C   0  0  0  0  0  0  0  0  0  0  0  0
  -17.8747  -27.3922   21.8357 C   0  0  0  0  0  0  0  0  0  0  0  0
  -23.5835  -31.3825   21.7792 C   0  0  0  0  0  0  0  0  0  0  0  0
  -25.7105  -29.3621   21.4070 C   0  0  0  0  0  0  0  0  0  0  0  0
  -19.1950  -26.9897   21.1836 C   0  0  0  0  0  0  0  0  0  0  0  0
  -29.8280  -21.1811   17.8503 C   0  0  0  0  0  0  0  0  0  0  0  0
  -20.2920  -26.8596   22.2354 C   0  0  0  0  0  0  0  0  0  0  0  0
  -28.8603  -20.0155   17.6328 C   0  0  0  0  0  0  0  0  0  0  0  0
  -30.4110  -21.1782   19.2624 C   0  0  0  0  0  0  0  0  0  0  0  0
  -28.4512  -19.9609   20.1262 C   0  0  0  0  0  0  0  0  0  0  0  0
  -29.7787  -28.9085   28.2724 C   0  0  0  0  0  0  0  0  0  0  0  0
  -27.1102  -27.8452   27.9925 C   0  0  0  0  0  0  0  0  0  0  0  0
  -20.5379  -28.1968   22.9445 C   0  0  1  0  0  0  0  0  0  0  0  0
  -23.3074  -30.0397   21.1097 C   0  0  1  0  0  0  0  0  0  0  0  0
  -27.7884  -19.9591   18.7389 C   0  0  2  0  0  0  0  0  0  0  0  0
  -28.1872  -27.1813   28.8512 C   0  0  1  0  0  0  0  0  0  0  0  0
  -28.7530  -29.6260   27.3936 C   0  0  2  0  0  0  0  0  0  0  0  0
  -28.5106  -28.9189   15.4818 C   0  0  0  0  0  0  0  0  0  0  0  0
  -24.7544  -25.8035   19.9602 C   0  0  0  0  0  0  0  0  0  0  0  0
  -26.6155  -25.7163   18.2877 C   0  0  0  0  0  0  0  0  0  0  0  0
  -24.3059  -26.3050   17.5515 C   0  0  0  0  0  0  0  0  0  0  0  0
  -27.8146  -32.1791   17.3156 C   0  0  0  0  0  0  0  0  0  0  0  0
  -27.8537  -23.7625   27.5214 C   0  0  0  0  0  0  0  0  0  0  0  0
  -27.9770  -25.6690   28.8899 C   0  0  0  0  0  0  0  0  0  0  0  0
  -28.9399  -31.1358   27.4092 C   0  0  0  0  0  0  0  0  0  0  0  0
  -27.9468  -31.8384   26.4961 C   0  0  0  0  0  0  0  0  0  1  0  0
  -25.6440  -27.9794   18.8923 C   0  0  1  0  0  0  0  0  0  0  0  0
  -27.7075  -29.8808   16.3435 C   0  0  2  0  0  0  0  0  0  0  0  0
  -25.3309  -26.4693   18.6947 C   0  0  0  0  0  0  0  0  0  0  0  0
  -27.1424  -17.6191   19.1728 N   0  0  0  0  0  0  0  0  0  0  0  0
  -26.8538  -18.7779   18.5564 N   0  0  0  0  0  0  0  0  0  0  0  0
  -29.5324  -27.4643   28.3292 N   0  0  0  0  0  0  0  0  0  0  0  0
  -24.5147  -29.4281   20.5507 N   0  0  0  0  0  0  0  0  0  0  0  0
  -29.3373  -21.1281   20.2571 N   0  0  0  0  0  0  0  0  0  0  0  0
  -25.2721  -19.8167   17.1317 N   0  0  0  0  0  0  0  0  0  0  0  0
  -23.6550  -15.6265   17.6041 N   0  0  0  0  0  0  0  0  0  0  0  0
  -28.1574  -22.0131   22.0975 N   0  0  0  0  0  0  0  0  0  0  0  0
  -21.3227  -29.0769   22.1056 N   0  0  0  0  0  0  0  0  0  0  0  0
  -26.1658  -28.6422   17.7021 N   0  0  0  0  0  0  0  0  0  0  0  0
  -27.3830  -29.3129   27.9198 N   0  3  0  0  0  0  0  0  0  0  0  0
  -28.4957  -31.1348   16.5078 N   0  3  0  0  0  0  0  0  0  0  0  0
  -23.2984  -17.6579   16.6016 O   0  0  0  0  0  0  0  0  0  0  0  0
  -23.4342  -28.2787   22.6775 O   0  0  0  0  0  0  0  0  0  0  0  0
  -23.4423  -28.8038   18.5767 O   0  0  0  0  0  0  0  0  0  0  0  0
  -28.1554  -29.3526   18.6582 O   0  0  0  0  0  0  0  0  0  0  0  0
  -30.0327  -23.0916   21.2596 O   0  0  0  0  0  0  0  0  0  0  0  0
  -25.9389  -11.5352   20.6173 O   0  0  0  0  0  0  0  0  0  0  0  0
  -28.1260  -31.3591   25.1640 O   0  0  0  0  0  0  0  0  0  1  0  0
  -28.0417  -25.1727   27.5660 O   0  0  0  0  0  0  0  0  0  0  0  0
  -21.0946   -9.6410   22.4473 F   0  0  0  0  0  0  0  0  0  0  0  0
  -25.6599  -10.6286   23.2141 F   0  0  0  0  0  0  0  0  0  0  0  0
  1  2  1  0  0  0  0
  1  5  2  0  0  0  0
  2  6  2  0  0  0  0
  3 12  2  0  0  0  0
  3 19  1  0  0  0  0
  4 13  1  0  0  0  0
  4 19  2  0  0  0  0
  5 21  1  0  0  0  0
  6 23  1  0  0  0  0
  7 14  2  0  0  0  0
  7 22  1  0  0  0  0
  8 10  2  0  0  0  0
  8 25  1  0  0  0  0
  9 11  1  0  0  0  0
  9 25  2  0  0  0  0
 10 26  1  0  0  0  0
 11 26  2  0  0  0  0
 12 27  1  0  0  0  0
 13 27  2  0  0  0  0
 14 28  1  0  0  0  0
 15 16  2  0  0  0  0
 15 29  1  0  0  0  0
 16 30  1  0  0  0  0
 17 24  1  0  0  0  0
 17 28  2  0  0  0  0
 18 30  2  0  0  0  0
 18 31  1  0  0  0  0
 19 32  1  0  0  0  0
 20 32  1  0  0  0  0
 20 33  2  0  0  0  0
 20 34  1  0  0  0  0
 21 23  2  0  0  0  0
 21 39  1  0  0  0  0
 22 24  2  0  0  0  0
 22 40  1  0  0  0  0
 23 50  1  0  0  0  0
 24 41  1  0  0  0  0
 25 60  1  0  0  0  0
 26 74  1  0  0  0  0
 27 84  1  0  0  0  0
 28 85  1  0  0  0  0
 29 31  2  0  0  0  0
 29 84  1  0  0  0  0
 30 87  1  0  0  0  0
 31 88  1  0  0  0  0
 32 67  2  0  0  0  0
 33 68  1  0  0  0  0
 33 72  1  0  0  0  0
 34 73  1  0  0  0  0
 34 79  2  0  0  0  0
 35 51  1  0  0  0  0
 35 75  1  0  0  0  0
 35 80  2  0  0  0  0
 36 64  1  0  0  0  0
 36 70  1  0  0  0  0
 36 81  2  0  0  0  0
 37 65  1  0  0  0  0
 37 76  1  0  0  0  0
 37 82  2  0  0  0  0
 38 71  1  0  0  0  0
 38 74  1  0  0  0  0
 38 83  2  0  0  0  0
 39 42  1  0  0  0  0
 40 51  1  0  0  0  0
 41 70  1  0  0  0  0
 42 44  1  0  0  0  0
 43 45  1  0  0  0  0
 43 46  1  0  0  0  0
 44 50  1  0  0  0  0
 45 52  1  0  0  0  0
 46 71  1  0  0  0  0
 47 52  1  0  0  0  0
 47 71  1  0  0  0  0
 48 54  1  0  0  0  0
 48 69  1  0  0  0  0
 49 53  1  0  0  0  0
 49 77  1  0  0  0  0
 50 75  1  0  0  0  0
 51 70  1  0  0  0  0
 52 68  1  0  0  0  0
 53 61  1  0  0  0  0
 53 69  1  0  0  0  0
 54 62  1  0  0  0  0
 54 77  1  0  0  0  0
 55 65  1  0  0  0  0
 56 66  1  0  0  0  0
 57 66  1  0  0  0  0
 58 66  1  0  0  0  0
 59 78  1  0  0  0  0
 60 86  1  0  0  0  0
 61 86  1  0  0  0  0
 62 63  1  0  0  0  0
 63 85  1  0  0  0  0
 64 66  1  0  0  0  0
 64 76  1  0  0  0  0
 65 78  1  0  0  0  0
 67 68  1  0  0  0  0
M  CHG  2  77   1  78   1
M  ISO  4  38 100  63 101  74 100  85 101
M  END
> <Batch ID>
0004

> <Smiles>
CNC(C)C(=O)NC(C(=O)N1Cc2cc([101O:1][101CH2:1]CC3CNC(COCc4ccc([100NH:0][100C:0](=O)N5CCCC(n6nc(-c7ccc(Oc8ccc(F)cc8F)cc7)c(C(N)=O)c6N)C5)cc4)CN3)ccc2CC1C(=O)NC1CCCc2ccccc21)C(C)(C)C

> <Shape>
0.277

> <Color>
0.088

> <Negative vol penalty>
0.000

$$$$

  -OEChem-04042320233D

 85 94  0     1  0  0  0  0  0999 V2000
  -24.2090  -10.8676   23.7614 C   0  0  0  0  0  0  0  0  0  0  0  0
  -24.0291  -12.1994   24.1208 C   0  0  0  0  0  0  0  0  0  0  0  0
  -25.4442  -29.2185   19.5515 C   0  0  0  0  0  0  0  0  0  0  0  0
  -29.2291  -17.2855   20.1212 C   0  0  0  0  0  0  0  0  0  0  0  0
  -31.3487  -18.2622   20.7461 C   0  0  0  0  0  0  0  0  0  0  0  0
  -24.7195  -10.5490   22.5037 C   0  0  0  0  0  0  0  0  0  0  0  0
  -24.3605  -13.2136   23.2230 C   0  0  0  0  0  0  0  0  0  0  0  0
  -26.8253  -29.0542   19.4456 C   0  0  0  0  0  0  0  0  0  0  0  0
  -21.5078  -18.5873   22.5221 C   0  0  0  0  0  0  0  0  0  0  0  0
  -24.7078  -28.3984   20.4064 C   0  0  0  0  0  0  0  0  0  0  0  0
  -29.8256  -16.0257   20.0671 C   0  0  0  0  0  0  0  0  0  0  0  0
  -31.9452  -17.0025   20.6921 C   0  0  0  0  0  0  0  0  0  0  0  0
  -21.7855  -19.8664   23.0024 C   0  0  0  0  0  0  0  0  0  0  0  0
  -30.7952  -13.6330   22.2506 C   0  0  0  0  0  0  0  0  0  0  0  0
  -30.1169  -12.5686   22.8444 C   0  0  0  0  0  0  0  0  0  0  0  0
  -26.7336  -27.2497   21.0495 C   0  0  0  0  0  0  0  0  0  0  0  0
  -22.9022  -20.3954   20.9306 C   0  0  0  0  0  0  0  0  0  0  0  0
  -30.0317  -11.4340   20.7131 C   0  0  0  0  0  0  0  0  0  0  0  0
  -29.9907  -18.4037   20.4606 C   0  0  0  0  0  0  0  0  0  0  0  0
  -28.7673  -20.3114   21.6318 C   0  0  0  0  0  0  0  0  0  0  0  0
  -27.4700  -28.0698   20.1946 C   0  0  0  0  0  0  0  0  0  0  0  0
  -25.0483  -11.5595   21.5864 C   0  0  0  0  0  0  0  0  0  0  0  0
  -21.9354  -18.1984   21.2445 C   0  0  0  0  0  0  0  0  0  0  0  0
  -24.8771  -12.9083   21.9523 C   0  0  0  0  0  0  0  0  0  0  0  0
  -22.6264  -19.1117   20.4354 C   0  0  0  0  0  0  0  0  0  0  0  0
  -25.3525  -27.4140   21.1554 C   0  0  0  0  0  0  0  0  0  0  0  0
  -31.1836  -15.8842   20.3526 C   0  0  0  0  0  0  0  0  0  0  0  0
  -22.4853  -20.7696   22.2078 C   0  0  0  0  0  0  0  0  0  0  0  0
  -31.0917  -13.5979   20.8881 C   0  0  0  0  0  0  0  0  0  0  0  0
  -29.7352  -11.4691   22.0757 C   0  0  0  0  0  0  0  0  0  0  0  0
  -30.7100  -12.4984   20.1193 C   0  0  0  0  0  0  0  0  0  0  0  0
  -29.3753  -19.7054   20.5160 C   0  0  0  0  0  0  0  0  0  0  0  0
  -28.3416  -21.5328   21.1696 C   0  0  0  0  0  0  0  0  0  0  0  0
  -28.6021  -19.8148   22.9666 C   0  0  0  0  0  0  0  0  0  0  0  0
  -23.8932  -15.9616   20.1187 C   0  0  0  0  0  0  0  0  0  0  0  0
  -22.8059  -17.0071   17.2469 C   0  0  0  0  0  0  0  0  0  0  0  0
  -21.4180  -19.5332   15.4195 C   0  0  0  0  0  0  0  0  0  0  0  0
  -29.1372  -26.1695   18.2778 C   0  0  0  0  0  0  0  0  0  0  0  0
  -25.6413  -11.1675   20.2562 C   0  0  0  0  0  0  0  0  0  0  0  0
  -21.6046  -16.8240   20.7307 C   0  0  0  0  0  0  0  0  0  0  0  0
  -23.0898  -18.7501   19.0487 C   0  0  0  0  0  0  0  0  0  0  0  0
  -25.6159  -12.2912   19.2232 C   0  0  0  0  0  0  0  0  0  0  0  0
  -30.8969  -27.1478   21.2937 C   0  0  0  0  0  0  0  0  0  0  0  0
  -28.0366  -23.3771   16.4831 C   0  0  0  0  0  0  0  0  0  0  0  0
  -29.6815  -28.0564   21.4286 C   0  0  0  0  0  0  0  0  0  0  0  0
  -26.1086  -13.5958   19.8413 C   0  0  0  0  0  0  0  0  0  0  0  0
  -28.2489  -22.2107   17.4461 C   0  0  0  0  0  0  0  0  0  0  0  0
  -29.1848  -24.3742   16.5771 C   0  0  0  0  0  0  0  0  0  0  0  0
  -30.3494  -25.9663   20.5082 C   0  0  0  0  0  0  0  0  0  0  0  0
  -29.6037  -23.7644   18.9405 C   0  0  0  0  0  0  0  0  0  0  0  0
  -28.9672  -27.8934   20.0804 C   0  0  1  0  0  0  0  0  0  0  0  0
  -25.2016  -14.0359   20.9967 C   0  0  1  0  0  0  0  0  0  0  0  0
  -22.5362  -16.3634   19.6139 C   0  0  1  0  0  0  0  0  0  0  0  0
  -28.4704  -22.7199   18.8800 C   0  0  2  0  0  0  0  0  0  0  0  0
  -20.6823  -20.1046   13.0893 C   0  0  0  0  0  0  0  0  0  0  0  0
  -25.7191  -17.3860   16.4226 C   0  0  0  0  0  0  0  0  0  0  0  0
  -24.9238  -18.8112   14.5240 C   0  0  0  0  0  0  0  0  0  0  0  0
  -24.2509  -16.4123   14.6476 C   0  0  0  0  0  0  0  0  0  0  0  0
  -18.6159  -19.9412   16.2798 C   0  0  0  0  0  0  0  0  0  0  0  0
  -24.5648  -26.5367   22.0691 C   0  0  0  0  0  0  0  0  0  0  0  0
  -23.6383  -24.2511   22.4644 C   0  0  0  0  0  0  0  0  0  0  0  0
  -23.4785  -22.8934   21.8091 C   0  0  0  0  0  0  0  0  0  1  0  0
  -23.2345  -18.0696   16.2639 C   0  0  1  0  0  0  0  0  0  0  0  0
  -20.2586  -19.5482   14.4397 C   0  0  2  0  0  0  0  0  0  0  0  0
  -24.5252  -17.6763   15.4914 C   0  0  0  0  0  0  0  0  0  0  0  0
  -29.3409  -20.4780   19.4270 N   0  0  0  0  0  0  0  0  0  0  0  0
  -28.7061  -21.5820   19.8563 N   0  0  0  0  0  0  0  0  0  0  0  0
  -22.7476  -17.3924   18.5937 N   0  0  0  0  0  0  0  0  0  0  0  0
  -29.3870  -24.8302   17.9529 N   0  0  0  0  0  0  0  0  0  0  0  0
  -29.3684  -26.5623   19.5993 N   0  0  0  0  0  0  0  0  0  0  0  0
  -27.6948  -22.5587   21.7626 N   0  0  0  0  0  0  0  0  0  0  0  0
  -29.0988  -18.5401   23.2715 N   0  0  0  0  0  0  0  0  0  0  0  0
  -23.9861  -14.6327   20.4859 N   0  0  0  0  0  0  0  0  0  0  0  0
  -22.0802  -18.3238   15.4085 N   0  0  0  0  0  0  0  0  0  0  0  0
  -19.1464  -20.3889   14.9663 N   0  3  0  0  0  0  0  0  0  0  0  0
  -24.3721  -25.1572   21.5429 N   0  3  0  0  0  0  0  0  0  0  0  0
  -28.0164  -20.4748   23.8581 O   0  0  0  0  0  0  0  0  0  0  0  0
  -24.7900  -16.7951   20.1697 O   0  0  0  0  0  0  0  0  0  0  0  0
  -22.5260  -15.8788   16.8341 O   0  0  0  0  0  0  0  0  0  0  0  0
  -21.7096  -20.4990   16.1213 O   0  0  0  0  0  0  0  0  0  0  0  0
  -28.7483  -26.9796   17.4267 O   0  0  0  0  0  0  0  0  0  0  0  0
  -31.7659  -14.6551   20.3002 O   0  0  0  0  0  0  0  0  0  0  0  0
  -22.7602  -22.0275   22.6778 O   0  0  0  0  0  0  0  0  0  1  0  0
  -29.0852  -10.4463   22.6463 F   0  0  0  0  0  0  0  0  0  0  0  0
  -30.9931  -12.4585   18.8101 F   0  0  0  0  0  0  0  0  0  0  0  0
  1  2  1  0  0  0  0
  1  6  2  0  0  0  0
  2  7  2  0  0  0  0
  3  8  1  0  0  0  0
  3 10  2  0  0  0  0
  4 11  2  0  0  0  0
  4 19  1  0  0  0  0
  5 12  1  0  0  0  0
  5 19  2  0  0  0  0
  6 22  1  0  0  0  0
  7 24  1  0  0  0  0
  8 21  2  0  0  0  0
  9 13  2  0  0  0  0
  9 23  1  0  0  0  0
 10 26  1  0  0  0  0
 11 27  1  0  0  0  0
 12 27  2  0  0  0  0
 13 28  1  0  0  0  0
 14 15  2  0  0  0  0
 14 29  1  0  0  0  0
 15 30  1  0  0  0  0
 16 21  1  0  0  0  0
 16 26  2  0  0  0  0
 17 25  1  0  0  0  0
 17 28  2  0  0  0  0
 18 30  2  0  0  0  0
 18 31  1  0  0  0  0
 19 32  1  0  0  0  0
 20 32  1  0  0  0  0
 20 33  2  0  0  0  0
 20 34  1  0  0  0  0
 21 51  1  0  0  0  0
 22 24  2  0  0  0  0
 22 39  1  0  0  0  0
 23 25  2  0  0  0  0
 23 40  1  0  0  0  0
 24 52  1  0  0  0  0
 25 41  1  0  0  0  0
 26 60  1  0  0  0  0
 27 82  1  0  0  0  0
 28 83  1  0  0  0  0
 29 31  2  0  0  0  0
 29 82  1  0  0  0  0
 30 84  1  0  0  0  0
 31 85  1  0  0  0  0
 32 66  2  0  0  0  0
 33 67  1  0  0  0  0
 33 71  1  0  0  0  0
 34 72  1  0  0  0  0
 34 77  2  0  0  0  0
 35 53  1  0  0  0  0
 35 73  1  0  0  0  0
 35 78  2  0  0  0  0
 36 63  1  0  0  0  0
 36 68  1  0  0  0  0
 36 79  2  0  0  0  0
 37 64  1  0  0  0  0
 37 74  1  0  0  0  0
 37 80  2  0  0  0  0
 38 69  1  0  0  0  0
 38 70  1  0  0  0  0
 38 81  2  0  0  0  0
 39 42  1  0  0  0  0
 40 53  1  0  0  0  0
 41 68  1  0  0  0  0
 42 46  1  0  0  0  0
 43 45  1  0  0  0  0
 43 49  1  0  0  0  0
 44 47  1  0  0  0  0
 44 48  1  0  0  0  0
 45 51  1  0  0  0  0
 46 52  1  0  0  0  0
 47 54  1  0  0  0  0
 48 69  1  0  0  0  0
 49 70  1  0  0  0  0
 50 54  1  0  0  0  0
 50 69  1  0  0  0  0
 51 70  1  0  0  0  0
 52 73  1  0  0  0  0
 53 68  1  0  0  0  0
 54 67  1  0  0  0  0
 55 64  1  0  0  0  0
 56 65  1  0  0  0  0
 57 65  1  0  0  0  0
 58 65  1  0  0  0  0
 59 75  1  0  0  0  0
 60 76  1  0  0  0  0
 61 62  1  0  0  0  0
 61 76  1  0  0  0  0
 62 83  1  0  0  0  0
 63 65  1  0  0  0  0
 63 74  1  0  0  0  0
 64 75  1  0  0  0  0
 66 67  1  0  0  0  0
M  CHG  2  75   1  76   1
M  ISO  4  38 100  62 101  70 100  83 101
M  END
> <Batch ID>
0004

> <Smiles>
CNC(C)C(=O)NC(C(=O)N1Cc2cc([101O:1][101CH2:1]CNCc3cccc(C4CCC[100N:0]4[100C:0](=O)N4CCCC(n5nc(-c6ccc(Oc7ccc(F)cc7F)cc6)c(C(N)=O)c5N)C4)c3)ccc2CC1C(=O)NC1CCCc2ccccc21)C(C)(C)C

> <Shape>
0.199

> <Color>
0.073

> <Negative vol penalty>
0.000

$$$$

  -OEChem-04042320233D

 83 92  0     1  0  0  0  0  0999 V2000
  -24.0811  -20.1600   25.3804 C   0  0  0  0  0  0  0  0  0  0  0  0
  -25.3068  -20.7488   25.0868 C   0  0  0  0  0  0  0  0  0  0  0  0
  -24.7499  -13.8850   20.9473 C   0  0  0  0  0  0  0  0  0  0  0  0
  -27.0715  -13.2288   20.8192 C   0  0  0  0  0  0  0  0  0  0  0  0
  -22.9175  -20.6381   24.7793 C   0  0  0  0  0  0  0  0  0  0  0  0
  -25.3698  -21.8155   24.1909 C   0  0  0  0  0  0  0  0  0  0  0  0
  -29.1789  -26.6050   24.4314 C   0  0  0  0  0  0  0  0  0  0  0  0
  -32.0127  -23.1268   19.2567 C   0  0  0  0  0  0  0  0  0  0  0  0
  -32.4109  -24.2976   19.9103 C   0  0  0  0  0  0  0  0  0  0  0  0
  -24.3664  -12.6084   20.5365 C   0  0  0  0  0  0  0  0  0  0  0  0
  -26.6881  -11.9522   20.4084 C   0  0  0  0  0  0  0  0  0  0  0  0
  -30.3785  -26.8832   23.7776 C   0  0  0  0  0  0  0  0  0  0  0  0
  -22.7647   -9.4139   19.8692 C   0  0  0  0  0  0  0  0  0  0  0  0
  -21.7188   -8.7983   20.5566 C   0  0  0  0  0  0  0  0  0  0  0  0
  -31.5298  -24.3692   17.2276 C   0  0  0  0  0  0  0  0  0  0  0  0
  -29.1732  -28.1565   22.1208 C   0  0  0  0  0  0  0  0  0  0  0  0
  -22.9922   -8.9234   22.6060 C   0  0  0  0  0  0  0  0  0  0  0  0
  -26.1025  -14.1952   21.0887 C   0  0  0  0  0  0  0  0  0  0  0  0
  -26.6980  -15.9585   22.8334 C   0  0  0  0  0  0  0  0  0  0  0  0
  -22.9650  -21.7175   23.8830 C   0  0  0  0  0  0  0  0  0  0  0  0
  -27.9642  -27.0922   23.9278 C   0  0  0  0  0  0  0  0  0  0  0  0
  -24.2059  -22.3077   23.5762 C   0  0  0  0  0  0  0  0  0  0  0  0
  -31.9359  -25.5174   17.8862 C   0  0  0  0  0  0  0  0  0  0  0  0
  -27.9599  -27.8852   22.7714 C   0  0  0  0  0  0  0  0  0  0  0  0
  -31.5749  -23.1626   17.9247 C   0  0  0  0  0  0  0  0  0  0  0  0
  -32.3724  -25.4976   19.2171 C   0  0  0  0  0  0  0  0  0  0  0  0
  -25.3355  -11.6420   20.2670 C   0  0  0  0  0  0  0  0  0  0  0  0
  -30.3754  -27.6566   22.6205 C   0  0  0  0  0  0  0  0  0  0  0  0
  -23.9244   -9.7843   20.5501 C   0  0  0  0  0  0  0  0  0  0  0  0
  -21.8325   -8.5530   21.9250 C   0  0  0  0  0  0  0  0  0  0  0  0
  -24.0381   -9.5390   21.9185 C   0  0  0  0  0  0  0  0  0  0  0  0
  -26.4992  -15.5140   21.5125 C   0  0  0  0  0  0  0  0  0  0  0  0
  -27.0638  -17.2757   22.7010 C   0  0  0  0  0  0  0  0  0  0  0  0
  -26.5639  -15.2445   24.0695 C   0  0  0  0  0  0  0  0  0  0  0  0
  -25.2940  -25.7598   22.8331 C   0  0  0  0  0  0  0  0  0  0  0  0
  -24.2541  -28.8315   22.7583 C   0  0  0  0  0  0  0  0  0  0  0  0
  -25.0315  -32.1500   22.5868 C   0  0  0  0  0  0  0  0  0  0  0  0
  -29.6685  -20.2103   18.2897 C   0  0  0  0  0  0  0  0  0  0  0  0
  -21.6868  -22.1689   23.2220 C   0  0  0  0  0  0  0  0  0  0  0  0
  -26.6818  -26.8056   24.6597 C   0  0  0  0  0  0  0  0  0  0  0  0
  -31.9525  -26.9230   17.3781 C   0  0  0  0  0  0  0  0  0  0  0  0
  -26.6849  -28.4491   22.2013 C   0  0  0  0  0  0  0  0  0  0  0  0
  -21.7911  -23.5456   22.5706 C   0  0  0  0  0  0  0  0  0  0  0  0
  -26.4937  -21.0484   19.8114 C   0  0  0  0  0  0  0  0  0  0  0  0
  -23.0696  -23.6501   21.7452 C   0  0  0  0  0  0  0  0  0  0  0  0
  -26.1584  -19.7512   20.5498 C   0  0  0  0  0  0  0  0  0  0  0  0
  -32.7617  -27.6321   18.4829 C   0  0  0  0  0  0  0  0  0  0  0  0
  -27.1679  -20.7639   18.4725 C   0  0  0  0  0  0  0  0  0  0  0  0
  -28.0589  -18.6218   19.3038 C   0  0  0  0  0  0  0  0  0  0  0  0
  -24.3118  -23.4829   22.6286 C   0  0  1  0  0  0  0  0  0  0  0  0
  -25.4474  -26.9236   23.7710 C   0  0  1  0  0  0  0  0  0  0  0  0
  -27.3954  -18.8422   20.6754 C   0  0  2  0  0  0  0  0  0  0  0  0
  -23.9669  -34.4211   22.5063 C   0  0  0  0  0  0  0  0  0  0  0  0
  -23.5136  -28.3779   19.8332 C   0  0  0  0  0  0  0  0  0  0  0  0
  -23.3631  -30.8619   19.5585 C   0  0  0  0  0  0  0  0  0  0  0  0
  -21.8346  -29.6892   21.1432 C   0  0  0  0  0  0  0  0  0  0  0  0
  -26.3427  -32.9818   25.1064 C   0  0  0  0  0  0  0  0  0  0  0  0
  -31.1591  -21.8990   17.2488 C   0  0  0  0  0  0  0  0  0  0  0  0
  -33.4728  -27.0346   20.8519 C   0  0  0  0  0  0  0  0  0  0  0  0
  -32.5828  -26.9551   22.0809 C   0  0  0  0  0  0  0  0  0  1  0  0
  -24.2786  -29.9439   21.7380 C   0  0  1  0  0  0  0  0  0  0  0  0
  -24.5541  -33.3398   23.4000 C   0  0  2  0  0  0  0  0  0  0  0  0
  -23.2714  -29.7061   20.5776 C   0  0  0  0  0  0  0  0  0  0  0  0
  -26.7204  -16.4712   20.6076 N   0  0  0  0  0  0  0  0  0  0  0  0
  -27.0617  -17.5303   21.3611 N   0  0  0  0  0  0  0  0  0  0  0  0
  -32.7063  -26.7693   19.6610 N   0  0  2  0  0  0  0  0  0  0  0  0
  -25.4563  -28.1357   22.9494 N   0  0  0  0  0  0  0  0  0  0  0  0
  -28.3484  -19.9095   18.6642 N   0  0  0  0  0  0  0  0  0  0  0  0
  -27.3838  -18.2295   23.6012 N   0  0  0  0  0  0  0  0  0  0  0  0
  -26.1799  -13.8973   24.0247 N   0  0  0  0  0  0  0  0  0  0  0  0
  -24.5788  -24.7020   23.3613 N   0  0  0  0  0  0  0  0  0  0  0  0
  -24.0563  -31.1814   22.4780 N   0  0  0  0  0  0  0  0  0  0  0  0
  -29.8564  -21.4465   17.6838 N   0  0  0  0  0  0  0  0  0  0  0  0
  -25.6863  -33.9293   24.1691 N   0  3  0  0  0  0  0  0  0  0  0  0
  -26.7624  -15.7897   25.1817 O   0  0  0  0  0  0  0  0  0  0  0  0
  -25.7867  -25.8178   21.7125 O   0  0  0  0  0  0  0  0  0  0  0  0
  -23.2088  -28.5934   23.3684 O   0  0  0  0  0  0  0  0  0  0  0  0
  -26.1557  -32.0880   22.0941 O   0  0  0  0  0  0  0  0  0  0  0  0
  -30.6116  -19.4362   18.4857 O   0  0  0  0  0  0  0  0  0  0  0  0
  -24.9616  -10.3961   19.8663 O   0  0  0  0  0  0  0  0  0  0  0  0
  -31.5448  -27.9291   21.9801 O   0  0  0  0  0  0  0  0  0  1  0  0
  -20.8274   -7.9632   22.5854 F   0  0  0  0  0  0  0  0  0  0  0  0
  -25.1493   -9.8936   22.5783 F   0  0  0  0  0  0  0  0  0  0  0  0
  1  2  1  0  0  0  0
  1  5  2  0  0  0  0
  2  6  2  0  0  0  0
  3 10  2  0  0  0  0
  3 18  1  0  0  0  0
  4 11  1  0  0  0  0
  4 18  2  0  0  0  0
  5 20  1  0  0  0  0
  6 22  1  0  0  0  0
  7 12  2  0  0  0  0
  7 21  1  0  0  0  0
  8  9  2  0  0  0  0
  8 25  1  0  0  0  0
  9 26  1  0  0  0  0
 10 27  1  0  0  0  0
 11 27  2  0  0  0  0
 12 28  1  0  0  0  0
 13 14  2  0  0  0  0
 13 29  1  0  0  0  0
 14 30  1  0  0  0  0
 15 23  1  0  0  0  0
 15 25  2  0  0  0  0
 16 24  1  0  0  0  0
 16 28  2  0  0  0  0
 17 30  2  0  0  0  0
 17 31  1  0  0  0  0
 18 32  1  0  0  0  0
 19 32  1  0  0  0  0
 19 33  2  0  0  0  0
 19 34  1  0  0  0  0
 20 22  2  0  0  0  0
 20 39  1  0  0  0  0
 21 24  2  0  0  0  0
 21 40  1  0  0  0  0
 22 50  1  0  0  0  0
 23 26  2  0  0  0  0
 23 41  1  0  0  0  0
 24 42  1  0  0  0  0
 25 58  1  0  0  0  0
 26 66  1  0  0  0  0
 27 80  1  0  0  0  0
 28 81  1  0  0  0  0
 29 31  2  0  0  0  0
 29 80  1  0  0  0  0
 30 82  1  0  0  0  0
 31 83  1  0  0  0  0
 32 64  2  0  0  0  0
 33 65  1  0  0  0  0
 33 69  1  0  0  0  0
 34 70  1  0  0  0  0
 34 75  2  0  0  0  0
 35 51  1  0  0  0  0
 35 71  1  0  0  0  0
 35 76  2  0  0  0  0
 36 61  1  0  0  0  0
 36 67  1  0  0  0  0
 36 77  2  0  0  0  0
 37 62  1  0  0  0  0
 37 72  1  0  0  0  0
 37 78  2  0  0  0  0
 38 68  1  0  0  0  0
 38 73  1  0  0  0  0
 38 79  2  0  0  0  0
 39 43  1  0  0  0  0
 40 51  1  0  0  0  0
 41 47  1  0  0  0  0
 42 67  1  0  0  0  0
 43 45  1  0  0  0  0
 44 46  1  0  0  0  0
 44 48  1  0  0  0  0
 45 50  1  0  0  0  0
 46 52  1  0  0  0  0
 47 66  1  0  0  0  0
 48 68  1  0  0  0  0
 49 52  1  0  0  0  0
 49 68  1  0  0  0  0
 50 71  1  0  0  0  0
 51 67  1  0  0  0  0
 52 65  1  0  0  0  0
 53 62  1  0  0  0  0
 54 63  1  0  0  0  0
 55 63  1  0  0  0  0
 56 63  1  0  0  0  0
 57 74  1  0  0  0  0
 58 73  1  0  0  0  0
 59 60  1  0  0  0  0
 59 66  1  0  0  0  0
 60 81  1  0  0  0  0
 61 63  1  0  0  0  0
 61 72  1  0  0  0  0
 62 74  1  0  0  0  0
 64 65  1  0  0  0  0
M  CHG  1  74   1
M  ISO  4  38 100  60 101  73 100  81 101
M  END
> <Batch ID>
0004

> <Smiles>
CNC(C)C(=O)NC(C(=O)N1Cc2cc([101O:1][101CH2:1]CN3CCc4cc(C[100NH:0][100C:0](=O)N5CCCC(n6nc(-c7ccc(Oc8ccc(F)cc8F)cc7)c(C(N)=O)c6N)C5)ccc43)ccc2CC1C(=O)NC1CCCc2ccccc21)C(C)(C)C

> <Shape>
0.199

> <Color>
0.071

> <Negative vol penalty>
0.000

$$$$

  -OEChem-04042320233D

 84 93  0     1  0  0  0  0  0999 V2000
  -29.0727  -32.6034   24.1423 C   0  0  0  0  0  0  0  0  0  0  0  0
  -28.8173  -31.2691   24.4421 C   0  0  0  0  0  0  0  0  0  0  0  0
  -32.6560  -18.0610   22.2499 C   0  0  0  0  0  0  0  0  0  0  0  0
  -23.0888  -11.0298   23.1318 C   0  0  0  0  0  0  0  0  0  0  0  0
  -23.4073   -9.6422   21.1798 C   0  0  0  0  0  0  0  0  0  0  0  0
  -28.0322  -33.4360   23.7323 C   0  0  0  0  0  0  0  0  0  0  0  0
  -27.5210  -30.7670   24.3331 C   0  0  0  0  0  0  0  0  0  0  0  0
  -27.3702  -26.2629   22.0232 C   0  0  0  0  0  0  0  0  0  0  0  0
  -31.8891  -19.1499   22.6642 C   0  0  0  0  0  0  0  0  0  0  0  0
  -32.0394  -16.9586   21.6579 C   0  0  0  0  0  0  0  0  0  0  0  0
  -22.3013  -10.0346   23.7107 C   0  0  0  0  0  0  0  0  0  0  0  0
  -22.6199   -8.6470   21.7588 C   0  0  0  0  0  0  0  0  0  0  0  0
  -27.7309  -25.1478   22.7782 C   0  0  0  0  0  0  0  0  0  0  0  0
  -22.9827   -6.2272   24.0898 C   0  0  0  0  0  0  0  0  0  0  0  0
  -23.4454   -4.9133   24.0185 C   0  0  0  0  0  0  0  0  0  0  0  0
  -25.3993  -24.6346   23.1233 C   0  0  0  0  0  0  0  0  0  0  0  0
  -21.4560   -4.2786   22.8034 C   0  0  0  0  0  0  0  0  0  0  0  0
  -23.6417  -10.8336   21.8663 C   0  0  0  0  0  0  0  0  0  0  0  0
  -24.0685  -13.1800   20.9608 C   0  0  0  0  0  0  0  0  0  0  0  0
  -26.7243  -32.9414   23.6089 C   0  0  0  0  0  0  0  0  0  0  0  0
  -26.0190  -26.5790   21.8214 C   0  0  0  0  0  0  0  0  0  0  0  0
  -26.4618  -31.5941   23.9224 C   0  0  0  0  0  0  0  0  0  0  0  0
  -25.0240  -25.7529   22.3632 C   0  0  0  0  0  0  0  0  0  0  0  0
  -29.8890  -18.0341   21.8948 C   0  0  0  0  0  0  0  0  0  0  0  0
  -30.5056  -19.1365   22.4867 C   0  0  0  0  0  0  0  0  0  0  0  0
  -30.6560  -16.9452   21.4805 C   0  0  0  0  0  0  0  0  0  0  0  0
  -22.0669   -8.8432   23.0242 C   0  0  0  0  0  0  0  0  0  0  0  0
  -26.7455  -24.3350   23.3308 C   0  0  0  0  0  0  0  0  0  0  0  0
  -21.7565   -6.5668   23.5180 C   0  0  0  0  0  0  0  0  0  0  0  0
  -22.6821   -3.9390   23.3752 C   0  0  0  0  0  0  0  0  0  0  0  0
  -20.9932   -5.5925   22.8748 C   0  0  0  0  0  0  0  0  0  0  0  0
  -24.4548  -11.8614   21.2674 C   0  0  0  0  0  0  0  0  0  0  0  0
  -25.1922  -13.7482   20.4122 C   0  0  0  0  0  0  0  0  0  0  0  0
  -22.8068  -13.8329   21.1546 C   0  0  0  0  0  0  0  0  0  0  0  0
  -24.1563  -29.0443   22.5673 C   0  0  0  0  0  0  0  0  0  0  0  0
  -21.9772  -27.4380   20.7803 C   0  0  0  0  0  0  0  0  0  0  0  0
  -20.9105  -24.4605   19.4984 C   0  0  0  0  0  0  0  0  0  0  0  0
  -30.6846  -14.6627   20.4147 C   0  0  0  0  0  0  0  0  0  0  0  0
  -25.6238  -33.8914   23.2075 C   0  0  0  0  0  0  0  0  0  0  0  0
  -25.6463  -27.7703   20.9821 C   0  0  0  0  0  0  0  0  0  0  0  0
  -23.5591  -26.0372   22.1589 C   0  0  0  0  0  0  0  0  0  0  0  0
  -24.3461  -33.1880   22.7570 C   0  0  0  0  0  0  0  0  0  0  0  0
  -29.5434  -11.6480   18.9028 C   0  0  0  0  0  0  0  0  0  0  0  0
  -23.9763  -32.0759   23.7333 C   0  0  0  0  0  0  0  0  0  0  0  0
  -28.0860  -11.5432   19.3580 C   0  0  0  0  0  0  0  0  0  0  0  0
  -28.5351  -21.4337   24.6862 C   0  0  0  0  0  0  0  0  0  0  0  0
  -28.2713  -22.1118   22.2951 C   0  0  0  0  0  0  0  0  0  0  0  0
  -30.4393  -12.2254   19.9972 C   0  0  0  0  0  0  0  0  0  0  0  0
  -29.7799  -20.6286   24.3233 C   0  0  0  0  0  0  0  0  0  0  0  0
  -29.5180  -21.3118   21.9304 C   0  0  0  0  0  0  0  0  0  0  0  0
  -28.5276  -13.3979   21.0170 C   0  0  0  0  0  0  0  0  0  0  0  0
  -25.0734  -31.0062   23.7924 C   0  0  1  0  0  0  0  0  0  0  0  0
  -24.2409  -28.2888   21.2713 C   0  0  1  0  0  0  0  0  0  0  0  0
  -27.5753  -12.8820   19.9257 C   0  0  2  0  0  0  0  0  0  0  0  0
  -28.3205  -22.6052   23.7365 C   0  0  0  0  0  0  0  0  0  1  0  0
  -28.4039  -18.0204   21.7037 C   0  0  0  0  0  0  0  0  0  0  0  0
  -19.0777  -23.4578   18.1082 C   0  0  0  0  0  0  0  0  0  0  0  0
  -20.0740  -27.6268   23.1577 C   0  0  0  0  0  0  0  0  0  0  0  0
  -18.6809  -25.8381   22.0954 C   0  0  0  0  0  0  0  0  0  0  0  0
  -19.0046  -28.0206   20.9315 C   0  0  0  0  0  0  0  0  0  0  0  0
  -22.8214  -23.5404   17.4341 C   0  0  0  0  0  0  0  0  0  0  0  0
  -20.9302  -26.3873   21.0609 C   0  0  1  0  0  0  0  0  0  0  0  0
  -20.4719  -24.0652   18.0999 C   0  0  2  0  0  0  0  0  0  0  0  0
  -19.6999  -26.9637   21.8170 C   0  0  0  0  0  0  0  0  0  0  0  0
  -25.7246  -11.6069   20.9406 N   0  0  0  0  0  0  0  0  0  0  0  0
  -26.1460  -12.7733   20.4228 N   0  0  0  0  0  0  0  0  0  0  0  0
  -29.7537  -20.2405   22.9085 N   0  0  0  0  0  0  0  0  0  0  0  0
  -23.2453  -27.2170   21.3361 N   0  0  0  0  0  0  0  0  0  0  0  0
  -29.8955  -13.4952   20.4838 N   0  0  0  0  0  0  0  0  0  0  0  0
  -25.4476  -14.9816   19.9265 N   0  0  0  0  0  0  0  0  0  0  0  0
  -21.7586  -13.1032   21.7318 N   0  0  0  0  0  0  0  0  0  0  0  0
  -30.0503  -15.8156   20.8763 N   0  0  0  0  0  0  0  0  0  0  0  0
  -24.9967  -30.1391   22.6363 N   0  0  0  0  0  0  0  0  0  0  0  0
  -20.6092  -25.7773   19.7751 N   0  0  0  0  0  0  0  0  0  0  0  0
  -21.4162  -23.0666   17.5237 N   0  3  0  0  0  0  0  0  0  0  0  0
  -22.6098  -15.0230   20.8106 O   0  0  0  0  0  0  0  0  0  0  0  0
  -23.3845  -28.6632   23.4396 O   0  0  0  0  0  0  0  0  0  0  0  0
  -21.6828  -28.4152   20.0873 O   0  0  0  0  0  0  0  0  0  0  0  0
  -21.4617  -23.6783   20.2696 O   0  0  0  0  0  0  0  0  0  0  0  0
  -31.8285  -14.6464   19.9529 O   0  0  0  0  0  0  0  0  0  0  0  0
  -21.2988   -7.8718   23.5890 O   0  0  0  0  0  0  0  0  0  0  0  0
  -27.0948  -23.2463   24.0687 O   0  0  0  0  0  0  0  0  0  1  0  0
  -23.1274   -2.6776   23.3055 F   0  0  0  0  0  0  0  0  0  0  0  0
  -19.8150   -5.9130   22.3225 F   0  0  0  0  0  0  0  0  0  0  0  0
  1  2  1  0  0  0  0
  1  6  2  0  0  0  0
  2  7  2  0  0  0  0
  3  9  2  0  0  0  0
  3 10  1  0  0  0  0
  4 11  2  0  0  0  0
  4 18  1  0  0  0  0
  5 12  1  0  0  0  0
  5 18  2  0  0  0  0
  6 20  1  0  0  0  0
  7 22  1  0  0  0  0
  8 13  2  0  0  0  0
  8 21  1  0  0  0  0
  9 25  1  0  0  0  0
 10 26  2  0  0  0  0
 11 27  1  0  0  0  0
 12 27  2  0  0  0  0
 13 28  1  0  0  0  0
 14 15  2  0  0  0  0
 14 29  1  0  0  0  0
 15 30  1  0  0  0  0
 16 23  1  0  0  0  0
 16 28  2  0  0  0  0
 17 30  2  0  0  0  0
 17 31  1  0  0  0  0
 18 32  1  0  0  0  0
 19 32  1  0  0  0  0
 19 33  2  0  0  0  0
 19 34  1  0  0  0  0
 20 22  2  0  0  0  0
 20 39  1  0  0  0  0
 21 23  2  0  0  0  0
 21 40  1  0  0  0  0
 22 52  1  0  0  0  0
 23 41  1  0  0  0  0
 24 25  2  0  0  0  0
 24 26  1  0  0  0  0
 24 56  1  0  0  0  0
 25 67  1  0  0  0  0
 26 72  1  0  0  0  0
 27 81  1  0  0  0  0
 28 82  1  0  0  0  0
 29 31  2  0  0  0  0
 29 81  1  0  0  0  0
 30 83  1  0  0  0  0
 31 84  1  0  0  0  0
 32 65  2  0  0  0  0
 33 66  1  0  0  0  0
 33 70  1  0  0  0  0
 34 71  1  0  0  0  0
 34 76  2  0  0  0  0
 35 53  1  0  0  0  0
 35 73  1  0  0  0  0
 35 77  2  0  0  0  0
 36 62  1  0  0  0  0
 36 68  1  0  0  0  0
 36 78  2  0  0  0  0
 37 63  1  0  0  0  0
 37 74  1  0  0  0  0
 37 79  2  0  0  0  0
 38 69  1  0  0  0  0
 38 72  1  0  0  0  0
 38 80  2  0  0  0  0
 39 42  1  0  0  0  0
 40 53  1  0  0  0  0
 41 68  1  0  0  0  0
 42 44  1  0  0  0  0
 43 45  1  0  0  0  0
 43 48  1  0  0  0  0
 44 52  1  0  0  0  0
 45 54  1  0  0  0  0
 46 49  1  0  0  0  0
 46 55  1  0  0  0  0
 47 50  1  0  0  0  0
 47 55  1  0  0  0  0
 48 69  1  0  0  0  0
 49 67  1  0  0  0  0
 50 67  1  0  0  0  0
 51 54  1  0  0  0  0
 51 69  1  0  0  0  0
 52 73  1  0  0  0  0
 53 68  1  0  0  0  0
 54 66  1  0  0  0  0
 55 82  1  0  0  0  0
 57 63  1  0  0  0  0
 58 64  1  0  0  0  0
 59 64  1  0  0  0  0
 60 64  1  0  0  0  0
 61 75  1  0  0  0  0
 62 64  1  0  0  0  0
 62 74  1  0  0  0  0
 63 75  1  0  0  0  0
 65 66  1  0  0  0  0
M  CHG  1  75   1
M  ISO  4  38 100  55 101  72 100  82 101
M  END
> <Batch ID>
0004

> <Smiles>
CNC(C)C(=O)NC(C(=O)N1Cc2cc([101O:1][101CH:1]3CCN(c4cccc([100NH:0][100C:0](=O)N5CCCC(n6nc(-c7ccc(Oc8ccc(F)cc8F)cc7)c(C(N)=O)c6N)C5)c4C)CC3)ccc2CC1C(=O)NC1CCCc2ccccc21)C(C)(C)C

> <Shape>
0.296

> <Color>
0.181

> <Negative vol penalty>
0.000

$$$$

  -OEChem-04042320233D

 99108  0     1  0  0  0  0  0999 V2000
  -25.7453  -13.3827   24.5775 C   0  0  0  0  0  0  0  0  0  0  0  0
  -39.2099  -23.5789   29.5932 C   0  0  0  0  0  0  0  0  0  0  0  0
  -37.8904  -23.3813   29.9874 C   0  0  0  0  0  0  0  0  0  0  0  0
  -25.0369  -14.5811   24.6656 C   0  0  0  0  0  0  0  0  0  0  0  0
  -27.1032  -13.3503   24.8950 C   0  0  0  0  0  0  0  0  0  0  0  0
  -32.2824  -18.2923   26.5352 C   0  0  0  0  0  0  0  0  0  0  0  0
  -23.0752   -9.8669   19.9441 C   0  0  0  0  0  0  0  0  0  0  0  0
  -23.8379   -9.8772   22.2365 C   0  0  0  0  0  0  0  0  0  0  0  0
  -39.5076  -24.5127   28.6015 C   0  0  0  0  0  0  0  0  0  0  0  0
  -36.8679  -24.1182   29.3909 C   0  0  0  0  0  0  0  0  0  0  0  0
  -31.1728  -22.2119   28.1920 C   0  0  0  0  0  0  0  0  0  0  0  0
  -25.6864  -15.7470   25.0711 C   0  0  0  0  0  0  0  0  0  0  0  0
  -27.7527  -14.5162   25.3005 C   0  0  0  0  0  0  0  0  0  0  0  0
  -32.7442  -17.0886   27.0676 C   0  0  0  0  0  0  0  0  0  0  0  0
  -31.2573  -18.2887   25.5892 C   0  0  0  0  0  0  0  0  0  0  0  0
  -22.3326   -8.7134   20.1963 C   0  0  0  0  0  0  0  0  0  0  0  0
  -23.0953   -8.7237   22.4888 C   0  0  0  0  0  0  0  0  0  0  0  0
  -29.9650  -22.3824   28.8671 C   0  0  0  0  0  0  0  0  0  0  0  0
  -19.8686   -7.9238   23.0963 C   0  0  0  0  0  0  0  0  0  0  0  0
  -19.1132   -7.8846   24.2682 C   0  0  0  0  0  0  0  0  0  0  0  0
  -29.4416  -24.2588   27.4444 C   0  0  0  0  0  0  0  0  0  0  0  0
  -31.1561  -15.8778   25.7079 C   0  0  0  0  0  0  0  0  0  0  0  0
  -20.3572   -5.9491   25.0054 C   0  0  0  0  0  0  0  0  0  0  0  0
  -23.8279  -10.4488   20.9641 C   0  0  0  0  0  0  0  0  0  0  0  0
  -24.1674  -12.9741   20.8407 C   0  0  0  0  0  0  0  0  0  0  0  0
  -38.4872  -25.2545   27.9858 C   0  0  0  0  0  0  0  0  0  0  0  0
  -31.5297  -23.0718   27.1433 C   0  0  0  0  0  0  0  0  0  0  0  0
  -37.1524  -25.0638   28.3910 C   0  0  0  0  0  0  0  0  0  0  0  0
  -30.6534  -24.0955   26.7558 C   0  0  0  0  0  0  0  0  0  0  0  0
  -27.0443  -15.7146   25.3885 C   0  0  0  0  0  0  0  0  0  0  0  0
  -32.1811  -15.8814   26.6540 C   0  0  0  0  0  0  0  0  0  0  0  0
  -30.6942  -17.0814   25.1755 C   0  0  0  0  0  0  0  0  0  0  0  0
  -22.3427   -8.1418   21.4687 C   0  0  0  0  0  0  0  0  0  0  0  0
  -29.1005  -23.4077   28.4952 C   0  0  0  0  0  0  0  0  0  0  0  0
  -20.8683   -6.9756   22.8789 C   0  0  0  0  0  0  0  0  0  0  0  0
  -19.3575   -6.8973   25.2227 C   0  0  0  0  0  0  0  0  0  0  0  0
  -21.1126   -5.9883   23.8334 C   0  0  0  0  0  0  0  0  0  0  0  0
  -24.5956  -11.6400   20.7040 C   0  0  0  0  0  0  0  0  0  0  0  0
  -25.2584  -13.7241   20.4752 C   0  0  0  0  0  0  0  0  0  0  0  0
  -22.8970  -13.4893   21.2606 C   0  0  0  0  0  0  0  0  0  0  0  0
  -33.9018  -25.1257   26.6352 C   0  0  0  0  0  0  0  0  0  0  0  0
  -32.5678  -25.3358   23.6859 C   0  0  0  0  0  0  0  0  0  0  0  0
  -25.2061  -22.7757   28.3351 C   0  0  0  0  0  0  0  0  0  0  0  0
  -29.7947  -24.9822   21.7285 C   0  0  0  0  0  0  0  0  0  0  0  0
  -30.7415  -14.7480   20.6554 C   0  0  0  0  0  0  0  0  0  0  0  0
  -38.8627  -26.2864   26.9519 C   0  0  0  0  0  0  0  0  0  0  0  0
  -32.8240  -22.8580   26.4076 C   0  0  0  0  0  0  0  0  0  0  0  0
  -30.9805  -25.0331   25.6234 C   0  0  0  0  0  0  0  0  0  0  0  0
  -37.6830  -26.7579   26.1056 C   0  0  0  0  0  0  0  0  0  0  0  0
  -29.6030  -12.3597   18.2729 C   0  0  0  0  0  0  0  0  0  0  0  0
  -36.4825  -27.0738   26.9921 C   0  0  0  0  0  0  0  0  0  0  0  0
  -28.1663  -12.0653   18.7080 C   0  0  0  0  0  0  0  0  0  0  0  0
  -30.5214  -12.5828   19.4724 C   0  0  0  0  0  0  0  0  0  0  0  0
  -28.6208  -13.3138   20.8605 C   0  0  0  0  0  0  0  0  0  0  0  0
  -36.0130  -25.8262   27.7501 C   0  0  1  0  0  0  0  0  0  0  0  0
  -33.3189  -24.1114   25.6924 C   0  0  1  0  0  0  0  0  0  0  0  0
  -27.6453  -13.1370   19.6843 C   0  0  2  0  0  0  0  0  0  0  0  0
  -32.6746  -14.5949   27.2248 C   0  0  0  0  0  0  0  0  0  0  0  0
  -29.0035  -25.2647   19.3638 C   0  0  0  0  0  0  0  0  0  0  0  0
  -32.4725  -28.3598   24.0815 C   0  0  0  0  0  0  0  0  0  0  0  0
  -30.8540  -28.4881   22.1757 C   0  0  0  0  0  0  0  0  0  0  0  0
  -33.1642  -27.6285   21.7921 C   0  0  0  0  0  0  0  0  0  0  0  0
  -29.1243  -22.1097   21.4870 C   0  0  0  0  0  0  0  0  0  0  0  0
  -27.7436  -16.9683   25.8244 C   0  0  0  0  0  0  0  0  0  0  0  0
  -25.8009  -22.5917   29.7225 C   0  0  0  0  0  0  0  0  0  0  0  0
  -27.3823  -21.4368   25.2424 C   0  0  0  0  0  0  0  0  0  0  0  0
  -26.0293  -22.1525   25.1671 C   0  0  0  0  0  0  0  0  0  0  0  0
  -27.2453  -19.9571   24.8701 C   0  0  0  0  0  0  0  0  0  0  0  0
  -29.9512  -17.7622   22.8183 C   0  0  0  0  0  0  0  0  0  0  0  0
  -25.0116  -21.5880   26.1531 C   0  0  0  0  0  0  0  0  0  0  0  0
  -30.8071  -16.9001   21.8897 C   0  0  0  0  0  0  0  0  0  0  0  0
  -28.5472  -19.1763   24.9999 C   0  0  0  0  0  0  0  0  0  0  0  0
  -27.3107  -22.4097   29.7022 C   0  0  0  0  0  0  0  0  0  1  0  0
  -29.5828  -17.0776   24.1489 C   0  0  2  0  0  0  0  0  0  0  0  0
  -31.5032  -26.1991   23.0531 C   0  0  1  0  0  0  0  0  0  0  0  0
  -29.5889  -24.3032   20.3864 C   0  0  2  0  0  0  0  0  0  0  0  0
  -31.9929  -27.6526   22.7983 C   0  0  0  0  0  0  0  0  0  0  0  0
  -25.8600  -11.5448   20.2843 N   0  0  0  0  0  0  0  0  0  0  0  0
  -26.2357  -12.8285   20.1540 N   0  0  0  0  0  0  0  0  0  0  0  0
  -32.2606  -24.7872   24.9391 N   0  0  0  0  0  0  0  0  0  0  0  0
  -29.9711  -13.6119   20.3578 N   0  0  0  0  0  0  0  0  0  0  0  0
  -25.4676  -15.0556   20.4003 N   0  0  0  0  0  0  0  0  0  0  0  0
  -21.8863  -12.5796   21.6002 N   0  0  0  0  0  0  0  0  0  0  0  0
  -35.2524  -24.9597   26.8754 N   0  0  0  0  0  0  0  0  0  0  0  0
  -25.4618  -21.6799   27.5233 N   0  0  0  0  0  0  0  0  0  0  0  0
  -31.0685  -25.4957   21.8511 N   0  0  0  0  0  0  0  0  0  0  0  0
  -30.1426  -15.6773   21.4971 N   0  0  0  0  0  0  0  0  0  0  0  0
  -28.6610  -23.1458   20.5284 N   0  3  0  0  0  0  0  0  0  0  0  0
  -28.3351  -17.7465   24.6737 N   0  3  1  0  0  0  0  0  0  0  0  0
  -22.6597  -14.7198   21.3168 O   0  0  0  0  0  0  0  0  0  0  0  0
  -33.1800  -25.9955   27.1086 O   0  0  0  0  0  0  0  0  0  0  0  0
  -33.6300  -25.1492   23.0870 O   0  0  0  0  0  0  0  0  0  0  0  0
  -24.5812  -23.7774   27.9975 O   0  0  0  0  0  0  0  0  0  0  0  0
  -28.9124  -25.0535   22.5812 O   0  0  0  0  0  0  0  0  0  0  0  0
  -31.8768  -14.9240   20.2002 O   0  0  0  0  0  0  0  0  0  0  0  0
  -21.6180   -7.0164   21.7153 O   0  0  0  0  0  0  0  0  0  0  0  0
  -27.9212  -23.5768   29.1529 O   0  0  0  0  0  0  0  0  0  1  0  0
  -18.6330   -6.8607   26.3488 F   0  0  0  0  0  0  0  0  0  0  0  0
  -22.0725   -5.0754   23.6307 F   0  0  0  0  0  0  0  0  0  0  0  0
  1  4  1  0  0  0  0
  1  5  2  0  0  0  0
  2  3  1  0  0  0  0
  2  9  2  0  0  0  0
  3 10  2  0  0  0  0
  4 12  2  0  0  0  0
  5 13  1  0  0  0  0
  6 14  1  0  0  0  0
  6 15  2  0  0  0  0
  7 16  2  0  0  0  0
  7 24  1  0  0  0  0
  8 17  1  0  0  0  0
  8 24  2  0  0  0  0
  9 26  1  0  0  0  0
 10 28  1  0  0  0  0
 11 18  2  0  0  0  0
 11 27  1  0  0  0  0
 12 30  1  0  0  0  0
 13 30  2  0  0  0  0
 14 31  2  0  0  0  0
 15 32  1  0  0  0  0
 16 33  1  0  0  0  0
 17 33  2  0  0  0  0
 18 34  1  0  0  0  0
 19 20  2  0  0  0  0
 19 35  1  0  0  0  0
 20 36  1  0  0  0  0
 21 29  1  0  0  0  0
 21 34  2  0  0  0  0
 22 31  1  0  0  0  0
 22 32  2  0  0  0  0
 23 36  2  0  0  0  0
 23 37  1  0  0  0  0
 24 38  1  0  0  0  0
 25 38  1  0  0  0  0
 25 39  2  0  0  0  0
 25 40  1  0  0  0  0
 26 28  2  0  0  0  0
 26 46  1  0  0  0  0
 27 29  2  0  0  0  0
 27 47  1  0  0  0  0
 28 55  1  0  0  0  0
 29 48  1  0  0  0  0
 30 64  1  0  0  0  0
 31 58  1  0  0  0  0
 32 74  1  0  0  0  0
 33 96  1  0  0  0  0
 34 97  1  0  0  0  0
 35 37  2  0  0  0  0
 35 96  1  0  0  0  0
 36 98  1  0  0  0  0
 37 99  1  0  0  0  0
 38 78  2  0  0  0  0
 39 79  1  0  0  0  0
 39 82  1  0  0  0  0
 40 83  1  0  0  0  0
 40 90  2  0  0  0  0
 41 56  1  0  0  0  0
 41 84  1  0  0  0  0
 41 91  2  0  0  0  0
 42 75  1  0  0  0  0
 42 80  1  0  0  0  0
 42 92  2  0  0  0  0
 43 65  1  0  0  0  0
 43 85  1  0  0  0  0
 43 93  2  0  0  0  0
 44 76  1  0  0  0  0
 44 86  1  0  0  0  0
 44 94  2  0  0  0  0
 45 81  1  0  0  0  0
 45 87  1  0  0  0  0
 45 95  2  0  0  0  0
 46 49  1  0  0  0  0
 47 56  1  0  0  0  0
 48 80  1  0  0  0  0
 49 51  1  0  0  0  0
 50 52  1  0  0  0  0
 50 53  1  0  0  0  0
 51 55  1  0  0  0  0
 52 57  1  0  0  0  0
 53 81  1  0  0  0  0
 54 57  1  0  0  0  0
 54 81  1  0  0  0  0
 55 84  1  0  0  0  0
 56 80  1  0  0  0  0
 57 79  1  0  0  0  0
 59 76  1  0  0  0  0
 60 77  1  0  0  0  0
 61 77  1  0  0  0  0
 62 77  1  0  0  0  0
 63 88  1  0  0  0  0
 64 89  1  0  0  0  0
 65 73  1  0  0  0  0
 66 67  1  0  0  0  0
 66 68  1  0  0  0  0
 67 70  1  0  0  0  0
 68 72  1  0  0  0  0
 69 71  1  0  0  0  0
 69 74  1  0  0  0  0
 70 85  1  0  0  0  0
 71 87  1  0  0  0  0
 72 89  1  0  0  0  0
 73 97  1  0  0  0  0
 74 89  1  0  0  0  0
 75 77  1  0  0  0  0
 75 86  1  0  0  0  0
 76 88  1  0  0  0  0
 78 79  1  0  0  0  0
M  CHG  2  88   1  89   1
M  ISO  4  45 100  73 101  87 100  97 101
M  END
> <Batch ID>
0004

> <Smiles>
CNC(C)C(=O)NC(C(=O)N1Cc2cc([101O:1][101CH2:1]CC(=O)NCCCCCN(Cc3ccccc3)C(CC[100NH:0][100C:0](=O)N3CCCC(n4nc(-c5ccc(Oc6ccc(F)cc6F)cc5)c(C(N)=O)c4N)C3)c3cccc(C)c3)ccc2CC1C(=O)NC1CCCc2ccccc21)C(C)(C)C

> <Shape>
0.181

> <Color>
0.180

> <Negative vol penalty>
0.000

$$$$

  -OEChem-04042320233D

 84 92  0     1  0  0  0  0  0999 V2000
  -23.5787  -24.1290   19.5946 C   0  0  0  0  0  0  0  0  0  0  0  0
  -24.5157  -23.2508   20.1296 C   0  0  0  0  0  0  0  0  0  0  0  0
  -22.3593  -28.5848   20.7171 C   0  0  0  0  0  0  0  0  0  0  0  0
  -23.2713  -26.9169   22.2083 C   0  0  0  0  0  0  0  0  0  0  0  0
  -22.2181  -23.9062   19.8019 C   0  0  0  0  0  0  0  0  0  0  0  0
  -24.0925  -22.1497   20.8733 C   0  0  0  0  0  0  0  0  0  0  0  0
  -26.5420  -17.8993   19.6168 C   0  0  0  0  0  0  0  0  0  0  0  0
  -30.8622  -22.0229   22.0062 C   0  0  0  0  0  0  0  0  0  0  0  0
  -30.8484  -22.4432   20.6762 C   0  0  0  0  0  0  0  0  0  0  0  0
  -21.0852  -28.3504   21.2340 C   0  0  0  0  0  0  0  0  0  0  0  0
  -21.9971  -26.6825   22.7252 C   0  0  0  0  0  0  0  0  0  0  0  0
  -27.8315  -17.7349   20.1206 C   0  0  0  0  0  0  0  0  0  0  0  0
  -19.3200  -29.2001   23.9899 C   0  0  0  0  0  0  0  0  0  0  0  0
  -18.5319  -30.3085   24.2992 C   0  0  0  0  0  0  0  0  0  0  0  0
  -26.9665  -16.2875   21.8457 C   0  0  0  0  0  0  0  0  0  0  0  0
  -28.7260  -20.9406   21.6864 C   0  0  0  0  0  0  0  0  0  0  0  0
  -16.8591  -29.5583   22.7256 C   0  0  0  0  0  0  0  0  0  0  0  0
  -23.4524  -27.8681   21.2042 C   0  0  0  0  0  0  0  0  0  0  0  0
  -25.7163  -29.0416   21.1337 C   0  0  0  0  0  0  0  0  0  0  0  0
  -21.7777  -22.7965   20.5403 C   0  0  0  0  0  0  0  0  0  0  0  0
  -25.4518  -17.2667   20.2313 C   0  0  0  0  0  0  0  0  0  0  0  0
  -22.7248  -21.9126   21.0918 C   0  0  0  0  0  0  0  0  0  0  0  0
  -25.6645  -16.4434   21.3462 C   0  0  0  0  0  0  0  0  0  0  0  0
  -29.8011  -21.2715   22.5113 C   0  0  0  0  0  0  0  0  0  0  0  0
  -29.7734  -22.1123   19.8514 C   0  0  0  0  0  0  0  0  0  0  0  0
  -20.9041  -27.3992   22.2381 C   0  0  0  0  0  0  0  0  0  0  0  0
  -28.0436  -16.9312   21.2370 C   0  0  0  0  0  0  0  0  0  0  0  0
  -18.8777  -28.2707   23.0484 C   0  0  0  0  0  0  0  0  0  0  0  0
  -17.3014  -30.4877   23.6672 C   0  0  0  0  0  0  0  0  0  0  0  0
  -28.7122  -21.3609   20.3565 C   0  0  0  0  0  0  0  0  0  0  0  0
  -17.6473  -28.4499   22.4163 C   0  0  0  0  0  0  0  0  0  0  0  0
  -24.7687  -28.1094   20.6702 C   0  0  0  0  0  0  0  0  0  0  0  0
  -26.7936  -28.8812   20.2968 C   0  0  0  0  0  0  0  0  0  0  0  0
  -25.6306  -29.9695   22.2233 C   0  0  0  0  0  0  0  0  0  0  0  0
  -22.7997  -18.2642   21.6719 C   0  0  0  0  0  0  0  0  0  0  0  0
  -22.1058  -15.0961   21.7314 C   0  0  0  0  0  0  0  0  0  0  0  0
  -23.2440  -11.8792   21.6742 C   0  0  0  0  0  0  0  0  0  0  0  0
  -28.7286  -24.2902   16.9758 C   0  0  0  0  0  0  0  0  0  0  0  0
  -20.2984  -22.6233   20.7778 C   0  0  0  0  0  0  0  0  0  0  0  0
  -24.0705  -17.4327   19.6595 C   0  0  0  0  0  0  0  0  0  0  0  0
  -24.5305  -15.7260   22.0302 C   0  0  0  0  0  0  0  0  0  0  0  0
  -19.9186  -21.2260   21.2610 C   0  0  0  0  0  0  0  0  0  0  0  0
  -27.9044  -27.5604   15.8345 C   0  0  0  0  0  0  0  0  0  0  0  0
  -20.8547  -20.7744   22.3775 C   0  0  0  0  0  0  0  0  0  0  0  0
  -27.0928  -28.1561   16.9862 C   0  0  0  0  0  0  0  0  0  0  0  0
  -27.6215  -26.0704   15.6562 C   0  0  0  0  0  0  0  0  0  0  0  0
  -26.9819  -25.8529   18.0263 C   0  0  0  0  0  0  0  0  0  0  0  0
  -22.3041  -20.6933   21.8833 C   0  0  1  0  0  0  0  0  0  0  0  0
  -22.9662  -17.1531   20.6742 C   0  0  1  0  0  0  0  0  0  0  0  0
  -27.2753  -27.3413   18.2809 C   0  0  2  0  0  0  0  0  0  0  0  0
  -22.4418   -9.5037   21.7762 C   0  0  0  0  0  0  0  0  0  0  0  0
  -21.6634  -15.3770   24.7373 C   0  0  0  0  0  0  0  0  0  0  0  0
  -21.8089  -12.8844   24.9213 C   0  0  0  0  0  0  0  0  0  0  0  0
  -19.9927  -13.9295   23.5678 C   0  0  0  0  0  0  0  0  0  0  0  0
  -24.3367  -11.2729   18.9914 C   0  0  0  0  0  0  0  0  0  0  0  0
  -29.7606  -22.5641   18.4300 C   0  0  0  0  0  0  0  0  0  0  0  0
  -29.8158  -20.8197   23.9419 C   0  0  0  0  0  0  0  0  0  0  0  0
  -30.7469  -17.1202   23.6128 C   0  0  0  0  0  0  0  0  0  0  0  0
  -30.8686  -18.6212   23.3970 C   0  0  0  0  0  0  0  0  0  0  0  0
  -29.4229  -16.5374   23.1339 C   0  0  0  0  0  0  0  0  0  1  0  0
  -22.3650  -13.9627   22.6944 C   0  0  1  0  0  0  0  0  0  0  0  0
  -22.8046  -10.6694   20.8694 C   0  0  2  0  0  0  0  0  0  0  0  0
  -21.4788  -14.0534   23.9687 C   0  0  0  0  0  0  0  0  0  0  0  0
  -25.2055  -27.4088   19.6203 N   0  0  0  0  0  0  0  0  0  0  0  0
  -26.4393  -27.9011   19.4170 N   0  0  0  0  0  0  0  0  0  0  0  0
  -23.1976  -15.9250   21.4374 N   0  0  0  0  0  0  0  0  0  0  0  0
  -27.8143  -25.3550   16.9199 N   0  0  0  0  0  0  0  0  0  0  0  0
  -27.9997  -29.4843   20.2350 N   0  0  0  0  0  0  0  0  0  0  0  0
  -24.4519  -30.0034   22.9809 N   0  0  0  0  0  0  0  0  0  0  0  0
  -22.5061  -19.4898   21.1053 N   0  0  0  0  0  0  0  0  0  0  0  0
  -22.1910  -12.7312   21.9319 N   0  0  0  0  0  0  0  0  0  0  0  0
  -28.8554  -23.6705   18.2130 N   0  0  0  0  0  0  0  0  0  0  0  0
  -23.8965  -10.2312   19.9547 N   0  3  0  0  0  0  0  0  0  0  0  0
  -29.7704  -19.3383   24.0864 N   0  3  0  0  0  0  0  0  0  0  0  0
  -26.5650  -30.7571   22.5063 O   0  0  0  0  0  0  0  0  0  0  0  0
  -22.9267  -18.0268   22.8674 O   0  0  0  0  0  0  0  0  0  0  0  0
  -20.9779  -15.2362   21.2520 O   0  0  0  0  0  0  0  0  0  0  0  0
  -24.4047  -12.0495   22.0410 O   0  0  0  0  0  0  0  0  0  0  0  0
  -29.3874  -23.9226   15.9971 O   0  0  0  0  0  0  0  0  0  0  0  0
  -19.6610  -27.1703   22.7429 O   0  0  0  0  0  0  0  0  0  0  0  0
  -29.3012  -16.7696   21.7312 O   0  0  0  0  0  0  0  0  0  1  0  0
  -16.5440  -31.5514   23.9655 F   0  0  0  0  0  0  0  0  0  0  0  0
  -27.6744  -21.0389   19.5716 F   0  0  0  0  0  0  0  0  0  0  0  0
  -17.2165  -27.5598   21.5118 F   0  0  0  0  0  0  0  0  0  0  0  0
  1  2  1  0  0  0  0
  1  5  2  0  0  0  0
  2  6  2  0  0  0  0
  3 10  2  0  0  0  0
  3 18  1  0  0  0  0
  4 11  1  0  0  0  0
  4 18  2  0  0  0  0
  5 20  1  0  0  0  0
  6 22  1  0  0  0  0
  7 12  2  0  0  0  0
  7 21  1  0  0  0  0
  8  9  2  0  0  0  0
  8 24  1  0  0  0  0
  9 25  1  0  0  0  0
 10 26  1  0  0  0  0
 11 26  2  0  0  0  0
 12 27  1  0  0  0  0
 13 14  2  0  0  0  0
 13 28  1  0  0  0  0
 14 29  1  0  0  0  0
 15 23  1  0  0  0  0
 15 27  2  0  0  0  0
 16 24  2  0  0  0  0
 16 30  1  0  0  0  0
 17 29  2  0  0  0  0
 17 31  1  0  0  0  0
 18 32  1  0  0  0  0
 19 32  1  0  0  0  0
 19 33  2  0  0  0  0
 19 34  1  0  0  0  0
 20 22  2  0  0  0  0
 20 39  1  0  0  0  0
 21 23  2  0  0  0  0
 21 40  1  0  0  0  0
 22 48  1  0  0  0  0
 23 41  1  0  0  0  0
 24 57  1  0  0  0  0
 25 30  2  0  0  0  0
 25 56  1  0  0  0  0
 26 80  1  0  0  0  0
 27 81  1  0  0  0  0
 28 31  2  0  0  0  0
 28 80  1  0  0  0  0
 29 82  1  0  0  0  0
 30 83  1  0  0  0  0
 31 84  1  0  0  0  0
 32 64  2  0  0  0  0
 33 65  1  0  0  0  0
 33 68  1  0  0  0  0
 34 69  1  0  0  0  0
 34 75  2  0  0  0  0
 35 49  1  0  0  0  0
 35 70  1  0  0  0  0
 35 76  2  0  0  0  0
 36 61  1  0  0  0  0
 36 66  1  0  0  0  0
 36 77  2  0  0  0  0
 37 62  1  0  0  0  0
 37 71  1  0  0  0  0
 37 78  2  0  0  0  0
 38 67  1  0  0  0  0
 38 72  1  0  0  0  0
 38 79  2  0  0  0  0
 39 42  1  0  0  0  0
 40 49  1  0  0  0  0
 41 66  1  0  0  0  0
 42 44  1  0  0  0  0
 43 45  1  0  0  0  0
 43 46  1  0  0  0  0
 44 48  1  0  0  0  0
 45 50  1  0  0  0  0
 46 67  1  0  0  0  0
 47 50  1  0  0  0  0
 47 67  1  0  0  0  0
 48 70  1  0  0  0  0
 49 66  1  0  0  0  0
 50 65  1  0  0  0  0
 51 62  1  0  0  0  0
 52 63  1  0  0  0  0
 53 63  1  0  0  0  0
 54 63  1  0  0  0  0
 55 73  1  0  0  0  0
 56 72  1  0  0  0  0
 57 74  1  0  0  0  0
 58 59  1  0  0  0  0
 58 60  1  0  0  0  0
 59 74  1  0  0  0  0
 60 81  1  0  0  0  0
 61 63  1  0  0  0  0
 61 71  1  0  0  0  0
 62 73  1  0  0  0  0
 64 65  1  0  0  0  0
M  CHG  2  73   1  74   1
M  ISO  4  38 100  60 101  72 100  81 101
M  END
> <Batch ID>
0004

> <Smiles>
CNC(C)C(=O)NC(C(=O)N1Cc2cc([101O:1][101CH2:1]CCNCc3ccc(C[100NH:0][100C:0](=O)N4CCCC(n5nc(-c6ccc(Oc7ccc(F)cc7F)cc6)c(C(N)=O)c5N)C4)c(F)c3)ccc2CC1C(=O)NC1CCCc2ccccc21)C(C)(C)C

> <Shape>
0.227

> <Color>
0.055

> <Negative vol penalty>
0.000

$$$$

  -OEChem-04042320233D

 87 96  0     1  0  0  0  0  0999 V2000
  -22.3671   -8.7790   23.6381 C   0  0  0  0  0  0  0  0  0  0  0  0
  -23.4203   -9.5443   23.1475 C   0  0  0  0  0  0  0  0  0  0  0  0
  -22.3314  -27.8738   20.8725 C   0  0  0  0  0  0  0  0  0  0  0  0
  -23.6436  -27.2204   22.7930 C   0  0  0  0  0  0  0  0  0  0  0  0
  -21.0509   -9.1667   23.3909 C   0  0  0  0  0  0  0  0  0  0  0  0
  -23.1577  -10.6973   22.4085 C   0  0  0  0  0  0  0  0  0  0  0  0
  -26.0563  -14.6057   23.8111 C   0  0  0  0  0  0  0  0  0  0  0  0
  -21.1602  -27.6328   21.5908 C   0  0  0  0  0  0  0  0  0  0  0  0
  -22.4724  -26.9795   23.5113 C   0  0  0  0  0  0  0  0  0  0  0  0
  -27.3724  -14.6195   23.3515 C   0  0  0  0  0  0  0  0  0  0  0  0
  -19.3163  -29.2049   23.9491 C   0  0  0  0  0  0  0  0  0  0  0  0
  -18.3002  -30.1572   23.8706 C   0  0  0  0  0  0  0  0  0  0  0  0
  -26.7461  -16.1816   21.6233 C   0  0  0  0  0  0  0  0  0  0  0  0
  -16.8083  -28.4901   22.9583 C   0  0  0  0  0  0  0  0  0  0  0  0
  -23.5731  -27.6675   21.4737 C   0  0  0  0  0  0  0  0  0  0  0  0
  -30.3836  -19.4824   21.1909 C   0  0  0  0  0  0  0  0  0  0  0  0
  -25.4997  -29.1251   20.6542 C   0  0  0  0  0  0  0  0  0  0  0  0
  -20.7721  -10.3303   22.6568 C   0  0  0  0  0  0  0  0  0  0  0  0
  -25.0712  -15.3726   23.1724 C   0  0  0  0  0  0  0  0  0  0  0  0
  -21.8365  -11.1002   22.1502 C   0  0  0  0  0  0  0  0  0  0  0  0
  -25.4187  -16.1777   22.0783 C   0  0  0  0  0  0  0  0  0  0  0  0
  -31.0367  -20.4836   20.4324 C   0  0  0  0  0  0  0  0  0  0  0  0
  -21.2307  -27.1857   22.9101 C   0  0  0  0  0  0  0  0  0  0  0  0
  -27.7170  -15.4053   22.2556 C   0  0  0  0  0  0  0  0  0  0  0  0
  -19.0785  -27.8952   23.5321 C   0  0  0  0  0  0  0  0  0  0  0  0
  -17.0462  -29.7998   23.3752 C   0  0  0  0  0  0  0  0  0  0  0  0
  -17.8244  -27.5378   23.0367 C   0  0  0  0  0  0  0  0  0  0  0  0
  -24.7833  -27.9157   20.7321 C   0  0  0  0  0  0  0  0  0  0  0  0
  -29.5006  -20.1180   22.0378 C   0  0  0  0  0  0  0  0  0  0  0  0
  -30.5357  -21.7017   20.8362 C   0  0  0  0  0  0  0  0  0  0  0  0
  -26.5631  -28.8419   19.8324 C   0  0  0  0  0  0  0  0  0  0  0  0
  -28.5824  -19.6763   23.0180 C   0  0  0  0  0  0  0  0  0  0  0  0
  -27.8513  -20.5750   23.6874 C   0  0  0  0  0  0  0  0  0  0  0  0
  -28.0647  -22.0000   23.3415 C   0  0  0  0  0  0  0  0  0  0  0  0
  -30.5835  -18.0121   21.1175 C   0  0  0  0  0  0  0  0  0  0  0  0
  -25.2282  -30.3912   21.2698 C   0  0  0  0  0  0  0  0  0  0  0  0
  -22.3686  -14.7198   21.6319 C   0  0  0  0  0  0  0  0  0  0  0  0
  -22.0626  -17.9490   21.6013 C   0  0  0  0  0  0  0  0  0  0  0  0
  -23.5765  -21.0041   21.7469 C   0  0  0  0  0  0  0  0  0  0  0  0
  -29.4275  -23.7622   18.4747 C   0  0  0  0  0  0  0  0  0  0  0  0
  -19.3332  -10.6835   22.3750 C   0  0  0  0  0  0  0  0  0  0  0  0
  -23.6615  -15.3674   23.6970 C   0  0  0  0  0  0  0  0  0  0  0  0
  -24.4028  -17.0349   21.3701 C   0  0  0  0  0  0  0  0  0  0  0  0
  -19.1404  -12.1222   21.9025 C   0  0  0  0  0  0  0  0  0  0  0  0
  -27.8370  -25.9958   16.2036 C   0  0  0  0  0  0  0  0  0  0  0  0
  -20.1610  -12.4712   20.8240 C   0  0  0  0  0  0  0  0  0  0  0  0
  -26.9386  -26.8503   17.0996 C   0  0  0  0  0  0  0  0  0  0  0  0
  -27.9038  -24.5488   16.6869 C   0  0  0  0  0  0  0  0  0  0  0  0
  -27.3926  -25.2398   18.9967 C   0  0  0  0  0  0  0  0  0  0  0  0
  -21.5922  -12.3709   21.3655 C   0  0  1  0  0  0  0  0  0  0  0  0
  -22.6336  -15.7905   22.6522 C   0  0  1  0  0  0  0  0  0  0  0  0
  -27.3382  -26.7200   18.5817 C   0  0  2  0  0  0  0  0  0  0  0  0
  -32.0668  -20.2658   19.3953 C   0  0  0  0  0  0  0  0  0  0  0  0
  -23.7707  -23.5032   21.8669 C   0  0  0  0  0  0  0  0  0  0  0  0
  -21.6912  -17.7600   18.5787 C   0  0  0  0  0  0  0  0  0  0  0  0
  -22.1411  -20.2190   18.4398 C   0  0  0  0  0  0  0  0  0  0  0  0
  -20.1680  -19.3841   19.7174 C   0  0  0  0  0  0  0  0  0  0  0  0
  -23.4553  -20.9876   24.7039 C   0  0  0  0  0  0  0  0  0  0  0  0
  -30.8690  -23.0658   20.3710 C   0  0  0  0  0  0  0  0  0  0  0  0
  -31.2696  -15.9820   22.3681 C   0  0  0  0  0  0  0  0  0  0  0  0
  -30.0303  -15.2014   22.7682 C   0  0  0  0  0  0  0  0  0  1  0  0
  -22.4884  -19.0544   20.6656 C   0  0  1  0  0  0  0  0  0  0  0  0
  -23.2586  -22.2482   22.5566 C   0  0  2  0  0  0  0  0  0  0  0  0
  -21.6412  -19.0868   19.3623 C   0  0  0  0  0  0  0  0  0  0  0  0
  -25.3441  -26.9372   20.0166 N   0  0  0  0  0  0  0  0  0  0  0  0
  -28.8905  -22.4600   22.4540 N   0  0  0  0  0  0  0  0  0  0  0  0
  -29.5977  -21.4800   21.8167 N   0  0  0  0  0  0  0  0  0  0  0  0
  -26.4242  -27.5313   19.4813 N   0  0  0  0  0  0  0  0  0  0  0  0
  -23.0365  -16.9909   21.9167 N   0  0  0  0  0  0  0  0  0  0  0  0
  -28.2895  -24.4950   18.0991 N   0  0  0  0  0  0  0  0  0  0  0  0
  -27.5940  -29.5886   19.3829 N   0  0  0  0  0  0  0  0  0  0  0  0
  -24.0936  -30.5086   22.0841 N   0  0  0  0  0  0  0  0  0  0  0  0
  -31.0088  -17.3947   22.2871 N   0  0  0  0  0  0  0  0  0  0  0  0
  -21.9110  -13.5317   22.1690 N   0  0  0  0  0  0  0  0  0  0  0  0
  -22.4379  -20.2885   21.4420 N   0  0  0  0  0  0  0  0  0  0  0  0
  -29.7262  -23.7685   19.8317 N   0  0  0  0  0  0  0  0  0  0  0  0
  -23.8874  -22.1632   23.9051 N   0  3  0  0  0  0  0  0  0  0  0  0
  -30.3888  -17.4326   20.0523 O   0  0  0  0  0  0  0  0  0  0  0  0
  -25.9609  -31.3933   21.0896 O   0  0  0  0  0  0  0  0  0  0  0  0
  -22.5634  -14.9547   20.4450 O   0  0  0  0  0  0  0  0  0  0  0  0
  -20.9105  -17.9400   22.0421 O   0  0  0  0  0  0  0  0  0  0  0  0
  -24.7199  -20.6997   21.4147 O   0  0  0  0  0  0  0  0  0  0  0  0
  -30.1286  -23.1523   17.6602 O   0  0  0  0  0  0  0  0  0  0  0  0
  -20.0881  -26.9507   23.6114 O   0  0  0  0  0  0  0  0  0  0  0  0
  -29.0008  -15.4201   21.8046 O   0  0  0  0  0  0  0  0  0  1  0  0
  -16.0700  -30.7141   23.3013 F   0  0  0  0  0  0  0  0  0  0  0  0
  -17.5896  -26.2809   22.6358 F   0  0  0  0  0  0  0  0  0  0  0  0
  1  2  1  0  0  0  0
  1  5  2  0  0  0  0
  2  6  2  0  0  0  0
  3  8  2  0  0  0  0
  3 15  1  0  0  0  0
  4  9  1  0  0  0  0
  4 15  2  0  0  0  0
  5 18  1  0  0  0  0
  6 20  1  0  0  0  0
  7 10  2  0  0  0  0
  7 19  1  0  0  0  0
  8 23  1  0  0  0  0
  9 23  2  0  0  0  0
 10 24  1  0  0  0  0
 11 12  2  0  0  0  0
 11 25  1  0  0  0  0
 12 26  1  0  0  0  0
 13 21  1  0  0  0  0
 13 24  2  0  0  0  0
 14 26  2  0  0  0  0
 14 27  1  0  0  0  0
 15 28  1  0  0  0  0
 16 22  1  0  0  0  0
 16 29  2  0  0  0  0
 16 35  1  0  0  0  0
 17 28  1  0  0  0  0
 17 31  2  0  0  0  0
 17 36  1  0  0  0  0
 18 20  2  0  0  0  0
 18 41  1  0  0  0  0
 19 21  2  0  0  0  0
 19 42  1  0  0  0  0
 20 50  1  0  0  0  0
 21 43  1  0  0  0  0
 22 30  2  0  0  0  0
 22 53  1  0  0  0  0
 23 84  1  0  0  0  0
 24 85  1  0  0  0  0
 25 27  2  0  0  0  0
 25 84  1  0  0  0  0
 26 86  1  0  0  0  0
 27 87  1  0  0  0  0
 28 65  2  0  0  0  0
 29 32  1  0  0  0  0
 29 67  1  0  0  0  0
 30 59  1  0  0  0  0
 30 67  1  0  0  0  0
 31 68  1  0  0  0  0
 31 71  1  0  0  0  0
 32 33  2  0  0  0  0
 33 34  1  0  0  0  0
 34 66  2  0  0  0  0
 35 73  1  0  0  0  0
 35 78  2  0  0  0  0
 36 72  1  0  0  0  0
 36 79  2  0  0  0  0
 37 51  1  0  0  0  0
 37 74  1  0  0  0  0
 37 80  2  0  0  0  0
 38 62  1  0  0  0  0
 38 69  1  0  0  0  0
 38 81  2  0  0  0  0
 39 63  1  0  0  0  0
 39 75  1  0  0  0  0
 39 82  2  0  0  0  0
 40 70  1  0  0  0  0
 40 76  1  0  0  0  0
 40 83  2  0  0  0  0
 41 44  1  0  0  0  0
 42 51  1  0  0  0  0
 43 69  1  0  0  0  0
 44 46  1  0  0  0  0
 45 47  1  0  0  0  0
 45 48  1  0  0  0  0
 46 50  1  0  0  0  0
 47 52  1  0  0  0  0
 48 70  1  0  0  0  0
 49 52  1  0  0  0  0
 49 70  1  0  0  0  0
 50 74  1  0  0  0  0
 51 69  1  0  0  0  0
 52 68  1  0  0  0  0
 54 63  1  0  0  0  0
 55 64  1  0  0  0  0
 56 64  1  0  0  0  0
 57 64  1  0  0  0  0
 58 77  1  0  0  0  0
 59 76  1  0  0  0  0
 60 61  1  0  0  0  0
 60 73  1  0  0  0  0
 61 85  1  0  0  0  0
 62 64  1  0  0  0  0
 62 75  1  0  0  0  0
 63 77  1  0  0  0  0
 65 68  1  0  0  0  0
 66 67  1  0  0  0  0
M  CHG  1  77   1
M  ISO  4  40 100  61 101  76 100  85 101
M  END
> <Batch ID>
0004

> <Smiles>
CNC(C)C(=O)NC(C(=O)N1Cc2cc([101O:1][101CH2:1]CNC(=O)c3c(C)c(C[100NH:0][100C:0](=O)N4CCCC(n5nc(-c6ccc(Oc7ccc(F)cc7F)cc6)c(C(N)=O)c5N)C4)n4ncccc34)ccc2CC1C(=O)NC1CCCc2ccccc21)C(C)(C)C

> <Shape>
0.221

> <Color>
0.073

> <Negative vol penalty>
0.000

$$$$

  -OEChem-04042320233D

 84 92  0     1  0  0  0  0  0999 V2000
  -28.7270  -25.1505   16.5033 C   0  0  0  0  0  0  0  0  0  0  0  0
  -27.5627  -25.1750   17.2643 C   0  0  0  0  0  0  0  0  0  0  0  0
  -30.2171  -17.3606   21.8725 C   0  0  0  0  0  0  0  0  0  0  0  0
  -28.9849  -17.0982   19.8109 C   0  0  0  0  0  0  0  0  0  0  0  0
  -29.8666  -25.8159   16.9532 C   0  0  0  0  0  0  0  0  0  0  0  0
  -27.5377  -25.8640   18.4764 C   0  0  0  0  0  0  0  0  0  0  0  0
  -23.3588  -28.6703   19.0301 C   0  0  0  0  0  0  0  0  0  0  0  0
  -19.0541  -20.6716   18.9415 C   0  0  0  0  0  0  0  0  0  0  0  0
  -20.0806  -19.8672   18.4469 C   0  0  0  0  0  0  0  0  0  0  0  0
  -31.0207  -16.2730   21.5306 C   0  0  0  0  0  0  0  0  0  0  0  0
  -29.7886  -16.0107   19.4690 C   0  0  0  0  0  0  0  0  0  0  0  0
  -22.1885  -28.0050   19.3925 C   0  0  0  0  0  0  0  0  0  0  0  0
  -30.0205  -12.7345   20.2714 C   0  0  0  0  0  0  0  0  0  0  0  0
  -29.3904  -11.5952   19.7709 C   0  0  0  0  0  0  0  0  0  0  0  0
  -22.5103  -28.6977   21.6807 C   0  0  0  0  0  0  0  0  0  0  0  0
  -19.9220  -20.4028   21.1802 C   0  0  0  0  0  0  0  0  0  0  0  0
  -30.6508  -11.7994   17.7197 C   0  0  0  0  0  0  0  0  0  0  0  0
  -29.1991  -17.7732   21.0127 C   0  0  0  0  0  0  0  0  0  0  0  0
  -28.5946  -20.2511   21.0576 C   0  0  0  0  0  0  0  0  0  0  0  0
  -29.8528  -26.5215   18.1667 C   0  0  0  0  0  0  0  0  0  0  0  0
  -24.1208  -29.3463   19.9939 C   0  0  0  0  0  0  0  0  0  0  0  0
  -28.6787  -26.5383   18.9436 C   0  0  0  0  0  0  0  0  0  0  0  0
  -23.6886  -29.3729   21.3275 C   0  0  0  0  0  0  0  0  0  0  0  0
  -18.9748  -20.9395   20.3082 C   0  0  0  0  0  0  0  0  0  0  0  0
  -21.0278  -19.3305   19.3189 C   0  0  0  0  0  0  0  0  0  0  0  0
  -20.9485  -19.5983   20.6856 C   0  0  0  0  0  0  0  0  0  0  0  0
  -30.8066  -15.5981   20.3289 C   0  0  0  0  0  0  0  0  0  0  0  0
  -21.7656  -28.0161   20.7184 C   0  0  0  0  0  0  0  0  0  0  0  0
  -30.9656  -13.4064   19.4961 C   0  0  0  0  0  0  0  0  0  0  0  0
  -29.7056  -11.1276   18.4950 C   0  0  0  0  0  0  0  0  0  0  0  0
  -31.2807  -12.9388   18.2203 C   0  0  0  0  0  0  0  0  0  0  0  0
  -28.3682  -18.8962   21.3656 C   0  0  0  0  0  0  0  0  0  0  0  0
  -27.5256  -20.9123   21.6114 C   0  0  0  0  0  0  0  0  0  0  0  0
  -29.6745  -20.8578   20.3355 C   0  0  0  0  0  0  0  0  0  0  0  0
  -27.0777  -29.0558   21.1235 C   0  0  0  0  0  0  0  0  0  0  0  0
  -26.3185  -31.7768   22.7179 C   0  0  0  0  0  0  0  0  0  0  0  0
  -23.8893  -33.7960   24.0098 C   0  0  0  0  0  0  0  0  0  0  0  0
  -21.9512  -19.2427   22.9691 C   0  0  0  0  0  0  0  0  0  0  0  0
  -31.1233  -27.1859   18.6347 C   0  0  0  0  0  0  0  0  0  0  0  0
  -25.3667  -30.0816   19.5821 C   0  0  0  0  0  0  0  0  0  0  0  0
  -24.4600  -30.1012   22.3967 C   0  0  0  0  0  0  0  0  0  0  0  0
  -30.9026  -28.2059   19.7487 C   0  0  0  0  0  0  0  0  0  0  0  0
  -24.3747  -20.5889   25.2033 C   0  0  0  0  0  0  0  0  0  0  0  0
  -29.9870  -27.6313   20.8250 C   0  0  0  0  0  0  0  0  0  0  0  0
  -25.6937  -20.4365   24.4421 C   0  0  0  0  0  0  0  0  0  0  0  0
  -23.4366  -19.4092   24.9542 C   0  0  0  0  0  0  0  0  0  0  0  0
  -24.5000  -18.9545   22.7790 C   0  0  0  0  0  0  0  0  0  0  0  0
  -28.6049  -27.2955   20.2518 C   0  0  1  0  0  0  0  0  0  0  0  0
  -26.3379  -30.3052   20.7371 C   0  0  1  0  0  0  0  0  0  0  0  0
  -25.4517  -20.1502   22.9471 C   0  0  2  0  0  0  0  0  0  0  0  0
  -22.1160  -18.4715   18.7612 C   0  0  0  0  0  0  0  0  0  0  0  0
  -16.9990  -21.0945   21.8783 C   0  0  0  0  0  0  0  0  0  0  0  0
  -23.5779  -35.9318   25.2899 C   0  0  0  0  0  0  0  0  0  0  0  0
  -27.1539  -30.3566   25.2860 C   0  0  0  0  0  0  0  0  0  0  0  0
  -25.9535  -32.1342   26.5771 C   0  0  0  0  0  0  0  0  0  0  0  0
  -27.8896  -32.7415   25.1261 C   0  0  0  0  0  0  0  0  0  0  0  0
  -22.3650  -35.0360   21.7967 C   0  0  0  0  0  0  0  0  0  0  0  0
  -19.4907  -25.2572   21.2078 C   0  0  0  0  0  0  0  0  0  0  0  0
  -19.0688  -23.9729   20.5100 C   0  0  0  0  0  0  0  0  0  0  0  0
  -20.2664  -26.2152   20.3121 C   0  0  0  0  0  0  0  0  0  1  0  0
  -17.8623  -21.8114   20.8432 C   0  0  1  0  0  0  0  0  0  0  0  0
  -25.6931  -32.0934   24.0549 C   0  0  1  0  0  0  0  0  0  0  0  0
  -23.6678  -35.2946   23.9120 C   0  0  2  0  0  0  0  0  0  0  0  0
  -26.6588  -31.8160   25.2415 C   0  0  0  0  0  0  0  0  0  0  0  0
  -27.2439  -18.7064   22.0611 N   0  0  0  0  0  0  0  0  0  0  0  0
  -26.7542  -19.9507   22.1949 N   0  0  0  0  0  0  0  0  0  0  0  0
  -25.6748  -30.7998   21.9454 N   0  0  0  0  0  0  0  0  0  0  0  0
  -23.2509  -19.2003   23.5166 N   0  0  0  0  0  0  0  0  0  0  0  0
  -27.1797  -22.2166   21.6513 N   0  0  0  0  0  0  0  0  0  0  0  0
  -30.6902  -20.0323   19.8344 N   0  0  0  0  0  0  0  0  0  0  0  0
  -21.9016  -19.0630   21.5871 N   0  0  0  0  0  0  0  0  0  0  0  0
  -27.8160  -28.4989   20.0968 N   0  0  0  0  0  0  0  0  0  0  0  0
  -25.2296  -33.4742   23.9721 N   0  0  0  0  0  0  0  0  0  0  0  0
  -22.4044  -35.5846   23.1767 N   0  3  0  0  0  0  0  0  0  0  0  0
  -18.3643  -23.0735   21.4535 N   0  3  0  0  0  0  0  0  0  0  0  0
  -29.7453  -22.0970   20.1546 O   0  0  0  0  0  0  0  0  0  0  0  0
  -26.9867  -28.6295   22.2688 O   0  0  0  0  0  0  0  0  0  0  0  0
  -27.3365  -32.3796   22.3686 O   0  0  0  0  0  0  0  0  0  0  0  0
  -22.9659  -32.9915   24.1132 O   0  0  0  0  0  0  0  0  0  0  0  0
  -20.9581  -19.4522   23.6704 O   0  0  0  0  0  0  0  0  0  0  0  0
  -31.5907  -14.5369   19.9948 O   0  0  0  0  0  0  0  0  0  0  0  0
  -20.6239  -27.3670   21.0749 O   0  0  0  0  0  0  0  0  0  1  0  0
  -29.1017  -10.0326   18.0151 F   0  0  0  0  0  0  0  0  0  0  0  0
  -32.1887  -13.5794   17.4713 F   0  0  0  0  0  0  0  0  0  0  0  0
  1  2  1  0  0  0  0
  1  5  2  0  0  0  0
  2  6  2  0  0  0  0
  3 10  2  0  0  0  0
  3 18  1  0  0  0  0
  4 11  1  0  0  0  0
  4 18  2  0  0  0  0
  5 20  1  0  0  0  0
  6 22  1  0  0  0  0
  7 12  2  0  0  0  0
  7 21  1  0  0  0  0
  8  9  2  0  0  0  0
  8 24  1  0  0  0  0
  9 25  1  0  0  0  0
 10 27  1  0  0  0  0
 11 27  2  0  0  0  0
 12 28  1  0  0  0  0
 13 14  2  0  0  0  0
 13 29  1  0  0  0  0
 14 30  1  0  0  0  0
 15 23  1  0  0  0  0
 15 28  2  0  0  0  0
 16 24  2  0  0  0  0
 16 26  1  0  0  0  0
 17 30  2  0  0  0  0
 17 31  1  0  0  0  0
 18 32  1  0  0  0  0
 19 32  1  0  0  0  0
 19 33  2  0  0  0  0
 19 34  1  0  0  0  0
 20 22  2  0  0  0  0
 20 39  1  0  0  0  0
 21 23  2  0  0  0  0
 21 40  1  0  0  0  0
 22 48  1  0  0  0  0
 23 41  1  0  0  0  0
 24 61  1  0  0  0  0
 25 26  2  0  0  0  0
 25 51  1  0  0  0  0
 26 71  1  0  0  0  0
 27 81  1  0  0  0  0
 28 82  1  0  0  0  0
 29 31  2  0  0  0  0
 29 81  1  0  0  0  0
 30 83  1  0  0  0  0
 31 84  1  0  0  0  0
 32 65  2  0  0  0  0
 33 66  1  0  0  0  0
 33 69  1  0  0  0  0
 34 70  1  0  0  0  0
 34 76  2  0  0  0  0
 35 49  1  0  0  0  0
 35 72  1  0  0  0  0
 35 77  2  0  0  0  0
 36 62  1  0  0  0  0
 36 67  1  0  0  0  0
 36 78  2  0  0  0  0
 37 63  1  0  0  0  0
 37 73  1  0  0  0  0
 37 79  2  0  0  0  0
 38 68  1  0  0  0  0
 38 71  1  0  0  0  0
 38 80  2  0  0  0  0
 39 42  1  0  0  0  0
 40 49  1  0  0  0  0
 41 67  1  0  0  0  0
 42 44  1  0  0  0  0
 43 45  1  0  0  0  0
 43 46  1  0  0  0  0
 44 48  1  0  0  0  0
 45 50  1  0  0  0  0
 46 68  1  0  0  0  0
 47 50  1  0  0  0  0
 47 68  1  0  0  0  0
 48 72  1  0  0  0  0
 49 67  1  0  0  0  0
 50 66  1  0  0  0  0
 52 61  1  0  0  0  0
 53 63  1  0  0  0  0
 54 64  1  0  0  0  0
 55 64  1  0  0  0  0
 56 64  1  0  0  0  0
 57 74  1  0  0  0  0
 58 59  1  0  0  0  0
 58 60  1  0  0  0  0
 59 75  1  0  0  0  0
 60 82  1  0  0  0  0
 61 75  1  0  0  0  0
 62 64  1  0  0  0  0
 62 73  1  0  0  0  0
 63 74  1  0  0  0  0
 65 66  1  0  0  0  0
M  CHG  2  74   1  75   1
M  ISO  4  38 100  60 101  71 100  82 101
M  END
> <Batch ID>
0004

> <Smiles>
CNC(C)C(=O)NC(C(=O)N1Cc2cc([101O:1][101CH2:1]CCNC(C)c3ccc(C)c([100NH:0][100C:0](=O)N4CCCC(n5nc(-c6ccc(Oc7ccc(F)cc7F)cc6)c(C(N)=O)c5N)C4)c3)ccc2CC1C(=O)NC1CCCc2ccccc21)C(C)(C)C

> <Shape>
0.275

> <Color>
0.075

> <Negative vol penalty>
0.000

$$$$

  -OEChem-04042320233D

 91 99  0     1  0  0  0  0  0999 V2000
  -32.3184  -13.6638   21.2836 C   0  0  0  0  0  0  0  0  0  0  0  0
  -31.5612  -14.8135   21.4846 C   0  0  0  0  0  0  0  0  0  0  0  0
  -18.3920  -26.8211   26.1991 C   0  0  0  0  0  0  0  0  0  0  0  0
  -19.3649  -27.1708   27.1354 C   0  0  0  0  0  0  0  0  0  0  0  0
  -28.5487  -26.5850   19.4793 C   0  0  0  0  0  0  0  0  0  0  0  0
  -26.5106  -25.2928   19.3637 C   0  0  0  0  0  0  0  0  0  0  0  0
  -31.7529  -12.5610   20.6448 C   0  0  0  0  0  0  0  0  0  0  0  0
  -30.2384  -14.8613   21.0459 C   0  0  0  0  0  0  0  0  0  0  0  0
  -25.5695  -17.7683   23.7397 C   0  0  0  0  0  0  0  0  0  0  0  0
  -18.6822  -26.8811   24.8360 C   0  0  0  0  0  0  0  0  0  0  0  0
  -20.6280  -27.5808   26.7087 C   0  0  0  0  0  0  0  0  0  0  0  0
  -29.2813  -25.4647   19.0872 C   0  0  0  0  0  0  0  0  0  0  0  0
  -27.2432  -24.1724   18.9715 C   0  0  0  0  0  0  0  0  0  0  0  0
  -24.9697  -19.0037   23.4993 C   0  0  0  0  0  0  0  0  0  0  0  0
  -29.1798  -21.8227   20.4409 C   0  0  0  0  0  0  0  0  0  0  0  0
  -28.8823  -20.6063   21.0553 C   0  0  0  0  0  0  0  0  0  0  0  0
  -23.2830  -17.9174   22.1599 C   0  0  0  0  0  0  0  0  0  0  0  0
  -28.3188  -19.6584   18.9056 C   0  0  0  0  0  0  0  0  0  0  0  0
  -27.1633  -26.4991   19.6176 C   0  0  0  0  0  0  0  0  0  0  0  0
  -25.8336  -28.6331   19.1871 C   0  0  0  0  0  0  0  0  0  0  0  0
  -30.4196  -12.5919   20.2067 C   0  0  0  0  0  0  0  0  0  0  0  0
  -25.0359  -16.5975   23.1820 C   0  0  0  0  0  0  0  0  0  0  0  0
  -29.6551  -13.7584   20.3995 C   0  0  0  0  0  0  0  0  0  0  0  0
  -23.8764  -16.6681   22.3967 C   0  0  0  0  0  0  0  0  0  0  0  0
  -19.9453  -27.2912   24.4093 C   0  0  0  0  0  0  0  0  0  0  0  0
  -20.9183  -27.6410   25.3457 C   0  0  0  0  0  0  0  0  0  0  0  0
  -28.6286  -24.2584   18.8333 C   0  0  0  0  0  0  0  0  0  0  0  0
  -23.8279  -19.0788   22.7070 C   0  0  0  0  0  0  0  0  0  0  0  0
  -29.0467  -21.9570   19.0589 C   0  0  0  0  0  0  0  0  0  0  0  0
  -28.4519  -19.5241   20.2876 C   0  0  0  0  0  0  0  0  0  0  0  0
  -28.6162  -20.8749   18.2912 C   0  0  0  0  0  0  0  0  0  0  0  0
  -26.4060  -27.6558   20.0232 C   0  0  0  0  0  0  0  0  0  0  0  0
  -25.2266  -29.5114   20.0511 C   0  0  0  0  0  0  0  0  0  0  0  0
  -25.8490  -28.7376   17.7572 C   0  0  0  0  0  0  0  0  0  0  0  0
  -26.0930  -14.4006   21.1424 C   0  0  0  0  0  0  0  0  0  0  0  0
  -23.3093  -12.9182   21.9015 C   0  0  0  0  0  0  0  0  0  0  0  0
  -21.2878  -25.1426   22.4640 C   0  0  0  0  0  0  0  0  0  0  0  0
  -20.1075  -13.1806   23.0533 C   0  0  0  0  0  0  0  0  0  0  0  0
  -23.0584  -28.9471   25.5906 C   0  0  0  0  0  0  0  0  0  0  0  0
  -29.8666  -11.3922   19.4790 C   0  0  0  0  0  0  0  0  0  0  0  0
  -25.6793  -15.2694   23.4727 C   0  0  0  0  0  0  0  0  0  0  0  0
  -23.2525  -15.4382   21.7914 C   0  0  0  0  0  0  0  0  0  0  0  0
  -28.3434  -11.3892   19.3791 C   0  0  0  0  0  0  0  0  0  0  0  0
  -25.5760  -31.2215   24.5107 C   0  0  0  0  0  0  0  0  0  0  0  0
  -27.8345  -12.7584   18.9396 C   0  0  0  0  0  0  0  0  0  0  0  0
  -26.0182  -30.6576   23.1585 C   0  0  0  0  0  0  0  0  0  0  0  0
  -25.2520  -30.1119   25.5094 C   0  0  0  0  0  0  0  0  0  0  0  0
  -24.7334  -28.5448   23.6806 C   0  0  0  0  0  0  0  0  0  0  0  0
  -28.2093  -13.8399   19.9601 C   0  0  1  0  0  0  0  0  0  0  0  0
  -25.3475  -14.2042   22.4322 C   0  0  1  0  0  0  0  0  0  0  0  0
  -25.0083  -29.6246   22.6213 C   0  0  2  0  0  0  0  0  0  0  0  0
  -18.0652  -11.8015   23.5270 C   0  0  0  0  0  0  0  0  0  0  0  0
  -19.3554  -29.7302   22.6467 C   0  0  0  0  0  0  0  0  0  0  0  0
  -19.5901  -28.2706   20.6370 C   0  0  0  0  0  0  0  0  0  0  0  0
  -19.7706  -22.6428   19.9380 C   0  0  0  0  0  0  0  0  0  0  0  0
  -21.7974  -24.0314   19.4423 C   0  0  0  0  0  0  0  0  0  0  0  0
  -22.7155  -12.7752   18.9121 C   0  0  0  0  0  0  0  0  0  0  0  0
  -20.3272  -12.2848   19.4808 C   0  0  0  0  0  0  0  0  0  0  0  0
  -22.1257  -10.7097   20.1928 C   0  0  0  0  0  0  0  0  0  0  0  0
  -20.1536  -13.8890   25.9264 C   0  0  0  0  0  0  0  0  0  0  0  0
  -22.1827  -22.2230   23.4195 C   0  0  0  0  0  0  0  0  0  0  0  0
  -23.3659  -21.2777   23.4862 C   0  0  0  0  0  0  0  0  0  1  0  0
  -20.2327  -27.3470   22.9195 C   0  0  2  0  0  0  0  0  0  0  0  0
  -21.9017  -12.9430   21.3566 C   0  0  1  0  0  0  0  0  0  0  0  0
  -20.9832  -23.7731   21.8713 C   0  0  1  0  0  0  0  0  0  0  0  0
  -19.3456  -12.3885   24.1004 C   0  0  2  0  0  0  0  0  0  0  0  0
  -19.2759  -28.2846   22.1397 C   0  0  0  0  0  0  0  0  0  0  0  0
  -20.5964  -23.8561   20.3780 C   0  0  0  0  0  0  0  0  0  0  0  0
  -21.7802  -12.2018   19.9952 C   0  0  0  0  0  0  0  0  0  0  0  0
  -26.1828  -27.8909   21.3189 N   0  0  0  0  0  0  0  0  0  0  0  0
  -25.4635  -29.0260   21.3035 N   0  0  0  0  0  0  0  0  0  0  0  0
  -23.9221  -14.1637   22.0995 N   0  0  0  0  0  0  0  0  0  0  0  0
  -24.2862  -29.1737   24.9333 N   0  0  0  0  0  0  0  0  0  0  0  0
  -24.5189  -30.6440   19.8543 N   0  0  0  0  0  0  0  0  0  0  0  0
  -26.5182  -27.7494   17.0223 N   0  0  0  0  0  0  0  0  0  0  0  0
  -22.2072  -28.0602   24.9324 N   0  0  0  0  0  0  0  0  0  0  0  0
  -27.3274  -13.7807   21.1061 N   0  0  0  0  0  0  0  0  0  0  0  0
  -20.1940  -25.9936   22.4161 N   0  0  0  0  0  0  0  0  0  0  0  0
  -21.0470  -12.4039   22.4089 N   0  0  0  0  0  0  0  0  0  0  0  0
  -18.9869  -13.2634   25.2522 N   0  3  0  0  0  0  0  0  0  0  0  0
  -22.1402  -22.8612   22.0797 N   0  3  0  0  0  0  0  0  0  0  0  0
  -25.3001  -29.6881   17.1501 O   0  0  0  0  0  0  0  0  0  0  0  0
  -25.5851  -15.0641   20.2460 O   0  0  0  0  0  0  0  0  0  0  0  0
  -23.8429  -11.8340   22.1494 O   0  0  0  0  0  0  0  0  0  0  0  0
  -22.3878  -25.4347   22.9284 O   0  0  0  0  0  0  0  0  0  0  0  0
  -19.8884  -14.3686   22.8269 O   0  0  0  0  0  0  0  0  0  0  0  0
  -22.7712  -29.5201   26.6447 O   0  0  0  0  0  0  0  0  0  0  0  0
  -29.3431  -23.1651   18.4504 O   0  0  0  0  0  0  0  0  0  0  0  0
  -23.2409  -20.2835   22.4703 O   0  0  0  0  0  0  0  0  0  1  0  0
  -28.1677  -18.3556   20.8775 F   0  0  0  0  0  0  0  0  0  0  0  0
  -28.4876  -20.9975   16.9630 F   0  0  0  0  0  0  0  0  0  0  0  0
  1  2  1  0  0  0  0
  1  7  2  0  0  0  0
  2  8  2  0  0  0  0
  3  4  1  0  0  0  0
  3 10  2  0  0  0  0
  4 11  2  0  0  0  0
  5 12  2  0  0  0  0
  5 19  1  0  0  0  0
  6 13  1  0  0  0  0
  6 19  2  0  0  0  0
  7 21  1  0  0  0  0
  8 23  1  0  0  0  0
  9 14  2  0  0  0  0
  9 22  1  0  0  0  0
 10 25  1  0  0  0  0
 11 26  1  0  0  0  0
 12 27  1  0  0  0  0
 13 27  2  0  0  0  0
 14 28  1  0  0  0  0
 15 16  2  0  0  0  0
 15 29  1  0  0  0  0
 16 30  1  0  0  0  0
 17 24  1  0  0  0  0
 17 28  2  0  0  0  0
 18 30  2  0  0  0  0
 18 31  1  0  0  0  0
 19 32  1  0  0  0  0
 20 32  1  0  0  0  0
 20 33  2  0  0  0  0
 20 34  1  0  0  0  0
 21 23  2  0  0  0  0
 21 40  1  0  0  0  0
 22 24  2  0  0  0  0
 22 41  1  0  0  0  0
 23 49  1  0  0  0  0
 24 42  1  0  0  0  0
 25 26  2  0  0  0  0
 25 63  1  0  0  0  0
 26 76  1  0  0  0  0
 27 88  1  0  0  0  0
 28 89  1  0  0  0  0
 29 31  2  0  0  0  0
 29 88  1  0  0  0  0
 30 90  1  0  0  0  0
 31 91  1  0  0  0  0
 32 70  2  0  0  0  0
 33 71  1  0  0  0  0
 33 74  1  0  0  0  0
 34 75  1  0  0  0  0
 34 82  2  0  0  0  0
 35 50  1  0  0  0  0
 35 77  1  0  0  0  0
 35 83  2  0  0  0  0
 36 64  1  0  0  0  0
 36 72  1  0  0  0  0
 36 84  2  0  0  0  0
 37 65  1  0  0  0  0
 37 78  1  0  0  0  0
 37 85  2  0  0  0  0
 38 66  1  0  0  0  0
 38 79  1  0  0  0  0
 38 86  2  0  0  0  0
 39 73  1  0  0  0  0
 39 76  1  0  0  0  0
 39 87  2  0  0  0  0
 40 43  1  0  0  0  0
 41 50  1  0  0  0  0
 42 72  1  0  0  0  0
 43 45  1  0  0  0  0
 44 46  1  0  0  0  0
 44 47  1  0  0  0  0
 45 49  1  0  0  0  0
 46 51  1  0  0  0  0
 47 73  1  0  0  0  0
 48 51  1  0  0  0  0
 48 73  1  0  0  0  0
 49 77  1  0  0  0  0
 50 72  1  0  0  0  0
 51 71  1  0  0  0  0
 52 66  1  0  0  0  0
 53 67  1  0  0  0  0
 54 67  1  0  0  0  0
 55 68  1  0  0  0  0
 56 68  1  0  0  0  0
 57 69  1  0  0  0  0
 58 69  1  0  0  0  0
 59 69  1  0  0  0  0
 60 80  1  0  0  0  0
 61 62  1  0  0  0  0
 61 81  1  0  0  0  0
 62 89  1  0  0  0  0
 63 67  1  0  0  0  0
 63 78  1  0  0  0  0
 64 69  1  0  0  0  0
 64 79  1  0  0  0  0
 65 68  1  0  0  0  0
 65 81  1  0  0  0  0
 66 80  1  0  0  0  0
 70 71  1  0  0  0  0
M  CHG  2  80   1  81   1
M  ISO  4  39 100  62 101  76 100  89 101
M  END
> <Batch ID>
0004

> <Smiles>
CNC(C)C(=O)NC(C(=O)N1Cc2cc([101O:1][101CH2:1]CNC(C(=O)NC(c3ccccc3[100NH:0][100C:0](=O)N3CCCC(n4nc(-c5ccc(Oc6ccc(F)cc6F)cc5)c(C(N)=O)c4N)C3)C(C)C)C(C)C)ccc2CC1C(=O)NC1CCCc2ccccc21)C(C)(C)C

> <Shape>
0.255

> <Color>
0.066

> <Negative vol penalty>
0.000

$$$$

  -OEChem-04042320233D

 85 94  0     1  0  0  0  0  0999 V2000
  -16.8413  -29.0371   24.3501 C   0  0  0  0  0  0  0  0  0  0  0  0
  -17.8992  -28.3069   24.8820 C   0  0  0  0  0  0  0  0  0  0  0  0
  -27.8203  -22.9839   21.8693 C   0  0  0  0  0  0  0  0  0  0  0  0
  -27.9882  -21.9295   20.9603 C   0  0  0  0  0  0  0  0  0  0  0  0
  -24.4375   -9.3891   21.5973 C   0  0  0  0  0  0  0  0  0  0  0  0
  -22.6161  -10.4841   20.4480 C   0  0  0  0  0  0  0  0  0  0  0  0
  -16.8907  -29.4697   23.0256 C   0  0  0  0  0  0  0  0  0  0  0  0
  -19.0067  -28.0079   24.0893 C   0  0  0  0  0  0  0  0  0  0  0  0
  -27.0103  -22.8269   22.9947 C   0  0  0  0  0  0  0  0  0  0  0  0
  -23.3901  -28.7830   26.5040 C   0  0  0  0  0  0  0  0  0  0  0  0
  -27.3494  -20.7031   21.1627 C   0  0  0  0  0  0  0  0  0  0  0  0
  -23.6624   -8.2369   21.7279 C   0  0  0  0  0  0  0  0  0  0  0  0
  -21.8410   -9.3318   20.5786 C   0  0  0  0  0  0  0  0  0  0  0  0
  -23.7927  -27.8123   27.4201 C   0  0  0  0  0  0  0  0  0  0  0  0
  -21.1562   -7.1326   23.7088 C   0  0  0  0  0  0  0  0  0  0  0  0
  -21.1481   -6.4950   24.9494 C   0  0  0  0  0  0  0  0  0  0  0  0
  -25.2904  -26.8861   25.7713 C   0  0  0  0  0  0  0  0  0  0  0  0
  -22.0266   -4.4909   23.9252 C   0  0  0  0  0  0  0  0  0  0  0  0
  -23.9143  -10.5128   20.9574 C   0  0  0  0  0  0  0  0  0  0  0  0
  -25.5800  -12.0306   19.7618 C   0  0  0  0  0  0  0  0  0  0  0  0
  -18.0037  -29.1842   22.2191 C   0  0  0  0  0  0  0  0  0  0  0  0
  -23.9274  -28.8060   25.2089 C   0  0  0  0  0  0  0  0  0  0  0  0
  -19.0705  -28.4359   22.7524 C   0  0  0  0  0  0  0  0  0  0  0  0
  -26.3896  -21.6031   23.1981 C   0  0  0  0  0  0  0  0  0  0  0  0
  -24.8948  -27.8598   24.8415 C   0  0  0  0  0  0  0  0  0  0  0  0
  -26.5521  -20.5538   22.2882 C   0  0  0  0  0  0  0  0  0  0  0  0
  -22.3642   -8.2081   21.2185 C   0  0  0  0  0  0  0  0  0  0  0  0
  -24.7408  -26.8618   27.0529 C   0  0  0  0  0  0  0  0  0  0  0  0
  -21.5995   -6.4493   22.5763 C   0  0  0  0  0  0  0  0  0  0  0  0
  -21.5833   -5.1742   25.0576 C   0  0  0  0  0  0  0  0  0  0  0  0
  -22.0347   -5.1285   22.6846 C   0  0  0  0  0  0  0  0  0  0  0  0
  -24.7143  -11.7036   20.8227 C   0  0  0  0  0  0  0  0  0  0  0  0
  -26.0978  -13.2553   20.1062 C   0  0  0  0  0  0  0  0  0  0  0  0
  -25.8885  -11.2934   18.5715 C   0  0  0  0  0  0  0  0  0  0  0  0
  -22.7347  -28.4909   22.2795 C   0  0  0  0  0  0  0  0  0  0  0  0
  -25.7578  -29.2573   21.3874 C   0  0  0  0  0  0  0  0  0  0  0  0
  -24.9356  -21.8240   26.6313 C   0  0  0  0  0  0  0  0  0  0  0  0
  -29.0758  -29.3543   22.1800 C   0  0  0  0  0  0  0  0  0  0  0  0
  -25.4892  -18.3419   21.8893 C   0  0  0  0  0  0  0  0  0  0  0  0
  -17.9909  -29.6324   20.7791 C   0  0  0  0  0  0  0  0  0  0  0  0
  -23.5023  -29.8761   24.2411 C   0  0  0  0  0  0  0  0  0  0  0  0
  -25.5173  -27.8536   23.4700 C   0  0  0  0  0  0  0  0  0  0  0  0
  -19.3661  -29.5955   20.1175 C   0  0  0  0  0  0  0  0  0  0  0  0
  -25.8978  -15.8356   24.4318 C   0  0  0  0  0  0  0  0  0  0  0  0
  -20.0710  -28.2780   20.4243 C   0  0  0  0  0  0  0  0  0  0  0  0
  -25.6548  -14.5571   23.6347 C   0  0  0  0  0  0  0  0  0  0  0  0
  -24.9981  -16.9864   23.9766 C   0  0  0  0  0  0  0  0  0  0  0  0
  -25.3036  -19.7096   24.0738 C   0  0  0  0  0  0  0  0  0  0  0  0
  -24.8173  -15.9642   21.7229 C   0  0  0  0  0  0  0  0  0  0  0  0
  -20.3001  -28.1129   21.9316 C   0  0  1  0  0  0  0  0  0  0  0  0
  -25.4124  -21.2306   24.2713 C   0  0  1  0  0  0  0  0  0  0  0  0
  -23.7365  -29.4908   22.7837 C   0  0  1  0  0  0  0  0  0  0  0  0
  -25.7685  -14.8293   22.1263 C   0  0  2  0  0  0  0  0  0  0  0  0
  -31.3091  -29.9982   21.2339 C   0  0  0  0  0  0  0  0  0  0  0  0
  -25.7628  -26.7264   19.6832 C   0  0  0  0  0  0  0  0  0  0  0  0
  -28.2553  -26.9126   19.5384 C   0  0  0  0  0  0  0  0  0  0  0  0
  -26.8146  -28.7180   18.5963 C   0  0  0  0  0  0  0  0  0  0  0  0
  -29.5200  -31.3745   24.2968 C   0  0  0  0  0  0  0  0  0  0  0  0
  -25.6431  -22.1851   27.9252 C   0  0  0  0  0  0  0  0  0  0  0  0
  -25.2479  -23.5644   28.4404 C   0  0  0  0  0  0  0  0  0  0  0  0
  -25.5414  -24.6523   27.4177 C   0  0  0  0  0  0  0  0  0  1  0  0
  -27.0192  -28.4776   21.1047 C   0  0  1  0  0  0  0  0  0  0  0  0
  -30.1107  -30.4573   22.0498 C   0  0  2  0  0  0  0  0  0  0  0  0
  -26.9500  -27.7073   19.7560 C   0  0  0  0  0  0  0  0  0  0  0  0
  -24.6814  -12.6445   21.7701 N   0  0  0  0  0  0  0  0  0  0  0  0
  -25.5330  -13.5747   21.3059 N   0  0  0  0  0  0  0  0  0  0  0  0
  -25.8219  -19.4189   22.7125 N   0  0  0  0  0  0  0  0  0  0  0  0
  -25.0642  -28.9163   22.5572 N   0  0  0  0  0  0  0  0  0  0  0  0
  -25.0504  -17.1698   22.5226 N   0  0  0  0  0  0  0  0  0  0  0  0
  -26.9766  -14.0792   19.4970 N   0  0  0  0  0  0  0  0  0  0  0  0
  -25.2677  -10.0523   18.3745 N   0  0  0  0  0  0  0  0  0  0  0  0
  -21.4230  -28.9175   22.3632 N   0  0  0  0  0  0  0  0  0  0  0  0
  -25.8348  -21.5896   25.5947 N   0  0  0  0  0  0  0  0  0  0  0  0
  -28.1179  -29.4335   21.1913 N   0  0  0  0  0  0  0  0  0  0  0  0
  -30.5920  -30.8775   23.3962 N   0  3  0  0  0  0  0  0  0  0  0  0
  -26.7034  -11.7149   17.7160 O   0  0  0  0  0  0  0  0  0  0  0  0
  -23.1230  -27.4128   21.8452 O   0  0  0  0  0  0  0  0  0  0  0  0
  -25.4048  -30.1415   20.6030 O   0  0  0  0  0  0  0  0  0  0  0  0
  -23.7141  -21.7507   26.5279 O   0  0  0  0  0  0  0  0  0  0  0  0
  -29.1154  -28.5051   23.0676 O   0  0  0  0  0  0  0  0  0  0  0  0
  -25.5055  -18.4240   20.6547 O   0  0  0  0  0  0  0  0  0  0  0  0
  -21.6077   -7.0838   21.3455 O   0  0  0  0  0  0  0  0  0  0  0  0
  -25.1380  -25.9058   27.9515 O   0  0  0  0  0  0  0  0  0  1  0  0
  -21.5769   -4.5626   26.2493 F   0  0  0  0  0  0  0  0  0  0  0  0
  -22.4627   -4.4672   21.6004 F   0  0  0  0  0  0  0  0  0  0  0  0
  1  2  1  0  0  0  0
  1  7  2  0  0  0  0
  2  8  2  0  0  0  0
  3  4  1  0  0  0  0
  3  9  2  0  0  0  0
  4 11  2  0  0  0  0
  5 12  2  0  0  0  0
  5 19  1  0  0  0  0
  6 13  1  0  0  0  0
  6 19  2  0  0  0  0
  7 21  1  0  0  0  0
  8 23  1  0  0  0  0
  9 24  1  0  0  0  0
 10 14  2  0  0  0  0
 10 22  1  0  0  0  0
 11 26  1  0  0  0  0
 12 27  1  0  0  0  0
 13 27  2  0  0  0  0
 14 28  1  0  0  0  0
 15 16  2  0  0  0  0
 15 29  1  0  0  0  0
 16 30  1  0  0  0  0
 17 25  1  0  0  0  0
 17 28  2  0  0  0  0
 18 30  2  0  0  0  0
 18 31  1  0  0  0  0
 19 32  1  0  0  0  0
 20 32  1  0  0  0  0
 20 33  2  0  0  0  0
 20 34  1  0  0  0  0
 21 23  2  0  0  0  0
 21 40  1  0  0  0  0
 22 25  2  0  0  0  0
 22 41  1  0  0  0  0
 23 50  1  0  0  0  0
 24 26  2  0  0  0  0
 24 51  1  0  0  0  0
 25 42  1  0  0  0  0
 26 67  1  0  0  0  0
 27 82  1  0  0  0  0
 28 83  1  0  0  0  0
 29 31  2  0  0  0  0
 29 82  1  0  0  0  0
 30 84  1  0  0  0  0
 31 85  1  0  0  0  0
 32 65  2  0  0  0  0
 33 66  1  0  0  0  0
 33 70  1  0  0  0  0
 34 71  1  0  0  0  0
 34 76  2  0  0  0  0
 35 52  1  0  0  0  0
 35 72  1  0  0  0  0
 35 77  2  0  0  0  0
 36 62  1  0  0  0  0
 36 68  1  0  0  0  0
 36 78  2  0  0  0  0
 37 59  1  0  0  0  0
 37 73  1  0  0  0  0
 37 79  2  0  0  0  0
 38 63  1  0  0  0  0
 38 74  1  0  0  0  0
 38 80  2  0  0  0  0
 39 67  1  0  0  0  0
 39 69  1  0  0  0  0
 39 81  2  0  0  0  0
 40 43  1  0  0  0  0
 41 52  1  0  0  0  0
 42 68  1  0  0  0  0
 43 45  1  0  0  0  0
 44 46  1  0  0  0  0
 44 47  1  0  0  0  0
 45 50  1  0  0  0  0
 46 53  1  0  0  0  0
 47 69  1  0  0  0  0
 48 51  1  0  0  0  0
 48 67  1  0  0  0  0
 49 53  1  0  0  0  0
 49 69  1  0  0  0  0
 50 72  1  0  0  0  0
 51 73  1  0  0  0  0
 52 68  1  0  0  0  0
 53 66  1  0  0  0  0
 54 63  1  0  0  0  0
 55 64  1  0  0  0  0
 56 64  1  0  0  0  0
 57 64  1  0  0  0  0
 58 75  1  0  0  0  0
 59 60  1  0  0  0  0
 60 61  1  0  0  0  0
 61 83  1  0  0  0  0
 62 64  1  0  0  0  0
 62 74  1  0  0  0  0
 63 75  1  0  0  0  0
 65 66  1  0  0  0  0
M  CHG  1  75   1
M  ISO  4  39 100  61 101  67 100  83 101
M  END
> <Batch ID>
0004

> <Smiles>
CNC(C)C(=O)NC(C(=O)N1Cc2cc([101O:1][101CH2:1]CCC(=O)NC3C[100N:0]([100C:0](=O)N4CCCC(n5nc(-c6ccc(Oc7ccc(F)cc7F)cc6)c(C(N)=O)c5N)C4)c4ccccc43)ccc2CC1C(=O)NC1CCCc2ccccc21)C(C)(C)C

> <Shape>
0.228

> <Color>
0.101

> <Negative vol penalty>
0.000

$$$$

  -OEChem-04042320233D

 86 95  0     1  0  0  0  0  0999 V2000
  -22.7663   -8.6191   20.6373 C   0  0  0  0  0  0  0  0  0  0  0  0
  -22.0260   -9.7922   20.5319 C   0  0  0  0  0  0  0  0  0  0  0  0
  -24.7704  -28.1791   20.1015 C   0  0  0  0  0  0  0  0  0  0  0  0
  -26.9945  -28.5646   20.9629 C   0  0  0  0  0  0  0  0  0  0  0  0
  -24.0112   -8.6358   21.2649 C   0  0  0  0  0  0  0  0  0  0  0  0
  -22.5296  -10.9826   21.0551 C   0  0  0  0  0  0  0  0  0  0  0  0
  -22.5240  -18.0469   19.8669 C   0  0  0  0  0  0  0  0  0  0  0  0
  -20.4016  -25.5902   22.9761 C   0  0  0  0  0  0  0  0  0  0  0  0
  -22.2351  -27.1620   23.0464 C   0  0  0  0  0  0  0  0  0  0  0  0
  -25.3048  -27.4162   19.0632 C   0  0  0  0  0  0  0  0  0  0  0  0
  -27.5289  -27.8016   19.9246 C   0  0  0  0  0  0  0  0  0  0  0  0
  -22.2647  -19.2493   20.5233 C   0  0  0  0  0  0  0  0  0  0  0  0
  -27.9012  -24.5267   19.1786 C   0  0  0  0  0  0  0  0  0  0  0  0
  -28.8862  -23.5936   19.5024 C   0  0  0  0  0  0  0  0  0  0  0  0
  -19.5616  -26.5919   22.4898 C   0  0  0  0  0  0  0  0  0  0  0  0
  -21.3951  -28.1637   22.5600 C   0  0  0  0  0  0  0  0  0  0  0  0
  -24.4620  -19.1743   21.5159 C   0  0  0  0  0  0  0  0  0  0  0  0
  -30.4374  -24.7210   18.0328 C   0  0  0  0  0  0  0  0  0  0  0  0
  -25.6153  -28.7533   21.0513 C   0  0  0  0  0  0  0  0  0  0  0  0
  -24.2965  -30.7164   22.0077 C   0  0  0  0  0  0  0  0  0  0  0  0
  -24.5347   -9.8289   21.7875 C   0  0  0  0  0  0  0  0  0  0  0  0
  -23.7523  -17.3925   20.0390 C   0  0  0  0  0  0  0  0  0  0  0  0
  -23.7821  -11.0150   21.6915 C   0  0  0  0  0  0  0  0  0  0  0  0
  -24.7354  -17.9651   20.8587 C   0  0  0  0  0  0  0  0  0  0  0  0
  -21.7384  -25.8753   23.2545 C   0  0  0  0  0  0  0  0  0  0  0  0
  -26.6840  -27.2275   18.9747 C   0  0  0  0  0  0  0  0  0  0  0  0
  -23.2326  -19.8117   21.3502 C   0  0  0  0  0  0  0  0  0  0  0  0
  -28.1844  -25.5569   18.2817 C   0  0  0  0  0  0  0  0  0  0  0  0
  -30.1543  -23.6908   18.9296 C   0  0  0  0  0  0  0  0  0  0  0  0
  -29.4525  -25.6540   17.7089 C   0  0  0  0  0  0  0  0  0  0  0  0
  -20.0583  -27.8786   22.2817 C   0  0  0  0  0  0  0  0  0  0  0  0
  -25.0640  -29.5420   22.1238 C   0  0  0  0  0  0  0  0  0  0  0  0
  -24.0200  -31.0754   23.3043 C   0  0  0  0  0  0  0  0  0  0  0  0
  -23.8714  -31.4199   20.8329 C   0  0  0  0  0  0  0  0  0  0  0  0
  -24.6484  -14.5736   21.2027 C   0  0  0  0  0  0  0  0  0  0  0  0
  -27.5687  -15.4994   20.1363 C   0  0  0  0  0  0  0  0  0  0  0  0
  -29.6663  -18.0532   19.2849 C   0  0  0  0  0  0  0  0  0  0  0  0
  -24.4544  -26.3540   25.8545 C   0  0  0  0  0  0  0  0  0  0  0  0
  -25.8638   -9.7882   22.4991 C   0  0  0  0  0  0  0  0  0  0  0  0
  -24.0266  -16.1098   19.3029 C   0  0  0  0  0  0  0  0  0  0  0  0
  -26.0778  -17.3128   21.0608 C   0  0  0  0  0  0  0  0  0  0  0  0
  -26.4922  -11.1655   22.6951 C   0  0  0  0  0  0  0  0  0  0  0  0
  -26.8510  -28.9845   26.1767 C   0  0  0  0  0  0  0  0  0  0  0  0
  -21.3064  -25.1812   27.2201 C   0  0  0  0  0  0  0  0  0  0  0  0
  -25.4571  -12.1545   23.2217 C   0  0  0  0  0  0  0  0  0  0  0  0
  -26.0256  -30.2664   26.1829 C   0  0  0  0  0  0  0  0  0  0  0  0
  -21.2576  -24.4776   25.8712 C   0  0  0  0  0  0  0  0  0  0  0  0
  -26.1085  -27.8656   26.8906 C   0  0  0  0  0  0  0  0  0  0  0  0
  -22.1441  -26.4149   26.9212 C   0  0  0  0  0  0  0  0  0  0  0  0
  -23.9147  -28.8191   26.2090 C   0  0  0  0  0  0  0  0  0  0  0  0
  -24.3056  -12.3310   22.2246 C   0  0  1  0  0  0  0  0  0  0  0  0
  -25.1185  -15.2679   19.9559 C   0  0  1  0  0  0  0  0  0  0  0  0
  -24.6140  -30.0613   25.6103 C   0  0  2  0  0  0  0  0  0  0  0  0
  -22.6595  -24.7117   25.3017 C   0  0  1  0  0  0  0  0  0  0  0  0
  -32.0030  -18.5002   18.4865 C   0  0  0  0  0  0  0  0  0  0  0  0
  -28.6311  -14.9437   22.9421 C   0  0  0  0  0  0  0  0  0  0  0  0
  -30.6691  -16.2757   22.3587 C   0  0  0  0  0  0  0  0  0  0  0  0
  -30.1355  -14.1954   21.0897 C   0  0  0  0  0  0  0  0  0  0  0  0
  -28.6963  -19.3319   16.7984 C   0  0  0  0  0  0  0  0  0  0  0  0
  -22.4312  -23.3192   21.7727 C   0  0  0  0  0  0  0  0  0  0  0  0
  -22.0976  -21.9016   21.3515 C   0  0  0  0  0  0  0  0  0  1  0  0
  -22.6501  -24.7889   23.7804 C   0  0  1  0  0  0  0  0  0  0  0  0
  -28.7289  -16.2645   20.7258 C   0  0  1  0  0  0  0  0  0  0  0  0
  -30.5584  -18.2631   18.0747 C   0  0  2  0  0  0  0  0  0  0  0  0
  -29.5152  -15.4314   21.7770 C   0  0  0  0  0  0  0  0  0  0  0  0
  -25.2625  -29.1791   23.3938 N   0  0  0  0  0  0  0  0  0  0  0  0
  -24.6158  -30.1312   24.0877 N   0  0  0  0  0  0  0  0  0  0  0  0
  -26.2959  -16.0567   20.3245 N   0  0  0  0  0  0  0  0  0  0  0  0
  -24.7817  -27.6369   26.3180 N   0  0  0  0  0  0  0  0  0  0  0  0
  -23.1168  -25.9585   25.9272 N   0  0  0  0  0  0  0  0  0  0  0  0
  -23.3280  -32.1036   23.8394 N   0  0  0  0  0  0  0  0  0  0  0  0
  -24.7029  -32.4236   20.3177 N   0  0  0  0  0  0  0  0  0  0  0  0
  -24.7081  -13.1947   21.1353 N   0  0  0  0  0  0  0  0  0  0  0  0
  -29.5353  -16.7166   19.5972 N   0  0  0  0  0  0  0  0  0  0  0  0
  -30.0948  -19.4406   17.2875 N   0  3  0  0  0  0  0  0  0  0  0  0
  -22.2995  -23.4361   23.2453 N   0  3  0  0  0  0  0  0  0  0  0  0
  -22.7788  -31.1771   20.2666 O   0  0  0  0  0  0  0  0  0  0  0  0
  -24.2617  -15.2396   22.1559 O   0  0  0  0  0  0  0  0  0  0  0  0
  -27.7844  -14.4499   19.5250 O   0  0  0  0  0  0  0  0  0  0  0  0
  -29.1414  -18.9823   19.8947 O   0  0  0  0  0  0  0  0  0  0  0  0
  -25.3201  -25.5914   25.4050 O   0  0  0  0  0  0  0  0  0  0  0  0
  -27.2057  -26.4829   17.9618 O   0  0  0  0  0  0  0  0  0  0  0  0
  -22.9801  -20.9933   21.9971 O   0  0  0  0  0  0  0  0  0  1  0  0
  -31.1004  -22.7956   19.2419 F   0  0  0  0  0  0  0  0  0  0  0  0
  -29.7307  -26.6422   16.8476 F   0  0  0  0  0  0  0  0  0  0  0  0
  -19.0218  -29.1140   21.6816 Cl  0  0  0  0  0  0  0  0  0  0  0  0
  1  2  1  0  0  0  0
  1  5  2  0  0  0  0
  2  6  2  0  0  0  0
  3 10  2  0  0  0  0
  3 19  1  0  0  0  0
  4 11  1  0  0  0  0
  4 19  2  0  0  0  0
  5 21  1  0  0  0  0
  6 23  1  0  0  0  0
  7 12  2  0  0  0  0
  7 22  1  0  0  0  0
  8 15  2  0  0  0  0
  8 25  1  0  0  0  0
  9 16  1  0  0  0  0
  9 25  2  0  0  0  0
 10 26  1  0  0  0  0
 11 26  2  0  0  0  0
 12 27  1  0  0  0  0
 13 14  2  0  0  0  0
 13 28  1  0  0  0  0
 14 29  1  0  0  0  0
 15 31  1  0  0  0  0
 16 31  2  0  0  0  0
 17 24  1  0  0  0  0
 17 27  2  0  0  0  0
 18 29  2  0  0  0  0
 18 30  1  0  0  0  0
 19 32  1  0  0  0  0
 20 32  1  0  0  0  0
 20 33  2  0  0  0  0
 20 34  1  0  0  0  0
 21 23  2  0  0  0  0
 21 39  1  0  0  0  0
 22 24  2  0  0  0  0
 22 40  1  0  0  0  0
 23 51  1  0  0  0  0
 24 41  1  0  0  0  0
 25 62  1  0  0  0  0
 26 82  1  0  0  0  0
 27 83  1  0  0  0  0
 28 30  2  0  0  0  0
 28 82  1  0  0  0  0
 29 84  1  0  0  0  0
 30 85  1  0  0  0  0
 31 86  1  0  0  0  0
 32 66  2  0  0  0  0
 33 67  1  0  0  0  0
 33 71  1  0  0  0  0
 34 72  1  0  0  0  0
 34 77  2  0  0  0  0
 35 52  1  0  0  0  0
 35 73  1  0  0  0  0
 35 78  2  0  0  0  0
 36 63  1  0  0  0  0
 36 68  1  0  0  0  0
 36 79  2  0  0  0  0
 37 64  1  0  0  0  0
 37 74  1  0  0  0  0
 37 80  2  0  0  0  0
 38 69  1  0  0  0  0
 38 70  1  0  0  0  0
 38 81  2  0  0  0  0
 39 42  1  0  0  0  0
 40 52  1  0  0  0  0
 41 68  1  0  0  0  0
 42 45  1  0  0  0  0
 43 46  1  0  0  0  0
 43 48  1  0  0  0  0
 44 47  1  0  0  0  0
 44 49  1  0  0  0  0
 45 51  1  0  0  0  0
 46 53  1  0  0  0  0
 47 54  1  0  0  0  0
 48 69  1  0  0  0  0
 49 70  1  0  0  0  0
 50 53  1  0  0  0  0
 50 69  1  0  0  0  0
 51 73  1  0  0  0  0
 52 68  1  0  0  0  0
 53 67  1  0  0  0  0
 54 62  1  0  0  0  0
 54 70  1  0  0  0  0
 55 64  1  0  0  0  0
 56 65  1  0  0  0  0
 57 65  1  0  0  0  0
 58 65  1  0  0  0  0
 59 75  1  0  0  0  0
 60 61  1  0  0  0  0
 60 76  1  0  0  0  0
 61 83  1  0  0  0  0
 62 76  1  0  0  0  0
 63 65  1  0  0  0  0
 63 74  1  0  0  0  0
 64 75  1  0  0  0  0
 66 67  1  0  0  0  0
M  CHG  2  75   1  76   1
M  ISO  4  38 100  61 101  70 100  83 101
M  END
> <Batch ID>
0004

> <Smiles>
CNC(C)C(=O)NC(C(=O)N1Cc2cc([101O:1][101CH2:1]CNC(c3ccc(Cl)cc3)C3CCC[100N:0]3[100C:0](=O)N3CCCC(n4nc(-c5ccc(Oc6ccc(F)cc6F)cc5)c(C(N)=O)c4N)C3)ccc2CC1C(=O)NC1CCCc2ccccc21)C(C)(C)C

> <Shape>
0.265

> <Color>
0.054

> <Negative vol penalty>
0.000

$$$$

  -OEChem-04042320233D

 83 92  0     1  0  0  0  0  0999 V2000
  -26.5894  -37.1224   25.0791 C   0  0  0  0  0  0  0  0  0  0  0  0
  -27.5370  -36.2130   24.6206 C   0  0  0  0  0  0  0  0  0  0  0  0
  -22.7971  -10.2862   20.2388 C   0  0  0  0  0  0  0  0  0  0  0  0
  -24.5634   -9.2301   21.5043 C   0  0  0  0  0  0  0  0  0  0  0  0
  -25.4234  -36.6637   25.6906 C   0  0  0  0  0  0  0  0  0  0  0  0
  -27.3197  -34.8442   24.7742 C   0  0  0  0  0  0  0  0  0  0  0  0
  -27.2062  -29.1650   19.4113 C   0  0  0  0  0  0  0  0  0  0  0  0
  -25.7538  -19.6294   19.0661 C   0  0  0  0  0  0  0  0  0  0  0  0
  -28.0683  -20.2157   19.4351 C   0  0  0  0  0  0  0  0  0  0  0  0
  -26.0604  -18.2854   19.2783 C   0  0  0  0  0  0  0  0  0  0  0  0
  -28.3749  -18.8716   19.6473 C   0  0  0  0  0  0  0  0  0  0  0  0
  -21.8498   -9.7389   21.1040 C   0  0  0  0  0  0  0  0  0  0  0  0
  -23.6162   -8.6828   22.3697 C   0  0  0  0  0  0  0  0  0  0  0  0
  -27.0052  -28.0981   18.5353 C   0  0  0  0  0  0  0  0  0  0  0  0
  -21.4503   -6.0866   22.3724 C   0  0  0  0  0  0  0  0  0  0  0  0
  -21.5905   -4.7433   22.7207 C   0  0  0  0  0  0  0  0  0  0  0  0
  -25.5498  -27.0346   20.1475 C   0  0  0  0  0  0  0  0  0  0  0  0
  -21.7805   -5.3664   25.0473 C   0  0  0  0  0  0  0  0  0  0  0  0
  -24.1539  -10.0318   20.4389 C   0  0  0  0  0  0  0  0  0  0  0  0
  -25.2365  -10.3882   18.1567 C   0  0  0  0  0  0  0  0  0  0  0  0
  -25.1871  -35.2884   25.8431 C   0  0  0  0  0  0  0  0  0  0  0  0
  -26.5668  -29.1782   20.6540 C   0  0  0  0  0  0  0  0  0  0  0  0
  -26.1500  -34.3667   25.3895 C   0  0  0  0  0  0  0  0  0  0  0  0
  -25.7375  -28.1066   21.0240 C   0  0  0  0  0  0  0  0  0  0  0  0
  -26.7578  -20.5946   19.1445 C   0  0  0  0  0  0  0  0  0  0  0  0
  -27.3709  -17.9064   19.5689 C   0  0  0  0  0  0  0  0  0  0  0  0
  -22.2594   -8.9372   22.1695 C   0  0  0  0  0  0  0  0  0  0  0  0
  -26.1793  -27.0354   18.9026 C   0  0  0  0  0  0  0  0  0  0  0  0
  -21.4754   -7.0699   23.3615 C   0  0  0  0  0  0  0  0  0  0  0  0
  -21.7555   -4.3831   24.0582 C   0  0  0  0  0  0  0  0  0  0  0  0
  -21.6404   -6.7097   24.6989 C   0  0  0  0  0  0  0  0  0  0  0  0
  -25.1329  -10.5965   19.5451 C   0  0  0  0  0  0  0  0  0  0  0  0
  -26.3211  -11.1404   17.7767 C   0  0  0  0  0  0  0  0  0  0  0  0
  -24.4249   -9.5866   17.2881 C   0  0  0  0  0  0  0  0  0  0  0  0
  -25.9702  -30.9990   23.8797 C   0  0  0  0  0  0  0  0  0  0  0  0
  -23.2787  -29.8048   23.0196 C   0  0  0  0  0  0  0  0  0  0  0  0
  -20.4324  -28.6839   21.5098 C   0  0  0  0  0  0  0  0  0  0  0  0
  -28.9309  -15.9961   20.0824 C   0  0  0  0  0  0  0  0  0  0  0  0
  -23.9337  -34.8414   26.5529 C   0  0  0  0  0  0  0  0  0  0  0  0
  -26.8028  -30.2771   21.6543 C   0  0  0  0  0  0  0  0  0  0  0  0
  -25.0976  -28.1469   22.3849 C   0  0  0  0  0  0  0  0  0  0  0  0
  -23.6067  -33.3655   26.3404 C   0  0  0  0  0  0  0  0  0  0  0  0
  -30.4687  -12.8465   19.4563 C   0  0  0  0  0  0  0  0  0  0  0  0
  -24.8537  -32.5090   26.5359 C   0  0  0  0  0  0  0  0  0  0  0  0
  -29.2843  -11.8943   19.2756 C   0  0  0  0  0  0  0  0  0  0  0  0
  -25.5203  -23.7138   17.4900 C   0  0  0  0  0  0  0  0  0  0  0  0
  -26.9107  -24.3019   19.4820 C   0  0  0  0  0  0  0  0  0  0  0  0
  -30.1907  -13.9007   20.5264 C   0  0  0  0  0  0  0  0  0  0  0  0
  -25.3497  -22.2946   18.0248 C   0  0  0  0  0  0  0  0  0  0  0  0
  -26.7376  -22.8854   20.0213 C   0  0  0  0  0  0  0  0  0  0  0  0
  -27.7620  -13.7064   20.1621 C   0  0  0  0  0  0  0  0  0  0  0  0
  -25.9389  -32.8735   25.5156 C   0  0  1  0  0  0  0  0  0  0  0  0
  -25.5547  -30.6094   22.4915 C   0  0  1  0  0  0  0  0  0  0  0  0
  -27.9698  -12.6665   19.0489 C   0  0  2  0  0  0  0  0  0  0  0  0
  -25.7309  -24.7215   18.6128 C   0  0  0  0  0  0  0  0  0  1  0  0
  -17.9491  -28.5451   21.8437 C   0  0  0  0  0  0  0  0  0  0  0  0
  -23.6773  -27.5280   25.0099 C   0  0  0  0  0  0  0  0  0  0  0  0
  -21.3128  -26.8289   24.5753 C   0  0  0  0  0  0  0  0  0  0  0  0
  -21.7878  -29.0728   25.5561 C   0  0  0  0  0  0  0  0  0  0  0  0
  -19.8998  -30.3050   19.0917 C   0  0  0  0  0  0  0  0  0  0  0  0
  -22.3184  -28.6469   23.1211 C   0  0  1  0  0  0  0  0  0  0  0  0
  -19.0946  -29.3553   21.2569 C   0  0  2  0  0  0  0  0  0  0  0  0
  -22.2927  -28.0212   24.5442 C   0  0  0  0  0  0  0  0  0  0  0  0
  -26.0764  -11.4166   20.0153 N   0  0  0  0  0  0  0  0  0  0  0  0
  -26.7833  -11.7302   18.9162 N   0  0  0  0  0  0  0  0  0  0  0  0
  -26.4504  -21.9442   18.9296 N   0  0  0  0  0  0  0  0  0  0  0  0
  -24.5992  -29.5023   22.6658 N   0  0  0  0  0  0  0  0  0  0  0  0
  -28.9323  -14.5944   20.2436 N   0  0  0  0  0  0  0  0  0  0  0  0
  -26.9150  -11.3482   16.5823 N   0  0  0  0  0  0  0  0  0  0  0  0
  -23.3503   -8.8784   17.8430 N   0  0  0  0  0  0  0  0  0  0  0  0
  -27.6823  -16.5410   19.7844 N   0  0  0  0  0  0  0  0  0  0  0  0
  -25.6342  -32.2942   24.2249 N   0  0  0  0  0  0  0  0  0  0  0  0
  -21.0260  -29.1471   22.6649 N   0  0  0  0  0  0  0  0  0  0  0  0
  -18.8604  -29.5085   19.7932 N   0  3  0  0  0  0  0  0  0  0  0  0
  -24.6561   -9.4879   16.0591 O   0  0  0  0  0  0  0  0  0  0  0  0
  -26.5518  -30.1849   24.5872 O   0  0  0  0  0  0  0  0  0  0  0  0
  -22.8731  -30.9470   23.2528 O   0  0  0  0  0  0  0  0  0  0  0  0
  -20.9020  -27.8310   20.7598 O   0  0  0  0  0  0  0  0  0  0  0  0
  -29.9663  -16.6608   20.1730 O   0  0  0  0  0  0  0  0  0  0  0  0
  -21.3353   -8.4031   23.0142 O   0  0  0  0  0  0  0  0  0  0  0  0
  -25.9839  -25.9992   18.0408 O   0  0  0  0  0  0  0  0  0  1  0  0
  -21.8885   -3.0929   24.3927 F   0  0  0  0  0  0  0  0  0  0  0  0
  -21.6641   -7.6498   25.6537 F   0  0  0  0  0  0  0  0  0  0  0  0
  1  2  1  0  0  0  0
  1  5  2  0  0  0  0
  2  6  2  0  0  0  0
  3 12  2  0  0  0  0
  3 19  1  0  0  0  0
  4 13  1  0  0  0  0
  4 19  2  0  0  0  0
  5 21  1  0  0  0  0
  6 23  1  0  0  0  0
  7 14  2  0  0  0  0
  7 22  1  0  0  0  0
  8 10  2  0  0  0  0
  8 25  1  0  0  0  0
  9 11  1  0  0  0  0
  9 25  2  0  0  0  0
 10 26  1  0  0  0  0
 11 26  2  0  0  0  0
 12 27  1  0  0  0  0
 13 27  2  0  0  0  0
 14 28  1  0  0  0  0
 15 16  2  0  0  0  0
 15 29  1  0  0  0  0
 16 30  1  0  0  0  0
 17 24  1  0  0  0  0
 17 28  2  0  0  0  0
 18 30  2  0  0  0  0
 18 31  1  0  0  0  0
 19 32  1  0  0  0  0
 20 32  1  0  0  0  0
 20 33  2  0  0  0  0
 20 34  1  0  0  0  0
 21 23  2  0  0  0  0
 21 39  1  0  0  0  0
 22 24  2  0  0  0  0
 22 40  1  0  0  0  0
 23 52  1  0  0  0  0
 24 41  1  0  0  0  0
 25 66  1  0  0  0  0
 26 71  1  0  0  0  0
 27 80  1  0  0  0  0
 28 81  1  0  0  0  0
 29 31  2  0  0  0  0
 29 80  1  0  0  0  0
 30 82  1  0  0  0  0
 31 83  1  0  0  0  0
 32 64  2  0  0  0  0
 33 65  1  0  0  0  0
 33 69  1  0  0  0  0
 34 70  1  0  0  0  0
 34 75  2  0  0  0  0
 35 53  1  0  0  0  0
 35 72  1  0  0  0  0
 35 76  2  0  0  0  0
 36 61  1  0  0  0  0
 36 67  1  0  0  0  0
 36 77  2  0  0  0  0
 37 62  1  0  0  0  0
 37 73  1  0  0  0  0
 37 78  2  0  0  0  0
 38 68  1  0  0  0  0
 38 71  1  0  0  0  0
 38 79  2  0  0  0  0
 39 42  1  0  0  0  0
 40 53  1  0  0  0  0
 41 67  1  0  0  0  0
 42 44  1  0  0  0  0
 43 45  1  0  0  0  0
 43 48  1  0  0  0  0
 44 52  1  0  0  0  0
 45 54  1  0  0  0  0
 46 49  1  0  0  0  0
 46 55  1  0  0  0  0
 47 50  1  0  0  0  0
 47 55  1  0  0  0  0
 48 68  1  0  0  0  0
 49 66  1  0  0  0  0
 50 66  1  0  0  0  0
 51 54  1  0  0  0  0
 51 68  1  0  0  0  0
 52 72  1  0  0  0  0
 53 67  1  0  0  0  0
 54 65  1  0  0  0  0
 55 81  1  0  0  0  0
 56 62  1  0  0  0  0
 57 63  1  0  0  0  0
 58 63  1  0  0  0  0
 59 63  1  0  0  0  0
 60 74  1  0  0  0  0
 61 63  1  0  0  0  0
 61 73  1  0  0  0  0
 62 74  1  0  0  0  0
 64 65  1  0  0  0  0
M  CHG  1  74   1
M  ISO  4  38 100  55 101  71 100  81 101
M  END
> <Batch ID>
0004

> <Smiles>
CNC(C)C(=O)NC(C(=O)N1Cc2cc([101O:1][101CH:1]3CCN(c4ccc([100NH:0][100C:0](=O)N5CCCC(n6nc(-c7ccc(Oc8ccc(F)cc8F)cc7)c(C(N)=O)c6N)C5)cc4)CC3)ccc2CC1C(=O)NC1CCCc2ccccc21)C(C)(C)C

> <Shape>
0.309

> <Color>
0.105

> <Negative vol penalty>
0.000

$$$$

  -OEChem-04042320233D

 90 98  0     1  0  0  0  0  0999 V2000
  -28.9459  -23.3297   19.0021 C   0  0  0  0  0  0  0  0  0  0  0  0
  -27.7618  -23.5819   19.6875 C   0  0  0  0  0  0  0  0  0  0  0  0
  -25.3284  -12.3747   19.2414 C   0  0  0  0  0  0  0  0  0  0  0  0
  -24.7785  -12.4567   21.5926 C   0  0  0  0  0  0  0  0  0  0  0  0
  -30.0886  -24.0751   19.2895 C   0  0  0  0  0  0  0  0  0  0  0  0
  -27.7200  -24.5789   20.6615 C   0  0  0  0  0  0  0  0  0  0  0  0
  -23.5977  -27.4955   20.2805 C   0  0  0  0  0  0  0  0  0  0  0  0
  -24.3575  -20.5974   25.2483 C   0  0  0  0  0  0  0  0  0  0  0  0
  -23.2774  -21.4672   25.3974 C   0  0  0  0  0  0  0  0  0  0  0  0
  -25.6826  -11.0318   19.3710 C   0  0  0  0  0  0  0  0  0  0  0  0
  -25.1327  -11.1138   21.7222 C   0  0  0  0  0  0  0  0  0  0  0  0
  -22.4016  -26.9748   20.7725 C   0  0  0  0  0  0  0  0  0  0  0  0
  -25.5497   -7.6094   22.5961 C   0  0  0  0  0  0  0  0  0  0  0  0
  -24.6959   -6.7800   23.3232 C   0  0  0  0  0  0  0  0  0  0  0  0
  -25.8717  -22.4800   25.2336 C   0  0  0  0  0  0  0  0  0  0  0  0
  -22.6766  -28.2668   22.7910 C   0  0  0  0  0  0  0  0  0  0  0  0
  -22.9047   -7.2685   21.7772 C   0  0  0  0  0  0  0  0  0  0  0  0
  -24.8764  -13.0871   20.3522 C   0  0  0  0  0  0  0  0  0  0  0  0
  -24.7915  -23.3499   25.3826 C   0  0  0  0  0  0  0  0  0  0  0  0
  -23.2402  -14.9924   19.9040 C   0  0  0  0  0  0  0  0  0  0  0  0
  -30.0583  -25.0883   20.2607 C   0  0  0  0  0  0  0  0  0  0  0  0
  -24.3490  -28.3989   21.0459 C   0  0  0  0  0  0  0  0  0  0  0  0
  -28.8637  -25.3377   20.9630 C   0  0  0  0  0  0  0  0  0  0  0  0
  -23.8805  -28.7995   22.3054 C   0  0  0  0  0  0  0  0  0  0  0  0
  -25.6547  -21.1037   25.1665 C   0  0  0  0  0  0  0  0  0  0  0  0
  -23.4944  -22.8435   25.4645 C   0  0  0  0  0  0  0  0  0  0  0  0
  -25.5848  -10.4013   20.6114 C   0  0  0  0  0  0  0  0  0  0  0  0
  -21.9424  -27.3582   22.0292 C   0  0  0  0  0  0  0  0  0  0  0  0
  -25.0810   -8.2684   21.4595 C   0  0  0  0  0  0  0  0  0  0  0  0
  -23.3734   -6.6095   22.9138 C   0  0  0  0  0  0  0  0  0  0  0  0
  -23.7585   -8.0980   21.0501 C   0  0  0  0  0  0  0  0  0  0  0  0
  -24.5108  -14.4745   20.2190 C   0  0  0  0  0  0  0  0  0  0  0  0
  -23.4164  -16.3545   19.8986 C   0  0  0  0  0  0  0  0  0  0  0  0
  -25.0382  -24.7751   25.4490 C   0  0  0  0  0  0  0  0  0  0  0  0
  -22.0107  -14.3037   19.6400 C   0  0  0  0  0  0  0  0  0  0  0  0
  -27.2652  -28.3842   22.3105 C   0  0  0  0  0  0  0  0  0  0  0  0
  -26.5291  -31.4514   23.0677 C   0  0  0  0  0  0  0  0  0  0  0  0
  -24.1153  -33.7872   23.6713 C   0  0  0  0  0  0  0  0  0  0  0  0
  -27.3569  -19.9672   22.5952 C   0  0  0  0  0  0  0  0  0  0  0  0
  -31.3312  -25.8356   20.5700 C   0  0  0  0  0  0  0  0  0  0  0  0
  -25.6235  -28.9720   20.4896 C   0  0  0  0  0  0  0  0  0  0  0  0
  -24.6395  -29.7821   23.1580 C   0  0  0  0  0  0  0  0  0  0  0  0
  -31.1047  -27.1269   21.3521 C   0  0  0  0  0  0  0  0  0  0  0  0
  -26.7452  -19.6965   19.0982 C   0  0  0  0  0  0  0  0  0  0  0  0
  -30.1456  -26.8863   22.5136 C   0  0  0  0  0  0  0  0  0  0  0  0
  -25.9886  -18.3742   18.9605 C   0  0  0  0  0  0  0  0  0  0  0  0
  -27.8154  -19.6238   20.1852 C   0  0  0  0  0  0  0  0  0  0  0  0
  -26.5729  -17.8529   21.3658 C   0  0  0  0  0  0  0  0  0  0  0  0
  -28.7722  -26.4275   22.0089 C   0  0  1  0  0  0  0  0  0  0  0  0
  -26.5674  -29.4902   21.5704 C   0  0  1  0  0  0  0  0  0  0  0  0
  -25.4455  -17.8947   20.3200 C   0  0  2  0  0  0  0  0  0  0  0  0
  -23.8210  -36.1980   24.3028 C   0  0  0  0  0  0  0  0  0  0  0  0
  -27.2573  -30.7818   25.9541 C   0  0  0  0  0  0  0  0  0  0  0  0
  -26.0656  -32.8657   26.6648 C   0  0  0  0  0  0  0  0  0  0  0  0
  -28.0557  -33.0179   25.1686 C   0  0  0  0  0  0  0  0  0  0  0  0
  -22.6842  -34.3925   21.1525 C   0  0  0  0  0  0  0  0  0  0  0  0
  -22.3162  -23.7586   25.6242 C   0  0  0  0  0  0  0  0  0  0  0  0
  -19.5875  -24.8782   23.1826 C   0  0  0  0  0  0  0  0  0  0  0  0
  -20.3187  -24.7641   24.5117 C   0  0  0  0  0  0  0  0  0  0  0  0
  -20.4112  -25.5393   22.0843 C   0  0  0  0  0  0  0  0  0  1  0  0
  -26.8093  -20.1736   25.0070 C   0  0  1  0  0  0  0  0  0  0  0  0
  -25.8746  -32.1346   24.2441 C   0  0  1  0  0  0  0  0  0  0  0  0
  -23.9336  -35.2039   23.1574 C   0  0  2  0  0  0  0  0  0  0  0  0
  -26.7998  -32.1800   25.4929 C   0  0  0  0  0  0  0  0  0  0  0  0
  -26.9573  -19.1815   26.1630 C   0  0  0  0  0  0  0  0  0  0  0  0
  -25.4265  -15.4298   20.4003 N   0  0  0  0  0  0  0  0  0  0  0  0
  -24.7306  -16.5616   20.1986 N   0  0  0  0  0  0  0  0  0  0  0  0
  -25.8833  -30.3095   22.5729 N   0  0  0  0  0  0  0  0  0  0  0  0
  -27.2348  -19.1642   21.4492 N   0  0  0  0  0  0  0  0  0  0  0  0
  -22.5737  -17.3833   19.6663 N   0  0  0  0  0  0  0  0  0  0  0  0
  -25.2544  -25.3725   26.6319 N   0  0  0  0  0  0  0  0  0  0  0  0
  -22.0060  -12.9030   19.6870 N   0  0  0  0  0  0  0  0  0  0  0  0
  -28.0178  -27.5538   21.5022 N   0  0  0  0  0  0  0  0  0  0  0  0
  -25.4477  -33.4461   23.7687 N   0  0  0  0  0  0  0  0  0  0  0  0
  -26.7729  -19.4604   23.7497 N   0  0  0  0  0  0  0  0  0  0  0  0
  -25.0553  -25.5145   24.3283 N   0  3  0  0  0  0  0  0  0  0  0  0
  -22.6987  -35.2999   22.3287 N   0  3  0  0  0  0  0  0  0  0  0  0
  -21.5260  -23.9164   24.3720 N   0  3  0  0  0  0  0  0  0  0  0  0
  -20.9515  -14.9119   19.3543 O   0  0  0  0  0  0  0  0  0  0  0  0
  -27.1318  -28.2921   23.5252 O   0  0  0  0  0  0  0  0  0  0  0  0
  -27.5710  -31.9179   22.6003 O   0  0  0  0  0  0  0  0  0  0  0  0
  -23.1698  -33.0574   23.9613 O   0  0  0  0  0  0  0  0  0  0  0  0
  -27.9382  -21.0575   22.5887 O   0  0  0  0  0  0  0  0  0  0  0  0
  -25.9301   -9.0909   20.7383 O   0  0  0  0  0  0  0  0  0  0  0  0
  -20.7756  -26.8510   22.5121 O   0  0  0  0  0  0  0  0  0  1  0  0
  -22.5541   -5.8118   23.6112 F   0  0  0  0  0  0  0  0  0  0  0  0
  -23.3029   -8.7276   19.9584 F   0  0  0  0  0  0  0  0  0  0  0  0
  -27.1681  -19.8035   27.3420 F   0  0  0  0  0  0  0  0  0  0  0  0
  -25.8507  -18.4142   26.2996 F   0  0  0  0  0  0  0  0  0  0  0  0
  -27.9967  -18.3448   25.9445 F   0  0  0  0  0  0  0  0  0  0  0  0
  1  2  1  0  0  0  0
  1  5  2  0  0  0  0
  2  6  2  0  0  0  0
  3 10  2  0  0  0  0
  3 18  1  0  0  0  0
  4 11  1  0  0  0  0
  4 18  2  0  0  0  0
  5 21  1  0  0  0  0
  6 23  1  0  0  0  0
  7 12  2  0  0  0  0
  7 22  1  0  0  0  0
  8  9  2  0  0  0  0
  8 25  1  0  0  0  0
  9 26  1  0  0  0  0
 10 27  1  0  0  0  0
 11 27  2  0  0  0  0
 12 28  1  0  0  0  0
 13 14  2  0  0  0  0
 13 29  1  0  0  0  0
 14 30  1  0  0  0  0
 15 19  1  0  0  0  0
 15 25  2  0  0  0  0
 16 24  1  0  0  0  0
 16 28  2  0  0  0  0
 17 30  2  0  0  0  0
 17 31  1  0  0  0  0
 18 32  1  0  0  0  0
 19 26  2  0  0  0  0
 19 34  1  0  0  0  0
 20 32  1  0  0  0  0
 20 33  2  0  0  0  0
 20 35  1  0  0  0  0
 21 23  2  0  0  0  0
 21 40  1  0  0  0  0
 22 24  2  0  0  0  0
 22 41  1  0  0  0  0
 23 49  1  0  0  0  0
 24 42  1  0  0  0  0
 25 61  1  0  0  0  0
 26 57  1  0  0  0  0
 27 84  1  0  0  0  0
 28 85  1  0  0  0  0
 29 31  2  0  0  0  0
 29 84  1  0  0  0  0
 30 86  1  0  0  0  0
 31 87  1  0  0  0  0
 32 66  2  0  0  0  0
 33 67  1  0  0  0  0
 33 70  1  0  0  0  0
 34 71  1  0  0  0  0
 34 76  2  0  0  0  0
 35 72  1  0  0  0  0
 35 79  2  0  0  0  0
 36 50  1  0  0  0  0
 36 73  1  0  0  0  0
 36 80  2  0  0  0  0
 37 62  1  0  0  0  0
 37 68  1  0  0  0  0
 37 81  2  0  0  0  0
 38 63  1  0  0  0  0
 38 74  1  0  0  0  0
 38 82  2  0  0  0  0
 39 69  1  0  0  0  0
 39 75  1  0  0  0  0
 39 83  2  0  0  0  0
 40 43  1  0  0  0  0
 41 50  1  0  0  0  0
 42 68  1  0  0  0  0
 43 45  1  0  0  0  0
 44 46  1  0  0  0  0
 44 47  1  0  0  0  0
 45 49  1  0  0  0  0
 46 51  1  0  0  0  0
 47 69  1  0  0  0  0
 48 51  1  0  0  0  0
 48 69  1  0  0  0  0
 49 73  1  0  0  0  0
 50 68  1  0  0  0  0
 51 67  1  0  0  0  0
 52 63  1  0  0  0  0
 53 64  1  0  0  0  0
 54 64  1  0  0  0  0
 55 64  1  0  0  0  0
 56 77  1  0  0  0  0
 57 78  1  0  0  0  0
 58 59  1  0  0  0  0
 58 60  1  0  0  0  0
 59 78  1  0  0  0  0
 60 85  1  0  0  0  0
 61 65  1  0  0  0  0
 61 75  1  0  0  0  0
 62 64  1  0  0  0  0
 62 74  1  0  0  0  0
 63 77  1  0  0  0  0
 65 88  1  0  0  0  0
 65 89  1  0  0  0  0
 65 90  1  0  0  0  0
 66 67  1  0  0  0  0
M  CHG  3  76   1  77   1  78   1
M  ISO  4  39 100  60 101  75 100  85 101
M  END
> <Batch ID>
0004

> <Smiles>
CNC(C)C(=O)NC(C(=O)N1Cc2cc([101O:1][101CH2:1]CCNCc3ccc(C([100NH:0][100C:0](=O)N4CCCC(n5nc(-c6ccc(Oc7ccc(F)cc7F)cc6)c(C(N)=O)c5N)C4)C(F)(F)F)cc3C(=N)N)ccc2CC1C(=O)NC1CCCc2ccccc21)C(C)(C)C

> <Shape>
0.242

> <Color>
0.054

> <Negative vol penalty>
0.000

$$$$

  -OEChem-04042320233D

 82 90  0     1  0  0  0  0  0999 V2000
  -18.1133  -25.5315   23.0315 C   0  0  0  0  0  0  0  0  0  0  0  0
  -19.2196  -25.4769   22.1897 C   0  0  0  0  0  0  0  0  0  0  0  0
  -26.0370  -16.2643   20.4737 C   0  0  0  0  0  0  0  0  0  0  0  0
  -25.9626  -16.6509   18.0900 C   0  0  0  0  0  0  0  0  0  0  0  0
  -17.6105  -26.7658   23.4408 C   0  0  0  0  0  0  0  0  0  0  0  0
  -19.8231  -26.6568   21.7559 C   0  0  0  0  0  0  0  0  0  0  0  0
  -25.7893  -27.5768   20.7242 C   0  0  0  0  0  0  0  0  0  0  0  0
  -24.0518  -24.9853   15.2817 C   0  0  0  0  0  0  0  0  0  0  0  0
  -22.5176  -26.5401   16.3141 C   0  0  0  0  0  0  0  0  0  0  0  0
  -25.8837  -14.8951   20.2565 C   0  0  0  0  0  0  0  0  0  0  0  0
  -25.8094  -15.2816   17.8727 C   0  0  0  0  0  0  0  0  0  0  0  0
  -26.5513  -27.5697   19.5568 C   0  0  0  0  0  0  0  0  0  0  0  0
  -24.9193  -26.0371   14.9868 C   0  0  0  0  0  0  0  0  0  0  0  0
  -23.3851  -27.5919   16.0193 C   0  0  0  0  0  0  0  0  0  0  0  0
  -27.8238  -12.2892   19.3193 C   0  0  0  0  0  0  0  0  0  0  0  0
  -28.6485  -11.4227   20.0367 C   0  0  0  0  0  0  0  0  0  0  0  0
  -26.3425  -29.9687   19.4131 C   0  0  0  0  0  0  0  0  0  0  0  0
  -26.7020  -10.3921   21.0297 C   0  0  0  0  0  0  0  0  0  0  0  0
  -26.0763  -17.1423   19.3904 C   0  0  0  0  0  0  0  0  0  0  0  0
  -27.4419  -19.2757   19.6929 C   0  0  0  0  0  0  0  0  0  0  0  0
  -18.2141  -27.9612   23.0196 C   0  0  0  0  0  0  0  0  0  0  0  0
  -25.2881  -28.7807   21.2398 C   0  0  0  0  0  0  0  0  0  0  0  0
  -19.3271  -27.9083   22.1590 C   0  0  0  0  0  0  0  0  0  0  0  0
  -25.5765  -29.9886   20.5886 C   0  0  0  0  0  0  0  0  0  0  0  0
  -22.8509  -25.2369   15.9452 C   0  0  0  0  0  0  0  0  0  0  0  0
  -25.7700  -14.4037   18.9560 C   0  0  0  0  0  0  0  0  0  0  0  0
  -24.5860  -27.3403   15.3557 C   0  0  0  0  0  0  0  0  0  0  0  0
  -26.8256  -28.7654   18.8994 C   0  0  0  0  0  0  0  0  0  0  0  0
  -26.4381  -12.2072   19.4572 C   0  0  0  0  0  0  0  0  0  0  0  0
  -28.0877  -10.4742   20.8919 C   0  0  0  0  0  0  0  0  0  0  0  0
  -25.8773  -11.2586   20.3123 C   0  0  0  0  0  0  0  0  0  0  0  0
  -26.2341  -18.5569   19.6142 C   0  0  0  0  0  0  0  0  0  0  0  0
  -27.0547  -20.5746   19.9148 C   0  0  0  0  0  0  0  0  0  0  0  0
  -28.7932  -18.8107   19.5758 C   0  0  0  0  0  0  0  0  0  0  0  0
  -22.3833  -29.9508   21.7848 C   0  0  0  0  0  0  0  0  0  0  0  0
  -24.0432  -32.3816   23.1481 C   0  0  0  0  0  0  0  0  0  0  0  0
  -26.9620  -34.1375   23.3571 C   0  0  0  0  0  0  0  0  0  0  0  0
  -22.0354  -23.5994   18.6866 C   0  0  0  0  0  0  0  0  0  0  0  0
  -17.6060  -29.2724   23.4504 C   0  0  0  0  0  0  0  0  0  0  0  0
  -24.4902  -28.7743   22.5148 C   0  0  0  0  0  0  0  0  0  0  0  0
  -25.0789  -31.3103   21.1122 C   0  0  0  0  0  0  0  0  0  0  0  0
  -18.5319  -30.4690   23.2475 C   0  0  0  0  0  0  0  0  0  0  0  0
  -23.5349  -23.1482   21.8842 C   0  0  0  0  0  0  0  0  0  0  0  0
  -19.1659  -30.4244   21.8608 C   0  0  0  0  0  0  0  0  0  0  0  0
  -24.5057  -21.9852   21.6721 C   0  0  0  0  0  0  0  0  0  0  0  0
  -22.2539  -22.9693   21.0723 C   0  0  0  0  0  0  0  0  0  0  0  0
  -23.4326  -21.5726   19.4189 C   0  0  0  0  0  0  0  0  0  0  0  0
  -20.0244  -29.1657   21.6870 C   0  0  1  0  0  0  0  0  0  0  0  0
  -23.5981  -30.0024   22.6676 C   0  0  1  0  0  0  0  0  0  0  0  0
  -24.7629  -21.7356   20.1738 C   0  0  2  0  0  0  0  0  0  0  0  0
  -28.0037  -36.0946   24.5328 C   0  0  0  0  0  0  0  0  0  0  0  0
  -22.4831  -34.2895   21.3492 C   0  0  0  0  0  0  0  0  0  0  0  0
  -24.1864  -36.0521   21.8592 C   0  0  0  0  0  0  0  0  0  0  0  0
  -22.7987  -35.0924   23.6966 C   0  0  0  0  0  0  0  0  0  0  0  0
  -29.0444  -32.4354   24.5922 C   0  0  0  0  0  0  0  0  0  0  0  0
  -21.9236  -24.1125   16.2610 C   0  0  0  0  0  0  0  0  0  0  0  0
  -27.6395  -29.2913   15.4065 C   0  0  0  0  0  0  0  0  0  0  0  0
  -26.8259  -28.0659   15.0210 C   0  0  0  0  0  0  0  0  0  0  0  0
  -27.2969  -29.7853   16.8033 C   0  0  0  0  0  0  0  0  0  1  0  0
  -24.6249  -33.6857   22.6584 C   0  0  1  0  0  0  0  0  0  0  0  0
  -27.7819  -34.5902   24.5519 C   0  0  2  0  0  0  0  0  0  0  0  0
  -23.5312  -34.7550   22.3797 C   0  0  0  0  0  0  0  0  0  0  0  0
  -25.1599  -19.3347   19.7733 N   0  0  0  0  0  0  0  0  0  0  0  0
  -25.6915  -20.5556   19.9543 N   0  0  0  0  0  0  0  0  0  0  0  0
  -24.2977  -31.2512   22.3587 N   0  0  0  0  0  0  0  0  0  0  0  0
  -22.5675  -22.7380   19.6602 N   0  0  0  0  0  0  0  0  0  0  0  0
  -27.7507  -21.7198   20.0780 N   0  0  0  0  0  0  0  0  0  0  0  0
  -29.0126  -17.4453   19.3483 N   0  0  0  0  0  0  0  0  0  0  0  0
  -21.2952  -29.3236   22.3610 N   0  0  0  0  0  0  0  0  0  0  0  0
  -25.6156  -34.0889   23.6506 N   0  0  0  0  0  0  0  0  0  0  0  0
  -22.3873  -23.3132   17.3732 N   0  0  0  0  0  0  0  0  0  0  0  0
  -29.1124  -33.9189   24.5514 N   0  3  0  0  0  0  0  0  0  0  0  0
  -29.7773  -19.5806   19.6865 O   0  0  0  0  0  0  0  0  0  0  0  0
  -22.4294  -30.4449   20.6643 O   0  0  0  0  0  0  0  0  0  0  0  0
  -23.3931  -32.3652   24.1963 O   0  0  0  0  0  0  0  0  0  0  0  0
  -27.4653  -33.8588   22.2710 O   0  0  0  0  0  0  0  0  0  0  0  0
  -21.3055  -24.5561   18.9675 O   0  0  0  0  0  0  0  0  0  0  0  0
  -25.6207  -13.0676   18.7436 O   0  0  0  0  0  0  0  0  0  0  0  0
  -25.4391  -28.3735   15.0671 O   0  0  0  0  0  0  0  0  0  0  0  0
  -27.5686  -28.7613   17.7593 O   0  0  0  0  0  0  0  0  0  1  0  0
  -28.8797   -9.6412   21.5795 F   0  0  0  0  0  0  0  0  0  0  0  0
  -24.5467  -11.1742   20.4480 F   0  0  0  0  0  0  0  0  0  0  0  0
  1  2  1  0  0  0  0
  1  5  2  0  0  0  0
  2  6  2  0  0  0  0
  3 10  2  0  0  0  0
  3 19  1  0  0  0  0
  4 11  1  0  0  0  0
  4 19  2  0  0  0  0
  5 21  1  0  0  0  0
  6 23  1  0  0  0  0
  7 12  2  0  0  0  0
  7 22  1  0  0  0  0
  8 13  2  0  0  0  0
  8 25  1  0  0  0  0
  9 14  1  0  0  0  0
  9 25  2  0  0  0  0
 10 26  1  0  0  0  0
 11 26  2  0  0  0  0
 12 28  1  0  0  0  0
 13 27  1  0  0  0  0
 14 27  2  0  0  0  0
 15 16  2  0  0  0  0
 15 29  1  0  0  0  0
 16 30  1  0  0  0  0
 17 24  1  0  0  0  0
 17 28  2  0  0  0  0
 18 30  2  0  0  0  0
 18 31  1  0  0  0  0
 19 32  1  0  0  0  0
 20 32  1  0  0  0  0
 20 33  2  0  0  0  0
 20 34  1  0  0  0  0
 21 23  2  0  0  0  0
 21 39  1  0  0  0  0
 22 24  2  0  0  0  0
 22 40  1  0  0  0  0
 23 48  1  0  0  0  0
 24 41  1  0  0  0  0
 25 56  1  0  0  0  0
 26 78  1  0  0  0  0
 27 79  1  0  0  0  0
 28 80  1  0  0  0  0
 29 31  2  0  0  0  0
 29 78  1  0  0  0  0
 30 81  1  0  0  0  0
 31 82  1  0  0  0  0
 32 63  2  0  0  0  0
 33 64  1  0  0  0  0
 33 67  1  0  0  0  0
 34 68  1  0  0  0  0
 34 73  2  0  0  0  0
 35 49  1  0  0  0  0
 35 69  1  0  0  0  0
 35 74  2  0  0  0  0
 36 60  1  0  0  0  0
 36 65  1  0  0  0  0
 36 75  2  0  0  0  0
 37 61  1  0  0  0  0
 37 70  1  0  0  0  0
 37 76  2  0  0  0  0
 38 66  1  0  0  0  0
 38 71  1  0  0  0  0
 38 77  2  0  0  0  0
 39 42  1  0  0  0  0
 40 49  1  0  0  0  0
 41 65  1  0  0  0  0
 42 44  1  0  0  0  0
 43 45  1  0  0  0  0
 43 46  1  0  0  0  0
 44 48  1  0  0  0  0
 45 50  1  0  0  0  0
 46 66  1  0  0  0  0
 47 50  1  0  0  0  0
 47 66  1  0  0  0  0
 48 69  1  0  0  0  0
 49 65  1  0  0  0  0
 50 64  1  0  0  0  0
 51 61  1  0  0  0  0
 52 62  1  0  0  0  0
 53 62  1  0  0  0  0
 54 62  1  0  0  0  0
 55 72  1  0  0  0  0
 56 71  1  0  0  0  0
 57 58  1  0  0  0  0
 57 59  1  0  0  0  0
 58 79  1  0  0  0  0
 59 80  1  0  0  0  0
 60 62  1  0  0  0  0
 60 70  1  0  0  0  0
 61 72  1  0  0  0  0
 63 64  1  0  0  0  0
M  CHG  1  72   1
M  ISO  4  38 100  59 101  71 100  80 101
M  END
> <Batch ID>
0004

> <Smiles>
CNC(C)C(=O)NC(C(=O)N1Cc2cc([101O:1][101CH2:1]CCOc3ccc(C[100NH:0][100C:0](=O)N4CCCC(n5nc(-c6ccc(Oc7ccc(F)cc7F)cc6)c(C(N)=O)c5N)C4)cc3)ccc2CC1C(=O)NC1CCCc2ccccc21)C(C)(C)C

> <Shape>
0.230

> <Color>
0.098

> <Negative vol penalty>
0.000

$$$$

  -OEChem-04042320233D

 82 90  0     1  0  0  0  0  0999 V2000
  -23.1904   -8.6902   21.9077 C   0  0  0  0  0  0  0  0  0  0  0  0
  -24.3835   -9.4056   21.8963 C   0  0  0  0  0  0  0  0  0  0  0  0
  -34.5700  -23.0861   20.8045 C   0  0  0  0  0  0  0  0  0  0  0  0
  -22.0804  -27.7423   21.0331 C   0  0  0  0  0  0  0  0  0  0  0  0
  -23.4138  -27.3585   23.0109 C   0  0  0  0  0  0  0  0  0  0  0  0
  -22.1387   -9.0775   21.0782 C   0  0  0  0  0  0  0  0  0  0  0  0
  -24.5259  -10.5082   21.0547 C   0  0  0  0  0  0  0  0  0  0  0  0
  -27.6840  -15.6292   22.1986 C   0  0  0  0  0  0  0  0  0  0  0  0
  -33.8151  -23.7105   19.8117 C   0  0  0  0  0  0  0  0  0  0  0  0
  -34.6298  -21.6937   20.8632 C   0  0  0  0  0  0  0  0  0  0  0  0
  -20.9209  -27.7057   21.8077 C   0  0  0  0  0  0  0  0  0  0  0  0
  -22.2543  -27.3219   23.7855 C   0  0  0  0  0  0  0  0  0  0  0  0
  -28.9602  -16.0474   21.8244 C   0  0  0  0  0  0  0  0  0  0  0  0
  -19.2473  -29.7820   23.8862 C   0  0  0  0  0  0  0  0  0  0  0  0
  -18.2856  -30.7669   23.6607 C   0  0  0  0  0  0  0  0  0  0  0  0
  -28.0113  -17.2635   19.9697 C   0  0  0  0  0  0  0  0  0  0  0  0
  -33.1795  -21.5502   18.9363 C   0  0  0  0  0  0  0  0  0  0  0  0
  -16.6717  -29.0611   23.0928 C   0  0  0  0  0  0  0  0  0  0  0  0
  -23.3268  -27.5686   21.6347 C   0  0  0  0  0  0  0  0  0  0  0  0
  -25.3068  -28.7352   20.5273 C   0  0  0  0  0  0  0  0  0  0  0  0
  -22.2650  -10.1912   20.2330 C   0  0  0  0  0  0  0  0  0  0  0  0
  -26.5610  -16.0167   21.4535 C   0  0  0  0  0  0  0  0  0  0  0  0
  -23.4755  -10.9100   20.2122 C   0  0  0  0  0  0  0  0  0  0  0  0
  -26.7217  -16.8509   20.3380 C   0  0  0  0  0  0  0  0  0  0  0  0
  -33.1198  -22.9426   18.8776 C   0  0  0  0  0  0  0  0  0  0  0  0
  -33.9345  -20.9258   19.9292 C   0  0  0  0  0  0  0  0  0  0  0  0
  -21.0079  -27.4955   23.1838 C   0  0  0  0  0  0  0  0  0  0  0  0
  -29.1244  -16.8624   20.7081 C   0  0  0  0  0  0  0  0  0  0  0  0
  -18.9212  -28.4366   23.7150 C   0  0  0  0  0  0  0  0  0  0  0  0
  -16.9979  -30.4065   23.2640 C   0  0  0  0  0  0  0  0  0  0  0  0
  -17.6334  -28.0762   23.3183 C   0  0  0  0  0  0  0  0  0  0  0  0
  -24.5248  -27.6058   20.8351 C   0  0  0  0  0  0  0  0  0  0  0  0
  -26.3252  -28.2454   19.7466 C   0  0  0  0  0  0  0  0  0  0  0  0
  -25.1286  -30.1047   20.9126 C   0  0  0  0  0  0  0  0  0  0  0  0
  -24.3366  -14.4776   19.7840 C   0  0  0  0  0  0  0  0  0  0  0  0
  -23.0267  -17.4353   19.5420 C   0  0  0  0  0  0  0  0  0  0  0  0
  -23.4778  -20.8176   19.6026 C   0  0  0  0  0  0  0  0  0  0  0  0
  -30.2348  -24.5333   18.8072 C   0  0  0  0  0  0  0  0  0  0  0  0
  -21.1175  -10.5432   19.3198 C   0  0  0  0  0  0  0  0  0  0  0  0
  -25.1885  -15.5789   21.8858 C   0  0  0  0  0  0  0  0  0  0  0  0
  -25.5465  -17.3115   19.5163 C   0  0  0  0  0  0  0  0  0  0  0  0
  -21.2163  -11.9483   18.7314 C   0  0  0  0  0  0  0  0  0  0  0  0
  -26.9295  -23.7130   17.5824 C   0  0  0  0  0  0  0  0  0  0  0  0
  -22.6236  -12.2083   18.2036 C   0  0  0  0  0  0  0  0  0  0  0  0
  -26.0714  -24.7555   18.3013 C   0  0  0  0  0  0  0  0  0  0  0  0
  -28.0577  -23.2120   18.4792 C   0  0  0  0  0  0  0  0  0  0  0  0
  -28.0812  -25.3291   19.7406 C   0  0  0  0  0  0  0  0  0  0  0  0
  -23.6596  -12.1266   19.3312 C   0  0  1  0  0  0  0  0  0  0  0  0
  -24.1663  -15.6126   20.7538 C   0  0  1  0  0  0  0  0  0  0  0  0
  -26.9363  -25.8916   18.8787 C   0  0  2  0  0  0  0  0  0  0  0  0
  -22.2274  -22.9768   19.3351 C   0  0  0  0  0  0  0  0  0  0  0  0
  -22.9768  -17.0291   16.5184 C   0  0  0  0  0  0  0  0  0  0  0  0
  -22.6341  -19.4960   16.2627 C   0  0  0  0  0  0  0  0  0  0  0  0
  -20.9317  -18.1193   17.4583 C   0  0  0  0  0  0  0  0  0  0  0  0
  -24.1297  -21.6710   22.3604 C   0  0  0  0  0  0  0  0  0  0  0  0
  -32.3139  -23.6110   17.8155 C   0  0  0  0  0  0  0  0  0  0  0  0
  -33.9984  -19.4282   19.9928 C   0  0  0  0  0  0  0  0  0  0  0  0
  -32.7639  -17.3294   20.5497 C   0  0  0  0  0  0  0  0  0  0  0  0
  -31.4622  -16.8283   21.1434 C   0  0  0  0  0  0  0  0  0  1  0  0
  -23.1536  -18.5846   18.5715 C   0  0  1  0  0  0  0  0  0  0  0  0
  -22.7186  -21.9224   20.3148 C   0  0  2  0  0  0  0  0  0  0  0  0
  -22.4466  -18.2972   17.2168 C   0  0  0  0  0  0  0  0  0  0  0  0
  -25.0052  -26.4831   20.2940 N   0  0  0  0  0  0  0  0  0  0  0  0
  -26.0999  -26.9046   19.6382 N   0  0  0  0  0  0  0  0  0  0  0  0
  -24.2255  -16.8516   19.9757 N   0  0  0  0  0  0  0  0  0  0  0  0
  -28.8540  -24.3411   18.9805 N   0  0  0  0  0  0  0  0  0  0  0  0
  -27.3824  -28.8350   19.1492 N   0  0  0  0  0  0  0  0  0  0  0  0
  -24.0293  -30.4348   21.7169 N   0  0  0  0  0  0  0  0  0  0  0  0
  -23.6377  -13.3357   20.1262 N   0  0  0  0  0  0  0  0  0  0  0  0
  -22.6528  -19.7645   19.2683 N   0  0  0  0  0  0  0  0  0  0  0  0
  -30.8940  -23.5486   18.0815 N   0  0  0  0  0  0  0  0  0  0  0  0
  -23.5943  -22.5873   21.3208 N   0  3  0  0  0  0  0  0  0  0  0  0
  -32.7542  -18.8139   20.5301 N   0  3  0  0  0  0  0  0  0  0  0  0
  -25.9115  -31.0114   20.5407 O   0  0  0  0  0  0  0  0  0  0  0  0
  -25.0480  -14.6274   18.7976 O   0  0  0  0  0  0  0  0  0  0  0  0
  -21.9055  -17.0735   19.9076 O   0  0  0  0  0  0  0  0  0  0  0  0
  -24.6815  -20.8838   19.3632 O   0  0  0  0  0  0  0  0  0  0  0  0
  -30.8353  -25.5133   19.2611 O   0  0  0  0  0  0  0  0  0  0  0  0
  -19.8767  -27.4600   23.9400 O   0  0  0  0  0  0  0  0  0  0  0  0
  -30.3690  -17.2715   20.3403 O   0  0  0  0  0  0  0  0  0  1  0  0
  -16.0741  -31.3523   23.0490 F   0  0  0  0  0  0  0  0  0  0  0  0
  -17.3139  -26.7852   23.1532 F   0  0  0  0  0  0  0  0  0  0  0  0
  1  2  1  0  0  0  0
  1  6  2  0  0  0  0
  2  7  2  0  0  0  0
  3  9  1  0  0  0  0
  3 10  2  0  0  0  0
  4 11  2  0  0  0  0
  4 19  1  0  0  0  0
  5 12  1  0  0  0  0
  5 19  2  0  0  0  0
  6 21  1  0  0  0  0
  7 23  1  0  0  0  0
  8 13  2  0  0  0  0
  8 22  1  0  0  0  0
  9 25  2  0  0  0  0
 10 26  1  0  0  0  0
 11 27  1  0  0  0  0
 12 27  2  0  0  0  0
 13 28  1  0  0  0  0
 14 15  2  0  0  0  0
 14 29  1  0  0  0  0
 15 30  1  0  0  0  0
 16 24  1  0  0  0  0
 16 28  2  0  0  0  0
 17 25  1  0  0  0  0
 17 26  2  0  0  0  0
 18 30  2  0  0  0  0
 18 31  1  0  0  0  0
 19 32  1  0  0  0  0
 20 32  1  0  0  0  0
 20 33  2  0  0  0  0
 20 34  1  0  0  0  0
 21 23  2  0  0  0  0
 21 39  1  0  0  0  0
 22 24  2  0  0  0  0
 22 40  1  0  0  0  0
 23 48  1  0  0  0  0
 24 41  1  0  0  0  0
 25 56  1  0  0  0  0
 26 57  1  0  0  0  0
 27 79  1  0  0  0  0
 28 80  1  0  0  0  0
 29 31  2  0  0  0  0
 29 79  1  0  0  0  0
 30 81  1  0  0  0  0
 31 82  1  0  0  0  0
 32 63  2  0  0  0  0
 33 64  1  0  0  0  0
 33 67  1  0  0  0  0
 34 68  1  0  0  0  0
 34 74  2  0  0  0  0
 35 49  1  0  0  0  0
 35 69  1  0  0  0  0
 35 75  2  0  0  0  0
 36 60  1  0  0  0  0
 36 65  1  0  0  0  0
 36 76  2  0  0  0  0
 37 61  1  0  0  0  0
 37 70  1  0  0  0  0
 37 77  2  0  0  0  0
 38 66  1  0  0  0  0
 38 71  1  0  0  0  0
 38 78  2  0  0  0  0
 39 42  1  0  0  0  0
 40 49  1  0  0  0  0
 41 65  1  0  0  0  0
 42 44  1  0  0  0  0
 43 45  1  0  0  0  0
 43 46  1  0  0  0  0
 44 48  1  0  0  0  0
 45 50  1  0  0  0  0
 46 66  1  0  0  0  0
 47 50  1  0  0  0  0
 47 66  1  0  0  0  0
 48 69  1  0  0  0  0
 49 65  1  0  0  0  0
 50 64  1  0  0  0  0
 51 61  1  0  0  0  0
 52 62  1  0  0  0  0
 53 62  1  0  0  0  0
 54 62  1  0  0  0  0
 55 72  1  0  0  0  0
 56 71  1  0  0  0  0
 57 73  1  0  0  0  0
 58 59  1  0  0  0  0
 58 73  1  0  0  0  0
 59 80  1  0  0  0  0
 60 62  1  0  0  0  0
 60 70  1  0  0  0  0
 61 72  1  0  0  0  0
 63 64  1  0  0  0  0
M  CHG  2  72   1  73   1
M  ISO  4  38 100  59 101  71 100  80 101
M  END
> <Batch ID>
0004

> <Smiles>
CNC(C)C(=O)NC(C(=O)N1Cc2cc([101O:1][101CH2:1]CNCc3cccc(C[100NH:0][100C:0](=O)N4CCCC(n5nc(-c6ccc(Oc7ccc(F)cc7F)cc6)c(C(N)=O)c5N)C4)c3)ccc2CC1C(=O)NC1CCCc2ccccc21)C(C)(C)C

> <Shape>
0.231

> <Color>
0.074

> <Negative vol penalty>
0.000

$$$$

  -OEChem-04042320233D

 78 86  0     1  0  0  0  0  0999 V2000
  -26.7739  -32.6995   28.1675 C   0  0  0  0  0  0  0  0  0  0  0  0
  -27.2042  -31.6974   27.3039 C   0  0  0  0  0  0  0  0  0  0  0  0
  -27.9925  -22.3141   16.9447 C   0  0  0  0  0  0  0  0  0  0  0  0
  -26.5064  -12.7174   21.6170 C   0  0  0  0  0  0  0  0  0  0  0  0
  -26.0125  -13.7464   19.4877 C   0  0  0  0  0  0  0  0  0  0  0  0
  -25.4236  -33.0436   28.2165 C   0  0  0  0  0  0  0  0  0  0  0  0
  -26.2843  -31.0379   26.4894 C   0  0  0  0  0  0  0  0  0  0  0  0
  -27.2352  -28.9309   20.8182 C   0  0  0  0  0  0  0  0  0  0  0  0
  -27.8815  -23.5924   17.4918 C   0  0  0  0  0  0  0  0  0  0  0  0
  -28.5263  -21.2739   17.7054 C   0  0  0  0  0  0  0  0  0  0  0  0
  -25.2502  -12.1112   21.6155 C   0  0  0  0  0  0  0  0  0  0  0  0
  -24.7563  -13.1402   19.4860 C   0  0  0  0  0  0  0  0  0  0  0  0
  -27.5382  -27.6615   20.3277 C   0  0  0  0  0  0  0  0  0  0  0  0
  -23.7752   -9.4401   20.1584 C   0  0  0  0  0  0  0  0  0  0  0  0
  -23.7052   -8.0929   20.5128 C   0  0  0  0  0  0  0  0  0  0  0  0
  -25.1982  -27.2824   19.8806 C   0  0  0  0  0  0  0  0  0  0  0  0
  -28.8381  -22.7902   19.5602 C   0  0  0  0  0  0  0  0  0  0  0  0
  -22.2435   -8.6529   22.3531 C   0  0  0  0  0  0  0  0  0  0  0  0
  -26.8875  -13.5351   20.5531 C   0  0  0  0  0  0  0  0  0  0  0  0
  -29.3811  -13.6417   20.0253 C   0  0  0  0  0  0  0  0  0  0  0  0
  -24.4882  -32.3946   27.3953 C   0  0  0  0  0  0  0  0  0  0  0  0
  -25.9080  -29.3822   20.8538 C   0  0  0  0  0  0  0  0  0  0  0  0
  -24.9201  -31.3726   26.5285 C   0  0  0  0  0  0  0  0  0  0  0  0
  -24.8813  -28.5589   20.3697 C   0  0  0  0  0  0  0  0  0  0  0  0
  -28.3043  -23.8305   18.7995 C   0  0  0  0  0  0  0  0  0  0  0  0
  -28.9491  -21.5119   19.0131 C   0  0  0  0  0  0  0  0  0  0  0  0
  -24.3751  -12.3225   20.5500 C   0  0  0  0  0  0  0  0  0  0  0  0
  -26.5193  -26.8359   19.8615 C   0  0  0  0  0  0  0  0  0  0  0  0
  -23.0795  -10.3938   20.9015 C   0  0  0  0  0  0  0  0  0  0  0  0
  -22.9393   -7.6992   21.6101 C   0  0  0  0  0  0  0  0  0  0  0  0
  -22.3136  -10.0001   21.9988 C   0  0  0  0  0  0  0  0  0  0  0  0
  -28.1848  -14.1621   20.5545 C   0  0  0  0  0  0  0  0  0  0  0  0
  -30.3189  -14.6133   20.2763 C   0  0  0  0  0  0  0  0  0  0  0  0
  -29.6229  -12.3918   19.3657 C   0  0  0  0  0  0  0  0  0  0  0  0
  -23.8999  -30.2656   23.1541 C   0  0  0  0  0  0  0  0  0  0  0  0
  -21.9913  -31.0484   20.6508 C   0  0  0  0  0  0  0  0  0  0  0  0
  -21.1684  -30.5681   17.3737 C   0  0  0  0  0  0  0  0  0  0  0  0
  -29.9572  -20.5208   21.0983 C   0  0  0  0  0  0  0  0  0  0  0  0
  -23.0321  -32.7683   27.5176 C   0  0  0  0  0  0  0  0  0  0  0  0
  -25.6007  -30.7644   21.3612 C   0  0  0  0  0  0  0  0  0  0  0  0
  -23.4424  -29.0040   20.3674 C   0  0  0  0  0  0  0  0  0  0  0  0
  -22.1777  -32.2795   26.3509 C   0  0  0  0  0  0  0  0  0  0  0  0
  -31.3281  -18.1363   23.3592 C   0  0  0  0  0  0  0  0  0  0  0  0
  -22.4919  -30.8209   26.0335 C   0  0  0  0  0  0  0  0  0  0  0  0
  -30.7915  -16.7986   22.8447 C   0  0  0  0  0  0  0  0  0  0  0  0
  -30.2992  -19.2555   23.2095 C   0  0  0  0  0  0  0  0  0  0  0  0
  -29.2062  -18.0732   21.3449 C   0  0  0  0  0  0  0  0  0  0  0  0
  -23.9563  -30.6512   25.6115 C   0  0  1  0  0  0  0  0  0  0  0  0
  -24.1568  -30.9225   21.8274 C   0  0  1  0  0  0  0  0  0  0  0  0
  -30.2305  -16.9288   21.4151 C   0  0  2  0  0  0  0  0  0  0  0  0
  -19.5398  -31.3237   15.6205 C   0  0  0  0  0  0  0  0  0  0  0  0
  -19.8198  -29.3285   21.9301 C   0  0  0  0  0  0  0  0  0  0  0  0
  -18.6126  -29.3443   19.7367 C   0  0  0  0  0  0  0  0  0  0  0  0
  -19.0056  -31.4839   20.9576 C   0  0  0  0  0  0  0  0  0  0  0  0
  -23.3324  -31.6255   15.6538 C   0  0  0  0  0  0  0  0  0  0  0  0
  -28.1847  -25.2057   19.3875 C   0  0  0  0  0  0  0  0  0  1  0  0
  -20.9499  -30.3236   19.8328 C   0  0  1  0  0  0  0  0  0  0  0  0
  -20.9071  -31.5505   16.2463 C   0  0  2  0  0  0  0  0  0  0  0  0
  -19.6238  -30.1106   20.6160 C   0  0  0  0  0  0  0  0  0  0  0  0
  -28.3453  -15.3704   21.1006 N   0  0  0  0  0  0  0  0  0  0  0  0
  -29.6533  -15.6173   20.9160 N   0  0  0  0  0  0  0  0  0  0  0  0
  -23.1921  -30.3615   20.8793 N   0  0  0  0  0  0  0  0  0  0  0  0
  -29.8156  -19.3219   21.8287 N   0  0  0  0  0  0  0  0  0  0  0  0
  -31.6396  -14.6981   20.0102 N   0  0  0  0  0  0  0  0  0  0  0  0
  -28.5477  -11.5102   19.1899 N   0  0  0  0  0  0  0  0  0  0  0  0
  -29.4906  -20.4548   19.7858 N   0  0  0  0  0  0  0  0  0  0  0  0
  -24.1410  -31.0823   24.2423 N   0  0  0  0  0  0  0  0  0  0  0  0
  -20.7987  -31.0848   18.5974 N   0  0  0  0  0  0  0  0  0  0  0  0
  -21.9408  -31.4053   15.1827 N   0  3  0  0  0  0  0  0  0  0  0  0
  -30.7622  -12.0595   18.9593 O   0  0  0  0  0  0  0  0  0  0  0  0
  -23.5105  -29.1042   23.1878 O   0  0  0  0  0  0  0  0  0  0  0  0
  -21.7511  -32.1850   21.0655 O   0  0  0  0  0  0  0  0  0  0  0  0
  -21.6488  -29.4523   17.1870 O   0  0  0  0  0  0  0  0  0  0  0  0
  -30.4803  -21.5233   21.5915 O   0  0  0  0  0  0  0  0  0  0  0  0
  -23.1494  -11.7309   20.5480 O   0  0  0  0  0  0  0  0  0  0  0  0
  -26.8122  -25.5962   19.3828 O   0  0  0  0  0  0  0  0  0  1  0  0
  -22.8709   -6.4052   21.9493 F   0  0  0  0  0  0  0  0  0  0  0  0
  -21.6420  -10.9116   22.7158 F   0  0  0  0  0  0  0  0  0  0  0  0
  1  2  1  0  0  0  0
  1  6  2  0  0  0  0
  2  7  2  0  0  0  0
  3  9  2  0  0  0  0
  3 10  1  0  0  0  0
  4 11  2  0  0  0  0
  4 19  1  0  0  0  0
  5 12  1  0  0  0  0
  5 19  2  0  0  0  0
  6 21  1  0  0  0  0
  7 23  1  0  0  0  0
  8 13  2  0  0  0  0
  8 22  1  0  0  0  0
  9 25  1  0  0  0  0
 10 26  2  0  0  0  0
 11 27  1  0  0  0  0
 12 27  2  0  0  0  0
 13 28  1  0  0  0  0
 14 15  2  0  0  0  0
 14 29  1  0  0  0  0
 15 30  1  0  0  0  0
 16 24  1  0  0  0  0
 16 28  2  0  0  0  0
 17 25  2  0  0  0  0
 17 26  1  0  0  0  0
 18 30  2  0  0  0  0
 18 31  1  0  0  0  0
 19 32  1  0  0  0  0
 20 32  1  0  0  0  0
 20 33  2  0  0  0  0
 20 34  1  0  0  0  0
 21 23  2  0  0  0  0
 21 39  1  0  0  0  0
 22 24  2  0  0  0  0
 22 40  1  0  0  0  0
 23 48  1  0  0  0  0
 24 41  1  0  0  0  0
 25 56  1  0  0  0  0
 26 66  1  0  0  0  0
 27 75  1  0  0  0  0
 28 76  1  0  0  0  0
 29 31  2  0  0  0  0
 29 75  1  0  0  0  0
 30 77  1  0  0  0  0
 31 78  1  0  0  0  0
 32 60  2  0  0  0  0
 33 61  1  0  0  0  0
 33 64  1  0  0  0  0
 34 65  1  0  0  0  0
 34 70  2  0  0  0  0
 35 49  1  0  0  0  0
 35 67  1  0  0  0  0
 35 71  2  0  0  0  0
 36 57  1  0  0  0  0
 36 62  1  0  0  0  0
 36 72  2  0  0  0  0
 37 58  1  0  0  0  0
 37 68  1  0  0  0  0
 37 73  2  0  0  0  0
 38 63  1  0  0  0  0
 38 66  1  0  0  0  0
 38 74  2  0  0  0  0
 39 42  1  0  0  0  0
 40 49  1  0  0  0  0
 41 62  1  0  0  0  0
 42 44  1  0  0  0  0
 43 45  1  0  0  0  0
 43 46  1  0  0  0  0
 44 48  1  0  0  0  0
 45 50  1  0  0  0  0
 46 63  1  0  0  0  0
 47 50  1  0  0  0  0
 47 63  1  0  0  0  0
 48 67  1  0  0  0  0
 49 62  1  0  0  0  0
 50 61  1  0  0  0  0
 51 58  1  0  0  0  0
 52 59  1  0  0  0  0
 53 59  1  0  0  0  0
 54 59  1  0  0  0  0
 55 69  1  0  0  0  0
 56 76  1  0  0  0  0
 57 59  1  0  0  0  0
 57 68  1  0  0  0  0
 58 69  1  0  0  0  0
 60 61  1  0  0  0  0
M  CHG  1  69   1
M  ISO  4  38 100  56 101  66 100  76 101
M  END
> <Batch ID>
0004

> <Smiles>
CNC(C)C(=O)NC(C(=O)N1Cc2cc([101O:1][101CH2:1]c3cccc([100NH:0][100C:0](=O)N4CCCC(n5nc(-c6ccc(Oc7ccc(F)cc7F)cc6)c(C(N)=O)c5N)C4)c3)ccc2CC1C(=O)NC1CCCc2ccccc21)C(C)(C)C

> <Shape>
0.294

> <Color>
0.112

> <Negative vol penalty>
0.000

$$$$

  -OEChem-04042320233D

 80 88  0     1  0  0  0  0  0999 V2000
  -28.0468  -37.0483   21.1312 C   0  0  0  0  0  0  0  0  0  0  0  0
  -28.4614  -35.7305   20.9672 C   0  0  0  0  0  0  0  0  0  0  0  0
  -26.8777  -12.7324   21.8103 C   0  0  0  0  0  0  0  0  0  0  0  0
  -26.2289  -14.3607   20.1475 C   0  0  0  0  0  0  0  0  0  0  0  0
  -26.9271  -37.3336   21.9115 C   0  0  0  0  0  0  0  0  0  0  0  0
  -27.7571  -34.6973   21.5842 C   0  0  0  0  0  0  0  0  0  0  0  0
  -26.8378  -29.0506   19.3989 C   0  0  0  0  0  0  0  0  0  0  0  0
  -25.5582  -12.2872   21.8893 C   0  0  0  0  0  0  0  0  0  0  0  0
  -24.9093  -13.9154   20.2264 C   0  0  0  0  0  0  0  0  0  0  0  0
  -27.4752  -27.8349   19.6433 C   0  0  0  0  0  0  0  0  0  0  0  0
  -23.4883  -10.3002   20.1003 C   0  0  0  0  0  0  0  0  0  0  0  0
  -23.2681   -8.9229   20.1042 C   0  0  0  0  0  0  0  0  0  0  0  0
  -25.7846  -27.2830   21.2731 C   0  0  0  0  0  0  0  0  0  0  0  0
  -29.0899  -23.0657   19.5815 C   0  0  0  0  0  0  0  0  0  0  0  0
  -30.3909  -22.6609   22.0159 C   0  0  0  0  0  0  0  0  0  0  0  0
  -22.2060   -9.0990   22.2672 C   0  0  0  0  0  0  0  0  0  0  0  0
  -27.2130  -13.7692   20.9394 C   0  0  0  0  0  0  0  0  0  0  0  0
  -29.5840  -13.7540   19.9981 C   0  0  0  0  0  0  0  0  0  0  0  0
  -26.2031  -36.3025   22.5306 C   0  0  0  0  0  0  0  0  0  0  0  0
  -25.6731  -29.3969   20.0989 C   0  0  0  0  0  0  0  0  0  0  0  0
  -26.6275  -34.9691   22.3746 C   0  0  0  0  0  0  0  0  0  0  0  0
  -25.1329  -28.5025   21.0340 C   0  0  0  0  0  0  0  0  0  0  0  0
  -29.2702  -24.1326   20.4617 C   0  0  0  0  0  0  0  0  0  0  0  0
  -29.5600  -21.7964   19.9185 C   0  0  0  0  0  0  0  0  0  0  0  0
  -29.9208  -23.9302   21.6789 C   0  0  0  0  0  0  0  0  0  0  0  0
  -30.2105  -21.5940   21.1356 C   0  0  0  0  0  0  0  0  0  0  0  0
  -24.5740  -12.8787   21.0973 C   0  0  0  0  0  0  0  0  0  0  0  0
  -26.9502  -26.9522   20.5825 C   0  0  0  0  0  0  0  0  0  0  0  0
  -23.0676  -11.0770   21.1798 C   0  0  0  0  0  0  0  0  0  0  0  0
  -22.6269   -8.3223   21.1877 C   0  0  0  0  0  0  0  0  0  0  0  0
  -22.4264  -10.4764   22.2632 C   0  0  0  0  0  0  0  0  0  0  0  0
  -28.5758  -14.2299   20.8578 C   0  0  0  0  0  0  0  0  0  0  0  0
  -30.6863  -14.5121   20.3091 C   0  0  0  0  0  0  0  0  0  0  0  0
  -29.5289  -12.7194   19.0071 C   0  0  0  0  0  0  0  0  0  0  0  0
  -24.8705  -31.7300   22.1030 C   0  0  0  0  0  0  0  0  0  0  0  0
  -21.9183  -30.4120   21.8392 C   0  0  0  0  0  0  0  0  0  0  0  0
  -20.0263  -27.6600   21.1367 C   0  0  0  0  0  0  0  0  0  0  0  0
  -31.3605  -19.9598   22.6697 C   0  0  0  0  0  0  0  0  0  0  0  0
  -25.0271  -36.6638   23.4031 C   0  0  0  0  0  0  0  0  0  0  0  0
  -24.9826  -30.7003   19.8045 C   0  0  0  0  0  0  0  0  0  0  0  0
  -23.8735  -28.8181   21.7975 C   0  0  0  0  0  0  0  0  0  0  0  0
  -24.1153  -35.4805   23.7170 C   0  0  0  0  0  0  0  0  0  0  0  0
  -32.6788  -16.9083   23.9454 C   0  0  0  0  0  0  0  0  0  0  0  0
  -24.9398  -34.2678   24.1369 C   0  0  0  0  0  0  0  0  0  0  0  0
  -31.8721  -15.8317   23.2156 C   0  0  0  0  0  0  0  0  0  0  0  0
  -31.8222  -18.1273   24.2833 C   0  0  0  0  0  0  0  0  0  0  0  0
  -30.2908  -17.6344   22.4175 C   0  0  0  0  0  0  0  0  0  0  0  0
  -25.8751  -33.8188   23.0077 C   0  0  1  0  0  0  0  0  0  0  0  0
  -24.0888  -31.1743   20.9464 C   0  0  1  0  0  0  0  0  0  0  0  0
  -31.1269  -16.4140   21.9986 C   0  0  2  0  0  0  0  0  0  0  0  0
  -29.3530  -20.6719   18.9564 C   0  0  0  0  0  0  0  0  0  0  0  0
  -30.1251  -25.0573   22.6372 C   0  0  0  0  0  0  0  0  0  0  0  0
  -17.6432  -26.8793   21.0438 C   0  0  0  0  0  0  0  0  0  0  0  0
  -21.8544  -30.2523   24.8856 C   0  0  0  0  0  0  0  0  0  0  0  0
  -19.9450  -28.6445   24.6917 C   0  0  0  0  0  0  0  0  0  0  0  0
  -19.7035  -30.9742   23.8335 C   0  0  0  0  0  0  0  0  0  0  0  0
  -20.2170  -27.0501   18.2470 C   0  0  0  0  0  0  0  0  0  0  0  0
  -28.7557  -25.4888   20.0779 C   0  0  0  0  0  0  0  0  0  1  0  0
  -21.1590  -29.3343   22.5748 C   0  0  1  0  0  0  0  0  0  0  0  0
  -18.8008  -27.4773   20.2596 C   0  0  2  0  0  0  0  0  0  0  0  0
  -20.6903  -29.7959   23.9836 C   0  0  0  0  0  0  0  0  0  0  0  0
  -29.0001  -15.2139   21.6551 N   0  0  0  0  0  0  0  0  0  0  0  0
  -30.2871  -15.3625   21.2978 N   0  0  0  0  0  0  0  0  0  0  0  0
  -23.2386  -30.1076   21.4788 N   0  0  0  0  0  0  0  0  0  0  0  0
  -31.1502  -18.6269   23.0817 N   0  0  0  0  0  0  0  0  0  0  0  0
  -31.9486  -14.5274   19.8305 N   0  0  0  0  0  0  0  0  0  0  0  0
  -28.3176  -12.0407   18.8163 N   0  0  0  0  0  0  0  0  0  0  0  0
  -30.6953  -20.3122   21.4958 N   0  0  0  0  0  0  0  0  0  0  0  0
  -25.1378  -33.0820   22.0036 N   0  0  0  0  0  0  0  0  0  0  0  0
  -20.0749  -28.9222   21.6897 N   0  0  0  0  0  0  0  0  0  0  0  0
  -19.1118  -26.5723   19.1172 N   0  3  0  0  0  0  0  0  0  0  0  0
  -30.5289  -12.3948   18.3228 O   0  0  0  0  0  0  0  0  0  0  0  0
  -25.2051  -30.9873   23.0186 O   0  0  0  0  0  0  0  0  0  0  0  0
  -21.3582  -31.4818   21.5873 O   0  0  0  0  0  0  0  0  0  0  0  0
  -20.8553  -26.7707   21.3166 O   0  0  0  0  0  0  0  0  0  0  0  0
  -32.0995  -20.7238   23.2961 O   0  0  0  0  0  0  0  0  0  0  0  0
  -23.2863  -12.4444   21.1740 O   0  0  0  0  0  0  0  0  0  0  0  0
  -27.5708  -25.7653   20.8234 O   0  0  0  0  0  0  0  0  0  1  0  0
  -22.4140   -6.9999   21.1907 F   0  0  0  0  0  0  0  0  0  0  0  0
  -22.0188  -11.2176   23.3026 F   0  0  0  0  0  0  0  0  0  0  0  0
  1  2  1  0  0  0  0
  1  5  2  0  0  0  0
  2  6  2  0  0  0  0
  3  8  2  0  0  0  0
  3 17  1  0  0  0  0
  4  9  1  0  0  0  0
  4 17  2  0  0  0  0
  5 19  1  0  0  0  0
  6 21  1  0  0  0  0
  7 10  2  0  0  0  0
  7 20  1  0  0  0  0
  8 27  1  0  0  0  0
  9 27  2  0  0  0  0
 10 28  1  0  0  0  0
 11 12  2  0  0  0  0
 11 29  1  0  0  0  0
 12 30  1  0  0  0  0
 13 22  1  0  0  0  0
 13 28  2  0  0  0  0
 14 23  1  0  0  0  0
 14 24  2  0  0  0  0
 15 25  1  0  0  0  0
 15 26  2  0  0  0  0
 16 30  2  0  0  0  0
 16 31  1  0  0  0  0
 17 32  1  0  0  0  0
 18 32  1  0  0  0  0
 18 33  2  0  0  0  0
 18 34  1  0  0  0  0
 19 21  2  0  0  0  0
 19 39  1  0  0  0  0
 20 22  2  0  0  0  0
 20 40  1  0  0  0  0
 21 48  1  0  0  0  0
 22 41  1  0  0  0  0
 23 25  2  0  0  0  0
 23 58  1  0  0  0  0
 24 26  1  0  0  0  0
 24 51  1  0  0  0  0
 25 52  1  0  0  0  0
 26 68  1  0  0  0  0
 27 77  1  0  0  0  0
 28 78  1  0  0  0  0
 29 31  2  0  0  0  0
 29 77  1  0  0  0  0
 30 79  1  0  0  0  0
 31 80  1  0  0  0  0
 32 62  2  0  0  0  0
 33 63  1  0  0  0  0
 33 66  1  0  0  0  0
 34 67  1  0  0  0  0
 34 72  2  0  0  0  0
 35 49  1  0  0  0  0
 35 69  1  0  0  0  0
 35 73  2  0  0  0  0
 36 59  1  0  0  0  0
 36 64  1  0  0  0  0
 36 74  2  0  0  0  0
 37 60  1  0  0  0  0
 37 70  1  0  0  0  0
 37 75  2  0  0  0  0
 38 65  1  0  0  0  0
 38 68  1  0  0  0  0
 38 76  2  0  0  0  0
 39 42  1  0  0  0  0
 40 49  1  0  0  0  0
 41 64  1  0  0  0  0
 42 44  1  0  0  0  0
 43 45  1  0  0  0  0
 43 46  1  0  0  0  0
 44 48  1  0  0  0  0
 45 50  1  0  0  0  0
 46 65  1  0  0  0  0
 47 50  1  0  0  0  0
 47 65  1  0  0  0  0
 48 69  1  0  0  0  0
 49 64  1  0  0  0  0
 50 63  1  0  0  0  0
 53 60  1  0  0  0  0
 54 61  1  0  0  0  0
 55 61  1  0  0  0  0
 56 61  1  0  0  0  0
 57 71  1  0  0  0  0
 58 78  1  0  0  0  0
 59 61  1  0  0  0  0
 59 70  1  0  0  0  0
 60 71  1  0  0  0  0
 62 63  1  0  0  0  0
M  CHG  1  71   1
M  ISO  4  38 100  58 101  68 100  78 101
M  END
> <Batch ID>
0004

> <Smiles>
CNC(C)C(=O)NC(C(=O)N1Cc2cc([101O:1][101CH2:1]c3cc(C)c([100NH:0][100C:0](=O)N4CCCC(n5nc(-c6ccc(Oc7ccc(F)cc7F)cc6)c(C(N)=O)c5N)C4)cc3C)ccc2CC1C(=O)NC1CCCc2ccccc21)C(C)(C)C

> <Shape>
0.343

> <Color>
0.078

> <Negative vol penalty>
0.000

$$$$

  -OEChem-04042320233D

 99109  0     1  0  0  0  0  0999 V2000
  -23.8172  -15.5161   26.1552 C   0  0  0  0  0  0  0  0  0  0  0  0
  -25.0035  -16.0691   26.6266 C   0  0  0  0  0  0  0  0  0  0  0  0
  -23.0002   -9.8946   19.9814 C   0  0  0  0  0  0  0  0  0  0  0  0
  -23.7258   -9.9455   22.2853 C   0  0  0  0  0  0  0  0  0  0  0  0
  -22.7278  -16.3403   25.8759 C   0  0  0  0  0  0  0  0  0  0  0  0
  -25.1015  -17.4469   26.8180 C   0  0  0  0  0  0  0  0  0  0  0  0
  -32.6970  -17.4042   23.4307 C   0  0  0  0  0  0  0  0  0  0  0  0
  -28.2694  -20.3406   31.1880 C   0  0  0  0  0  0  0  0  0  0  0  0
  -32.0693  -16.5275   22.5440 C   0  0  0  0  0  0  0  0  0  0  0  0
  -22.2334   -8.7603   20.2478 C   0  0  0  0  0  0  0  0  0  0  0  0
  -22.9589   -8.8112   22.5518 C   0  0  0  0  0  0  0  0  0  0  0  0
  -29.5252  -20.9462   31.1911 C   0  0  0  0  0  0  0  0  0  0  0  0
  -23.2023   -5.4721   22.0799 C   0  0  0  0  0  0  0  0  0  0  0  0
  -23.7897   -4.4548   22.8320 C   0  0  0  0  0  0  0  0  0  0  0  0
  -28.4882  -23.0851   30.7803 C   0  0  0  0  0  0  0  0  0  0  0  0
  -22.0661   -4.6982   24.5075 C   0  0  0  0  0  0  0  0  0  0  0  0
  -23.7464  -10.4872   21.0001 C   0  0  0  0  0  0  0  0  0  0  0  0
  -24.1324  -13.0026   20.8239 C   0  0  0  0  0  0  0  0  0  0  0  0
  -22.8094  -17.7278   26.0731 C   0  0  0  0  0  0  0  0  0  0  0  0
  -27.1125  -21.1024   30.9697 C   0  0  0  0  0  0  0  0  0  0  0  0
  -24.0127  -18.2906   26.5398 C   0  0  0  0  0  0  0  0  0  0  0  0
  -31.9119  -18.2934   24.1480 C   0  0  0  0  0  0  0  0  0  0  0  0
  -27.2187  -22.4873   30.7774 C   0  0  0  0  0  0  0  0  0  0  0  0
  -30.5245  -18.3243   23.9811 C   0  0  0  0  0  0  0  0  0  0  0  0
  -29.8929  -17.4525   23.1072 C   0  0  0  0  0  0  0  0  0  0  0  0
  -30.6760  -16.5506   22.3842 C   0  0  0  0  0  0  0  0  0  0  0  0
  -22.2127   -8.2186   21.5330 C   0  0  0  0  0  0  0  0  0  0  0  0
  -29.6350  -22.3181   30.9844 C   0  0  0  0  0  0  0  0  0  0  0  0
  -22.0468   -6.1026   22.5417 C   0  0  0  0  0  0  0  0  0  0  0  0
  -23.2216   -4.0678   24.0457 C   0  0  0  0  0  0  0  0  0  0  0  0
  -21.4788   -5.7156   23.7554 C   0  0  0  0  0  0  0  0  0  0  0  0
  -24.5392  -11.6585   20.7253 C   0  0  0  0  0  0  0  0  0  0  0  0
  -25.2423  -13.7249   20.4593 C   0  0  0  0  0  0  0  0  0  0  0  0
  -22.8646  -13.5494   21.2106 C   0  0  0  0  0  0  0  0  0  0  0  0
  -29.1305  -20.3900   24.1166 C   0  0  0  0  0  0  0  0  0  0  0  0
  -24.8289  -21.1300   28.7588 C   0  0  0  0  0  0  0  0  0  0  0  0
  -23.4886  -23.3311   30.7289 C   0  0  0  0  0  0  0  0  0  0  0  0
  -35.0306  -19.2849   27.6586 C   0  0  0  0  0  0  0  0  0  0  0  0
  -23.9177  -25.6781   33.1690 C   0  0  0  0  0  0  0  0  0  0  0  0
  -30.7221  -14.6846   20.6924 C   0  0  0  0  0  0  0  0  0  0  0  0
  -21.6209  -18.5834   25.7123 C   0  0  0  0  0  0  0  0  0  0  0  0
  -25.7631  -20.4383   30.9959 C   0  0  0  0  0  0  0  0  0  0  0  0
  -26.0057  -23.3529   30.5589 C   0  0  0  0  0  0  0  0  0  0  0  0
  -21.6841  -19.9917   26.2978 C   0  0  0  0  0  0  0  0  0  0  0  0
  -29.6028  -12.2319   18.3667 C   0  0  0  0  0  0  0  0  0  0  0  0
  -23.0654  -20.6002   26.0771 C   0  0  0  0  0  0  0  0  0  0  0  0
  -28.1522  -11.9747   18.7811 C   0  0  0  0  0  0  0  0  0  0  0  0
  -31.8290  -18.7228   27.4327 C   0  0  0  0  0  0  0  0  0  0  0  0
  -30.5035  -12.4751   19.5764 C   0  0  0  0  0  0  0  0  0  0  0  0
  -28.5886  -13.2645   20.9102 C   0  0  0  0  0  0  0  0  0  0  0  0
  -31.0113  -19.9553   27.1058 C   0  0  0  0  0  0  0  0  0  0  0  0
  -29.8988  -19.3546   24.8673 C   0  0  2  0  0  0  0  0  0  0  0  0
  -24.1498  -19.7778   26.7837 C   0  0  1  0  0  0  0  0  0  0  0  0
  -32.3611  -19.3219   25.1375 C   0  0  2  0  0  0  0  0  0  0  0  0
  -24.6927  -21.2306   30.2518 C   0  0  1  0  0  0  0  0  0  0  0  0
  -27.6307  -13.0784   19.7221 C   0  0  2  0  0  0  0  0  0  0  0  0
  -32.9652  -18.7570   26.4217 C   0  0  1  0  0  0  0  0  0  0  0  0
  -35.0778  -17.8426   27.9965 C   0  0  0  0  0  0  0  0  0  0  0  0
  -27.9655  -18.1731   21.6745 C   0  0  0  0  0  0  0  0  0  0  0  0
  -22.6415  -27.3391   34.5510 C   0  0  0  0  0  0  0  0  0  0  0  0
  -23.3108  -25.1953   28.3199 C   0  0  0  0  0  0  0  0  0  0  0  0
  -22.9396  -27.0963   29.9062 C   0  0  0  0  0  0  0  0  0  0  0  0
  -21.3006  -25.2184   29.8075 C   0  0  0  0  0  0  0  0  0  0  0  0
  -24.6823  -24.3386   35.6949 C   0  0  0  0  0  0  0  0  0  0  0  0
  -28.4079  -17.4722   22.9558 C   0  0  0  0  0  0  0  0  0  0  0  0
  -35.2997  -22.2784   28.9374 C   0  0  0  0  0  0  0  0  0  0  0  0
  -35.3459  -23.7967   28.7319 C   0  0  0  0  0  0  0  0  0  0  0  0
  -36.0883  -21.5289   27.8719 C   0  0  0  0  0  0  0  0  0  0  0  0
  -34.5718  -24.5737   29.7901 C   0  0  0  0  0  0  0  0  0  0  0  0
  -32.3298  -24.8160   30.8642 C   0  0  0  0  0  0  0  0  0  0  0  0
  -30.9004  -24.3201   30.7686 C   0  0  0  0  0  0  0  0  0  1  0  0
  -23.5651  -24.8328   30.8635 C   0  0  1  0  0  0  0  0  0  0  0  0
  -23.1822  -25.9197   34.4748 C   0  0  2  0  0  0  0  0  0  0  0  0
  -22.8022  -25.5694   29.7264 C   0  0  0  0  0  0  0  0  0  0  0  0
  -25.8084  -11.5317   20.3289 N   0  0  0  0  0  0  0  0  0  0  0  0
  -26.2087  -12.8054   20.1752 N   0  0  0  0  0  0  0  0  0  0  0  0
  -24.7092  -22.6560   30.5870 N   0  0  0  0  0  0  0  0  0  0  0  0
  -29.9489  -13.5362   20.4197 N   0  0  0  0  0  0  0  0  0  0  0  0
  -25.4761  -15.0506   20.3572 N   0  0  0  0  0  0  0  0  0  0  0  0
  -21.8327  -12.6655   21.5543 N   0  0  0  0  0  0  0  0  0  0  0  0
  -27.8283  -20.5268   24.5359 N   0  0  0  0  0  0  0  0  0  0  0  0
  -30.0782  -15.6399   21.4781 N   0  0  0  0  0  0  0  0  0  0  0  0
  -24.1537  -20.0601   28.2031 N   0  0  0  0  0  0  0  0  0  0  0  0
  -34.0013  -19.6745   26.9031 N   0  0  0  0  0  0  0  0  0  0  0  0
  -23.0866  -25.1473   32.2053 N   0  0  0  0  0  0  0  0  0  0  0  0
  -35.9955  -20.0863   28.1185 N   0  3  0  0  0  0  0  0  0  0  0  0
  -31.0655  -20.0368   25.6012 N   0  3  2  0  0  0  0  0  0  0  0  0
  -24.0958  -25.7021   35.6319 N   0  3  0  0  0  0  0  0  0  0  0  0
  -33.1527  -24.1481   29.8181 N   0  3  0  0  0  0  0  0  0  0  0  0
  -22.6483  -14.7848   21.2344 O   0  0  0  0  0  0  0  0  0  0  0  0
  -29.6399  -21.0594   23.2211 O   0  0  0  0  0  0  0  0  0  0  0  0
  -25.4959  -21.9624   28.1555 O   0  0  0  0  0  0  0  0  0  0  0  0
  -22.3869  -22.7769   30.7560 O   0  0  0  0  0  0  0  0  0  0  0  0
  -25.1094  -25.9381   33.0178 O   0  0  0  0  0  0  0  0  0  0  0  0
  -31.8607  -14.8232   20.2382 O   0  0  0  0  0  0  0  0  0  0  0  0
  -21.4644   -7.1119   21.7935 O   0  0  0  0  0  0  0  0  0  0  0  0
  -30.8684  -22.9159   30.9864 O   0  0  0  0  0  0  0  0  0  1  0  0
  -23.7849   -3.0898   24.7670 F   0  0  0  0  0  0  0  0  0  0  0  0
  -20.3681   -6.3168   24.2036 F   0  0  0  0  0  0  0  0  0  0  0  0
  1  2  1  0  0  0  0
  1  5  2  0  0  0  0
  2  6  2  0  0  0  0
  3 10  2  0  0  0  0
  3 17  1  0  0  0  0
  4 11  1  0  0  0  0
  4 17  2  0  0  0  0
  5 19  1  0  0  0  0
  6 21  1  0  0  0  0
  7  9  1  0  0  0  0
  7 22  2  0  0  0  0
  8 12  2  0  0  0  0
  8 20  1  0  0  0  0
  9 26  2  0  0  0  0
 10 27  1  0  0  0  0
 11 27  2  0  0  0  0
 12 28  1  0  0  0  0
 13 14  2  0  0  0  0
 13 29  1  0  0  0  0
 14 30  1  0  0  0  0
 15 23  1  0  0  0  0
 15 28  2  0  0  0  0
 16 30  2  0  0  0  0
 16 31  1  0  0  0  0
 17 32  1  0  0  0  0
 18 32  1  0  0  0  0
 18 33  2  0  0  0  0
 18 34  1  0  0  0  0
 19 21  2  0  0  0  0
 19 41  1  0  0  0  0
 20 23  2  0  0  0  0
 20 42  1  0  0  0  0
 21 53  1  0  0  0  0
 22 24  1  0  0  0  0
 22 54  1  0  0  0  0
 23 43  1  0  0  0  0
 24 25  2  0  0  0  0
 24 52  1  0  0  0  0
 25 26  1  0  0  0  0
 25 65  1  0  0  0  0
 26 82  1  0  0  0  0
 27 96  1  0  0  0  0
 28 97  1  0  0  0  0
 29 31  2  0  0  0  0
 29 96  1  0  0  0  0
 30 98  1  0  0  0  0
 31 99  1  0  0  0  0
 32 75  2  0  0  0  0
 33 76  1  0  0  0  0
 33 79  1  0  0  0  0
 34 80  1  0  0  0  0
 34 90  2  0  0  0  0
 35 52  1  0  0  0  0
 35 81  1  0  0  0  0
 35 91  2  0  0  0  0
 36 55  1  0  0  0  0
 36 83  1  0  0  0  0
 36 92  2  0  0  0  0
 37 72  1  0  0  0  0
 37 77  1  0  0  0  0
 37 93  2  0  0  0  0
 38 58  1  0  0  0  0
 38 84  1  0  0  0  0
 38 86  2  0  0  0  0
 39 73  1  0  0  0  0
 39 85  1  0  0  0  0
 39 94  2  0  0  0  0
 40 78  1  0  0  0  0
 40 82  1  0  0  0  0
 40 95  2  0  0  0  0
 41 44  1  0  0  0  0
 42 55  1  0  0  0  0
 43 77  1  0  0  0  0
 44 46  1  0  0  0  0
 45 47  1  0  0  0  0
 45 49  1  0  0  0  0
 46 53  1  0  0  0  0
 47 56  1  0  0  0  0
 48 51  1  0  0  0  0
 48 57  1  0  0  0  0
 49 78  1  0  0  0  0
 50 56  1  0  0  0  0
 50 78  1  0  0  0  0
 51 87  1  0  0  0  0
 52 87  1  0  0  0  0
 53 83  1  0  0  0  0
 54 57  1  0  0  0  0
 54 87  1  0  0  0  0
 55 77  1  0  0  0  0
 56 76  1  0  0  0  0
 57 84  1  0  0  0  0
 59 65  1  0  0  0  0
 60 73  1  0  0  0  0
 61 74  1  0  0  0  0
 62 74  1  0  0  0  0
 63 74  1  0  0  0  0
 64 88  1  0  0  0  0
 66 67  1  0  0  0  0
 66 68  1  0  0  0  0
 67 69  1  0  0  0  0
 68 86  1  0  0  0  0
 69 89  1  0  0  0  0
 70 71  1  0  0  0  0
 70 89  1  0  0  0  0
 71 97  1  0  0  0  0
 72 74  1  0  0  0  0
 72 85  1  0  0  0  0
 73 88  1  0  0  0  0
 75 76  1  0  0  0  0
M  CHG  4  86   1  87   1  88   1  89   1
M  ISO  4  40 100  71 101  82 100  97 101
M  END
> <Batch ID>
0004

> <Smiles>
CCc1c([100NH:0][100C:0](=O)N2CCCC(n3nc(-c4ccc(Oc5ccc(F)cc5F)cc4)c(C(N)=O)c3N)C2)ccc2c1C(C(N)=O)N1CCC(NC(C)=NCCCCNC[101CH2:1][101O:1]c3ccc4c(c3)CN(C(=O)C(NC(=O)C(C)NC)C(C)(C)C)C(C(=O)NC3CCCc5ccccc53)C4)C21

> <Shape>
0.167

> <Color>
0.162

> <Negative vol penalty>
0.000

$$$$

  -OEChem-04042320233D

 84 93  0     1  0  0  0  0  0999 V2000
  -28.2385  -33.7172   25.8526 C   0  0  0  0  0  0  0  0  0  0  0  0
  -28.3263  -32.4662   25.2502 C   0  0  0  0  0  0  0  0  0  0  0  0
  -24.5538   -9.1482   21.3339 C   0  0  0  0  0  0  0  0  0  0  0  0
  -22.6687  -10.2771   20.3295 C   0  0  0  0  0  0  0  0  0  0  0  0
  -26.9915  -34.2395   26.1933 C   0  0  0  0  0  0  0  0  0  0  0  0
  -27.1672  -31.7364   24.9892 C   0  0  0  0  0  0  0  0  0  0  0  0
  -31.1986  -20.6977   22.2895 C   0  0  0  0  0  0  0  0  0  0  0  0
  -27.1646  -29.6844   20.3595 C   0  0  0  0  0  0  0  0  0  0  0  0
  -30.4403  -21.7814   21.8474 C   0  0  0  0  0  0  0  0  0  0  0  0
  -23.7545   -8.0317   21.5792 C   0  0  0  0  0  0  0  0  0  0  0  0
  -21.8694   -9.1606   20.5748 C   0  0  0  0  0  0  0  0  0  0  0  0
  -27.9244  -28.5302   20.1742 C   0  0  0  0  0  0  0  0  0  0  0  0
  -21.4174   -7.0885   23.8314 C   0  0  0  0  0  0  0  0  0  0  0  0
  -21.5084   -6.4908   25.0884 C   0  0  0  0  0  0  0  0  0  0  0  0
  -28.4248  -20.6653   22.5678 C   0  0  0  0  0  0  0  0  0  0  0  0
  -25.9267  -27.1917   20.3655 C   0  0  0  0  0  0  0  0  0  0  0  0
  -22.2095   -4.4229   24.0542 C   0  0  0  0  0  0  0  0  0  0  0  0
  -24.0109  -10.2710   20.7091 C   0  0  0  0  0  0  0  0  0  0  0  0
  -25.6042  -11.6845   19.3053 C   0  0  0  0  0  0  0  0  0  0  0  0
  -25.8158  -33.5199   25.9276 C   0  0  0  0  0  0  0  0  0  0  0  0
  -30.5773  -19.5906   22.8838 C   0  0  0  0  0  0  0  0  0  0  0  0
  -25.7794  -29.6000   20.5604 C   0  0  0  0  0  0  0  0  0  0  0  0
  -25.9034  -32.2491   25.3279 C   0  0  0  0  0  0  0  0  0  0  0  0
  -29.1751  -19.5653   23.0081 C   0  0  0  0  0  0  0  0  0  0  0  0
  -25.1512  -28.3465   20.5506 C   0  0  0  0  0  0  0  0  0  0  0  0
  -29.0551  -21.7666   21.9892 C   0  0  0  0  0  0  0  0  0  0  0  0
  -22.4123   -8.0379   21.1997 C   0  0  0  0  0  0  0  0  0  0  0  0
  -27.3059  -27.2834   20.1801 C   0  0  0  0  0  0  0  0  0  0  0  0
  -21.7223   -6.3534   22.6858 C   0  0  0  0  0  0  0  0  0  0  0  0
  -21.9045   -5.1580   25.1998 C   0  0  0  0  0  0  0  0  0  0  0  0
  -22.1184   -5.0206   22.7972 C   0  0  0  0  0  0  0  0  0  0  0  0
  -24.8359  -11.4248   20.4559 C   0  0  0  0  0  0  0  0  0  0  0  0
  -26.1970  -12.8981   19.5549 C   0  0  0  0  0  0  0  0  0  0  0  0
  -25.7675  -10.8990   18.1170 C   0  0  0  0  0  0  0  0  0  0  0  0
  -23.8022  -30.3962   22.9185 C   0  0  0  0  0  0  0  0  0  0  0  0
  -21.5240  -29.5388   20.7745 C   0  0  0  0  0  0  0  0  0  0  0  0
  -28.7473  -24.0366   20.9469 C   0  0  0  0  0  0  0  0  0  0  0  0
  -20.6852  -27.7260   18.0074 C   0  0  0  0  0  0  0  0  0  0  0  0
  -29.0745  -15.9532   23.2889 C   0  0  0  0  0  0  0  0  0  0  0  0
  -24.4938  -34.1051   26.3570 C   0  0  0  0  0  0  0  0  0  0  0  0
  -31.4151  -18.4194   23.3330 C   0  0  0  0  0  0  0  0  0  0  0  0
  -24.9701  -30.8563   20.7321 C   0  0  0  0  0  0  0  0  0  0  0  0
  -28.4600  -18.3925   23.6417 C   0  0  0  0  0  0  0  0  0  0  0  0
  -23.6642  -28.2031   20.7419 C   0  0  0  0  0  0  0  0  0  0  0  0
  -23.2890  -33.4310   25.7057 C   0  0  0  0  0  0  0  0  0  0  0  0
  -25.3549  -16.3028   23.1860 C   0  0  0  0  0  0  0  0  0  0  0  0
  -23.4262  -31.9133   25.7715 C   0  0  0  0  0  0  0  0  0  0  0  0
  -24.9638  -15.0383   22.4226 C   0  0  0  0  0  0  0  0  0  0  0  0
  -30.6697  -17.5344   24.3265 C   0  0  0  0  0  0  0  0  0  0  0  0
  -26.6462  -16.0975   23.9687 C   0  0  0  0  0  0  0  0  0  0  0  0
  -27.4124  -14.3780   22.3650 C   0  0  0  0  0  0  0  0  0  0  0  0
  -24.6670  -31.4378   25.0061 C   0  0  1  0  0  0  0  0  0  0  0  0
  -23.6405  -30.6182   21.4413 C   0  0  1  0  0  0  0  0  0  0  0  0
  -26.1246  -14.5460   21.5414 C   0  0  1  0  0  0  0  0  0  0  0  0
  -18.7391  -27.1982   16.5135 C   0  0  0  0  0  0  0  0  0  0  0  0
  -20.3941  -27.6744   22.9092 C   0  0  0  0  0  0  0  0  0  0  0  0
  -19.0983  -26.5126   21.1095 C   0  0  0  0  0  0  0  0  0  0  0  0
  -18.6702  -28.9216   21.5950 C   0  0  0  0  0  0  0  0  0  0  0  0
  -22.0453  -28.8655   15.6387 C   0  0  0  0  0  0  0  0  0  0  0  0
  -27.5912  -24.9641   20.6220 C   0  0  0  0  0  0  0  0  0  1  0  0
  -20.8114  -28.2539   20.4281 C   0  0  1  0  0  0  0  0  0  0  0  0
  -19.9371  -28.1066   16.7425 C   0  0  2  0  0  0  0  0  0  0  0  0
  -19.7718  -27.8429   21.5087 C   0  0  0  0  0  0  0  0  0  0  0  0
  -24.9301  -12.3953   21.3688 N   0  0  0  0  0  0  0  0  0  0  0  0
  -25.7647  -13.2766   20.7919 N   0  0  0  0  0  0  0  0  0  0  0  0
  -22.9171  -29.4603   20.9121 N   0  0  0  0  0  0  0  0  0  0  0  0
  -29.3341  -17.2246   23.8228 N   0  0  0  0  0  0  0  0  0  0  0  0
  -27.7276  -15.5996   23.1087 N   0  0  0  0  0  0  0  0  0  0  0  0
  -27.0406  -13.6677   18.8349 N   0  0  0  0  0  0  0  0  0  0  0  0
  -25.0863   -9.6777   18.0246 N   0  0  0  0  0  0  0  0  0  0  0  0
  -28.2973  -22.8527   21.5503 N   0  0  0  0  0  0  0  0  0  0  0  0
  -24.4146  -31.4429   23.5811 N   0  0  0  0  0  0  0  0  0  0  0  0
  -20.2454  -28.4469   19.0974 N   0  0  0  0  0  0  0  0  0  0  0  0
  -20.8366  -28.0056   15.5585 N   0  3  0  0  0  0  0  0  0  0  0  0
  -26.5089  -11.2615   17.1723 O   0  0  0  0  0  0  0  0  0  0  0  0
  -23.3998  -29.3532   23.4203 O   0  0  0  0  0  0  0  0  0  0  0  0
  -20.8696  -30.5756   20.9106 O   0  0  0  0  0  0  0  0  0  0  0  0
  -29.9073  -24.3413   20.6897 O   0  0  0  0  0  0  0  0  0  0  0  0
  -21.5686  -26.8718   18.0273 O   0  0  0  0  0  0  0  0  0  0  0  0
  -29.9917  -15.1826   22.9781 O   0  0  0  0  0  0  0  0  0  0  0  0
  -21.6321   -6.9485   21.4387 O   0  0  0  0  0  0  0  0  0  0  0  0
  -28.0529  -26.1435   19.9982 O   0  0  0  0  0  0  0  0  0  1  0  0
  -21.9934   -4.5845   26.4071 F   0  0  0  0  0  0  0  0  0  0  0  0
  -22.4137   -4.3097   21.7003 F   0  0  0  0  0  0  0  0  0  0  0  0
  1  2  1  0  0  0  0
  1  5  2  0  0  0  0
  2  6  2  0  0  0  0
  3 10  2  0  0  0  0
  3 18  1  0  0  0  0
  4 11  1  0  0  0  0
  4 18  2  0  0  0  0
  5 20  1  0  0  0  0
  6 23  1  0  0  0  0
  7  9  2  0  0  0  0
  7 21  1  0  0  0  0
  8 12  2  0  0  0  0
  8 22  1  0  0  0  0
  9 26  1  0  0  0  0
 10 27  1  0  0  0  0
 11 27  2  0  0  0  0
 12 28  1  0  0  0  0
 13 14  2  0  0  0  0
 13 29  1  0  0  0  0
 14 30  1  0  0  0  0
 15 24  1  0  0  0  0
 15 26  2  0  0  0  0
 16 25  1  0  0  0  0
 16 28  2  0  0  0  0
 17 30  2  0  0  0  0
 17 31  1  0  0  0  0
 18 32  1  0  0  0  0
 19 32  1  0  0  0  0
 19 33  2  0  0  0  0
 19 34  1  0  0  0  0
 20 23  2  0  0  0  0
 20 40  1  0  0  0  0
 21 24  2  0  0  0  0
 21 41  1  0  0  0  0
 22 25  2  0  0  0  0
 22 42  1  0  0  0  0
 23 52  1  0  0  0  0
 24 43  1  0  0  0  0
 25 44  1  0  0  0  0
 26 71  1  0  0  0  0
 27 81  1  0  0  0  0
 28 82  1  0  0  0  0
 29 31  2  0  0  0  0
 29 81  1  0  0  0  0
 30 83  1  0  0  0  0
 31 84  1  0  0  0  0
 32 64  2  0  0  0  0
 33 65  1  0  0  0  0
 33 69  1  0  0  0  0
 34 70  1  0  0  0  0
 34 75  2  0  0  0  0
 35 53  1  0  0  0  0
 35 72  1  0  0  0  0
 35 76  2  0  0  0  0
 36 61  1  0  0  0  0
 36 66  1  0  0  0  0
 36 77  2  0  0  0  0
 37 60  1  0  0  0  0
 37 71  1  0  0  0  0
 37 78  2  0  0  0  0
 38 62  1  0  0  0  0
 38 73  1  0  0  0  0
 38 79  2  0  0  0  0
 39 67  1  0  0  0  0
 39 68  1  0  0  0  0
 39 80  2  0  0  0  0
 40 45  1  0  0  0  0
 41 49  1  0  0  0  0
 42 53  1  0  0  0  0
 43 67  1  0  0  0  0
 44 66  1  0  0  0  0
 45 47  1  0  0  0  0
 46 48  1  0  0  0  0
 46 50  1  0  0  0  0
 47 52  1  0  0  0  0
 48 54  1  0  0  0  0
 49 67  1  0  0  0  0
 50 68  1  0  0  0  0
 51 54  1  0  0  0  0
 51 68  1  0  0  0  0
 52 72  1  0  0  0  0
 53 66  1  0  0  0  0
 54 65  1  0  0  0  0
 55 62  1  0  0  0  0
 56 63  1  0  0  0  0
 57 63  1  0  0  0  0
 58 63  1  0  0  0  0
 59 74  1  0  0  0  0
 60 82  1  0  0  0  0
 61 63  1  0  0  0  0
 61 73  1  0  0  0  0
 62 74  1  0  0  0  0
 64 65  1  0  0  0  0
M  CHG  1  74   1
M  ISO  4  39 100  60 101  67 100  82 101
M  END
> <Batch ID>
0004

> <Smiles>
CNC(C)C(=O)NC(C(=O)N1Cc2cc([101O:1][101CH2:1]C(=O)Nc3ccc4c(c3)C[100N:0]([100C:0](=O)N3CCCC(n5nc(-c6ccc(Oc7ccc(F)cc7F)cc6)c(C(N)=O)c5N)C3)CC4)ccc2CC1C(=O)NC1CCCc2ccccc21)C(C)(C)C

> <Shape>
0.303

> <Color>
0.124

> <Negative vol penalty>
0.000

$$$$

  -OEChem-04042320233D

 85 93  0     1  0  0  0  0  0999 V2000
  -22.4407   -8.7201   20.4680 C   0  0  0  0  0  0  0  0  0  0  0  0
  -21.9460  -10.0192   20.5232 C   0  0  0  0  0  0  0  0  0  0  0  0
  -29.3783  -26.2356   18.4291 C   0  0  0  0  0  0  0  0  0  0  0  0
  -29.0392  -25.4238   20.6793 C   0  0  0  0  0  0  0  0  0  0  0  0
  -18.2418  -26.2347   21.9175 C   0  0  0  0  0  0  0  0  0  0  0  0
  -19.4492  -25.8275   23.9701 C   0  0  0  0  0  0  0  0  0  0  0  0
  -23.6844   -8.4248   21.0246 C   0  0  0  0  0  0  0  0  0  0  0  0
  -22.6945  -11.0236   21.1360 C   0  0  0  0  0  0  0  0  0  0  0  0
  -22.9899  -16.9163   19.4944 C   0  0  0  0  0  0  0  0  0  0  0  0
  -18.7690  -27.5249   21.8633 C   0  0  0  0  0  0  0  0  0  0  0  0
  -19.9765  -27.1177   23.9159 C   0  0  0  0  0  0  0  0  0  0  0  0
  -30.6960  -25.7793   18.4631 C   0  0  0  0  0  0  0  0  0  0  0  0
  -30.3569  -24.9675   20.7132 C   0  0  0  0  0  0  0  0  0  0  0  0
  -22.3470  -18.0568   19.9736 C   0  0  0  0  0  0  0  0  0  0  0  0
  -33.4377  -26.2824   21.1717 C   0  0  0  0  0  0  0  0  0  0  0  0
  -34.1869  -26.5498   22.3175 C   0  0  0  0  0  0  0  0  0  0  0  0
  -24.2546  -18.5383   21.3695 C   0  0  0  0  0  0  0  0  0  0  0  0
  -34.4891  -24.1793   22.6732 C   0  0  0  0  0  0  0  0  0  0  0  0
  -28.5499  -26.0579   19.5372 C   0  0  0  0  0  0  0  0  0  0  0  0
  -18.5818  -25.3860   22.9709 C   0  0  0  0  0  0  0  0  0  0  0  0
  -26.0528  -25.8170   19.0749 C   0  0  0  0  0  0  0  0  0  0  0  0
  -24.4528   -9.4280   21.6359 C   0  0  0  0  0  0  0  0  0  0  0  0
  -24.2677  -16.5717   19.9581 C   0  0  0  0  0  0  0  0  0  0  0  0
  -23.9491  -10.7411   21.7024 C   0  0  0  0  0  0  0  0  0  0  0  0
  -24.9126  -17.3943   20.8927 C   0  0  0  0  0  0  0  0  0  0  0  0
  -19.6364  -27.9664   22.8625 C   0  0  0  0  0  0  0  0  0  0  0  0
  -31.1853  -25.1452   19.6051 C   0  0  0  0  0  0  0  0  0  0  0  0
  -22.9781  -18.8665   20.9134 C   0  0  0  0  0  0  0  0  0  0  0  0
  -33.2142  -24.9634   20.7767 C   0  0  0  0  0  0  0  0  0  0  0  0
  -34.7126  -25.4983   23.0683 C   0  0  0  0  0  0  0  0  0  0  0  0
  -33.7399  -23.9119   21.5274 C   0  0  0  0  0  0  0  0  0  0  0  0
  -27.1889  -26.5296   19.5030 C   0  0  0  0  0  0  0  0  0  0  0  0
  -25.0127  -26.6992   19.2374 C   0  0  0  0  0  0  0  0  0  0  0  0
  -18.0212  -24.0114   23.0294 C   0  0  0  0  0  0  0  0  0  0  0  0
  -25.9470  -24.4773   18.5752 C   0  0  0  0  0  0  0  0  0  0  0  0
  -25.4908  -14.0947   21.5305 C   0  0  0  0  0  0  0  0  0  0  0  0
  -28.2980  -15.6159   20.9582 C   0  0  0  0  0  0  0  0  0  0  0  0
  -29.9243  -18.5401   20.2866 C   0  0  0  0  0  0  0  0  0  0  0  0
  -22.3109  -30.5340   22.2606 C   0  0  0  0  0  0  0  0  0  0  0  0
  -25.7705   -9.0510   22.2654 C   0  0  0  0  0  0  0  0  0  0  0  0
  -24.9587  -15.3526   19.4114 C   0  0  0  0  0  0  0  0  0  0  0  0
  -26.2926  -17.0794   21.4074 C   0  0  0  0  0  0  0  0  0  0  0  0
  -26.6672  -10.2493   22.5653 C   0  0  0  0  0  0  0  0  0  0  0  0
  -25.0272  -31.6551   20.2502 C   0  0  0  0  0  0  0  0  0  0  0  0
  -25.8687  -11.3566   23.2458 C   0  0  0  0  0  0  0  0  0  0  0  0
  -25.7411  -30.3637   19.8468 C   0  0  0  0  0  0  0  0  0  0  0  0
  -24.4801  -31.5765   21.6737 C   0  0  0  0  0  0  0  0  0  0  0  0
  -24.3299  -29.1203   21.5383 C   0  0  0  0  0  0  0  0  0  0  0  0
  -24.7423  -11.8630   22.3367 C   0  0  1  0  0  0  0  0  0  0  0  0
  -26.0473  -14.8176   20.3366 C   0  0  1  0  0  0  0  0  0  0  0  0
  -24.8502  -29.1308   20.0907 C   0  0  2  0  0  0  0  0  0  0  0  0
  -32.2227  -19.4743   19.9099 C   0  0  0  0  0  0  0  0  0  0  0  0
  -28.8514  -15.4562   23.9546 C   0  0  0  0  0  0  0  0  0  0  0  0
  -30.6293  -17.1921   23.6481 C   0  0  0  0  0  0  0  0  0  0  0  0
  -30.8318  -14.9860   22.5015 C   0  0  0  0  0  0  0  0  0  0  0  0
  -29.2369  -19.4391   17.5519 C   0  0  0  0  0  0  0  0  0  0  0  0
  -20.2008  -29.3458   22.8035 C   0  0  0  0  0  0  0  0  0  0  0  0
  -18.9084  -20.8287   22.6717 C   0  0  0  0  0  0  0  0  0  0  0  0
  -20.4336  -20.8477   22.5651 C   0  0  0  0  0  0  0  0  0  0  0  0
  -18.3921  -21.6893   23.8205 C   0  0  0  0  0  0  0  0  0  0  0  0
  -20.9269  -19.9499   21.4374 C   0  0  0  0  0  0  0  0  0  1  0  0
  -29.1181  -16.6552   21.6836 C   0  0  1  0  0  0  0  0  0  0  0  0
  -30.9806  -18.8911   19.2543 C   0  0  2  0  0  0  0  0  0  0  0  0
  -29.8308  -16.0775   22.9389 C   0  0  0  0  0  0  0  0  0  0  0  0
  -26.8982  -27.7691   19.9069 N   0  0  0  0  0  0  0  0  0  0  0  0
  -25.5675  -27.8422   19.7332 N   0  0  0  0  0  0  0  0  0  0  0  0
  -26.9243  -15.8732   20.8472 N   0  0  0  0  0  0  0  0  0  0  0  0
  -23.6424  -30.3861   21.8383 N   0  0  0  0  0  0  0  0  0  0  0  0
  -23.6869  -26.6011   19.0029 N   0  0  0  0  0  0  0  0  0  0  0  0
  -27.1142  -23.7082   18.4729 N   0  0  0  0  0  0  0  0  0  0  0  0
  -18.7881  -23.0656   23.7000 N   0  0  0  0  0  0  0  0  0  0  0  0
  -25.2718  -12.7466   21.3203 N   0  0  0  0  0  0  0  0  0  0  0  0
  -30.0234  -17.2259   20.6921 N   0  0  0  0  0  0  0  0  0  0  0  0
  -21.5849  -29.3559   22.3849 N   0  0  0  0  0  0  0  0  0  0  0  0
  -30.4468  -19.8906   18.2863 N   0  3  0  0  0  0  0  0  0  0  0  0
  -16.9475  -23.7775   22.4806 O   0  0  0  0  0  0  0  0  0  0  0  0
  -24.8523  -23.9825   18.2142 O   0  0  0  0  0  0  0  0  0  0  0  0
  -25.2772  -14.7138   22.5662 O   0  0  0  0  0  0  0  0  0  0  0  0
  -28.8570  -14.6160   20.5004 O   0  0  0  0  0  0  0  0  0  0  0  0
  -29.0967  -19.3516   20.6952 O   0  0  0  0  0  0  0  0  0  0  0  0
  -21.8050  -31.6350   22.5033 O   0  0  0  0  0  0  0  0  0  0  0  0
  -32.4709  -24.6996   19.6384 O   0  0  0  0  0  0  0  0  0  0  0  0
  -22.3526  -19.9799   21.3832 O   0  0  0  0  0  0  0  0  0  1  0  0
  -35.4332  -25.7553   24.1677 F   0  0  0  0  0  0  0  0  0  0  0  0
  -33.5295  -22.6427   21.1522 F   0  0  0  0  0  0  0  0  0  0  0  0
  1  2  1  0  0  0  0
  1  7  2  0  0  0  0
  2  8  2  0  0  0  0
  3 12  2  0  0  0  0
  3 19  1  0  0  0  0
  4 13  1  0  0  0  0
  4 19  2  0  0  0  0
  5 10  2  0  0  0  0
  5 20  1  0  0  0  0
  6 11  1  0  0  0  0
  6 20  2  0  0  0  0
  7 22  1  0  0  0  0
  8 24  1  0  0  0  0
  9 14  2  0  0  0  0
  9 23  1  0  0  0  0
 10 26  1  0  0  0  0
 11 26  2  0  0  0  0
 12 27  1  0  0  0  0
 13 27  2  0  0  0  0
 14 28  1  0  0  0  0
 15 16  2  0  0  0  0
 15 29  1  0  0  0  0
 16 30  1  0  0  0  0
 17 25  1  0  0  0  0
 17 28  2  0  0  0  0
 18 30  2  0  0  0  0
 18 31  1  0  0  0  0
 19 32  1  0  0  0  0
 20 34  1  0  0  0  0
 21 32  1  0  0  0  0
 21 33  2  0  0  0  0
 21 35  1  0  0  0  0
 22 24  2  0  0  0  0
 22 40  1  0  0  0  0
 23 25  2  0  0  0  0
 23 41  1  0  0  0  0
 24 49  1  0  0  0  0
 25 42  1  0  0  0  0
 26 57  1  0  0  0  0
 27 82  1  0  0  0  0
 28 83  1  0  0  0  0
 29 31  2  0  0  0  0
 29 82  1  0  0  0  0
 30 84  1  0  0  0  0
 31 85  1  0  0  0  0
 32 65  2  0  0  0  0
 33 66  1  0  0  0  0
 33 69  1  0  0  0  0
 34 71  1  0  0  0  0
 34 76  2  0  0  0  0
 35 70  1  0  0  0  0
 35 77  2  0  0  0  0
 36 50  1  0  0  0  0
 36 72  1  0  0  0  0
 36 78  2  0  0  0  0
 37 62  1  0  0  0  0
 37 67  1  0  0  0  0
 37 79  2  0  0  0  0
 38 63  1  0  0  0  0
 38 73  1  0  0  0  0
 38 80  2  0  0  0  0
 39 68  1  0  0  0  0
 39 74  1  0  0  0  0
 39 81  2  0  0  0  0
 40 43  1  0  0  0  0
 41 50  1  0  0  0  0
 42 67  1  0  0  0  0
 43 45  1  0  0  0  0
 44 46  1  0  0  0  0
 44 47  1  0  0  0  0
 45 49  1  0  0  0  0
 46 51  1  0  0  0  0
 47 68  1  0  0  0  0
 48 51  1  0  0  0  0
 48 68  1  0  0  0  0
 49 72  1  0  0  0  0
 50 67  1  0  0  0  0
 51 66  1  0  0  0  0
 52 63  1  0  0  0  0
 53 64  1  0  0  0  0
 54 64  1  0  0  0  0
 55 64  1  0  0  0  0
 56 75  1  0  0  0  0
 57 74  1  0  0  0  0
 58 59  1  0  0  0  0
 58 60  1  0  0  0  0
 59 61  1  0  0  0  0
 60 71  1  0  0  0  0
 61 83  1  0  0  0  0
 62 64  1  0  0  0  0
 62 73  1  0  0  0  0
 63 75  1  0  0  0  0
 65 66  1  0  0  0  0
M  CHG  1  75   1
M  ISO  4  39 100  61 101  74 100  83 101
M  END
> <Batch ID>
0004

> <Smiles>
CNC(C)C(=O)NC(C(=O)N1Cc2cc([101O:1][101CH2:1]CCCNC(=O)c3ccc(C[100NH:0][100C:0](=O)N4CCCC(n5nc(-c6ccc(Oc7ccc(F)cc7F)cc6)c(C(N)=O)c5N)C4)cc3)ccc2CC1C(=O)NC1CCCc2ccccc21)C(C)(C)C

> <Shape>
0.251

> <Color>
0.064

> <Negative vol penalty>
0.000

$$$$

  -OEChem-04042320233D

 90 99  0     1  0  0  0  0  0999 V2000
  -17.0295   -8.1327   15.6047 C   0  0  0  0  0  0  0  0  0  0  0  0
  -18.0777   -9.0265   15.4098 C   0  0  0  0  0  0  0  0  0  0  0  0
  -24.6189  -39.5757   23.0111 C   0  0  0  0  0  0  0  0  0  0  0  0
  -24.4340  -38.5332   20.8394 C   0  0  0  0  0  0  0  0  0  0  0  0
  -16.5683   -7.8715   16.8943 C   0  0  0  0  0  0  0  0  0  0  0  0
  -18.6646   -9.6604   16.5044 C   0  0  0  0  0  0  0  0  0  0  0  0
  -24.9769  -12.1703   18.7785 C   0  0  0  0  0  0  0  0  0  0  0  0
  -27.9559  -28.2195   21.2324 C   0  0  0  0  0  0  0  0  0  0  0  0
  -30.3256  -28.4081   20.8007 C   0  0  0  0  0  0  0  0  0  0  0  0
  -27.9538  -29.5019   21.7812 C   0  0  0  0  0  0  0  0  0  0  0  0
  -30.3235  -29.6905   21.3494 C   0  0  0  0  0  0  0  0  0  0  0  0
  -29.2018  -23.4743   19.5378 C   0  0  0  0  0  0  0  0  0  0  0  0
  -29.0183  -22.9638   21.8921 C   0  0  0  0  0  0  0  0  0  0  0  0
  -24.0948  -40.7578   22.4882 C   0  0  0  0  0  0  0  0  0  0  0  0
  -23.9098  -39.7153   20.3165 C   0  0  0  0  0  0  0  0  0  0  0  0
  -25.5500  -13.3281   19.3027 C   0  0  0  0  0  0  0  0  0  0  0  0
  -29.2295  -22.1110   19.2443 C   0  0  0  0  0  0  0  0  0  0  0  0
  -29.0460  -21.6005   21.5986 C   0  0  0  0  0  0  0  0  0  0  0  0
  -20.9381  -41.3244   20.2930 C   0  0  0  0  0  0  0  0  0  0  0  0
  -19.8206  -41.2252   19.4643 C   0  0  0  0  0  0  0  0  0  0  0  0
  -24.7230  -12.7394   21.4910 C   0  0  0  0  0  0  0  0  0  0  0  0
  -21.0662  -42.2451   17.6627 C   0  0  0  0  0  0  0  0  0  0  0  0
  -24.7886  -38.4633   22.1866 C   0  0  0  0  0  0  0  0  0  0  0  0
  -24.6140  -36.1744   23.2993 C   0  0  0  0  0  0  0  0  0  0  0  0
  -17.1562   -8.4952   18.0060 C   0  0  0  0  0  0  0  0  0  0  0  0
  -24.2621  -11.2924   19.6060 C   0  0  0  0  0  0  0  0  0  0  0  0
  -18.2099   -9.4083   17.8100 C   0  0  0  0  0  0  0  0  0  0  0  0
  -24.1440  -11.5698   20.9754 C   0  0  0  0  0  0  0  0  0  0  0  0
  -29.1418  -27.6726   20.7422 C   0  0  0  0  0  0  0  0  0  0  0  0
  -29.1376  -30.2374   21.8396 C   0  0  0  0  0  0  0  0  0  0  0  0
  -29.0962  -23.9008   20.8617 C   0  0  0  0  0  0  0  0  0  0  0  0
  -23.7402  -40.8277   21.1410 C   0  0  0  0  0  0  0  0  0  0  0  0
  -29.1516  -21.1741   20.2747 C   0  0  0  0  0  0  0  0  0  0  0  0
  -25.4206  -13.6143   20.6586 C   0  0  0  0  0  0  0  0  0  0  0  0
  -22.1197  -41.8840   19.8067 C   0  0  0  0  0  0  0  0  0  0  0  0
  -19.8846  -41.6855   18.1491 C   0  0  0  0  0  0  0  0  0  0  0  0
  -22.1837  -42.3443   18.4915 C   0  0  0  0  0  0  0  0  0  0  0  0
  -25.3305  -37.2420   22.7260 C   0  0  0  0  0  0  0  0  0  0  0  0
  -25.5795  -35.2639   23.6533 C   0  0  0  0  0  0  0  0  0  0  0  0
  -23.2021  -36.0196   23.4944 C   0  0  0  0  0  0  0  0  0  0  0  0
  -21.2576  -10.2606   19.7173 C   0  0  0  0  0  0  0  0  0  0  0  0
  -22.4172   -8.3319   22.0534 C   0  0  0  0  0  0  0  0  0  0  0  0
  -24.7969   -7.7752   24.4355 C   0  0  0  0  0  0  0  0  0  0  0  0
  -30.2228  -32.4034   22.5305 C   0  0  0  0  0  0  0  0  0  0  0  0
  -16.5922   -8.2171   19.3769 C   0  0  0  0  0  0  0  0  0  0  0  0
  -23.6726  -10.0340   19.0302 C   0  0  0  0  0  0  0  0  0  0  0  0
  -23.4040  -10.6494   21.9101 C   0  0  0  0  0  0  0  0  0  0  0  0
  -17.5161   -8.6456   20.5140 C   0  0  0  0  0  0  0  0  0  0  0  0
  -30.6199  -35.7013   23.8123 C   0  0  0  0  0  0  0  0  0  0  0  0
  -18.0574  -10.0493   20.2618 C   0  0  0  0  0  0  0  0  0  0  0  0
  -29.2202  -36.3083   23.6911 C   0  0  0  0  0  0  0  0  0  0  0  0
  -30.9419  -34.7796   22.6374 C   0  0  0  0  0  0  0  0  0  0  0  0
  -28.5481  -34.3367   22.2601 C   0  0  0  0  0  0  0  0  0  0  0  0
  -18.8887  -10.0968   18.9741 C   0  0  1  0  0  0  0  0  0  0  0  0
  -22.5280   -9.4726   19.8680 C   0  0  1  0  0  0  0  0  0  0  0  0
  -28.1533  -35.2217   23.4537 C   0  0  2  0  0  0  0  0  0  0  0  0
  -25.4588   -6.1313   26.2122 C   0  0  0  0  0  0  0  0  0  0  0  0
  -20.1955   -9.3903   23.8571 C   0  0  0  0  0  0  0  0  0  0  0  0
  -21.4500   -8.4761   25.8214 C   0  0  0  0  0  0  0  0  0  0  0  0
  -20.6134   -6.9322   24.0497 C   0  0  0  0  0  0  0  0  0  0  0  0
  -27.3902   -7.2223   23.1209 C   0  0  0  0  0  0  0  0  0  0  0  0
  -29.1440  -26.2922   20.1517 C   0  0  0  0  0  0  0  0  0  0  0  0
  -27.9870  -17.7439   20.1186 C   0  0  0  0  0  0  0  0  0  0  0  0
  -27.2078  -16.7999   21.0278 C   0  0  0  0  0  0  0  0  0  0  0  0
  -28.4757  -18.9737   20.8723 C   0  0  0  0  0  0  0  0  0  0  0  0
  -26.6824  -15.5916   20.2657 C   0  0  0  0  0  0  0  0  0  1  0  0
  -22.5778   -8.4434   23.5503 C   0  0  1  0  0  0  0  0  0  0  0  0
  -25.6298   -6.5482   24.7597 C   0  0  2  0  0  0  0  0  0  0  0  0
  -21.2215   -8.3290   24.3019 C   0  0  0  0  0  0  0  0  0  0  0  0
  -26.6493  -37.0308   22.7146 N   0  0  0  0  0  0  0  0  0  0  0  0
  -26.7692  -35.8200   23.2851 N   0  0  0  0  0  0  0  0  0  0  0  0
  -22.8400   -9.4349   21.2982 N   0  0  0  0  0  0  0  0  0  0  0  0
  -29.8901  -33.7734   22.4757 N   0  0  0  0  0  0  0  0  0  0  0  0
  -25.5184  -34.0498   24.2405 N   0  0  0  0  0  0  0  0  0  0  0  0
  -22.3522  -37.0510   23.0724 N   0  0  0  0  0  0  0  0  0  0  0  0
  -29.1357  -31.5403   22.3967 N   0  0  0  0  0  0  0  0  0  0  0  0
  -29.0682  -25.2792   21.1585 N   0  0  0  0  0  0  0  0  0  0  0  0
  -20.2026   -9.5337   19.1996 N   0  0  0  0  0  0  0  0  0  0  0  0
  -23.5594   -7.4339   23.9319 N   0  0  0  0  0  0  0  0  0  0  0  0
  -27.0741   -6.8236   24.5167 N   0  3  0  0  0  0  0  0  0  0  0  0
  -22.7100  -35.0039   24.0420 O   0  0  0  0  0  0  0  0  0  0  0  0
  -21.2357  -11.4405   20.0477 O   0  0  0  0  0  0  0  0  0  0  0  0
  -21.9411   -7.3010   21.5714 O   0  0  0  0  0  0  0  0  0  0  0  0
  -25.2019   -8.9216   24.6147 O   0  0  0  0  0  0  0  0  0  0  0  0
  -31.3825  -32.0239   22.7121 O   0  0  0  0  0  0  0  0  0  0  0  0
  -23.2286  -41.9810   20.6305 O   0  0  0  0  0  0  0  0  0  0  0  0
  -29.1789  -19.8345   19.9863 O   0  0  0  0  0  0  0  0  0  0  0  0
  -25.9785  -14.7441   21.1727 O   0  0  0  0  0  0  0  0  0  1  0  0
  -18.8118  -41.5888   17.3529 F   0  0  0  0  0  0  0  0  0  0  0  0
  -23.3164  -42.8817   18.0183 F   0  0  0  0  0  0  0  0  0  0  0  0
  1  2  1  0  0  0  0
  1  5  2  0  0  0  0
  2  6  2  0  0  0  0
  3 14  2  0  0  0  0
  3 23  1  0  0  0  0
  4 15  1  0  0  0  0
  4 23  2  0  0  0  0
  5 25  1  0  0  0  0
  6 27  1  0  0  0  0
  7 16  2  0  0  0  0
  7 26  1  0  0  0  0
  8 10  2  0  0  0  0
  8 29  1  0  0  0  0
  9 11  1  0  0  0  0
  9 29  2  0  0  0  0
 10 30  1  0  0  0  0
 11 30  2  0  0  0  0
 12 17  2  0  0  0  0
 12 31  1  0  0  0  0
 13 18  1  0  0  0  0
 13 31  2  0  0  0  0
 14 32  1  0  0  0  0
 15 32  2  0  0  0  0
 16 34  1  0  0  0  0
 17 33  1  0  0  0  0
 18 33  2  0  0  0  0
 19 20  2  0  0  0  0
 19 35  1  0  0  0  0
 20 36  1  0  0  0  0
 21 28  1  0  0  0  0
 21 34  2  0  0  0  0
 22 36  2  0  0  0  0
 22 37  1  0  0  0  0
 23 38  1  0  0  0  0
 24 38  1  0  0  0  0
 24 39  2  0  0  0  0
 24 40  1  0  0  0  0
 25 27  2  0  0  0  0
 25 45  1  0  0  0  0
 26 28  2  0  0  0  0
 26 46  1  0  0  0  0
 27 54  1  0  0  0  0
 28 47  1  0  0  0  0
 29 62  1  0  0  0  0
 30 76  1  0  0  0  0
 31 77  1  0  0  0  0
 32 86  1  0  0  0  0
 33 87  1  0  0  0  0
 34 88  1  0  0  0  0
 35 37  2  0  0  0  0
 35 86  1  0  0  0  0
 36 89  1  0  0  0  0
 37 90  1  0  0  0  0
 38 70  2  0  0  0  0
 39 71  1  0  0  0  0
 39 74  1  0  0  0  0
 40 75  1  0  0  0  0
 40 81  2  0  0  0  0
 41 55  1  0  0  0  0
 41 78  1  0  0  0  0
 41 82  2  0  0  0  0
 42 67  1  0  0  0  0
 42 72  1  0  0  0  0
 42 83  2  0  0  0  0
 43 68  1  0  0  0  0
 43 79  1  0  0  0  0
 43 84  2  0  0  0  0
 44 73  1  0  0  0  0
 44 76  1  0  0  0  0
 44 85  2  0  0  0  0
 45 48  1  0  0  0  0
 46 55  1  0  0  0  0
 47 72  1  0  0  0  0
 48 50  1  0  0  0  0
 49 51  1  0  0  0  0
 49 52  1  0  0  0  0
 50 54  1  0  0  0  0
 51 56  1  0  0  0  0
 52 73  1  0  0  0  0
 53 56  1  0  0  0  0
 53 73  1  0  0  0  0
 54 78  1  0  0  0  0
 55 72  1  0  0  0  0
 56 71  1  0  0  0  0
 57 68  1  0  0  0  0
 58 69  1  0  0  0  0
 59 69  1  0  0  0  0
 60 69  1  0  0  0  0
 61 80  1  0  0  0  0
 62 77  1  0  0  0  0
 63 64  1  0  0  0  0
 63 65  1  0  0  0  0
 64 66  1  0  0  0  0
 65 87  1  0  0  0  0
 66 88  1  0  0  0  0
 67 69  1  0  0  0  0
 67 79  1  0  0  0  0
 68 80  1  0  0  0  0
 70 71  1  0  0  0  0
M  CHG  1  80   1
M  ISO  4  44 100  66 101  76 100  88 101
M  END
> <Batch ID>
0004

> <Smiles>
CNC(C)C(=O)NC(C(=O)N1Cc2cc([101O:1][101CH2:1]CCCOc3ccc(NCc4ccc([100NH:0][100C:0](=O)N5CCCC(n6nc(-c7ccc(Oc8ccc(F)cc8F)cc7)c(C(N)=O)c6N)C5)cc4)cc3)ccc2CC1C(=O)NC1CCCc2ccccc21)C(C)(C)C

> <Shape>
0.196

> <Color>
0.066

> <Negative vol penalty>
0.000

$$$$

  -OEChem-04042320233D

 82 90  0     1  0  0  0  0  0999 V2000
  -28.4353  -32.7061   28.2182 C   0  0  0  0  0  0  0  0  0  0  0  0
  -28.3458  -31.6820   27.2809 C   0  0  0  0  0  0  0  0  0  0  0  0
  -24.6068   -8.6828   21.4336 C   0  0  0  0  0  0  0  0  0  0  0  0
  -23.1647  -10.6099   21.2236 C   0  0  0  0  0  0  0  0  0  0  0  0
  -27.3849  -33.6115   28.3622 C   0  0  0  0  0  0  0  0  0  0  0  0
  -27.2053  -31.5621   26.4876 C   0  0  0  0  0  0  0  0  0  0  0  0
  -28.3058  -30.6897   21.6222 C   0  0  0  0  0  0  0  0  0  0  0  0
  -26.1556  -18.0367   19.7879 C   0  0  0  0  0  0  0  0  0  0  0  0
  -28.3999  -18.4803   20.5646 C   0  0  0  0  0  0  0  0  0  0  0  0
  -23.7770   -8.1705   22.4309 C   0  0  0  0  0  0  0  0  0  0  0  0
  -22.3349  -10.0975   22.2208 C   0  0  0  0  0  0  0  0  0  0  0  0
  -28.6745  -29.3905   21.2758 C   0  0  0  0  0  0  0  0  0  0  0  0
  -25.7701  -19.3223   20.1677 C   0  0  0  0  0  0  0  0  0  0  0  0
  -28.0144  -19.7659   20.9444 C   0  0  0  0  0  0  0  0  0  0  0  0
  -20.8206   -6.5402   22.6173 C   0  0  0  0  0  0  0  0  0  0  0  0
  -20.4844   -5.1882   22.5496 C   0  0  0  0  0  0  0  0  0  0  0  0
  -26.4414  -28.9805   20.4607 C   0  0  0  0  0  0  0  0  0  0  0  0
  -21.5037   -4.8265   24.7100 C   0  0  0  0  0  0  0  0  0  0  0  0
  -24.3007   -9.9026   20.8300 C   0  0  0  0  0  0  0  0  0  0  0  0
  -25.0599  -10.2084   18.4139 C   0  0  0  0  0  0  0  0  0  0  0  0
  -26.2350  -33.5084   27.5636 C   0  0  0  0  0  0  0  0  0  0  0  0
  -26.9969  -31.1413   21.4000 C   0  0  0  0  0  0  0  0  0  0  0  0
  -26.1379  -32.4662   26.6220 C   0  0  0  0  0  0  0  0  0  0  0  0
  -26.0593  -30.2867   20.8028 C   0  0  0  0  0  0  0  0  0  0  0  0
  -27.4705  -17.6157   19.9865 C   0  0  0  0  0  0  0  0  0  0  0  0
  -22.6410   -8.8778   22.8245 C   0  0  0  0  0  0  0  0  0  0  0  0
  -26.6994  -20.1869   20.7459 C   0  0  0  0  0  0  0  0  0  0  0  0
  -27.7415  -28.5347   20.6976 C   0  0  0  0  0  0  0  0  0  0  0  0
  -21.4985   -7.0354   23.7313 C   0  0  0  0  0  0  0  0  0  0  0  0
  -20.8259   -4.3313   23.5960 C   0  0  0  0  0  0  0  0  0  0  0  0
  -21.8400   -6.1786   24.7777 C   0  0  0  0  0  0  0  0  0  0  0  0
  -25.1578  -10.4326   19.8002 C   0  0  0  0  0  0  0  0  0  0  0  0
  -26.0985  -10.9280   17.8755 C   0  0  0  0  0  0  0  0  0  0  0  0
  -24.1145   -9.4203   17.6785 C   0  0  0  0  0  0  0  0  0  0  0  0
  -24.6350  -32.1752   23.2590 C   0  0  0  0  0  0  0  0  0  0  0  0
  -23.1907  -32.7871   20.4197 C   0  0  0  0  0  0  0  0  0  0  0  0
  -22.9348  -32.0878   17.0892 C   0  0  0  0  0  0  0  0  0  0  0  0
  -29.1265  -15.7349   19.7276 C   0  0  0  0  0  0  0  0  0  0  0  0
  -25.1055  -34.4823   27.7882 C   0  0  0  0  0  0  0  0  0  0  0  0
  -26.6224  -32.5541   21.7548 C   0  0  0  0  0  0  0  0  0  0  0  0
  -24.6469  -30.7295   20.5247 C   0  0  0  0  0  0  0  0  0  0  0  0
  -24.0901  -34.5107   26.6487 C   0  0  0  0  0  0  0  0  0  0  0  0
  -30.4822  -12.5399   18.9334 C   0  0  0  0  0  0  0  0  0  0  0  0
  -23.7074  -33.0920   26.2391 C   0  0  0  0  0  0  0  0  0  0  0  0
  -29.2609  -11.6176   18.9334 C   0  0  0  0  0  0  0  0  0  0  0  0
  -30.3839  -13.6113   20.0179 C   0  0  0  0  0  0  0  0  0  0  0  0
  -27.9240  -13.4777   20.0009 C   0  0  0  0  0  0  0  0  0  0  0  0
  -24.9276  -32.3180   25.7258 C   0  0  1  0  0  0  0  0  0  0  0  0
  -25.1217  -32.7420   21.9554 C   0  0  1  0  0  0  0  0  0  0  0  0
  -27.9472  -12.4222   18.8833 C   0  0  2  0  0  0  0  0  0  0  0  0
  -21.6379  -32.7230   15.0369 C   0  0  0  0  0  0  0  0  0  0  0  0
  -20.8142  -31.1552   21.4192 C   0  0  0  0  0  0  0  0  0  0  0  0
  -19.9998  -31.0231   19.0554 C   0  0  0  0  0  0  0  0  0  0  0  0
  -20.2013  -33.2399   20.1813 C   0  0  0  0  0  0  0  0  0  0  0  0
  -25.3721  -33.0292   15.6991 C   0  0  0  0  0  0  0  0  0  0  0  0
  -26.6764  -23.8123   20.7993 C   0  0  0  0  0  0  0  0  0  0  0  0
  -27.7164  -24.9244   20.7195 C   0  0  0  0  0  0  0  0  0  0  0  0
  -27.3204  -22.4594   21.0714 C   0  0  0  0  0  0  0  0  0  0  0  0
  -27.0778  -26.2698   20.4050 C   0  0  0  0  0  0  0  0  0  1  0  0
  -22.2967  -32.0084   19.4852 C   0  0  1  0  0  0  0  0  0  0  0  0
  -22.8805  -32.9923   15.8712 C   0  0  2  0  0  0  0  0  0  0  0  0
  -20.8540  -31.8474   20.0422 C   0  0  0  0  0  0  0  0  0  0  0  0
  -26.1782  -11.2319   20.1225 N   0  0  0  0  0  0  0  0  0  0  0  0
  -26.7310  -11.5163   18.9310 N   0  0  0  0  0  0  0  0  0  0  0  0
  -24.3273  -32.1181   20.8953 N   0  0  0  0  0  0  0  0  0  0  0  0
  -29.1157  -14.3353   19.9056 N   0  0  0  0  0  0  0  0  0  0  0  0
  -26.5234  -11.1086   16.6069 N   0  0  0  0  0  0  0  0  0  0  0  0
  -23.1114   -8.7460   18.3881 N   0  0  0  0  0  0  0  0  0  0  0  0
  -27.8623  -16.3097   19.6008 N   0  0  0  0  0  0  0  0  0  0  0  0
  -25.2473  -32.7184   24.3723 N   0  0  0  0  0  0  0  0  0  0  0  0
  -22.3669  -32.6850   18.1946 N   0  0  0  0  0  0  0  0  0  0  0  0
  -24.0791  -32.7769   15.0123 N   0  3  0  0  0  0  0  0  0  0  0  0
  -24.1679   -9.3037   16.4307 O   0  0  0  0  0  0  0  0  0  0  0  0
  -23.7670  -31.3102   23.2552 O   0  0  0  0  0  0  0  0  0  0  0  0
  -22.8953  -33.9488   20.7110 O   0  0  0  0  0  0  0  0  0  0  0  0
  -23.4280  -30.9624   17.0617 O   0  0  0  0  0  0  0  0  0  0  0  0
  -30.1805  -16.3728   19.6632 O   0  0  0  0  0  0  0  0  0  0  0  0
  -21.8309   -8.3781   23.7974 O   0  0  0  0  0  0  0  0  0  0  0  0
  -26.3207  -21.4501   21.1190 O   0  0  0  0  0  0  0  0  0  0  0  0
  -28.0986  -27.2660   20.3592 O   0  0  0  0  0  0  0  0  0  1  0  0
  -20.5016   -3.0333   23.5315 F   0  0  0  0  0  0  0  0  0  0  0  0
  -22.4902   -6.6487   25.8510 F   0  0  0  0  0  0  0  0  0  0  0  0
  1  2  1  0  0  0  0
  1  5  2  0  0  0  0
  2  6  2  0  0  0  0
  3 10  2  0  0  0  0
  3 19  1  0  0  0  0
  4 11  1  0  0  0  0
  4 19  2  0  0  0  0
  5 21  1  0  0  0  0
  6 23  1  0  0  0  0
  7 12  2  0  0  0  0
  7 22  1  0  0  0  0
  8 13  2  0  0  0  0
  8 25  1  0  0  0  0
  9 14  1  0  0  0  0
  9 25  2  0  0  0  0
 10 26  1  0  0  0  0
 11 26  2  0  0  0  0
 12 28  1  0  0  0  0
 13 27  1  0  0  0  0
 14 27  2  0  0  0  0
 15 16  2  0  0  0  0
 15 29  1  0  0  0  0
 16 30  1  0  0  0  0
 17 24  1  0  0  0  0
 17 28  2  0  0  0  0
 18 30  2  0  0  0  0
 18 31  1  0  0  0  0
 19 32  1  0  0  0  0
 20 32  1  0  0  0  0
 20 33  2  0  0  0  0
 20 34  1  0  0  0  0
 21 23  2  0  0  0  0
 21 39  1  0  0  0  0
 22 24  2  0  0  0  0
 22 40  1  0  0  0  0
 23 48  1  0  0  0  0
 24 41  1  0  0  0  0
 25 69  1  0  0  0  0
 26 78  1  0  0  0  0
 27 79  1  0  0  0  0
 28 80  1  0  0  0  0
 29 31  2  0  0  0  0
 29 78  1  0  0  0  0
 30 81  1  0  0  0  0
 31 82  1  0  0  0  0
 32 63  2  0  0  0  0
 33 64  1  0  0  0  0
 33 67  1  0  0  0  0
 34 68  1  0  0  0  0
 34 73  2  0  0  0  0
 35 49  1  0  0  0  0
 35 70  1  0  0  0  0
 35 74  2  0  0  0  0
 36 60  1  0  0  0  0
 36 65  1  0  0  0  0
 36 75  2  0  0  0  0
 37 61  1  0  0  0  0
 37 71  1  0  0  0  0
 37 76  2  0  0  0  0
 38 66  1  0  0  0  0
 38 69  1  0  0  0  0
 38 77  2  0  0  0  0
 39 42  1  0  0  0  0
 40 49  1  0  0  0  0
 41 65  1  0  0  0  0
 42 44  1  0  0  0  0
 43 45  1  0  0  0  0
 43 46  1  0  0  0  0
 44 48  1  0  0  0  0
 45 50  1  0  0  0  0
 46 66  1  0  0  0  0
 47 50  1  0  0  0  0
 47 66  1  0  0  0  0
 48 70  1  0  0  0  0
 49 65  1  0  0  0  0
 50 64  1  0  0  0  0
 51 61  1  0  0  0  0
 52 62  1  0  0  0  0
 53 62  1  0  0  0  0
 54 62  1  0  0  0  0
 55 72  1  0  0  0  0
 56 57  1  0  0  0  0
 56 58  1  0  0  0  0
 57 59  1  0  0  0  0
 58 79  1  0  0  0  0
 59 80  1  0  0  0  0
 60 62  1  0  0  0  0
 60 71  1  0  0  0  0
 61 72  1  0  0  0  0
 63 64  1  0  0  0  0
M  CHG  1  72   1
M  ISO  4  38 100  59 101  69 100  80 101
M  END
> <Batch ID>
0004

> <Smiles>
CNC(C)C(=O)NC(C(=O)N1Cc2cc([101O:1][101CH2:1]CCCOc3ccc([100NH:0][100C:0](=O)N4CCCC(n5nc(-c6ccc(Oc7ccc(F)cc7F)cc6)c(C(N)=O)c5N)C4)cc3)ccc2CC1C(=O)NC1CCCc2ccccc21)C(C)(C)C

> <Shape>
0.243

> <Color>
0.082

> <Negative vol penalty>
0.000

$$$$

  -OEChem-04042320233D

 74 81  0     1  0  0  0  0  0999 V2000
  -28.2370  -24.4861   17.1417 C   0  0  0  0  0  0  0  0  0  0  0  0
  -27.0905  -25.1970   17.4776 C   0  0  0  0  0  0  0  0  0  0  0  0
  -23.9976  -17.2212   19.7044 C   0  0  0  0  0  0  0  0  0  0  0  0
  -21.6114  -17.5982   19.7372 C   0  0  0  0  0  0  0  0  0  0  0  0
  -29.3729  -24.5840   17.9426 C   0  0  0  0  0  0  0  0  0  0  0  0
  -27.0832  -26.0153   18.6078 C   0  0  0  0  0  0  0  0  0  0  0  0
  -23.1087  -28.8301   19.3032 C   0  0  0  0  0  0  0  0  0  0  0  0
  -23.7896  -15.8777   20.0166 C   0  0  0  0  0  0  0  0  0  0  0  0
  -21.4034  -16.2547   20.0494 C   0  0  0  0  0  0  0  0  0  0  0  0
  -21.8764  -28.3102   19.6969 C   0  0  0  0  0  0  0  0  0  0  0  0
  -23.8696  -12.2693   20.4498 C   0  0  0  0  0  0  0  0  0  0  0  0
  -24.5945  -11.3172   19.7332 C   0  0  0  0  0  0  0  0  0  0  0  0
  -22.2606  -29.1131   21.9389 C   0  0  0  0  0  0  0  0  0  0  0  0
  -23.5960  -12.1033   17.6784 C   0  0  0  0  0  0  0  0  0  0  0  0
  -22.9085  -18.0814   19.5647 C   0  0  0  0  0  0  0  0  0  0  0  0
  -23.1955  -20.0430   17.9592 C   0  0  0  0  0  0  0  0  0  0  0  0
  -29.3747  -25.3944   19.0898 C   0  0  0  0  0  0  0  0  0  0  0  0
  -23.9324  -29.4870   20.2287 C   0  0  0  0  0  0  0  0  0  0  0  0
  -28.2273  -26.1461   19.4155 C   0  0  0  0  0  0  0  0  0  0  0  0
  -23.5017  -29.6426   21.5540 C   0  0  0  0  0  0  0  0  0  0  0  0
  -22.4925  -15.3945   20.1891 C   0  0  0  0  0  0  0  0  0  0  0  0
  -21.4534  -28.4491   21.0155 C   0  0  0  0  0  0  0  0  0  0  0  0
  -23.0077  -13.1384   19.7807 C   0  0  0  0  0  0  0  0  0  0  0  0
  -24.4578  -11.2342   18.3475 C   0  0  0  0  0  0  0  0  0  0  0  0
  -22.8709  -13.0554   18.3951 C   0  0  0  0  0  0  0  0  0  0  0  0
  -23.1227  -19.4695   19.2428 C   0  0  0  0  0  0  0  0  0  0  0  0
  -23.4090  -21.3796   18.1920 C   0  0  0  0  0  0  0  0  0  0  0  0
  -23.0803  -19.4229   16.6716 C   0  0  0  0  0  0  0  0  0  0  0  0
  -26.8422  -28.9749   21.4010 C   0  0  0  0  0  0  0  0  0  0  0  0
  -26.3567  -31.8553   22.8116 C   0  0  0  0  0  0  0  0  0  0  0  0
  -24.1398  -34.1868   23.9501 C   0  0  0  0  0  0  0  0  0  0  0  0
  -22.1653  -24.9610   22.8264 C   0  0  0  0  0  0  0  0  0  0  0  0
  -30.6340  -25.4698   19.9166 C   0  0  0  0  0  0  0  0  0  0  0  0
  -25.2470  -30.0656   19.7819 C   0  0  0  0  0  0  0  0  0  0  0  0
  -24.3398  -30.3572   22.5814 C   0  0  0  0  0  0  0  0  0  0  0  0
  -30.3902  -26.0052   21.3238 C   0  0  0  0  0  0  0  0  0  0  0  0
  -25.3644  -24.3589   21.3844 C   0  0  0  0  0  0  0  0  0  0  0  0
  -29.5719  -27.2861   21.2580 C   0  0  0  0  0  0  0  0  0  0  0  0
  -25.1592  -23.0892   20.5562 C   0  0  0  0  0  0  0  0  0  0  0  0
  -24.5549  -24.3253   22.6788 C   0  0  0  0  0  0  0  0  0  0  0  0
  -22.9098  -22.7899   21.6739 C   0  0  0  0  0  0  0  0  0  0  0  0
  -28.1862  -27.0186   20.6570 C   0  0  1  0  0  0  0  0  0  0  0  0
  -26.2328  -30.2646   20.9290 C   0  0  1  0  0  0  0  0  0  0  0  0
  -23.6624  -22.8016   20.3323 C   0  0  2  0  0  0  0  0  0  0  0  0
  -24.0417  -36.4211   25.0884 C   0  0  0  0  0  0  0  0  0  0  0  0
  -27.0386  -30.5268   25.4724 C   0  0  0  0  0  0  0  0  0  0  0  0
  -26.0199  -32.4953   26.6367 C   0  0  0  0  0  0  0  0  0  0  0  0
  -28.0109  -32.8106   25.1672 C   0  0  0  0  0  0  0  0  0  0  0  0
  -22.7535  -35.4283   21.6488 C   0  0  0  0  0  0  0  0  0  0  0  0
  -18.9463  -25.9462   21.6711 C   0  0  0  0  0  0  0  0  0  0  0  0
  -19.7364  -25.4678   22.8817 C   0  0  0  0  0  0  0  0  0  0  0  0
  -19.7817  -26.7851   20.7116 C   0  0  0  0  0  0  0  0  0  1  0  0
  -25.7630  -32.3184   24.1200 C   0  0  1  0  0  0  0  0  0  0  0  0
  -24.0705  -35.6906   23.7549 C   0  0  2  0  0  0  0  0  0  0  0  0
  -26.6930  -32.0226   25.3304 C   0  0  0  0  0  0  0  0  0  0  0  0
  -23.2776  -20.3682   20.2186 N   0  0  0  0  0  0  0  0  0  0  0  0
  -23.4499  -21.5200   19.5480 N   0  0  0  0  0  0  0  0  0  0  0  0
  -25.6199  -30.9000   22.0973 N   0  0  0  0  0  0  0  0  0  0  0  0
  -23.1441  -24.0498   22.3967 N   0  0  0  0  0  0  0  0  0  0  0  0
  -23.5640  -22.4369   17.3670 N   0  0  0  0  0  0  0  0  0  0  0  0
  -22.8617  -18.0397   16.6133 N   0  0  0  0  0  0  0  0  0  0  0  0
  -27.5233  -28.2817   20.4185 N   0  0  0  0  0  0  0  0  0  0  0  0
  -25.4410  -33.7306   23.9450 N   0  0  0  0  0  0  0  0  0  0  0  0
  -20.8535  -24.6272   22.5125 N   0  0  0  0  0  0  0  0  0  0  0  0
  -22.8445  -36.0579   22.9913 N   0  3  0  0  0  0  0  0  0  0  0  0
  -23.1849  -20.0734   15.6042 O   0  0  0  0  0  0  0  0  0  0  0  0
  -26.7060  -28.6345   22.5703 O   0  0  0  0  0  0  0  0  0  0  0  0
  -27.4311  -32.3292   22.4336 O   0  0  0  0  0  0  0  0  0  0  0  0
  -23.1399  -33.4873   24.0965 O   0  0  0  0  0  0  0  0  0  0  0  0
  -22.4405  -25.9981   23.4394 O   0  0  0  0  0  0  0  0  0  0  0  0
  -22.2892  -14.0836   20.4935 O   0  0  0  0  0  0  0  0  0  0  0  0
  -20.2514  -27.9420   21.4025 O   0  0  0  0  0  0  0  0  0  1  0  0
  -25.1552  -10.3209   17.6593 F   0  0  0  0  0  0  0  0  0  0  0  0
  -22.0454  -13.8884   17.7467 F   0  0  0  0  0  0  0  0  0  0  0  0
  1  2  1  0  0  0  0
  1  5  2  0  0  0  0
  2  6  2  0  0  0  0
  3  8  2  0  0  0  0
  3 15  1  0  0  0  0
  4  9  1  0  0  0  0
  4 15  2  0  0  0  0
  5 17  1  0  0  0  0
  6 19  1  0  0  0  0
  7 10  2  0  0  0  0
  7 18  1  0  0  0  0
  8 21  1  0  0  0  0
  9 21  2  0  0  0  0
 10 22  1  0  0  0  0
 11 12  2  0  0  0  0
 11 23  1  0  0  0  0
 12 24  1  0  0  0  0
 13 20  1  0  0  0  0
 13 22  2  0  0  0  0
 14 24  2  0  0  0  0
 14 25  1  0  0  0  0
 15 26  1  0  0  0  0
 16 26  1  0  0  0  0
 16 27  2  0  0  0  0
 16 28  1  0  0  0  0
 17 19  2  0  0  0  0
 17 33  1  0  0  0  0
 18 20  2  0  0  0  0
 18 34  1  0  0  0  0
 19 42  1  0  0  0  0
 20 35  1  0  0  0  0
 21 71  1  0  0  0  0
 22 72  1  0  0  0  0
 23 25  2  0  0  0  0
 23 71  1  0  0  0  0
 24 73  1  0  0  0  0
 25 74  1  0  0  0  0
 26 56  2  0  0  0  0
 27 57  1  0  0  0  0
 27 60  1  0  0  0  0
 28 61  1  0  0  0  0
 28 66  2  0  0  0  0
 29 43  1  0  0  0  0
 29 62  1  0  0  0  0
 29 67  2  0  0  0  0
 30 53  1  0  0  0  0
 30 58  1  0  0  0  0
 30 68  2  0  0  0  0
 31 54  1  0  0  0  0
 31 63  1  0  0  0  0
 31 69  2  0  0  0  0
 32 59  1  0  0  0  0
 32 64  1  0  0  0  0
 32 70  2  0  0  0  0
 33 36  1  0  0  0  0
 34 43  1  0  0  0  0
 35 58  1  0  0  0  0
 36 38  1  0  0  0  0
 37 39  1  0  0  0  0
 37 40  1  0  0  0  0
 38 42  1  0  0  0  0
 39 44  1  0  0  0  0
 40 59  1  0  0  0  0
 41 44  1  0  0  0  0
 41 59  1  0  0  0  0
 42 62  1  0  0  0  0
 43 58  1  0  0  0  0
 44 57  1  0  0  0  0
 45 54  1  0  0  0  0
 46 55  1  0  0  0  0
 47 55  1  0  0  0  0
 48 55  1  0  0  0  0
 49 65  1  0  0  0  0
 50 51  1  0  0  0  0
 50 52  1  0  0  0  0
 51 64  1  0  0  0  0
 52 72  1  0  0  0  0
 53 55  1  0  0  0  0
 53 63  1  0  0  0  0
 54 65  1  0  0  0  0
 56 57  1  0  0  0  0
M  CHG  1  65   1
M  ISO  4  32 100  52 101  64 100  72 101
M  END
> <Batch ID>
0004

> <Smiles>
CNC(C)C(=O)NC(C(=O)N1Cc2cc([101O:1][101CH2:1]CC[100NH:0][100C:0](=O)N3CCCC(n4nc(-c5ccc(Oc6ccc(F)cc6F)cc5)c(C(N)=O)c4N)C3)ccc2CC1C(=O)NC1CCCc2ccccc21)C(C)(C)C

> <Shape>
0.222

> <Color>
0.068

> <Negative vol penalty>
0.000

$$$$

  -OEChem-04042320233D

101112  0     1  0  0  0  0  0999 V2000
  -28.4976  -14.2176   24.8410 C   0  0  0  0  0  0  0  0  0  0  0  0
  -29.4941  -15.1736   25.0373 C   0  0  0  0  0  0  0  0  0  0  0  0
  -27.8845  -14.0951   23.5941 C   0  0  0  0  0  0  0  0  0  0  0  0
  -28.9236  -32.3264   26.3753 C   0  0  0  0  0  0  0  0  0  0  0  0
  -28.7996  -31.1714   25.6098 C   0  0  0  0  0  0  0  0  0  0  0  0
  -23.5023  -13.3797   22.3732 C   0  0  0  0  0  0  0  0  0  0  0  0
  -23.9216  -14.6444   20.3577 C   0  0  0  0  0  0  0  0  0  0  0  0
  -29.8776  -16.0072   23.9867 C   0  0  0  0  0  0  0  0  0  0  0  0
  -28.2679  -14.9286   22.5435 C   0  0  0  0  0  0  0  0  0  0  0  0
  -27.7826  -33.0091   26.7948 C   0  0  0  0  0  0  0  0  0  0  0  0
  -27.5345  -30.6978   25.2642 C   0  0  0  0  0  0  0  0  0  0  0  0
  -27.2388  -29.3157   20.4014 C   0  0  0  0  0  0  0  0  0  0  0  0
  -22.8828  -14.4922   22.9424 C   0  0  0  0  0  0  0  0  0  0  0  0
  -23.3019  -15.7569   20.9270 C   0  0  0  0  0  0  0  0  0  0  0  0
  -27.7873  -28.0815   20.0557 C   0  0  0  0  0  0  0  0  0  0  0  0
  -23.8241  -17.3841   24.4174 C   0  0  0  0  0  0  0  0  0  0  0  0
  -24.1536  -17.7055   25.7341 C   0  0  0  0  0  0  0  0  0  0  0  0
  -30.3781  -19.9944   18.4361 C   0  0  0  0  0  0  0  0  0  0  0  0
  -25.5836  -27.1007   20.0848 C   0  0  0  0  0  0  0  0  0  0  0  0
  -21.8417  -17.4312   26.3797 C   0  0  0  0  0  0  0  0  0  0  0  0
  -24.0218  -13.4558   21.0808 C   0  0  0  0  0  0  0  0  0  0  0  0
  -29.4311  -18.9104   20.3524 C   0  0  0  0  0  0  0  0  0  0  0  0
  -28.5675  -20.0004   20.5797 C   0  0  0  0  0  0  0  0  0  0  0  0
  -29.2645  -15.8847   22.7397 C   0  0  0  0  0  0  0  0  0  0  0  0
  -30.3347  -18.8923   19.2949 C   0  0  0  0  0  0  0  0  0  0  0  0
  -24.0542  -11.2925   19.7292 C   0  0  0  0  0  0  0  0  0  0  0  0
  -26.5030  -32.5489   26.4461 C   0  0  0  0  0  0  0  0  0  0  0  0
  -25.8574  -29.4496   20.6023 C   0  0  0  0  0  0  0  0  0  0  0  0
  -26.3752  -31.3742   25.6806 C   0  0  0  0  0  0  0  0  0  0  0  0
  -29.5257  -21.0730   18.6717 C   0  0  0  0  0  0  0  0  0  0  0  0
  -25.0197  -28.3384   20.4304 C   0  0  0  0  0  0  0  0  0  0  0  0
  -28.6194  -21.0868   19.7417 C   0  0  0  0  0  0  0  0  0  0  0  0
  -22.7825  -15.6808   22.2193 C   0  0  0  0  0  0  0  0  0  0  0  0
  -26.9600  -26.9731   19.9002 C   0  0  0  0  0  0  0  0  0  0  0  0
  -22.5033  -17.0862   24.0819 C   0  0  0  0  0  0  0  0  0  0  0  0
  -23.1625  -17.7290   26.7153 C   0  0  0  0  0  0  0  0  0  0  0  0
  -21.5121  -17.1098   25.0630 C   0  0  0  0  0  0  0  0  0  0  0  0
  -24.6624  -12.3071   20.4925 C   0  0  0  0  0  0  0  0  0  0  0  0
  -25.0830  -10.4411   19.4079 C   0  0  0  0  0  0  0  0  0  0  0  0
  -29.1261  -17.9413   21.4107 C   0  0  0  0  0  0  0  0  0  0  0  0
  -27.7532  -19.6899   21.7478 C   0  0  0  0  0  0  0  0  0  0  0  0
  -29.6580  -16.7409   21.6599 C   0  0  0  0  0  0  0  0  0  0  0  0
  -31.2375  -17.7857   19.0241 C   0  0  0  0  0  0  0  0  0  0  0  0
  -31.2846  -17.0616   17.8820 C   0  0  0  0  0  0  0  0  0  0  0  0
  -22.6821  -11.1340   19.3448 C   0  0  0  0  0  0  0  0  0  0  0  0
  -24.0168  -30.2576   23.0646 C   0  0  0  0  0  0  0  0  0  0  0  0
  -21.6544  -30.1076   20.8466 C   0  0  0  0  0  0  0  0  0  0  0  0
  -20.5508  -28.8565   17.8695 C   0  0  0  0  0  0  0  0  0  0  0  0
  -30.9999  -11.2045   18.8998 C   0  0  0  0  0  0  0  0  0  0  0  0
  -25.2978  -33.2942   26.9627 C   0  0  0  0  0  0  0  0  0  0  0  0
  -25.2783  -30.7938   20.9487 C   0  0  0  0  0  0  0  0  0  0  0  0
  -23.5279  -28.4338   20.6148 C   0  0  0  0  0  0  0  0  0  0  0  0
  -29.4010  -22.3239   17.8653 C   0  0  0  0  0  0  0  0  0  0  0  0
  -27.8269  -22.3468   19.7409 C   0  0  0  0  0  0  0  0  0  0  0  0
  -24.0030  -32.9351   26.2383 C   0  0  0  0  0  0  0  0  0  0  0  0
  -29.3134   -8.9011   21.0274 C   0  0  0  0  0  0  0  0  0  0  0  0
  -23.8715  -31.4218   26.0987 C   0  0  0  0  0  0  0  0  0  0  0  0
  -27.8753   -9.4213   21.0627 C   0  0  0  0  0  0  0  0  0  0  0  0
  -30.3258  -10.0435   20.9817 C   0  0  0  0  0  0  0  0  0  0  0  0
  -28.6720  -11.5392   19.9320 C   0  0  0  0  0  0  0  0  0  0  0  0
  -25.0207  -30.8428   25.2647 C   0  0  1  0  0  0  0  0  0  0  0  0
  -23.9175  -30.7000   21.6321 C   0  0  1  0  0  0  0  0  0  0  0  0
  -27.6133  -10.4232   19.9222 C   0  0  2  0  0  0  0  0  0  0  0  0
  -18.5639  -28.8828   16.3369 C   0  0  0  0  0  0  0  0  0  0  0  0
  -20.1852  -28.2019   22.7227 C   0  0  0  0  0  0  0  0  0  0  0  0
  -18.7319  -27.5365   20.7957 C   0  0  0  0  0  0  0  0  0  0  0  0
  -18.7253  -29.8964   21.6040 C   0  0  0  0  0  0  0  0  0  0  0  0
  -25.6343  -20.9154   21.4885 C   0  0  0  0  0  0  0  0  0  0  0  0
  -26.7363  -20.7926   23.7002 C   0  0  0  0  0  0  0  0  0  0  0  0
  -22.1230  -30.0461   15.6623 C   0  0  0  0  0  0  0  0  0  0  0  0
  -32.2433  -15.9396   17.6433 C   0  0  0  0  0  0  0  0  0  0  0  0
  -31.5229  -12.4259   16.8037 C   0  0  0  0  0  0  0  0  0  0  0  0
  -27.5351  -24.0510   17.8746 C   0  0  0  0  0  0  0  0  0  0  0  0
  -32.3603  -13.6478   17.1363 C   0  0  0  0  0  0  0  0  0  0  0  0
  -26.6726  -24.8826   18.8033 C   0  0  0  0  0  0  0  0  0  1  0  0
  -20.7329  -29.0256   20.3378 C   0  0  1  0  0  0  0  0  0  0  0  0
  -19.8990  -29.5281   16.6742 C   0  0  2  0  0  0  0  0  0  0  0  0
  -19.6221  -28.6625   21.3634 C   0  0  0  0  0  0  0  0  0  0  0  0
  -25.9757  -12.1190   20.6471 N   0  0  0  0  0  0  0  0  0  0  0  0
  -26.2012  -10.9764   19.9765 N   0  0  0  0  0  0  0  0  0  0  0  0
  -23.0102  -29.7682   20.9593 N   0  0  0  0  0  0  0  0  0  0  0  0
  -30.0220  -10.9566   19.8772 N   0  0  0  0  0  0  0  0  0  0  0  0
  -28.1181  -18.4804   22.1977 N   0  3  0  0  0  0  0  0  0  0  0  0
  -25.1311   -9.2942   18.6974 N   0  0  0  0  0  0  0  0  0  0  0  0
  -21.7560  -12.1008   19.7597 N   0  0  0  0  0  0  0  0  0  0  0  0
  -24.7934  -31.0825   23.8557 N   0  0  0  0  0  0  0  0  0  0  0  0
  -20.2285  -29.4911   19.0504 N   0  0  0  0  0  0  0  0  0  0  0  0
  -30.6280  -12.0772   17.8845 N   0  0  0  0  0  0  0  0  0  0  0  0
  -26.8216  -20.4760   22.2563 N   0  0  0  0  0  0  0  0  0  0  0  0
  -28.4877  -23.2360   18.6848 N   0  3  2  0  0  0  0  0  0  0  0  0
  -20.7837  -29.4301   15.4789 N   0  3  0  0  0  0  0  0  0  0  0  0
  -22.2859  -10.1551   18.6678 O   0  0  0  0  0  0  0  0  0  0  0  0
  -23.4308  -29.2437   23.4258 O   0  0  0  0  0  0  0  0  0  0  0  0
  -21.1897  -31.2154   21.1268 O   0  0  0  0  0  0  0  0  0  0  0  0
  -21.2706  -27.8657   17.7662 O   0  0  0  0  0  0  0  0  0  0  0  0
  -32.1196  -10.6824   18.9269 O   0  0  0  0  0  0  0  0  0  0  0  0
  -22.1778  -16.7665   22.7744 O   0  0  0  0  0  0  0  0  0  0  0  0
  -27.4968  -25.7584   19.5611 O   0  0  0  0  0  0  0  0  0  1  0  0
  -31.5036  -14.7570   17.3731 O   0  0  0  0  0  0  0  0  0  0  0  0
  -23.4793  -18.0362   27.9799 F   0  0  0  0  0  0  0  0  0  0  0  0
  -20.2417  -16.8234   24.7469 F   0  0  0  0  0  0  0  0  0  0  0  0
  1  2  1  0  0  0  0
  1  3  2  0  0  0  0
  2  8  2  0  0  0  0
  3  9  1  0  0  0  0
  4  5  1  0  0  0  0
  4 10  2  0  0  0  0
  5 11  2  0  0  0  0
  6 13  2  0  0  0  0
  6 21  1  0  0  0  0
  7 14  1  0  0  0  0
  7 21  2  0  0  0  0
  8 24  1  0  0  0  0
  9 24  2  0  0  0  0
 10 27  1  0  0  0  0
 11 29  1  0  0  0  0
 12 15  2  0  0  0  0
 12 28  1  0  0  0  0
 13 33  1  0  0  0  0
 14 33  2  0  0  0  0
 15 34  1  0  0  0  0
 16 17  2  0  0  0  0
 16 35  1  0  0  0  0
 17 36  1  0  0  0  0
 18 25  2  0  0  0  0
 18 30  1  0  0  0  0
 19 31  1  0  0  0  0
 19 34  2  0  0  0  0
 20 36  2  0  0  0  0
 20 37  1  0  0  0  0
 21 38  1  0  0  0  0
 22 23  2  0  0  0  0
 22 25  1  0  0  0  0
 22 40  1  0  0  0  0
 23 32  1  0  0  0  0
 23 41  1  0  0  0  0
 24 42  1  0  0  0  0
 25 43  1  0  0  0  0
 26 38  1  0  0  0  0
 26 39  2  0  0  0  0
 26 45  1  0  0  0  0
 27 29  2  0  0  0  0
 27 50  1  0  0  0  0
 28 31  2  0  0  0  0
 28 51  1  0  0  0  0
 29 61  1  0  0  0  0
 30 32  2  0  0  0  0
 30 53  1  0  0  0  0
 31 52  1  0  0  0  0
 32 54  1  0  0  0  0
 33 97  1  0  0  0  0
 34 98  1  0  0  0  0
 35 37  2  0  0  0  0
 35 97  1  0  0  0  0
 36100  1  0  0  0  0
 37101  1  0  0  0  0
 38 79  2  0  0  0  0
 39 80  1  0  0  0  0
 39 84  1  0  0  0  0
 40 42  2  0  0  0  0
 40 83  1  0  0  0  0
 41 83  2  0  0  0  0
 41 89  1  0  0  0  0
 43 44  2  0  0  0  0
 44 71  1  0  0  0  0
 45 85  1  0  0  0  0
 45 92  2  0  0  0  0
 46 62  1  0  0  0  0
 46 86  1  0  0  0  0
 46 93  2  0  0  0  0
 47 76  1  0  0  0  0
 47 81  1  0  0  0  0
 47 94  2  0  0  0  0
 48 77  1  0  0  0  0
 48 87  1  0  0  0  0
 48 95  2  0  0  0  0
 49 82  1  0  0  0  0
 49 88  1  0  0  0  0
 49 96  2  0  0  0  0
 50 55  1  0  0  0  0
 51 62  1  0  0  0  0
 52 81  1  0  0  0  0
 53 90  1  0  0  0  0
 54 90  1  0  0  0  0
 55 57  1  0  0  0  0
 56 58  1  0  0  0  0
 56 59  1  0  0  0  0
 57 61  1  0  0  0  0
 58 63  1  0  0  0  0
 59 82  1  0  0  0  0
 60 63  1  0  0  0  0
 60 82  1  0  0  0  0
 61 86  1  0  0  0  0
 62 81  1  0  0  0  0
 63 80  1  0  0  0  0
 64 77  1  0  0  0  0
 65 78  1  0  0  0  0
 66 78  1  0  0  0  0
 67 78  1  0  0  0  0
 68 89  1  0  0  0  0
 69 89  1  0  0  0  0
 70 91  1  0  0  0  0
 71 99  1  0  0  0  0
 72 74  1  0  0  0  0
 72 88  1  0  0  0  0
 73 75  1  0  0  0  0
 73 90  1  0  0  0  0
 74 99  1  0  0  0  0
 75 98  1  0  0  0  0
 76 78  1  0  0  0  0
 76 87  1  0  0  0  0
 77 91  1  0  0  0  0
 79 80  1  0  0  0  0
M  CHG  3  83   1  90   1  91   1
M  ISO  4  49 100  75 101  88 100  98 101
M  END
> <Batch ID>
0004

> <Smiles>
CNC(C)C(=O)NC(C(=O)N1Cc2cc([101O:1][101CH2:1]CN3Cc4cc(C=CCOCC[100NH:0][100C:0](=O)N5CCCC(n6nc(-c7ccc(Oc8ccc(F)cc8F)cc7)c(C(N)=O)c6N)C5)c5c(c4C3)C(N(C)C)=NC5=Cc3ccccc3)ccc2CC1C(=O)NC1CCCc2ccccc21)C(C)(C)C

> <Shape>
0.271

> <Color>
0.059

> <Negative vol penalty>
0.000

$$$$

  -OEChem-04042320233D

 84 92  0     1  0  0  0  0  0999 V2000
  -20.3130  -23.0367   25.7475 C   0  0  0  0  0  0  0  0  0  0  0  0
  -21.3358  -22.3572   25.0936 C   0  0  0  0  0  0  0  0  0  0  0  0
  -23.0727   -9.8703   19.9418 C   0  0  0  0  0  0  0  0  0  0  0  0
  -23.8352   -9.8771   22.2343 C   0  0  0  0  0  0  0  0  0  0  0  0
  -18.9824  -22.7341   25.4612 C   0  0  0  0  0  0  0  0  0  0  0  0
  -21.0286  -21.3739   24.1538 C   0  0  0  0  0  0  0  0  0  0  0  0
  -23.8338  -21.7554   19.9550 C   0  0  0  0  0  0  0  0  0  0  0  0
  -31.5077  -18.4274   20.0495 C   0  0  0  0  0  0  0  0  0  0  0  0
  -31.2487  -19.4795   19.1712 C   0  0  0  0  0  0  0  0  0  0  0  0
  -22.3295   -8.7169   20.1924 C   0  0  0  0  0  0  0  0  0  0  0  0
  -23.0919   -8.7236   22.4850 C   0  0  0  0  0  0  0  0  0  0  0  0
  -25.1418  -21.2768   20.0174 C   0  0  0  0  0  0  0  0  0  0  0  0
  -19.9453   -5.9758   20.3231 C   0  0  0  0  0  0  0  0  0  0  0  0
  -18.6390   -5.9275   19.8363 C   0  0  0  0  0  0  0  0  0  0  0  0
  -24.4439  -19.2440   18.9221 C   0  0  0  0  0  0  0  0  0  0  0  0
  -29.2954  -18.6680   20.9902 C   0  0  0  0  0  0  0  0  0  0  0  0
  -18.0748   -7.8699   21.1575 C   0  0  0  0  0  0  0  0  0  0  0  0
  -23.8256  -10.4504   20.9628 C   0  0  0  0  0  0  0  0  0  0  0  0
  -24.1666  -12.9756   20.8428 C   0  0  0  0  0  0  0  0  0  0  0  0
  -18.6587  -21.7534   24.5105 C   0  0  0  0  0  0  0  0  0  0  0  0
  -22.8172  -20.9760   19.3845 C   0  0  0  0  0  0  0  0  0  0  0  0
  -19.6924  -21.0570   23.8556 C   0  0  0  0  0  0  0  0  0  0  0  0
  -23.1243  -19.7160   18.8513 C   0  0  0  0  0  0  0  0  0  0  0  0
  -30.5310  -18.0216   20.9590 C   0  0  0  0  0  0  0  0  0  0  0  0
  -29.0364  -19.7202   20.1119 C   0  0  0  0  0  0  0  0  0  0  0  0
  -30.0131  -20.1260   19.2024 C   0  0  0  0  0  0  0  0  0  0  0  0
  -22.3390   -8.1435   21.4640 C   0  0  0  0  0  0  0  0  0  0  0  0
  -25.4465  -20.0197   19.5036 C   0  0  0  0  0  0  0  0  0  0  0  0
  -20.3163   -6.9711   21.2272 C   0  0  0  0  0  0  0  0  0  0  0  0
  -17.7038   -6.8745   20.2534 C   0  0  0  0  0  0  0  0  0  0  0  0
  -19.3811   -7.9182   21.6443 C   0  0  0  0  0  0  0  0  0  0  0  0
  -24.5940  -11.6415   20.7044 C   0  0  0  0  0  0  0  0  0  0  0  0
  -25.2581  -13.7255   20.4785 C   0  0  0  0  0  0  0  0  0  0  0  0
  -22.8964  -13.4910   21.2633 C   0  0  0  0  0  0  0  0  0  0  0  0
  -20.1113  -19.6912   20.4479 C   0  0  0  0  0  0  0  0  0  0  0  0
  -19.7113  -18.9094   17.3252 C   0  0  0  0  0  0  0  0  0  0  0  0
  -21.1380  -18.3000   14.2855 C   0  0  0  0  0  0  0  0  0  0  0  0
  -30.7417  -14.7462   20.6607 C   0  0  0  0  0  0  0  0  0  0  0  0
  -17.2060  -21.4278   24.2690 C   0  0  0  0  0  0  0  0  0  0  0  0
  -21.4165  -21.5177   19.3007 C   0  0  0  0  0  0  0  0  0  0  0  0
  -22.0732  -18.8485   18.2102 C   0  0  0  0  0  0  0  0  0  0  0  0
  -16.9643  -20.6349   22.9872 C   0  0  0  0  0  0  0  0  0  0  0  0
  -29.6021  -12.3618   18.2748 C   0  0  0  0  0  0  0  0  0  0  0  0
  -17.9577  -19.4825   22.8770 C   0  0  0  0  0  0  0  0  0  0  0  0
  -28.1652  -12.0675   18.7093 C   0  0  0  0  0  0  0  0  0  0  0  0
  -30.5205  -12.5827   19.4747 C   0  0  0  0  0  0  0  0  0  0  0  0
  -28.6202  -13.3129   20.8636 C   0  0  0  0  0  0  0  0  0  0  0  0
  -19.3993  -20.0012   22.8118 C   0  0  1  0  0  0  0  0  0  0  0  0
  -20.3608  -20.4253   19.1609 C   0  0  1  0  0  0  0  0  0  0  0  0
  -27.6447  -13.1382   19.6870 C   0  0  2  0  0  0  0  0  0  0  0  0
  -30.2601  -20.6742   15.9880 C   0  0  0  0  0  0  0  0  0  0  0  0
  -31.5278  -22.8432   18.5260 C   0  0  0  0  0  0  0  0  0  0  0  0
  -20.5584  -17.6473   11.9327 C   0  0  0  0  0  0  0  0  0  0  0  0
  -19.2990  -16.0246   18.2297 C   0  0  0  0  0  0  0  0  0  0  0  0
  -19.6753  -15.3020   15.8623 C   0  0  0  0  0  0  0  0  0  0  0  0
  -17.7471  -16.7828   16.4211 C   0  0  0  0  0  0  0  0  0  0  0  0
  -22.2332  -20.8228   13.1925 C   0  0  0  0  0  0  0  0  0  0  0  0
  -30.8083  -16.8965   21.8979 C   0  0  0  0  0  0  0  0  0  0  0  0
  -27.6988  -20.3978   20.1671 C   0  0  0  0  0  0  0  0  0  1  0  0
  -29.1963  -20.9295   17.0007 C   0  0  0  0  0  0  0  0  0  0  0  0
  -30.0743  -22.5530   18.6865 C   0  0  0  0  0  0  0  0  0  0  0  0
  -20.0904  -17.7310   16.4611 C   0  0  1  0  0  0  0  0  0  0  0  0
  -20.7967  -18.8014   12.8939 C   0  0  2  0  0  0  0  0  0  0  0  0
  -19.2226  -16.4754   16.7573 C   0  0  0  0  0  0  0  0  0  0  0  0
  -25.8585  -11.5462   20.2846 N   0  0  0  0  0  0  0  0  0  0  0  0
  -26.2348  -12.8299   20.1561 N   0  0  0  0  0  0  0  0  0  0  0  0
  -20.7173  -19.4198   18.1579 N   0  0  0  0  0  0  0  0  0  0  0  0
  -29.9707  -13.6108   20.3615 N   0  0  0  0  0  0  0  0  0  0  0  0
  -25.4680  -15.0571   20.4054 N   0  0  0  0  0  0  0  0  0  0  0  0
  -21.8851  -12.5815   21.6016 N   0  0  0  0  0  0  0  0  0  0  0  0
  -19.6967  -20.5022   21.4870 N   0  0  0  0  0  0  0  0  0  0  0  0
  -20.0161  -18.1966   15.0805 N   0  0  0  0  0  0  0  0  0  0  0  0
  -30.1432  -15.6747   21.5036 N   0  0  0  0  0  0  0  0  0  0  0  0
  -29.7685  -21.1892   18.3057 N   0  0  0  0  0  0  0  0  0  0  0  0
  -21.9076  -19.6378   12.3578 N   0  3  0  0  0  0  0  0  0  0  0  0
  -22.6598  -14.7215   21.3212 O   0  0  0  0  0  0  0  0  0  0  0  0
  -20.2809  -18.4784   20.4944 O   0  0  0  0  0  0  0  0  0  0  0  0
  -18.5669  -19.3649   17.2585 O   0  0  0  0  0  0  0  0  0  0  0  0
  -22.2845  -18.0238   14.6314 O   0  0  0  0  0  0  0  0  0  0  0  0
  -31.8771  -14.9221   20.2058 O   0  0  0  0  0  0  0  0  0  0  0  0
  -21.6137   -7.0182   21.7090 O   0  0  0  0  0  0  0  0  0  0  0  0
  -26.7222  -19.5499   19.5638 O   0  0  0  0  0  0  0  0  0  1  0  0
  -16.4499   -6.8289   19.7847 F   0  0  0  0  0  0  0  0  0  0  0  0
  -19.7319   -8.8775   22.5118 F   0  0  0  0  0  0  0  0  0  0  0  0
  1  2  1  0  0  0  0
  1  5  2  0  0  0  0
  2  6  2  0  0  0  0
  3 10  2  0  0  0  0
  3 18  1  0  0  0  0
  4 11  1  0  0  0  0
  4 18  2  0  0  0  0
  5 20  1  0  0  0  0
  6 22  1  0  0  0  0
  7 12  2  0  0  0  0
  7 21  1  0  0  0  0
  8  9  2  0  0  0  0
  8 24  1  0  0  0  0
  9 26  1  0  0  0  0
 10 27  1  0  0  0  0
 11 27  2  0  0  0  0
 12 28  1  0  0  0  0
 13 14  2  0  0  0  0
 13 29  1  0  0  0  0
 14 30  1  0  0  0  0
 15 23  1  0  0  0  0
 15 28  2  0  0  0  0
 16 24  2  0  0  0  0
 16 25  1  0  0  0  0
 17 30  2  0  0  0  0
 17 31  1  0  0  0  0
 18 32  1  0  0  0  0
 19 32  1  0  0  0  0
 19 33  2  0  0  0  0
 19 34  1  0  0  0  0
 20 22  2  0  0  0  0
 20 39  1  0  0  0  0
 21 23  2  0  0  0  0
 21 40  1  0  0  0  0
 22 48  1  0  0  0  0
 23 41  1  0  0  0  0
 24 58  1  0  0  0  0
 25 26  2  0  0  0  0
 25 59  1  0  0  0  0
 26 74  1  0  0  0  0
 27 81  1  0  0  0  0
 28 82  1  0  0  0  0
 29 31  2  0  0  0  0
 29 81  1  0  0  0  0
 30 83  1  0  0  0  0
 31 84  1  0  0  0  0
 32 65  2  0  0  0  0
 33 66  1  0  0  0  0
 33 69  1  0  0  0  0
 34 70  1  0  0  0  0
 34 76  2  0  0  0  0
 35 49  1  0  0  0  0
 35 71  1  0  0  0  0
 35 77  2  0  0  0  0
 36 62  1  0  0  0  0
 36 67  1  0  0  0  0
 36 78  2  0  0  0  0
 37 63  1  0  0  0  0
 37 72  1  0  0  0  0
 37 79  2  0  0  0  0
 38 68  1  0  0  0  0
 38 73  1  0  0  0  0
 38 80  2  0  0  0  0
 39 42  1  0  0  0  0
 40 49  1  0  0  0  0
 41 67  1  0  0  0  0
 42 44  1  0  0  0  0
 43 45  1  0  0  0  0
 43 46  1  0  0  0  0
 44 48  1  0  0  0  0
 45 50  1  0  0  0  0
 46 68  1  0  0  0  0
 47 50  1  0  0  0  0
 47 68  1  0  0  0  0
 48 71  1  0  0  0  0
 49 67  1  0  0  0  0
 50 66  1  0  0  0  0
 51 60  1  0  0  0  0
 52 61  1  0  0  0  0
 53 63  1  0  0  0  0
 54 64  1  0  0  0  0
 55 64  1  0  0  0  0
 56 64  1  0  0  0  0
 57 75  1  0  0  0  0
 58 73  1  0  0  0  0
 59 82  1  0  0  0  0
 60 74  1  0  0  0  0
 61 74  1  0  0  0  0
 62 64  1  0  0  0  0
 62 72  1  0  0  0  0
 63 75  1  0  0  0  0
 65 66  1  0  0  0  0
M  CHG  1  75   1
M  ISO  4  38 100  59 101  73 100  82 101
M  END
> <Batch ID>
0004

> <Smiles>
CCN(CC)c1ccc(C[100NH:0][100C:0](=O)N2CCCC(n3nc(-c4ccc(Oc5ccc(F)cc5F)cc4)c(C(N)=O)c3N)C2)cc1[101CH2:1][101O:1]c1ccc2c(c1)CN(C(=O)C(NC(=O)C(C)NC)C(C)(C)C)C(C(=O)NC1CCCc3ccccc31)C2

> <Shape>
0.186

> <Color>
0.200

> <Negative vol penalty>
0.000

$$$$

  -OEChem-04042320233D

 81 89  0     1  0  0  0  0  0999 V2000
  -18.6094  -31.8389   26.2255 C   0  0  0  0  0  0  0  0  0  0  0  0
  -19.9562  -31.5121   26.3471 C   0  0  0  0  0  0  0  0  0  0  0  0
  -24.7318  -10.0331   22.2908 C   0  0  0  0  0  0  0  0  0  0  0  0
  -24.7804  -11.5341   24.1834 C   0  0  0  0  0  0  0  0  0  0  0  0
  -17.8572  -31.3112   25.1769 C   0  0  0  0  0  0  0  0  0  0  0  0
  -20.5513  -30.6564   25.4208 C   0  0  0  0  0  0  0  0  0  0  0  0
  -26.8064  -29.4594   22.1410 C   0  0  0  0  0  0  0  0  0  0  0  0
  -29.5892  -20.3801   20.7541 C   0  0  0  0  0  0  0  0  0  0  0  0
  -29.5462  -21.7518   21.0035 C   0  0  0  0  0  0  0  0  0  0  0  0
  -24.4181   -8.9722   23.1402 C   0  0  0  0  0  0  0  0  0  0  0  0
  -24.4667  -10.4731   25.0328 C   0  0  0  0  0  0  0  0  0  0  0  0
  -27.7172  -28.4316   21.9007 C   0  0  0  0  0  0  0  0  0  0  0  0
  -23.2494   -5.9374   24.7648 C   0  0  0  0  0  0  0  0  0  0  0  0
  -22.2363   -5.0653   24.3663 C   0  0  0  0  0  0  0  0  0  0  0  0
  -26.3390  -27.6429   20.0848 C   0  0  0  0  0  0  0  0  0  0  0  0
  -27.1745  -20.3121   20.7115 C   0  0  0  0  0  0  0  0  0  0  0  0
  -20.6687   -6.9034   24.3289 C   0  0  0  0  0  0  0  0  0  0  0  0
  -24.9131  -11.3141   22.8124 C   0  0  0  0  0  0  0  0  0  0  0  0
  -24.3362  -13.2688   21.2781 C   0  0  0  0  0  0  0  0  0  0  0  0
  -18.4457  -30.4563   24.2317 C   0  0  0  0  0  0  0  0  0  0  0  0
  -25.6476  -29.5804   21.3606 C   0  0  0  0  0  0  0  0  0  0  0  0
  -19.8059  -30.1157   24.3593 C   0  0  0  0  0  0  0  0  0  0  0  0
  -25.4163  -28.6747   20.3155 C   0  0  0  0  0  0  0  0  0  0  0  0
  -27.1315  -21.6839   20.9609 C   0  0  0  0  0  0  0  0  0  0  0  0
  -28.4033  -19.6603   20.6081 C   0  0  0  0  0  0  0  0  0  0  0  0
  -28.3174  -22.4037   21.1069 C   0  0  0  0  0  0  0  0  0  0  0  0
  -24.2855   -9.1922   24.5112 C   0  0  0  0  0  0  0  0  0  0  0  0
  -27.4821  -27.5214   20.8744 C   0  0  0  0  0  0  0  0  0  0  0  0
  -22.9721   -7.2925   24.9454 C   0  0  0  0  0  0  0  0  0  0  0  0
  -20.9460   -5.5483   24.1483 C   0  0  0  0  0  0  0  0  0  0  0  0
  -21.6818   -7.7755   24.7275 C   0  0  0  0  0  0  0  0  0  0  0  0
  -25.2377  -12.4104   21.9355 C   0  0  0  0  0  0  0  0  0  0  0  0
  -25.1375  -14.1333   20.5730 C   0  0  0  0  0  0  0  0  0  0  0  0
  -22.9028  -13.2836   21.3027 C   0  0  0  0  0  0  0  0  0  0  0  0
  -22.5258  -29.4578   21.9465 C   0  0  0  0  0  0  0  0  0  0  0  0
  -22.3020  -30.3231   18.8282 C   0  0  0  0  0  0  0  0  0  0  0  0
  -23.7394  -30.4055   15.7340 C   0  0  0  0  0  0  0  0  0  0  0  0
  -29.5831  -17.4677   20.2247 C   0  0  0  0  0  0  0  0  0  0  0  0
  -17.5807  -29.8729   23.1426 C   0  0  0  0  0  0  0  0  0  0  0  0
  -24.6884  -30.7107   21.6153 C   0  0  0  0  0  0  0  0  0  0  0  0
  -24.1976  -28.7731   19.4360 C   0  0  0  0  0  0  0  0  0  0  0  0
  -18.3779  -29.2715   21.9881 C   0  0  0  0  0  0  0  0  0  0  0  0
  -30.1104  -13.9956   19.6386 C   0  0  0  0  0  0  0  0  0  0  0  0
  -19.5060  -28.3926   22.5191 C   0  0  0  0  0  0  0  0  0  0  0  0
  -28.8155  -13.3442   20.1299 C   0  0  0  0  0  0  0  0  0  0  0  0
  -30.5151  -15.1820   20.5116 C   0  0  0  0  0  0  0  0  0  0  0  0
  -28.1761  -15.5453   21.1944 C   0  0  0  0  0  0  0  0  0  0  0  0
  -20.4933  -29.2106   23.3602 C   0  0  1  0  0  0  0  0  0  0  0  0
  -23.2836  -30.4321   21.0896 C   0  0  1  0  0  0  0  0  0  0  0  0
  -27.6933  -14.3856   20.3081 C   0  0  2  0  0  0  0  0  0  0  0  0
  -25.8017  -22.3567   21.0681 C   0  0  0  0  0  0  0  0  0  0  0  0
  -23.2984  -31.1425   13.3761 C   0  0  0  0  0  0  0  0  0  0  0  0
  -20.4676  -27.9189   18.4224 C   0  0  0  0  0  0  0  0  0  0  0  0
  -20.8309  -28.1460   15.9557 C   0  0  0  0  0  0  0  0  0  0  0  0
  -19.7452  -29.9952   17.2302 C   0  0  0  0  0  0  0  0  0  0  0  0
  -26.0321  -32.2767   15.7671 C   0  0  0  0  0  0  0  0  0  0  0  0
  -29.4820  -24.5721   21.5157 C   0  0  0  0  0  0  0  0  0  0  0  0
  -29.1060  -26.0245   21.7567 C   0  0  0  0  0  0  0  0  0  1  0  0
  -22.2229  -29.5811   17.5159 C   0  0  1  0  0  0  0  0  0  0  0  0
  -23.8902  -31.5278   14.7230 C   0  0  2  0  0  0  0  0  0  0  0  0
  -20.8387  -28.9070   17.2987 C   0  0  0  0  0  0  0  0  0  0  0  0
  -26.5140  -12.7028   21.6714 N   0  0  0  0  0  0  0  0  0  0  0  0
  -26.4202  -13.7546   20.8402 N   0  0  0  0  0  0  0  0  0  0  0  0
  -23.2863  -29.8917   19.7287 N   0  0  0  0  0  0  0  0  0  0  0  0
  -29.4041  -16.1287   20.6320 N   0  0  0  0  0  0  0  0  0  0  0  0
  -24.8629  -15.1728   19.7566 N   0  0  0  0  0  0  0  0  0  0  0  0
  -22.2380  -12.3247   22.0792 N   0  0  0  0  0  0  0  0  0  0  0  0
  -28.4478  -18.2667   20.3554 N   0  0  0  0  0  0  0  0  0  0  0  0
  -28.2935  -23.7662   21.3545 N   0  0  0  0  0  0  0  0  0  0  0  0
  -21.3729  -29.9770   22.5038 N   0  0  0  0  0  0  0  0  0  0  0  0
  -22.5884  -30.5422   16.4809 N   0  0  0  0  0  0  0  0  0  0  0  0
  -25.3301  -31.8580   14.5266 N   0  3  0  0  0  0  0  0  0  0  0  0
  -22.2310  -14.1118   20.6422 O   0  0  0  0  0  0  0  0  0  0  0  0
  -22.9546  -28.3188   22.0900 O   0  0  0  0  0  0  0  0  0  0  0  0
  -21.5240  -31.2558   19.0434 O   0  0  0  0  0  0  0  0  0  0  0  0
  -24.5586  -29.4964   15.8472 O   0  0  0  0  0  0  0  0  0  0  0  0
  -30.6560  -17.8687   19.7664 O   0  0  0  0  0  0  0  0  0  0  0  0
  -23.9791   -8.1572   25.3403 O   0  0  0  0  0  0  0  0  0  0  0  0
  -28.3692  -26.5168   20.6381 O   0  0  0  0  0  0  0  0  0  1  0  0
  -19.9737   -4.7110   23.7641 F   0  0  0  0  0  0  0  0  0  0  0  0
  -21.4096   -9.0765   24.8983 F   0  0  0  0  0  0  0  0  0  0  0  0
  1  2  1  0  0  0  0
  1  5  2  0  0  0  0
  2  6  2  0  0  0  0
  3 10  2  0  0  0  0
  3 18  1  0  0  0  0
  4 11  1  0  0  0  0
  4 18  2  0  0  0  0
  5 20  1  0  0  0  0
  6 22  1  0  0  0  0
  7 12  2  0  0  0  0
  7 21  1  0  0  0  0
  8  9  2  0  0  0  0
  8 25  1  0  0  0  0
  9 26  1  0  0  0  0
 10 27  1  0  0  0  0
 11 27  2  0  0  0  0
 12 28  1  0  0  0  0
 13 14  2  0  0  0  0
 13 29  1  0  0  0  0
 14 30  1  0  0  0  0
 15 23  1  0  0  0  0
 15 28  2  0  0  0  0
 16 24  1  0  0  0  0
 16 25  2  0  0  0  0
 17 30  2  0  0  0  0
 17 31  1  0  0  0  0
 18 32  1  0  0  0  0
 19 32  1  0  0  0  0
 19 33  2  0  0  0  0
 19 34  1  0  0  0  0
 20 22  2  0  0  0  0
 20 39  1  0  0  0  0
 21 23  2  0  0  0  0
 21 40  1  0  0  0  0
 22 48  1  0  0  0  0
 23 41  1  0  0  0  0
 24 26  2  0  0  0  0
 24 51  1  0  0  0  0
 25 68  1  0  0  0  0
 26 69  1  0  0  0  0
 27 78  1  0  0  0  0
 28 79  1  0  0  0  0
 29 31  2  0  0  0  0
 29 78  1  0  0  0  0
 30 80  1  0  0  0  0
 31 81  1  0  0  0  0
 32 62  2  0  0  0  0
 33 63  1  0  0  0  0
 33 66  1  0  0  0  0
 34 67  1  0  0  0  0
 34 73  2  0  0  0  0
 35 49  1  0  0  0  0
 35 70  1  0  0  0  0
 35 74  2  0  0  0  0
 36 59  1  0  0  0  0
 36 64  1  0  0  0  0
 36 75  2  0  0  0  0
 37 60  1  0  0  0  0
 37 71  1  0  0  0  0
 37 76  2  0  0  0  0
 38 65  1  0  0  0  0
 38 68  1  0  0  0  0
 38 77  2  0  0  0  0
 39 42  1  0  0  0  0
 40 49  1  0  0  0  0
 41 64  1  0  0  0  0
 42 44  1  0  0  0  0
 43 45  1  0  0  0  0
 43 46  1  0  0  0  0
 44 48  1  0  0  0  0
 45 50  1  0  0  0  0
 46 65  1  0  0  0  0
 47 50  1  0  0  0  0
 47 65  1  0  0  0  0
 48 70  1  0  0  0  0
 49 64  1  0  0  0  0
 50 63  1  0  0  0  0
 52 60  1  0  0  0  0
 53 61  1  0  0  0  0
 54 61  1  0  0  0  0
 55 61  1  0  0  0  0
 56 72  1  0  0  0  0
 57 58  1  0  0  0  0
 57 69  1  0  0  0  0
 58 79  1  0  0  0  0
 59 61  1  0  0  0  0
 59 71  1  0  0  0  0
 60 72  1  0  0  0  0
 62 63  1  0  0  0  0
M  CHG  1  72   1
M  ISO  4  38 100  58 101  68 100  79 101
M  END
> <Batch ID>
0004

> <Smiles>
CNC(C)C(=O)NC(C(=O)N1Cc2cc([101O:1][101CH2:1]CNc3ccc([100NH:0][100C:0](=O)N4CCCC(n5nc(-c6ccc(Oc7ccc(F)cc7F)cc6)c(C(N)=O)c5N)C4)cc3C)ccc2CC1C(=O)NC1CCCc2ccccc21)C(C)(C)C

> <Shape>
0.285

> <Color>
0.136

> <Negative vol penalty>
0.000

$$$$

  -OEChem-04042320233D

 82 90  0     1  0  0  0  0  0999 V2000
  -27.5095  -23.4483   18.3293 C   0  0  0  0  0  0  0  0  0  0  0  0
  -26.4307  -23.7745   19.1449 C   0  0  0  0  0  0  0  0  0  0  0  0
  -26.7034  -13.1660   20.0642 C   0  0  0  0  0  0  0  0  0  0  0  0
  -24.6179  -13.6471   21.1851 C   0  0  0  0  0  0  0  0  0  0  0  0
  -28.7371  -24.0835   18.5119 C   0  0  0  0  0  0  0  0  0  0  0  0
  -26.5792  -24.7354   20.1444 C   0  0  0  0  0  0  0  0  0  0  0  0
  -22.7120  -28.0017   20.2892 C   0  0  0  0  0  0  0  0  0  0  0  0
  -22.4256  -21.8347   25.2404 C   0  0  0  0  0  0  0  0  0  0  0  0
  -24.0597  -23.6104   25.1229 C   0  0  0  0  0  0  0  0  0  0  0  0
  -23.4201  -20.9003   24.9517 C   0  0  0  0  0  0  0  0  0  0  0  0
  -25.0543  -22.6759   24.8342 C   0  0  0  0  0  0  0  0  0  0  0  0
  -26.5356  -11.8080   20.3347 C   0  0  0  0  0  0  0  0  0  0  0  0
  -24.4501  -12.2891   21.4556 C   0  0  0  0  0  0  0  0  0  0  0  0
  -21.5331  -27.5664   20.8930 C   0  0  0  0  0  0  0  0  0  0  0  0
  -23.4360   -9.5267   19.7939 C   0  0  0  0  0  0  0  0  0  0  0  0
  -22.1756   -8.9735   19.5685 C   0  0  0  0  0  0  0  0  0  0  0  0
  -22.1310  -28.7564   22.9044 C   0  0  0  0  0  0  0  0  0  0  0  0
  -22.0301   -8.3551   21.8995 C   0  0  0  0  0  0  0  0  0  0  0  0
  -25.7446  -14.0856   20.4894 C   0  0  0  0  0  0  0  0  0  0  0  0
  -25.4697  -16.1916   19.0762 C   0  0  0  0  0  0  0  0  0  0  0  0
  -28.8981  -25.0597   19.5079 C   0  0  0  0  0  0  0  0  0  0  0  0
  -23.6160  -28.8101   20.9934 C   0  0  0  0  0  0  0  0  0  0  0  0
  -27.8105  -25.3834   20.3414 C   0  0  0  0  0  0  0  0  0  0  0  0
  -23.3194  -29.2027   22.3064 C   0  0  0  0  0  0  0  0  0  0  0  0
  -22.7454  -23.1898   25.3260 C   0  0  0  0  0  0  0  0  0  0  0  0
  -24.7344  -21.3209   24.7486 C   0  0  0  0  0  0  0  0  0  0  0  0
  -25.4089  -11.3695   21.0304 C   0  0  0  0  0  0  0  0  0  0  0  0
  -21.2439  -27.9413   22.2017 C   0  0  0  0  0  0  0  0  0  0  0  0
  -23.9936   -9.4941   21.0721 C   0  0  0  0  0  0  0  0  0  0  0  0
  -21.4726   -8.3877   20.6213 C   0  0  0  0  0  0  0  0  0  0  0  0
  -23.2906   -8.9083   22.1249 C   0  0  0  0  0  0  0  0  0  0  0  0
  -25.9176  -15.4886   20.2107 C   0  0  0  0  0  0  0  0  0  0  0  0
  -25.8813  -17.4846   19.2888 C   0  0  0  0  0  0  0  0  0  0  0  0
  -24.7463  -15.7181   17.9325 C   0  0  0  0  0  0  0  0  0  0  0  0
  -26.6362  -28.5031   21.9354 C   0  0  0  0  0  0  0  0  0  0  0  0
  -26.2561  -31.5919   22.8504 C   0  0  0  0  0  0  0  0  0  0  0  0
  -24.1337  -34.0998   23.7739 C   0  0  0  0  0  0  0  0  0  0  0  0
  -27.0977  -20.6217   24.2268 C   0  0  0  0  0  0  0  0  0  0  0  0
  -30.2572  -25.6851   19.6984 C   0  0  0  0  0  0  0  0  0  0  0  0
  -24.8705  -29.2933   20.3187 C   0  0  0  0  0  0  0  0  0  0  0  0
  -24.2471  -30.0860   23.0986 C   0  0  0  0  0  0  0  0  0  0  0  0
  -30.2285  -26.9616   20.5350 C   0  0  0  0  0  0  0  0  0  0  0  0
  -29.2987  -20.0119   21.4953 C   0  0  0  0  0  0  0  0  0  0  0  0
  -29.3793  -26.7608   21.7861 C   0  0  0  0  0  0  0  0  0  0  0  0
  -28.6375  -18.8507   20.7493 C   0  0  0  0  0  0  0  0  0  0  0  0
  -29.1330  -19.8815   23.0084 C   0  0  0  0  0  0  0  0  0  0  0  0
  -27.0894  -18.5359   22.7219 C   0  0  0  0  0  0  0  0  0  0  0  0
  -27.9254  -26.4383   21.4202 C   0  0  1  0  0  0  0  0  0  0  0  0
  -25.9645  -29.6902   21.3052 C   0  0  1  0  0  0  0  0  0  0  0  0
  -27.1738  -18.6572   21.1916 C   0  0  2  0  0  0  0  0  0  0  0  0
  -24.1204  -36.5023   24.4985 C   0  0  0  0  0  0  0  0  0  0  0  0
  -27.2219  -30.7588   25.6223 C   0  0  0  0  0  0  0  0  0  0  0  0
  -26.2991  -32.9087   26.5136 C   0  0  0  0  0  0  0  0  0  0  0  0
  -28.1267  -32.9465   24.8163 C   0  0  0  0  0  0  0  0  0  0  0  0
  -22.5048  -34.9150   21.4413 C   0  0  0  0  0  0  0  0  0  0  0  0
  -21.6755  -24.1948   25.6366 C   0  0  0  0  0  0  0  0  0  0  0  0
  -18.8144  -25.6288   23.5345 C   0  0  0  0  0  0  0  0  0  0  0  0
  -19.6683  -25.4051   24.7735 C   0  0  0  0  0  0  0  0  0  0  0  0
  -19.5731  -26.2574   22.3722 C   0  0  0  0  0  0  0  0  0  1  0  0
  -25.7914  -32.2848   24.1086 C   0  0  1  0  0  0  0  0  0  0  0  0
  -24.0242  -35.5446   23.3211 C   0  0  2  0  0  0  0  0  0  0  0  0
  -26.8430  -32.2064   25.2512 C   0  0  0  0  0  0  0  0  0  0  0  0
  -26.5643  -16.2703   21.0795 N   0  0  0  0  0  0  0  0  0  0  0  0
  -26.5259  -17.4777   20.4908 N   0  0  0  0  0  0  0  0  0  0  0  0
  -25.4641  -30.5274   22.3974 N   0  0  0  0  0  0  0  0  0  0  0  0
  -27.7206  -19.7054   23.3532 N   0  0  0  0  0  0  0  0  0  0  0  0
  -25.7512  -18.6154   18.5630 N   0  0  0  0  0  0  0  0  0  0  0  0
  -24.4027  -14.3605   17.8743 N   0  0  0  0  0  0  0  0  0  0  0  0
  -25.7450  -20.3719   24.4556 N   0  0  0  0  0  0  0  0  0  0  0  0
  -27.2239  -27.6420   21.0285 N   0  0  0  0  0  0  0  0  0  0  0  0
  -25.4339  -33.6441   23.7178 N   0  0  0  0  0  0  0  0  0  0  0  0
  -22.7224  -35.7746   22.6332 N   0  3  0  0  0  0  0  0  0  0  0  0
  -20.7751  -24.4642   24.4815 N   0  3  0  0  0  0  0  0  0  0  0  0
  -24.4287  -16.4730   16.9824 O   0  0  0  0  0  0  0  0  0  0  0  0
  -26.6236  -28.3785   23.1545 O   0  0  0  0  0  0  0  0  0  0  0  0
  -27.2801  -31.9855   22.2863 O   0  0  0  0  0  0  0  0  0  0  0  0
  -23.1635  -33.4424   24.1441 O   0  0  0  0  0  0  0  0  0  0  0  0
  -27.7119  -21.5747   24.7132 O   0  0  0  0  0  0  0  0  0  0  0  0
  -25.2447  -10.0444   21.2944 O   0  0  0  0  0  0  0  0  0  0  0  0
  -20.0942  -27.5173   22.7937 O   0  0  0  0  0  0  0  0  0  1  0  0
  -20.2616   -7.8579   20.4050 F   0  0  0  0  0  0  0  0  0  0  0  0
  -23.8206   -8.8750   23.3553 F   0  0  0  0  0  0  0  0  0  0  0  0
  1  2  1  0  0  0  0
  1  5  2  0  0  0  0
  2  6  2  0  0  0  0
  3 12  2  0  0  0  0
  3 19  1  0  0  0  0
  4 13  1  0  0  0  0
  4 19  2  0  0  0  0
  5 21  1  0  0  0  0
  6 23  1  0  0  0  0
  7 14  2  0  0  0  0
  7 22  1  0  0  0  0
  8 10  2  0  0  0  0
  8 25  1  0  0  0  0
  9 11  1  0  0  0  0
  9 25  2  0  0  0  0
 10 26  1  0  0  0  0
 11 26  2  0  0  0  0
 12 27  1  0  0  0  0
 13 27  2  0  0  0  0
 14 28  1  0  0  0  0
 15 16  2  0  0  0  0
 15 29  1  0  0  0  0
 16 30  1  0  0  0  0
 17 24  1  0  0  0  0
 17 28  2  0  0  0  0
 18 30  2  0  0  0  0
 18 31  1  0  0  0  0
 19 32  1  0  0  0  0
 20 32  1  0  0  0  0
 20 33  2  0  0  0  0
 20 34  1  0  0  0  0
 21 23  2  0  0  0  0
 21 39  1  0  0  0  0
 22 24  2  0  0  0  0
 22 40  1  0  0  0  0
 23 48  1  0  0  0  0
 24 41  1  0  0  0  0
 25 56  1  0  0  0  0
 26 69  1  0  0  0  0
 27 79  1  0  0  0  0
 28 80  1  0  0  0  0
 29 31  2  0  0  0  0
 29 79  1  0  0  0  0
 30 81  1  0  0  0  0
 31 82  1  0  0  0  0
 32 63  2  0  0  0  0
 33 64  1  0  0  0  0
 33 67  1  0  0  0  0
 34 68  1  0  0  0  0
 34 74  2  0  0  0  0
 35 49  1  0  0  0  0
 35 70  1  0  0  0  0
 35 75  2  0  0  0  0
 36 60  1  0  0  0  0
 36 65  1  0  0  0  0
 36 76  2  0  0  0  0
 37 61  1  0  0  0  0
 37 71  1  0  0  0  0
 37 77  2  0  0  0  0
 38 66  1  0  0  0  0
 38 69  1  0  0  0  0
 38 78  2  0  0  0  0
 39 42  1  0  0  0  0
 40 49  1  0  0  0  0
 41 65  1  0  0  0  0
 42 44  1  0  0  0  0
 43 45  1  0  0  0  0
 43 46  1  0  0  0  0
 44 48  1  0  0  0  0
 45 50  1  0  0  0  0
 46 66  1  0  0  0  0
 47 50  1  0  0  0  0
 47 66  1  0  0  0  0
 48 70  1  0  0  0  0
 49 65  1  0  0  0  0
 50 64  1  0  0  0  0
 51 61  1  0  0  0  0
 52 62  1  0  0  0  0
 53 62  1  0  0  0  0
 54 62  1  0  0  0  0
 55 72  1  0  0  0  0
 56 73  1  0  0  0  0
 57 58  1  0  0  0  0
 57 59  1  0  0  0  0
 58 73  1  0  0  0  0
 59 80  1  0  0  0  0
 60 62  1  0  0  0  0
 60 71  1  0  0  0  0
 61 72  1  0  0  0  0
 63 64  1  0  0  0  0
M  CHG  2  72   1  73   1
M  ISO  4  38 100  59 101  69 100  80 101
M  END
> <Batch ID>
0004

> <Smiles>
CNC(C)C(=O)NC(C(=O)N1Cc2cc([101O:1][101CH2:1]CCNCc3ccc([100NH:0][100C:0](=O)N4CCCC(n5nc(-c6ccc(Oc7ccc(F)cc7F)cc6)c(C(N)=O)c5N)C4)cc3)ccc2CC1C(=O)NC1CCCc2ccccc21)C(C)(C)C

> <Shape>
0.281

> <Color>
0.063

> <Negative vol penalty>
0.000

$$$$

  -OEChem-04042320233D

103112  0     1  0  0  0  0  0999 V2000
  -29.2642  -32.5027   26.0342 C   0  0  0  0  0  0  0  0  0  0  0  0
  -28.9897  -31.2853   25.4194 C   0  0  0  0  0  0  0  0  0  0  0  0
  -37.0106  -15.2125   11.5221 C   0  0  0  0  0  0  0  0  0  0  0  0
  -26.1893  -14.9423   20.3591 C   0  0  0  0  0  0  0  0  0  0  0  0
  -24.1891  -14.3566   19.1370 C   0  0  0  0  0  0  0  0  0  0  0  0
  -36.6552  -16.4747   11.0468 C   0  0  0  0  0  0  0  0  0  0  0  0
  -27.1866  -20.8962   20.8372 C   0  0  0  0  0  0  0  0  0  0  0  0
  -27.6178  -21.3572   18.5051 C   0  0  0  0  0  0  0  0  0  0  0  0
  -28.2242  -33.3826   26.3311 C   0  0  0  0  0  0  0  0  0  0  0  0
  -27.6747  -30.9466   25.1021 C   0  0  0  0  0  0  0  0  0  0  0  0
  -27.2398  -28.9952   20.4494 C   0  0  0  0  0  0  0  0  0  0  0  0
  -36.0259  -14.3370   11.9802 C   0  0  0  0  0  0  0  0  0  0  0  0
  -26.6284  -22.1659   20.9850 C   0  0  0  0  0  0  0  0  0  0  0  0
  -27.0596  -22.6269   18.6529 C   0  0  0  0  0  0  0  0  0  0  0  0
  -26.4051  -13.5957   20.6513 C   0  0  0  0  0  0  0  0  0  0  0  0
  -24.4050  -13.0099   19.4293 C   0  0  0  0  0  0  0  0  0  0  0  0
  -27.6161  -27.6635   20.2797 C   0  0  0  0  0  0  0  0  0  0  0  0
  -24.2320   -9.4530   20.1566 C   0  0  0  0  0  0  0  0  0  0  0  0
  -23.1382   -8.6980   20.5797 C   0  0  0  0  0  0  0  0  0  0  0  0
  -34.3305  -15.9862   11.4876 C   0  0  0  0  0  0  0  0  0  0  0  0
  -25.2979  -27.0028   20.3725 C   0  0  0  0  0  0  0  0  0  0  0  0
  -22.8557  -10.1692   22.4752 C   0  0  0  0  0  0  0  0  0  0  0  0
  -25.0812  -15.3228   19.6020 C   0  0  0  0  0  0  0  0  0  0  0  0
  -27.6813  -20.4918   19.5972 C   0  0  0  0  0  0  0  0  0  0  0  0
  -35.3151  -16.8616   11.0295 C   0  0  0  0  0  0  0  0  0  0  0  0
  -24.6657  -17.7629   20.2192 C   0  0  0  0  0  0  0  0  0  0  0  0
  -26.8969  -33.0586   26.0086 C   0  0  0  0  0  0  0  0  0  0  0  0
  -25.8881  -29.3401   20.5931 C   0  0  0  0  0  0  0  0  0  0  0  0
  -26.6159  -31.8223   25.3963 C   0  0  0  0  0  0  0  0  0  0  0  0
  -24.9068  -28.3399   20.5413 C   0  0  0  0  0  0  0  0  0  0  0  0
  -26.5649  -23.0313   19.8929 C   0  0  0  0  0  0  0  0  0  0  0  0
  -34.6859  -14.7239   11.9629 C   0  0  0  0  0  0  0  0  0  0  0  0
  -25.5130  -12.6294   20.1864 C   0  0  0  0  0  0  0  0  0  0  0  0
  -26.6454  -26.6668   20.2441 C   0  0  0  0  0  0  0  0  0  0  0  0
  -24.6378  -10.5661   20.8929 C   0  0  0  0  0  0  0  0  0  0  0  0
  -22.4500   -9.0561   21.7389 C   0  0  0  0  0  0  0  0  0  0  0  0
  -23.9496  -10.9242   22.0522 C   0  0  0  0  0  0  0  0  0  0  0  0
  -24.8574  -16.7139   19.3002 C   0  0  0  0  0  0  0  0  0  0  0  0
  -24.4971  -18.8787   19.4363 C   0  0  0  0  0  0  0  0  0  0  0  0
  -28.2631  -19.1679   19.4418 C   0  0  0  0  0  0  0  0  0  0  0  0
  -34.9449  -18.1775   10.5333 C   0  0  0  0  0  0  0  0  0  0  0  0
  -24.6423  -17.7316   21.6524 C   0  0  0  0  0  0  0  0  0  0  0  0
  -24.1521  -30.7043   22.8798 C   0  0  0  0  0  0  0  0  0  0  0  0
  -21.8140  -30.5880   20.6343 C   0  0  0  0  0  0  0  0  0  0  0  0
  -20.5780  -29.1207   17.8119 C   0  0  0  0  0  0  0  0  0  0  0  0
  -26.2522  -20.2659   13.8823 C   0  0  0  0  0  0  0  0  0  0  0  0
  -25.8010  -34.0213   26.3920 C   0  0  0  0  0  0  0  0  0  0  0  0
  -25.4966  -30.7840   20.7486 C   0  0  0  0  0  0  0  0  0  0  0  0
  -23.4408  -28.6599   20.6705 C   0  0  0  0  0  0  0  0  0  0  0  0
  -24.4764  -33.7497   25.6837 C   0  0  0  0  0  0  0  0  0  0  0  0
  -22.9162  -20.2243   15.1257 C   0  0  0  0  0  0  0  0  0  0  0  0
  -24.1386  -32.2630   25.7350 C   0  0  0  0  0  0  0  0  0  0  0  0
  -23.0181  -19.4146   16.4195 C   0  0  0  0  0  0  0  0  0  0  0  0
  -23.8503  -19.6826   14.0458 C   0  0  0  0  0  0  0  0  0  0  0  0
  -25.3630  -18.7428   15.7494 C   0  0  0  0  0  0  0  0  0  0  0  0
  -25.2052  -31.4298   25.0141 C   0  0  1  0  0  0  0  0  0  0  0  0
  -24.1292  -30.9655   21.4003 C   0  0  1  0  0  0  0  0  0  0  0  0
  -24.4805  -19.2855   16.8865 C   0  0  2  0  0  0  0  0  0  0  0  0
  -18.6292  -29.2160   16.2338 C   0  0  0  0  0  0  0  0  0  0  0  0
  -20.0771  -29.1601   22.6969 C   0  0  0  0  0  0  0  0  0  0  0  0
  -18.5652  -28.4524   20.8311 C   0  0  0  0  0  0  0  0  0  0  0  0
  -18.8763  -30.8765   21.3307 C   0  0  0  0  0  0  0  0  0  0  0  0
  -22.3214  -29.7881   15.5154 C   0  0  0  0  0  0  0  0  0  0  0  0
  -33.6268  -13.7824   12.4557 C   0  0  0  0  0  0  0  0  0  0  0  0
  -25.9633  -24.3966   20.0521 C   0  0  0  0  0  0  0  0  0  1  0  0
  -30.3765  -15.5390   17.0193 C   0  0  0  0  0  0  0  0  0  0  0  0
  -31.2752  -19.7045   11.1512 C   0  0  0  0  0  0  0  0  0  0  0  0
  -30.5937  -20.6042   12.1854 C   0  0  0  0  0  0  0  0  0  0  0  0
  -30.9203  -15.1560   15.6403 C   0  0  0  0  0  0  0  0  0  0  0  0
  -29.8123  -16.9628   17.0179 C   0  0  0  0  0  0  0  0  0  0  0  0
  -32.4591  -20.4165   10.4901 C   0  0  0  0  0  0  0  0  0  0  0  0
  -29.3845  -19.9071   12.8160 C   0  0  0  0  0  0  0  0  0  0  0  0
  -31.5115  -13.7433   15.6507 C   0  0  0  0  0  0  0  0  0  0  0  0
  -29.2755  -17.3784   18.3829 C   0  0  0  0  0  0  0  0  0  0  0  0
  -33.1533  -19.5513    9.4434 C   0  0  0  0  0  0  0  0  0  0  0  0
  -28.6820  -20.7708   13.8594 C   0  0  0  0  0  0  0  0  0  0  0  0
  -32.0004  -13.2806   14.2838 C   0  0  0  0  0  0  0  0  0  0  0  0
  -20.7570  -29.5839   20.2425 C   0  0  1  0  0  0  0  0  0  0  0  0
  -20.0372  -29.7127   16.5230 C   0  0  2  0  0  0  0  0  0  0  0  0
  -19.5966  -29.5116   21.2748 C   0  0  0  0  0  0  0  0  0  0  0  0
  -24.8145  -17.1263   18.0306 N   0  0  0  0  0  0  0  0  0  0  0  0
  -28.7413  -18.7357   18.3136 N   0  0  0  0  0  0  0  0  0  0  0  0
  -24.5939  -18.4470   18.1462 N   0  0  0  0  0  0  0  0  0  0  0  0
  -23.1087  -30.0856   20.8271 N   0  0  0  0  0  0  0  0  0  0  0  0
  -25.2215  -19.5863   14.5522 N   0  0  0  0  0  0  0  0  0  0  0  0
  -24.2769  -20.1773   19.7324 N   0  0  0  0  0  0  0  0  0  0  0  0
  -23.4160  -17.5162   22.2961 N   0  0  0  0  0  0  0  0  0  0  0  0
  -33.6595  -18.3158    9.9967 N   0  0  0  0  0  0  0  0  0  0  0  0
  -25.0272  -31.5123   23.5803 N   0  0  0  0  0  0  0  0  0  0  0  0
  -20.3346  -29.9416   18.8927 N   0  0  0  0  0  0  0  0  0  0  0  0
  -27.5208  -20.1267   14.4319 N   0  0  0  0  0  0  0  0  0  0  0  0
  -20.9118  -29.3408   15.3750 N   0  3  0  0  0  0  0  0  0  0  0  0
  -33.0933  -14.1539   13.7954 N   0  3  0  0  0  0  0  0  0  0  0  0
  -35.7567  -19.1191   10.5742 O   0  0  0  0  0  0  0  0  0  0  0  0
  -25.6753  -17.9063   22.3422 O   0  0  0  0  0  0  0  0  0  0  0  0
  -23.4283  -29.8351   23.3511 O   0  0  0  0  0  0  0  0  0  0  0  0
  -21.5038  -31.7755   20.7576 O   0  0  0  0  0  0  0  0  0  0  0  0
  -21.1552  -28.0365   17.8562 O   0  0  0  0  0  0  0  0  0  0  0  0
  -26.0556  -20.9505   12.8726 O   0  0  0  0  0  0  0  0  0  0  0  0
  -25.7235  -11.3152   20.4712 O   0  0  0  0  0  0  0  0  0  0  0  0
  -27.0100  -25.3661   20.0793 O   0  0  0  0  0  0  0  0  0  1  0  0
  -21.3986   -8.3318   22.1442 F   0  0  0  0  0  0  0  0  0  0  0  0
  -24.3340  -11.9932   22.7630 F   0  0  0  0  0  0  0  0  0  0  0  0
  1  2  1  0  0  0  0
  1  9  2  0  0  0  0
  2 10  2  0  0  0  0
  3  6  1  0  0  0  0
  3 12  2  0  0  0  0
  4 15  2  0  0  0  0
  4 23  1  0  0  0  0
  5 16  1  0  0  0  0
  5 23  2  0  0  0  0
  6 25  2  0  0  0  0
  7 13  2  0  0  0  0
  7 24  1  0  0  0  0
  8 14  1  0  0  0  0
  8 24  2  0  0  0  0
  9 27  1  0  0  0  0
 10 29  1  0  0  0  0
 11 17  2  0  0  0  0
 11 28  1  0  0  0  0
 12 32  1  0  0  0  0
 13 31  1  0  0  0  0
 14 31  2  0  0  0  0
 15 33  1  0  0  0  0
 16 33  2  0  0  0  0
 17 34  1  0  0  0  0
 18 19  2  0  0  0  0
 18 35  1  0  0  0  0
 19 36  1  0  0  0  0
 20 25  1  0  0  0  0
 20 32  2  0  0  0  0
 21 30  1  0  0  0  0
 21 34  2  0  0  0  0
 22 36  2  0  0  0  0
 22 37  1  0  0  0  0
 23 38  1  0  0  0  0
 24 40  1  0  0  0  0
 25 41  1  0  0  0  0
 26 38  1  0  0  0  0
 26 39  2  0  0  0  0
 26 42  1  0  0  0  0
 27 29  2  0  0  0  0
 27 47  1  0  0  0  0
 28 30  2  0  0  0  0
 28 48  1  0  0  0  0
 29 56  1  0  0  0  0
 30 49  1  0  0  0  0
 31 65  1  0  0  0  0
 32 64  1  0  0  0  0
 33100  1  0  0  0  0
 34101  1  0  0  0  0
 35 37  2  0  0  0  0
 35100  1  0  0  0  0
 36102  1  0  0  0  0
 37103  1  0  0  0  0
 38 81  2  0  0  0  0
 39 83  1  0  0  0  0
 39 86  1  0  0  0  0
 40 82  2  0  0  0  0
 41 88  1  0  0  0  0
 41 94  2  0  0  0  0
 42 87  1  0  0  0  0
 42 95  2  0  0  0  0
 43 57  1  0  0  0  0
 43 89  1  0  0  0  0
 43 96  2  0  0  0  0
 44 78  1  0  0  0  0
 44 84  1  0  0  0  0
 44 97  2  0  0  0  0
 45 79  1  0  0  0  0
 45 90  1  0  0  0  0
 45 98  2  0  0  0  0
 46 85  1  0  0  0  0
 46 91  1  0  0  0  0
 46 99  2  0  0  0  0
 47 50  1  0  0  0  0
 48 57  1  0  0  0  0
 49 84  1  0  0  0  0
 50 52  1  0  0  0  0
 51 53  1  0  0  0  0
 51 54  1  0  0  0  0
 52 56  1  0  0  0  0
 53 58  1  0  0  0  0
 54 85  1  0  0  0  0
 55 58  1  0  0  0  0
 55 85  1  0  0  0  0
 56 89  1  0  0  0  0
 57 84  1  0  0  0  0
 58 83  1  0  0  0  0
 59 79  1  0  0  0  0
 60 80  1  0  0  0  0
 61 80  1  0  0  0  0
 62 80  1  0  0  0  0
 63 92  1  0  0  0  0
 64 93  1  0  0  0  0
 65101  1  0  0  0  0
 66 69  1  0  0  0  0
 66 70  1  0  0  0  0
 67 68  1  0  0  0  0
 67 71  1  0  0  0  0
 68 72  1  0  0  0  0
 69 73  1  0  0  0  0
 70 74  1  0  0  0  0
 71 75  1  0  0  0  0
 72 76  1  0  0  0  0
 73 77  1  0  0  0  0
 74 82  1  0  0  0  0
 75 88  1  0  0  0  0
 76 91  1  0  0  0  0
 77 93  1  0  0  0  0
 78 80  1  0  0  0  0
 78 90  1  0  0  0  0
 79 92  1  0  0  0  0
 81 83  1  0  0  0  0
M  CHG  2  92   1  93   1
M  ISO  4  46 100  65 101  91 100 101 101
M  END
> <Batch ID>
0004

> <Smiles>
CNC(C)C(=O)NC(C(=O)N1Cc2cc([101O:1][101CH2:1]c3ccc(C=NCCCCCCNCc4cccc(C(=O)NCCCCCC[100NH:0][100C:0](=O)N5CCCC(n6nc(-c7ccc(Oc8ccc(F)cc8F)cc7)c(C(N)=O)c6N)C5)c4)cc3)ccc2CC1C(=O)NC1CCCc2ccccc21)C(C)(C)C

> <Shape>
0.215

> <Color>
0.060

> <Negative vol penalty>
0.000

$$$$

  -OEChem-04042320233D

 88 96  0     1  0  0  0  0  0999 V2000
  -24.0657   -7.1227   24.3941 C   0  0  0  0  0  0  0  0  0  0  0  0
  -25.3077   -7.6769   24.1015 C   0  0  0  0  0  0  0  0  0  0  0  0
  -24.2720  -30.5114   20.1465 C   0  0  0  0  0  0  0  0  0  0  0  0
  -25.8101  -29.4640   21.6874 C   0  0  0  0  0  0  0  0  0  0  0  0
  -22.9536   -7.4618   23.6245 C   0  0  0  0  0  0  0  0  0  0  0  0
  -25.4386   -8.5698   23.0384 C   0  0  0  0  0  0  0  0  0  0  0  0
  -29.1808  -13.4080   22.7336 C   0  0  0  0  0  0  0  0  0  0  0  0
  -23.6839  -31.2044   21.2046 C   0  0  0  0  0  0  0  0  0  0  0  0
  -25.2221  -30.1571   22.7455 C   0  0  0  0  0  0  0  0  0  0  0  0
  -30.4292  -13.5924   22.1410 C   0  0  0  0  0  0  0  0  0  0  0  0
  -25.3366  -33.2724   24.0500 C   0  0  0  0  0  0  0  0  0  0  0  0
  -26.1847  -33.8726   24.9806 C   0  0  0  0  0  0  0  0  0  0  0  0
  -29.3591  -14.5265   20.1913 C   0  0  0  0  0  0  0  0  0  0  0  0
  -31.6779  -21.5211   18.4681 C   0  0  0  0  0  0  0  0  0  0  0  0
  -29.2952  -20.7194   17.2587 C   0  0  0  0  0  0  0  0  0  0  0  0
  -25.2125  -32.5259   26.7352 C   0  0  0  0  0  0  0  0  0  0  0  0
  -25.3351  -29.6411   20.3879 C   0  0  0  0  0  0  0  0  0  0  0  0
  -27.0257  -29.3452   18.5006 C   0  0  0  0  0  0  0  0  0  0  0  0
  -23.0690   -8.3666   22.5575 C   0  0  0  0  0  0  0  0  0  0  0  0
  -28.0095  -13.7721   22.0539 C   0  0  0  0  0  0  0  0  0  0  0  0
  -24.3273   -8.9202   22.2530 C   0  0  0  0  0  0  0  0  0  0  0  0
  -28.0972  -14.3481   20.7785 C   0  0  0  0  0  0  0  0  0  0  0  0
  -31.5940  -20.2724   17.8523 C   0  0  0  0  0  0  0  0  0  0  0  0
  -30.5703  -22.3690   18.4792 C   0  0  0  0  0  0  0  0  0  0  0  0
  -30.4027  -19.8715   17.2476 C   0  0  0  0  0  0  0  0  0  0  0  0
  -29.3790  -21.9682   17.8745 C   0  0  0  0  0  0  0  0  0  0  0  0
  -24.1590  -31.0273   22.5040 C   0  0  0  0  0  0  0  0  0  0  0  0
  -30.5184  -14.1490   20.8685 C   0  0  0  0  0  0  0  0  0  0  0  0
  -24.4263  -32.2990   24.4620 C   0  0  0  0  0  0  0  0  0  0  0  0
  -26.1227  -33.4993   26.3232 C   0  0  0  0  0  0  0  0  0  0  0  0
  -24.3643  -31.9258   25.8045 C   0  0  0  0  0  0  0  0  0  0  0  0
  -25.9426  -28.9245   19.2955 C   0  0  0  0  0  0  0  0  0  0  0  0
  -27.2183  -28.3169   17.6107 C   0  0  0  0  0  0  0  0  0  0  0  0
  -27.7894  -30.5571   18.5613 C   0  0  0  0  0  0  0  0  0  0  0  0
  -25.4503  -12.2095   20.9991 C   0  0  0  0  0  0  0  0  0  0  0  0
  -24.3993  -15.1963   20.2945 C   0  0  0  0  0  0  0  0  0  0  0  0
  -25.1655  -18.4485   19.5997 C   0  0  0  0  0  0  0  0  0  0  0  0
  -26.9934  -22.5530   17.3148 C   0  0  0  0  0  0  0  0  0  0  0  0
  -21.8480   -8.6663   21.7245 C   0  0  0  0  0  0  0  0  0  0  0  0
  -26.6720  -13.5914   22.7178 C   0  0  0  0  0  0  0  0  0  0  0  0
  -26.8710  -14.7745   20.0149 C   0  0  0  0  0  0  0  0  0  0  0  0
  -21.9973   -9.9081   20.8494 C   0  0  0  0  0  0  0  0  0  0  0  0
  -24.4258  -24.5941   15.9296 C   0  0  0  0  0  0  0  0  0  0  0  0
  -23.3401   -9.8929   20.1258 C   0  0  0  0  0  0  0  0  0  0  0  0
  -24.6597  -25.9606   16.5776 C   0  0  0  0  0  0  0  0  0  0  0  0
  -24.7133  -23.4496   16.8998 C   0  0  0  0  0  0  0  0  0  0  0  0
  -26.2683  -24.8614   18.1874 C   0  0  0  0  0  0  0  0  0  0  0  0
  -24.5046   -9.9115   21.1234 C   0  0  1  0  0  0  0  0  0  0  0  0
  -25.5161  -13.5238   21.7244 C   0  0  1  0  0  0  0  0  0  0  0  0
  -26.0542  -26.0442   17.2288 C   0  0  2  0  0  0  0  0  0  0  0  0
  -30.2894  -18.5391   16.5825 C   0  0  0  0  0  0  0  0  0  0  0  0
  -24.0958  -20.6459   19.0298 C   0  0  0  0  0  0  0  0  0  0  0  0
  -23.9110  -14.2171   17.4462 C   0  0  0  0  0  0  0  0  0  0  0  0
  -23.7671  -16.6096   16.7227 C   0  0  0  0  0  0  0  0  0  0  0  0
  -22.1186  -15.7024   18.3604 C   0  0  0  0  0  0  0  0  0  0  0  0
  -26.2539  -19.7406   22.0296 C   0  0  0  0  0  0  0  0  0  0  0  0
  -30.9030  -26.1675   18.8766 C   0  0  0  0  0  0  0  0  0  0  0  0
  -31.9132  -24.6383   17.1909 C   0  0  0  0  0  0  0  0  0  0  0  0
  -32.8725  -18.7066   20.2502 C   0  0  0  0  0  0  0  0  0  0  0  0
  -32.7982  -19.3773   17.8533 C   0  0  0  0  0  0  0  0  0  0  0  0
  -30.6886  -23.7011   19.1460 C   0  0  0  0  0  0  0  0  0  0  0  0
  -33.3067  -15.9125   19.4050 C   0  0  0  0  0  0  0  0  0  0  0  0
  -33.5680  -17.0947   18.4839 C   0  0  0  0  0  0  0  0  0  0  0  0
  -31.8651  -15.4197   19.3760 C   0  0  0  0  0  0  0  0  0  1  0  0
  -24.5020  -16.1113   19.0982 C   0  0  1  0  0  0  0  0  0  0  0  0
  -24.6131  -19.7525   20.1465 C   0  0  2  0  0  0  0  0  0  0  0  0
  -23.5978  -15.6504   17.9202 C   0  0  0  0  0  0  0  0  0  0  0  0
  -25.4795  -27.7227   18.9416 N   0  0  0  0  0  0  0  0  0  0  0  0
  -26.2754  -27.3795   17.9145 N   0  0  0  0  0  0  0  0  0  0  0  0
  -25.5858  -14.5716   20.7039 N   0  0  0  0  0  0  0  0  0  0  0  0
  -26.0529  -23.5927   17.4742 N   0  0  0  0  0  0  0  0  0  0  0  0
  -28.1004  -28.1322   16.6057 N   0  0  0  0  0  0  0  0  0  0  0  0
  -27.4582  -31.5075   19.5368 N   0  0  0  0  0  0  0  0  0  0  0  0
  -28.2432  -22.8153   17.8751 N   0  0  0  0  0  0  0  0  0  0  0  0
  -24.7005  -11.2464   21.6469 N   0  0  0  0  0  0  0  0  0  0  0  0
  -24.2096  -17.4549   19.5856 N   0  0  0  0  0  0  0  0  0  0  0  0
  -25.6723  -20.4931   20.8884 N   0  3  0  0  0  0  0  0  0  0  0  0
  -30.7969  -24.8321   18.1854 N   0  3  0  0  0  0  0  0  0  0  0  0
  -32.6828  -18.2315   18.8297 N   0  3  1  0  0  0  0  0  0  0  0  0
  -28.7269  -30.7976   17.7634 O   0  0  0  0  0  0  0  0  0  0  0  0
  -26.0353  -12.0793   19.9302 O   0  0  0  0  0  0  0  0  0  0  0  0
  -23.3079  -15.0471   20.8498 O   0  0  0  0  0  0  0  0  0  0  0  0
  -26.3276  -18.3248   19.2193 O   0  0  0  0  0  0  0  0  0  0  0  0
  -26.7194  -21.5185   16.7012 O   0  0  0  0  0  0  0  0  0  0  0  0
  -23.5855  -31.7036   23.5367 O   0  0  0  0  0  0  0  0  0  0  0  0
  -31.7357  -14.3294   20.2875 O   0  0  0  0  0  0  0  0  0  1  0  0
  -26.9383  -34.0747   27.2165 F   0  0  0  0  0  0  0  0  0  0  0  0
  -23.4928  -30.9903   26.2060 F   0  0  0  0  0  0  0  0  0  0  0  0
  1  2  1  0  0  0  0
  1  5  2  0  0  0  0
  2  6  2  0  0  0  0
  3  8  2  0  0  0  0
  3 17  1  0  0  0  0
  4  9  1  0  0  0  0
  4 17  2  0  0  0  0
  5 19  1  0  0  0  0
  6 21  1  0  0  0  0
  7 10  2  0  0  0  0
  7 20  1  0  0  0  0
  8 27  1  0  0  0  0
  9 27  2  0  0  0  0
 10 28  1  0  0  0  0
 11 12  2  0  0  0  0
 11 29  1  0  0  0  0
 12 30  1  0  0  0  0
 13 22  1  0  0  0  0
 13 28  2  0  0  0  0
 14 23  1  0  0  0  0
 14 24  2  0  0  0  0
 15 25  1  0  0  0  0
 15 26  2  0  0  0  0
 16 30  2  0  0  0  0
 16 31  1  0  0  0  0
 17 32  1  0  0  0  0
 18 32  1  0  0  0  0
 18 33  2  0  0  0  0
 18 34  1  0  0  0  0
 19 21  2  0  0  0  0
 19 39  1  0  0  0  0
 20 22  2  0  0  0  0
 20 40  1  0  0  0  0
 21 48  1  0  0  0  0
 22 41  1  0  0  0  0
 23 25  2  0  0  0  0
 23 60  1  0  0  0  0
 24 26  1  0  0  0  0
 24 61  1  0  0  0  0
 25 51  1  0  0  0  0
 26 74  1  0  0  0  0
 27 85  1  0  0  0  0
 28 86  1  0  0  0  0
 29 31  2  0  0  0  0
 29 85  1  0  0  0  0
 30 87  1  0  0  0  0
 31 88  1  0  0  0  0
 32 68  2  0  0  0  0
 33 69  1  0  0  0  0
 33 72  1  0  0  0  0
 34 73  1  0  0  0  0
 34 80  2  0  0  0  0
 35 49  1  0  0  0  0
 35 75  1  0  0  0  0
 35 81  2  0  0  0  0
 36 65  1  0  0  0  0
 36 70  1  0  0  0  0
 36 82  2  0  0  0  0
 37 66  1  0  0  0  0
 37 76  1  0  0  0  0
 37 83  2  0  0  0  0
 38 71  1  0  0  0  0
 38 74  1  0  0  0  0
 38 84  2  0  0  0  0
 39 42  1  0  0  0  0
 40 49  1  0  0  0  0
 41 70  1  0  0  0  0
 42 44  1  0  0  0  0
 43 45  1  0  0  0  0
 43 46  1  0  0  0  0
 44 48  1  0  0  0  0
 45 50  1  0  0  0  0
 46 71  1  0  0  0  0
 47 50  1  0  0  0  0
 47 71  1  0  0  0  0
 48 75  1  0  0  0  0
 49 70  1  0  0  0  0
 50 69  1  0  0  0  0
 52 66  1  0  0  0  0
 53 67  1  0  0  0  0
 54 67  1  0  0  0  0
 55 67  1  0  0  0  0
 56 77  1  0  0  0  0
 57 78  1  0  0  0  0
 58 78  1  0  0  0  0
 59 79  1  0  0  0  0
 60 79  1  0  0  0  0
 61 78  1  0  0  0  0
 62 63  1  0  0  0  0
 62 64  1  0  0  0  0
 63 79  1  0  0  0  0
 64 86  1  0  0  0  0
 65 67  1  0  0  0  0
 65 76  1  0  0  0  0
 66 77  1  0  0  0  0
 68 69  1  0  0  0  0
M  CHG  3  77   1  78   1  79   1
M  ISO  4  38 100  64 101  74 100  86 101
M  END
> <Batch ID>
0004

> <Smiles>
CNC(C)C(=O)NC(C(=O)N1Cc2cc([101O:1][101CH2:1]CCN(C)Cc3cc(CN(C)C)c([100NH:0][100C:0](=O)N4CCCC(n5nc(-c6ccc(Oc7ccc(F)cc7F)cc6)c(C(N)=O)c5N)C4)cc3C)ccc2CC1C(=O)NC1CCCc2ccccc21)C(C)(C)C

> <Shape>
0.227

> <Color>
0.080

> <Negative vol penalty>
0.000

$$$$

  -OEChem-04042320233D

 81 90  0     1  0  0  0  0  0999 V2000
  -35.1516  -23.4441   27.4614 C   0  0  0  0  0  0  0  0  0  0  0  0
  -34.7177  -22.9234   26.2465 C   0  0  0  0  0  0  0  0  0  0  0  0
  -23.0785   -9.8632   19.9442 C   0  0  0  0  0  0  0  0  0  0  0  0
  -23.8350   -9.8774   22.2387 C   0  0  0  0  0  0  0  0  0  0  0  0
  -34.4080  -24.4366   28.0986 C   0  0  0  0  0  0  0  0  0  0  0  0
  -33.5393  -23.3943   25.6685 C   0  0  0  0  0  0  0  0  0  0  0  0
  -34.0280  -24.2797   20.7064 C   0  0  0  0  0  0  0  0  0  0  0  0
  -30.6246  -19.8695   21.4292 C   0  0  0  0  0  0  0  0  0  0  0  0
  -22.3354   -8.7101   20.1963 C   0  0  0  0  0  0  0  0  0  0  0  0
  -23.0918   -8.7243   22.4908 C   0  0  0  0  0  0  0  0  0  0  0  0
  -33.9951  -23.1752   19.8563 C   0  0  0  0  0  0  0  0  0  0  0  0
  -21.1073   -5.9891   23.8322 C   0  0  0  0  0  0  0  0  0  0  0  0
  -20.3494   -5.9482   25.0024 C   0  0  0  0  0  0  0  0  0  0  0  0
  -29.7163  -19.3046   22.3245 C   0  0  0  0  0  0  0  0  0  0  0  0
  -31.1531  -17.6710   20.5782 C   0  0  0  0  0  0  0  0  0  0  0  0
  -31.6876  -23.6506   19.3378 C   0  0  0  0  0  0  0  0  0  0  0  0
  -19.1041   -7.8822   24.2635 C   0  0  0  0  0  0  0  0  0  0  0  0
  -23.8284  -10.4468   20.9654 C   0  0  0  0  0  0  0  0  0  0  0  0
  -24.1681  -12.9720   20.8387 C   0  0  0  0  0  0  0  0  0  0  0  0
  -31.3429  -19.0527   20.5560 C   0  0  0  0  0  0  0  0  0  0  0  0
  -33.2250  -24.9267   27.5234 C   0  0  0  0  0  0  0  0  0  0  0  0
  -32.8859  -25.0729   20.8874 C   0  0  0  0  0  0  0  0  0  0  0  0
  -32.7785  -24.3934   26.2992 C   0  0  0  0  0  0  0  0  0  0  0  0
  -31.7094  -24.7661   20.1888 C   0  0  0  0  0  0  0  0  0  0  0  0
  -30.2449  -17.1061   21.4735 C   0  0  0  0  0  0  0  0  0  0  0  0
  -22.3419   -8.1406   21.4696 C   0  0  0  0  0  0  0  0  0  0  0  0
  -32.8240  -22.8588   19.1741 C   0  0  0  0  0  0  0  0  0  0  0  0
  -20.8638   -6.9767   22.8777 C   0  0  0  0  0  0  0  0  0  0  0  0
  -19.3477   -6.8947   25.2180 C   0  0  0  0  0  0  0  0  0  0  0  0
  -19.8622   -7.9232   23.0933 C   0  0  0  0  0  0  0  0  0  0  0  0
  -29.5265  -17.9229   22.3467 C   0  0  0  0  0  0  0  0  0  0  0  0
  -24.5968  -11.6377   20.7054 C   0  0  0  0  0  0  0  0  0  0  0  0
  -25.2601  -13.7214   20.4749 C   0  0  0  0  0  0  0  0  0  0  0  0
  -22.8965  -13.4878   21.2542 C   0  0  0  0  0  0  0  0  0  0  0  0
  -31.0353  -25.8088   23.3648 C   0  0  0  0  0  0  0  0  0  0  0  0
  -29.6353  -27.8072   21.2273 C   0  0  0  0  0  0  0  0  0  0  0  0
  -28.9747  -28.5569   17.9642 C   0  0  0  0  0  0  0  0  0  0  0  0
  -30.7251  -14.7725   20.6548 C   0  0  0  0  0  0  0  0  0  0  0  0
  -32.4302  -25.9667   28.2727 C   0  0  0  0  0  0  0  0  0  0  0  0
  -32.9455  -26.2767   21.7873 C   0  0  0  0  0  0  0  0  0  0  0  0
  -30.4619  -25.5977   20.3328 C   0  0  0  0  0  0  0  0  0  0  0  0
  -31.3902  -26.6768   27.4098 C   0  0  0  0  0  0  0  0  0  0  0  0
  -29.6164  -12.3510   18.2917 C   0  0  0  0  0  0  0  0  0  0  0  0
  -30.6001  -25.6655   26.5854 C   0  0  0  0  0  0  0  0  0  0  0  0
  -28.1764  -12.0593   18.7200 C   0  0  0  0  0  0  0  0  0  0  0  0
  -32.1727  -19.3608   18.1285 C   0  0  0  0  0  0  0  0  0  0  0  0
  -30.5295  -12.5840   19.4941 C   0  0  0  0  0  0  0  0  0  0  0  0
  -28.6199  -13.3107   20.8705 C   0  0  0  0  0  0  0  0  0  0  0  0
  -32.3073  -19.6543   19.6044 C   0  0  1  0  0  0  0  0  0  0  0  0
  -31.5185  -24.8960   25.6284 C   0  0  1  0  0  0  0  0  0  0  0  0
  -31.5739  -26.7134   22.2927 C   0  0  1  0  0  0  0  0  0  0  0  0
  -27.6490  -13.1332   19.6917 C   0  0  2  0  0  0  0  0  0  0  0  0
  -31.8316  -20.7245   18.6465 C   0  0  1  0  0  0  0  0  0  1  0  0
  -27.7744  -30.2317   16.5318 C   0  0  0  0  0  0  0  0  0  0  0  0
  -26.9689  -26.5143   21.9542 C   0  0  0  0  0  0  0  0  0  0  0  0
  -25.9957  -27.5174   19.8769 C   0  0  0  0  0  0  0  0  0  0  0  0
  -26.8828  -28.9984   21.6776 C   0  0  0  0  0  0  0  0  0  0  0  0
  -31.4805  -29.3755   16.6190 C   0  0  0  0  0  0  0  0  0  0  0  0
  -28.4996  -27.6906   20.2397 C   0  0  1  0  0  0  0  0  0  0  0  0
  -29.0951  -29.8537   17.1843 C   0  0  2  0  0  0  0  0  0  0  0  0
  -27.1095  -27.6632   20.9357 C   0  0  0  0  0  0  0  0  0  0  0  0
  -25.8624  -11.5418   20.2893 N   0  0  0  0  0  0  0  0  0  0  0  0
  -26.2383  -12.8254   20.1579 N   0  0  0  0  0  0  0  0  0  0  0  0
  -30.5685  -26.7608   21.2292 N   0  0  0  0  0  0  0  0  0  0  0  0
  -29.9683  -13.6168   20.3677 N   0  0  0  0  0  0  0  0  0  0  0  0
  -25.4694  -15.0529   20.3984 N   0  0  0  0  0  0  0  0  0  0  0  0
  -21.8849  -12.5786   21.5926 N   0  0  0  0  0  0  0  0  0  0  0  0
  -30.0756  -15.6993   21.4696 N   0  0  0  0  0  0  0  0  0  0  0  0
  -31.8473  -25.7110   24.4786 N   0  0  0  0  0  0  0  0  0  0  0  0
  -28.6707  -28.7845   19.2897 N   0  0  0  0  0  0  0  0  0  0  0  0
  -30.1262  -29.7221   16.1164 N   0  3  0  0  0  0  0  0  0  0  0  0
  -22.6591  -14.7183   21.3077 O   0  0  0  0  0  0  0  0  0  0  0  0
  -29.9619  -25.2428   23.1947 O   0  0  0  0  0  0  0  0  0  0  0  0
  -29.6964  -28.7941   21.9649 O   0  0  0  0  0  0  0  0  0  0  0  0
  -29.1307  -27.4524   17.4482 O   0  0  0  0  0  0  0  0  0  0  0  0
  -31.8547  -14.9410   20.1884 O   0  0  0  0  0  0  0  0  0  0  0  0
  -21.6167   -7.0155   21.7160 O   0  0  0  0  0  0  0  0  0  0  0  0
  -32.7890  -21.7809   18.3442 O   0  0  0  0  0  0  0  0  0  1  0  0
  -18.6189   -6.8543   26.3411 F   0  0  0  0  0  0  0  0  0  0  0  0
  -19.6227   -8.8736   22.1794 F   0  0  0  0  0  0  0  0  0  0  0  0
  -28.3919  -17.2658   23.4718 Cl  0  0  0  0  0  0  0  0  0  0  0  0
  1  2  1  0  0  0  0
  1  5  2  0  0  0  0
  2  6  2  0  0  0  0
  3  9  2  0  0  0  0
  3 18  1  0  0  0  0
  4 10  1  0  0  0  0
  4 18  2  0  0  0  0
  5 21  1  0  0  0  0
  6 23  1  0  0  0  0
  7 11  2  0  0  0  0
  7 22  1  0  0  0  0
  8 14  2  0  0  0  0
  8 20  1  0  0  0  0
  9 26  1  0  0  0  0
 10 26  2  0  0  0  0
 11 27  1  0  0  0  0
 12 13  2  0  0  0  0
 12 28  1  0  0  0  0
 13 29  1  0  0  0  0
 14 31  1  0  0  0  0
 15 20  2  0  0  0  0
 15 25  1  0  0  0  0
 16 24  1  0  0  0  0
 16 27  2  0  0  0  0
 17 29  2  0  0  0  0
 17 30  1  0  0  0  0
 18 32  1  0  0  0  0
 19 32  1  0  0  0  0
 19 33  2  0  0  0  0
 19 34  1  0  0  0  0
 20 49  1  0  0  0  0
 21 23  2  0  0  0  0
 21 39  1  0  0  0  0
 22 24  2  0  0  0  0
 22 40  1  0  0  0  0
 23 50  1  0  0  0  0
 24 41  1  0  0  0  0
 25 31  2  0  0  0  0
 25 68  1  0  0  0  0
 26 77  1  0  0  0  0
 27 78  1  0  0  0  0
 28 30  2  0  0  0  0
 28 77  1  0  0  0  0
 29 79  1  0  0  0  0
 30 80  1  0  0  0  0
 31 81  1  0  0  0  0
 32 62  2  0  0  0  0
 33 63  1  0  0  0  0
 33 66  1  0  0  0  0
 34 67  1  0  0  0  0
 34 72  2  0  0  0  0
 35 51  1  0  0  0  0
 35 69  1  0  0  0  0
 35 73  2  0  0  0  0
 36 59  1  0  0  0  0
 36 64  1  0  0  0  0
 36 74  2  0  0  0  0
 37 60  1  0  0  0  0
 37 70  1  0  0  0  0
 37 75  2  0  0  0  0
 38 65  1  0  0  0  0
 38 68  1  0  0  0  0
 38 76  2  0  0  0  0
 39 42  1  0  0  0  0
 40 51  1  0  0  0  0
 41 64  1  0  0  0  0
 42 44  1  0  0  0  0
 43 45  1  0  0  0  0
 43 47  1  0  0  0  0
 44 50  1  0  0  0  0
 45 52  1  0  0  0  0
 46 49  1  0  0  0  0
 46 53  1  0  0  0  0
 47 65  1  0  0  0  0
 48 52  1  0  0  0  0
 48 65  1  0  0  0  0
 49 53  1  0  0  0  0
 50 69  1  0  0  0  0
 51 64  1  0  0  0  0
 52 63  1  0  0  0  0
 53 78  1  0  0  0  0
 54 60  1  0  0  0  0
 55 61  1  0  0  0  0
 56 61  1  0  0  0  0
 57 61  1  0  0  0  0
 58 71  1  0  0  0  0
 59 61  1  0  0  0  0
 59 70  1  0  0  0  0
 60 71  1  0  0  0  0
 62 63  1  0  0  0  0
M  CHG  1  71   1
M  ISO  4  38 100  53 101  68 100  78 101
M  END
> <Batch ID>
0004

> <Smiles>
CNC(C)C(=O)NC(C(=O)N1Cc2cc([101O:1][101CH:1]3CC3c3ccc(Cl)c([100NH:0][100C:0](=O)N4CCCC(n5nc(-c6ccc(Oc7ccc(F)cc7F)cc6)c(C(N)=O)c5N)C4)c3)ccc2CC1C(=O)NC1CCCc2ccccc21)C(C)(C)C

> <Shape>
0.232

> <Color>
0.200

> <Negative vol penalty>
0.000

$$$$

  -OEChem-04042320233D

 86 95  0     1  0  0  0  0  0999 V2000
  -27.3275  -18.1042   19.6237 C   0  0  0  0  0  0  0  0  0  0  0  0
  -26.3511  -18.9992   19.1984 C   0  0  0  0  0  0  0  0  0  0  0  0
  -19.3826  -23.2447   25.3658 C   0  0  0  0  0  0  0  0  0  0  0  0
  -23.5361  -13.8443   19.2321 C   0  0  0  0  0  0  0  0  0  0  0  0
  -24.7281  -14.7330   21.1365 C   0  0  0  0  0  0  0  0  0  0  0  0
  -28.2675  -18.4998   20.5745 C   0  0  0  0  0  0  0  0  0  0  0  0
  -26.3134  -20.2901   19.7243 C   0  0  0  0  0  0  0  0  0  0  0  0
  -19.6843  -24.6042   25.2868 C   0  0  0  0  0  0  0  0  0  0  0  0
  -24.6532  -27.0156   17.9000 C   0  0  0  0  0  0  0  0  0  0  0  0
  -19.6266  -22.4115   24.2740 C   0  0  0  0  0  0  0  0  0  0  0  0
  -24.5225  -12.8718   19.0685 C   0  0  0  0  0  0  0  0  0  0  0  0
  -25.7145  -13.7604   20.9729 C   0  0  0  0  0  0  0  0  0  0  0  0
  -23.8776  -28.0893   18.3350 C   0  0  0  0  0  0  0  0  0  0  0  0
  -28.7305  -11.7366   20.8386 C   0  0  0  0  0  0  0  0  0  0  0  0
  -30.0620  -12.1428   20.9253 C   0  0  0  0  0  0  0  0  0  0  0  0
  -20.4740  -24.2974   23.0241 C   0  0  0  0  0  0  0  0  0  0  0  0
  -25.6010  -28.6870   19.9135 C   0  0  0  0  0  0  0  0  0  0  0  0
  -29.7253  -13.6447   19.0631 C   0  0  0  0  0  0  0  0  0  0  0  0
  -23.6389  -14.7750   20.2661 C   0  0  0  0  0  0  0  0  0  0  0  0
  -21.4511  -15.6831   21.2128 C   0  0  0  0  0  0  0  0  0  0  0  0
  -20.2301  -25.1306   24.1160 C   0  0  0  0  0  0  0  0  0  0  0  0
  -28.2472  -19.7992   21.1052 C   0  0  0  0  0  0  0  0  0  0  0  0
  -25.9060  -26.7626   18.4771 C   0  0  0  0  0  0  0  0  0  0  0  0
  -27.2532  -20.7030   20.6840 C   0  0  0  0  0  0  0  0  0  0  0  0
  -26.3917  -27.6109   19.4823 C   0  0  0  0  0  0  0  0  0  0  0  0
  -20.1723  -22.9379   23.1032 C   0  0  0  0  0  0  0  0  0  0  0  0
  -25.6117  -12.8298   19.9389 C   0  0  0  0  0  0  0  0  0  0  0  0
  -24.3502  -28.9235   19.3439 C   0  0  0  0  0  0  0  0  0  0  0  0
  -27.8963  -12.2845   19.8640 C   0  0  0  0  0  0  0  0  0  0  0  0
  -30.5594  -13.0968   20.0376 C   0  0  0  0  0  0  0  0  0  0  0  0
  -28.3937  -13.2385   18.9763 C   0  0  0  0  0  0  0  0  0  0  0  0
  -22.6206  -15.7802   20.4352 C   0  0  0  0  0  0  0  0  0  0  0  0
  -20.8237  -16.8929   21.0419 C   0  0  0  0  0  0  0  0  0  0  0  0
  -20.9744  -14.5964   22.0176 C   0  0  0  0  0  0  0  0  0  0  0  0
  -27.1751  -24.3533   20.1168 C   0  0  0  0  0  0  0  0  0  0  0  0
  -29.8901  -26.1066   19.8390 C   0  0  0  0  0  0  0  0  0  0  0  0
  -31.3280  -29.1665   19.3738 C   0  0  0  0  0  0  0  0  0  0  0  0
  -20.9576  -22.4522   20.7593 C   0  0  0  0  0  0  0  0  0  0  0  0
  -29.2551  -20.1660   22.1656 C   0  0  0  0  0  0  0  0  0  0  0  0
  -26.7421  -25.6161   17.9781 C   0  0  0  0  0  0  0  0  0  0  0  0
  -27.7388  -27.3945   20.1202 C   0  0  0  0  0  0  0  0  0  0  0  0
  -29.3760  -21.6701   22.3967 C   0  0  0  0  0  0  0  0  0  0  0  0
  -21.7582  -20.6578   17.7901 C   0  0  0  0  0  0  0  0  0  0  0  0
  -27.9939  -22.3058   22.5083 C   0  0  0  0  0  0  0  0  0  0  0  0
  -21.9577  -19.2209   18.2775 C   0  0  0  0  0  0  0  0  0  0  0  0
  -22.0581  -26.7852   23.7881 C   0  0  0  0  0  0  0  0  0  0  0  0
  -19.7333  -27.2505   22.9133 C   0  0  0  0  0  0  0  0  0  0  0  0
  -22.2781  -21.6773   18.8020 C   0  0  0  0  0  0  0  0  0  0  0  0
  -21.9551  -20.0838   20.6529 C   0  0  0  0  0  0  0  0  0  0  0  0
  -22.4075  -28.2578   23.6148 C   0  0  0  0  0  0  0  0  0  0  0  0
  -20.1003  -28.7195   22.7470 C   0  0  0  0  0  0  0  0  0  0  0  0
  -20.5533  -26.5875   24.0318 C   0  0  0  0  0  0  0  0  0  0  0  0
  -27.1948  -22.1197   21.2128 C   0  0  1  0  0  0  0  0  0  0  0  0
  -27.7797  -25.1471   18.9933 C   0  0  1  0  0  0  0  0  0  0  0  0
  -21.3879  -19.0227   19.6958 C   0  0  2  0  0  0  0  0  0  0  0  0
  -33.5676  -30.2897   19.2326 C   0  0  0  0  0  0  0  0  0  0  0  0
  -30.1728  -25.9186   22.8713 C   0  0  0  0  0  0  0  0  0  0  0  0
  -31.8239  -27.7975   22.7640 C   0  0  0  0  0  0  0  0  0  0  0  0
  -32.3118  -25.6431   21.6050 C   0  0  0  0  0  0  0  0  0  0  0  0
  -30.8275  -30.0743   16.6017 C   0  0  0  0  0  0  0  0  0  0  0  0
  -21.5367  -30.6581   20.7938 C   0  0  0  0  0  0  0  0  0  0  0  0
  -21.9799  -30.2609   22.1938 C   0  0  0  0  0  0  0  0  0  0  0  0
  -22.1775  -29.8271   19.6889 C   0  0  0  0  0  0  0  0  0  1  0  0
  -30.5514  -27.1900   20.6563 C   0  0  1  0  0  0  0  0  0  0  0  0
  -32.4437  -29.6256   18.4525 C   0  0  2  0  0  0  0  0  0  0  0  0
  -31.1887  -26.6405   21.9637 C   0  0  0  0  0  0  0  0  0  0  0  0
  -22.7319  -16.9586   19.8163 N   0  0  0  0  0  0  0  0  0  0  0  0
  -21.6242  -17.6130   20.2048 N   0  0  0  0  0  0  0  0  0  0  0  0
  -28.5162  -26.2565   19.6025 N   0  0  0  0  0  0  0  0  0  0  0  0
  -21.6922  -21.4303   20.1213 N   0  0  0  0  0  0  0  0  0  0  0  0
  -19.6709  -17.4004   21.5276 N   0  0  0  0  0  0  0  0  0  0  0  0
  -21.7424  -13.4258   22.0822 N   0  0  0  0  0  0  0  0  0  0  0  0
  -20.4207  -22.0911   21.9946 N   0  0  0  0  0  0  0  0  0  0  0  0
  -27.6424  -23.0558   20.2040 N   0  0  0  0  0  0  0  0  0  0  0  0
  -31.4956  -27.8549   19.7648 N   0  0  0  0  0  0  0  0  0  0  0  0
  -21.5895  -28.8621   22.4876 N   0  3  0  0  0  0  0  0  0  0  0  0
  -31.9228  -30.6027   17.4550 N   0  3  0  0  0  0  0  0  0  0  0  0
  -19.8912  -14.6555   22.6473 O   0  0  0  0  0  0  0  0  0  0  0  0
  -26.3471  -24.8796   20.8510 O   0  0  0  0  0  0  0  0  0  0  0  0
  -30.5689  -25.1659   19.4197 O   0  0  0  0  0  0  0  0  0  0  0  0
  -30.4024  -29.8994   19.7156 O   0  0  0  0  0  0  0  0  0  0  0  0
  -20.7926  -23.5568   20.2353 O   0  0  0  0  0  0  0  0  0  0  0  0
  -26.5743  -11.8808   19.7797 O   0  0  0  0  0  0  0  0  0  0  0  0
  -23.5948  -29.9719   19.7708 O   0  0  0  0  0  0  0  0  0  1  0  0
  -31.8378  -13.4878   20.1220 F   0  0  0  0  0  0  0  0  0  0  0  0
  -27.5967  -13.7692   18.0387 F   0  0  0  0  0  0  0  0  0  0  0  0
  1  2  1  0  0  0  0
  1  6  2  0  0  0  0
  2  7  2  0  0  0  0
  3  8  2  0  0  0  0
  3 10  1  0  0  0  0
  4 11  2  0  0  0  0
  4 19  1  0  0  0  0
  5 12  1  0  0  0  0
  5 19  2  0  0  0  0
  6 22  1  0  0  0  0
  7 24  1  0  0  0  0
  8 21  1  0  0  0  0
  9 13  2  0  0  0  0
  9 23  1  0  0  0  0
 10 26  2  0  0  0  0
 11 27  1  0  0  0  0
 12 27  2  0  0  0  0
 13 28  1  0  0  0  0
 14 15  2  0  0  0  0
 14 29  1  0  0  0  0
 15 30  1  0  0  0  0
 16 21  2  0  0  0  0
 16 26  1  0  0  0  0
 17 25  1  0  0  0  0
 17 28  2  0  0  0  0
 18 30  2  0  0  0  0
 18 31  1  0  0  0  0
 19 32  1  0  0  0  0
 20 32  1  0  0  0  0
 20 33  2  0  0  0  0
 20 34  1  0  0  0  0
 21 52  1  0  0  0  0
 22 24  2  0  0  0  0
 22 39  1  0  0  0  0
 23 25  2  0  0  0  0
 23 40  1  0  0  0  0
 24 53  1  0  0  0  0
 25 41  1  0  0  0  0
 26 73  1  0  0  0  0
 27 83  1  0  0  0  0
 28 84  1  0  0  0  0
 29 31  2  0  0  0  0
 29 83  1  0  0  0  0
 30 85  1  0  0  0  0
 31 86  1  0  0  0  0
 32 67  2  0  0  0  0
 33 68  1  0  0  0  0
 33 71  1  0  0  0  0
 34 72  1  0  0  0  0
 34 78  2  0  0  0  0
 35 54  1  0  0  0  0
 35 74  1  0  0  0  0
 35 79  2  0  0  0  0
 36 64  1  0  0  0  0
 36 69  1  0  0  0  0
 36 80  2  0  0  0  0
 37 65  1  0  0  0  0
 37 75  1  0  0  0  0
 37 81  2  0  0  0  0
 38 70  1  0  0  0  0
 38 73  1  0  0  0  0
 38 82  2  0  0  0  0
 39 42  1  0  0  0  0
 40 54  1  0  0  0  0
 41 69  1  0  0  0  0
 42 44  1  0  0  0  0
 43 45  1  0  0  0  0
 43 48  1  0  0  0  0
 44 53  1  0  0  0  0
 45 55  1  0  0  0  0
 46 50  1  0  0  0  0
 46 52  1  0  0  0  0
 47 51  1  0  0  0  0
 47 52  1  0  0  0  0
 48 70  1  0  0  0  0
 49 55  1  0  0  0  0
 49 70  1  0  0  0  0
 50 76  1  0  0  0  0
 51 76  1  0  0  0  0
 53 74  1  0  0  0  0
 54 69  1  0  0  0  0
 55 68  1  0  0  0  0
 56 65  1  0  0  0  0
 57 66  1  0  0  0  0
 58 66  1  0  0  0  0
 59 66  1  0  0  0  0
 60 77  1  0  0  0  0
 61 62  1  0  0  0  0
 61 63  1  0  0  0  0
 62 76  1  0  0  0  0
 63 84  1  0  0  0  0
 64 66  1  0  0  0  0
 64 75  1  0  0  0  0
 65 77  1  0  0  0  0
 67 68  1  0  0  0  0
M  CHG  2  76   1  77   1
M  ISO  4  38 100  63 101  73 100  84 101
M  END
> <Batch ID>
0004

> <Smiles>
CNC(C)C(=O)NC(C(=O)N1Cc2cc([101O:1][101CH2:1]CCN3CCC(c4cccc([100NH:0][100C:0](=O)N5CCCC(n6nc(-c7ccc(Oc8ccc(F)cc8F)cc7)c(C(N)=O)c6N)C5)c4)CC3)ccc2CC1C(=O)NC1CCCc2ccccc21)C(C)(C)C

> <Shape>
0.228

> <Color>
0.070

> <Negative vol penalty>
0.000

$$$$

  -OEChem-04042320233D

 84 92  0     1  0  0  0  0  0999 V2000
  -29.3660  -11.7963   20.1670 C   0  0  0  0  0  0  0  0  0  0  0  0
  -29.3147  -13.0803   19.6338 C   0  0  0  0  0  0  0  0  0  0  0  0
  -19.7653  -28.4504   23.7698 C   0  0  0  0  0  0  0  0  0  0  0  0
  -20.9055  -27.2562   22.0060 C   0  0  0  0  0  0  0  0  0  0  0  0
  -28.1893  -11.1552   20.5521 C   0  0  0  0  0  0  0  0  0  0  0  0
  -28.0866  -13.7235   19.4845 C   0  0  0  0  0  0  0  0  0  0  0  0
  -28.2167  -18.5431   21.0335 C   0  0  0  0  0  0  0  0  0  0  0  0
  -18.5490  -28.2557   23.1154 C   0  0  0  0  0  0  0  0  0  0  0  0
  -19.6891  -27.0614   21.3516 C   0  0  0  0  0  0  0  0  0  0  0  0
  -28.7999  -19.4727   20.1736 C   0  0  0  0  0  0  0  0  0  0  0  0
  -17.0169  -25.0106   21.6232 C   0  0  0  0  0  0  0  0  0  0  0  0
  -16.7515  -23.7383   21.1169 C   0  0  0  0  0  0  0  0  0  0  0  0
  -26.6075  -20.1563   19.4353 C   0  0  0  0  0  0  0  0  0  0  0  0
  -29.6366  -28.0108   19.3573 C   0  0  0  0  0  0  0  0  0  0  0  0
  -30.0089  -25.9288   18.1897 C   0  0  0  0  0  0  0  0  0  0  0  0
  -28.4939  -26.0051   20.0701 C   0  0  0  0  0  0  0  0  0  0  0  0
  -16.5722  -24.6613   18.8914 C   0  0  0  0  0  0  0  0  0  0  0  0
  -20.9436  -27.9507   23.2150 C   0  0  0  0  0  0  0  0  0  0  0  0
  -22.5514  -27.7146   25.1815 C   0  0  0  0  0  0  0  0  0  0  0  0
  -26.9470  -11.7947   20.4164 C   0  0  0  0  0  0  0  0  0  0  0  0
  -26.8224  -18.4053   21.0929 C   0  0  0  0  0  0  0  0  0  0  0  0
  -26.8920  -13.0898   19.8670 C   0  0  0  0  0  0  0  0  0  0  0  0
  -26.0089  -19.2260   20.2987 C   0  0  0  0  0  0  0  0  0  0  0  0
  -30.2657  -27.2914   18.3414 C   0  0  0  0  0  0  0  0  0  0  0  0
  -28.7507  -27.3677   20.2218 C   0  0  0  0  0  0  0  0  0  0  0  0
  -18.5109  -27.5612   21.9063 C   0  0  0  0  0  0  0  0  0  0  0  0
  -27.9954  -20.2775   19.3723 C   0  0  0  0  0  0  0  0  0  0  0  0
  -17.0598  -26.1083   20.7636 C   0  0  0  0  0  0  0  0  0  0  0  0
  -29.1230  -25.2856   19.0541 C   0  0  0  0  0  0  0  0  0  0  0  0
  -16.5292  -23.5636   19.7510 C   0  0  0  0  0  0  0  0  0  0  0  0
  -16.8375  -25.9336   19.3977 C   0  0  0  0  0  0  0  0  0  0  0  0
  -22.2004  -28.1521   23.8903 C   0  0  0  0  0  0  0  0  0  0  0  0
  -23.8412  -28.1540   25.3541 C   0  0  0  0  0  0  0  0  0  0  0  0
  -21.7804  -26.9770   26.1392 C   0  0  0  0  0  0  0  0  0  0  0  0
  -24.7729  -16.0533   20.4837 C   0  0  0  0  0  0  0  0  0  0  0  0
  -22.6103  -18.1513   21.6852 C   0  0  0  0  0  0  0  0  0  0  0  0
  -21.7730  -21.3951   22.3358 C   0  0  0  0  0  0  0  0  0  0  0  0
  -28.2551  -29.4550   21.5424 C   0  0  0  0  0  0  0  0  0  0  0  0
  -25.6977  -11.0432   20.8028 C   0  0  0  0  0  0  0  0  0  0  0  0
  -26.2080  -17.4164   22.0452 C   0  0  0  0  0  0  0  0  0  0  0  0
  -24.5063  -19.1313   20.3399 C   0  0  0  0  0  0  0  0  0  0  0  0
  -24.4718  -11.9393   20.9595 C   0  0  0  0  0  0  0  0  0  0  0  0
  -26.8290  -31.6321   23.9721 C   0  0  0  0  0  0  0  0  0  0  0  0
  -24.3614  -12.9034   19.7826 C   0  0  0  0  0  0  0  0  0  0  0  0
  -25.5151  -30.9438   24.3488 C   0  0  0  0  0  0  0  0  0  0  0  0
  -27.1490  -31.4696   22.4872 C   0  0  0  0  0  0  0  0  0  0  0  0
  -25.8219  -29.3971   22.3738 C   0  0  0  0  0  0  0  0  0  0  0  0
  -25.5812  -13.8301   19.7123 C   0  0  1  0  0  0  0  0  0  0  0  0
  -24.7943  -17.0031   21.6477 C   0  0  1  0  0  0  0  0  0  0  0  0
  -25.4900  -29.4781   23.8728 C   0  0  2  0  0  0  0  0  0  0  0  0
  -19.9247  -22.7993   23.2893 C   0  0  0  0  0  0  0  0  0  0  0  0
  -20.9967  -17.7614   19.1251 C   0  0  0  0  0  0  0  0  0  0  0  0
  -19.7177  -19.8360   19.6980 C   0  0  0  0  0  0  0  0  0  0  0  0
  -19.6282  -17.8587   21.2161 C   0  0  0  0  0  0  0  0  0  0  0  0
  -23.5218  -22.4487   24.4784 C   0  0  0  0  0  0  0  0  0  0  0  0
  -29.8127  -21.7460   18.9288 C   0  0  0  0  0  0  0  0  0  1  0  0
  -29.9238  -23.1525   18.3728 C   0  0  0  0  0  0  0  0  0  0  0  0
  -21.7419  -19.2414   21.1050 C   0  0  1  0  0  0  0  0  0  0  0  0
  -21.2222  -22.0625   23.5831 C   0  0  2  0  0  0  0  0  0  0  0  0
  -31.2131  -27.9787   17.4172 C   0  0  0  0  0  0  0  0  0  0  0  0
  -20.5495  -18.6750   20.2836 C   0  0  0  0  0  0  0  0  0  0  0  0
  -23.1875  -28.8184   23.2855 N   0  0  0  0  0  0  0  0  0  0  0  0
  -24.1714  -28.8029   24.2009 N   0  0  0  0  0  0  0  0  0  0  0  0
  -23.9533  -18.1449   21.2825 N   0  0  0  0  0  0  0  0  0  0  0  0
  -27.1110  -30.0551   22.1094 N   0  0  0  0  0  0  0  0  0  0  0  0
  -24.7137  -28.0448   26.3784 N   0  0  0  0  0  0  0  0  0  0  0  0
  -20.9980  -27.6894   27.0583 N   0  0  0  0  0  0  0  0  0  0  0  0
  -28.1116  -28.0982   21.2540 N   0  0  0  0  0  0  0  0  0  0  0  0
  -25.4741  -14.8824   20.7001 N   0  0  0  0  0  0  0  0  0  0  0  0
  -21.3471  -20.0884   22.2253 N   0  0  0  0  0  0  0  0  0  0  0  0
  -22.2066  -23.0419   24.1242 N   0  3  0  0  0  0  0  0  0  0  0  0
  -21.7980  -25.7237   26.1894 O   0  0  0  0  0  0  0  0  0  0  0  0
  -24.1640  -16.3593   19.4652 O   0  0  0  0  0  0  0  0  0  0  0  0
  -22.1169  -17.3397   22.4723 O   0  0  0  0  0  0  0  0  0  0  0  0
  -22.5048  -21.9761   21.5373 O   0  0  0  0  0  0  0  0  0  0  0  0
  -29.2954  -30.0908   21.3535 O   0  0  0  0  0  0  0  0  0  0  0  0
  -17.3241  -27.3707   21.2676 O   0  0  0  0  0  0  0  0  0  0  0  0
  -28.5621  -21.1852   18.5316 O   0  0  0  0  0  0  0  0  0  1  0  0
  -28.8711  -23.9471   18.9054 O   0  0  0  0  0  0  0  0  0  0  0  0
  -16.2759  -22.3415   19.2648 F   0  0  0  0  0  0  0  0  0  0  0  0
  -16.8786  -26.9842   18.5667 F   0  0  0  0  0  0  0  0  0  0  0  0
  -31.3683  -29.3097   17.6826 F   0  0  0  0  0  0  0  0  0  0  0  0
  -32.4767  -27.4607   17.4448 F   0  0  0  0  0  0  0  0  0  0  0  0
  -30.8176  -27.9095   16.1127 F   0  0  0  0  0  0  0  0  0  0  0  0
  1  2  1  0  0  0  0
  1  5  2  0  0  0  0
  2  6  2  0  0  0  0
  3  8  2  0  0  0  0
  3 18  1  0  0  0  0
  4  9  1  0  0  0  0
  4 18  2  0  0  0  0
  5 20  1  0  0  0  0
  6 22  1  0  0  0  0
  7 10  2  0  0  0  0
  7 21  1  0  0  0  0
  8 26  1  0  0  0  0
  9 26  2  0  0  0  0
 10 27  1  0  0  0  0
 11 12  2  0  0  0  0
 11 28  1  0  0  0  0
 12 30  1  0  0  0  0
 13 23  1  0  0  0  0
 13 27  2  0  0  0  0
 14 24  2  0  0  0  0
 14 25  1  0  0  0  0
 15 24  1  0  0  0  0
 15 29  2  0  0  0  0
 16 25  2  0  0  0  0
 16 29  1  0  0  0  0
 17 30  2  0  0  0  0
 17 31  1  0  0  0  0
 18 32  1  0  0  0  0
 19 32  1  0  0  0  0
 19 33  2  0  0  0  0
 19 34  1  0  0  0  0
 20 22  2  0  0  0  0
 20 39  1  0  0  0  0
 21 23  2  0  0  0  0
 21 40  1  0  0  0  0
 22 48  1  0  0  0  0
 23 41  1  0  0  0  0
 24 60  1  0  0  0  0
 25 68  1  0  0  0  0
 26 77  1  0  0  0  0
 27 78  1  0  0  0  0
 28 31  2  0  0  0  0
 28 77  1  0  0  0  0
 29 79  1  0  0  0  0
 30 80  1  0  0  0  0
 31 81  1  0  0  0  0
 32 62  2  0  0  0  0
 33 63  1  0  0  0  0
 33 66  1  0  0  0  0
 34 67  1  0  0  0  0
 34 72  2  0  0  0  0
 35 49  1  0  0  0  0
 35 69  1  0  0  0  0
 35 73  2  0  0  0  0
 36 58  1  0  0  0  0
 36 64  1  0  0  0  0
 36 74  2  0  0  0  0
 37 59  1  0  0  0  0
 37 70  1  0  0  0  0
 37 75  2  0  0  0  0
 38 65  1  0  0  0  0
 38 68  1  0  0  0  0
 38 76  2  0  0  0  0
 39 42  1  0  0  0  0
 40 49  1  0  0  0  0
 41 64  1  0  0  0  0
 42 44  1  0  0  0  0
 43 45  1  0  0  0  0
 43 46  1  0  0  0  0
 44 48  1  0  0  0  0
 45 50  1  0  0  0  0
 46 65  1  0  0  0  0
 47 50  1  0  0  0  0
 47 65  1  0  0  0  0
 48 69  1  0  0  0  0
 49 64  1  0  0  0  0
 50 63  1  0  0  0  0
 51 59  1  0  0  0  0
 52 61  1  0  0  0  0
 53 61  1  0  0  0  0
 54 61  1  0  0  0  0
 55 71  1  0  0  0  0
 56 57  1  0  0  0  0
 56 78  1  0  0  0  0
 57 79  1  0  0  0  0
 58 61  1  0  0  0  0
 58 70  1  0  0  0  0
 59 71  1  0  0  0  0
 60 82  1  0  0  0  0
 60 83  1  0  0  0  0
 60 84  1  0  0  0  0
 62 63  1  0  0  0  0
M  CHG  1  71   1
M  ISO  4  38 100  56 101  68 100  78 101
M  END
> <Batch ID>
0004

> <Smiles>
CNC(C)C(=O)NC(C(=O)N1Cc2cc([101O:1][101CH2:1]COc3cc([100NH:0][100C:0](=O)N4CCCC(n5nc(-c6ccc(Oc7ccc(F)cc7F)cc6)c(C(N)=O)c5N)C4)cc(C(F)(F)F)c3)ccc2CC1C(=O)NC1CCCc2ccccc21)C(C)(C)C

> <Shape>
0.228

> <Color>
0.082

> <Negative vol penalty>
0.000

$$$$

  -OEChem-04042320233D

 81 89  0     1  0  0  0  0  0999 V2000
  -16.6897  -29.4611   23.1319 C   0  0  0  0  0  0  0  0  0  0  0  0
  -17.6537  -29.5874   22.1369 C   0  0  0  0  0  0  0  0  0  0  0  0
  -26.5850  -12.6865   21.9931 C   0  0  0  0  0  0  0  0  0  0  0  0
  -25.7693  -14.3575   20.4506 C   0  0  0  0  0  0  0  0  0  0  0  0
  -17.0736  -29.1677   24.4398 C   0  0  0  0  0  0  0  0  0  0  0  0
  -19.0025  -29.4214   22.4495 C   0  0  0  0  0  0  0  0  0  0  0  0
  -25.1332  -27.0212   19.6262 C   0  0  0  0  0  0  0  0  0  0  0  0
  -28.8220  -22.0323   20.5317 C   0  0  0  0  0  0  0  0  0  0  0  0
  -30.6671  -22.6487   21.9643 C   0  0  0  0  0  0  0  0  0  0  0  0
  -25.3403  -12.0575   21.9700 C   0  0  0  0  0  0  0  0  0  0  0  0
  -24.5245  -13.7284   20.4274 C   0  0  0  0  0  0  0  0  0  0  0  0
  -26.4510  -27.4234   19.4131 C   0  0  0  0  0  0  0  0  0  0  0  0
  -29.1192  -23.1028   19.6883 C   0  0  0  0  0  0  0  0  0  0  0  0
  -30.9644  -23.7192   21.1209 C   0  0  0  0  0  0  0  0  0  0  0  0
  -22.4870   -9.8060   22.0365 C   0  0  0  0  0  0  0  0  0  0  0  0
  -22.4646   -8.4169   21.9129 C   0  0  0  0  0  0  0  0  0  0  0  0
  -26.9909  -26.8404   21.6907 C   0  0  0  0  0  0  0  0  0  0  0  0
  -23.6152   -8.5868   19.7952 C   0  0  0  0  0  0  0  0  0  0  0  0
  -26.7995  -13.8366   21.2335 C   0  0  0  0  0  0  0  0  0  0  0  0
  -29.1797  -14.2381   20.4083 C   0  0  0  0  0  0  0  0  0  0  0  0
  -18.4270  -28.9886   24.7666 C   0  0  0  0  0  0  0  0  0  0  0  0
  -24.7311  -26.5350   20.8786 C   0  0  0  0  0  0  0  0  0  0  0  0
  -19.4050  -29.1267   23.7632 C   0  0  0  0  0  0  0  0  0  0  0  0
  -25.6680  -26.4303   21.9165 C   0  0  0  0  0  0  0  0  0  0  0  0
  -29.5959  -21.8053   21.6698 C   0  0  0  0  0  0  0  0  0  0  0  0
  -24.3101  -12.5784   21.1871 C   0  0  0  0  0  0  0  0  0  0  0  0
  -30.1904  -23.9462   19.9829 C   0  0  0  0  0  0  0  0  0  0  0  0
  -27.3794  -27.3357   20.4462 C   0  0  0  0  0  0  0  0  0  0  0  0
  -23.0734  -10.5856   21.0395 C   0  0  0  0  0  0  0  0  0  0  0  0
  -23.0288   -7.8072   20.7923 C   0  0  0  0  0  0  0  0  0  0  0  0
  -23.6375   -9.9760   19.9189 C   0  0  0  0  0  0  0  0  0  0  0  0
  -28.0849  -14.4872   21.2574 C   0  0  0  0  0  0  0  0  0  0  0  0
  -30.1515  -15.1091   20.8365 C   0  0  0  0  0  0  0  0  0  0  0  0
  -29.3069  -13.3031   19.3288 C   0  0  0  0  0  0  0  0  0  0  0  0
  -22.6340  -27.4660   23.0784 C   0  0  0  0  0  0  0  0  0  0  0  0
  -23.4563  -24.6625   24.4878 C   0  0  0  0  0  0  0  0  0  0  0  0
  -25.7688  -22.1825   24.8734 C   0  0  0  0  0  0  0  0  0  0  0  0
  -29.9615  -20.3528   23.6953 C   0  0  0  0  0  0  0  0  0  0  0  0
  -18.7973  -28.7192   26.2036 C   0  0  0  0  0  0  0  0  0  0  0  0
  -23.3122  -26.0803   21.0845 C   0  0  0  0  0  0  0  0  0  0  0  0
  -25.2918  -25.8963   23.2735 C   0  0  0  0  0  0  0  0  0  0  0  0
  -20.2180  -28.1885   26.3773 C   0  0  0  0  0  0  0  0  0  0  0  0
  -31.6554  -17.4075   24.7596 C   0  0  0  0  0  0  0  0  0  0  0  0
  -21.2010  -29.0149   25.5542 C   0  0  0  0  0  0  0  0  0  0  0  0
  -31.0359  -16.3026   23.9007 C   0  0  0  0  0  0  0  0  0  0  0  0
  -30.6229  -18.4591   25.1620 C   0  0  0  0  0  0  0  0  0  0  0  0
  -29.2429  -17.9355   23.1896 C   0  0  0  0  0  0  0  0  0  0  0  0
  -20.8762  -28.9294   24.0580 C   0  0  1  0  0  0  0  0  0  0  0  0
  -22.8907  -26.0828   22.5507 C   0  0  1  0  0  0  0  0  0  0  0  0
  -30.2581  -16.8873   22.7054 C   0  0  2  0  0  0  0  0  0  0  0  0
  -26.7383  -20.0040   25.6554 C   0  0  0  0  0  0  0  0  0  0  0  0
  -24.0606  -26.2563   27.0185 C   0  0  0  0  0  0  0  0  0  0  0  0
  -25.3278  -24.2761   27.8794 C   0  0  0  0  0  0  0  0  0  0  0  0
  -22.8855  -24.0837   27.4097 C   0  0  0  0  0  0  0  0  0  0  0  0
  -24.6824  -20.7270   22.5367 C   0  0  0  0  0  0  0  0  0  0  0  0
  -30.6908  -27.3904   18.9728 C   0  0  0  0  0  0  0  0  0  0  0  0
  -31.0716  -26.1434   19.7552 C   0  0  0  0  0  0  0  0  0  0  0  0
  -29.1843  -27.5901   18.9186 C   0  0  0  0  0  0  0  0  0  1  0  0
  -24.5109  -24.2332   25.4790 C   0  0  1  0  0  0  0  0  0  0  0  0
  -25.6386  -20.6703   24.8434 C   0  0  2  0  0  0  0  0  0  0  0  0
  -24.2031  -24.7242   26.9218 C   0  0  0  0  0  0  0  0  0  0  0  0
  -28.3369  -15.4416   22.1572 N   0  0  0  0  0  0  0  0  0  0  0  0
  -29.6013  -15.7998   21.8759 N   0  0  0  0  0  0  0  0  0  0  0  0
  -23.8910  -25.4702   23.4273 N   0  0  0  0  0  0  0  0  0  0  0  0
  -29.9288  -18.9709   23.9784 N   0  0  0  0  0  0  0  0  0  0  0  0
  -31.4146  -15.3439   20.4217 N   0  0  0  0  0  0  0  0  0  0  0  0
  -28.2117  -12.4841   19.0219 N   0  0  0  0  0  0  0  0  0  0  0  0
  -29.2941  -20.7179   22.5266 N   0  0  0  0  0  0  0  0  0  0  0  0
  -21.3380  -27.6713   23.5117 N   0  0  0  0  0  0  0  0  0  0  0  0
  -24.6244  -22.7842   25.3524 N   0  0  0  0  0  0  0  0  0  0  0  0
  -25.7210  -20.1710   23.4417 N   0  3  0  0  0  0  0  0  0  0  0  0
  -30.3659  -13.1856   18.6670 O   0  0  0  0  0  0  0  0  0  0  0  0
  -23.5446  -28.2859   23.0928 O   0  0  0  0  0  0  0  0  0  0  0  0
  -22.2912  -24.2890   24.6446 O   0  0  0  0  0  0  0  0  0  0  0  0
  -26.7855  -22.7708   24.5118 O   0  0  0  0  0  0  0  0  0  0  0  0
  -30.5621  -21.1498   24.4207 O   0  0  0  0  0  0  0  0  0  0  0  0
  -23.0954  -11.9646   21.1640 O   0  0  0  0  0  0  0  0  0  0  0  0
  -30.4825  -24.9982   19.1542 O   0  0  0  0  0  0  0  0  0  0  0  0
  -28.6662  -27.7281   20.2411 O   0  0  0  0  0  0  0  0  0  1  0  0
  -23.0086   -6.4731   20.6744 F   0  0  0  0  0  0  0  0  0  0  0  0
  -24.2034  -10.7197   18.9583 F   0  0  0  0  0  0  0  0  0  0  0  0
  1  2  1  0  0  0  0
  1  5  2  0  0  0  0
  2  6  2  0  0  0  0
  3 10  2  0  0  0  0
  3 19  1  0  0  0  0
  4 11  1  0  0  0  0
  4 19  2  0  0  0  0
  5 21  1  0  0  0  0
  6 23  1  0  0  0  0
  7 12  2  0  0  0  0
  7 22  1  0  0  0  0
  8 13  2  0  0  0  0
  8 25  1  0  0  0  0
  9 14  1  0  0  0  0
  9 25  2  0  0  0  0
 10 26  1  0  0  0  0
 11 26  2  0  0  0  0
 12 28  1  0  0  0  0
 13 27  1  0  0  0  0
 14 27  2  0  0  0  0
 15 16  2  0  0  0  0
 15 29  1  0  0  0  0
 16 30  1  0  0  0  0
 17 24  1  0  0  0  0
 17 28  2  0  0  0  0
 18 30  2  0  0  0  0
 18 31  1  0  0  0  0
 19 32  1  0  0  0  0
 20 32  1  0  0  0  0
 20 33  2  0  0  0  0
 20 34  1  0  0  0  0
 21 23  2  0  0  0  0
 21 39  1  0  0  0  0
 22 24  2  0  0  0  0
 22 40  1  0  0  0  0
 23 48  1  0  0  0  0
 24 41  1  0  0  0  0
 25 68  1  0  0  0  0
 26 77  1  0  0  0  0
 27 78  1  0  0  0  0
 28 79  1  0  0  0  0
 29 31  2  0  0  0  0
 29 77  1  0  0  0  0
 30 80  1  0  0  0  0
 31 81  1  0  0  0  0
 32 62  2  0  0  0  0
 33 63  1  0  0  0  0
 33 66  1  0  0  0  0
 34 67  1  0  0  0  0
 34 72  2  0  0  0  0
 35 49  1  0  0  0  0
 35 69  1  0  0  0  0
 35 73  2  0  0  0  0
 36 59  1  0  0  0  0
 36 64  1  0  0  0  0
 36 74  2  0  0  0  0
 37 60  1  0  0  0  0
 37 70  1  0  0  0  0
 37 75  2  0  0  0  0
 38 65  1  0  0  0  0
 38 68  1  0  0  0  0
 38 76  2  0  0  0  0
 39 42  1  0  0  0  0
 40 49  1  0  0  0  0
 41 64  1  0  0  0  0
 42 44  1  0  0  0  0
 43 45  1  0  0  0  0
 43 46  1  0  0  0  0
 44 48  1  0  0  0  0
 45 50  1  0  0  0  0
 46 65  1  0  0  0  0
 47 50  1  0  0  0  0
 47 65  1  0  0  0  0
 48 69  1  0  0  0  0
 49 64  1  0  0  0  0
 50 63  1  0  0  0  0
 51 60  1  0  0  0  0
 52 61  1  0  0  0  0
 53 61  1  0  0  0  0
 54 61  1  0  0  0  0
 55 71  1  0  0  0  0
 56 57  1  0  0  0  0
 56 58  1  0  0  0  0
 57 78  1  0  0  0  0
 58 79  1  0  0  0  0
 59 61  1  0  0  0  0
 59 70  1  0  0  0  0
 60 71  1  0  0  0  0
 62 63  1  0  0  0  0
M  CHG  1  71   1
M  ISO  4  38 100  58 101  68 100  79 101
M  END
> <Batch ID>
0004

> <Smiles>
CNC(C)C(=O)NC(C(=O)N1Cc2cc([101O:1][101CH2:1]CCOc3ccc([100NH:0][100C:0](=O)N4CCCC(n5nc(-c6ccc(Oc7ccc(F)cc7F)cc6)c(C(N)=O)c5N)C4)cc3)ccc2CC1C(=O)NC1CCCc2ccccc21)C(C)(C)C

> <Shape>
0.239

> <Color>
0.096

> <Negative vol penalty>
0.000

$$$$

  -OEChem-04042320233D

 92102  0     1  0  0  0  0  0999 V2000
  -20.2213  -23.4634   12.7488 C   0  0  0  0  0  0  0  0  0  0  0  0
  -20.5456  -22.8469   13.9530 C   0  0  0  0  0  0  0  0  0  0  0  0
  -32.2069  -20.5631   18.2905 C   0  0  0  0  0  0  0  0  0  0  0  0
  -23.2626   -9.7388   20.0322 C   0  0  0  0  0  0  0  0  0  0  0  0
  -23.8871   -9.9820   22.3534 C   0  0  0  0  0  0  0  0  0  0  0  0
  -20.7774  -24.7013   12.4289 C   0  0  0  0  0  0  0  0  0  0  0  0
  -21.4270  -23.4674   14.8376 C   0  0  0  0  0  0  0  0  0  0  0  0
  -30.8973  -20.9574   17.9853 C   0  0  0  0  0  0  0  0  0  0  0  0
  -32.4679  -19.6346   19.3174 C   0  0  0  0  0  0  0  0  0  0  0  0
  -21.2382  -23.2864   20.9562 C   0  0  0  0  0  0  0  0  0  0  0  0
  -22.5790   -8.5624   20.3393 C   0  0  0  0  0  0  0  0  0  0  0  0
  -23.2035   -8.8056   22.6606 C   0  0  0  0  0  0  0  0  0  0  0  0
  -21.9261  -22.5170   21.8935 C   0  0  0  0  0  0  0  0  0  0  0  0
  -20.0020   -7.8448   23.1587 C   0  0  0  0  0  0  0  0  0  0  0  0
  -19.1828   -7.8490   24.2876 C   0  0  0  0  0  0  0  0  0  0  0  0
  -23.5241  -24.3018   22.1769 C   0  0  0  0  0  0  0  0  0  0  0  0
  -20.4982   -6.0649   25.2488 C   0  0  0  0  0  0  0  0  0  0  0  0
  -23.9168  -10.4486   21.0392 C   0  0  0  0  0  0  0  0  0  0  0  0
  -24.1067  -12.9730   20.7245 C   0  0  0  0  0  0  0  0  0  0  0  0
  -21.6586  -25.3418   13.3143 C   0  0  0  0  0  0  0  0  0  0  0  0
  -29.8638  -20.3961   18.7084 C   0  0  0  0  0  0  0  0  0  0  0  0
  -21.6950  -24.5672   20.6136 C   0  0  0  0  0  0  0  0  0  0  0  0
  -31.4164  -19.0618   20.0340 C   0  0  0  0  0  0  0  0  0  0  0  0
  -21.9964  -24.7144   14.5286 C   0  0  0  0  0  0  0  0  0  0  0  0
  -22.8387  -25.0864   21.2369 C   0  0  0  0  0  0  0  0  0  0  0  0
  -30.1342  -19.4356   19.6807 C   0  0  0  0  0  0  0  0  0  0  0  0
  -22.5494   -8.0958   21.6535 C   0  0  0  0  0  0  0  0  0  0  0  0
  -23.0709  -23.0235   22.5019 C   0  0  0  0  0  0  0  0  0  0  0  0
  -21.0693   -6.9505   23.0748 C   0  0  0  0  0  0  0  0  0  0  0  0
  -19.4309   -6.9591   25.3327 C   0  0  0  0  0  0  0  0  0  0  0  0
  -21.3174   -6.0606   24.1198 C   0  0  0  0  0  0  0  0  0  0  0  0
  -24.6236  -11.6635   20.7224 C   0  0  0  0  0  0  0  0  0  0  0  0
  -25.1691  -13.7621   20.3569 C   0  0  0  0  0  0  0  0  0  0  0  0
  -22.7845  -13.4347   21.0315 C   0  0  0  0  0  0  0  0  0  0  0  0
  -22.7228  -25.9407   17.9376 C   0  0  0  0  0  0  0  0  0  0  0  0
  -27.8965  -17.8939   22.3218 C   0  0  0  0  0  0  0  0  0  0  0  0
  -22.7182  -28.6169   19.7707 C   0  0  0  0  0  0  0  0  0  0  0  0
  -22.8651  -29.9917   22.8909 C   0  0  0  0  0  0  0  0  0  0  0  0
  -30.9070  -14.1307   21.0316 C   0  0  0  0  0  0  0  0  0  0  0  0
  -22.2712  -26.6574   12.9037 C   0  0  0  0  0  0  0  0  0  0  0  0
  -28.3915  -20.6612   18.6516 C   0  0  0  0  0  0  0  0  0  0  0  0
  -20.9265  -25.3950   19.6204 C   0  0  0  0  0  0  0  0  0  0  0  0
  -23.3589  -26.4637   20.9189 C   0  0  0  0  0  0  0  0  0  0  0  0
  -31.6105  -18.1722   21.2232 C   0  0  0  0  0  0  0  0  0  0  0  0
  -22.9050  -27.4222   14.0629 C   0  0  0  0  0  0  0  0  0  0  0  0
  -27.9377  -20.0892   20.0178 C   0  0  0  0  0  0  0  0  0  0  0  0
  -29.4426  -12.9745   17.9992 C   0  0  0  0  0  0  0  0  0  0  0  0
  -23.7696  -26.4915   14.9073 C   0  0  0  0  0  0  0  0  0  0  0  0
  -28.0027  -12.6403   18.3925 C   0  0  0  0  0  0  0  0  0  0  0  0
  -30.4263  -12.6345   19.1167 C   0  0  0  0  0  0  0  0  0  0  0  0
  -28.6648  -12.8959   20.8204 C   0  0  0  0  0  0  0  0  0  0  0  0
  -28.8822  -18.9073   20.3012 C   0  0  2  0  0  0  0  0  0  0  0  0
  -22.9293  -25.3674   15.5253 C   0  0  1  0  0  0  0  0  0  0  0  0
  -21.7731  -26.4835   18.9677 C   0  0  1  0  0  0  0  0  0  0  0  0
  -29.1246  -18.5379   21.7627 C   0  0  2  0  0  0  0  0  0  0  0  0
  -27.6300  -13.2732   19.7467 C   0  0  2  0  0  0  0  0  0  0  0  0
  -22.8775  -32.2076   24.0686 C   0  0  0  0  0  0  0  0  0  0  0  0
  -25.6243  -29.0385   18.9419 C   0  0  0  0  0  0  0  0  0  0  0  0
  -25.8569  -30.6581   20.8369 C   0  0  0  0  0  0  0  0  0  0  0  0
  -24.2414  -31.1217   18.9935 C   0  0  0  0  0  0  0  0  0  0  0  0
  -20.3771  -29.3548   24.3616 C   0  0  0  0  0  0  0  0  0  0  0  0
  -24.9512  -18.7039   23.6471 C   0  0  0  0  0  0  0  0  0  0  0  0
  -24.9616  -20.2233   23.8187 C   0  0  0  0  0  0  0  0  0  0  0  0
  -26.2298  -18.0492   24.1604 C   0  0  0  0  0  0  0  0  0  0  0  0
  -31.2348  -15.6060   23.0001 C   0  0  0  0  0  0  0  0  0  0  0  0
  -30.5732  -16.9632   23.1508 C   0  0  0  0  0  0  0  0  0  0  0  0
  -23.6930  -20.8578   23.2626 C   0  0  0  0  0  0  0  0  0  1  0  0
  -23.7220  -29.3000   20.6679 C   0  0  1  0  0  0  0  0  0  0  0  0
  -22.0194  -31.0586   23.5624 C   0  0  2  0  0  0  0  0  0  0  0  0
  -24.8527  -30.0028   19.8648 C   0  0  0  0  0  0  0  0  0  0  0  0
  -25.9140  -11.6191   20.3804 N   0  0  0  0  0  0  0  0  0  0  0  0
  -26.2168  -12.9104   20.1641 N   0  0  0  0  0  0  0  0  0  0  0  0
  -22.5763  -27.2319   19.9367 N   0  0  0  0  0  0  0  0  0  0  0  0
  -30.0166  -13.2666   20.3731 N   0  0  0  0  0  0  0  0  0  0  0  0
  -25.2999  -15.0944   20.1829 N   0  0  0  0  0  0  0  0  0  0  0  0
  -21.8135  -12.4901   21.3909 N   0  0  0  0  0  0  0  0  0  0  0  0
  -22.1875  -25.8597   16.6662 N   0  0  0  0  0  0  0  0  0  0  0  0
  -27.4078  -18.5074   23.4595 N   0  0  0  0  0  0  0  0  0  0  0  0
  -22.9568  -30.1942   21.5301 N   0  0  0  0  0  0  0  0  0  0  0  0
  -30.4374  -14.6924   22.2126 N   0  0  0  0  0  0  0  0  0  0  0  0
  -30.3170  -17.5595   21.7902 N   0  3  2  0  0  0  0  0  0  0  0  0
  -21.2785  -30.4803   24.7189 N   0  3  0  0  0  0  0  0  0  0  0  0
  -22.4690  -14.6474   20.9723 O   0  0  0  0  0  0  0  0  0  0  0  0
  -23.8576  -25.6206   18.2713 O   0  0  0  0  0  0  0  0  0  0  0  0
  -27.4217  -16.9117   21.7635 O   0  0  0  0  0  0  0  0  0  0  0  0
  -22.0783  -29.2886   18.9578 O   0  0  0  0  0  0  0  0  0  0  0  0
  -23.3948  -29.0728   23.5120 O   0  0  0  0  0  0  0  0  0  0  0  0
  -32.0347  -14.3870   20.5964 O   0  0  0  0  0  0  0  0  0  0  0  0
  -21.8821   -6.9481   21.9536 O   0  0  0  0  0  0  0  0  0  0  0  0
  -23.7494  -22.2689   23.4232 O   0  0  0  0  0  0  0  0  0  1  0  0
  -18.6451   -6.9644   26.4174 F   0  0  0  0  0  0  0  0  0  0  0  0
  -22.3419   -5.2000   24.0454 F   0  0  0  0  0  0  0  0  0  0  0  0
  1  2  1  0  0  0  0
  1  6  2  0  0  0  0
  2  7  2  0  0  0  0
  3  8  2  0  0  0  0
  3  9  1  0  0  0  0
  4 11  2  0  0  0  0
  4 18  1  0  0  0  0
  5 12  1  0  0  0  0
  5 18  2  0  0  0  0
  6 20  1  0  0  0  0
  7 24  1  0  0  0  0
  8 21  1  0  0  0  0
  9 23  2  0  0  0  0
 10 13  2  0  0  0  0
 10 22  1  0  0  0  0
 11 27  1  0  0  0  0
 12 27  2  0  0  0  0
 13 28  1  0  0  0  0
 14 15  2  0  0  0  0
 14 29  1  0  0  0  0
 15 30  1  0  0  0  0
 16 25  1  0  0  0  0
 16 28  2  0  0  0  0
 17 30  2  0  0  0  0
 17 31  1  0  0  0  0
 18 32  1  0  0  0  0
 19 32  1  0  0  0  0
 19 33  2  0  0  0  0
 19 34  1  0  0  0  0
 20 24  2  0  0  0  0
 20 40  1  0  0  0  0
 21 26  2  0  0  0  0
 21 41  1  0  0  0  0
 22 25  2  0  0  0  0
 22 42  1  0  0  0  0
 23 26  1  0  0  0  0
 23 44  1  0  0  0  0
 24 53  1  0  0  0  0
 25 43  1  0  0  0  0
 26 52  1  0  0  0  0
 27 89  1  0  0  0  0
 28 90  1  0  0  0  0
 29 31  2  0  0  0  0
 29 89  1  0  0  0  0
 30 91  1  0  0  0  0
 31 92  1  0  0  0  0
 32 71  2  0  0  0  0
 33 72  1  0  0  0  0
 33 75  1  0  0  0  0
 34 76  1  0  0  0  0
 34 83  2  0  0  0  0
 35 54  1  0  0  0  0
 35 77  1  0  0  0  0
 35 84  2  0  0  0  0
 36 55  1  0  0  0  0
 36 78  1  0  0  0  0
 36 85  2  0  0  0  0
 37 68  1  0  0  0  0
 37 73  1  0  0  0  0
 37 86  2  0  0  0  0
 38 69  1  0  0  0  0
 38 79  1  0  0  0  0
 38 87  2  0  0  0  0
 39 74  1  0  0  0  0
 39 80  1  0  0  0  0
 39 88  2  0  0  0  0
 40 45  1  0  0  0  0
 41 46  1  0  0  0  0
 42 54  1  0  0  0  0
 43 73  1  0  0  0  0
 44 81  1  0  0  0  0
 45 48  1  0  0  0  0
 46 52  1  0  0  0  0
 47 49  1  0  0  0  0
 47 50  1  0  0  0  0
 48 53  1  0  0  0  0
 49 56  1  0  0  0  0
 50 74  1  0  0  0  0
 51 56  1  0  0  0  0
 51 74  1  0  0  0  0
 52 55  1  0  0  0  0
 53 77  1  0  0  0  0
 54 73  1  0  0  0  0
 55 81  1  0  0  0  0
 56 72  1  0  0  0  0
 57 69  1  0  0  0  0
 58 70  1  0  0  0  0
 59 70  1  0  0  0  0
 60 70  1  0  0  0  0
 61 82  1  0  0  0  0
 62 63  1  0  0  0  0
 62 64  1  0  0  0  0
 63 67  1  0  0  0  0
 64 78  1  0  0  0  0
 65 66  1  0  0  0  0
 65 80  1  0  0  0  0
 66 81  1  0  0  0  0
 67 90  1  0  0  0  0
 68 70  1  0  0  0  0
 68 79  1  0  0  0  0
 69 82  1  0  0  0  0
 71 72  1  0  0  0  0
M  CHG  2  81   1  82   1
M  ISO  4  39 100  67 101  80 100  90 101
M  END
> <Batch ID>
0004

> <Smiles>
CNC(C)C(=O)NC(C(=O)N1Cc2cc([101O:1][101CH2:1]CCCNC(=O)C3C4CCc5cccc(c54)CN3CC[100NH:0][100C:0](=O)N3CCCC(n4nc(-c5ccc(Oc6ccc(F)cc6F)cc5)c(C(N)=O)c4N)C3)ccc2CC1C(=O)NC1CCCc2ccccc21)C(C)(C)C

> <Shape>
0.269

> <Color>
0.187

> <Negative vol penalty>
0.000

$$$$

  -OEChem-04042320233D

 80 88  0     1  0  0  0  0  0999 V2000
  -29.0877  -20.7809   21.4940 C   0  0  0  0  0  0  0  0  0  0  0  0
  -28.3359  -21.7058   21.6434 C   0  0  0  0  0  0  0  0  0  0  0  0
  -28.1912  -32.2095   27.2334 C   0  0  0  0  0  0  0  0  0  0  0  0
  -28.1433  -30.8760   26.8396 C   0  0  0  0  0  0  0  0  0  0  0  0
  -32.2261  -18.7819   21.3469 C   0  0  0  0  0  0  0  0  0  0  0  0
  -31.3522  -19.8553   21.5194 C   0  0  0  0  0  0  0  0  0  0  0  0
  -23.1393   -9.8624   21.5713 C   0  0  0  0  0  0  0  0  0  0  0  0
  -23.7211  -11.0455   23.5959 C   0  0  0  0  0  0  0  0  0  0  0  0
  -27.1042  -33.0472   26.9874 C   0  0  0  0  0  0  0  0  0  0  0  0
  -27.0079  -30.3793   26.2006 C   0  0  0  0  0  0  0  0  0  0  0  0
  -28.1381  -27.5080   22.1852 C   0  0  0  0  0  0  0  0  0  0  0  0
  -31.7312  -17.5330   20.9714 C   0  0  0  0  0  0  0  0  0  0  0  0
  -22.4072   -8.9410   22.3200 C   0  0  0  0  0  0  0  0  0  0  0  0
  -22.9889  -10.1241   24.3446 C   0  0  0  0  0  0  0  0  0  0  0  0
  -28.5601  -26.2028   22.4343 C   0  0  0  0  0  0  0  0  0  0  0  0
  -23.0374   -6.2392   24.2506 C   0  0  0  0  0  0  0  0  0  0  0  0
  -23.2013   -4.8865   23.9522 C   0  0  0  0  0  0  0  0  0  0  0  0
  -29.4885  -18.4308   20.9409 C   0  0  0  0  0  0  0  0  0  0  0  0
  -26.3450  -25.3955   21.9234 C   0  0  0  0  0  0  0  0  0  0  0  0
  -20.8473   -4.7152   23.4359 C   0  0  0  0  0  0  0  0  0  0  0  0
  -29.9834  -19.6797   21.3164 C   0  0  0  0  0  0  0  0  0  0  0  0
  -23.7963  -10.9146   22.2092 C   0  0  0  0  0  0  0  0  0  0  0  0
  -24.0838  -13.0668   20.8701 C   0  0  0  0  0  0  0  0  0  0  0  0
  -25.9587  -32.5629   26.3364 C   0  0  0  0  0  0  0  0  0  0  0  0
  -26.8113  -27.7684   21.8133 C   0  0  0  0  0  0  0  0  0  0  0  0
  -25.9040  -31.2110   25.9469 C   0  0  0  0  0  0  0  0  0  0  0  0
  -25.9093  -26.7047   21.6677 C   0  0  0  0  0  0  0  0  0  0  0  0
  -30.3624  -17.3574   20.7684 C   0  0  0  0  0  0  0  0  0  0  0  0
  -22.3320   -9.0718   23.7067 C   0  0  0  0  0  0  0  0  0  0  0  0
  -27.6628  -25.1466   22.3062 C   0  0  0  0  0  0  0  0  0  0  0  0
  -21.7784   -6.8298   24.1417 C   0  0  0  0  0  0  0  0  0  0  0  0
  -22.1062   -4.1245   23.5448 C   0  0  0  0  0  0  0  0  0  0  0  0
  -20.6834   -6.0679   23.7344 C   0  0  0  0  0  0  0  0  0  0  0  0
  -24.5532  -11.8664   21.4364 C   0  0  0  0  0  0  0  0  0  0  0  0
  -25.1817  -13.6027   20.2425 C   0  0  0  0  0  0  0  0  0  0  0  0
  -22.7727  -13.6456   20.9081 C   0  0  0  0  0  0  0  0  0  0  0  0
  -24.4105  -29.4233   23.0787 C   0  0  0  0  0  0  0  0  0  0  0  0
  -22.9387  -28.6780   20.2857 C   0  0  0  0  0  0  0  0  0  0  0  0
  -22.7083  -26.5836   17.6011 C   0  0  0  0  0  0  0  0  0  0  0  0
  -30.5910  -14.9208   20.1710 C   0  0  0  0  0  0  0  0  0  0  0  0
  -24.7899  -33.4945   26.1346 C   0  0  0  0  0  0  0  0  0  0  0  0
  -26.3787  -29.1792   21.5222 C   0  0  0  0  0  0  0  0  0  0  0  0
  -24.4794  -26.9289   21.2512 C   0  0  0  0  0  0  0  0  0  0  0  0
  -23.7729  -32.9842   25.1170 C   0  0  0  0  0  0  0  0  0  0  0  0
  -29.7211  -11.5913   19.2573 C   0  0  0  0  0  0  0  0  0  0  0  0
  -23.4491  -31.5163   25.3759 C   0  0  0  0  0  0  0  0  0  0  0  0
  -28.2604  -11.4648   19.6961 C   0  0  0  0  0  0  0  0  0  0  0  0
  -30.5356  -12.4372   20.2343 C   0  0  0  0  0  0  0  0  0  0  0  0
  -28.5113  -13.6343   20.9679 C   0  0  0  0  0  0  0  0  0  0  0  0
  -24.6998  -30.6412   25.2290 C   0  0  1  0  0  0  0  0  0  0  0  0
  -24.8718  -29.3804   21.6493 C   0  0  1  0  0  0  0  0  0  0  0  0
  -27.6360  -12.8449   19.9808 C   0  0  2  0  0  0  0  0  0  0  0  0
  -21.3838  -26.2089   15.5029 C   0  0  0  0  0  0  0  0  0  0  0  0
  -20.6334  -27.5611   21.9433 C   0  0  0  0  0  0  0  0  0  0  0  0
  -19.8224  -26.3786   19.8910 C   0  0  0  0  0  0  0  0  0  0  0  0
  -19.9328  -28.8703   19.9309 C   0  0  0  0  0  0  0  0  0  0  0  0
  -25.1027  -26.9114   15.8928 C   0  0  0  0  0  0  0  0  0  0  0  0
  -27.4191  -22.8306   21.8240 C   0  0  0  0  0  0  0  0  0  1  0  0
  -22.0768  -27.5366   19.8028 C   0  0  1  0  0  0  0  0  0  0  0  0
  -22.6151  -26.8616   16.1117 C   0  0  2  0  0  0  0  0  0  0  0  0
  -20.6427  -27.5823   20.4018 C   0  0  0  0  0  0  0  0  0  0  0  0
  -25.8483  -11.6520   21.1901 N   0  0  0  0  0  0  0  0  0  0  0  0
  -26.2021  -12.7248   20.4621 N   0  0  0  0  0  0  0  0  0  0  0  0
  -24.1028  -28.3268   20.9839 N   0  0  0  0  0  0  0  0  0  0  0  0
  -29.8859  -13.7315   20.4524 N   0  0  0  0  0  0  0  0  0  0  0  0
  -25.3642  -14.7344   19.5296 N   0  0  0  0  0  0  0  0  0  0  0  0
  -21.7607  -12.9631   21.5968 N   0  0  0  0  0  0  0  0  0  0  0  0
  -29.8603  -16.0889   20.3857 N   0  0  0  0  0  0  0  0  0  0  0  0
  -25.0010  -30.4209   23.8307 N   0  0  0  0  0  0  0  0  0  0  0  0
  -22.1174  -27.5828   18.3452 N   0  0  0  0  0  0  0  0  0  0  0  0
  -23.8206  -26.3366   15.4103 N   0  3  0  0  0  0  0  0  0  0  0  0
  -22.5024  -14.7277   20.3340 O   0  0  0  0  0  0  0  0  0  0  0  0
  -23.5793  -28.6124   23.4699 O   0  0  0  0  0  0  0  0  0  0  0  0
  -22.5957  -29.8384   20.0458 O   0  0  0  0  0  0  0  0  0  0  0  0
  -23.2479  -25.5785   18.0586 O   0  0  0  0  0  0  0  0  0  0  0  0
  -31.7481  -14.9035   19.7434 O   0  0  0  0  0  0  0  0  0  0  0  0
  -21.6175   -8.1731   24.4376 O   0  0  0  0  0  0  0  0  0  0  0  0
  -28.0719  -23.8717   22.5494 O   0  0  0  0  0  0  0  0  0  1  0  0
  -22.2641   -2.8259   23.2569 F   0  0  0  0  0  0  0  0  0  0  0  0
  -19.4717   -6.6300   23.6268 F   0  0  0  0  0  0  0  0  0  0  0  0
  1  2  3  0  0  0  0
  1 21  1  0  0  0  0
  2 58  1  0  0  0  0
  3  4  1  0  0  0  0
  3  9  2  0  0  0  0
  4 10  2  0  0  0  0
  5  6  2  0  0  0  0
  5 12  1  0  0  0  0
  6 21  1  0  0  0  0
  7 13  2  0  0  0  0
  7 22  1  0  0  0  0
  8 14  1  0  0  0  0
  8 22  2  0  0  0  0
  9 24  1  0  0  0  0
 10 26  1  0  0  0  0
 11 15  2  0  0  0  0
 11 25  1  0  0  0  0
 12 28  2  0  0  0  0
 13 29  1  0  0  0  0
 14 29  2  0  0  0  0
 15 30  1  0  0  0  0
 16 17  2  0  0  0  0
 16 31  1  0  0  0  0
 17 32  1  0  0  0  0
 18 21  2  0  0  0  0
 18 28  1  0  0  0  0
 19 27  1  0  0  0  0
 19 30  2  0  0  0  0
 20 32  2  0  0  0  0
 20 33  1  0  0  0  0
 22 34  1  0  0  0  0
 23 34  1  0  0  0  0
 23 35  2  0  0  0  0
 23 36  1  0  0  0  0
 24 26  2  0  0  0  0
 24 41  1  0  0  0  0
 25 27  2  0  0  0  0
 25 42  1  0  0  0  0
 26 50  1  0  0  0  0
 27 43  1  0  0  0  0
 28 68  1  0  0  0  0
 29 77  1  0  0  0  0
 30 78  1  0  0  0  0
 31 33  2  0  0  0  0
 31 77  1  0  0  0  0
 32 79  1  0  0  0  0
 33 80  1  0  0  0  0
 34 62  2  0  0  0  0
 35 63  1  0  0  0  0
 35 66  1  0  0  0  0
 36 67  1  0  0  0  0
 36 72  2  0  0  0  0
 37 51  1  0  0  0  0
 37 69  1  0  0  0  0
 37 73  2  0  0  0  0
 38 59  1  0  0  0  0
 38 64  1  0  0  0  0
 38 74  2  0  0  0  0
 39 60  1  0  0  0  0
 39 70  1  0  0  0  0
 39 75  2  0  0  0  0
 40 65  1  0  0  0  0
 40 68  1  0  0  0  0
 40 76  2  0  0  0  0
 41 44  1  0  0  0  0
 42 51  1  0  0  0  0
 43 64  1  0  0  0  0
 44 46  1  0  0  0  0
 45 47  1  0  0  0  0
 45 48  1  0  0  0  0
 46 50  1  0  0  0  0
 47 52  1  0  0  0  0
 48 65  1  0  0  0  0
 49 52  1  0  0  0  0
 49 65  1  0  0  0  0
 50 69  1  0  0  0  0
 51 64  1  0  0  0  0
 52 63  1  0  0  0  0
 53 60  1  0  0  0  0
 54 61  1  0  0  0  0
 55 61  1  0  0  0  0
 56 61  1  0  0  0  0
 57 71  1  0  0  0  0
 58 78  1  0  0  0  0
 59 61  1  0  0  0  0
 59 70  1  0  0  0  0
 60 71  1  0  0  0  0
 62 63  1  0  0  0  0
M  CHG  1  71   1
M  ISO  4  40 100  58 101  68 100  78 101
M  END
> <Batch ID>
0004

> <Smiles>
CNC(C)C(=O)NC(C(=O)N1Cc2cc([101O:1][101CH2:1]C#Cc3cccc([100NH:0][100C:0](=O)N4CCCC(n5nc(-c6ccc(Oc7ccc(F)cc7F)cc6)c(C(N)=O)c5N)C4)c3)ccc2CC1C(=O)NC1CCCc2ccccc21)C(C)(C)C

> <Shape>
0.287

> <Color>
0.161

> <Negative vol penalty>
0.000

$$$$

  -OEChem-04042320233D

 97107  0     1  0  0  0  0  0999 V2000
  -18.5151  -26.8381   23.2086 C   0  0  0  0  0  0  0  0  0  0  0  0
  -19.3001  -26.4837   22.1160 C   0  0  0  0  0  0  0  0  0  0  0  0
  -22.9401  -16.9351   21.0324 C   0  0  0  0  0  0  0  0  0  0  0  0
  -22.9966  -14.6819   21.9025 C   0  0  0  0  0  0  0  0  0  0  0  0
  -27.4844  -17.9936   17.9579 C   0  0  0  0  0  0  0  0  0  0  0  0
  -18.5592  -28.1406   23.7039 C   0  0  0  0  0  0  0  0  0  0  0  0
  -20.1287  -27.4320   21.5174 C   0  0  0  0  0  0  0  0  0  0  0  0
  -24.7528  -25.6215   20.5249 C   0  0  0  0  0  0  0  0  0  0  0  0
  -28.1044  -17.1998   18.9228 C   0  0  0  0  0  0  0  0  0  0  0  0
  -21.9889  -17.2818   21.9920 C   0  0  0  0  0  0  0  0  0  0  0  0
  -22.0455  -15.0286   22.8621 C   0  0  0  0  0  0  0  0  0  0  0  0
  -24.8896  -24.8047   19.4033 C   0  0  0  0  0  0  0  0  0  0  0  0
  -21.9400  -18.0698   25.2797 C   0  0  0  0  0  0  0  0  0  0  0  0
  -22.1172  -19.2729   25.9629 C   0  0  0  0  0  0  0  0  0  0  0  0
  -29.3900  -19.1059   19.6651 C   0  0  0  0  0  0  0  0  0  0  0  0
  -25.7577  -26.6764   18.1534 C   0  0  0  0  0  0  0  0  0  0  0  0
  -19.9911  -20.0602   25.1278 C   0  0  0  0  0  0  0  0  0  0  0  0
  -23.4439  -15.6351   20.9877 C   0  0  0  0  0  0  0  0  0  0  0  0
  -27.8173  -19.3436   17.8466 C   0  0  0  0  0  0  0  0  0  0  0  0
  -24.2817  -15.3332   18.5972 C   0  0  0  0  0  0  0  0  0  0  0  0
  -19.3960  -29.1029   23.1171 C   0  0  0  0  0  0  0  0  0  0  0  0
  -25.1078  -26.9768   20.4658 C   0  0  0  0  0  0  0  0  0  0  0  0
  -20.1830  -28.7490   22.0045 C   0  0  0  0  0  0  0  0  0  0  0  0
  -28.7701  -19.8998   18.7002 C   0  0  0  0  0  0  0  0  0  0  0  0
  -25.6269  -27.5077   19.2763 C   0  0  0  0  0  0  0  0  0  0  0  0
  -29.0571  -17.7559   19.7764 C   0  0  0  0  0  0  0  0  0  0  0  0
  -21.5416  -16.3286   22.9068 C   0  0  0  0  0  0  0  0  0  0  0  0
  -25.3894  -25.3328   18.2165 C   0  0  0  0  0  0  0  0  0  0  0  0
  -20.7885  -17.8619   24.5205 C   0  0  0  0  0  0  0  0  0  0  0  0
  -21.1427  -20.2681   25.8870 C   0  0  0  0  0  0  0  0  0  0  0  0
  -19.8140  -18.8570   24.4446 C   0  0  0  0  0  0  0  0  0  0  0  0
  -24.4260  -15.2762   19.9964 C   0  0  0  0  0  0  0  0  0  0  0  0
  -25.4871  -14.8909   18.1094 C   0  0  0  0  0  0  0  0  0  0  0  0
  -27.1415  -20.1658   16.8100 C   0  0  0  0  0  0  0  0  0  0  0  0
  -23.1586  -15.7490   17.8089 C   0  0  0  0  0  0  0  0  0  0  0  0
  -23.5465  -29.7223   20.8242 C   0  0  0  0  0  0  0  0  0  0  0  0
  -26.5182  -30.9966   20.5653 C   0  0  0  0  0  0  0  0  0  0  0  0
  -29.7236  -30.6680   19.4409 C   0  0  0  0  0  0  0  0  0  0  0  0
  -30.9892  -14.8027   20.2059 C   0  0  0  0  0  0  0  0  0  0  0  0
  -19.3744  -30.5106   23.6579 C   0  0  0  0  0  0  0  0  0  0  0  0
  -24.9794  -27.8383   21.6922 C   0  0  0  0  0  0  0  0  0  0  0  0
  -26.0415  -28.9515   19.1668 C   0  0  0  0  0  0  0  0  0  0  0  0
  -20.5596  -31.3570   23.2008 C   0  0  0  0  0  0  0  0  0  0  0  0
  -30.6343  -23.8066   19.3747 C   0  0  0  0  0  0  0  0  0  0  0  0
  -30.9880  -23.0378   18.1052 C   0  0  0  0  0  0  0  0  0  0  0  0
  -29.1684  -23.6214   19.7547 C   0  0  0  0  0  0  0  0  0  0  0  0
  -34.4028  -17.2934   20.3155 C   0  0  0  0  0  0  0  0  0  0  0  0
  -34.0850  -17.3266   18.8191 C   0  0  0  0  0  0  0  0  0  0  0  0
  -29.1576  -12.0359   19.1977 C   0  0  0  0  0  0  0  0  0  0  0  0
  -30.6295  -21.5576   18.2238 C   0  0  0  0  0  0  0  0  0  0  0  0
  -28.8008  -22.1441   19.8814 C   0  0  0  0  0  0  0  0  0  0  0  0
  -20.7826  -31.1972   21.7003 C   0  0  0  0  0  0  0  0  0  0  0  0
  -27.7177  -12.5454   19.1514 C   0  0  0  0  0  0  0  0  0  0  0  0
  -33.1734  -16.6992   20.9965 C   0  0  0  0  0  0  0  0  0  0  0  0
  -32.6793  -16.7514   18.6717 C   0  0  0  0  0  0  0  0  0  0  0  0
  -29.8933  -12.5928   20.4107 C   0  0  0  0  0  0  0  0  0  0  0  0
  -28.4673  -14.6145   20.4296 C   0  0  0  0  0  0  0  0  0  0  0  0
  -29.1498  -21.3617   18.6020 C   0  0  0  0  0  0  0  0  0  0  0  0
  -21.1132  -29.7430   21.3435 C   0  0  1  0  0  0  0  0  0  0  0  0
  -24.8893  -29.3267   21.3700 C   0  0  1  0  0  0  0  0  0  0  0  0
  -27.6744  -14.0821   19.2184 C   0  0  2  0  0  0  0  0  0  0  0  0
  -32.0385  -17.0055   20.0293 C   0  0  0  0  0  0  0  0  0  0  0  0
  -28.9336  -18.3427   22.7854 C   0  0  0  0  0  0  0  0  0  0  0  0
  -31.9129  -31.8908   19.3456 C   0  0  0  0  0  0  0  0  0  0  0  0
  -25.4263  -32.7731   18.3377 C   0  0  0  0  0  0  0  0  0  0  0  0
  -27.7876  -33.2549   17.6595 C   0  0  0  0  0  0  0  0  0  0  0  0
  -26.9806  -33.9244   19.9229 C   0  0  0  0  0  0  0  0  0  0  0  0
  -31.0996  -28.5633   21.0016 C   0  0  0  0  0  0  0  0  0  0  0  0
  -30.1207  -17.7124   22.0675 C   0  0  0  0  0  0  0  0  0  0  0  0
  -25.3339  -22.4686   15.9198 C   0  0  0  0  0  0  0  0  0  0  0  0
  -24.9604  -20.9931   15.9648 C   0  0  0  0  0  0  0  0  0  0  0  0
  -25.1324  -23.1722   17.2565 C   0  0  0  0  0  0  0  0  0  1  0  0
  -29.7193  -16.9072   20.8089 C   0  0  2  0  0  0  0  0  0  0  0  0
  -27.3790  -31.4784   19.4225 C   0  0  1  0  0  0  0  0  0  0  0  0
  -31.0594  -30.9012   20.1234 C   0  0  2  0  0  0  0  0  0  0  0  0
  -26.8838  -32.8309   18.8368 C   0  0  0  0  0  0  0  0  0  0  0  0
  -25.6281  -14.8324   20.3731 N   0  0  0  0  0  0  0  0  0  0  0  0
  -26.2502  -14.6065   19.2034 N   0  0  0  0  0  0  0  0  0  0  0  0
  -25.8909  -29.7548   20.3914 N   0  0  0  0  0  0  0  0  0  0  0  0
  -29.8273  -14.0541   20.4453 N   0  0  0  0  0  0  0  0  0  0  0  0
  -25.9580  -14.7212   16.8556 N   0  0  0  0  0  0  0  0  0  0  0  0
  -21.9986  -16.1743   18.4706 N   0  0  0  0  0  0  0  0  0  0  0  0
  -25.7573  -20.2558   16.9058 N   0  0  0  0  0  0  0  0  0  0  0  0
  -22.4906  -29.4429   21.6707 N   0  0  0  0  0  0  0  0  0  0  0  0
  -28.7472  -31.5112   19.9277 N   0  0  0  0  0  0  0  0  0  0  0  0
  -30.8744  -16.2001   20.2590 N   0  0  0  0  0  0  0  0  0  0  0  0
  -31.8125  -29.6205   20.2392 N   0  3  0  0  0  0  0  0  0  0  0  0
  -27.8157  -20.6951   15.9303 O   0  0  0  0  0  0  0  0  0  0  0  0
  -23.1772  -15.7280   16.5548 O   0  0  0  0  0  0  0  0  0  0  0  0
  -23.4738  -30.2438   19.7177 O   0  0  0  0  0  0  0  0  0  0  0  0
  -26.4122  -31.6931   21.5779 O   0  0  0  0  0  0  0  0  0  0  0  0
  -29.5633  -29.8249   18.5611 O   0  0  0  0  0  0  0  0  0  0  0  0
  -32.0723  -14.2539   19.9655 O   0  0  0  0  0  0  0  0  0  0  0  0
  -20.6137  -16.6666   23.8434 O   0  0  0  0  0  0  0  0  0  0  0  0
  -25.5232  -24.5378   17.1202 O   0  0  0  0  0  0  0  0  0  1  0  0
  -21.3123  -21.4227   26.5444 F   0  0  0  0  0  0  0  0  0  0  0  0
  -18.7051  -18.6626   23.7178 F   0  0  0  0  0  0  0  0  0  0  0  0
  1  2  1  0  0  0  0
  1  6  2  0  0  0  0
  2  7  2  0  0  0  0
  3 10  2  0  0  0  0
  3 18  1  0  0  0  0
  4 11  1  0  0  0  0
  4 18  2  0  0  0  0
  5  9  2  0  0  0  0
  5 19  1  0  0  0  0
  6 21  1  0  0  0  0
  7 23  1  0  0  0  0
  8 12  2  0  0  0  0
  8 22  1  0  0  0  0
  9 26  1  0  0  0  0
 10 27  1  0  0  0  0
 11 27  2  0  0  0  0
 12 28  1  0  0  0  0
 13 14  2  0  0  0  0
 13 29  1  0  0  0  0
 14 30  1  0  0  0  0
 15 24  1  0  0  0  0
 15 26  2  0  0  0  0
 16 25  1  0  0  0  0
 16 28  2  0  0  0  0
 17 30  2  0  0  0  0
 17 31  1  0  0  0  0
 18 32  1  0  0  0  0
 19 24  2  0  0  0  0
 19 34  1  0  0  0  0
 20 32  1  0  0  0  0
 20 33  2  0  0  0  0
 20 35  1  0  0  0  0
 21 23  2  0  0  0  0
 21 40  1  0  0  0  0
 22 25  2  0  0  0  0
 22 41  1  0  0  0  0
 23 59  1  0  0  0  0
 24 58  1  0  0  0  0
 25 42  1  0  0  0  0
 26 73  1  0  0  0  0
 27 94  1  0  0  0  0
 28 95  1  0  0  0  0
 29 31  2  0  0  0  0
 29 94  1  0  0  0  0
 30 96  1  0  0  0  0
 31 97  1  0  0  0  0
 32 77  2  0  0  0  0
 33 78  1  0  0  0  0
 33 81  1  0  0  0  0
 34 83  1  0  0  0  0
 34 88  2  0  0  0  0
 35 82  1  0  0  0  0
 35 89  2  0  0  0  0
 36 60  1  0  0  0  0
 36 84  1  0  0  0  0
 36 90  2  0  0  0  0
 37 74  1  0  0  0  0
 37 79  1  0  0  0  0
 37 91  2  0  0  0  0
 38 75  1  0  0  0  0
 38 85  1  0  0  0  0
 38 92  2  0  0  0  0
 39 80  1  0  0  0  0
 39 86  1  0  0  0  0
 39 93  2  0  0  0  0
 40 43  1  0  0  0  0
 41 60  1  0  0  0  0
 42 79  1  0  0  0  0
 43 52  1  0  0  0  0
 44 45  1  0  0  0  0
 44 46  1  0  0  0  0
 45 50  1  0  0  0  0
 46 51  1  0  0  0  0
 47 48  1  0  0  0  0
 47 54  1  0  0  0  0
 48 55  1  0  0  0  0
 49 53  1  0  0  0  0
 49 56  1  0  0  0  0
 50 58  1  0  0  0  0
 51 58  1  0  0  0  0
 52 59  1  0  0  0  0
 53 61  1  0  0  0  0
 54 62  1  0  0  0  0
 55 62  1  0  0  0  0
 56 80  1  0  0  0  0
 57 61  1  0  0  0  0
 57 80  1  0  0  0  0
 59 84  1  0  0  0  0
 60 79  1  0  0  0  0
 61 78  1  0  0  0  0
 62 86  1  0  0  0  0
 63 69  1  0  0  0  0
 64 75  1  0  0  0  0
 65 76  1  0  0  0  0
 66 76  1  0  0  0  0
 67 76  1  0  0  0  0
 68 87  1  0  0  0  0
 69 73  1  0  0  0  0
 70 71  1  0  0  0  0
 70 72  1  0  0  0  0
 71 83  1  0  0  0  0
 72 95  1  0  0  0  0
 73 86  1  0  0  0  0
 74 76  1  0  0  0  0
 74 85  1  0  0  0  0
 75 87  1  0  0  0  0
 77 78  1  0  0  0  0
M  CHG  1  87   1
M  ISO  4  39 100  72 101  86 100  95 101
M  END
> <Batch ID>
0004

> <Smiles>
CCC(c1ccc(C(=O)NCC[101CH2:1][101O:1]c2ccc3c(c2)CN(C(=O)C(NC(=O)C(C)NC)C(C)(C)C)C(C(=O)NC2CCCc4ccccc42)C3)c(C2CCCCC2)c1)[100N:0](C1CCCC1)[100C:0](=O)N1CCCC(n2nc(-c3ccc(Oc4ccc(F)cc4F)cc3)c(C(N)=O)c2N)C1

> <Shape>
0.245

> <Color>
0.076

> <Negative vol penalty>
0.000

$$$$

  -OEChem-04042320233D

 86 94  0     1  0  0  0  0  0999 V2000
  -15.5124  -26.4630   22.4819 C   0  0  0  0  0  0  0  0  0  0  0  0
  -16.3401  -26.5612   21.3681 C   0  0  0  0  0  0  0  0  0  0  0  0
  -20.3679  -18.5752   14.8258 C   0  0  0  0  0  0  0  0  0  0  0  0
  -29.1172  -18.4610   21.2731 C   0  0  0  0  0  0  0  0  0  0  0  0
  -28.2938  -17.8569   19.0836 C   0  0  0  0  0  0  0  0  0  0  0  0
  -21.4023  -19.1476   14.0856 C   0  0  0  0  0  0  0  0  0  0  0  0
  -15.6905  -27.3291   23.5599 C   0  0  0  0  0  0  0  0  0  0  0  0
  -17.3458  -27.5264   21.3312 C   0  0  0  0  0  0  0  0  0  0  0  0
  -21.7453  -25.6838   19.6298 C   0  0  0  0  0  0  0  0  0  0  0  0
  -19.9918  -19.1345   16.0470 C   0  0  0  0  0  0  0  0  0  0  0  0
  -29.7930  -17.2436   21.3549 C   0  0  0  0  0  0  0  0  0  0  0  0
  -28.9696  -16.6395   19.1653 C   0  0  0  0  0  0  0  0  0  0  0  0
  -21.8724  -25.5091   18.2525 C   0  0  0  0  0  0  0  0  0  0  0  0
  -30.1843  -13.2208   18.9481 C   0  0  0  0  0  0  0  0  0  0  0  0
  -29.4979  -12.0708   18.5584 C   0  0  0  0  0  0  0  0  0  0  0  0
  -21.6848  -20.8386   15.7880 C   0  0  0  0  0  0  0  0  0  0  0  0
  -23.1073  -27.5765   18.1103 C   0  0  0  0  0  0  0  0  0  0  0  0
  -27.8361  -12.4852   20.2625 C   0  0  0  0  0  0  0  0  0  0  0  0
  -28.3675  -18.7677   20.1375 C   0  0  0  0  0  0  0  0  0  0  0  0
  -22.0608  -20.2793   14.5667 C   0  0  0  0  0  0  0  0  0  0  0  0
  -28.1603  -21.2374   19.5331 C   0  0  0  0  0  0  0  0  0  0  0  0
  -16.7051  -28.2990   23.5403 C   0  0  0  0  0  0  0  0  0  0  0  0
  -22.2898  -26.8136   20.2572 C   0  0  0  0  0  0  0  0  0  0  0  0
  -17.5369  -28.4072   22.4094 C   0  0  0  0  0  0  0  0  0  0  0  0
  -22.9880  -27.7619   19.4961 C   0  0  0  0  0  0  0  0  0  0  0  0
  -20.6503  -20.2662   16.5281 C   0  0  0  0  0  0  0  0  0  0  0  0
  -29.7193  -16.3329   20.3010 C   0  0  0  0  0  0  0  0  0  0  0  0
  -22.5510  -26.4569   17.4921 C   0  0  0  0  0  0  0  0  0  0  0  0
  -29.6967  -14.0030   19.9951 C   0  0  0  0  0  0  0  0  0  0  0  0
  -28.3238  -11.7030   19.2156 C   0  0  0  0  0  0  0  0  0  0  0  0
  -28.5226  -13.6352   20.6522 C   0  0  0  0  0  0  0  0  0  0  0  0
  -27.6687  -20.0249   20.0527 C   0  0  0  0  0  0  0  0  0  0  0  0
  -27.1191  -22.1211   19.6799 C   0  0  0  0  0  0  0  0  0  0  0  0
  -23.1621  -20.8890   13.7777 C   0  0  0  0  0  0  0  0  0  0  0  0
  -29.4433  -21.5380   18.9681 C   0  0  0  0  0  0  0  0  0  0  0  0
  -21.0996  -29.2518   21.9132 C   0  0  0  0  0  0  0  0  0  0  0  0
  -24.2310  -29.9702   22.3608 C   0  0  0  0  0  0  0  0  0  0  0  0
  -27.4512  -29.6993   21.2636 C   0  0  0  0  0  0  0  0  0  0  0  0
  -21.1871  -21.4051   20.0669 C   0  0  0  0  0  0  0  0  0  0  0  0
  -16.8288  -29.2440   24.7092 C   0  0  0  0  0  0  0  0  0  0  0  0
  -22.1672  -26.9739   21.7478 C   0  0  0  0  0  0  0  0  0  0  0  0
  -23.6084  -28.9820   20.1245 C   0  0  0  0  0  0  0  0  0  0  0  0
  -18.1584  -29.9929   24.7490 C   0  0  0  0  0  0  0  0  0  0  0  0
  -23.3109  -22.9954   22.4411 C   0  0  0  0  0  0  0  0  0  0  0  0
  -18.4979  -30.5514   23.3707 C   0  0  0  0  0  0  0  0  0  0  0  0
  -24.7130  -22.5238   22.0513 C   0  0  0  0  0  0  0  0  0  0  0  0
  -22.2697  -21.8965   22.2401 C   0  0  0  0  0  0  0  0  0  0  0  0
  -23.6522  -20.8296   20.5011 C   0  0  0  0  0  0  0  0  0  0  0  0
  -18.6549  -29.4249   22.3423 C   0  0  1  0  0  0  0  0  0  0  0  0
  -22.3165  -28.4209   22.2074 C   0  0  1  0  0  0  0  0  0  0  0  0
  -24.7279  -21.9212   20.6336 C   0  0  2  0  0  0  0  0  0  0  0  0
  -29.7887  -30.4251   21.8174 C   0  0  0  0  0  0  0  0  0  0  0  0
  -23.6132  -32.7628   21.2977 C   0  0  0  0  0  0  0  0  0  0  0  0
  -26.0722  -33.1098   20.9796 C   0  0  0  0  0  0  0  0  0  0  0  0
  -25.1558  -32.7133   23.2655 C   0  0  0  0  0  0  0  0  0  0  0  0
  -28.3664  -26.9037   21.5886 C   0  0  0  0  0  0  0  0  0  0  0  0
  -20.2483  -20.8642   17.8341 C   0  0  0  0  0  0  0  0  0  0  0  0
  -24.5596  -24.5529   14.7324 C   0  0  0  0  0  0  0  0  0  0  0  0
  -24.9134  -23.6981   13.5117 C   0  0  0  0  0  0  0  0  0  0  0  0
  -24.2336  -25.9891   14.3271 C   0  0  0  0  0  0  0  0  0  0  0  0
  -25.2321  -22.2530   13.8806 C   0  0  0  0  0  0  0  0  0  0  0  0
  -23.8402  -26.8365   15.5300 C   0  0  0  0  0  0  0  0  0  1  0  0
  -25.2549  -30.7963   21.6202 C   0  0  1  0  0  0  0  0  0  0  0  0
  -28.7358  -29.3413   21.9889 C   0  0  2  0  0  0  0  0  0  0  0  0
  -25.0108  -32.3236   21.7783 C   0  0  0  0  0  0  0  0  0  0  0  0
  -26.4130  -20.1256   20.4966 N   0  0  0  0  0  0  0  0  0  0  0  0
  -26.1067  -21.4119   20.2564 N   0  0  0  0  0  0  0  0  0  0  0  0
  -23.4561  -29.0972   21.5843 N   0  0  0  0  0  0  0  0  0  0  0  0
  -22.3353  -21.3687   20.8752 N   0  0  0  0  0  0  0  0  0  0  0  0
  -26.9800  -23.4278   19.3709 N   0  0  0  0  0  0  0  0  0  0  0  0
  -30.3968  -20.5136   18.8929 N   0  0  0  0  0  0  0  0  0  0  0  0
  -24.1208  -21.5881   14.5026 N   0  0  0  0  0  0  0  0  0  0  0  0
  -19.9398  -28.7766   22.4949 N   0  0  0  0  0  0  0  0  0  0  0  0
  -26.5603  -30.3477   22.0925 N   0  0  0  0  0  0  0  0  0  0  0  0
  -21.3373  -20.8904   18.7850 N   0  0  0  0  0  0  0  0  0  0  0  0
  -29.2886  -28.0615   21.4623 N   0  3  0  0  0  0  0  0  0  0  0  0
  -23.1628  -20.7681   12.5555 O   0  0  0  0  0  0  0  0  0  0  0  0
  -29.7411  -22.6853   18.5575 O   0  0  0  0  0  0  0  0  0  0  0  0
  -21.2054  -30.2510   21.2116 O   0  0  0  0  0  0  0  0  0  0  0  0
  -24.1278  -30.0899   23.5842 O   0  0  0  0  0  0  0  0  0  0  0  0
  -27.2590  -29.4340   20.0790 O   0  0  0  0  0  0  0  0  0  0  0  0
  -20.1095  -21.8673   20.4568 O   0  0  0  0  0  0  0  0  0  0  0  0
  -30.3788  -15.1449   20.3803 O   0  0  0  0  0  0  0  0  0  0  0  0
  -22.6759  -26.2892   16.1474 O   0  0  0  0  0  0  0  0  0  1  0  0
  -27.6639  -10.5994   18.8402 F   0  0  0  0  0  0  0  0  0  0  0  0
  -28.0486  -14.3833   21.6580 F   0  0  0  0  0  0  0  0  0  0  0  0
  1  2  1  0  0  0  0
  1  7  2  0  0  0  0
  2  8  2  0  0  0  0
  3  6  2  0  0  0  0
  3 10  1  0  0  0  0
  4 11  2  0  0  0  0
  4 19  1  0  0  0  0
  5 12  1  0  0  0  0
  5 19  2  0  0  0  0
  6 20  1  0  0  0  0
  7 22  1  0  0  0  0
  8 24  1  0  0  0  0
  9 13  2  0  0  0  0
  9 23  1  0  0  0  0
 10 26  2  0  0  0  0
 11 27  1  0  0  0  0
 12 27  2  0  0  0  0
 13 28  1  0  0  0  0
 14 15  2  0  0  0  0
 14 29  1  0  0  0  0
 15 30  1  0  0  0  0
 16 20  2  0  0  0  0
 16 26  1  0  0  0  0
 17 25  1  0  0  0  0
 17 28  2  0  0  0  0
 18 30  2  0  0  0  0
 18 31  1  0  0  0  0
 19 32  1  0  0  0  0
 20 34  1  0  0  0  0
 21 32  1  0  0  0  0
 21 33  2  0  0  0  0
 21 35  1  0  0  0  0
 22 24  2  0  0  0  0
 22 40  1  0  0  0  0
 23 25  2  0  0  0  0
 23 41  1  0  0  0  0
 24 49  1  0  0  0  0
 25 42  1  0  0  0  0
 26 57  1  0  0  0  0
 27 83  1  0  0  0  0
 28 84  1  0  0  0  0
 29 31  2  0  0  0  0
 29 83  1  0  0  0  0
 30 85  1  0  0  0  0
 31 86  1  0  0  0  0
 32 66  2  0  0  0  0
 33 67  1  0  0  0  0
 33 70  1  0  0  0  0
 34 72  1  0  0  0  0
 34 77  2  0  0  0  0
 35 71  1  0  0  0  0
 35 78  2  0  0  0  0
 36 50  1  0  0  0  0
 36 73  1  0  0  0  0
 36 79  2  0  0  0  0
 37 63  1  0  0  0  0
 37 68  1  0  0  0  0
 37 80  2  0  0  0  0
 38 64  1  0  0  0  0
 38 74  1  0  0  0  0
 38 81  2  0  0  0  0
 39 69  1  0  0  0  0
 39 75  1  0  0  0  0
 39 82  2  0  0  0  0
 40 43  1  0  0  0  0
 41 50  1  0  0  0  0
 42 68  1  0  0  0  0
 43 45  1  0  0  0  0
 44 46  1  0  0  0  0
 44 47  1  0  0  0  0
 45 49  1  0  0  0  0
 46 51  1  0  0  0  0
 47 69  1  0  0  0  0
 48 51  1  0  0  0  0
 48 69  1  0  0  0  0
 49 73  1  0  0  0  0
 50 68  1  0  0  0  0
 51 67  1  0  0  0  0
 52 64  1  0  0  0  0
 53 65  1  0  0  0  0
 54 65  1  0  0  0  0
 55 65  1  0  0  0  0
 56 76  1  0  0  0  0
 57 75  1  0  0  0  0
 58 59  1  0  0  0  0
 58 60  1  0  0  0  0
 59 61  1  0  0  0  0
 60 62  1  0  0  0  0
 61 72  1  0  0  0  0
 62 84  1  0  0  0  0
 63 65  1  0  0  0  0
 63 74  1  0  0  0  0
 64 76  1  0  0  0  0
 66 67  1  0  0  0  0
M  CHG  1  76   1
M  ISO  4  39 100  62 101  75 100  84 101
M  END
> <Batch ID>
0004

> <Smiles>
CNC(C)C(=O)NC(C(=O)N1Cc2cc([101O:1][101CH2:1]CCCCNC(=O)c3cccc(C[100NH:0][100C:0](=O)N4CCCC(n5nc(-c6ccc(Oc7ccc(F)cc7F)cc6)c(C(N)=O)c5N)C4)c3)ccc2CC1C(=O)NC1CCCc2ccccc21)C(C)(C)C

> <Shape>
0.239

> <Color>
0.052

> <Negative vol penalty>
0.000

$$$$

  -OEChem-04042320233D

100111  0     1  0  0  0  0  0999 V2000
  -28.1368  -25.2574   16.2760 C   0  0  0  0  0  0  0  0  0  0  0  0
  -26.9675  -25.3756   17.0205 C   0  0  0  0  0  0  0  0  0  0  0  0
  -29.6129  -19.7747   19.7634 C   0  0  0  0  0  0  0  0  0  0  0  0
  -30.3922  -17.7049   18.7911 C   0  0  0  0  0  0  0  0  0  0  0  0
  -20.3491  -21.9516   25.5418 C   0  0  0  0  0  0  0  0  0  0  0  0
  -18.7124  -20.3062   24.8704 C   0  0  0  0  0  0  0  0  0  0  0  0
  -29.3333  -25.7727   16.7727 C   0  0  0  0  0  0  0  0  0  0  0  0
  -26.9944  -26.0082   18.2629 C   0  0  0  0  0  0  0  0  0  0  0  0
  -19.8885  -22.8153   24.5482 C   0  0  0  0  0  0  0  0  0  0  0  0
  -18.2517  -21.1699   23.8768 C   0  0  0  0  0  0  0  0  0  0  0  0
  -23.1366  -29.2291   18.8864 C   0  0  0  0  0  0  0  0  0  0  0  0
  -30.3189  -20.4936   18.7989 C   0  0  0  0  0  0  0  0  0  0  0  0
  -31.0982  -18.4238   17.8265 C   0  0  0  0  0  0  0  0  0  0  0  0
  -21.8938  -28.6809   19.2006 C   0  0  0  0  0  0  0  0  0  0  0  0
  -33.5162  -21.4379   18.2417 C   0  0  0  0  0  0  0  0  0  0  0  0
  -34.2616  -22.5362   18.6699 C   0  0  0  0  0  0  0  0  0  0  0  0
  -22.2449  -29.2310   21.5229 C   0  0  0  0  0  0  0  0  0  0  0  0
  -32.9550  -23.9805   17.2402 C   0  0  0  0  0  0  0  0  0  0  0  0
  -29.6495  -18.3803   19.7595 C   0  0  0  0  0  0  0  0  0  0  0  0
  -19.7612  -20.6970   25.7029 C   0  0  0  0  0  0  0  0  0  0  0  0
  -29.0874  -17.6980   22.1525 C   0  0  0  0  0  0  0  0  0  0  0  0
  -18.8397  -22.4245   23.7156 C   0  0  0  0  0  0  0  0  0  0  0  0
  -29.3729  -26.4205   18.0175 C   0  0  0  0  0  0  0  0  0  0  0  0
  -23.9490  -29.7735   19.8915 C   0  0  0  0  0  0  0  0  0  0  0  0
  -28.1928  -26.5315   18.7774 C   0  0  0  0  0  0  0  0  0  0  0  0
  -23.4964  -29.7878   21.2186 C   0  0  0  0  0  0  0  0  0  0  0  0
  -31.0616  -19.8182   17.8305 C   0  0  0  0  0  0  0  0  0  0  0  0
  -21.4490  -28.6791   20.5194 C   0  0  0  0  0  0  0  0  0  0  0  0
  -32.4902  -21.6107   17.3126 C   0  0  0  0  0  0  0  0  0  0  0  0
  -33.9810  -23.8076   18.1692 C   0  0  0  0  0  0  0  0  0  0  0  0
  -32.2096  -22.8820   16.8119 C   0  0  0  0  0  0  0  0  0  0  0  0
  -28.9209  -17.6371   20.7559 C   0  0  0  0  0  0  0  0  0  0  0  0
  -28.1650  -16.8089   22.6474 C   0  0  0  0  0  0  0  0  0  0  0  0
  -19.6380  -19.9026   27.9488 C   0  0  0  0  0  0  0  0  0  0  0  0
  -20.2498  -19.7805   26.7569 C   0  0  0  0  0  0  0  0  0  0  0  0
  -21.3315  -18.8016   26.5599 C   0  0  0  0  0  0  0  0  0  0  0  0
  -21.8198  -18.1013   27.6102 C   0  0  0  0  0  0  0  0  0  0  0  0
  -29.9948  -18.4878   22.9326 C   0  0  0  0  0  0  0  0  0  0  0  0
  -26.8340  -29.1097   21.0489 C   0  0  0  0  0  0  0  0  0  0  0  0
  -26.3454  -31.8236   22.7571 C   0  0  0  0  0  0  0  0  0  0  0  0
  -24.1264  -34.0377   24.1065 C   0  0  0  0  0  0  0  0  0  0  0  0
  -22.9959  -14.6796   20.5032 C   0  0  0  0  0  0  0  0  0  0  0  0
  -30.6990  -26.9197   18.5341 C   0  0  0  0  0  0  0  0  0  0  0  0
  -25.2754  -30.3852   19.5324 C   0  0  0  0  0  0  0  0  0  0  0  0
  -24.3217  -30.3784   22.3315 C   0  0  0  0  0  0  0  0  0  0  0  0
  -19.9819  -19.0849   29.1504 C   0  0  0  0  0  0  0  0  0  0  0  0
  -23.0052  -17.1573   27.5718 C   0  0  0  0  0  0  0  0  0  0  0  0
  -30.5693  -27.9070   19.6911 C   0  0  0  0  0  0  0  0  0  0  0  0
  -25.8456  -12.7873   21.4906 C   0  0  0  0  0  0  0  0  0  0  0  0
  -29.5758  -27.3890   20.7262 C   0  0  0  0  0  0  0  0  0  0  0  0
  -26.9719  -13.8211   21.5403 C   0  0  0  0  0  0  0  0  0  0  0  0
  -17.8090  -24.6467   23.2836 C   0  0  0  0  0  0  0  0  0  0  0  0
  -19.4704  -23.6632   21.6529 C   0  0  0  0  0  0  0  0  0  0  0  0
  -24.8713  -13.0685   20.3488 C   0  0  0  0  0  0  0  0  0  0  0  0
  -25.4377  -15.4668   20.3841 C   0  0  0  0  0  0  0  0  0  0  0  0
  -24.0977  -17.6439   28.5189 C   0  0  0  0  0  0  0  0  0  0  0  0
  -17.3730  -25.6474   22.2210 C   0  0  0  0  0  0  0  0  0  0  0  0
  -19.0215  -24.6712   20.6027 C   0  0  0  0  0  0  0  0  0  0  0  0
  -22.3570  -18.7481   29.9541 C   0  0  0  0  0  0  0  0  0  0  0  0
  -18.3450  -23.3515   22.6526 C   0  0  0  0  0  0  0  0  0  0  0  0
  -28.1766  -27.2330   20.1182 C   0  0  1  0  0  0  0  0  0  0  0  0
  -21.2550  -18.2303   29.0203 C   0  0  2  0  0  0  0  0  0  0  0  0
  -26.2426  -30.4488   20.7105 C   0  0  1  0  0  0  0  0  0  0  0  0
  -26.4146  -15.2573   21.5538 C   0  0  2  0  0  0  0  0  0  0  0  0
  -24.0250  -36.1354   25.4801 C   0  0  0  0  0  0  0  0  0  0  0  0
  -26.9709  -30.2068   25.2680 C   0  0  0  0  0  0  0  0  0  0  0  0
  -25.9468  -32.0461   26.6232 C   0  0  0  0  0  0  0  0  0  0  0  0
  -27.9654  -32.5012   25.2300 C   0  0  0  0  0  0  0  0  0  0  0  0
  -22.7897  -35.5354   21.9318 C   0  0  0  0  0  0  0  0  0  0  0  0
  -21.8447  -18.6716   25.1458 C   0  0  0  0  0  0  0  0  0  0  0  0
  -21.0479  -17.6380   24.3624 C   0  0  0  0  0  0  0  0  0  0  0  0
  -21.5605  -17.5392   22.9236 C   0  0  0  0  0  0  0  0  0  0  0  0
  -20.7486  -16.5245   22.1131 C   0  0  0  0  0  0  0  0  0  0  0  0
  -21.2278  -16.4132   20.6692 C   0  0  0  0  0  0  0  0  0  0  0  0
  -18.1899  -27.0010   20.2935 C   0  0  0  0  0  0  0  0  0  0  0  0
  -19.4724  -27.6016   19.7527 C   0  0  0  0  0  0  0  0  0  1  0  0
  -25.7325  -32.1469   24.0983 C   0  0  1  0  0  0  0  0  0  0  0  0
  -24.0717  -35.5544   24.0754 C   0  0  2  0  0  0  0  0  0  0  0  0
  -26.6389  -31.7123   25.2844 C   0  0  0  0  0  0  0  0  0  0  0  0
  -27.9677  -16.7771   20.3873 N   0  0  0  0  0  0  0  0  0  0  0  0
  -27.5271  -16.2894   21.5596 N   0  0  0  0  0  0  0  0  0  0  0  0
  -25.6141  -30.9587   21.9308 N   0  0  0  0  0  0  0  0  0  0  0  0
  -24.3785  -14.4462   20.4202 N   0  0  0  0  0  0  0  0  0  0  0  0
  -27.8455  -16.4284   23.9026 N   0  0  0  0  0  0  0  0  0  0  0  0
  -30.8751  -19.3496   22.2642 N   0  0  0  0  0  0  0  0  0  0  0  0
  -27.5269  -28.5215   20.0080 N   0  0  0  0  0  0  0  0  0  0  0  0
  -25.4240  -33.5726   24.0731 N   0  0  0  0  0  0  0  0  0  0  0  0
  -22.6142  -16.0138   20.5735 N   0  0  0  0  0  0  0  0  0  0  0  0
  -23.5313  -17.8193   29.8909 N   0  3  0  0  0  0  0  0  0  0  0  0
  -18.5224  -25.9369   21.2741 N   0  3  0  0  0  0  0  0  0  0  0  0
  -22.8620  -36.0140   23.3363 N   0  3  0  0  0  0  0  0  0  0  0  0
  -30.0354  -18.4188   24.1844 O   0  0  0  0  0  0  0  0  0  0  0  0
  -26.6749  -28.6452   22.1716 O   0  0  0  0  0  0  0  0  0  0  0  0
  -27.4297  -32.3259   22.4509 O   0  0  0  0  0  0  0  0  0  0  0  0
  -23.1189  -33.3357   24.1591 O   0  0  0  0  0  0  0  0  0  0  0  0
  -22.1636  -13.7664   20.5191 O   0  0  0  0  0  0  0  0  0  0  0  0
  -31.7505  -20.5194   16.8890 O   0  0  0  0  0  0  0  0  0  0  0  0
  -20.2367  -28.1441   20.8288 O   0  0  0  0  0  0  0  0  0  1  0  0
  -34.6960  -24.8625   18.5817 F   0  0  0  0  0  0  0  0  0  0  0  0
  -31.2243  -23.0545   15.9201 F   0  0  0  0  0  0  0  0  0  0  0  0
  1  2  1  0  0  0  0
  1  7  2  0  0  0  0
  2  8  2  0  0  0  0
  3 12  2  0  0  0  0
  3 19  1  0  0  0  0
  4 13  1  0  0  0  0
  4 19  2  0  0  0  0
  5  9  2  0  0  0  0
  5 20  1  0  0  0  0
  6 10  1  0  0  0  0
  6 20  2  0  0  0  0
  7 23  1  0  0  0  0
  8 25  1  0  0  0  0
  9 22  1  0  0  0  0
 10 22  2  0  0  0  0
 11 14  2  0  0  0  0
 11 24  1  0  0  0  0
 12 27  1  0  0  0  0
 13 27  2  0  0  0  0
 14 28  1  0  0  0  0
 15 16  2  0  0  0  0
 15 29  1  0  0  0  0
 16 30  1  0  0  0  0
 17 26  1  0  0  0  0
 17 28  2  0  0  0  0
 18 30  2  0  0  0  0
 18 31  1  0  0  0  0
 19 32  1  0  0  0  0
 20 35  1  0  0  0  0
 21 32  1  0  0  0  0
 21 33  2  0  0  0  0
 21 38  1  0  0  0  0
 22 60  1  0  0  0  0
 23 25  2  0  0  0  0
 23 43  1  0  0  0  0
 24 26  2  0  0  0  0
 24 44  1  0  0  0  0
 25 61  1  0  0  0  0
 26 45  1  0  0  0  0
 27 97  1  0  0  0  0
 28 98  1  0  0  0  0
 29 31  2  0  0  0  0
 29 97  1  0  0  0  0
 30 99  1  0  0  0  0
 31100  1  0  0  0  0
 32 80  2  0  0  0  0
 33 81  1  0  0  0  0
 33 84  1  0  0  0  0
 34 35  2  0  0  0  0
 34 46  1  0  0  0  0
 35 36  1  0  0  0  0
 36 37  2  0  0  0  0
 36 70  1  0  0  0  0
 37 47  1  0  0  0  0
 37 62  1  0  0  0  0
 38 85  1  0  0  0  0
 38 92  2  0  0  0  0
 39 63  1  0  0  0  0
 39 86  1  0  0  0  0
 39 93  2  0  0  0  0
 40 77  1  0  0  0  0
 40 82  1  0  0  0  0
 40 94  2  0  0  0  0
 41 78  1  0  0  0  0
 41 87  1  0  0  0  0
 41 95  2  0  0  0  0
 42 83  1  0  0  0  0
 42 88  1  0  0  0  0
 42 96  2  0  0  0  0
 43 48  1  0  0  0  0
 44 63  1  0  0  0  0
 45 82  1  0  0  0  0
 46 62  1  0  0  0  0
 47 56  1  0  0  0  0
 48 50  1  0  0  0  0
 49 51  1  0  0  0  0
 49 54  1  0  0  0  0
 50 61  1  0  0  0  0
 51 64  1  0  0  0  0
 52 57  1  0  0  0  0
 52 60  1  0  0  0  0
 53 58  1  0  0  0  0
 53 60  1  0  0  0  0
 54 83  1  0  0  0  0
 55 64  1  0  0  0  0
 55 83  1  0  0  0  0
 56 89  1  0  0  0  0
 57 90  1  0  0  0  0
 58 90  1  0  0  0  0
 59 62  1  0  0  0  0
 59 89  1  0  0  0  0
 61 86  1  0  0  0  0
 63 82  1  0  0  0  0
 64 81  1  0  0  0  0
 65 78  1  0  0  0  0
 66 79  1  0  0  0  0
 67 79  1  0  0  0  0
 68 79  1  0  0  0  0
 69 91  1  0  0  0  0
 70 71  1  0  0  0  0
 71 72  1  0  0  0  0
 72 73  1  0  0  0  0
 73 74  1  0  0  0  0
 74 88  1  0  0  0  0
 75 76  1  0  0  0  0
 75 90  1  0  0  0  0
 76 98  1  0  0  0  0
 77 79  1  0  0  0  0
 77 87  1  0  0  0  0
 78 91  1  0  0  0  0
 80 81  1  0  0  0  0
M  CHG  3  89   1  90   1  91   1
M  ISO  4  42 100  76 101  88 100  98 101
M  END
> <Batch ID>
0004

> <Smiles>
CNC(C)C(=O)NC(C(=O)N1Cc2cc([101O:1][101CH2:1]CN3CCC(c4ccc(C5=CCC6CNCCC6=C5CCCCC[100NH:0][100C:0](=O)N5CCCC(n6nc(-c7ccc(Oc8ccc(F)cc8F)cc7)c(C(N)=O)c6N)C5)cc4)CC3)ccc2CC1C(=O)NC1CCCc2ccccc21)C(C)(C)C

> <Shape>
0.255

> <Color>
0.059

> <Negative vol penalty>
0.000

$$$$

  -OEChem-04042320233D

 92101  0     1  0  0  0  0  0999 V2000
  -18.9039  -27.1082   23.9319 C   0  0  0  0  0  0  0  0  0  0  0  0
  -20.2476  -27.1678   24.2875 C   0  0  0  0  0  0  0  0  0  0  0  0
  -24.3606   -9.9987   21.9679 C   0  0  0  0  0  0  0  0  0  0  0  0
  -24.5274  -11.3128   23.9884 C   0  0  0  0  0  0  0  0  0  0  0  0
  -18.5361  -26.6123   22.6818 C   0  0  0  0  0  0  0  0  0  0  0  0
  -21.2242  -26.7305   23.3935 C   0  0  0  0  0  0  0  0  0  0  0  0
  -26.8396  -29.0579   22.6473 C   0  0  0  0  0  0  0  0  0  0  0  0
  -23.9278   -8.9037   22.7158 C   0  0  0  0  0  0  0  0  0  0  0  0
  -24.0946  -10.2178   24.7363 C   0  0  0  0  0  0  0  0  0  0  0  0
  -28.0881  -28.6685   23.1303 C   0  0  0  0  0  0  0  0  0  0  0  0
  -21.0599   -7.8568   24.1693 C   0  0  0  0  0  0  0  0  0  0  0  0
  -19.9691   -7.1332   23.6875 C   0  0  0  0  0  0  0  0  0  0  0  0
  -29.2642  -21.9920   21.9314 C   0  0  0  0  0  0  0  0  0  0  0  0
  -30.2724  -19.8618   21.3996 C   0  0  0  0  0  0  0  0  0  0  0  0
  -28.5057  -27.4784   21.0739 C   0  0  0  0  0  0  0  0  0  0  0  0
  -21.3392   -5.1467   23.5694 C   0  0  0  0  0  0  0  0  0  0  0  0
  -24.6605  -11.2032   22.6042 C   0  0  0  0  0  0  0  0  0  0  0  0
  -24.3085  -13.3349   21.2479 C   0  0  0  0  0  0  0  0  0  0  0  0
  -19.5093  -26.1777   21.7683 C   0  0  0  0  0  0  0  0  0  0  0  0
  -26.4095  -28.6507   21.3762 C   0  0  0  0  0  0  0  0  0  0  0  0
  -20.8690  -26.2270   22.1305 C   0  0  0  0  0  0  0  0  0  0  0  0
  -30.4012  -21.2001   21.7711 C   0  0  0  0  0  0  0  0  0  0  0  0
  -27.2523  -27.8662   20.5761 C   0  0  0  0  0  0  0  0  0  0  0  0
  -27.9983  -21.4456   21.7202 C   0  0  0  0  0  0  0  0  0  0  0  0
  -29.0065  -19.3154   21.1884 C   0  0  0  0  0  0  0  0  0  0  0  0
  -23.7948   -9.0133   24.1000 C   0  0  0  0  0  0  0  0  0  0  0  0
  -28.9202  -27.8763   22.3447 C   0  0  0  0  0  0  0  0  0  0  0  0
  -22.2904   -7.2255   24.3510 C   0  0  0  0  0  0  0  0  0  0  0  0
  -20.1087   -5.7781   23.3876 C   0  0  0  0  0  0  0  0  0  0  0  0
  -22.4300   -5.8704   24.0511 C   0  0  0  0  0  0  0  0  0  0  0  0
  -27.8694  -20.1073   21.3487 C   0  0  0  0  0  0  0  0  0  0  0  0
  -25.1081  -12.3345   21.8323 C   0  0  0  0  0  0  0  0  0  0  0  0
  -25.2041  -14.1729   20.6298 C   0  0  0  0  0  0  0  0  0  0  0  0
  -33.2025  -23.6380   21.1634 C   0  0  0  0  0  0  0  0  0  0  0  0
  -31.9620  -22.3190   23.4208 C   0  0  0  0  0  0  0  0  0  0  0  0
  -22.8835  -13.4926   21.2625 C   0  0  0  0  0  0  0  0  0  0  0  0
  -23.9968  -26.8953   20.2803 C   0  0  0  0  0  0  0  0  0  0  0  0
  -25.1329  -27.8399   17.3924 C   0  0  0  0  0  0  0  0  0  0  0  0
  -27.7735  -28.9597   15.5432 C   0  0  0  0  0  0  0  0  0  0  0  0
  -29.9668  -17.0573   20.6182 C   0  0  0  0  0  0  0  0  0  0  0  0
  -19.0606  -25.6054   20.4470 C   0  0  0  0  0  0  0  0  0  0  0  0
  -25.0709  -29.1015   20.8591 C   0  0  0  0  0  0  0  0  0  0  0  0
  -26.8458  -27.4193   19.1964 C   0  0  0  0  0  0  0  0  0  0  0  0
  -33.9692  -23.3992   22.4405 C   0  0  0  0  0  0  0  0  0  0  0  0
  -20.1793  -25.5111   19.4127 C   0  0  0  0  0  0  0  0  0  0  0  0
  -30.1532  -13.6155   19.7258 C   0  0  0  0  0  0  0  0  0  0  0  0
  -21.4336  -24.9072   20.0364 C   0  0  0  0  0  0  0  0  0  0  0  0
  -28.7915  -13.0577   20.1462 C   0  0  0  0  0  0  0  0  0  0  0  0
  -30.6600  -14.6726   20.7053 C   0  0  0  0  0  0  0  0  0  0  0  0
  -28.3580  -15.2089   21.3997 C   0  0  0  0  0  0  0  0  0  0  0  0
  -31.7732  -21.7933   21.9992 C   0  0  2  0  0  0  0  0  0  0  0  0
  -21.9593  -25.7851   21.1785 C   0  0  1  0  0  0  0  0  0  0  0  0
  -24.5226  -28.2015   19.7560 C   0  0  1  0  0  0  0  0  0  0  0  0
  -27.7764  -14.1874   20.4088 C   0  0  2  0  0  0  0  0  0  0  0  0
  -26.8084  -22.3319   21.9044 C   0  0  0  0  0  0  0  0  0  0  0  0
  -28.4059  -29.6061   13.2023 C   0  0  0  0  0  0  0  0  0  0  0  0
  -25.2359  -24.8927   16.6090 C   0  0  0  0  0  0  0  0  0  0  0  0
  -26.7248  -25.5246   14.6980 C   0  0  0  0  0  0  0  0  0  0  0  0
  -24.3997  -26.4206   14.8143 C   0  0  0  0  0  0  0  0  0  0  0  0
  -28.4438  -31.7231   16.3635 C   0  0  0  0  0  0  0  0  0  0  0  0
  -31.9155  -25.8695   24.5055 C   0  0  0  0  0  0  0  0  0  0  0  0
  -33.3138  -25.3296   24.8195 C   0  0  0  0  0  0  0  0  0  0  0  0
  -31.9002  -27.3970   24.4985 C   0  0  0  0  0  0  0  0  0  0  0  0
  -33.3668  -23.8054   24.8215 C   0  0  0  0  0  0  0  0  0  0  0  0
  -30.5228  -27.9432   24.1462 C   0  0  0  0  0  0  0  0  0  1  0  0
  -26.1484  -27.3001   16.4145 C   0  0  1  0  0  0  0  0  0  0  0  0
  -27.8947  -30.0989   14.5472 C   0  0  2  0  0  0  0  0  0  0  0  0
  -25.6343  -26.0412   15.6607 C   0  0  0  0  0  0  0  0  0  0  0  0
  -26.4115  -12.5184   21.6056 N   0  0  0  0  0  0  0  0  0  0  0  0
  -26.4377  -13.6440   20.8719 N   0  0  0  0  0  0  0  0  0  0  0  0
  -32.0465  -22.8857   21.0741 N   0  0  0  0  0  0  0  0  0  0  0  0
  -33.0143  -23.2363   23.5311 N   0  0  0  0  0  0  0  0  0  0  0  0
  -25.5250  -27.8806   18.7379 N   0  0  0  0  0  0  0  0  0  0  0  0
  -29.6477  -15.7125   20.9018 N   0  0  0  0  0  0  0  0  0  0  0  0
  -25.0489  -15.3033   19.9083 N   0  0  0  0  0  0  0  0  0  0  0  0
  -22.1129  -12.5409   21.9442 N   0  0  0  0  0  0  0  0  0  0  0  0
  -28.9152  -17.9525   20.8115 N   0  0  0  0  0  0  0  0  0  0  0  0
  -22.6659  -26.9323   20.6500 N   0  0  0  0  0  0  0  0  0  0  0  0
  -26.5075  -28.4134   15.5428 N   0  0  0  0  0  0  0  0  0  0  0  0
  -28.8369  -31.1348   15.0572 N   0  3  0  0  0  0  0  0  0  0  0  0
  -33.6335  -24.3442   20.2558 O   0  0  0  0  0  0  0  0  0  0  0  0
  -31.3157  -21.8837   24.3733 O   0  0  0  0  0  0  0  0  0  0  0  0
  -22.3093  -14.4401   20.6741 O   0  0  0  0  0  0  0  0  0  0  0  0
  -24.7430  -25.9252   20.3432 O   0  0  0  0  0  0  0  0  0  0  0  0
  -24.0348  -28.2182   16.9768 O   0  0  0  0  0  0  0  0  0  0  0  0
  -28.7095  -28.5888   16.2482 O   0  0  0  0  0  0  0  0  0  0  0  0
  -31.0821  -17.3866   20.2064 O   0  0  0  0  0  0  0  0  0  0  0  0
  -23.3722   -7.9451   24.8301 O   0  0  0  0  0  0  0  0  0  0  0  0
  -30.1391  -27.4942   22.8139 O   0  0  0  0  0  0  0  0  0  1  0  0
  -19.0607   -5.0830   22.9265 F   0  0  0  0  0  0  0  0  0  0  0  0
  -23.6093   -5.2581   24.2247 F   0  0  0  0  0  0  0  0  0  0  0  0
  -26.2933  -19.4340   21.0883 Cl  0  0  0  0  0  0  0  0  0  0  0  0
  1  2  1  0  0  0  0
  1  5  2  0  0  0  0
  2  6  2  0  0  0  0
  3  8  2  0  0  0  0
  3 17  1  0  0  0  0
  4  9  1  0  0  0  0
  4 17  2  0  0  0  0
  5 19  1  0  0  0  0
  6 21  1  0  0  0  0
  7 10  2  0  0  0  0
  7 20  1  0  0  0  0
  8 26  1  0  0  0  0
  9 26  2  0  0  0  0
 10 27  1  0  0  0  0
 11 12  2  0  0  0  0
 11 28  1  0  0  0  0
 12 29  1  0  0  0  0
 13 22  1  0  0  0  0
 13 24  2  0  0  0  0
 14 22  2  0  0  0  0
 14 25  1  0  0  0  0
 15 23  1  0  0  0  0
 15 27  2  0  0  0  0
 16 29  2  0  0  0  0
 16 30  1  0  0  0  0
 17 32  1  0  0  0  0
 18 32  1  0  0  0  0
 18 33  2  0  0  0  0
 18 36  1  0  0  0  0
 19 21  2  0  0  0  0
 19 41  1  0  0  0  0
 20 23  2  0  0  0  0
 20 42  1  0  0  0  0
 21 52  1  0  0  0  0
 22 51  1  0  0  0  0
 23 43  1  0  0  0  0
 24 31  1  0  0  0  0
 24 55  1  0  0  0  0
 25 31  2  0  0  0  0
 25 77  1  0  0  0  0
 26 88  1  0  0  0  0
 27 89  1  0  0  0  0
 28 30  2  0  0  0  0
 28 88  1  0  0  0  0
 29 90  1  0  0  0  0
 30 91  1  0  0  0  0
 31 92  1  0  0  0  0
 32 69  2  0  0  0  0
 33 70  1  0  0  0  0
 33 75  1  0  0  0  0
 34 44  1  0  0  0  0
 34 71  1  0  0  0  0
 34 81  2  0  0  0  0
 35 51  1  0  0  0  0
 35 72  1  0  0  0  0
 35 82  2  0  0  0  0
 36 76  1  0  0  0  0
 36 83  2  0  0  0  0
 37 53  1  0  0  0  0
 37 78  1  0  0  0  0
 37 84  2  0  0  0  0
 38 66  1  0  0  0  0
 38 73  1  0  0  0  0
 38 85  2  0  0  0  0
 39 67  1  0  0  0  0
 39 79  1  0  0  0  0
 39 86  2  0  0  0  0
 40 74  1  0  0  0  0
 40 77  1  0  0  0  0
 40 87  2  0  0  0  0
 41 45  1  0  0  0  0
 42 53  1  0  0  0  0
 43 73  1  0  0  0  0
 44 72  1  0  0  0  0
 45 47  1  0  0  0  0
 46 48  1  0  0  0  0
 46 49  1  0  0  0  0
 47 52  1  0  0  0  0
 48 54  1  0  0  0  0
 49 74  1  0  0  0  0
 50 54  1  0  0  0  0
 50 74  1  0  0  0  0
 51 71  1  0  0  0  0
 52 78  1  0  0  0  0
 53 73  1  0  0  0  0
 54 70  1  0  0  0  0
 56 67  1  0  0  0  0
 57 68  1  0  0  0  0
 58 68  1  0  0  0  0
 59 68  1  0  0  0  0
 60 80  1  0  0  0  0
 61 62  1  0  0  0  0
 61 63  1  0  0  0  0
 62 64  1  0  0  0  0
 63 65  1  0  0  0  0
 64 72  1  0  0  0  0
 65 89  1  0  0  0  0
 66 68  1  0  0  0  0
 66 79  1  0  0  0  0
 67 80  1  0  0  0  0
 69 70  1  0  0  0  0
M  CHG  1  80   1
M  ISO  4  40 100  65 101  77 100  89 101
M  END
> <Batch ID>
0004

> <Smiles>
CNC(C)C(=O)NC(C(=O)N1Cc2cc([101O:1][101CH2:1]CCCCN3CC(=O)NC(c4cc(C)c(Cl)c([100NH:0][100C:0](=O)N5CCCC(n6nc(-c7ccc(Oc8ccc(F)cc8F)cc7)c(C(N)=O)c6N)C5)c4)C3=O)ccc2CC1C(=O)NC1CCCc2ccccc21)C(C)(C)C

> <Shape>
0.234

> <Color>
0.111

> <Negative vol penalty>
0.000

$$$$

  -OEChem-04042320233D

 91101  0     1  0  0  0  0  0999 V2000
  -22.1064  -17.0510   23.6857 C   0  0  0  0  0  0  0  0  0  0  0  0
  -23.0518  -17.9744   24.1205 C   0  0  0  0  0  0  0  0  0  0  0  0
  -24.6948  -13.3755   21.3258 C   0  0  0  0  0  0  0  0  0  0  0  0
  -26.5714  -12.7892   19.9218 C   0  0  0  0  0  0  0  0  0  0  0  0
  -21.2098  -17.3963   22.6754 C   0  0  0  0  0  0  0  0  0  0  0  0
  -23.1018  -19.2433   23.5444 C   0  0  0  0  0  0  0  0  0  0  0  0
  -24.5263  -24.5024   26.3406 C   0  0  0  0  0  0  0  0  0  0  0  0
  -31.1738  -24.3984   21.2877 C   0  0  0  0  0  0  0  0  0  0  0  0
  -30.8524  -25.5521   22.0104 C   0  0  0  0  0  0  0  0  0  0  0  0
  -24.0212  -12.2292   20.9043 C   0  0  0  0  0  0  0  0  0  0  0  0
  -25.8979  -11.6428   19.5003 C   0  0  0  0  0  0  0  0  0  0  0  0
  -25.7074  -25.2403   26.4054 C   0  0  0  0  0  0  0  0  0  0  0  0
  -24.0729   -8.9176   21.5853 C   0  0  0  0  0  0  0  0  0  0  0  0
  -23.4364   -8.1455   22.5571 C   0  0  0  0  0  0  0  0  0  0  0  0
  -24.9341  -26.6264   24.5889 C   0  0  0  0  0  0  0  0  0  0  0  0
  -21.3188   -8.4947   21.4475 C   0  0  0  0  0  0  0  0  0  0  0  0
  -25.9699  -13.6556   20.8345 C   0  0  0  0  0  0  0  0  0  0  0  0
  -27.5303  -14.9609   22.3737 C   0  0  0  0  0  0  0  0  0  0  0  0
  -21.2425  -18.6733   22.0933 C   0  0  0  0  0  0  0  0  0  0  0  0
  -23.5432  -24.8147   25.3906 C   0  0  0  0  0  0  0  0  0  0  0  0
  -22.2056  -19.6055   22.5244 C   0  0  0  0  0  0  0  0  0  0  0  0
  -23.7403  -25.8926   24.5157 C   0  0  0  0  0  0  0  0  0  0  0  0
  -30.5262  -24.0901   20.0891 C   0  0  0  0  0  0  0  0  0  0  0  0
  -29.1956  -26.0915   20.2835 C   0  0  0  0  0  0  0  0  0  0  0  0
  -29.8586  -26.3719   21.4749 C   0  0  0  0  0  0  0  0  0  0  0  0
  -24.6227  -11.3628   19.9915 C   0  0  0  0  0  0  0  0  0  0  0  0
  -25.9127  -26.3006   25.5276 C   0  0  0  0  0  0  0  0  0  0  0  0
  -23.3324   -9.4783   20.5446 C   0  0  0  0  0  0  0  0  0  0  0  0
  -22.0593   -7.9340   22.4882 C   0  0  0  0  0  0  0  0  0  0  0  0
  -21.9554   -9.2668   20.4757 C   0  0  0  0  0  0  0  0  0  0  0  0
  -29.5312  -24.9282   19.5704 C   0  0  0  0  0  0  0  0  0  0  0  0
  -26.6659  -14.8400   21.2691 C   0  0  0  0  0  0  0  0  0  0  0  0
  -27.9286  -16.2752   22.3558 C   0  0  0  0  0  0  0  0  0  0  0  0
  -28.3608  -27.9260   20.9888 C   0  0  0  0  0  0  0  0  0  0  0  0
  -27.9369  -13.9733   23.3303 C   0  0  0  0  0  0  0  0  0  0  0  0
  -22.2187  -23.2765   22.9445 C   0  0  0  0  0  0  0  0  0  0  0  0
  -20.3001  -25.8901   22.8443 C   0  0  0  0  0  0  0  0  0  0  0  0
  -19.8623  -29.1928   23.5842 C   0  0  0  0  0  0  0  0  0  0  0  0
  -29.8081  -20.6393   19.6412 C   0  0  0  0  0  0  0  0  0  0  0  0
  -20.2838  -18.9845   20.9715 C   0  0  0  0  0  0  0  0  0  0  0  0
  -22.2631  -24.0259   25.3512 C   0  0  0  0  0  0  0  0  0  0  0  0
  -22.7072  -26.2813   23.4910 C   0  0  0  0  0  0  0  0  0  0  0  0
  -20.1589  -20.4764   20.6733 C   0  0  0  0  0  0  0  0  0  0  0  0
  -26.2158  -20.2004   19.6631 C   0  0  0  0  0  0  0  0  0  0  0  0
  -21.5382  -21.1239   20.6024 C   0  0  0  0  0  0  0  0  0  0  0  0
  -26.0878  -18.7657   20.1784 C   0  0  0  0  0  0  0  0  0  0  0  0
  -28.2474  -30.4228   20.5476 C   0  0  0  0  0  0  0  0  0  0  0  0
  -26.1199  -29.0438   20.5754 C   0  0  0  0  0  0  0  0  0  0  0  0
  -27.4212  -20.3507   18.7398 C   0  0  0  0  0  0  0  0  0  0  0  0
  -28.5903  -18.4917   19.8583 C   0  0  0  0  0  0  0  0  0  0  0  0
  -27.4131  -31.6837   20.7228 C   0  0  0  0  0  0  0  0  0  0  0  0
  -25.3128  -30.3224   20.7504 C   0  0  0  0  0  0  0  0  0  0  0  0
  -22.2752  -21.0002   21.9414 C   0  0  1  0  0  0  0  0  0  0  0  0
  -27.5435  -29.1898   21.1456 C   0  0  0  0  0  0  0  0  0  0  0  0
  -21.5521  -24.1076   24.0039 C   0  0  1  0  0  0  0  0  0  0  0  0
  -27.4032  -18.2797   20.8153 C   0  0  2  0  0  0  0  0  0  0  0  0
  -18.2057  -31.0625   23.3444 C   0  0  0  0  0  0  0  0  0  0  0  0
  -21.0467  -26.1706   19.8992 C   0  0  0  0  0  0  0  0  0  0  0  0
  -20.1640  -28.5124   19.9704 C   0  0  0  0  0  0  0  0  0  0  0  0
  -18.6346  -26.5911   20.4086 C   0  0  0  0  0  0  0  0  0  0  0  0
  -19.6306  -29.5188   26.5166 C   0  0  0  0  0  0  0  0  0  0  0  0
  -30.9007  -22.8480   19.3496 C   0  0  0  0  0  0  0  0  0  0  0  0
  -29.0536  -27.7026   24.4312 C   0  0  0  0  0  0  0  0  0  0  0  0
  -29.6723  -28.2947   23.1629 C   0  0  0  0  0  0  0  0  0  0  0  0
  -27.5339  -27.6007   24.3711 C   0  0  0  0  0  0  0  0  0  1  0  0
  -20.3532  -27.2293   22.1496 C   0  0  1  0  0  0  0  0  0  0  0  0
  -18.7081  -29.9353   24.2331 C   0  0  2  0  0  0  0  0  0  0  0  0
  -20.0701  -27.1176   20.6248 C   0  0  0  0  0  0  0  0  0  0  0  0
  -28.2691  -27.0679   19.9977 N   0  0  0  0  0  0  0  0  0  0  0  0
  -26.5229  -15.9862   20.5985 N   0  0  0  0  0  0  0  0  0  0  0  0
  -29.3046  -27.5507   21.9040 N   0  0  0  0  0  0  0  0  0  0  0  0
  -27.3027  -16.8398   21.2835 N   0  0  0  0  0  0  0  0  0  0  0  0
  -21.4749  -25.4757   23.4877 N   0  0  0  0  0  0  0  0  0  0  0  0
  -28.6433  -19.8881   19.4126 N   0  0  0  0  0  0  0  0  0  0  0  0
  -28.7496  -16.9915   23.1528 N   0  0  0  0  0  0  0  0  0  0  0  0
  -27.4333  -12.6717   23.2021 N   0  0  0  0  0  0  0  0  0  0  0  0
  -21.7695  -21.9709   22.8882 N   0  0  0  0  0  0  0  0  0  0  0  0
  -19.4269  -28.0985   22.8672 N   0  0  0  0  0  0  0  0  0  0  0  0
  -29.7793  -21.9505   19.1822 N   0  0  0  0  0  0  0  0  0  0  0  0
  -26.0576  -31.4622   20.1380 N   0  3  0  0  0  0  0  0  0  0  0  0
  -19.1349  -30.5189   25.5362 N   0  3  0  0  0  0  0  0  0  0  0  0
  -28.7106  -14.2414   24.2806 O   0  0  0  0  0  0  0  0  0  0  0  0
  -23.0760  -23.7826   22.2300 O   0  0  0  0  0  0  0  0  0  0  0  0
  -19.2526  -25.2390   22.8233 O   0  0  0  0  0  0  0  0  0  0  0  0
  -21.0326  -29.5502   23.6986 O   0  0  0  0  0  0  0  0  0  0  0  0
  -30.7991  -20.1773   20.2169 O   0  0  0  0  0  0  0  0  0  0  0  0
  -23.9659  -10.2439   19.5802 O   0  0  0  0  0  0  0  0  0  0  0  0
  -27.0650  -27.0221   25.5883 O   0  0  0  0  0  0  0  0  0  1  0  0
  -21.4485   -7.1913   23.4206 F   0  0  0  0  0  0  0  0  0  0  0  0
  -21.2388   -9.8018   19.4776 F   0  0  0  0  0  0  0  0  0  0  0  0
  -28.9133  -24.6280   18.4203 F   0  0  0  0  0  0  0  0  0  0  0  0
  1  2  1  0  0  0  0
  1  5  2  0  0  0  0
  2  6  2  0  0  0  0
  3 10  2  0  0  0  0
  3 17  1  0  0  0  0
  4 11  1  0  0  0  0
  4 17  2  0  0  0  0
  5 19  1  0  0  0  0
  6 21  1  0  0  0  0
  7 12  2  0  0  0  0
  7 20  1  0  0  0  0
  8  9  2  0  0  0  0
  8 23  1  0  0  0  0
  9 25  1  0  0  0  0
 10 26  1  0  0  0  0
 11 26  2  0  0  0  0
 12 27  1  0  0  0  0
 13 14  2  0  0  0  0
 13 28  1  0  0  0  0
 14 29  1  0  0  0  0
 15 22  1  0  0  0  0
 15 27  2  0  0  0  0
 16 29  2  0  0  0  0
 16 30  1  0  0  0  0
 17 32  1  0  0  0  0
 18 32  1  0  0  0  0
 18 33  2  0  0  0  0
 18 35  1  0  0  0  0
 19 21  2  0  0  0  0
 19 40  1  0  0  0  0
 20 22  2  0  0  0  0
 20 41  1  0  0  0  0
 21 53  1  0  0  0  0
 22 42  1  0  0  0  0
 23 31  2  0  0  0  0
 23 62  1  0  0  0  0
 24 25  2  0  0  0  0
 24 31  1  0  0  0  0
 24 69  1  0  0  0  0
 25 71  1  0  0  0  0
 26 87  1  0  0  0  0
 27 88  1  0  0  0  0
 28 30  2  0  0  0  0
 28 87  1  0  0  0  0
 29 89  1  0  0  0  0
 30 90  1  0  0  0  0
 31 91  1  0  0  0  0
 32 70  2  0  0  0  0
 33 72  1  0  0  0  0
 33 75  1  0  0  0  0
 34 54  1  0  0  0  0
 34 69  2  0  0  0  0
 34 71  1  0  0  0  0
 35 76  1  0  0  0  0
 35 82  2  0  0  0  0
 36 55  1  0  0  0  0
 36 77  1  0  0  0  0
 36 83  2  0  0  0  0
 37 66  1  0  0  0  0
 37 73  1  0  0  0  0
 37 84  2  0  0  0  0
 38 67  1  0  0  0  0
 38 78  1  0  0  0  0
 38 85  2  0  0  0  0
 39 74  1  0  0  0  0
 39 79  1  0  0  0  0
 39 86  2  0  0  0  0
 40 43  1  0  0  0  0
 41 55  1  0  0  0  0
 42 73  1  0  0  0  0
 43 45  1  0  0  0  0
 44 46  1  0  0  0  0
 44 49  1  0  0  0  0
 45 53  1  0  0  0  0
 46 56  1  0  0  0  0
 47 51  1  0  0  0  0
 47 54  1  0  0  0  0
 48 52  1  0  0  0  0
 48 54  1  0  0  0  0
 49 74  1  0  0  0  0
 50 56  1  0  0  0  0
 50 74  1  0  0  0  0
 51 80  1  0  0  0  0
 52 80  1  0  0  0  0
 53 77  1  0  0  0  0
 55 73  1  0  0  0  0
 56 72  1  0  0  0  0
 57 67  1  0  0  0  0
 58 68  1  0  0  0  0
 59 68  1  0  0  0  0
 60 68  1  0  0  0  0
 61 81  1  0  0  0  0
 62 79  1  0  0  0  0
 63 64  1  0  0  0  0
 63 65  1  0  0  0  0
 64 71  1  0  0  0  0
 65 88  1  0  0  0  0
 66 68  1  0  0  0  0
 66 78  1  0  0  0  0
 67 81  1  0  0  0  0
 70 72  1  0  0  0  0
M  CHG  2  80   1  81   1
M  ISO  4  39 100  65 101  79 100  88 101
M  END
> <Batch ID>
0004

> <Smiles>
CNC(C)C(=O)NC(C(=O)N1Cc2cc([101O:1][101CH2:1]CCn3c(C4CCNCC4)nc4c(F)c(C[100NH:0][100C:0](=O)N5CCCC(n6nc(-c7ccc(Oc8ccc(F)cc8F)cc7)c(C(N)=O)c6N)C5)ccc43)ccc2CC1C(=O)NC1CCCc2ccccc21)C(C)(C)C

> <Shape>
0.247

> <Color>
0.046

> <Negative vol penalty>
0.000

$$$$

  -OEChem-04042320233D

 73 80  0     1  0  0  0  0  0999 V2000
  -28.7807  -11.4027   19.8413 C   0  0  0  0  0  0  0  0  0  0  0  0
  -28.8747  -12.6791   19.2960 C   0  0  0  0  0  0  0  0  0  0  0  0
  -25.9114  -28.9143   20.8188 C   0  0  0  0  0  0  0  0  0  0  0  0
  -25.2447  -26.5922   20.8056 C   0  0  0  0  0  0  0  0  0  0  0  0
  -27.5741  -10.9659   20.3863 C   0  0  0  0  0  0  0  0  0  0  0  0
  -27.7616  -13.5191   19.2943 C   0  0  0  0  0  0  0  0  0  0  0  0
  -28.8908  -18.2435   20.7261 C   0  0  0  0  0  0  0  0  0  0  0  0
  -24.5811  -29.2972   20.6476 C   0  0  0  0  0  0  0  0  0  0  0  0
  -23.9144  -26.9751   20.6344 C   0  0  0  0  0  0  0  0  0  0  0  0
  -29.5037  -19.0657   19.7816 C   0  0  0  0  0  0  0  0  0  0  0  0
  -20.2991  -27.3512   20.5553 C   0  0  0  0  0  0  0  0  0  0  0  0
  -19.3346  -26.7145   21.3363 C   0  0  0  0  0  0  0  0  0  0  0  0
  -27.3782  -20.1087   19.3193 C   0  0  0  0  0  0  0  0  0  0  0  0
  -20.4277  -27.5133   23.3374 C   0  0  0  0  0  0  0  0  0  0  0  0
  -26.2432  -27.5618   20.8978 C   0  0  0  0  0  0  0  0  0  0  0  0
  -28.2943  -26.9641   22.2918 C   0  0  0  0  0  0  0  0  0  0  0  0
  -26.4483  -11.8044   20.4000 C   0  0  0  0  0  0  0  0  0  0  0  0
  -27.5128  -18.3403   20.9669 C   0  0  0  0  0  0  0  0  0  0  0  0
  -26.5384  -13.0925   19.8388 C   0  0  0  0  0  0  0  0  0  0  0  0
  -26.7507  -19.2883   20.2692 C   0  0  0  0  0  0  0  0  0  0  0  0
  -23.5826  -28.3276   20.5554 C   0  0  0  0  0  0  0  0  0  0  0  0
  -28.7469  -19.9965   19.0760 C   0  0  0  0  0  0  0  0  0  0  0  0
  -21.3280  -28.0688   21.1653 C   0  0  0  0  0  0  0  0  0  0  0  0
  -19.3988  -26.7956   22.7274 C   0  0  0  0  0  0  0  0  0  0  0  0
  -21.3923  -28.1499   22.5564 C   0  0  0  0  0  0  0  0  0  0  0  0
  -27.6173  -27.1656   21.0741 C   0  0  0  0  0  0  0  0  0  0  0  0
  -29.5659  -26.6003   21.9215 C   0  0  0  0  0  0  0  0  0  0  0  0
  -27.8165  -27.0941   23.6374 C   0  0  0  0  0  0  0  0  0  0  0  0
  -25.0394  -16.3661   20.6693 C   0  0  0  0  0  0  0  0  0  0  0  0
  -23.4301  -18.7916   22.1009 C   0  0  0  0  0  0  0  0  0  0  0  0
  -23.2352  -22.1273   22.7949 C   0  0  0  0  0  0  0  0  0  0  0  0
  -31.8053  -24.0606   16.9833 C   0  0  0  0  0  0  0  0  0  0  0  0
  -25.1525  -11.2708   20.9575 C   0  0  0  0  0  0  0  0  0  0  0  0
  -26.8716  -17.4645   22.0082 C   0  0  0  0  0  0  0  0  0  0  0  0
  -25.2716  -19.4460   20.5052 C   0  0  0  0  0  0  0  0  0  0  0  0
  -24.1234  -12.3586   21.2544 C   0  0  0  0  0  0  0  0  0  0  0  0
  -32.7528  -27.1859   18.4013 C   0  0  0  0  0  0  0  0  0  0  0  0
  -24.0228  -13.3319   20.0842 C   0  0  0  0  0  0  0  0  0  0  0  0
  -31.6052  -27.5169   19.3570 C   0  0  0  0  0  0  0  0  0  0  0  0
  -32.2517  -26.4924   17.1365 C   0  0  0  0  0  0  0  0  0  0  0  0
  -30.2768  -25.6255   18.3290 C   0  0  0  0  0  0  0  0  0  0  0  0
  -25.3600  -14.0420   19.8407 C   0  0  1  0  0  0  0  0  0  0  0  0
  -25.3693  -17.2948   21.8034 C   0  0  1  0  0  0  0  0  0  0  0  0
  -30.7390  -26.2758   19.6442 C   0  0  2  0  0  0  0  0  0  0  0  0
  -21.7856  -23.8170   23.9528 C   0  0  0  0  0  0  0  0  0  0  0  0
  -21.4554  -18.6861   19.7772 C   0  0  0  0  0  0  0  0  0  0  0  0
  -20.6243  -20.9432   20.4723 C   0  0  0  0  0  0  0  0  0  0  0  0
  -20.4056  -19.0030   22.0249 C   0  0  0  0  0  0  0  0  0  0  0  0
  -25.3980  -22.8660   24.6752 C   0  0  0  0  0  0  0  0  0  0  0  0
  -31.2354  -21.6456   16.9357 C   0  0  0  0  0  0  0  0  0  0  0  0
  -30.7465  -20.6355   17.9583 C   0  0  0  0  0  0  0  0  0  1  0  0
  -22.6870  -20.0136   21.6176 C   0  0  1  0  0  0  0  0  0  0  0  0
  -22.9697  -22.8728   24.0904 C   0  0  2  0  0  0  0  0  0  0  0  0
  -21.3206  -19.6574   20.9669 C   0  0  0  0  0  0  0  0  0  0  0  0
  -28.3944  -26.9480   20.0099 N   0  0  0  0  0  0  0  0  0  0  0  0
  -29.5730  -26.6061   20.5576 N   0  0  0  0  0  0  0  0  0  0  0  0
  -24.6895  -18.5623   21.5289 N   0  0  0  0  0  0  0  0  0  0  0  0
  -31.4385  -25.3228   17.4784 N   0  0  0  0  0  0  0  0  0  0  0  0
  -30.6675  -26.2792   22.6327 N   0  0  0  0  0  0  0  0  0  0  0  0
  -26.4833  -27.4765   23.8389 N   0  0  0  0  0  0  0  0  0  0  0  0
  -25.5584  -15.0937   20.8148 N   0  0  0  0  0  0  0  0  0  0  0  0
  -22.5873  -20.9105   22.7639 N   0  0  0  0  0  0  0  0  0  0  0  0
  -30.9843  -23.0048   17.3602 N   0  0  0  0  0  0  0  0  0  0  0  0
  -24.1650  -23.6719   24.4825 N   0  3  0  0  0  0  0  0  0  0  0  0
  -28.5547  -26.8935   24.6315 O   0  0  0  0  0  0  0  0  0  0  0  0
  -24.3627  -16.7733   19.7323 O   0  0  0  0  0  0  0  0  0  0  0  0
  -22.9152  -18.0710   22.9596 O   0  0  0  0  0  0  0  0  0  0  0  0
  -23.9432  -22.5808   21.8985 O   0  0  0  0  0  0  0  0  0  0  0  0
  -32.7944  -23.8864   16.2633 O   0  0  0  0  0  0  0  0  0  0  0  0
  -22.2844  -28.7009   20.3885 O   0  0  0  0  0  0  0  0  0  0  0  0
  -29.3424  -20.7999   18.1530 O   0  0  0  0  0  0  0  0  0  1  0  0
  -18.4716  -26.1855   23.4772 F   0  0  0  0  0  0  0  0  0  0  0  0
  -22.3777  -28.8388   23.1481 F   0  0  0  0  0  0  0  0  0  0  0  0
  1  2  1  0  0  0  0
  1  5  2  0  0  0  0
  2  6  2  0  0  0  0
  3  8  2  0  0  0  0
  3 15  1  0  0  0  0
  4  9  1  0  0  0  0
  4 15  2  0  0  0  0
  5 17  1  0  0  0  0
  6 19  1  0  0  0  0
  7 10  2  0  0  0  0
  7 18  1  0  0  0  0
  8 21  1  0  0  0  0
  9 21  2  0  0  0  0
 10 22  1  0  0  0  0
 11 12  2  0  0  0  0
 11 23  1  0  0  0  0
 12 24  1  0  0  0  0
 13 20  1  0  0  0  0
 13 22  2  0  0  0  0
 14 24  2  0  0  0  0
 14 25  1  0  0  0  0
 15 26  1  0  0  0  0
 16 26  1  0  0  0  0
 16 27  2  0  0  0  0
 16 28  1  0  0  0  0
 17 19  2  0  0  0  0
 17 33  1  0  0  0  0
 18 20  2  0  0  0  0
 18 34  1  0  0  0  0
 19 42  1  0  0  0  0
 20 35  1  0  0  0  0
 21 70  1  0  0  0  0
 22 71  1  0  0  0  0
 23 25  2  0  0  0  0
 23 70  1  0  0  0  0
 24 72  1  0  0  0  0
 25 73  1  0  0  0  0
 26 55  2  0  0  0  0
 27 56  1  0  0  0  0
 27 59  1  0  0  0  0
 28 60  1  0  0  0  0
 28 65  2  0  0  0  0
 29 43  1  0  0  0  0
 29 61  1  0  0  0  0
 29 66  2  0  0  0  0
 30 52  1  0  0  0  0
 30 57  1  0  0  0  0
 30 67  2  0  0  0  0
 31 53  1  0  0  0  0
 31 62  1  0  0  0  0
 31 68  2  0  0  0  0
 32 58  1  0  0  0  0
 32 63  1  0  0  0  0
 32 69  2  0  0  0  0
 33 36  1  0  0  0  0
 34 43  1  0  0  0  0
 35 57  1  0  0  0  0
 36 38  1  0  0  0  0
 37 39  1  0  0  0  0
 37 40  1  0  0  0  0
 38 42  1  0  0  0  0
 39 44  1  0  0  0  0
 40 58  1  0  0  0  0
 41 44  1  0  0  0  0
 41 58  1  0  0  0  0
 42 61  1  0  0  0  0
 43 57  1  0  0  0  0
 44 56  1  0  0  0  0
 45 53  1  0  0  0  0
 46 54  1  0  0  0  0
 47 54  1  0  0  0  0
 48 54  1  0  0  0  0
 49 64  1  0  0  0  0
 50 51  1  0  0  0  0
 50 63  1  0  0  0  0
 51 71  1  0  0  0  0
 52 54  1  0  0  0  0
 52 62  1  0  0  0  0
 53 64  1  0  0  0  0
 55 56  1  0  0  0  0
M  CHG  1  64   1
M  ISO  4  32 100  51 101  63 100  71 101
M  END
> <Batch ID>
0004

> <Smiles>
CNC(C)C(=O)NC(C(=O)N1Cc2cc([101O:1][101CH2:1]C[100NH:0][100C:0](=O)N3CCCC(n4nc(-c5ccc(Oc6ccc(F)cc6F)cc5)c(C(N)=O)c4N)C3)ccc2CC1C(=O)NC1CCCc2ccccc21)C(C)(C)C

> <Shape>
0.226

> <Color>
0.066

> <Negative vol penalty>
0.000

$$$$

  -OEChem-04042320233D

 88 97  0     1  0  0  0  0  0999 V2000
  -17.1682  -30.1732   19.9889 C   0  0  0  0  0  0  0  0  0  0  0  0
  -18.3280  -29.9590   20.2134 C   0  0  0  0  0  0  0  0  0  0  0  0
  -30.4153  -19.9726   20.5630 C   0  0  0  0  0  0  0  0  0  0  0  0
  -29.0452  -20.2109   20.5246 C   0  0  0  0  0  0  0  0  0  0  0  0
  -17.7560  -27.1099   23.9983 C   0  0  0  0  0  0  0  0  0  0  0  0
  -17.3704  -24.6935   23.8763 C   0  0  0  0  0  0  0  0  0  0  0  0
  -29.2008  -26.4633   20.2369 C   0  0  0  0  0  0  0  0  0  0  0  0
  -27.3246  -26.0022   18.7863 C   0  0  0  0  0  0  0  0  0  0  0  0
  -30.9088  -18.7006   20.2763 C   0  0  0  0  0  0  0  0  0  0  0  0
  -28.1678  -19.1773   20.1983 C   0  0  0  0  0  0  0  0  0  0  0  0
  -24.1428  -19.0044   23.2665 C   0  0  0  0  0  0  0  0  0  0  0  0
  -18.4020  -28.2549   23.5313 C   0  0  0  0  0  0  0  0  0  0  0  0
  -17.6362  -23.4562   23.2889 C   0  0  0  0  0  0  0  0  0  0  0  0
  -29.7460  -25.2172   19.9279 C   0  0  0  0  0  0  0  0  0  0  0  0
  -27.8698  -24.7561   18.4772 C   0  0  0  0  0  0  0  0  0  0  0  0
  -23.1263  -19.9304   23.0361 C   0  0  0  0  0  0  0  0  0  0  0  0
  -28.9473  -21.6016   17.0260 C   0  0  0  0  0  0  0  0  0  0  0  0
  -28.9535  -21.2095   15.6874 C   0  0  0  0  0  0  0  0  0  0  0  0
  -19.5763  -26.9258   21.8936 C   0  0  0  0  0  0  0  0  0  0  0  0
  -19.1906  -24.5093   21.7714 C   0  0  0  0  0  0  0  0  0  0  0  0
  -21.8544  -18.2375   21.8803 C   0  0  0  0  0  0  0  0  0  0  0  0
  -30.3026  -23.1347   15.1298 C   0  0  0  0  0  0  0  0  0  0  0  0
  -18.0115  -25.8563   23.4190 C   0  0  0  0  0  0  0  0  0  0  0  0
  -18.9352  -25.7629   22.3508 C   0  0  0  0  0  0  0  0  0  0  0  0
  -27.9900  -26.8558   19.6662 C   0  0  0  0  0  0  0  0  0  0  0  0
  -27.6477  -29.3588   19.3119 C   0  0  0  0  0  0  0  0  0  0  0  0
  -30.0364  -17.6485   19.9558 C   0  0  0  0  0  0  0  0  0  0  0  0
  -24.0273  -17.6887   22.7953 C   0  0  0  0  0  0  0  0  0  0  0  0
  -28.6502  -17.8903   19.9057 C   0  0  0  0  0  0  0  0  0  0  0  0
  -22.8698  -17.2961   22.1083 C   0  0  0  0  0  0  0  0  0  0  0  0
  -19.3104  -28.1630   22.4809 C   0  0  0  0  0  0  0  0  0  0  0  0
  -29.0805  -24.3636   19.0480 C   0  0  0  0  0  0  0  0  0  0  0  0
  -18.5446  -23.3643   22.2385 C   0  0  0  0  0  0  0  0  0  0  0  0
  -21.9832  -19.5478   22.3404 C   0  0  0  0  0  0  0  0  0  0  0  0
  -29.6188  -22.7602   17.4165 C   0  0  0  0  0  0  0  0  0  0  0  0
  -29.6311  -21.9760   14.7393 C   0  0  0  0  0  0  0  0  0  0  0  0
  -30.2964  -23.5267   16.4684 C   0  0  0  0  0  0  0  0  0  0  0  0
  -27.4260  -28.1427   19.9855 C   0  0  0  0  0  0  0  0  0  0  0  0
  -26.8899  -30.2751   19.9994 C   0  0  0  0  0  0  0  0  0  0  0  0
  -28.4654  -29.6354   18.1672 C   0  0  0  0  0  0  0  0  0  0  0  0
  -25.6620  -15.8874   20.7491 C   0  0  0  0  0  0  0  0  0  0  0  0
  -23.6496  -13.5654   21.7889 C   0  0  0  0  0  0  0  0  0  0  0  0
  -20.6499  -12.7478   23.1961 C   0  0  0  0  0  0  0  0  0  0  0  0
  -21.9931  -29.7793   23.4091 C   0  0  0  0  0  0  0  0  0  0  0  0
  -30.6199  -16.3022   19.6072 C   0  0  0  0  0  0  0  0  0  0  0  0
  -25.1210  -16.6948   23.0754 C   0  0  0  0  0  0  0  0  0  0  0  0
  -22.6881  -15.8902   21.5993 C   0  0  0  0  0  0  0  0  0  0  0  0
  -29.5975  -15.1691   19.6366 C   0  0  0  0  0  0  0  0  0  0  0  0
  -25.1327  -31.1632   24.3599 C   0  0  0  0  0  0  0  0  0  0  0  0
  -28.3238  -15.5801   18.9047 C   0  0  0  0  0  0  0  0  0  0  0  0
  -26.0965  -30.6557   23.2859 C   0  0  0  0  0  0  0  0  0  0  0  0
  -24.0749  -30.1183   24.7082 C   0  0  0  0  0  0  0  0  0  0  0  0
  -24.2848  -29.0846   22.4808 C   0  0  0  0  0  0  0  0  0  0  0  0
  -27.6649  -16.7888   19.5802 C   0  0  1  0  0  0  0  0  0  0  0  0
  -25.1236  -15.5194   22.1028 C   0  0  1  0  0  0  0  0  0  0  0  0
  -25.3360  -30.1242   22.0561 C   0  0  2  0  0  0  0  0  0  0  0  0
  -19.2722  -10.7670   23.8858 C   0  0  0  0  0  0  0  0  0  0  0  0
  -22.9488  -13.0383   18.8664 C   0  0  0  0  0  0  0  0  0  0  0  0
  -20.9372  -11.7703   19.6499 C   0  0  0  0  0  0  0  0  0  0  0  0
  -23.2232  -10.9805   20.2609 C   0  0  0  0  0  0  0  0  0  0  0  0
  -20.6306  -13.6014   26.0298 C   0  0  0  0  0  0  0  0  0  0  0  0
  -19.7497  -29.6942   20.4860 C   0  0  0  0  0  0  0  0  0  0  0  0
  -18.6893  -21.0050   22.5000 C   0  0  0  0  0  0  0  0  0  0  0  0
  -19.6594  -19.9416   22.0227 C   0  0  0  0  0  0  0  0  0  1  0  0
  -19.9999  -29.3880   21.9831 C   0  0  2  0  0  0  0  0  0  0  0  0
  -22.2933  -13.0569   21.3636 C   0  0  1  0  0  0  0  0  0  0  0  0
  -20.2932  -11.8031   24.3296 C   0  0  2  0  0  0  0  0  0  0  0  0
  -22.3546  -12.2386   20.0430 C   0  0  0  0  0  0  0  0  0  0  0  0
  -26.5928  -28.2714   21.0215 N   0  0  0  0  0  0  0  0  0  0  0  0
  -26.2843  -29.5793   21.0040 N   0  0  0  0  0  0  0  0  0  0  0  0
  -23.7881  -14.9567   21.8927 N   0  0  0  0  0  0  0  0  0  0  0  0
  -23.3895  -29.6567   23.4986 N   0  0  0  0  0  0  0  0  0  0  0  0
  -26.6893  -31.6001   19.8365 N   0  0  0  0  0  0  0  0  0  0  0  0
  -29.1773  -28.5786   17.5835 N   0  0  0  0  0  0  0  0  0  0  0  0
  -26.9541  -16.3766   20.7715 N   0  0  0  0  0  0  0  0  0  0  0  0
  -21.7600  -12.3159   22.5015 N   0  0  0  0  0  0  0  0  0  0  0  0
  -21.4238  -29.3233   22.2264 N   0  0  0  0  0  0  0  0  0  0  0  0
  -19.7228  -12.5634   25.4774 N   0  3  0  0  0  0  0  0  0  0  0  0
  -28.5748  -30.7888   17.6863 O   0  0  0  0  0  0  0  0  0  0  0  0
  -24.9578  -15.7370   19.7576 O   0  0  0  0  0  0  0  0  0  0  0  0
  -24.5508  -12.7575   22.0273 O   0  0  0  0  0  0  0  0  0  0  0  0
  -20.0059  -13.7650   22.9491 O   0  0  0  0  0  0  0  0  0  0  0  0
  -21.3052  -30.2644   24.3138 O   0  0  0  0  0  0  0  0  0  0  0  0
  -29.6124  -23.1477   18.7460 O   0  0  0  0  0  0  0  0  0  0  0  0
  -18.8051  -22.1490   21.6624 O   0  0  0  0  0  0  0  0  0  0  0  0
  -20.9898  -20.4497   22.1135 O   0  0  0  0  0  0  0  0  0  1  0  0
  -29.6382  -21.5986   13.4541 F   0  0  0  0  0  0  0  0  0  0  0  0
  -30.9442  -24.6401   16.8378 F   0  0  0  0  0  0  0  0  0  0  0  0
  1  2  3  0  0  0  0
  2 62  1  0  0  0  0
  3  4  1  0  0  0  0
  3  9  2  0  0  0  0
  4 10  2  0  0  0  0
  5 12  2  0  0  0  0
  5 23  1  0  0  0  0
  6 13  2  0  0  0  0
  6 23  1  0  0  0  0
  7 14  2  0  0  0  0
  7 25  1  0  0  0  0
  8 15  1  0  0  0  0
  8 25  2  0  0  0  0
  9 27  1  0  0  0  0
 10 29  1  0  0  0  0
 11 16  2  0  0  0  0
 11 28  1  0  0  0  0
 12 31  1  0  0  0  0
 13 33  1  0  0  0  0
 14 32  1  0  0  0  0
 15 32  2  0  0  0  0
 16 34  1  0  0  0  0
 17 18  2  0  0  0  0
 17 35  1  0  0  0  0
 18 36  1  0  0  0  0
 19 24  1  0  0  0  0
 19 31  2  0  0  0  0
 20 24  1  0  0  0  0
 20 33  2  0  0  0  0
 21 30  1  0  0  0  0
 21 34  2  0  0  0  0
 22 36  2  0  0  0  0
 22 37  1  0  0  0  0
 23 24  2  0  0  0  0
 25 38  1  0  0  0  0
 26 38  1  0  0  0  0
 26 39  2  0  0  0  0
 26 40  1  0  0  0  0
 27 29  2  0  0  0  0
 27 45  1  0  0  0  0
 28 30  2  0  0  0  0
 28 46  1  0  0  0  0
 29 54  1  0  0  0  0
 30 47  1  0  0  0  0
 31 65  1  0  0  0  0
 32 84  1  0  0  0  0
 33 85  1  0  0  0  0
 34 86  1  0  0  0  0
 35 37  2  0  0  0  0
 35 84  1  0  0  0  0
 36 87  1  0  0  0  0
 37 88  1  0  0  0  0
 38 69  2  0  0  0  0
 39 70  1  0  0  0  0
 39 73  1  0  0  0  0
 40 74  1  0  0  0  0
 40 79  2  0  0  0  0
 41 55  1  0  0  0  0
 41 75  1  0  0  0  0
 41 80  2  0  0  0  0
 42 66  1  0  0  0  0
 42 71  1  0  0  0  0
 42 81  2  0  0  0  0
 43 67  1  0  0  0  0
 43 76  1  0  0  0  0
 43 82  2  0  0  0  0
 44 72  1  0  0  0  0
 44 77  1  0  0  0  0
 44 83  2  0  0  0  0
 45 48  1  0  0  0  0
 46 55  1  0  0  0  0
 47 71  1  0  0  0  0
 48 50  1  0  0  0  0
 49 51  1  0  0  0  0
 49 52  1  0  0  0  0
 50 54  1  0  0  0  0
 51 56  1  0  0  0  0
 52 72  1  0  0  0  0
 53 56  1  0  0  0  0
 53 72  1  0  0  0  0
 54 75  1  0  0  0  0
 55 71  1  0  0  0  0
 56 70  1  0  0  0  0
 57 67  1  0  0  0  0
 58 68  1  0  0  0  0
 59 68  1  0  0  0  0
 60 68  1  0  0  0  0
 61 78  1  0  0  0  0
 62 65  1  0  0  0  0
 63 64  1  0  0  0  0
 63 85  1  0  0  0  0
 64 86  1  0  0  0  0
 65 77  1  0  0  0  0
 66 68  1  0  0  0  0
 66 76  1  0  0  0  0
 67 78  1  0  0  0  0
 69 70  1  0  0  0  0
M  CHG  1  78   1
M  ISO  4  44 100  64 101  77 100  86 101
M  END
> <Batch ID>
0004

> <Smiles>
C#CCC([100NH:0][100C:0](=O)N1CCCC(n2nc(-c3ccc(Oc4ccc(F)cc4F)cc3)c(C(N)=O)c2N)C1)c1ccc2ccc(OC[101CH2:1][101O:1]c3ccc4c(c3)CN(C(=O)C(NC(=O)C(C)NC)C(C)(C)C)C(C(=O)NC3CCCc5ccccc53)C4)cc2c1

> <Shape>
0.232

> <Color>
0.059

> <Negative vol penalty>
0.000

$$$$

  -OEChem-04042320233D

 81 89  0     1  0  0  0  0  0999 V2000
  -27.5699  -34.2297   24.8084 C   0  0  0  0  0  0  0  0  0  0  0  0
  -27.8671  -32.8724   24.7396 C   0  0  0  0  0  0  0  0  0  0  0  0
  -24.1133   -9.8969   21.9374 C   0  0  0  0  0  0  0  0  0  0  0  0
  -24.4796  -11.2326   23.9169 C   0  0  0  0  0  0  0  0  0  0  0  0
  -28.4864  -21.0164   21.2443 C   0  0  0  0  0  0  0  0  0  0  0  0
  -26.2520  -34.6617   24.6652 C   0  0  0  0  0  0  0  0  0  0  0  0
  -26.8463  -31.9461   24.5288 C   0  0  0  0  0  0  0  0  0  0  0  0
  -28.0809  -28.4452   21.0842 C   0  0  0  0  0  0  0  0  0  0  0  0
  -28.2809  -19.6783   20.9084 C   0  0  0  0  0  0  0  0  0  0  0  0
  -23.6421   -8.8506   22.7305 C   0  0  0  0  0  0  0  0  0  0  0  0
  -24.0084  -10.1864   24.7101 C   0  0  0  0  0  0  0  0  0  0  0  0
  -28.9219  -27.4133   21.4984 C   0  0  0  0  0  0  0  0  0  0  0  0
  -20.7858   -8.0439   24.3502 C   0  0  0  0  0  0  0  0  0  0  0  0
  -19.6220   -7.3933   23.9405 C   0  0  0  0  0  0  0  0  0  0  0  0
  -27.0104  -25.9628   21.7458 C   0  0  0  0  0  0  0  0  0  0  0  0
  -30.6703  -19.3239   20.8590 C   0  0  0  0  0  0  0  0  0  0  0  0
  -20.8370   -5.3099   23.7976 C   0  0  0  0  0  0  0  0  0  0  0  0
  -24.5321  -11.0878   22.5306 C   0  0  0  0  0  0  0  0  0  0  0  0
  -29.7838  -21.5083   21.3875 C   0  0  0  0  0  0  0  0  0  0  0  0
  -24.2648  -13.2140   21.1465 C   0  0  0  0  0  0  0  0  0  0  0  0
  -25.2159  -33.7410   24.4429 C   0  0  0  0  0  0  0  0  0  0  0  0
  -26.6948  -28.2466   21.0081 C   0  0  0  0  0  0  0  0  0  0  0  0
  -25.5132  -32.3660   24.3838 C   0  0  0  0  0  0  0  0  0  0  0  0
  -26.1542  -26.9930   21.3280 C   0  0  0  0  0  0  0  0  0  0  0  0
  -29.3729  -18.8321   20.7157 C   0  0  0  0  0  0  0  0  0  0  0  0
  -23.5896   -8.9954   24.1168 C   0  0  0  0  0  0  0  0  0  0  0  0
  -28.3864  -26.1727   21.8320 C   0  0  0  0  0  0  0  0  0  0  0  0
  -21.9753   -7.3276   24.4835 C   0  0  0  0  0  0  0  0  0  0  0  0
  -19.6476   -6.0263   23.6643 C   0  0  0  0  0  0  0  0  0  0  0  0
  -30.8757  -20.6621   21.1948 C   0  0  0  0  0  0  0  0  0  0  0  0
  -22.0009   -5.9606   24.2072 C   0  0  0  0  0  0  0  0  0  0  0  0
  -25.0195  -12.1687   21.7119 C   0  0  0  0  0  0  0  0  0  0  0  0
  -25.1852  -13.9725   20.4653 C   0  0  0  0  0  0  0  0  0  0  0  0
  -29.9985  -22.9404   21.7440 C   0  0  0  0  0  0  0  0  0  0  0  0
  -22.8576  -13.4759   21.2296 C   0  0  0  0  0  0  0  0  0  0  0  0
  -24.1631  -29.5279   22.4409 C   0  0  0  0  0  0  0  0  0  0  0  0
  -22.5250  -27.6815   20.3361 C   0  0  0  0  0  0  0  0  0  0  0  0
  -22.4826  -24.9300   18.3177 C   0  0  0  0  0  0  0  0  0  0  0  0
  -30.1367  -16.4995   20.1484 C   0  0  0  0  0  0  0  0  0  0  0  0
  -23.8004  -34.2516   24.3414 C   0  0  0  0  0  0  0  0  0  0  0  0
  -25.8038  -29.3619   20.5339 C   0  0  0  0  0  0  0  0  0  0  0  0
  -24.6749  -26.7224   21.2435 C   0  0  0  0  0  0  0  0  0  0  0  0
  -22.8278  -33.2364   23.7468 C   0  0  0  0  0  0  0  0  0  0  0  0
  -30.0274  -13.0373   19.3248 C   0  0  0  0  0  0  0  0  0  0  0  0
  -23.0236  -31.8681   24.3920 C   0  0  0  0  0  0  0  0  0  0  0  0
  -28.6527  -12.5886   19.8259 C   0  0  0  0  0  0  0  0  0  0  0  0
  -30.6595  -14.0724   20.2535 C   0  0  0  0  0  0  0  0  0  0  0  0
  -28.4415  -14.7888   21.0514 C   0  0  0  0  0  0  0  0  0  0  0  0
  -24.4368  -31.3326   24.1317 C   0  0  1  0  0  0  0  0  0  0  0  0
  -24.3556  -29.2032   20.9865 C   0  0  1  0  0  0  0  0  0  0  0  0
  -27.7369  -13.7944   20.1142 C   0  0  2  0  0  0  0  0  0  0  0  0
  -20.9903  -23.6591   16.7509 C   0  0  0  0  0  0  0  0  0  0  0  0
  -21.0068  -26.5306   22.7195 C   0  0  0  0  0  0  0  0  0  0  0  0
  -20.2519  -24.6543   21.2438 C   0  0  0  0  0  0  0  0  0  0  0  0
  -19.5934  -27.0006   20.7106 C   0  0  0  0  0  0  0  0  0  0  0  0
  -24.3185  -25.3585   16.0364 C   0  0  0  0  0  0  0  0  0  0  0  0
  -28.7881  -23.8313   21.9430 C   0  0  0  0  0  0  0  0  0  1  0  0
  -21.9864  -26.2713   20.3448 C   0  0  1  0  0  0  0  0  0  0  0  0
  -22.0472  -24.7455   16.8752 C   0  0  2  0  0  0  0  0  0  0  0  0
  -20.7373  -26.1196   21.2582 C   0  0  0  0  0  0  0  0  0  0  0  0
  -26.3192  -12.2523   21.4156 N   0  0  0  0  0  0  0  0  0  0  0  0
  -26.3883  -13.3592   20.6564 N   0  0  0  0  0  0  0  0  0  0  0  0
  -23.8445  -27.8465   20.7806 N   0  0  0  0  0  0  0  0  0  0  0  0
  -29.7365  -15.1872   20.4777 N   0  0  0  0  0  0  0  0  0  0  0  0
  -25.0747  -15.0976   19.7275 N   0  0  0  0  0  0  0  0  0  0  0  0
  -22.0569  -12.5960   21.9706 N   0  0  0  0  0  0  0  0  0  0  0  0
  -29.1640  -17.4728   20.3745 N   0  0  0  0  0  0  0  0  0  0  0  0
  -24.5399  -30.8120   22.7853 N   0  0  0  0  0  0  0  0  0  0  0  0
  -21.7531  -25.9148   18.9495 N   0  0  0  0  0  0  0  0  0  0  0  0
  -23.2124  -24.3669   16.0268 N   0  3  0  0  0  0  0  0  0  0  0  0
  -31.1433  -23.3692   21.8699 O   0  0  0  0  0  0  0  0  0  0  0  0
  -22.3235  -14.4517   20.6500 O   0  0  0  0  0  0  0  0  0  0  0  0
  -23.7052  -28.6769   23.1944 O   0  0  0  0  0  0  0  0  0  0  0  0
  -21.8041  -28.6018   19.9426 O   0  0  0  0  0  0  0  0  0  0  0  0
  -23.3777  -24.2642   18.8337 O   0  0  0  0  0  0  0  0  0  0  0  0
  -31.2499  -16.7385   19.6733 O   0  0  0  0  0  0  0  0  0  0  0  0
  -23.1297   -7.9748   24.8910 O   0  0  0  0  0  0  0  0  0  0  0  0
  -29.2050  -25.1640   22.2372 O   0  0  0  0  0  0  0  0  0  1  0  0
  -18.5295   -5.4013   23.2724 F   0  0  0  0  0  0  0  0  0  0  0  0
  -32.1271  -21.1241   21.3294 F   0  0  0  0  0  0  0  0  0  0  0  0
  -23.1403   -5.2669   24.3346 F   0  0  0  0  0  0  0  0  0  0  0  0
  1  2  1  0  0  0  0
  1  6  2  0  0  0  0
  2  7  2  0  0  0  0
  3 10  2  0  0  0  0
  3 18  1  0  0  0  0
  4 11  1  0  0  0  0
  4 18  2  0  0  0  0
  5  9  2  0  0  0  0
  5 19  1  0  0  0  0
  6 21  1  0  0  0  0
  7 23  1  0  0  0  0
  8 12  2  0  0  0  0
  8 22  1  0  0  0  0
  9 25  1  0  0  0  0
 10 26  1  0  0  0  0
 11 26  2  0  0  0  0
 12 27  1  0  0  0  0
 13 14  2  0  0  0  0
 13 28  1  0  0  0  0
 14 29  1  0  0  0  0
 15 24  1  0  0  0  0
 15 27  2  0  0  0  0
 16 25  2  0  0  0  0
 16 30  1  0  0  0  0
 17 29  2  0  0  0  0
 17 31  1  0  0  0  0
 18 32  1  0  0  0  0
 19 30  2  0  0  0  0
 19 34  1  0  0  0  0
 20 32  1  0  0  0  0
 20 33  2  0  0  0  0
 20 35  1  0  0  0  0
 21 23  2  0  0  0  0
 21 40  1  0  0  0  0
 22 24  2  0  0  0  0
 22 41  1  0  0  0  0
 23 49  1  0  0  0  0
 24 42  1  0  0  0  0
 25 67  1  0  0  0  0
 26 77  1  0  0  0  0
 27 78  1  0  0  0  0
 28 31  2  0  0  0  0
 28 77  1  0  0  0  0
 29 79  1  0  0  0  0
 30 80  1  0  0  0  0
 31 81  1  0  0  0  0
 32 61  2  0  0  0  0
 33 62  1  0  0  0  0
 33 65  1  0  0  0  0
 34 57  1  0  0  0  0
 34 71  2  0  0  0  0
 35 66  1  0  0  0  0
 35 72  2  0  0  0  0
 36 50  1  0  0  0  0
 36 68  1  0  0  0  0
 36 73  2  0  0  0  0
 37 58  1  0  0  0  0
 37 63  1  0  0  0  0
 37 74  2  0  0  0  0
 38 59  1  0  0  0  0
 38 69  1  0  0  0  0
 38 75  2  0  0  0  0
 39 64  1  0  0  0  0
 39 67  1  0  0  0  0
 39 76  2  0  0  0  0
 40 43  1  0  0  0  0
 41 50  1  0  0  0  0
 42 63  1  0  0  0  0
 43 45  1  0  0  0  0
 44 46  1  0  0  0  0
 44 47  1  0  0  0  0
 45 49  1  0  0  0  0
 46 51  1  0  0  0  0
 47 64  1  0  0  0  0
 48 51  1  0  0  0  0
 48 64  1  0  0  0  0
 49 68  1  0  0  0  0
 50 63  1  0  0  0  0
 51 62  1  0  0  0  0
 52 59  1  0  0  0  0
 53 60  1  0  0  0  0
 54 60  1  0  0  0  0
 55 60  1  0  0  0  0
 56 70  1  0  0  0  0
 57 78  1  0  0  0  0
 58 60  1  0  0  0  0
 58 69  1  0  0  0  0
 59 70  1  0  0  0  0
 61 62  1  0  0  0  0
M  CHG  1  70   1
M  ISO  4  39 100  57 101  67 100  78 101
M  END
> <Batch ID>
0004

> <Smiles>
CNC(C)C(=O)NC(C(=O)N1Cc2cc([101O:1][101CH2:1]C(=O)c3ccc([100NH:0][100C:0](=O)N4CCCC(n5nc(-c6ccc(Oc7ccc(F)cc7F)cc6)c(C(N)=O)c5N)C4)cc3F)ccc2CC1C(=O)NC1CCCc2ccccc21)C(C)(C)C

> <Shape>
0.295

> <Color>
0.115

> <Negative vol penalty>
0.000

$$$$

  -OEChem-04042320233D

 94104  0     1  0  0  0  0  0999 V2000
  -18.2314  -26.5988   22.8576 C   0  0  0  0  0  0  0  0  0  0  0  0
  -32.2865  -10.3283   17.5665 C   0  0  0  0  0  0  0  0  0  0  0  0
  -31.8362  -11.5124   18.1415 C   0  0  0  0  0  0  0  0  0  0  0  0
  -18.5728  -27.4884   23.8762 C   0  0  0  0  0  0  0  0  0  0  0  0
  -28.0235  -27.1502   18.5630 C   0  0  0  0  0  0  0  0  0  0  0  0
  -29.1858  -28.0846   20.4638 C   0  0  0  0  0  0  0  0  0  0  0  0
  -18.9318  -26.6174   21.6515 C   0  0  0  0  0  0  0  0  0  0  0  0
  -31.4062   -9.5298   16.8375 C   0  0  0  0  0  0  0  0  0  0  0  0
  -30.5054  -11.8992   17.9870 C   0  0  0  0  0  0  0  0  0  0  0  0
  -27.0343  -14.8607   22.0719 C   0  0  0  0  0  0  0  0  0  0  0  0
  -19.6146  -28.3968   23.6887 C   0  0  0  0  0  0  0  0  0  0  0  0
  -28.9250  -26.0862   18.5347 C   0  0  0  0  0  0  0  0  0  0  0  0
  -30.0873  -27.0205   20.4356 C   0  0  0  0  0  0  0  0  0  0  0  0
  -26.6889  -16.2042   22.2105 C   0  0  0  0  0  0  0  0  0  0  0  0
  -30.7042  -22.9353   18.1869 C   0  0  0  0  0  0  0  0  0  0  0  0
  -30.1861  -21.6505   18.0239 C   0  0  0  0  0  0  0  0  0  0  0  0
  -24.6264  -15.7896   21.0301 C   0  0  0  0  0  0  0  0  0  0  0  0
  -28.9033  -21.9102   20.0548 C   0  0  0  0  0  0  0  0  0  0  0  0
  -28.1539  -28.1495   19.5275 C   0  0  0  0  0  0  0  0  0  0  0  0
  -19.9736  -27.5258   21.4639 C   0  0  0  0  0  0  0  0  0  0  0  0
  -26.9803  -30.1846   18.5333 C   0  0  0  0  0  0  0  0  0  0  0  0
  -30.0616   -9.9022   16.6821 C   0  0  0  0  0  0  0  0  0  0  0  0
  -26.1819  -13.9722   21.4006 C   0  0  0  0  0  0  0  0  0  0  0  0
  -29.6066  -11.1056   17.2541 C   0  0  0  0  0  0  0  0  0  0  0  0
  -24.9621  -14.4347   20.8865 C   0  0  0  0  0  0  0  0  0  0  0  0
  -20.3150  -28.4155   22.4825 C   0  0  0  0  0  0  0  0  0  0  0  0
  -29.9568  -26.0213   19.4710 C   0  0  0  0  0  0  0  0  0  0  0  0
  -25.4861  -16.6695   21.6871 C   0  0  0  0  0  0  0  0  0  0  0  0
  -30.3219  -23.7075   19.2839 C   0  0  0  0  0  0  0  0  0  0  0  0
  -29.2856  -21.1380   18.9578 C   0  0  0  0  0  0  0  0  0  0  0  0
  -29.4214  -23.1949   20.2178 C   0  0  0  0  0  0  0  0  0  0  0  0
  -27.2234  -29.2491   19.5569 C   0  0  0  0  0  0  0  0  0  0  0  0
  -26.0173  -31.0165   19.0501 C   0  0  0  0  0  0  0  0  0  0  0  0
  -20.6894  -27.5190   20.1842 C   0  0  0  0  0  0  0  0  0  0  0  0
  -27.5719  -30.2919   17.2317 C   0  0  0  0  0  0  0  0  0  0  0  0
  -26.4205  -12.1759   18.7891 C   0  0  0  0  0  0  0  0  0  0  0  0
  -23.5254  -11.0760   19.7537 C   0  0  0  0  0  0  0  0  0  0  0  0
  -20.6649  -11.6216   21.5333 C   0  0  0  0  0  0  0  0  0  0  0  0
  -21.8163  -30.2924   23.2373 C   0  0  0  0  0  0  0  0  0  0  0  0
  -29.1590   -9.0304   15.8456 C   0  0  0  0  0  0  0  0  0  0  0  0
  -26.5567  -12.5203   21.2829 C   0  0  0  0  0  0  0  0  0  0  0  0
  -24.0026  -13.5173   20.1750 C   0  0  0  0  0  0  0  0  0  0  0  0
  -27.6741   -9.3233   16.0445 C   0  0  0  0  0  0  0  0  0  0  0  0
  -22.0231  -22.6799   16.4576 C   0  0  0  0  0  0  0  0  0  0  0  0
  -24.4012  -32.7409   23.2154 C   0  0  0  0  0  0  0  0  0  0  0  0
  -21.4348  -24.0814   16.3346 C   0  0  0  0  0  0  0  0  0  0  0  0
  -27.4159  -10.8261   16.0018 C   0  0  0  0  0  0  0  0  0  0  0  0
  -25.3932  -32.2115   22.1771 C   0  0  0  0  0  0  0  0  0  0  0  0
  -23.3081  -22.5646   17.2758 C   0  0  0  0  0  0  0  0  0  0  0  0
  -22.4018  -24.3780   20.6260 C   0  0  0  0  0  0  0  0  0  0  0  0
  -23.7705  -31.6096   24.0254 C   0  0  0  0  0  0  0  0  0  0  0  0
  -22.3446  -25.8225   21.1138 C   0  0  0  0  0  0  0  0  0  0  0  0
  -24.1480  -30.0123   22.1882 C   0  0  0  0  0  0  0  0  0  0  0  0
  -21.1965  -24.8104   17.6511 C   0  0  0  0  0  0  0  0  0  0  0  0
  -22.5223  -26.6261   18.8043 C   0  0  0  0  0  0  0  0  0  0  0  0
  -28.1644  -11.5467   17.1296 C   0  0  1  0  0  0  0  0  0  0  0  0
  -25.8502  -11.8124   20.1308 C   0  0  1  0  0  0  0  0  0  0  0  0
  -24.7608  -31.1103   21.3036 C   0  0  2  0  0  0  0  0  0  0  0  0
  -23.1077  -24.2343   19.2632 C   0  0  1  0  0  0  0  0  0  0  0  0
  -23.0774  -22.7760   18.7747 C   0  0  2  0  0  0  0  0  0  0  0  0
  -18.4650  -10.5563   22.1014 C   0  0  0  0  0  0  0  0  0  0  0  0
  -22.4774  -11.7620   16.9714 C   0  0  0  0  0  0  0  0  0  0  0  0
  -20.1512  -11.5838   17.8798 C   0  0  0  0  0  0  0  0  0  0  0  0
  -21.6491   -9.5891   17.8917 C   0  0  0  0  0  0  0  0  0  0  0  0
  -21.2902  -11.6006   24.4259 C   0  0  0  0  0  0  0  0  0  0  0  0
  -24.6232  -20.0382   20.6669 C   0  0  0  0  0  0  0  0  0  0  0  0
  -24.3358  -18.5506   20.7958 C   0  0  0  0  0  0  0  0  0  1  0  0
  -23.7961  -20.6841   19.5665 C   0  0  0  0  0  0  0  0  0  0  0  0
  -22.0919  -11.4814   19.5089 C   0  0  1  0  0  0  0  0  0  0  0  0
  -19.9130  -10.7505   22.5235 C   0  0  2  0  0  0  0  0  0  0  0  0
  -21.6112  -11.1220   18.0746 C   0  0  0  0  0  0  0  0  0  0  0  0
  -26.4753  -29.4660   20.6419 N   0  0  0  0  0  0  0  0  0  0  0  0
  -25.7528  -30.5473   20.3031 N   0  0  0  0  0  0  0  0  0  0  0  0
  -21.8070  -26.6924   20.0667 N   0  0  0  0  0  0  0  0  0  0  0  0
  -24.4169  -12.1078   20.0798 N   0  0  0  0  0  0  0  0  0  0  0  0
  -23.1879  -30.6062   23.1318 N   0  0  0  0  0  0  0  0  0  0  0  0
  -25.3797  -32.0964   18.5505 N   0  0  0  0  0  0  0  0  0  0  0  0
  -28.7262  -31.0731   17.0848 N   0  0  0  0  0  0  0  0  0  0  0  0
  -21.3682  -29.3483   22.3140 N   0  0  0  0  0  0  0  0  0  0  0  0
  -27.4710  -11.3728   18.3880 N   0  0  0  0  0  0  0  0  0  0  0  0
  -21.3064  -10.8672   20.5738 N   0  0  0  0  0  0  0  0  0  0  0  0
  -22.5241  -25.2101   18.2594 N   0  3  1  0  0  0  0  0  0  0  0  0
  -19.9285  -11.3734   23.8772 N   0  3  0  0  0  0  0  0  0  0  0  0
  -20.2385  -28.2495   19.3037 O   0  0  0  0  0  0  0  0  0  0  0  0
  -27.0819  -29.7254   16.2255 O   0  0  0  0  0  0  0  0  0  0  0  0
  -25.9419  -13.1146   18.1634 O   0  0  0  0  0  0  0  0  0  0  0  0
  -23.8409   -9.8867   19.6661 O   0  0  0  0  0  0  0  0  0  0  0  0
  -20.6785  -12.8486   21.6018 O   0  0  0  0  0  0  0  0  0  0  0  0
  -21.0867  -30.8422   24.0664 O   0  0  0  0  0  0  0  0  0  0  0  0
  -30.8365  -24.9831   19.4439 O   0  0  0  0  0  0  0  0  0  0  0  0
  -25.1444  -17.9901   21.8214 O   0  0  0  0  0  0  0  0  0  1  0  0
  -24.1017  -22.0644   19.4827 O   0  0  0  0  0  0  0  0  0  0  0  0
  -28.7870  -19.9048   18.8003 F   0  0  0  0  0  0  0  0  0  0  0  0
  -29.0496  -23.9325   21.2730 F   0  0  0  0  0  0  0  0  0  0  0  0
  1  4  1  0  0  0  0
  1  7  2  0  0  0  0
  2  3  1  0  0  0  0
  2  8  2  0  0  0  0
  3  9  2  0  0  0  0
  4 11  2  0  0  0  0
  5 12  2  0  0  0  0
  5 19  1  0  0  0  0
  6 13  1  0  0  0  0
  6 19  2  0  0  0  0
  7 20  1  0  0  0  0
  8 22  1  0  0  0  0
  9 24  1  0  0  0  0
 10 14  2  0  0  0  0
 10 23  1  0  0  0  0
 11 26  1  0  0  0  0
 12 27  1  0  0  0  0
 13 27  2  0  0  0  0
 14 28  1  0  0  0  0
 15 16  2  0  0  0  0
 15 29  1  0  0  0  0
 16 30  1  0  0  0  0
 17 25  1  0  0  0  0
 17 28  2  0  0  0  0
 18 30  2  0  0  0  0
 18 31  1  0  0  0  0
 19 32  1  0  0  0  0
 20 26  2  0  0  0  0
 20 34  1  0  0  0  0
 21 32  1  0  0  0  0
 21 33  2  0  0  0  0
 21 35  1  0  0  0  0
 22 24  2  0  0  0  0
 22 40  1  0  0  0  0
 23 25  2  0  0  0  0
 23 41  1  0  0  0  0
 24 56  1  0  0  0  0
 25 42  1  0  0  0  0
 26 79  1  0  0  0  0
 27 90  1  0  0  0  0
 28 91  1  0  0  0  0
 29 31  2  0  0  0  0
 29 90  1  0  0  0  0
 30 93  1  0  0  0  0
 31 94  1  0  0  0  0
 32 72  2  0  0  0  0
 33 73  1  0  0  0  0
 33 77  1  0  0  0  0
 34 74  1  0  0  0  0
 34 84  2  0  0  0  0
 35 78  1  0  0  0  0
 35 85  2  0  0  0  0
 36 57  1  0  0  0  0
 36 80  1  0  0  0  0
 36 86  2  0  0  0  0
 37 69  1  0  0  0  0
 37 75  1  0  0  0  0
 37 87  2  0  0  0  0
 38 70  1  0  0  0  0
 38 81  1  0  0  0  0
 38 88  2  0  0  0  0
 39 76  1  0  0  0  0
 39 79  1  0  0  0  0
 39 89  2  0  0  0  0
 40 43  1  0  0  0  0
 41 57  1  0  0  0  0
 42 75  1  0  0  0  0
 43 47  1  0  0  0  0
 44 46  1  0  0  0  0
 44 49  1  0  0  0  0
 45 48  1  0  0  0  0
 45 51  1  0  0  0  0
 46 54  1  0  0  0  0
 47 56  1  0  0  0  0
 48 58  1  0  0  0  0
 49 60  1  0  0  0  0
 50 52  1  0  0  0  0
 50 59  1  0  0  0  0
 51 76  1  0  0  0  0
 52 74  1  0  0  0  0
 53 58  1  0  0  0  0
 53 76  1  0  0  0  0
 54 82  1  0  0  0  0
 55 74  1  0  0  0  0
 55 82  1  0  0  0  0
 56 80  1  0  0  0  0
 57 75  1  0  0  0  0
 58 73  1  0  0  0  0
 59 60  1  0  0  0  0
 59 82  1  0  0  0  0
 60 92  1  0  0  0  0
 61 70  1  0  0  0  0
 62 71  1  0  0  0  0
 63 71  1  0  0  0  0
 64 71  1  0  0  0  0
 65 83  1  0  0  0  0
 66 67  1  0  0  0  0
 66 68  1  0  0  0  0
 67 91  1  0  0  0  0
 68 92  1  0  0  0  0
 69 71  1  0  0  0  0
 69 81  1  0  0  0  0
 70 83  1  0  0  0  0
 72 73  1  0  0  0  0
M  CHG  2  82   1  83   1
M  ISO  4  39 100  67 101  79 100  91 101
M  END
> <Batch ID>
0004

> <Smiles>
CNC(C)C(=O)NC(C(=O)N1Cc2cc([101O:1][101CH2:1]CCOC3CCCCN4CN(C(=O)c5ccccc5[100NH:0][100C:0](=O)N5CCCC(n6nc(-c7ccc(Oc8ccc(F)cc8F)cc7)c(C(N)=O)c6N)C5)CCC34)ccc2CC1C(=O)NC1CCCc2ccccc21)C(C)(C)C

> <Shape>
0.250

> <Color>
0.066

> <Negative vol penalty>
0.000

$$$$

  -OEChem-04042320233D

 96105  0     1  0  0  0  0  0999 V2000
  -29.5731  -24.4361   26.3402 C   0  0  0  0  0  0  0  0  0  0  0  0
  -30.5116  -23.8300   25.8993 C   0  0  0  0  0  0  0  0  0  0  0  0
  -16.7600  -12.4726   22.3130 C   0  0  0  0  0  0  0  0  0  0  0  0
  -17.5568  -13.5900   22.0855 C   0  0  0  0  0  0  0  0  0  0  0  0
  -27.4785  -26.5732   28.5541 C   0  0  0  0  0  0  0  0  0  0  0  0
  -28.5733  -25.8734   28.0470 C   0  0  0  0  0  0  0  0  0  0  0  0
  -27.5709  -30.5693   20.3315 C   0  0  0  0  0  0  0  0  0  0  0  0
  -27.2739  -29.0514   22.1876 C   0  0  0  0  0  0  0  0  0  0  0  0
  -17.3243  -11.3107   22.8380 C   0  0  0  0  0  0  0  0  0  0  0  0
  -18.9183  -13.5466   22.3838 C   0  0  0  0  0  0  0  0  0  0  0  0
  -21.7756  -15.5551   18.7168 C   0  0  0  0  0  0  0  0  0  0  0  0
  -26.2613  -26.5526   27.8731 C   0  0  0  0  0  0  0  0  0  0  0  0
  -26.5910  -31.4087   20.8612 C   0  0  0  0  0  0  0  0  0  0  0  0
  -26.2940  -29.8910   22.7173 C   0  0  0  0  0  0  0  0  0  0  0  0
  -21.8418  -16.9461   18.6510 C   0  0  0  0  0  0  0  0  0  0  0  0
  -23.0275  -30.5662   22.1646 C   0  0  0  0  0  0  0  0  0  0  0  0
  -21.8520  -29.9771   22.6300 C   0  0  0  0  0  0  0  0  0  0  0  0
  -27.2340  -25.1326   26.1776 C   0  0  0  0  0  0  0  0  0  0  0  0
  -23.9755  -16.8918   19.7750 C   0  0  0  0  0  0  0  0  0  0  0  0
  -22.2812  -30.8635   24.8362 C   0  0  0  0  0  0  0  0  0  0  0  0
  -28.4511  -25.1532   26.8588 C   0  0  0  0  0  0  0  0  0  0  0  0
  -27.9124  -29.3905   20.9947 C   0  0  0  0  0  0  0  0  0  0  0  0
  -30.2716  -28.8419   20.1945 C   0  0  0  0  0  0  0  0  0  0  0  0
  -18.6952  -11.2498   23.1338 C   0  0  0  0  0  0  0  0  0  0  0  0
  -22.8055  -14.8214   19.3229 C   0  0  0  0  0  0  0  0  0  0  0  0
  -19.5012  -12.3832   22.9144 C   0  0  0  0  0  0  0  0  0  0  0  0
  -23.9212  -15.4913   19.8449 C   0  0  0  0  0  0  0  0  0  0  0  0
  -26.1391  -25.8324   26.6848 C   0  0  0  0  0  0  0  0  0  0  0  0
  -25.9525  -31.0696   22.0541 C   0  0  0  0  0  0  0  0  0  0  0  0
  -22.9405  -17.6149   19.1827 C   0  0  0  0  0  0  0  0  0  0  0  0
  -23.8300  -31.3038   23.0351 C   0  0  0  0  0  0  0  0  0  0  0  0
  -21.4788  -30.1257   23.9658 C   0  0  0  0  0  0  0  0  0  0  0  0
  -23.4568  -31.4525   24.3708 C   0  0  0  0  0  0  0  0  0  0  0  0
  -28.9242  -28.5226   20.4478 C   0  0  0  0  0  0  0  0  0  0  0  0
  -30.8076  -27.6862   19.6808 C   0  0  0  0  0  0  0  0  0  0  0  0
  -30.9759  -30.0729   20.4048 C   0  0  0  0  0  0  0  0  0  0  0  0
  -22.9987  -12.8762   21.8295 C   0  0  0  0  0  0  0  0  0  0  0  0
  -26.0292  -12.4341   20.7604 C   0  0  0  0  0  0  0  0  0  0  0  0
  -28.6756  -13.6382   18.9734 C   0  0  0  0  0  0  0  0  0  0  0  0
  -29.3188  -21.9115   20.2167 C   0  0  0  0  0  0  0  0  0  0  0  0
  -19.2508   -9.9874   23.7440 C   0  0  0  0  0  0  0  0  0  0  0  0
  -22.7316  -13.3196   19.3621 C   0  0  0  0  0  0  0  0  0  0  0  0
  -25.0629  -14.7487   20.4880 C   0  0  0  0  0  0  0  0  0  0  0  0
  -20.7736   -9.9001   23.6823 C   0  0  0  0  0  0  0  0  0  0  0  0
  -29.5991  -23.7789   17.1982 C   0  0  0  0  0  0  0  0  0  0  0  0
  -21.4023  -11.2167   24.1272 C   0  0  0  0  0  0  0  0  0  0  0  0
  -29.5795  -25.2352   17.6659 C   0  0  0  0  0  0  0  0  0  0  0  0
  -21.2661  -24.3517   22.2680 C   0  0  0  0  0  0  0  0  0  0  0  0
  -28.6738  -22.9032   18.0402 C   0  0  0  0  0  0  0  0  0  0  0  0
  -22.1145  -23.0919   22.4405 C   0  0  0  0  0  0  0  0  0  0  0  0
  -24.3741  -24.0287   22.1588 C   0  0  0  0  0  0  0  0  0  0  0  0
  -28.8882  -24.4307   19.9624 C   0  0  0  0  0  0  0  0  0  0  0  0
  -21.5973  -25.5245   23.1821 C   0  0  0  0  0  0  0  0  0  0  0  0
  -23.9687  -25.4964   22.2871 C   0  0  0  0  0  0  0  0  0  0  0  0
  -20.9868  -12.3669   23.2020 C   0  0  1  0  0  0  0  0  0  0  0  0
  -23.5951  -12.7073   20.4607 C   0  0  1  0  0  0  0  0  0  0  0  0
  -29.8486  -25.3419   19.1790 C   0  0  2  0  0  0  0  0  0  0  0  0
  -31.0286  -13.0690   18.3123 C   0  0  0  0  0  0  0  0  0  0  0  0
  -26.9909  -13.1663   23.5620 C   0  0  0  0  0  0  0  0  0  0  0  0
  -29.2814  -13.5084   22.6107 C   0  0  0  0  0  0  0  0  0  0  0  0
  -28.2126  -11.2569   22.5055 C   0  0  0  0  0  0  0  0  0  0  0  0
  -27.9921  -13.6474   16.0939 C   0  0  0  0  0  0  0  0  0  0  0  0
  -31.6558  -23.0850   25.3567 C   0  0  0  0  0  0  0  0  0  0  0  0
  -24.8233  -25.8104   25.9487 C   0  0  0  0  0  0  0  0  0  0  0  0
  -31.3923  -22.5732   23.9390 C   0  0  0  0  0  0  0  0  0  0  0  0
  -24.6695  -26.9364   24.9177 C   0  0  0  0  0  0  0  0  0  0  0  0
  -30.2345  -21.5679   23.8759 C   0  0  0  0  0  0  0  0  0  0  0  0
  -23.1514  -21.0382   20.3638 C   0  0  0  0  0  0  0  0  0  0  0  0
  -23.8863  -21.7853   21.4722 C   0  0  0  0  0  0  0  0  0  0  0  0
  -29.9715  -21.0694   22.4581 C   0  0  0  0  0  0  0  0  0  0  0  0
  -23.3283  -26.9810   24.1920 C   0  0  0  0  0  0  0  0  0  0  0  0
  -23.7155  -19.6368   20.1661 C   0  0  0  0  0  0  0  0  0  1  0  0
  -27.3586  -13.1056   21.0071 C   0  0  1  0  0  0  0  0  0  0  0  0
  -29.5604  -12.9906   17.9236 C   0  0  2  0  0  0  0  0  0  0  0  0
  -27.9386  -12.7737   22.4110 C   0  0  0  0  0  0  0  0  0  0  0  0
  -28.6226  -27.2630   20.1218 N   0  0  0  0  0  0  0  0  0  0  0  0
  -29.7881  -26.7805   19.6583 N   0  0  0  0  0  0  0  0  0  0  0  0
  -24.9412  -13.2816   20.5077 N   0  0  0  0  0  0  0  0  0  0  0  0
  -28.9823  -23.0493   19.4648 N   0  0  0  0  0  0  0  0  0  0  0  0
  -23.3370  -23.1368   21.6263 N   0  0  1  0  0  0  0  0  0  0  0  0
  -32.0466  -27.3667   19.2507 N   0  0  0  0  0  0  0  0  0  0  0  0
  -31.6047  -30.2803   21.6400 N   0  0  0  0  0  0  0  0  0  0  0  0
  -21.7412  -12.3203   21.9678 N   0  0  0  0  0  0  0  0  0  0  0  0
  -28.2230  -12.7199   19.8970 N   0  0  0  0  0  0  0  0  0  0  0  0
  -29.6030  -22.1391   21.5576 N   0  0  0  0  0  0  0  0  0  0  0  0
  -23.0631  -25.6774   23.4800 N   0  3  1  0  0  0  0  0  0  0  0  0
  -29.3855  -13.6694   16.6084 N   0  3  0  0  0  0  0  0  0  0  0  0
  -31.0318  -30.9695   19.5292 O   0  0  0  0  0  0  0  0  0  0  0  0
  -23.6332  -13.4658   22.6964 O   0  0  0  0  0  0  0  0  0  0  0  0
  -25.9601  -11.2027   20.7837 O   0  0  0  0  0  0  0  0  0  0  0  0
  -28.4153  -14.8394   18.9762 O   0  0  0  0  0  0  0  0  0  0  0  0
  -29.3679  -20.7777   19.7278 O   0  0  0  0  0  0  0  0  0  0  0  0
  -24.9964  -31.8887   22.5713 O   0  0  0  0  0  0  0  0  0  0  0  0
  -23.0073  -18.9726   19.1203 O   0  0  0  0  0  0  0  0  0  1  0  0
  -20.3490  -29.5613   24.4122 F   0  0  0  0  0  0  0  0  0  0  0  0
  -24.2230  -32.1610   25.2115 F   0  0  0  0  0  0  0  0  0  0  0  0
  1  2  3  0  0  0  0
  1 21  1  0  0  0  0
  2 63  1  0  0  0  0
  3  4  1  0  0  0  0
  3  9  2  0  0  0  0
  4 10  2  0  0  0  0
  5  6  1  0  0  0  0
  5 12  2  0  0  0  0
  6 21  2  0  0  0  0
  7 13  2  0  0  0  0
  7 22  1  0  0  0  0
  8 14  1  0  0  0  0
  8 22  2  0  0  0  0
  9 24  1  0  0  0  0
 10 26  1  0  0  0  0
 11 15  2  0  0  0  0
 11 25  1  0  0  0  0
 12 28  1  0  0  0  0
 13 29  1  0  0  0  0
 14 29  2  0  0  0  0
 15 30  1  0  0  0  0
 16 17  2  0  0  0  0
 16 31  1  0  0  0  0
 17 32  1  0  0  0  0
 18 21  1  0  0  0  0
 18 28  2  0  0  0  0
 19 27  1  0  0  0  0
 19 30  2  0  0  0  0
 20 32  2  0  0  0  0
 20 33  1  0  0  0  0
 22 34  1  0  0  0  0
 23 34  1  0  0  0  0
 23 35  2  0  0  0  0
 23 36  1  0  0  0  0
 24 26  2  0  0  0  0
 24 41  1  0  0  0  0
 25 27  2  0  0  0  0
 25 42  1  0  0  0  0
 26 55  1  0  0  0  0
 27 43  1  0  0  0  0
 28 64  1  0  0  0  0
 29 93  1  0  0  0  0
 30 94  1  0  0  0  0
 31 33  2  0  0  0  0
 31 93  1  0  0  0  0
 32 95  1  0  0  0  0
 33 96  1  0  0  0  0
 34 76  2  0  0  0  0
 35 77  1  0  0  0  0
 35 81  1  0  0  0  0
 36 82  1  0  0  0  0
 36 88  2  0  0  0  0
 37 56  1  0  0  0  0
 37 83  1  0  0  0  0
 37 89  2  0  0  0  0
 38 73  1  0  0  0  0
 38 78  1  0  0  0  0
 38 90  2  0  0  0  0
 39 74  1  0  0  0  0
 39 84  1  0  0  0  0
 39 91  2  0  0  0  0
 40 79  1  0  0  0  0
 40 85  1  0  0  0  0
 40 92  2  0  0  0  0
 41 44  1  0  0  0  0
 42 56  1  0  0  0  0
 43 78  1  0  0  0  0
 44 46  1  0  0  0  0
 45 47  1  0  0  0  0
 45 49  1  0  0  0  0
 46 55  1  0  0  0  0
 47 57  1  0  0  0  0
 48 50  1  0  0  0  0
 48 53  1  0  0  0  0
 49 79  1  0  0  0  0
 50 80  1  0  0  0  0
 51 54  1  0  0  0  0
 51 80  1  0  0  0  0
 52 57  1  0  0  0  0
 52 79  1  0  0  0  0
 53 86  1  0  0  0  0
 54 86  1  0  0  0  0
 55 83  1  0  0  0  0
 56 78  1  0  0  0  0
 57 77  1  0  0  0  0
 58 74  1  0  0  0  0
 59 75  1  0  0  0  0
 60 75  1  0  0  0  0
 61 75  1  0  0  0  0
 62 87  1  0  0  0  0
 63 65  1  0  0  0  0
 64 66  1  0  0  0  0
 65 67  1  0  0  0  0
 66 71  1  0  0  0  0
 67 70  1  0  0  0  0
 68 69  1  0  0  0  0
 68 72  1  0  0  0  0
 69 80  1  0  0  0  0
 70 85  1  0  0  0  0
 71 86  1  0  0  0  0
 72 94  1  0  0  0  0
 73 75  1  0  0  0  0
 73 84  1  0  0  0  0
 74 87  1  0  0  0  0
 76 77  1  0  0  0  0
M  CHG  2  86   1  87   1
M  ISO  4  40 100  72 101  85 100  94 101
M  END
> <Batch ID>
0004

> <Smiles>
CNC(C)C(=O)NC(C(=O)N1Cc2cc([101O:1][101CH2:1]CCN3CCCN(CCCc4cccc(C#CCCCC[100NH:0][100C:0](=O)N5CCCC(n6nc(-c7ccc(Oc8ccc(F)cc8F)cc7)c(C(N)=O)c6N)C5)c4)CC3)ccc2CC1C(=O)NC1CCCc2ccccc21)C(C)(C)C

> <Shape>
0.230

> <Color>
0.055

> <Negative vol penalty>
0.000

$$$$

  -OEChem-04042320233D

 83 91  0     1  0  0  0  0  0999 V2000
  -30.3688  -24.4557   27.3714 C   0  0  0  0  0  0  0  0  0  0  0  0
  -29.2752  -23.5961   27.3501 C   0  0  0  0  0  0  0  0  0  0  0  0
  -26.5370  -28.1412   18.9591 C   0  0  0  0  0  0  0  0  0  0  0  0
  -26.2959  -27.1945   21.1688 C   0  0  0  0  0  0  0  0  0  0  0  0
  -31.0496  -24.7452   26.1897 C   0  0  0  0  0  0  0  0  0  0  0  0
  -28.8610  -23.0263   26.1466 C   0  0  0  0  0  0  0  0  0  0  0  0
  -27.8385  -18.0861   26.5863 C   0  0  0  0  0  0  0  0  0  0  0  0
  -21.5907  -19.3164   22.6204 C   0  0  0  0  0  0  0  0  0  0  0  0
  -23.8288  -20.1656   22.9472 C   0  0  0  0  0  0  0  0  0  0  0  0
  -21.2421  -19.7418   23.9022 C   0  0  0  0  0  0  0  0  0  0  0  0
  -23.4802  -20.5911   24.2290 C   0  0  0  0  0  0  0  0  0  0  0  0
  -26.1618  -29.3904   19.4533 C   0  0  0  0  0  0  0  0  0  0  0  0
  -25.9207  -28.4438   21.6631 C   0  0  0  0  0  0  0  0  0  0  0  0
  -26.6181  -17.7373   27.1631 C   0  0  0  0  0  0  0  0  0  0  0  0
  -25.2485  -31.4603   23.5780 C   0  0  0  0  0  0  0  0  0  0  0  0
  -25.8221  -31.8831   24.7771 C   0  0  0  0  0  0  0  0  0  0  0  0
  -25.6964  -17.3549   24.9668 C   0  0  0  0  0  0  0  0  0  0  0  0
  -28.0166  -31.7446   23.7760 C   0  0  0  0  0  0  0  0  0  0  0  0
  -26.6040  -27.0432   19.8169 C   0  0  0  0  0  0  0  0  0  0  0  0
  -28.2942  -25.2268   19.2241 C   0  0  0  0  0  0  0  0  0  0  0  0
  -30.6496  -24.1711   24.9727 C   0  0  0  0  0  0  0  0  0  0  0  0
  -27.9941  -18.0824   25.1927 C   0  0  0  0  0  0  0  0  0  0  0  0
  -29.5363  -23.3095   24.9472 C   0  0  0  0  0  0  0  0  0  0  0  0
  -26.9206  -17.7016   24.3750 C   0  0  0  0  0  0  0  0  0  0  0  0
  -22.8841  -19.5283   22.1429 C   0  0  0  0  0  0  0  0  0  0  0  0
  -22.1868  -20.3792   24.7065 C   0  0  0  0  0  0  0  0  0  0  0  0
  -25.8537  -29.5417   20.8053 C   0  0  0  0  0  0  0  0  0  0  0  0
  -25.5459  -17.3745   26.3532 C   0  0  0  0  0  0  0  0  0  0  0  0
  -26.0589  -31.1795   22.4779 C   0  0  0  0  0  0  0  0  0  0  0  0
  -27.2062  -32.0253   24.8761 C   0  0  0  0  0  0  0  0  0  0  0  0
  -27.4430  -31.3217   22.5770 C   0  0  0  0  0  0  0  0  0  0  0  0
  -26.9909  -25.7524   19.3068 C   0  0  0  0  0  0  0  0  0  0  0  0
  -28.1274  -23.9800   18.6727 C   0  0  0  0  0  0  0  0  0  0  0  0
  -29.5440  -25.8132   19.6112 C   0  0  0  0  0  0  0  0  0  0  0  0
  -28.6724  -20.2869   23.0055 C   0  0  0  0  0  0  0  0  0  0  0  0
  -28.7438  -17.7282   21.0129 C   0  0  0  0  0  0  0  0  0  0  0  0
  -26.8053  -14.7270   20.5104 C   0  0  0  0  0  0  0  0  0  0  0  0
  -23.5207  -20.1569   18.5551 C   0  0  0  0  0  0  0  0  0  0  0  0
  -31.3876  -24.5512   23.7135 C   0  0  0  0  0  0  0  0  0  0  0  0
  -29.3250  -18.4353   24.5872 C   0  0  0  0  0  0  0  0  0  0  0  0
  -27.0419  -17.6618   22.8743 C   0  0  0  0  0  0  0  0  0  0  0  0
  -31.1155  -23.6121   22.5411 C   0  0  0  0  0  0  0  0  0  0  0  0
  -25.2320  -21.5340   15.7530 C   0  0  0  0  0  0  0  0  0  0  0  0
  -29.6201  -23.3413   22.4100 C   0  0  0  0  0  0  0  0  0  0  0  0
  -25.9944  -22.7238   16.3386 C   0  0  0  0  0  0  0  0  0  0  0  0
  -23.8677  -21.3565   16.4157 C   0  0  0  0  0  0  0  0  0  0  0  0
  -24.6636  -22.4555   18.4730 C   0  0  0  0  0  0  0  0  0  0  0  0
  -29.0720  -22.6523   23.6655 C   0  0  1  0  0  0  0  0  0  0  0  0
  -29.2186  -18.8932   23.1359 C   0  0  1  0  0  0  0  0  0  0  0  0
  -26.0688  -22.6409   17.8751 C   0  0  2  0  0  0  0  0  0  0  0  0
  -27.4638  -12.4993   19.5612 C   0  0  0  0  0  0  0  0  0  0  0  0
  -27.7085  -18.8695   18.3794 C   0  0  0  0  0  0  0  0  0  0  0  0
  -26.7697  -16.6098   17.8496 C   0  0  0  0  0  0  0  0  0  0  0  0
  -29.2307  -16.9002   18.1362 C   0  0  0  0  0  0  0  0  0  0  0  0
  -25.8725  -13.2922   22.9249 C   0  0  0  0  0  0  0  0  0  0  0  0
  -23.2576  -19.0738   20.7725 C   0  0  0  0  0  0  0  0  0  0  0  0
  -21.8105  -20.8380   26.0845 C   0  0  0  0  0  0  0  0  0  0  0  0
  -22.5037  -17.7616   28.2563 C   0  0  0  0  0  0  0  0  0  0  0  0
  -21.8737  -18.5721   27.1336 C   0  0  0  0  0  0  0  0  0  0  0  0
  -24.0202  -17.6512   28.1564 C   0  0  0  0  0  0  0  0  0  1  0  0
  -27.7257  -17.0047   20.1650 C   0  0  1  0  0  0  0  0  0  0  0  0
  -27.2319  -13.3055   20.8296 C   0  0  2  0  0  0  0  0  0  0  0  0
  -27.8512  -17.3596   18.6564 C   0  0  0  0  0  0  0  0  0  0  0  0
  -26.0644  -24.9085   18.8448 N   0  0  0  0  0  0  0  0  0  0  0  0
  -26.7864  -23.8401   18.4663 N   0  0  0  0  0  0  0  0  0  0  0  0
  -28.3616  -18.0216   22.3296 N   0  0  0  0  0  0  0  0  0  0  0  0
  -24.0084  -21.2832   17.8720 N   0  0  0  0  0  0  0  0  0  0  0  0
  -28.9983  -23.0007   18.3489 N   0  0  0  0  0  0  0  0  0  0  0  0
  -29.5353  -27.1021   20.1616 N   0  0  0  0  0  0  0  0  0  0  0  0
  -29.4178  -21.2470   23.6627 N   0  0  0  0  0  0  0  0  0  0  0  0
  -27.8838  -15.5847   20.4600 N   0  0  0  0  0  0  0  0  0  0  0  0
  -23.7003  -20.1647   19.9330 N   0  0  0  0  0  0  0  0  0  0  0  0
  -26.1844  -12.6194   21.6377 N   0  3  0  0  0  0  0  0  0  0  0  0
  -22.3646  -19.9699   27.1601 N   0  3  0  0  0  0  0  0  0  0  0  0
  -30.6378  -25.2185   19.4579 O   0  0  0  0  0  0  0  0  0  0  0  0
  -27.6511  -20.4772   22.3555 O   0  0  0  0  0  0  0  0  0  0  0  0
  -29.8406  -18.0158   20.5272 O   0  0  0  0  0  0  0  0  0  0  0  0
  -25.6331  -15.0440   20.3208 O   0  0  0  0  0  0  0  0  0  0  0  0
  -22.9711  -19.2118   17.9792 O   0  0  0  0  0  0  0  0  0  0  0  0
  -25.4878  -30.7606   21.2880 O   0  0  0  0  0  0  0  0  0  0  0  0
  -24.3534  -17.0343   26.9135 O   0  0  0  0  0  0  0  0  0  1  0  0
  -27.7568  -32.4328   26.0271 F   0  0  0  0  0  0  0  0  0  0  0  0
  -28.2266  -31.0547   21.5232 F   0  0  0  0  0  0  0  0  0  0  0  0
  1  2  1  0  0  0  0
  1  5  2  0  0  0  0
  2  6  2  0  0  0  0
  3 12  2  0  0  0  0
  3 19  1  0  0  0  0
  4 13  1  0  0  0  0
  4 19  2  0  0  0  0
  5 21  1  0  0  0  0
  6 23  1  0  0  0  0
  7 14  2  0  0  0  0
  7 22  1  0  0  0  0
  8 10  2  0  0  0  0
  8 25  1  0  0  0  0
  9 11  1  0  0  0  0
  9 25  2  0  0  0  0
 10 26  1  0  0  0  0
 11 26  2  0  0  0  0
 12 27  1  0  0  0  0
 13 27  2  0  0  0  0
 14 28  1  0  0  0  0
 15 16  2  0  0  0  0
 15 29  1  0  0  0  0
 16 30  1  0  0  0  0
 17 24  1  0  0  0  0
 17 28  2  0  0  0  0
 18 30  2  0  0  0  0
 18 31  1  0  0  0  0
 19 32  1  0  0  0  0
 20 32  1  0  0  0  0
 20 33  2  0  0  0  0
 20 34  1  0  0  0  0
 21 23  2  0  0  0  0
 21 39  1  0  0  0  0
 22 24  2  0  0  0  0
 22 40  1  0  0  0  0
 23 48  1  0  0  0  0
 24 41  1  0  0  0  0
 25 56  1  0  0  0  0
 26 57  1  0  0  0  0
 27 80  1  0  0  0  0
 28 81  1  0  0  0  0
 29 31  2  0  0  0  0
 29 80  1  0  0  0  0
 30 82  1  0  0  0  0
 31 83  1  0  0  0  0
 32 64  2  0  0  0  0
 33 65  1  0  0  0  0
 33 68  1  0  0  0  0
 34 69  1  0  0  0  0
 34 75  2  0  0  0  0
 35 49  1  0  0  0  0
 35 70  1  0  0  0  0
 35 76  2  0  0  0  0
 36 61  1  0  0  0  0
 36 66  1  0  0  0  0
 36 77  2  0  0  0  0
 37 62  1  0  0  0  0
 37 71  1  0  0  0  0
 37 78  2  0  0  0  0
 38 67  1  0  0  0  0
 38 72  1  0  0  0  0
 38 79  2  0  0  0  0
 39 42  1  0  0  0  0
 40 49  1  0  0  0  0
 41 66  1  0  0  0  0
 42 44  1  0  0  0  0
 43 45  1  0  0  0  0
 43 46  1  0  0  0  0
 44 48  1  0  0  0  0
 45 50  1  0  0  0  0
 46 67  1  0  0  0  0
 47 50  1  0  0  0  0
 47 67  1  0  0  0  0
 48 70  1  0  0  0  0
 49 66  1  0  0  0  0
 50 65  1  0  0  0  0
 51 62  1  0  0  0  0
 52 63  1  0  0  0  0
 53 63  1  0  0  0  0
 54 63  1  0  0  0  0
 55 73  1  0  0  0  0
 56 72  1  0  0  0  0
 57 74  1  0  0  0  0
 58 59  1  0  0  0  0
 58 60  1  0  0  0  0
 59 74  1  0  0  0  0
 60 81  1  0  0  0  0
 61 63  1  0  0  0  0
 61 71  1  0  0  0  0
 62 73  1  0  0  0  0
 64 65  1  0  0  0  0
M  CHG  2  73   1  74   1
M  ISO  4  38 100  60 101  72 100  81 101
M  END
> <Batch ID>
0004

> <Smiles>
CNC(C)C(=O)NC(C(=O)N1Cc2cc([101O:1][101CH2:1]CCNCc3ccc(C[100NH:0][100C:0](=O)N4CCCC(n5nc(-c6ccc(Oc7ccc(F)cc7F)cc6)c(C(N)=O)c5N)C4)cc3)ccc2CC1C(=O)NC1CCCc2ccccc21)C(C)(C)C

> <Shape>
0.163

> <Color>
0.079

> <Negative vol penalty>
0.000

$$$$

  -OEChem-04042320233D

 79 87  0     1  0  0  0  0  0999 V2000
  -26.7713  -32.6930   28.1716 C   0  0  0  0  0  0  0  0  0  0  0  0
  -27.2018  -31.6913   27.3075 C   0  0  0  0  0  0  0  0  0  0  0  0
  -26.5047  -12.7171   21.6171 C   0  0  0  0  0  0  0  0  0  0  0  0
  -26.0114  -13.7450   19.4871 C   0  0  0  0  0  0  0  0  0  0  0  0
  -25.4212  -33.0377   28.2199 C   0  0  0  0  0  0  0  0  0  0  0  0
  -26.2822  -31.0329   26.4919 C   0  0  0  0  0  0  0  0  0  0  0  0
  -27.2359  -28.9299   20.8198 C   0  0  0  0  0  0  0  0  0  0  0  0
  -27.8818  -23.5937   17.4895 C   0  0  0  0  0  0  0  0  0  0  0  0
  -25.2486  -12.1105   21.6153 C   0  0  0  0  0  0  0  0  0  0  0  0
  -24.7553  -13.1384   19.4852 C   0  0  0  0  0  0  0  0  0  0  0  0
  -27.5386  -27.6607   20.3285 C   0  0  0  0  0  0  0  0  0  0  0  0
  -23.7750   -9.4384   20.1588 C   0  0  0  0  0  0  0  0  0  0  0  0
  -27.9919  -22.3158   16.9416 C   0  0  0  0  0  0  0  0  0  0  0  0
  -23.7052   -8.0913   20.5137 C   0  0  0  0  0  0  0  0  0  0  0  0
  -25.1987  -27.2832   19.8794 C   0  0  0  0  0  0  0  0  0  0  0  0
  -28.8360  -22.7891   19.5582 C   0  0  0  0  0  0  0  0  0  0  0  0
  -22.2426   -8.6517   22.3532 C   0  0  0  0  0  0  0  0  0  0  0  0
  -26.8860  -13.5344   20.5530 C   0  0  0  0  0  0  0  0  0  0  0  0
  -29.3798  -13.6415   20.0262 C   0  0  0  0  0  0  0  0  0  0  0  0
  -24.4860  -32.3898   27.3975 C   0  0  0  0  0  0  0  0  0  0  0  0
  -25.9089  -29.3818   20.8547 C   0  0  0  0  0  0  0  0  0  0  0  0
  -24.9181  -31.3683   26.5302 C   0  0  0  0  0  0  0  0  0  0  0  0
  -24.8821  -28.5595   20.3693 C   0  0  0  0  0  0  0  0  0  0  0  0
  -28.3039  -23.8305   18.7978 C   0  0  0  0  0  0  0  0  0  0  0  0
  -28.9461  -21.5111   19.0103 C   0  0  0  0  0  0  0  0  0  0  0  0
  -24.3740  -12.3211   20.5493 C   0  0  0  0  0  0  0  0  0  0  0  0
  -26.5196  -26.8360   19.8609 C   0  0  0  0  0  0  0  0  0  0  0  0
  -23.0787  -10.3922   20.9012 C   0  0  0  0  0  0  0  0  0  0  0  0
  -22.9390   -7.6979   21.6109 C   0  0  0  0  0  0  0  0  0  0  0  0
  -28.5240  -21.2744   17.7020 C   0  0  0  0  0  0  0  0  0  0  0  0
  -22.3124   -9.9989   21.9983 C   0  0  0  0  0  0  0  0  0  0  0  0
  -28.1832  -14.1618   20.5546 C   0  0  0  0  0  0  0  0  0  0  0  0
  -30.3172  -14.6134   20.2772 C   0  0  0  0  0  0  0  0  0  0  0  0
  -29.6222  -12.3914   19.3673 C   0  0  0  0  0  0  0  0  0  0  0  0
  -23.8997  -30.2644   23.1543 C   0  0  0  0  0  0  0  0  0  0  0  0
  -21.9932  -31.0502   20.6502 C   0  0  0  0  0  0  0  0  0  0  0  0
  -21.1724  -30.5728   17.3722 C   0  0  0  0  0  0  0  0  0  0  0  0
  -29.9535  -20.5212   21.0963 C   0  0  0  0  0  0  0  0  0  0  0  0
  -23.0301  -32.7642   27.5192 C   0  0  0  0  0  0  0  0  0  0  0  0
  -25.6020  -30.7638   21.3630 C   0  0  0  0  0  0  0  0  0  0  0  0
  -23.4435  -29.0053   20.3663 C   0  0  0  0  0  0  0  0  0  0  0  0
  -22.1762  -32.2767   26.3514 C   0  0  0  0  0  0  0  0  0  0  0  0
  -31.3242  -18.1381   23.3589 C   0  0  0  0  0  0  0  0  0  0  0  0
  -22.4899  -30.8183   26.0331 C   0  0  0  0  0  0  0  0  0  0  0  0
  -30.7881  -16.8000   22.8448 C   0  0  0  0  0  0  0  0  0  0  0  0
  -30.2950  -19.2570   23.2082 C   0  0  0  0  0  0  0  0  0  0  0  0
  -29.2031  -18.0735   21.3437 C   0  0  0  0  0  0  0  0  0  0  0  0
  -23.9545  -30.6482   25.6120 C   0  0  1  0  0  0  0  0  0  0  0  0
  -24.1578  -30.9223   21.8283 C   0  0  1  0  0  0  0  0  0  0  0  0
  -30.2277  -16.9294   21.4149 C   0  0  2  0  0  0  0  0  0  0  0  0
  -19.5454  -31.3307   15.6184 C   0  0  0  0  0  0  0  0  0  0  0  0
  -19.8200  -29.3304   21.9267 C   0  0  0  0  0  0  0  0  0  0  0  0
  -18.6144  -29.3485   19.7325 C   0  0  0  0  0  0  0  0  0  0  0  0
  -19.0075  -31.4870   20.9553 C   0  0  0  0  0  0  0  0  0  0  0  0
  -23.3382  -31.6304   15.6547 C   0  0  0  0  0  0  0  0  0  0  0  0
  -28.1845  -25.2053   19.3868 C   0  0  0  0  0  0  0  0  0  1  0  0
  -20.9521  -30.3265   19.8309 C   0  0  1  0  0  0  0  0  0  0  0  0
  -20.9124  -31.5563   16.2454 C   0  0  2  0  0  0  0  0  0  0  0  0
  -19.6253  -30.1136   20.6131 C   0  0  0  0  0  0  0  0  0  0  0  0
  -28.3430  -15.3704   21.1003 N   0  0  0  0  0  0  0  0  0  0  0  0
  -29.6511  -15.6176   20.9162 N   0  0  0  0  0  0  0  0  0  0  0  0
  -23.1935  -30.3625   20.8790 N   0  0  0  0  0  0  0  0  0  0  0  0
  -29.8120  -19.3226   21.8272 N   0  0  0  0  0  0  0  0  0  0  0  0
  -31.6380  -14.6985   20.0116 N   0  0  0  0  0  0  0  0  0  0  0  0
  -28.5473  -11.5093   19.1914 N   0  0  0  0  0  0  0  0  0  0  0  0
  -29.4876  -20.4545   19.7837 N   0  0  0  0  0  0  0  0  0  0  0  0
  -24.1404  -31.0802   24.2433 N   0  0  0  0  0  0  0  0  0  0  0  0
  -20.8021  -31.0888   18.5961 N   0  0  0  0  0  0  0  0  0  0  0  0
  -21.9468  -31.4113   15.1824 N   0  3  0  0  0  0  0  0  0  0  0  0
  -30.7617  -12.0591   18.9616 O   0  0  0  0  0  0  0  0  0  0  0  0
  -23.5096  -29.1032   23.1869 O   0  0  0  0  0  0  0  0  0  0  0  0
  -21.7533  -32.1866   21.0656 O   0  0  0  0  0  0  0  0  0  0  0  0
  -21.6524  -29.4570   17.1850 O   0  0  0  0  0  0  0  0  0  0  0  0
  -30.4761  -21.5241   21.5893 O   0  0  0  0  0  0  0  0  0  0  0  0
  -23.1484  -11.7292   20.5471 O   0  0  0  0  0  0  0  0  0  0  0  0
  -26.8122  -25.5965   19.3814 O   0  0  0  0  0  0  0  0  0  1  0  0
  -22.8708   -6.4041   21.9507 F   0  0  0  0  0  0  0  0  0  0  0  0
  -28.6245  -20.0501   17.1651 F   0  0  0  0  0  0  0  0  0  0  0  0
  -21.6403  -10.9105   22.7146 F   0  0  0  0  0  0  0  0  0  0  0  0
  1  2  1  0  0  0  0
  1  5  2  0  0  0  0
  2  6  2  0  0  0  0
  3  9  2  0  0  0  0
  3 18  1  0  0  0  0
  4 10  1  0  0  0  0
  4 18  2  0  0  0  0
  5 20  1  0  0  0  0
  6 22  1  0  0  0  0
  7 11  2  0  0  0  0
  7 21  1  0  0  0  0
  8 13  2  0  0  0  0
  8 24  1  0  0  0  0
  9 26  1  0  0  0  0
 10 26  2  0  0  0  0
 11 27  1  0  0  0  0
 12 14  2  0  0  0  0
 12 28  1  0  0  0  0
 13 30  1  0  0  0  0
 14 29  1  0  0  0  0
 15 23  1  0  0  0  0
 15 27  2  0  0  0  0
 16 24  2  0  0  0  0
 16 25  1  0  0  0  0
 17 29  2  0  0  0  0
 17 31  1  0  0  0  0
 18 32  1  0  0  0  0
 19 32  1  0  0  0  0
 19 33  2  0  0  0  0
 19 34  1  0  0  0  0
 20 22  2  0  0  0  0
 20 39  1  0  0  0  0
 21 23  2  0  0  0  0
 21 40  1  0  0  0  0
 22 48  1  0  0  0  0
 23 41  1  0  0  0  0
 24 56  1  0  0  0  0
 25 30  2  0  0  0  0
 25 66  1  0  0  0  0
 26 75  1  0  0  0  0
 27 76  1  0  0  0  0
 28 31  2  0  0  0  0
 28 75  1  0  0  0  0
 29 77  1  0  0  0  0
 30 78  1  0  0  0  0
 31 79  1  0  0  0  0
 32 60  2  0  0  0  0
 33 61  1  0  0  0  0
 33 64  1  0  0  0  0
 34 65  1  0  0  0  0
 34 70  2  0  0  0  0
 35 49  1  0  0  0  0
 35 67  1  0  0  0  0
 35 71  2  0  0  0  0
 36 57  1  0  0  0  0
 36 62  1  0  0  0  0
 36 72  2  0  0  0  0
 37 58  1  0  0  0  0
 37 68  1  0  0  0  0
 37 73  2  0  0  0  0
 38 63  1  0  0  0  0
 38 66  1  0  0  0  0
 38 74  2  0  0  0  0
 39 42  1  0  0  0  0
 40 49  1  0  0  0  0
 41 62  1  0  0  0  0
 42 44  1  0  0  0  0
 43 45  1  0  0  0  0
 43 46  1  0  0  0  0
 44 48  1  0  0  0  0
 45 50  1  0  0  0  0
 46 63  1  0  0  0  0
 47 50  1  0  0  0  0
 47 63  1  0  0  0  0
 48 67  1  0  0  0  0
 49 62  1  0  0  0  0
 50 61  1  0  0  0  0
 51 58  1  0  0  0  0
 52 59  1  0  0  0  0
 53 59  1  0  0  0  0
 54 59  1  0  0  0  0
 55 69  1  0  0  0  0
 56 76  1  0  0  0  0
 57 59  1  0  0  0  0
 57 68  1  0  0  0  0
 58 69  1  0  0  0  0
 60 61  1  0  0  0  0
M  CHG  1  69   1
M  ISO  4  38 100  56 101  66 100  76 101
M  END
> <Batch ID>
0004

> <Smiles>
CNC(C)C(=O)NC(C(=O)N1Cc2cc([101O:1][101CH2:1]c3ccc(F)c([100NH:0][100C:0](=O)N4CCCC(n5nc(-c6ccc(Oc7ccc(F)cc7F)cc6)c(C(N)=O)c5N)C4)c3)ccc2CC1C(=O)NC1CCCc2ccccc21)C(C)(C)C

> <Shape>
0.294

> <Color>
0.112

> <Negative vol penalty>
0.000

$$$$

  -OEChem-04042320233D

 83 91  0     1  0  0  0  0  0999 V2000
  -26.9902  -18.3063   19.8521 C   0  0  0  0  0  0  0  0  0  0  0  0
  -26.0465  -19.3221   19.7385 C   0  0  0  0  0  0  0  0  0  0  0  0
  -21.7394  -25.8606   27.0890 C   0  0  0  0  0  0  0  0  0  0  0  0
  -23.8864  -14.6089   19.7476 C   0  0  0  0  0  0  0  0  0  0  0  0
  -25.0806  -14.2524   21.8173 C   0  0  0  0  0  0  0  0  0  0  0  0
  -28.1703  -18.5288   20.5606 C   0  0  0  0  0  0  0  0  0  0  0  0
  -26.2817  -20.5607   20.3343 C   0  0  0  0  0  0  0  0  0  0  0  0
  -24.9937  -27.5441   19.3914 C   0  0  0  0  0  0  0  0  0  0  0  0
  -22.4872  -24.7278   26.7677 C   0  0  0  0  0  0  0  0  0  0  0  0
  -22.2375  -27.1307   26.7982 C   0  0  0  0  0  0  0  0  0  0  0  0
  -24.7689  -13.7515   19.0907 C   0  0  0  0  0  0  0  0  0  0  0  0
  -25.9631  -13.3949   21.1604 C   0  0  0  0  0  0  0  0  0  0  0  0
  -24.4713  -28.6442   20.0701 C   0  0  0  0  0  0  0  0  0  0  0  0
  -28.6546  -13.6662   19.1323 C   0  0  0  0  0  0  0  0  0  0  0  0
  -30.0171  -13.8167   19.3901 C   0  0  0  0  0  0  0  0  0  0  0  0
  -26.5808  -28.9398   21.2022 C   0  0  0  0  0  0  0  0  0  0  0  0
  -24.2311  -26.1351   25.8648 C   0  0  0  0  0  0  0  0  0  0  0  0
  -30.1127  -11.5464   20.2107 C   0  0  0  0  0  0  0  0  0  0  0  0
  -24.0423  -14.8594   21.1109 C   0  0  0  0  0  0  0  0  0  0  0  0
  -21.9245  -15.3991   22.4268 C   0  0  0  0  0  0  0  0  0  0  0  0
  -28.4244  -19.7738   21.1572 C   0  0  0  0  0  0  0  0  0  0  0  0
  -26.3123  -27.1262   19.6215 C   0  0  0  0  0  0  0  0  0  0  0  0
  -27.4657  -20.7996   21.0526 C   0  0  0  0  0  0  0  0  0  0  0  0
  -27.1183  -27.8356   20.5233 C   0  0  0  0  0  0  0  0  0  0  0  0
  -23.7330  -24.8650   26.1556 C   0  0  0  0  0  0  0  0  0  0  0  0
  -23.4833  -27.2679   26.1861 C   0  0  0  0  0  0  0  0  0  0  0  0
  -25.8073  -13.1445   19.7971 C   0  0  0  0  0  0  0  0  0  0  0  0
  -25.2640  -29.3405   20.9778 C   0  0  0  0  0  0  0  0  0  0  0  0
  -28.0211  -12.4557   19.4137 C   0  0  0  0  0  0  0  0  0  0  0  0
  -30.7462  -12.7569   19.9293 C   0  0  0  0  0  0  0  0  0  0  0  0
  -28.7502  -11.3958   19.9529 C   0  0  0  0  0  0  0  0  0  0  0  0
  -23.1313  -15.7455   21.7899 C   0  0  0  0  0  0  0  0  0  0  0  0
  -21.4390  -16.5885   22.9127 C   0  0  0  0  0  0  0  0  0  0  0  0
  -21.2984  -14.1169   22.5666 C   0  0  0  0  0  0  0  0  0  0  0  0
  -27.6620  -24.4765   20.7443 C   0  0  0  0  0  0  0  0  0  0  0  0
  -30.4081  -25.9853   19.9050 C   0  0  0  0  0  0  0  0  0  0  0  0
  -32.0243  -28.9259   19.2818 C   0  0  0  0  0  0  0  0  0  0  0  0
  -24.1462  -21.5963   24.4777 C   0  0  0  0  0  0  0  0  0  0  0  0
  -29.6932  -19.9519   21.9530 C   0  0  0  0  0  0  0  0  0  0  0  0
  -26.8693  -25.9538   18.8615 C   0  0  0  0  0  0  0  0  0  0  0  0
  -28.5467  -27.4398   20.7910 C   0  0  0  0  0  0  0  0  0  0  0  0
  -30.0339  -21.4126   22.2372 C   0  0  0  0  0  0  0  0  0  0  0  0
  -21.4927  -21.2933   22.0354 C   0  0  0  0  0  0  0  0  0  0  0  0
  -28.7999  -22.1629   22.7280 C   0  0  0  0  0  0  0  0  0  0  0  0
  -21.5038  -19.7887   21.7594 C   0  0  0  0  0  0  0  0  0  0  0  0
  -22.9070  -21.8280   22.2409 C   0  0  0  0  0  0  0  0  0  0  0  0
  -23.6904  -19.6314   23.0376 C   0  0  0  0  0  0  0  0  0  0  0  0
  -27.6958  -22.1647   21.6638 C   0  0  1  0  0  0  0  0  0  0  0  0
  -28.0622  -25.3039   19.5557 C   0  0  1  0  0  0  0  0  0  0  0  0
  -22.2883  -19.0259   22.8433 C   0  0  2  0  0  0  0  0  0  0  0  0
  -34.2747  -29.8424   18.6550 C   0  0  0  0  0  0  0  0  0  0  0  0
  -31.3922  -25.5111   22.7540 C   0  0  0  0  0  0  0  0  0  0  0  0
  -33.1682  -27.2295   22.3522 C   0  0  0  0  0  0  0  0  0  0  0  0
  -33.1172  -25.1468   20.9802 C   0  0  0  0  0  0  0  0  0  0  0  0
  -30.9738  -30.1119   16.7821 C   0  0  0  0  0  0  0  0  0  0  0  0
  -24.5312  -23.6533   25.8109 C   0  0  0  0  0  0  0  0  0  0  0  0
  -24.0193  -28.6340   25.8740 C   0  0  0  0  0  0  0  0  0  0  0  0
  -23.0965  -31.1994   23.1853 C   0  0  0  0  0  0  0  0  0  0  0  0
  -23.8176  -30.6433   24.4040 C   0  0  0  0  0  0  0  0  0  0  0  0
  -23.3543  -30.4104   21.9075 C   0  0  0  0  0  0  0  0  0  1  0  0
  -31.3643  -26.9276   20.5956 C   0  0  1  0  0  0  0  0  0  0  0  0
  -32.9285  -29.3561   18.1410 C   0  0  2  0  0  0  0  0  0  0  0  0
  -32.2330  -26.2103   21.6671 C   0  0  0  0  0  0  0  0  0  0  0  0
  -23.3961  -17.0526   21.8628 N   0  0  0  0  0  0  0  0  0  0  0  0
  -22.3489  -17.5381   22.5512 N   0  0  0  0  0  0  0  0  0  0  0  0
  -29.0435  -26.2829   20.0279 N   0  0  0  0  0  0  0  0  0  0  0  0
  -23.5926  -21.0714   23.2981 N   0  0  0  0  0  0  0  0  0  0  0  0
  -20.3269  -16.9043   23.6097 N   0  0  0  0  0  0  0  0  0  0  0  0
  -21.9326  -12.9991   22.0074 N   0  0  0  0  0  0  0  0  0  0  0  0
  -27.9882  -23.1382   20.6337 N   0  0  0  0  0  0  0  0  0  0  0  0
  -32.1335  -27.5756   19.5387 N   0  0  0  0  0  0  0  0  0  0  0  0
  -24.0172  -22.9696   24.6450 N   0  0  0  0  0  0  0  0  0  0  0  0
  -32.2948  -30.4600   17.3658 N   0  3  0  0  0  0  0  0  0  0  0  0
  -23.3556  -29.2671   24.7008 N   0  3  0  0  0  0  0  0  0  0  0  0
  -20.2007  -13.9693   23.1555 O   0  0  0  0  0  0  0  0  0  0  0  0
  -27.1003  -25.0127   21.6923 O   0  0  0  0  0  0  0  0  0  0  0  0
  -30.8559  -25.0249   19.2736 O   0  0  0  0  0  0  0  0  0  0  0  0
  -31.2967  -29.7099   19.8872 O   0  0  0  0  0  0  0  0  0  0  0  0
  -24.7095  -20.8920   25.3226 O   0  0  0  0  0  0  0  0  0  0  0  0
  -26.6685  -12.3075   19.1564 O   0  0  0  0  0  0  0  0  0  0  0  0
  -24.7564  -30.4143   21.6421 O   0  0  0  0  0  0  0  0  0  1  0  0
  -32.0549  -12.9011   20.1754 F   0  0  0  0  0  0  0  0  0  0  0  0
  -28.1473  -10.2302   20.2243 F   0  0  0  0  0  0  0  0  0  0  0  0
  1  2  1  0  0  0  0
  1  6  2  0  0  0  0
  2  7  2  0  0  0  0
  3  9  1  0  0  0  0
  3 10  2  0  0  0  0
  4 11  2  0  0  0  0
  4 19  1  0  0  0  0
  5 12  1  0  0  0  0
  5 19  2  0  0  0  0
  6 21  1  0  0  0  0
  7 23  1  0  0  0  0
  8 13  2  0  0  0  0
  8 22  1  0  0  0  0
  9 25  2  0  0  0  0
 10 26  1  0  0  0  0
 11 27  1  0  0  0  0
 12 27  2  0  0  0  0
 13 28  1  0  0  0  0
 14 15  2  0  0  0  0
 14 29  1  0  0  0  0
 15 30  1  0  0  0  0
 16 24  1  0  0  0  0
 16 28  2  0  0  0  0
 17 25  1  0  0  0  0
 17 26  2  0  0  0  0
 18 30  2  0  0  0  0
 18 31  1  0  0  0  0
 19 32  1  0  0  0  0
 20 32  1  0  0  0  0
 20 33  2  0  0  0  0
 20 34  1  0  0  0  0
 21 23  2  0  0  0  0
 21 39  1  0  0  0  0
 22 24  2  0  0  0  0
 22 40  1  0  0  0  0
 23 48  1  0  0  0  0
 24 41  1  0  0  0  0
 25 56  1  0  0  0  0
 26 57  1  0  0  0  0
 27 80  1  0  0  0  0
 28 81  1  0  0  0  0
 29 31  2  0  0  0  0
 29 80  1  0  0  0  0
 30 82  1  0  0  0  0
 31 83  1  0  0  0  0
 32 64  2  0  0  0  0
 33 65  1  0  0  0  0
 33 68  1  0  0  0  0
 34 69  1  0  0  0  0
 34 75  2  0  0  0  0
 35 49  1  0  0  0  0
 35 70  1  0  0  0  0
 35 76  2  0  0  0  0
 36 61  1  0  0  0  0
 36 66  1  0  0  0  0
 36 77  2  0  0  0  0
 37 62  1  0  0  0  0
 37 71  1  0  0  0  0
 37 78  2  0  0  0  0
 38 67  1  0  0  0  0
 38 72  1  0  0  0  0
 38 79  2  0  0  0  0
 39 42  1  0  0  0  0
 40 49  1  0  0  0  0
 41 66  1  0  0  0  0
 42 44  1  0  0  0  0
 43 45  1  0  0  0  0
 43 46  1  0  0  0  0
 44 48  1  0  0  0  0
 45 50  1  0  0  0  0
 46 67  1  0  0  0  0
 47 50  1  0  0  0  0
 47 67  1  0  0  0  0
 48 70  1  0  0  0  0
 49 66  1  0  0  0  0
 50 65  1  0  0  0  0
 51 62  1  0  0  0  0
 52 63  1  0  0  0  0
 53 63  1  0  0  0  0
 54 63  1  0  0  0  0
 55 73  1  0  0  0  0
 56 72  1  0  0  0  0
 57 74  1  0  0  0  0
 58 59  1  0  0  0  0
 58 60  1  0  0  0  0
 59 74  1  0  0  0  0
 60 81  1  0  0  0  0
 61 63  1  0  0  0  0
 61 71  1  0  0  0  0
 62 73  1  0  0  0  0
 64 65  1  0  0  0  0
M  CHG  2  73   1  74   1
M  ISO  4  38 100  60 101  72 100  81 101
M  END
> <Batch ID>
0004

> <Smiles>
CNC(C)C(=O)NC(C(=O)N1Cc2cc([101O:1][101CH2:1]CCNCc3cccc(C[100NH:0][100C:0](=O)N4CCCC(n5nc(-c6ccc(Oc7ccc(F)cc7F)cc6)c(C(N)=O)c5N)C4)c3)ccc2CC1C(=O)NC1CCCc2ccccc21)C(C)(C)C

> <Shape>
0.203

> <Color>
0.073

> <Negative vol penalty>
0.000

$$$$

  -OEChem-04042320233D

 83 91  0     1  0  0  0  0  0999 V2000
  -20.1564   -8.5989   23.0098 C   0  0  0  0  0  0  0  0  0  0  0  0
  -20.7509   -9.6825   23.6486 C   0  0  0  0  0  0  0  0  0  0  0  0
  -21.3745  -28.0129   19.5127 C   0  0  0  0  0  0  0  0  0  0  0  0
  -21.7101  -26.4843   21.3533 C   0  0  0  0  0  0  0  0  0  0  0  0
  -20.7845   -8.0060   21.9154 C   0  0  0  0  0  0  0  0  0  0  0  0
  -21.9744  -10.1730   23.1939 C   0  0  0  0  0  0  0  0  0  0  0  0
  -23.8255  -16.0107   23.1826 C   0  0  0  0  0  0  0  0  0  0  0  0
  -30.8221  -21.5425   21.3995 C   0  0  0  0  0  0  0  0  0  0  0  0
  -30.4189  -22.7801   20.8980 C   0  0  0  0  0  0  0  0  0  0  0  0
  -20.1009  -27.4833   19.3050 C   0  0  0  0  0  0  0  0  0  0  0  0
  -20.4365  -25.9547   21.1456 C   0  0  0  0  0  0  0  0  0  0  0  0
  -24.6390  -16.7384   24.0499 C   0  0  0  0  0  0  0  0  0  0  0  0
  -17.1340  -24.4456   21.3302 C   0  0  0  0  0  0  0  0  0  0  0  0
  -16.3281  -24.2348   22.4490 C   0  0  0  0  0  0  0  0  0  0  0  0
  -26.5313  -16.3257   22.6118 C   0  0  0  0  0  0  0  0  0  0  0  0
  -16.4338  -26.5918   22.9692 C   0  0  0  0  0  0  0  0  0  0  0  0
  -22.1791  -27.5134   20.5368 C   0  0  0  0  0  0  0  0  0  0  0  0
  -23.8414  -29.1397   21.5854 C   0  0  0  0  0  0  0  0  0  0  0  0
  -22.0116   -8.4956   21.4410 C   0  0  0  0  0  0  0  0  0  0  0  0
  -24.3619  -15.4248   22.0270 C   0  0  0  0  0  0  0  0  0  0  0  0
  -22.6201   -9.5852   22.0929 C   0  0  0  0  0  0  0  0  0  0  0  0
  -25.7219  -15.5932   21.7300 C   0  0  0  0  0  0  0  0  0  0  0  0
  -30.2915  -21.0701   22.6000 C   0  0  0  0  0  0  0  0  0  0  0  0
  -29.3580  -21.8353   23.2989 C   0  0  0  0  0  0  0  0  0  0  0  0
  -29.4854  -23.5453   21.5969 C   0  0  0  0  0  0  0  0  0  0  0  0
  -19.6319  -26.4542   20.1215 C   0  0  0  0  0  0  0  0  0  0  0  0
  -25.9927  -16.8936   23.7661 C   0  0  0  0  0  0  0  0  0  0  0  0
  -17.5898  -25.7295   21.0309 C   0  0  0  0  0  0  0  0  0  0  0  0
  -15.9780  -25.3079   23.2685 C   0  0  0  0  0  0  0  0  0  0  0  0
  -17.2397  -26.8026   21.8504 C   0  0  0  0  0  0  0  0  0  0  0  0
  -28.9549  -23.0729   22.7974 C   0  0  0  0  0  0  0  0  0  0  0  0
  -23.4950  -28.0598   20.7514 C   0  0  0  0  0  0  0  0  0  0  0  0
  -25.2017  -29.2627   21.4406 C   0  0  0  0  0  0  0  0  0  0  0  0
  -23.0081  -29.9584   22.4167 C   0  0  0  0  0  0  0  0  0  0  0  0
  -24.6579  -12.4483   20.9515 C   0  0  0  0  0  0  0  0  0  0  0  0
  -25.7493  -13.9356   18.2833 C   0  0  0  0  0  0  0  0  0  0  0  0
  -27.1808  -16.7019   16.8885 C   0  0  0  0  0  0  0  0  0  0  0  0
  -29.5084  -25.4145   19.9082 C   0  0  0  0  0  0  0  0  0  0  0  0
  -22.6755   -7.7919   20.2840 C   0  0  0  0  0  0  0  0  0  0  0  0
  -23.4655  -14.6654   21.0877 C   0  0  0  0  0  0  0  0  0  0  0  0
  -26.3425  -15.0013   20.4919 C   0  0  0  0  0  0  0  0  0  0  0  0
  -23.7883   -8.6085   19.6319 C   0  0  0  0  0  0  0  0  0  0  0  0
  -28.7174  -28.4825   18.2837 C   0  0  0  0  0  0  0  0  0  0  0  0
  -24.7051   -9.2058   20.6947 C   0  0  0  0  0  0  0  0  0  0  0  0
  -27.3224  -28.8236   18.8128 C   0  0  0  0  0  0  0  0  0  0  0  0
  -28.8939  -26.9790   18.0780 C   0  0  0  0  0  0  0  0  0  0  0  0
  -27.1765  -26.4916   19.7758 C   0  0  0  0  0  0  0  0  0  0  0  0
  -23.9348  -10.1615   21.6138 C   0  0  1  0  0  0  0  0  0  0  0  0
  -24.2235  -13.6782   20.2056 C   0  0  1  0  0  0  0  0  0  0  0  0
  -26.9731  -27.9887   20.0603 C   0  0  2  0  0  0  0  0  0  0  0  0
  -30.7388  -19.7422   23.1169 C   0  0  0  0  0  0  0  0  0  0  0  0
  -27.9850  -17.6079   14.6909 C   0  0  0  0  0  0  0  0  0  0  0  0
  -28.2329  -12.1726   18.4681 C   0  0  0  0  0  0  0  0  0  0  0  0
  -29.3753  -13.7358   16.8807 C   0  0  0  0  0  0  0  0  0  0  0  0
  -27.3446  -12.4840   16.1511 C   0  0  0  0  0  0  0  0  0  0  0  0
  -25.2611  -18.9524   16.9819 C   0  0  0  0  0  0  0  0  0  0  0  0
  -28.7757  -21.3441   24.5915 C   0  0  0  0  0  0  0  0  0  0  0  0
  -27.2126  -19.7208   25.6686 C   0  0  0  0  0  0  0  0  0  0  0  0
  -26.1766  -18.6624   25.3452 C   0  0  0  0  0  0  0  0  0  1  0  0
  -27.1014  -14.3925   17.7914 C   0  0  1  0  0  0  0  0  0  0  0  0
  -26.8157  -17.5133   15.6586 C   0  0  2  0  0  0  0  0  0  0  0  0
  -28.0026  -13.2059   17.3472 C   0  0  0  0  0  0  0  0  0  0  0  0
  -24.5501  -27.5343   20.1232 N   0  0  0  0  0  0  0  0  0  0  0  0
  -25.5729  -28.2872   20.5626 N   0  0  0  0  0  0  0  0  0  0  0  0
  -25.4260  -14.2621   19.6080 N   0  0  0  0  0  0  0  0  0  0  0  0
  -28.5490  -26.2531   19.3024 N   0  0  0  0  0  0  0  0  0  0  0  0
  -26.1046  -30.1092   21.9798 N   0  0  0  0  0  0  0  0  0  0  0  0
  -21.6318  -29.6955   22.4484 N   0  0  0  0  0  0  0  0  0  0  0  0
  -29.0781  -24.8021   21.0848 N   0  0  0  0  0  0  0  0  0  0  0  0
  -23.7209  -11.4327   20.9559 N   0  0  0  0  0  0  0  0  0  0  0  0
  -26.8441  -15.3728   16.7420 N   0  0  0  0  0  0  0  0  0  0  0  0
  -26.4162  -18.8948   16.0494 N   0  3  0  0  0  0  0  0  0  0  0  0
  -27.7638  -20.2695   24.4040 N   0  3  0  0  0  0  0  0  0  0  0  0
  -23.4680  -30.9058   23.0982 O   0  0  0  0  0  0  0  0  0  0  0  0
  -25.7620  -12.4222   21.4824 O   0  0  0  0  0  0  0  0  0  0  0  0
  -25.0045  -13.3180   17.5182 O   0  0  0  0  0  0  0  0  0  0  0  0
  -27.7149  -17.1967   17.8787 O   0  0  0  0  0  0  0  0  0  0  0  0
  -30.6385  -25.2729   19.4339 O   0  0  0  0  0  0  0  0  0  0  0  0
  -18.3892  -25.9373   19.9193 O   0  0  0  0  0  0  0  0  0  0  0  0
  -26.7892  -17.6028   24.6114 O   0  0  0  0  0  0  0  0  0  1  0  0
  -15.2029  -25.1056   24.3420 F   0  0  0  0  0  0  0  0  0  0  0  0
  -17.6737  -28.0385   21.5672 F   0  0  0  0  0  0  0  0  0  0  0  0
  -28.0569  -23.8082   23.4707 F   0  0  0  0  0  0  0  0  0  0  0  0
  1  2  1  0  0  0  0
  1  5  2  0  0  0  0
  2  6  2  0  0  0  0
  3 10  2  0  0  0  0
  3 17  1  0  0  0  0
  4 11  1  0  0  0  0
  4 17  2  0  0  0  0
  5 19  1  0  0  0  0
  6 21  1  0  0  0  0
  7 12  2  0  0  0  0
  7 20  1  0  0  0  0
  8  9  1  0  0  0  0
  8 23  2  0  0  0  0
  9 25  2  0  0  0  0
 10 26  1  0  0  0  0
 11 26  2  0  0  0  0
 12 27  1  0  0  0  0
 13 14  2  0  0  0  0
 13 28  1  0  0  0  0
 14 29  1  0  0  0  0
 15 22  1  0  0  0  0
 15 27  2  0  0  0  0
 16 29  2  0  0  0  0
 16 30  1  0  0  0  0
 17 32  1  0  0  0  0
 18 32  1  0  0  0  0
 18 33  2  0  0  0  0
 18 34  1  0  0  0  0
 19 21  2  0  0  0  0
 19 39  1  0  0  0  0
 20 22  2  0  0  0  0
 20 40  1  0  0  0  0
 21 48  1  0  0  0  0
 22 41  1  0  0  0  0
 23 24  1  0  0  0  0
 23 51  1  0  0  0  0
 24 31  2  0  0  0  0
 24 57  1  0  0  0  0
 25 31  1  0  0  0  0
 25 69  1  0  0  0  0
 26 79  1  0  0  0  0
 27 80  1  0  0  0  0
 28 30  2  0  0  0  0
 28 79  1  0  0  0  0
 29 81  1  0  0  0  0
 30 82  1  0  0  0  0
 31 83  1  0  0  0  0
 32 63  2  0  0  0  0
 33 64  1  0  0  0  0
 33 67  1  0  0  0  0
 34 68  1  0  0  0  0
 34 74  2  0  0  0  0
 35 49  1  0  0  0  0
 35 70  1  0  0  0  0
 35 75  2  0  0  0  0
 36 60  1  0  0  0  0
 36 65  1  0  0  0  0
 36 76  2  0  0  0  0
 37 61  1  0  0  0  0
 37 71  1  0  0  0  0
 37 77  2  0  0  0  0
 38 66  1  0  0  0  0
 38 69  1  0  0  0  0
 38 78  2  0  0  0  0
 39 42  1  0  0  0  0
 40 49  1  0  0  0  0
 41 65  1  0  0  0  0
 42 44  1  0  0  0  0
 43 45  1  0  0  0  0
 43 46  1  0  0  0  0
 44 48  1  0  0  0  0
 45 50  1  0  0  0  0
 46 66  1  0  0  0  0
 47 50  1  0  0  0  0
 47 66  1  0  0  0  0
 48 70  1  0  0  0  0
 49 65  1  0  0  0  0
 50 64  1  0  0  0  0
 52 61  1  0  0  0  0
 53 62  1  0  0  0  0
 54 62  1  0  0  0  0
 55 62  1  0  0  0  0
 56 72  1  0  0  0  0
 57 73  1  0  0  0  0
 58 59  1  0  0  0  0
 58 73  1  0  0  0  0
 59 80  1  0  0  0  0
 60 62  1  0  0  0  0
 60 71  1  0  0  0  0
 61 72  1  0  0  0  0
 63 64  1  0  0  0  0
M  CHG  2  72   1  73   1
M  ISO  4  38 100  59 101  69 100  80 101
M  END
> <Batch ID>
0004

> <Smiles>
CNC(C)C(=O)NC(C(=O)N1Cc2cc([101O:1][101CH2:1]CNCc3c(C)ccc([100NH:0][100C:0](=O)N4CCCC(n5nc(-c6ccc(Oc7ccc(F)cc7F)cc6)c(C(N)=O)c5N)C4)c3F)ccc2CC1C(=O)NC1CCCc2ccccc21)C(C)(C)C

> <Shape>
0.208

> <Color>
0.061

> <Negative vol penalty>
0.000

$$$$

  -OEChem-04042320233D

 84 93  0     1  0  0  0  0  0999 V2000
  -28.8086  -33.1406   13.1573 C   0  0  0  0  0  0  0  0  0  0  0  0
  -27.8544  -32.1376   13.2947 C   0  0  0  0  0  0  0  0  0  0  0  0
  -23.2891   -9.7822   19.9168 C   0  0  0  0  0  0  0  0  0  0  0  0
  -23.7106   -9.9406   22.2905 C   0  0  0  0  0  0  0  0  0  0  0  0
  -30.1546  -32.8564   13.3840 C   0  0  0  0  0  0  0  0  0  0  0  0
  -28.2458  -30.8494   13.6577 C   0  0  0  0  0  0  0  0  0  0  0  0
  -25.2796  -19.3135   15.6018 C   0  0  0  0  0  0  0  0  0  0  0  0
  -25.5209  -19.0404   17.9901 C   0  0  0  0  0  0  0  0  0  0  0  0
  -25.1256  -26.8992   17.1457 C   0  0  0  0  0  0  0  0  0  0  0  0
  -24.2899  -20.2737   15.8115 C   0  0  0  0  0  0  0  0  0  0  0  0
  -24.5312  -20.0007   18.1999 C   0  0  0  0  0  0  0  0  0  0  0  0
  -22.5560   -8.6140   20.1249 C   0  0  0  0  0  0  0  0  0  0  0  0
  -22.9774   -8.7723   22.4986 C   0  0  0  0  0  0  0  0  0  0  0  0
  -24.3038  -25.8174   16.8323 C   0  0  0  0  0  0  0  0  0  0  0  0
  -19.7246   -7.8745   22.6824 C   0  0  0  0  0  0  0  0  0  0  0  0
  -18.8088   -7.8646   23.7345 C   0  0  0  0  0  0  0  0  0  0  0  0
  -26.1723  -24.3203   17.1263 C   0  0  0  0  0  0  0  0  0  0  0  0
  -19.9954   -6.0213   24.7500 C   0  0  0  0  0  0  0  0  0  0  0  0
  -23.8665  -10.4455   20.9996 C   0  0  0  0  0  0  0  0  0  0  0  0
  -24.1375  -12.9729   20.7838 C   0  0  0  0  0  0  0  0  0  0  0  0
  -25.8951  -18.6967   16.6911 C   0  0  0  0  0  0  0  0  0  0  0  0
  -30.5616  -31.5664   13.7594 C   0  0  0  0  0  0  0  0  0  0  0  0
  -26.4819  -26.7004   17.4415 C   0  0  0  0  0  0  0  0  0  0  0  0
  -29.5987  -30.5474   13.8883 C   0  0  0  0  0  0  0  0  0  0  0  0
  -27.0087  -25.4009   17.4456 C   0  0  0  0  0  0  0  0  0  0  0  0
  -23.9158  -20.6174   17.1106 C   0  0  0  0  0  0  0  0  0  0  0  0
  -22.4001   -8.1091   21.4158 C   0  0  0  0  0  0  0  0  0  0  0  0
  -24.8277  -24.5281   16.8197 C   0  0  0  0  0  0  0  0  0  0  0  0
  -20.7757   -6.9577   22.6640 C   0  0  0  0  0  0  0  0  0  0  0  0
  -18.9443   -6.9381   24.7683 C   0  0  0  0  0  0  0  0  0  0  0  0
  -20.9111   -6.0311   23.6979 C   0  0  0  0  0  0  0  0  0  0  0  0
  -24.6244  -11.6520   20.7853 C   0  0  0  0  0  0  0  0  0  0  0  0
  -25.2449  -13.7468   20.5364 C   0  0  0  0  0  0  0  0  0  0  0  0
  -22.8035  -13.4570   20.9879 C   0  0  0  0  0  0  0  0  0  0  0  0
  -29.2236  -27.6379   16.1349 C   0  0  0  0  0  0  0  0  0  0  0  0
  -30.5069  -26.2217   18.7560 C   0  0  0  0  0  0  0  0  0  0  0  0
  -30.1837  -23.9232   21.2579 C   0  0  0  0  0  0  0  0  0  0  0  0
  -29.9082  -14.8516   17.9007 C   0  0  0  0  0  0  0  0  0  0  0  0
  -32.0333  -31.2956   13.9476 C   0  0  0  0  0  0  0  0  0  0  0  0
  -27.3488  -27.8749   17.8037 C   0  0  0  0  0  0  0  0  0  0  0  0
  -28.4533  -25.1319   17.7759 C   0  0  0  0  0  0  0  0  0  0  0  0
  -32.3229  -29.9959   14.6941 C   0  0  0  0  0  0  0  0  0  0  0  0
  -30.1575  -12.5717   20.4875 C   0  0  0  0  0  0  0  0  0  0  0  0
  -31.4778  -28.8575   14.1315 C   0  0  0  0  0  0  0  0  0  0  0  0
  -28.7028  -12.2273   20.8074 C   0  0  0  0  0  0  0  0  0  0  0  0
  -28.3286  -18.0867   17.0440 C   0  0  0  0  0  0  0  0  0  0  0  0
  -26.5632  -16.2748   17.0155 C   0  0  0  0  0  0  0  0  0  0  0  0
  -30.3768  -12.6730   18.9822 C   0  0  0  0  0  0  0  0  0  0  0  0
  -29.3971  -17.0169   16.8319 C   0  0  0  0  0  0  0  0  0  0  0  0
  -27.6705  -15.2467   16.8023 C   0  0  0  0  0  0  0  0  0  0  0  0
  -28.0189  -13.3219   18.6169 C   0  0  0  0  0  0  0  0  0  0  0  0
  -26.9717  -17.6521   16.4638 C   0  0  0  0  0  0  0  0  0  0  0  0
  -29.9812  -29.1437   14.3047 C   0  0  1  0  0  0  0  0  0  0  0  0
  -28.8354  -27.6099   17.5862 C   0  0  1  0  0  0  0  0  0  0  0  0
  -27.7392  -13.2173   20.1296 C   0  0  1  0  0  0  0  0  0  0  0  0
  -31.4136  -22.9668   23.2251 C   0  0  0  0  0  0  0  0  0  0  0  0
  -32.2686  -24.6014   16.8637 C   0  0  0  0  0  0  0  0  0  0  0  0
  -32.7552  -23.0437   18.7624 C   0  0  0  0  0  0  0  0  0  0  0  0
  -33.4330  -25.4397   18.9120 C   0  0  0  0  0  0  0  0  0  0  0  0
  -28.0914  -24.8198   23.1493 C   0  0  0  0  0  0  0  0  0  0  0  0
  -22.8587  -21.6455   17.3341 C   0  0  0  0  0  0  0  0  0  0  0  0
  -30.9860  -24.8303   19.0927 C   0  0  1  0  0  0  0  0  0  0  0  0
  -30.4249  -24.0216   22.7534 C   0  0  2  0  0  0  0  0  0  0  0  0
  -32.3339  -24.4837   18.3995 C   0  0  0  0  0  0  0  0  0  0  0  0
  -25.9388  -11.5867   20.5568 N   0  0  0  0  0  0  0  0  0  0  0  0
  -26.2872  -12.8763   20.4093 N   0  0  0  0  0  0  0  0  0  0  0  0
  -29.2621  -26.3138   18.1174 N   0  0  0  0  0  0  0  0  0  0  0  0
  -29.4389  -13.6173   18.3754 N   0  0  0  0  0  0  0  0  0  0  0  0
  -28.9569  -15.7162   17.3348 N   0  0  0  0  0  0  0  0  0  0  0  0
  -25.4190  -15.0802   20.4173 N   0  0  0  0  0  0  0  0  0  0  0  0
  -21.7845  -12.5257   21.2302 N   0  0  0  0  0  0  0  0  0  0  0  0
  -29.5732  -28.8914   15.6701 N   0  0  0  0  0  0  0  0  0  0  0  0
  -31.0259  -24.7535   20.5490 N   0  0  0  0  0  0  0  0  0  0  0  0
  -23.4155  -22.9406   17.7290 N   0  0  0  0  0  0  0  0  0  1  0  0
  -29.1473  -23.8344   23.4975 N   0  3  0  0  0  0  0  0  0  0  0  0
  -22.5204  -14.6781   20.9401 O   0  0  0  0  0  0  0  0  0  0  0  0
  -29.2087  -26.5989   15.4853 O   0  0  0  0  0  0  0  0  0  0  0  0
  -31.2079  -27.1916   19.0551 O   0  0  0  0  0  0  0  0  0  0  0  0
  -29.3357  -23.1811   20.7673 O   0  0  0  0  0  0  0  0  0  0  0  0
  -31.1020  -15.1665   17.9813 O   0  0  0  0  0  0  0  0  0  0  0  0
  -21.6845   -6.9693   21.6192 O   0  0  0  0  0  0  0  0  0  0  0  0
  -24.0199  -23.4600   16.5105 O   0  0  0  0  0  0  0  0  0  1  0  0
  -18.0657   -6.9298   25.7793 F   0  0  0  0  0  0  0  0  0  0  0  0
  -21.9196   -5.1487   23.6863 F   0  0  0  0  0  0  0  0  0  0  0  0
  1  2  1  0  0  0  0
  1  5  2  0  0  0  0
  2  6  2  0  0  0  0
  3 12  2  0  0  0  0
  3 19  1  0  0  0  0
  4 13  1  0  0  0  0
  4 19  2  0  0  0  0
  5 22  1  0  0  0  0
  6 24  1  0  0  0  0
  7 10  2  0  0  0  0
  7 21  1  0  0  0  0
  8 11  1  0  0  0  0
  8 21  2  0  0  0  0
  9 14  2  0  0  0  0
  9 23  1  0  0  0  0
 10 26  1  0  0  0  0
 11 26  2  0  0  0  0
 12 27  1  0  0  0  0
 13 27  2  0  0  0  0
 14 28  1  0  0  0  0
 15 16  2  0  0  0  0
 15 29  1  0  0  0  0
 16 30  1  0  0  0  0
 17 25  1  0  0  0  0
 17 28  2  0  0  0  0
 18 30  2  0  0  0  0
 18 31  1  0  0  0  0
 19 32  1  0  0  0  0
 20 32  1  0  0  0  0
 20 33  2  0  0  0  0
 20 34  1  0  0  0  0
 21 52  1  0  0  0  0
 22 24  2  0  0  0  0
 22 39  1  0  0  0  0
 23 25  2  0  0  0  0
 23 40  1  0  0  0  0
 24 53  1  0  0  0  0
 25 41  1  0  0  0  0
 26 61  1  0  0  0  0
 27 81  1  0  0  0  0
 28 82  1  0  0  0  0
 29 31  2  0  0  0  0
 29 81  1  0  0  0  0
 30 83  1  0  0  0  0
 31 84  1  0  0  0  0
 32 65  2  0  0  0  0
 33 66  1  0  0  0  0
 33 70  1  0  0  0  0
 34 71  1  0  0  0  0
 34 76  2  0  0  0  0
 35 54  1  0  0  0  0
 35 72  1  0  0  0  0
 35 77  2  0  0  0  0
 36 62  1  0  0  0  0
 36 67  1  0  0  0  0
 36 78  2  0  0  0  0
 37 63  1  0  0  0  0
 37 73  1  0  0  0  0
 37 79  2  0  0  0  0
 38 68  1  0  0  0  0
 38 69  1  0  0  0  0
 38 80  2  0  0  0  0
 39 42  1  0  0  0  0
 40 54  1  0  0  0  0
 41 67  1  0  0  0  0
 42 44  1  0  0  0  0
 43 45  1  0  0  0  0
 43 48  1  0  0  0  0
 44 53  1  0  0  0  0
 45 55  1  0  0  0  0
 46 49  1  0  0  0  0
 46 52  1  0  0  0  0
 47 50  1  0  0  0  0
 47 52  1  0  0  0  0
 48 68  1  0  0  0  0
 49 69  1  0  0  0  0
 50 69  1  0  0  0  0
 51 55  1  0  0  0  0
 51 68  1  0  0  0  0
 53 72  1  0  0  0  0
 54 67  1  0  0  0  0
 55 66  1  0  0  0  0
 56 63  1  0  0  0  0
 57 64  1  0  0  0  0
 58 64  1  0  0  0  0
 59 64  1  0  0  0  0
 60 75  1  0  0  0  0
 61 74  1  0  0  0  0
 62 64  1  0  0  0  0
 62 73  1  0  0  0  0
 63 75  1  0  0  0  0
 65 66  1  0  0  0  0
 74 82  1  0  0  0  0
M  CHG  1  75   1
M  ISO  4  38 100  69 100  74 101  82 101
M  END
> <Batch ID>
0004

> <Smiles>
CNC(C)C(=O)NC(C(=O)N1Cc2cc([101O:1][101NH:1]Cc3ccc(C4CC[100N:0]([100C:0](=O)N5CCCC(n6nc(-c7ccc(Oc8ccc(F)cc8F)cc7)c(C(N)=O)c6N)C5)CC4)cc3)ccc2CC1C(=O)NC1CCCc2ccccc21)C(C)(C)C

> <Shape>
0.181

> <Color>
0.186

> <Negative vol penalty>
0.000

$$$$

  -OEChem-04042320233D

 82 91  0     1  0  0  0  0  0999 V2000
  -29.1004  -31.7926   26.0040 C   0  0  0  0  0  0  0  0  0  0  0  0
  -28.9140  -30.7082   25.1527 C   0  0  0  0  0  0  0  0  0  0  0  0
  -26.6008  -23.1957   22.4235 C   0  0  0  0  0  0  0  0  0  0  0  0
  -24.0777   -9.9065   22.2361 C   0  0  0  0  0  0  0  0  0  0  0  0
  -24.8039   -8.8660   20.1802 C   0  0  0  0  0  0  0  0  0  0  0  0
  -26.7540  -21.9214   21.8545 C   0  0  0  0  0  0  0  0  0  0  0  0
  -28.0091  -32.3531   26.6664 C   0  0  0  0  0  0  0  0  0  0  0  0
  -27.6361  -30.1829   24.9642 C   0  0  0  0  0  0  0  0  0  0  0  0
  -27.0012  -24.3389   21.7285 C   0  0  0  0  0  0  0  0  0  0  0  0
  -26.6211  -29.2427   20.0928 C   0  0  0  0  0  0  0  0  0  0  0  0
  -22.9203   -9.1284   22.2212 C   0  0  0  0  0  0  0  0  0  0  0  0
  -23.6464   -8.0877   20.1653 C   0  0  0  0  0  0  0  0  0  0  0  0
  -27.1701  -28.0867   19.5396 C   0  0  0  0  0  0  0  0  0  0  0  0
  -19.9458   -7.1573   22.9160 C   0  0  0  0  0  0  0  0  0  0  0  0
  -19.5549   -6.5534   24.1110 C   0  0  0  0  0  0  0  0  0  0  0  0
  -25.0558  -26.9582   19.8149 C   0  0  0  0  0  0  0  0  0  0  0  0
  -21.6493   -5.3515   24.1886 C   0  0  0  0  0  0  0  0  0  0  0  0
  -25.0196   -9.7754   21.2156 C   0  0  0  0  0  0  0  0  0  0  0  0
  -27.3108  -21.7715   20.5826 C   0  0  0  0  0  0  0  0  0  0  0  0
  -27.4484  -10.2581   21.8281 C   0  0  0  0  0  0  0  0  0  0  0  0
  -26.7158  -31.8405   26.4784 C   0  0  0  0  0  0  0  0  0  0  0  0
  -25.2863  -29.2619   20.5219 C   0  0  0  0  0  0  0  0  0  0  0  0
  -26.5266  -30.7362   25.6258 C   0  0  0  0  0  0  0  0  0  0  0  0
  -27.5605  -24.1808   20.4713 C   0  0  0  0  0  0  0  0  0  0  0  0
  -24.4916  -28.1165   20.3708 C   0  0  0  0  0  0  0  0  0  0  0  0
  -27.7166  -22.9093   19.9059 C   0  0  0  0  0  0  0  0  0  0  0  0
  -22.7046   -8.2189   21.1858 C   0  0  0  0  0  0  0  0  0  0  0  0
  -26.3883  -26.9433   19.4033 C   0  0  0  0  0  0  0  0  0  0  0  0
  -21.1884   -6.8583   22.3572 C   0  0  0  0  0  0  0  0  0  0  0  0
  -20.4067   -5.6505   24.7473 C   0  0  0  0  0  0  0  0  0  0  0  0
  -22.0402   -5.9554   22.9935 C   0  0  0  0  0  0  0  0  0  0  0  0
  -26.2152  -10.5794   21.2301 C   0  0  0  0  0  0  0  0  0  0  0  0
  -28.2511  -11.3406   21.5627 C   0  0  0  0  0  0  0  0  0  0  0  0
  -27.4499  -20.4290   19.9914 C   0  0  0  0  0  0  0  0  0  0  0  0
  -27.8341   -9.0859   22.5581 C   0  0  0  0  0  0  0  0  0  0  0  0
  -23.8338  -29.7085   23.3138 C   0  0  0  0  0  0  0  0  0  0  0  0
  -21.1513  -29.6036   21.4929 C   0  0  0  0  0  0  0  0  0  0  0  0
  -19.6425  -28.5623   18.6144 C   0  0  0  0  0  0  0  0  0  0  0  0
  -26.8946  -17.0165   20.5134 C   0  0  0  0  0  0  0  0  0  0  0  0
  -25.5739  -32.4497   27.2527 C   0  0  0  0  0  0  0  0  0  0  0  0
  -24.7014  -30.5250   21.0919 C   0  0  0  0  0  0  0  0  0  0  0  0
  -28.2999  -23.0050   18.5314 C   0  0  0  0  0  0  0  0  0  0  0  0
  -23.0473  -28.0915   20.7972 C   0  0  0  0  0  0  0  0  0  0  0  0
  -24.1987  -32.0715   26.7087 C   0  0  0  0  0  0  0  0  0  0  0  0
  -28.8975  -24.4233   18.5565 C   0  0  0  0  0  0  0  0  0  0  0  0
  -28.9037  -14.8337   18.3725 C   0  0  0  0  0  0  0  0  0  0  0  0
  -24.1262  -30.5723   26.4363 C   0  0  0  0  0  0  0  0  0  0  0  0
  -28.5237  -13.4558   18.9108 C   0  0  0  0  0  0  0  0  0  0  0  0
  -27.7218  -15.8010   18.4076 C   0  0  0  0  0  0  0  0  0  0  0  0
  -26.7119  -14.5568   20.2897 C   0  0  0  0  0  0  0  0  0  0  0  0
  -25.1523  -30.1539   25.3763 C   0  0  1  0  0  0  0  0  0  0  0  0
  -28.0356  -25.2441   19.5313 C   0  0  1  0  0  0  0  0  0  1  0  0
  -23.4779  -30.2746   21.9682 C   0  0  1  0  0  0  0  0  0  0  0  0
  -27.8887  -13.5675   20.3068 C   0  0  1  0  0  0  0  0  0  0  0  0
  -17.4327  -28.5945   17.4255 C   0  0  0  0  0  0  0  0  0  0  0  0
  -20.1121  -27.4349   23.3709 C   0  0  0  0  0  0  0  0  0  0  0  0
  -18.3999  -26.8535   21.6392 C   0  0  0  0  0  0  0  0  0  0  0  0
  -18.4011  -29.1218   22.6772 C   0  0  0  0  0  0  0  0  0  0  0  0
  -20.7667  -30.0576   16.3212 C   0  0  0  0  0  0  0  0  0  0  0  0
  -20.2173  -28.5129   21.0272 C   0  0  1  0  0  0  0  0  0  0  0  0
  -18.7691  -29.2958   17.6126 C   0  0  2  0  0  0  0  0  0  0  0  0
  -19.3103  -27.9803   22.1723 C   0  0  0  0  0  0  0  0  0  0  0  0
  -26.2283  -11.7727   20.6302 N   0  0  0  0  0  0  0  0  0  0  0  0
  -27.0690  -19.3630   20.6173 N   0  0  0  0  0  0  0  0  0  0  0  0
  -27.4797  -12.2108   20.8500 N   0  0  0  0  0  0  0  0  0  0  0  0
  -22.5231  -29.3493   21.3546 N   0  0  0  0  0  0  0  0  0  0  0  0
  -27.1252  -15.8582   19.7507 N   0  0  0  0  0  0  0  0  0  0  0  0
  -29.5343  -11.6235   21.8719 N   0  0  0  0  0  0  0  0  0  0  0  0
  -26.8862   -8.0693   22.7387 N   0  0  0  0  0  0  0  0  0  0  0  0
  -24.6848  -30.5076   24.0531 N   0  0  0  0  0  0  0  0  0  0  0  0
  -19.4849  -29.0604   19.8904 N   0  0  0  0  0  0  0  0  0  0  0  0
  -27.2710  -18.2140   19.9253 N   0  0  0  0  0  0  0  0  0  0  0  0
  -19.4499  -29.3707   16.2890 N   0  3  0  0  0  0  0  0  0  0  0  0
  -28.9800   -8.9512   23.0501 O   0  0  0  0  0  0  0  0  0  0  0  0
  -23.3693  -28.6275   23.6565 O   0  0  0  0  0  0  0  0  0  0  0  0
  -20.6808  -30.6459   21.9556 O   0  0  0  0  0  0  0  0  0  0  0  0
  -20.3870  -27.6373   18.2973 O   0  0  0  0  0  0  0  0  0  0  0  0
  -26.3863  -16.9835   21.6400 O   0  0  0  0  0  0  0  0  0  0  0  0
  -21.5753   -7.4592   21.1711 O   0  0  0  0  0  0  0  0  0  0  0  0
  -26.9218  -25.8134   18.8643 O   0  0  0  0  0  0  0  0  0  1  0  0
  -20.0318   -5.0719   25.8957 F   0  0  0  0  0  0  0  0  0  0  0  0
  -23.2356   -5.6650   22.4622 F   0  0  0  0  0  0  0  0  0  0  0  0
  1  2  1  0  0  0  0
  1  7  2  0  0  0  0
  2  8  2  0  0  0  0
  3  6  1  0  0  0  0
  3  9  2  0  0  0  0
  4 11  2  0  0  0  0
  4 18  1  0  0  0  0
  5 12  1  0  0  0  0
  5 18  2  0  0  0  0
  6 19  2  0  0  0  0
  7 21  1  0  0  0  0
  8 23  1  0  0  0  0
  9 24  1  0  0  0  0
 10 13  2  0  0  0  0
 10 22  1  0  0  0  0
 11 27  1  0  0  0  0
 12 27  2  0  0  0  0
 13 28  1  0  0  0  0
 14 15  2  0  0  0  0
 14 29  1  0  0  0  0
 15 30  1  0  0  0  0
 16 25  1  0  0  0  0
 16 28  2  0  0  0  0
 17 30  2  0  0  0  0
 17 31  1  0  0  0  0
 18 32  1  0  0  0  0
 19 26  1  0  0  0  0
 19 34  1  0  0  0  0
 20 32  1  0  0  0  0
 20 33  2  0  0  0  0
 20 35  1  0  0  0  0
 21 23  2  0  0  0  0
 21 40  1  0  0  0  0
 22 25  2  0  0  0  0
 22 41  1  0  0  0  0
 23 51  1  0  0  0  0
 24 26  2  0  0  0  0
 24 52  1  0  0  0  0
 25 43  1  0  0  0  0
 26 42  1  0  0  0  0
 27 79  1  0  0  0  0
 28 80  1  0  0  0  0
 29 31  2  0  0  0  0
 29 79  1  0  0  0  0
 30 81  1  0  0  0  0
 31 82  1  0  0  0  0
 32 63  2  0  0  0  0
 33 65  1  0  0  0  0
 33 68  1  0  0  0  0
 34 64  2  0  0  0  0
 35 69  1  0  0  0  0
 35 74  2  0  0  0  0
 36 53  1  0  0  0  0
 36 70  1  0  0  0  0
 36 75  2  0  0  0  0
 37 60  1  0  0  0  0
 37 66  1  0  0  0  0
 37 76  2  0  0  0  0
 38 61  1  0  0  0  0
 38 71  1  0  0  0  0
 38 77  2  0  0  0  0
 39 67  1  0  0  0  0
 39 72  1  0  0  0  0
 39 78  2  0  0  0  0
 40 44  1  0  0  0  0
 41 53  1  0  0  0  0
 42 45  1  0  0  0  0
 43 66  1  0  0  0  0
 44 47  1  0  0  0  0
 45 52  1  0  0  0  0
 46 48  1  0  0  0  0
 46 49  1  0  0  0  0
 47 51  1  0  0  0  0
 48 54  1  0  0  0  0
 49 67  1  0  0  0  0
 50 54  1  0  0  0  0
 50 67  1  0  0  0  0
 51 70  1  0  0  0  0
 52 80  1  0  0  0  0
 53 66  1  0  0  0  0
 54 65  1  0  0  0  0
 55 61  1  0  0  0  0
 56 62  1  0  0  0  0
 57 62  1  0  0  0  0
 58 62  1  0  0  0  0
 59 73  1  0  0  0  0
 60 62  1  0  0  0  0
 60 71  1  0  0  0  0
 61 73  1  0  0  0  0
 63 65  1  0  0  0  0
 64 72  1  0  0  0  0
M  CHG  1  73   1
M  ISO  4  39 100  52 101  72 100  80 101
M  END
> <Batch ID>
0004

> <Smiles>
CNC(C)C(=O)NC(C(=O)N1Cc2cc([101O:1][101CH:1]3CCc4c(C=N[100NH:0][100C:0](=O)N5CCCC(n6nc(-c7ccc(Oc8ccc(F)cc8F)cc7)c(C(N)=O)c6N)C5)cccc43)ccc2CC1C(=O)NC1CCCc2ccccc21)C(C)(C)C

> <Shape>
0.296

> <Color>
0.085

> <Negative vol penalty>
0.000

$$$$

  -OEChem-04042320233D

 87 96  0     1  0  0  0  0  0999 V2000
  -27.9787  -21.5302   19.4838 C   0  0  0  0  0  0  0  0  0  0  0  0
  -28.2752  -20.3661   19.4670 C   0  0  0  0  0  0  0  0  0  0  0  0
  -27.2755  -37.9499   23.6136 C   0  0  0  0  0  0  0  0  0  0  0  0
  -27.5236  -36.6879   23.0833 C   0  0  0  0  0  0  0  0  0  0  0  0
  -26.3475  -23.3143   19.1143 C   0  0  0  0  0  0  0  0  0  0  0  0
  -28.5599  -23.8662   19.9131 C   0  0  0  0  0  0  0  0  0  0  0  0
  -27.7872  -18.0599   18.8206 C   0  0  0  0  0  0  0  0  0  0  0  0
  -25.3241   -7.9741   21.7087 C   0  0  0  0  0  0  0  0  0  0  0  0
  -24.1701   -9.8828   20.7803 C   0  0  0  0  0  0  0  0  0  0  0  0
  -26.2376  -38.1291   24.5271 C   0  0  0  0  0  0  0  0  0  0  0  0
  -26.7345  -35.6041   23.4670 C   0  0  0  0  0  0  0  0  0  0  0  0
  -25.0494  -30.8596   19.9804 C   0  0  0  0  0  0  0  0  0  0  0  0
  -26.0030  -24.6658   19.1348 C   0  0  0  0  0  0  0  0  0  0  0  0
  -28.2154  -25.2177   19.9335 C   0  0  0  0  0  0  0  0  0  0  0  0
  -28.1271  -16.7073   18.7983 C   0  0  0  0  0  0  0  0  0  0  0  0
  -24.2320   -7.7170   22.5376 C   0  0  0  0  0  0  0  0  0  0  0  0
  -23.0780   -9.6257   21.6091 C   0  0  0  0  0  0  0  0  0  0  0  0
  -25.5509  -29.5651   19.8521 C   0  0  0  0  0  0  0  0  0  0  0  0
  -21.1741   -6.3008   22.2613 C   0  0  0  0  0  0  0  0  0  0  0  0
  -20.7343   -4.9811   22.3633 C   0  0  0  0  0  0  0  0  0  0  0  0
  -23.8908  -28.7737   21.4132 C   0  0  0  0  0  0  0  0  0  0  0  0
  -30.1485  -17.1949   20.0284 C   0  0  0  0  0  0  0  0  0  0  0  0
  -21.1611   -5.0228   24.7410 C   0  0  0  0  0  0  0  0  0  0  0  0
  -27.6260  -22.9145   19.5036 C   0  0  0  0  0  0  0  0  0  0  0  0
  -28.6280  -18.9800   19.4468 C   0  0  0  0  0  0  0  0  0  0  0  0
  -25.2931   -9.0570   20.8301 C   0  0  0  0  0  0  0  0  0  0  0  0
  -26.6398   -8.8245   18.6760 C   0  0  0  0  0  0  0  0  0  0  0  0
  -25.4292  -37.0489   24.9149 C   0  0  0  0  0  0  0  0  0  0  0  0
  -23.9700  -31.1232   20.8359 C   0  0  0  0  0  0  0  0  0  0  0  0
  -25.6856  -35.7689   24.3876 C   0  0  0  0  0  0  0  0  0  0  0  0
  -23.3759  -30.0720   21.5486 C   0  0  0  0  0  0  0  0  0  0  0  0
  -26.9369  -25.6175   19.5443 C   0  0  0  0  0  0  0  0  0  0  0  0
  -29.3077  -16.2747   19.4022 C   0  0  0  0  0  0  0  0  0  0  0  0
  -23.1090   -8.5427   22.4877 C   0  0  0  0  0  0  0  0  0  0  0  0
  -24.9735  -28.5224   20.5707 C   0  0  0  0  0  0  0  0  0  0  0  0
  -21.6075   -6.9816   23.3990 C   0  0  0  0  0  0  0  0  0  0  0  0
  -20.7278   -4.3421   23.6032 C   0  0  0  0  0  0  0  0  0  0  0  0
  -29.8086  -18.5475   20.0508 C   0  0  0  0  0  0  0  0  0  0  0  0
  -21.6010   -6.3425   24.6389 C   0  0  0  0  0  0  0  0  0  0  0  0
  -26.4211   -9.3235   19.9741 C   0  0  0  0  0  0  0  0  0  0  0  0
  -27.8427   -9.3685   18.2972 C   0  0  0  0  0  0  0  0  0  0  0  0
  -25.8281   -7.9477   17.8835 C   0  0  0  0  0  0  0  0  0  0  0  0
  -23.5486  -32.9105   23.4305 C   0  0  0  0  0  0  0  0  0  0  0  0
  -20.4524  -32.0126   23.0705 C   0  0  0  0  0  0  0  0  0  0  0  0
  -18.2172  -29.7491   21.8346 C   0  0  0  0  0  0  0  0  0  0  0  0
  -30.7861  -14.3050   19.9321 C   0  0  0  0  0  0  0  0  0  0  0  0
  -24.3491  -37.2823   25.9413 C   0  0  0  0  0  0  0  0  0  0  0  0
  -23.4237  -32.5205   20.9428 C   0  0  0  0  0  0  0  0  0  0  0  0
  -22.2022  -30.2988   22.4648 C   0  0  0  0  0  0  0  0  0  0  0  0
  -23.3213  -36.1558   26.0108 C   0  0  0  0  0  0  0  0  0  0  0  0
  -31.9761  -10.9547   20.1228 C   0  0  0  0  0  0  0  0  0  0  0  0
  -24.0175  -34.7988   26.0375 C   0  0  0  0  0  0  0  0  0  0  0  0
  -30.7073  -10.1107   19.9821 C   0  0  0  0  0  0  0  0  0  0  0  0
  -31.7233  -12.2292   20.9261 C   0  0  0  0  0  0  0  0  0  0  0  0
  -29.3394  -12.2111   20.3046 C   0  0  0  0  0  0  0  0  0  0  0  0
  -24.8358  -34.5734   24.7604 C   0  0  1  0  0  0  0  0  0  0  0  0
  -22.6501  -32.7624   22.2353 C   0  0  1  0  0  0  0  0  0  0  0  0
  -29.5293  -10.9488   19.4478 C   0  0  2  0  0  0  0  0  0  0  0  0
  -15.7572  -29.2641   21.7325 C   0  0  0  0  0  0  0  0  0  0  0  0
  -20.5227  -31.0590   25.9680 C   0  0  0  0  0  0  0  0  0  0  0  0
  -18.4303  -29.7599   25.5181 C   0  0  0  0  0  0  0  0  0  0  0  0
  -18.4217  -32.2458   25.3110 C   0  0  0  0  0  0  0  0  0  0  0  0
  -18.1901  -29.9103   18.8796 C   0  0  0  0  0  0  0  0  0  0  0  0
  -26.5668  -27.0714   19.5648 C   0  0  0  0  0  0  0  0  0  1  0  0
  -19.6095  -30.8604   23.5612 C   0  0  1  0  0  0  0  0  0  0  0  0
  -16.9364  -29.9291   21.0398 C   0  0  2  0  0  0  0  0  0  0  0  0
  -19.2694  -30.9770   25.0739 C   0  0  0  0  0  0  0  0  0  0  0  0
  -27.4061  -10.1229   20.3919 N   0  0  0  0  0  0  0  0  0  0  0  0
  -28.2555  -10.1304   19.3505 N   0  0  0  0  0  0  0  0  0  0  0  0
  -21.7081  -31.6836   22.5404 N   0  0  0  0  0  0  0  0  0  0  0  0
  -30.5965  -12.9737   20.3595 N   0  0  0  0  0  0  0  0  0  0  0  0
  -28.5770   -9.2647   17.1692 N   0  0  0  0  0  0  0  0  0  0  0  0
  -24.6225   -7.4814   18.4254 N   0  0  0  0  0  0  0  0  0  0  0  0
  -29.6521  -14.9004   19.3806 N   0  0  0  0  0  0  0  0  0  0  0  0
  -23.9678  -34.2067   23.6620 N   0  0  0  0  0  0  0  0  0  0  0  0
  -18.4416  -30.8083   22.6885 N   0  0  0  0  0  0  0  0  0  0  0  0
  -17.0813  -29.3325   19.6819 N   0  3  0  0  0  0  0  0  0  0  0  0
  -26.1699   -7.5752   16.7355 O   0  0  0  0  0  0  0  0  0  0  0  0
  -23.8389  -31.9222   24.0943 O   0  0  0  0  0  0  0  0  0  0  0  0
  -20.0101  -33.1615   23.1478 O   0  0  0  0  0  0  0  0  0  0  0  0
  -18.9439  -28.7654   21.7131 O   0  0  0  0  0  0  0  0  0  0  0  0
  -31.8813  -14.8657   20.0220 O   0  0  0  0  0  0  0  0  0  0  0  0
  -22.0431   -8.2920   23.2962 O   0  0  0  0  0  0  0  0  0  0  0  0
  -25.4614  -27.2580   20.4478 O   0  0  0  0  0  0  0  0  0  1  0  0
  -20.3039   -3.0752   23.7013 F   0  0  0  0  0  0  0  0  0  0  0  0
  -30.6275  -19.4200   20.6563 F   0  0  0  0  0  0  0  0  0  0  0  0
  -22.0150   -6.9917   25.7356 F   0  0  0  0  0  0  0  0  0  0  0  0
  1  2  3  0  0  0  0
  1 24  1  0  0  0  0
  2 25  1  0  0  0  0
  3  4  1  0  0  0  0
  3 10  2  0  0  0  0
  4 11  2  0  0  0  0
  5 13  2  0  0  0  0
  5 24  1  0  0  0  0
  6 14  1  0  0  0  0
  6 24  2  0  0  0  0
  7 15  2  0  0  0  0
  7 25  1  0  0  0  0
  8 16  2  0  0  0  0
  8 26  1  0  0  0  0
  9 17  1  0  0  0  0
  9 26  2  0  0  0  0
 10 28  1  0  0  0  0
 11 30  1  0  0  0  0
 12 18  2  0  0  0  0
 12 29  1  0  0  0  0
 13 32  1  0  0  0  0
 14 32  2  0  0  0  0
 15 33  1  0  0  0  0
 16 34  1  0  0  0  0
 17 34  2  0  0  0  0
 18 35  1  0  0  0  0
 19 20  2  0  0  0  0
 19 36  1  0  0  0  0
 20 37  1  0  0  0  0
 21 31  1  0  0  0  0
 21 35  2  0  0  0  0
 22 33  2  0  0  0  0
 22 38  1  0  0  0  0
 23 37  2  0  0  0  0
 23 39  1  0  0  0  0
 25 38  2  0  0  0  0
 26 40  1  0  0  0  0
 27 40  1  0  0  0  0
 27 41  2  0  0  0  0
 27 42  1  0  0  0  0
 28 30  2  0  0  0  0
 28 47  1  0  0  0  0
 29 31  2  0  0  0  0
 29 48  1  0  0  0  0
 30 56  1  0  0  0  0
 31 49  1  0  0  0  0
 32 64  1  0  0  0  0
 33 74  1  0  0  0  0
 34 83  1  0  0  0  0
 35 84  1  0  0  0  0
 36 39  2  0  0  0  0
 36 83  1  0  0  0  0
 37 85  1  0  0  0  0
 38 86  1  0  0  0  0
 39 87  1  0  0  0  0
 40 68  2  0  0  0  0
 41 69  1  0  0  0  0
 41 72  1  0  0  0  0
 42 73  1  0  0  0  0
 42 78  2  0  0  0  0
 43 57  1  0  0  0  0
 43 75  1  0  0  0  0
 43 79  2  0  0  0  0
 44 65  1  0  0  0  0
 44 70  1  0  0  0  0
 44 80  2  0  0  0  0
 45 66  1  0  0  0  0
 45 76  1  0  0  0  0
 45 81  2  0  0  0  0
 46 71  1  0  0  0  0
 46 74  1  0  0  0  0
 46 82  2  0  0  0  0
 47 50  1  0  0  0  0
 48 57  1  0  0  0  0
 49 70  1  0  0  0  0
 50 52  1  0  0  0  0
 51 53  1  0  0  0  0
 51 54  1  0  0  0  0
 52 56  1  0  0  0  0
 53 58  1  0  0  0  0
 54 71  1  0  0  0  0
 55 58  1  0  0  0  0
 55 71  1  0  0  0  0
 56 75  1  0  0  0  0
 57 70  1  0  0  0  0
 58 69  1  0  0  0  0
 59 66  1  0  0  0  0
 60 67  1  0  0  0  0
 61 67  1  0  0  0  0
 62 67  1  0  0  0  0
 63 77  1  0  0  0  0
 64 84  1  0  0  0  0
 65 67  1  0  0  0  0
 65 76  1  0  0  0  0
 66 77  1  0  0  0  0
 68 69  1  0  0  0  0
M  CHG  1  77   1
M  ISO  4  46 100  64 101  74 100  84 101
M  END
> <Batch ID>
0004

> <Smiles>
CNC(C)C(=O)NC(C(=O)N1Cc2cc([101O:1][101CH2:1]c3ccc(C#Cc4ccc([100NH:0][100C:0](=O)N5CCCC(n6nc(-c7ccc(Oc8ccc(F)cc8F)cc7)c(C(N)=O)c6N)C5)cc4F)cc3)ccc2CC1C(=O)NC1CCCc2ccccc21)C(C)(C)C

> <Shape>
0.280

> <Color>
0.068

> <Negative vol penalty>
0.000

$$$$

  -OEChem-04042320233D

 85 94  0     1  0  0  0  0  0999 V2000
  -26.0857  -25.9254   14.3200 C   0  0  0  0  0  0  0  0  0  0  0  0
  -26.6008  -24.8144   14.9783 C   0  0  0  0  0  0  0  0  0  0  0  0
  -23.0471   -9.8765   20.1359 C   0  0  0  0  0  0  0  0  0  0  0  0
  -23.7836  -10.0675   22.4289 C   0  0  0  0  0  0  0  0  0  0  0  0
  -26.3522  -27.2039   14.8054 C   0  0  0  0  0  0  0  0  0  0  0  0
  -27.3725  -24.9809   16.1288 C   0  0  0  0  0  0  0  0  0  0  0  0
  -30.3387  -20.8912   19.5351 C   0  0  0  0  0  0  0  0  0  0  0  0
  -29.9892  -17.5658   22.7409 C   0  0  0  0  0  0  0  0  0  0  0  0
  -22.2745   -8.7663   20.4765 C   0  0  0  0  0  0  0  0  0  0  0  0
  -23.0110   -8.9573   22.7696 C   0  0  0  0  0  0  0  0  0  0  0  0
  -31.6152  -20.3337   19.5951 C   0  0  0  0  0  0  0  0  0  0  0  0
  -19.7594   -8.2863   23.4003 C   0  0  0  0  0  0  0  0  0  0  0  0
  -18.9900   -8.3657   24.5610 C   0  0  0  0  0  0  0  0  0  0  0  0
  -30.5870  -18.5122   23.5730 C   0  0  0  0  0  0  0  0  0  0  0  0
  -32.2247  -21.9278   21.3000 C   0  0  0  0  0  0  0  0  0  0  0  0
  -32.1594  -16.6213   22.2558 C   0  0  0  0  0  0  0  0  0  0  0  0
  -20.1791   -6.4733   25.4787 C   0  0  0  0  0  0  0  0  0  0  0  0
  -23.8017  -10.5271   21.1121 C   0  0  0  0  0  0  0  0  0  0  0  0
  -24.2026  -13.0240   20.7763 C   0  0  0  0  0  0  0  0  0  0  0  0
  -27.1380  -27.3859   15.9554 C   0  0  0  0  0  0  0  0  0  0  0  0
  -29.9985  -21.9799   20.3507 C   0  0  0  0  0  0  0  0  0  0  0  0
  -27.6327  -26.2620   16.6480 C   0  0  0  0  0  0  0  0  0  0  0  0
  -30.9424  -22.4956   21.2503 C   0  0  0  0  0  0  0  0  0  0  0  0
  -32.7573  -17.5678   23.0878 C   0  0  0  0  0  0  0  0  0  0  0  0
  -30.7754  -16.6203   22.0823 C   0  0  0  0  0  0  0  0  0  0  0  0
  -22.2564   -8.3067   21.7933 C   0  0  0  0  0  0  0  0  0  0  0  0
  -32.5593  -20.8538   20.4755 C   0  0  0  0  0  0  0  0  0  0  0  0
  -20.7387   -7.3004   23.2788 C   0  0  0  0  0  0  0  0  0  0  0  0
  -19.1998   -7.4592   25.6002 C   0  0  0  0  0  0  0  0  0  0  0  0
  -20.9486   -6.3940   24.3180 C   0  0  0  0  0  0  0  0  0  0  0  0
  -31.9711  -18.5133   23.7464 C   0  0  0  0  0  0  0  0  0  0  0  0
  -24.6005  -11.6737   20.7608 C   0  0  0  0  0  0  0  0  0  0  0  0
  -25.3152  -13.7146   20.3623 C   0  0  0  0  0  0  0  0  0  0  0  0
  -22.9401  -13.6022   21.1332 C   0  0  0  0  0  0  0  0  0  0  0  0
  -29.0951  -24.9816   19.8236 C   0  0  0  0  0  0  0  0  0  0  0  0
  -28.6882  -25.0131   23.0416 C   0  0  0  0  0  0  0  0  0  0  0  0
  -29.5100  -23.6916   26.0789 C   0  0  0  0  0  0  0  0  0  0  0  0
  -30.8019  -14.6512   20.5112 C   0  0  0  0  0  0  0  0  0  0  0  0
  -27.3887  -28.7916   16.4415 C   0  0  0  0  0  0  0  0  0  0  0  0
  -28.6089  -22.5528   20.2932 C   0  0  0  0  0  0  0  0  0  0  0  0
  -30.6208  -23.6506   22.1618 C   0  0  0  0  0  0  0  0  0  0  0  0
  -28.5729  -28.8875   17.3980 C   0  0  0  0  0  0  0  0  0  0  0  0
  -29.6565  -12.0644   18.3493 C   0  0  0  0  0  0  0  0  0  0  0  0
  -37.2725  -18.7119   21.8916 C   0  0  0  0  0  0  0  0  0  0  0  0
  -28.4499  -27.8304   18.4851 C   0  0  0  0  0  0  0  0  0  0  0  0
  -28.2063  -11.8433   18.7852 C   0  0  0  0  0  0  0  0  0  0  0  0
  -36.4312  -19.0007   20.6643 C   0  0  0  0  0  0  0  0  0  0  0  0
  -30.5644  -12.3774   19.5374 C   0  0  0  0  0  0  0  0  0  0  0  0
  -28.6607  -13.2616   20.8270 C   0  0  0  0  0  0  0  0  0  0  0  0
  -36.3212  -18.9638   23.0455 C   0  0  0  0  0  0  0  0  0  0  0  0
  -28.5001  -26.4202   17.8837 C   0  0  1  0  0  0  0  0  0  0  0  0
  -28.5332  -23.9891   20.8018 C   0  0  1  0  0  0  0  0  0  0  0  0
  -27.6961  -13.0074   19.6571 C   0  0  2  0  0  0  0  0  0  0  0  0
  -35.1001  -18.3495   21.0093 C   0  0  2  0  0  0  0  0  0  0  0  0
  -29.0435  -23.9501   28.5311 C   0  0  0  0  0  0  0  0  0  0  0  0
  -30.4694  -27.4893   23.1170 C   0  0  0  0  0  0  0  0  0  0  0  0
  -30.7394  -27.1346   25.5806 C   0  0  0  0  0  0  0  0  0  0  0  0
  -28.4792  -27.5895   24.6281 C   0  0  0  0  0  0  0  0  0  0  0  0
  -28.4244  -20.9457   26.2802 C   0  0  0  0  0  0  0  0  0  0  0  0
  -34.2487  -17.5356   23.2482 C   0  0  0  0  0  0  0  0  0  0  0  0
  -33.9252  -18.9215   20.2377 C   0  0  0  0  0  0  0  0  0  1  0  0
  -29.5638  -25.3412   24.2268 C   0  0  1  0  0  0  0  0  0  0  0  0
  -28.6514  -23.2381   27.2458 C   0  0  2  0  0  0  0  0  0  0  0  0
  -29.8199  -26.8681   24.3697 C   0  0  0  0  0  0  0  0  0  0  0  0
  -25.8670  -11.5139   20.3678 N   0  0  0  0  0  0  0  0  0  0  0  0
  -26.2745  -12.7727   20.1325 N   0  0  0  0  0  0  0  0  0  0  0  0
  -29.2506  -24.1803   22.0639 N   0  0  0  0  0  0  0  0  0  0  0  0
  -30.0203  -13.4931   20.3146 N   0  0  0  0  0  0  0  0  0  0  0  0
  -25.5568  -15.0296   20.1759 N   0  0  0  0  0  0  0  0  0  0  0  0
  -21.9042  -12.7485   21.5363 N   0  0  0  0  0  0  0  0  0  0  0  0
  -30.1677  -15.6583   21.2379 N   0  0  0  0  0  0  0  0  0  0  0  0
  -28.1723  -25.4567   18.9114 N   0  0  0  0  0  0  0  0  0  0  0  0
  -28.9247  -24.7313   25.3878 N   0  0  0  0  0  0  0  0  0  0  0  0
  -34.9437  -18.6305   22.4977 N   0  3  1  0  0  0  0  0  0  0  0  0
  -28.7990  -21.7704   27.4578 N   0  3  0  0  0  0  0  0  0  0  0  0
  -22.7315  -14.8380   21.0801 O   0  0  0  0  0  0  0  0  0  0  0  0
  -30.2780  -25.2943   19.8923 O   0  0  0  0  0  0  0  0  0  0  0  0
  -27.5447  -25.4727   22.9889 O   0  0  0  0  0  0  0  0  0  0  0  0
  -30.5935  -23.1776   25.8099 O   0  0  0  0  0  0  0  0  0  0  0  0
  -31.9393  -14.7535   20.0443 O   0  0  0  0  0  0  0  0  0  0  0  0
  -21.5024   -7.2235   22.1261 O   0  0  0  0  0  0  0  0  0  0  0  0
  -33.8062  -20.3120   20.5356 O   0  0  0  0  0  0  0  0  0  1  0  0
  -18.4618   -7.5364   26.7153 F   0  0  0  0  0  0  0  0  0  0  0  0
  -21.8887   -5.4454   24.2074 F   0  0  0  0  0  0  0  0  0  0  0  0
  -32.6748  -19.6993   24.7844 Cl  0  0  0  0  0  0  0  0  0  0  0  0
  1  2  1  0  0  0  0
  1  5  2  0  0  0  0
  2  6  2  0  0  0  0
  3  9  2  0  0  0  0
  3 18  1  0  0  0  0
  4 10  1  0  0  0  0
  4 18  2  0  0  0  0
  5 20  1  0  0  0  0
  6 22  1  0  0  0  0
  7 11  2  0  0  0  0
  7 21  1  0  0  0  0
  8 14  2  0  0  0  0
  8 25  1  0  0  0  0
  9 26  1  0  0  0  0
 10 26  2  0  0  0  0
 11 27  1  0  0  0  0
 12 13  2  0  0  0  0
 12 28  1  0  0  0  0
 13 29  1  0  0  0  0
 14 31  1  0  0  0  0
 15 23  1  0  0  0  0
 15 27  2  0  0  0  0
 16 24  1  0  0  0  0
 16 25  2  0  0  0  0
 17 29  2  0  0  0  0
 17 30  1  0  0  0  0
 18 32  1  0  0  0  0
 19 32  1  0  0  0  0
 19 33  2  0  0  0  0
 19 34  1  0  0  0  0
 20 22  2  0  0  0  0
 20 39  1  0  0  0  0
 21 23  2  0  0  0  0
 21 40  1  0  0  0  0
 22 51  1  0  0  0  0
 23 41  1  0  0  0  0
 24 31  2  0  0  0  0
 24 60  1  0  0  0  0
 25 71  1  0  0  0  0
 26 81  1  0  0  0  0
 27 82  1  0  0  0  0
 28 30  2  0  0  0  0
 28 81  1  0  0  0  0
 29 83  1  0  0  0  0
 30 84  1  0  0  0  0
 31 85  1  0  0  0  0
 32 65  2  0  0  0  0
 33 66  1  0  0  0  0
 33 69  1  0  0  0  0
 34 70  1  0  0  0  0
 34 76  2  0  0  0  0
 35 52  1  0  0  0  0
 35 72  1  0  0  0  0
 35 77  2  0  0  0  0
 36 62  1  0  0  0  0
 36 67  1  0  0  0  0
 36 78  2  0  0  0  0
 37 63  1  0  0  0  0
 37 73  1  0  0  0  0
 37 79  2  0  0  0  0
 38 68  1  0  0  0  0
 38 71  1  0  0  0  0
 38 80  2  0  0  0  0
 39 42  1  0  0  0  0
 40 52  1  0  0  0  0
 41 67  1  0  0  0  0
 42 45  1  0  0  0  0
 43 46  1  0  0  0  0
 43 48  1  0  0  0  0
 44 47  1  0  0  0  0
 44 50  1  0  0  0  0
 45 51  1  0  0  0  0
 46 53  1  0  0  0  0
 47 54  1  0  0  0  0
 48 68  1  0  0  0  0
 49 53  1  0  0  0  0
 49 68  1  0  0  0  0
 50 74  1  0  0  0  0
 51 72  1  0  0  0  0
 52 67  1  0  0  0  0
 53 66  1  0  0  0  0
 54 61  1  0  0  0  0
 54 74  1  0  0  0  0
 55 63  1  0  0  0  0
 56 64  1  0  0  0  0
 57 64  1  0  0  0  0
 58 64  1  0  0  0  0
 59 75  1  0  0  0  0
 60 74  1  0  0  0  0
 61 82  1  0  0  0  0
 62 64  1  0  0  0  0
 62 73  1  0  0  0  0
 63 75  1  0  0  0  0
 65 66  1  0  0  0  0
M  CHG  2  74   1  75   1
M  ISO  4  38 100  61 101  71 100  82 101
M  END
> <Batch ID>
0004

> <Smiles>
CNC(C)C(=O)NC(C(=O)N1Cc2cc([101O:1][101CH2:1]C3CCCN3Cc3cc([100NH:0][100C:0](=O)N4CCCC(n5nc(-c6ccc(Oc7ccc(F)cc7F)cc6)c(C(N)=O)c5N)C4)ccc3Cl)ccc2CC1C(=O)NC1CCCc2ccccc21)C(C)(C)C

> <Shape>
0.210

> <Color>
0.192

> <Negative vol penalty>
0.000

$$$$

  -OEChem-04042320233D

 86 95  0     1  0  0  0  0  0999 V2000
  -28.7799  -35.6030   21.4563 C   0  0  0  0  0  0  0  0  0  0  0  0
  -28.9325  -34.2218   21.3904 C   0  0  0  0  0  0  0  0  0  0  0  0
  -23.7510   -9.9575   22.6257 C   0  0  0  0  0  0  0  0  0  0  0  0
  -22.7972  -10.7524   20.5531 C   0  0  0  0  0  0  0  0  0  0  0  0
  -27.7474  -36.1538   22.2143 C   0  0  0  0  0  0  0  0  0  0  0  0
  -28.0533  -33.3905   22.0834 C   0  0  0  0  0  0  0  0  0  0  0  0
  -26.4756  -29.4720   19.2903 C   0  0  0  0  0  0  0  0  0  0  0  0
  -24.2636  -20.0324   18.6971 C   0  0  0  0  0  0  0  0  0  0  0  0
  -23.1890   -8.7006   22.4023 C   0  0  0  0  0  0  0  0  0  0  0  0
  -22.2352   -9.4954   20.3297 C   0  0  0  0  0  0  0  0  0  0  0  0
  -27.3567  -28.4021   19.1392 C   0  0  0  0  0  0  0  0  0  0  0  0
  -24.7943  -20.2550   17.4244 C   0  0  0  0  0  0  0  0  0  0  0  0
  -23.8600   -5.9702   20.5241 C   0  0  0  0  0  0  0  0  0  0  0  0
  -24.6654   -4.8522   20.7410 C   0  0  0  0  0  0  0  0  0  0  0  0
  -26.1650  -27.1871   20.8489 C   0  0  0  0  0  0  0  0  0  0  0  0
  -23.1143   -4.0596   22.4153 C   0  0  0  0  0  0  0  0  0  0  0  0
  -23.5550  -10.9835   21.7011 C   0  0  0  0  0  0  0  0  0  0  0  0
  -25.4036  -12.7320   21.5199 C   0  0  0  0  0  0  0  0  0  0  0  0
  -26.8492  -35.3285   22.9092 C   0  0  0  0  0  0  0  0  0  0  0  0
  -25.4375  -29.4117   20.2312 C   0  0  0  0  0  0  0  0  0  0  0  0
  -27.0086  -33.9307   22.8525 C   0  0  0  0  0  0  0  0  0  0  0  0
  -24.9491  -20.5303   19.7942 C   0  0  0  0  0  0  0  0  0  0  0  0
  -25.2706  -28.2565   21.0082 C   0  0  0  0  0  0  0  0  0  0  0  0
  -26.1364  -21.2565   19.6285 C   0  0  0  0  0  0  0  0  0  0  0  0
  -26.6626  -21.4930   18.3693 C   0  0  0  0  0  0  0  0  0  0  0  0
  -22.4312   -8.4695   21.2543 C   0  0  0  0  0  0  0  0  0  0  0  0
  -27.2032  -27.2606   19.9205 C   0  0  0  0  0  0  0  0  0  0  0  0
  -25.9854  -20.9794   17.2618 C   0  0  0  0  0  0  0  0  0  0  0  0
  -22.6818   -6.1330   21.2529 C   0  0  0  0  0  0  0  0  0  0  0  0
  -24.2926   -3.8969   21.6866 C   0  0  0  0  0  0  0  0  0  0  0  0
  -22.3090   -5.1777   22.1984 C   0  0  0  0  0  0  0  0  0  0  0  0
  -24.1348  -12.2822   21.9316 C   0  0  0  0  0  0  0  0  0  0  0  0
  -25.4763  -14.0238   21.9809 C   0  0  0  0  0  0  0  0  0  0  0  0
  -26.4252  -12.0436   20.7863 C   0  0  0  0  0  0  0  0  0  0  0  0
  -24.6612  -31.0774   22.8247 C   0  0  0  0  0  0  0  0  0  0  0  0
  -22.0025  -29.2207   22.7455 C   0  0  0  0  0  0  0  0  0  0  0  0
  -20.5299  -26.3106   21.7407 C   0  0  0  0  0  0  0  0  0  0  0  0
  -23.1854  -19.0554   22.7423 C   0  0  0  0  0  0  0  0  0  0  0  0
  -25.7775  -35.9711   23.7536 C   0  0  0  0  0  0  0  0  0  0  0  0
  -24.4793  -30.5636   20.3632 C   0  0  0  0  0  0  0  0  0  0  0  0
  -26.6591  -21.7374   20.9461 C   0  0  0  0  0  0  0  0  0  0  0  0
  -24.1600  -28.1338   22.0182 C   0  0  0  0  0  0  0  0  0  0  0  0
  -24.6612  -35.0106   24.1557 C   0  0  0  0  0  0  0  0  0  0  0  0
  -25.9151  -20.8077   21.9174 C   0  0  0  0  0  0  0  0  0  0  0  0
  -22.4780  -16.5532   25.1744 C   0  0  0  0  0  0  0  0  0  0  0  0
  -25.2452  -33.6963   24.6639 C   0  0  0  0  0  0  0  0  0  0  0  0
  -22.9447  -15.2562   24.5112 C   0  0  0  0  0  0  0  0  0  0  0  0
  -21.8620  -17.5153   24.1611 C   0  0  0  0  0  0  0  0  0  0  0  0
  -23.1812  -16.5199   22.3327 C   0  0  0  0  0  0  0  0  0  0  0  0
  -24.5728  -20.4672   21.2452 C   0  0  2  0  0  0  0  0  0  0  0  0
  -26.0601  -32.9952   23.5703 C   0  0  1  0  0  0  0  0  0  0  0  0
  -23.7701  -30.5990   21.7135 C   0  0  1  0  0  0  0  0  0  0  0  0
  -23.8604  -15.5409   23.3055 C   0  0  2  0  0  0  0  0  0  0  0  0
  -18.3578  -25.0592   21.8575 C   0  0  0  0  0  0  0  0  0  0  0  0
  -22.5977  -28.4626   25.6405 C   0  0  0  0  0  0  0  0  0  0  0  0
  -21.0085  -26.5441   25.3917 C   0  0  0  0  0  0  0  0  0  0  0  0
  -20.1824  -28.8852   25.1482 C   0  0  0  0  0  0  0  0  0  0  0  0
  -20.2267  -26.3301   18.7968 C   0  0  0  0  0  0  0  0  0  0  0  0
  -26.0187  -22.3508   15.3191 C   0  0  0  0  0  0  0  0  0  0  0  0
  -27.9251  -22.2856   18.1995 C   0  0  0  0  0  0  0  0  0  0  0  0
  -28.9700  -24.5523   18.2945 C   0  0  0  0  0  0  0  0  0  0  0  0
  -28.6334  -26.0184   18.4827 C   0  0  0  0  0  0  0  0  0  1  0  0
  -21.6165  -27.8809   23.3243 C   0  0  1  0  0  0  0  0  0  0  0  0
  -19.2028  -26.0372   21.0561 C   0  0  2  0  0  0  0  0  0  0  0  0
  -21.3735  -27.9460   24.8586 C   0  0  0  0  0  0  0  0  0  0  0  0
  -23.4506  -13.2127   22.6026 N   0  0  0  0  0  0  0  0  0  0  0  0
  -24.2927  -14.2599   22.6162 N   0  0  0  0  0  0  0  0  0  0  0  0
  -23.2528  -29.2892   22.1148 N   0  0  0  0  0  0  0  0  0  0  0  0
  -22.7814  -17.7444   23.0438 N   0  0  0  0  0  0  0  0  0  0  0  0
  -26.4365  -14.9693   21.9007 N   0  0  0  0  0  0  0  0  0  0  0  0
  -26.1867  -10.7207   20.3896 N   0  0  0  0  0  0  0  0  0  0  0  0
  -25.1804  -32.3422   22.6247 N   0  0  0  0  0  0  0  0  0  0  0  0
  -20.4649  -27.4208   22.5559 N   0  0  0  0  0  0  0  0  0  0  0  0
  -24.0628  -19.1834   21.6724 N   0  0  0  0  0  0  0  0  0  0  0  0
  -19.4284  -25.4619   19.7000 N   0  3  0  0  0  0  0  0  0  0  0  0
  -27.7270  -23.7470   18.3971 N   0  3  0  0  0  0  0  0  0  0  0  0
  -27.5238  -12.5802   20.5055 O   0  0  0  0  0  0  0  0  0  0  0  0
  -24.8616  -30.3531   23.7927 O   0  0  0  0  0  0  0  0  0  0  0  0
  -21.2203  -30.1695   22.8430 O   0  0  0  0  0  0  0  0  0  0  0  0
  -21.5236  -25.6073   21.5723 O   0  0  0  0  0  0  0  0  0  0  0  0
  -22.7976  -20.0385   23.3827 O   0  0  0  0  0  0  0  0  0  0  0  0
  -21.8829   -7.2430   21.0359 O   0  0  0  0  0  0  0  0  0  0  0  0
  -26.4659  -21.1819   16.0012 O   0  0  0  0  0  0  0  0  0  0  0  0
  -28.0622  -26.2152   19.7755 O   0  0  0  0  0  0  0  0  0  1  0  0
  -25.0653   -2.8226   21.8936 F   0  0  0  0  0  0  0  0  0  0  0  0
  -21.1776   -5.3280   22.9008 F   0  0  0  0  0  0  0  0  0  0  0  0
  1  2  1  0  0  0  0
  1  5  2  0  0  0  0
  2  6  2  0  0  0  0
  3  9  2  0  0  0  0
  3 17  1  0  0  0  0
  4 10  1  0  0  0  0
  4 17  2  0  0  0  0
  5 19  1  0  0  0  0
  6 21  1  0  0  0  0
  7 11  2  0  0  0  0
  7 20  1  0  0  0  0
  8 12  1  0  0  0  0
  8 22  2  0  0  0  0
  9 26  1  0  0  0  0
 10 26  2  0  0  0  0
 11 27  1  0  0  0  0
 12 28  2  0  0  0  0
 13 14  2  0  0  0  0
 13 29  1  0  0  0  0
 14 30  1  0  0  0  0
 15 23  1  0  0  0  0
 15 27  2  0  0  0  0
 16 30  2  0  0  0  0
 16 31  1  0  0  0  0
 17 32  1  0  0  0  0
 18 32  1  0  0  0  0
 18 33  2  0  0  0  0
 18 34  1  0  0  0  0
 19 21  2  0  0  0  0
 19 39  1  0  0  0  0
 20 23  2  0  0  0  0
 20 40  1  0  0  0  0
 21 51  1  0  0  0  0
 22 24  1  0  0  0  0
 22 50  1  0  0  0  0
 23 42  1  0  0  0  0
 24 25  2  0  0  0  0
 24 41  1  0  0  0  0
 25 28  1  0  0  0  0
 25 60  1  0  0  0  0
 26 82  1  0  0  0  0
 27 84  1  0  0  0  0
 28 83  1  0  0  0  0
 29 31  2  0  0  0  0
 29 82  1  0  0  0  0
 30 85  1  0  0  0  0
 31 86  1  0  0  0  0
 32 66  2  0  0  0  0
 33 67  1  0  0  0  0
 33 70  1  0  0  0  0
 34 71  1  0  0  0  0
 34 77  2  0  0  0  0
 35 52  1  0  0  0  0
 35 72  1  0  0  0  0
 35 78  2  0  0  0  0
 36 63  1  0  0  0  0
 36 68  1  0  0  0  0
 36 79  2  0  0  0  0
 37 64  1  0  0  0  0
 37 73  1  0  0  0  0
 37 80  2  0  0  0  0
 38 69  1  0  0  0  0
 38 74  1  0  0  0  0
 38 81  2  0  0  0  0
 39 43  1  0  0  0  0
 40 52  1  0  0  0  0
 41 44  1  0  0  0  0
 42 68  1  0  0  0  0
 43 46  1  0  0  0  0
 44 50  1  0  0  0  0
 45 47  1  0  0  0  0
 45 48  1  0  0  0  0
 46 51  1  0  0  0  0
 47 53  1  0  0  0  0
 48 69  1  0  0  0  0
 49 53  1  0  0  0  0
 49 69  1  0  0  0  0
 50 74  1  0  0  0  0
 51 72  1  0  0  0  0
 52 68  1  0  0  0  0
 53 67  1  0  0  0  0
 54 64  1  0  0  0  0
 55 65  1  0  0  0  0
 56 65  1  0  0  0  0
 57 65  1  0  0  0  0
 58 75  1  0  0  0  0
 59 83  1  0  0  0  0
 60 76  1  0  0  0  0
 61 62  1  0  0  0  0
 61 76  1  0  0  0  0
 62 84  1  0  0  0  0
 63 65  1  0  0  0  0
 63 73  1  0  0  0  0
 64 75  1  0  0  0  0
 66 67  1  0  0  0  0
M  CHG  2  75   1  76   1
M  ISO  4  38 100  62 101  74 100  84 101
M  END
> <Batch ID>
0004

> <Smiles>
CNC(C)C(=O)NC(C(=O)N1Cc2cc([101O:1][101CH2:1]CNCc3c(OC)ccc4c3CCC4[100NH:0][100C:0](=O)N3CCCC(n4nc(-c5ccc(Oc6ccc(F)cc6F)cc5)c(C(N)=O)c4N)C3)ccc2CC1C(=O)NC1CCCc2ccccc21)C(C)(C)C

> <Shape>
0.251

> <Color>
0.067

> <Negative vol penalty>
0.000

$$$$

  -OEChem-04042320233D

 87 96  0     1  0  0  0  0  0999 V2000
  -26.0873  -35.4600   31.8686 C   0  0  0  0  0  0  0  0  0  0  0  0
  -27.0011  -34.4111   31.8602 C   0  0  0  0  0  0  0  0  0  0  0  0
  -29.6569  -19.2390   24.8098 C   0  0  0  0  0  0  0  0  0  0  0  0
  -32.6430  -17.4988   23.4551 C   0  0  0  0  0  0  0  0  0  0  0  0
  -23.0775   -9.8653   19.9415 C   0  0  0  0  0  0  0  0  0  0  0  0
  -23.8342   -9.8763   22.2359 C   0  0  0  0  0  0  0  0  0  0  0  0
  -25.5402  -35.9160   30.6700 C   0  0  0  0  0  0  0  0  0  0  0  0
  -27.3675  -33.8167   30.6532 C   0  0  0  0  0  0  0  0  0  0  0  0
  -32.8617  -31.5423   29.1878 C   0  0  0  0  0  0  0  0  0  0  0  0
  -30.2444  -20.1239   25.7144 C   0  0  0  0  0  0  0  0  0  0  0  0
  -32.0554  -16.6140   22.5506 C   0  0  0  0  0  0  0  0  0  0  0  0
  -22.3337   -8.7122   20.1923 C   0  0  0  0  0  0  0  0  0  0  0  0
  -23.0904   -8.7233   22.4868 C   0  0  0  0  0  0  0  0  0  0  0  0
  -33.3697  -30.2440   29.1878 C   0  0  0  0  0  0  0  0  0  0  0  0
  -19.8617   -7.9253   23.0861 C   0  0  0  0  0  0  0  0  0  0  0  0
  -19.1032   -7.8870   24.2560 C   0  0  0  0  0  0  0  0  0  0  0  0
  -32.4272  -19.2754   25.1285 C   0  0  0  0  0  0  0  0  0  0  0  0
  -29.8727  -17.4624   23.1366 C   0  0  0  0  0  0  0  0  0  0  0  0
  -32.8656  -30.0533   26.8365 C   0  0  0  0  0  0  0  0  0  0  0  0
  -20.3443   -5.9512   24.9974 C   0  0  0  0  0  0  0  0  0  0  0  0
  -31.8529  -18.3782   24.2133 C   0  0  0  0  0  0  0  0  0  0  0  0
  -30.4470  -18.3597   24.0516 C   0  0  0  0  0  0  0  0  0  0  0  0
  -23.8278  -10.4473   20.9633 C   0  0  0  0  0  0  0  0  0  0  0  0
  -24.1689  -12.9724   20.8395 C   0  0  0  0  0  0  0  0  0  0  0  0
  -25.9073  -35.3332   29.4468 C   0  0  0  0  0  0  0  0  0  0  0  0
  -32.3408  -32.1029   28.0127 C   0  0  0  0  0  0  0  0  0  0  0  0
  -26.8237  -34.2643   29.4372 C   0  0  0  0  0  0  0  0  0  0  0  0
  -32.3538  -31.3598   26.8237 C   0  0  0  0  0  0  0  0  0  0  0  0
  -31.6269  -20.1420   25.8734 C   0  0  0  0  0  0  0  0  0  0  0  0
  -30.6729  -16.5958   22.3916 C   0  0  0  0  0  0  0  0  0  0  0  0
  -22.3401   -8.1413   21.4649 C   0  0  0  0  0  0  0  0  0  0  0  0
  -33.3691  -29.4982   28.0127 C   0  0  0  0  0  0  0  0  0  0  0  0
  -20.8615   -6.9765   22.8718 C   0  0  0  0  0  0  0  0  0  0  0  0
  -19.3445   -6.9000   25.2117 C   0  0  0  0  0  0  0  0  0  0  0  0
  -21.1028   -5.9895   23.8274 C   0  0  0  0  0  0  0  0  0  0  0  0
  -24.5968  -11.6380   20.7046 C   0  0  0  0  0  0  0  0  0  0  0  0
  -25.2612  -13.7217   20.4765 C   0  0  0  0  0  0  0  0  0  0  0  0
  -22.8976  -13.4884   21.2558 C   0  0  0  0  0  0  0  0  0  0  0  0
  -29.4909  -33.1890   27.1172 C   0  0  0  0  0  0  0  0  0  0  0  0
  -31.1039  -34.0854   24.4494 C   0  0  0  0  0  0  0  0  0  0  0  0
  -33.7869  -33.6198   22.3924 C   0  0  0  0  0  0  0  0  0  0  0  0
  -30.7268  -14.7696   20.6571 C   0  0  0  0  0  0  0  0  0  0  0  0
  -25.2533  -35.8287   28.1813 C   0  0  0  0  0  0  0  0  0  0  0  0
  -31.8210  -33.5143   28.0233 C   0  0  0  0  0  0  0  0  0  0  0  0
  -31.8248  -31.9229   25.5308 C   0  0  0  0  0  0  0  0  0  0  0  0
  -25.9779  -35.3930   26.9103 C   0  0  0  0  0  0  0  0  0  0  0  0
  -29.6166  -12.3515   18.2912 C   0  0  0  0  0  0  0  0  0  0  0  0
  -26.3216  -33.9082   26.9741 C   0  0  0  0  0  0  0  0  0  0  0  0
  -28.1764  -12.0601   18.7193 C   0  0  0  0  0  0  0  0  0  0  0  0
  -30.5299  -12.5826   19.4938 C   0  0  0  0  0  0  0  0  0  0  0  0
  -28.6208  -13.3086   20.8712 C   0  0  0  0  0  0  0  0  0  0  0  0
  -27.2649  -33.6102   28.1459 C   0  0  1  0  0  0  0  0  0  0  0  0
  -30.8442  -33.7998   26.8867 C   0  0  1  0  0  0  0  0  0  0  0  0
  -27.6496  -13.1331   19.6923 C   0  0  2  0  0  0  0  0  0  0  0  0
  -34.8144  -34.4784   20.2700 C   0  0  0  0  0  0  0  0  0  0  0  0
  -29.0085  -32.5739   22.8262 C   0  0  0  0  0  0  0  0  0  0  0  0
  -30.5683  -32.6529   20.8694 C   0  0  0  0  0  0  0  0  0  0  0  0
  -29.6955  -34.7728   21.8528 C   0  0  0  0  0  0  0  0  0  0  0  0
  -36.2541  -34.4643   23.7919 C   0  0  0  0  0  0  0  0  0  0  0  0
  -32.2579  -21.0939   26.8464 C   0  0  0  0  0  0  0  0  0  0  0  0
  -32.7769  -24.8693   26.7142 C   0  0  0  0  0  0  0  0  0  0  0  0
  -33.3875  -25.9057   27.6546 C   0  0  0  0  0  0  0  0  0  0  0  0
  -32.8416  -23.4757   27.3210 C   0  0  0  0  0  0  0  0  0  0  0  0
  -33.2915  -27.3119   27.0799 C   0  0  0  0  0  0  0  0  0  1  0  0
  -31.4238  -33.4359   23.1247 C   0  0  1  0  0  0  0  0  0  0  0  0
  -34.7731  -34.6013   21.7853 C   0  0  2  0  0  0  0  0  0  0  0  0
  -30.1823  -33.3473   22.1929 C   0  0  0  0  0  0  0  0  0  0  0  0
  -25.8623  -11.5420   20.2882 N   0  0  0  0  0  0  0  0  0  0  0  0
  -26.2389  -12.8255   20.1583 N   0  0  0  0  0  0  0  0  0  0  0  0
  -31.3214  -33.3050   25.5937 N   0  0  0  0  0  0  0  0  0  0  0  0
  -29.9693  -13.6147   20.3687 N   0  0  0  0  0  0  0  0  0  0  0  0
  -25.4712  -15.0531   20.4016 N   0  0  0  0  0  0  0  0  0  0  0  0
  -21.8856  -12.5794   21.5932 N   0  0  0  0  0  0  0  0  0  0  0  0
  -30.0779  -15.6958   21.4730 N   0  0  0  0  0  0  0  0  0  0  0  0
  -28.6189  -34.0012   27.8168 N   0  0  0  0  0  0  0  0  0  0  0  0
  -32.5412  -34.1861   22.5615 N   0  0  0  0  0  0  0  0  0  0  0  0
  -36.1438  -34.3526   22.3146 N   0  3  0  0  0  0  0  0  0  0  0  0
  -32.2803  -22.4994   26.3563 N   0  3  0  0  0  0  0  0  0  0  0  0
  -22.6608  -14.7190   21.3108 O   0  0  0  0  0  0  0  0  0  0  0  0
  -29.2549  -32.0648   26.6905 O   0  0  0  0  0  0  0  0  0  0  0  0
  -30.6834  -35.2449   24.4685 O   0  0  0  0  0  0  0  0  0  0  0  0
  -34.0903  -32.4649   22.6836 O   0  0  0  0  0  0  0  0  0  0  0  0
  -31.8564  -14.9380   20.1907 O   0  0  0  0  0  0  0  0  0  0  0  0
  -21.6143   -7.0163   21.7101 O   0  0  0  0  0  0  0  0  0  0  0  0
  -33.8638  -28.2305   28.0100 O   0  0  0  0  0  0  0  0  0  1  0  0
  -18.6170   -6.8643   26.3358 F   0  0  0  0  0  0  0  0  0  0  0  0
  -22.0628   -5.0760   23.6276 F   0  0  0  0  0  0  0  0  0  0  0  0
  1  2  1  0  0  0  0
  1  7  2  0  0  0  0
  2  8  2  0  0  0  0
  3 10  2  0  0  0  0
  3 22  1  0  0  0  0
  4 11  2  0  0  0  0
  4 21  1  0  0  0  0
  5 12  2  0  0  0  0
  5 23  1  0  0  0  0
  6 13  1  0  0  0  0
  6 23  2  0  0  0  0
  7 25  1  0  0  0  0
  8 27  1  0  0  0  0
  9 14  2  0  0  0  0
  9 26  1  0  0  0  0
 10 29  1  0  0  0  0
 11 30  1  0  0  0  0
 12 31  1  0  0  0  0
 13 31  2  0  0  0  0
 14 32  1  0  0  0  0
 15 16  2  0  0  0  0
 15 33  1  0  0  0  0
 16 34  1  0  0  0  0
 17 21  1  0  0  0  0
 17 29  2  0  0  0  0
 18 22  1  0  0  0  0
 18 30  2  0  0  0  0
 19 28  1  0  0  0  0
 19 32  2  0  0  0  0
 20 34  2  0  0  0  0
 20 35  1  0  0  0  0
 21 22  2  0  0  0  0
 23 36  1  0  0  0  0
 24 36  1  0  0  0  0
 24 37  2  0  0  0  0
 24 38  1  0  0  0  0
 25 27  2  0  0  0  0
 25 43  1  0  0  0  0
 26 28  2  0  0  0  0
 26 44  1  0  0  0  0
 27 52  1  0  0  0  0
 28 45  1  0  0  0  0
 29 60  1  0  0  0  0
 30 74  1  0  0  0  0
 31 84  1  0  0  0  0
 32 85  1  0  0  0  0
 33 35  2  0  0  0  0
 33 84  1  0  0  0  0
 34 86  1  0  0  0  0
 35 87  1  0  0  0  0
 36 68  2  0  0  0  0
 37 69  1  0  0  0  0
 37 72  1  0  0  0  0
 38 73  1  0  0  0  0
 38 79  2  0  0  0  0
 39 53  1  0  0  0  0
 39 75  1  0  0  0  0
 39 80  2  0  0  0  0
 40 65  1  0  0  0  0
 40 70  1  0  0  0  0
 40 81  2  0  0  0  0
 41 66  1  0  0  0  0
 41 76  1  0  0  0  0
 41 82  2  0  0  0  0
 42 71  1  0  0  0  0
 42 74  1  0  0  0  0
 42 83  2  0  0  0  0
 43 46  1  0  0  0  0
 44 53  1  0  0  0  0
 45 70  1  0  0  0  0
 46 48  1  0  0  0  0
 47 49  1  0  0  0  0
 47 50  1  0  0  0  0
 48 52  1  0  0  0  0
 49 54  1  0  0  0  0
 50 71  1  0  0  0  0
 51 54  1  0  0  0  0
 51 71  1  0  0  0  0
 52 75  1  0  0  0  0
 53 70  1  0  0  0  0
 54 69  1  0  0  0  0
 55 66  1  0  0  0  0
 56 67  1  0  0  0  0
 57 67  1  0  0  0  0
 58 67  1  0  0  0  0
 59 77  1  0  0  0  0
 60 78  1  0  0  0  0
 61 62  1  0  0  0  0
 61 63  1  0  0  0  0
 62 64  1  0  0  0  0
 63 78  1  0  0  0  0
 64 85  1  0  0  0  0
 65 67  1  0  0  0  0
 65 76  1  0  0  0  0
 66 77  1  0  0  0  0
 68 69  1  0  0  0  0
M  CHG  2  77   1  78   1
M  ISO  4  42 100  64 101  74 100  85 101
M  END
> <Batch ID>
0004

> <Smiles>
CNC(C)C(=O)NC(C(=O)N1Cc2cc([101O:1][101CH2:1]CCCNCc3ccc4cc([100NH:0][100C:0](=O)N5CCCC(n6nc(-c7ccc(Oc8ccc(F)cc8F)cc7)c(C(N)=O)c6N)C5)ccc4c3)ccc2CC1C(=O)NC1CCCc2ccccc21)C(C)(C)C

> <Shape>
0.173

> <Color>
0.187

> <Negative vol penalty>
0.000

$$$$

  -OEChem-04042320233D

 87 96  0     1  0  0  0  0  0999 V2000
  -18.2219  -29.1452   26.2025 C   0  0  0  0  0  0  0  0  0  0  0  0
  -19.5963  -28.9768   26.3368 C   0  0  0  0  0  0  0  0  0  0  0  0
  -25.0112   -7.9093   21.3539 C   0  0  0  0  0  0  0  0  0  0  0  0
  -23.9044  -10.0389   21.6318 C   0  0  0  0  0  0  0  0  0  0  0  0
  -17.6095  -28.9153   24.9712 C   0  0  0  0  0  0  0  0  0  0  0  0
  -20.3591  -28.5774   25.2399 C   0  0  0  0  0  0  0  0  0  0  0  0
  -26.8661  -29.4136   22.3631 C   0  0  0  0  0  0  0  0  0  0  0  0
  -27.8157  -18.3148   21.4814 C   0  0  0  0  0  0  0  0  0  0  0  0
  -30.1783  -18.2815   21.9856 C   0  0  0  0  0  0  0  0  0  0  0  0
  -27.9288  -17.0667   20.8690 C   0  0  0  0  0  0  0  0  0  0  0  0
  -30.2914  -17.0333   21.3733 C   0  0  0  0  0  0  0  0  0  0  0  0
  -24.2291   -7.3697   22.3751 C   0  0  0  0  0  0  0  0  0  0  0  0
  -23.1224   -9.4992   22.6529 C   0  0  0  0  0  0  0  0  0  0  0  0
  -27.9363  -28.6601   21.8829 C   0  0  0  0  0  0  0  0  0  0  0  0
  -21.0807   -6.1935   22.7448 C   0  0  0  0  0  0  0  0  0  0  0  0
  -20.5131   -4.9373   22.5318 C   0  0  0  0  0  0  0  0  0  0  0  0
  -26.7818  -28.3685   19.7850 C   0  0  0  0  0  0  0  0  0  0  0  0
  -21.7026   -4.0746   24.4496 C   0  0  0  0  0  0  0  0  0  0  0  0
  -24.8489   -9.2440   20.9823 C   0  0  0  0  0  0  0  0  0  0  0  0
  -25.3598   -9.8275   18.5521 C   0  0  0  0  0  0  0  0  0  0  0  0
  -18.3666  -28.5221   23.8563 C   0  0  0  0  0  0  0  0  0  0  0  0
  -25.7390  -29.6414   21.5604 C   0  0  0  0  0  0  0  0  0  0  0  0
  -19.7561  -28.3407   23.9929 C   0  0  0  0  0  0  0  0  0  0  0  0
  -25.6997  -29.1273   20.2564 C   0  0  0  0  0  0  0  0  0  0  0  0
  -28.9405  -18.9222   22.0397 C   0  0  0  0  0  0  0  0  0  0  0  0
  -29.1666  -16.4259   20.8150 C   0  0  0  0  0  0  0  0  0  0  0  0
  -23.2847   -8.1646   23.0246 C   0  0  0  0  0  0  0  0  0  0  0  0
  -27.8931  -28.1350   20.5947 C   0  0  0  0  0  0  0  0  0  0  0  0
  -21.9592   -6.3903   23.8102 C   0  0  0  0  0  0  0  0  0  0  0  0
  -20.8240   -3.8779   23.3841 C   0  0  0  0  0  0  0  0  0  0  0  0
  -22.2702   -5.3309   24.6626 C   0  0  0  0  0  0  0  0  0  0  0  0
  -25.6568   -9.8022   19.9279 C   0  0  0  0  0  0  0  0  0  0  0  0
  -26.4354  -10.4621   17.9802 C   0  0  0  0  0  0  0  0  0  0  0  0
  -24.2140   -9.3227   17.8534 C   0  0  0  0  0  0  0  0  0  0  0  0
  -22.6516  -28.9152   21.7705 C   0  0  0  0  0  0  0  0  0  0  0  0
  -22.4363  -30.7607   19.1116 C   0  0  0  0  0  0  0  0  0  0  0  0
  -23.9814  -32.0887   16.3737 C   0  0  0  0  0  0  0  0  0  0  0  0
  -30.4354  -14.3869   20.0542 C   0  0  0  0  0  0  0  0  0  0  0  0
  -17.6535  -28.2395   22.5577 C   0  0  0  0  0  0  0  0  0  0  0  0
  -24.6044  -30.4787   22.0837 C   0  0  0  0  0  0  0  0  0  0  0  0
  -24.5216  -29.3603   19.3474 C   0  0  0  0  0  0  0  0  0  0  0  0
  -18.5863  -28.1814   21.3508 C   0  0  0  0  0  0  0  0  0  0  0  0
  -31.1233  -11.2003   18.6226 C   0  0  0  0  0  0  0  0  0  0  0  0
  -19.8127  -27.3304   21.6644 C   0  0  0  0  0  0  0  0  0  0  0  0
  -29.7712  -10.4846   18.6641 C   0  0  0  0  0  0  0  0  0  0  0  0
  -30.8617  -23.4325   22.3894 C   0  0  0  0  0  0  0  0  0  0  0  0
  -28.3344  -23.3619   22.2887 C   0  0  0  0  0  0  0  0  0  0  0  0
  -31.3373  -12.0801   19.8530 C   0  0  0  0  0  0  0  0  0  0  0  0
  -28.9060  -12.3220   20.1682 C   0  0  0  0  0  0  0  0  0  0  0  0
  -30.8960  -23.9104   20.9424 C   0  0  0  0  0  0  0  0  0  0  0  0
  -28.3887  -23.8405   20.8425 C   0  0  0  0  0  0  0  0  0  0  0  0
  -20.6210  -27.9324   22.8201 C   0  0  1  0  0  0  0  0  0  0  0  0
  -23.2856  -30.2152   21.3634 C   0  0  1  0  0  0  0  0  0  0  0  0
  -28.6173  -11.4743   18.9185 C   0  0  2  0  0  0  0  0  0  0  0  0
  -29.6038  -22.6357   22.7304 C   0  0  0  0  0  0  0  0  0  0  0  0
  -23.5375  -33.5253   14.3646 C   0  0  0  0  0  0  0  0  0  0  0  0
  -21.0206  -28.4226   17.7555 C   0  0  0  0  0  0  0  0  0  0  0  0
  -21.4550  -29.5284   15.5517 C   0  0  0  0  0  0  0  0  0  0  0  0
  -20.0370  -30.6676   17.2587 C   0  0  0  0  0  0  0  0  0  0  0  0
  -25.9494  -34.1194   17.2466 C   0  0  0  0  0  0  0  0  0  0  0  0
  -28.8187  -20.2648   22.6983 C   0  0  0  0  0  0  0  0  0  0  0  0
  -29.6684  -25.2782   19.2578 C   0  0  0  0  0  0  0  0  0  0  0  0
  -28.6348  -26.3835   19.1672 C   0  0  0  0  0  0  0  0  0  1  0  0
  -22.5335  -30.5107   17.6260 C   0  0  1  0  0  0  0  0  0  0  0  0
  -24.0003  -33.4993   15.8130 C   0  0  2  0  0  0  0  0  0  0  0  0
  -21.2830  -29.7761   17.0655 C   0  0  0  0  0  0  0  0  0  0  0  0
  -26.8293  -10.3749   20.2129 N   0  0  0  0  0  0  0  0  0  0  0  0
  -27.2786  -10.7660   19.0083 N   0  0  0  0  0  0  0  0  0  0  0  0
  -23.4342  -30.1800   19.9070 N   0  0  0  0  0  0  0  0  0  0  0  0
  -30.2070  -12.9948   20.0283 N   0  0  0  0  0  0  0  0  0  0  0  0
  -26.7327  -10.7840   16.7034 N   0  0  0  0  0  0  0  0  0  0  0  0
  -23.2011   -8.6988   18.5943 N   0  0  0  0  0  0  0  0  0  0  0  0
  -29.2818  -15.1579   20.1933 N   0  0  0  0  0  0  0  0  0  0  0  0
  -21.4077  -29.0549   22.3559 N   0  0  0  0  0  0  0  0  0  0  0  0
  -22.7906  -31.8079   17.0098 N   0  0  0  0  0  0  0  0  0  0  0  0
  -29.6304  -24.6747   20.6350 N   0  3  0  0  0  0  0  0  0  0  0  0
  -29.6676  -21.3043   22.0620 N   0  3  0  0  0  0  0  0  0  0  0  0
  -25.3783  -34.0634   15.8764 N   0  3  0  0  0  0  0  0  0  0  0  0
  -24.0998   -9.4074   16.6071 O   0  0  0  0  0  0  0  0  0  0  0  0
  -23.2463  -27.8632   21.5673 O   0  0  0  0  0  0  0  0  0  0  0  0
  -21.5131  -31.4518   19.5494 O   0  0  0  0  0  0  0  0  0  0  0  0
  -24.9268  -31.3123   16.2558 O   0  0  0  0  0  0  0  0  0  0  0  0
  -31.5677  -14.8611   19.9325 O   0  0  0  0  0  0  0  0  0  0  0  0
  -22.5213   -7.6382   24.0209 O   0  0  0  0  0  0  0  0  0  0  0  0
  -28.9361  -27.3987   20.1237 O   0  0  0  0  0  0  0  0  0  1  0  0
  -20.2778   -2.6720   23.1803 F   0  0  0  0  0  0  0  0  0  0  0  0
  -23.1126   -5.5141   25.6886 F   0  0  0  0  0  0  0  0  0  0  0  0
  1  2  1  0  0  0  0
  1  5  2  0  0  0  0
  2  6  2  0  0  0  0
  3 12  2  0  0  0  0
  3 19  1  0  0  0  0
  4 13  1  0  0  0  0
  4 19  2  0  0  0  0
  5 21  1  0  0  0  0
  6 23  1  0  0  0  0
  7 14  2  0  0  0  0
  7 22  1  0  0  0  0
  8 10  2  0  0  0  0
  8 25  1  0  0  0  0
  9 11  1  0  0  0  0
  9 25  2  0  0  0  0
 10 26  1  0  0  0  0
 11 26  2  0  0  0  0
 12 27  1  0  0  0  0
 13 27  2  0  0  0  0
 14 28  1  0  0  0  0
 15 16  2  0  0  0  0
 15 29  1  0  0  0  0
 16 30  1  0  0  0  0
 17 24  1  0  0  0  0
 17 28  2  0  0  0  0
 18 30  2  0  0  0  0
 18 31  1  0  0  0  0
 19 32  1  0  0  0  0
 20 32  1  0  0  0  0
 20 33  2  0  0  0  0
 20 34  1  0  0  0  0
 21 23  2  0  0  0  0
 21 39  1  0  0  0  0
 22 24  2  0  0  0  0
 22 40  1  0  0  0  0
 23 52  1  0  0  0  0
 24 41  1  0  0  0  0
 25 61  1  0  0  0  0
 26 73  1  0  0  0  0
 27 84  1  0  0  0  0
 28 85  1  0  0  0  0
 29 31  2  0  0  0  0
 29 84  1  0  0  0  0
 30 86  1  0  0  0  0
 31 87  1  0  0  0  0
 32 67  2  0  0  0  0
 33 68  1  0  0  0  0
 33 71  1  0  0  0  0
 34 72  1  0  0  0  0
 34 79  2  0  0  0  0
 35 53  1  0  0  0  0
 35 74  1  0  0  0  0
 35 80  2  0  0  0  0
 36 64  1  0  0  0  0
 36 69  1  0  0  0  0
 36 81  2  0  0  0  0
 37 65  1  0  0  0  0
 37 75  1  0  0  0  0
 37 82  2  0  0  0  0
 38 70  1  0  0  0  0
 38 73  1  0  0  0  0
 38 83  2  0  0  0  0
 39 42  1  0  0  0  0
 40 53  1  0  0  0  0
 41 69  1  0  0  0  0
 42 44  1  0  0  0  0
 43 45  1  0  0  0  0
 43 48  1  0  0  0  0
 44 52  1  0  0  0  0
 45 54  1  0  0  0  0
 46 50  1  0  0  0  0
 46 55  1  0  0  0  0
 47 51  1  0  0  0  0
 47 55  1  0  0  0  0
 48 70  1  0  0  0  0
 49 54  1  0  0  0  0
 49 70  1  0  0  0  0
 50 76  1  0  0  0  0
 51 76  1  0  0  0  0
 52 74  1  0  0  0  0
 53 69  1  0  0  0  0
 54 68  1  0  0  0  0
 55 77  1  0  0  0  0
 56 65  1  0  0  0  0
 57 66  1  0  0  0  0
 58 66  1  0  0  0  0
 59 66  1  0  0  0  0
 60 78  1  0  0  0  0
 61 77  1  0  0  0  0
 62 63  1  0  0  0  0
 62 76  1  0  0  0  0
 63 85  1  0  0  0  0
 64 66  1  0  0  0  0
 64 75  1  0  0  0  0
 65 78  1  0  0  0  0
 67 68  1  0  0  0  0
M  CHG  3  76   1  77   1  78   1
M  ISO  4  38 100  63 101  73 100  85 101
M  END
> <Batch ID>
0004

> <Smiles>
CNC(C)C(=O)NC(C(=O)N1Cc2cc([101O:1][101CH2:1]CN3CCC(NCc4ccc([100NH:0][100C:0](=O)N5CCCC(n6nc(-c7ccc(Oc8ccc(F)cc8F)cc7)c(C(N)=O)c6N)C5)cc4)CC3)ccc2CC1C(=O)NC1CCCc2ccccc21)C(C)(C)C

> <Shape>
0.279

> <Color>
0.101

> <Negative vol penalty>
0.000

$$$$

  -OEChem-04042320233D

 84 93  0     1  0  0  0  0  0999 V2000
  -27.3134  -34.6355   25.2623 C   0  0  0  0  0  0  0  0  0  0  0  0
  -27.6151  -33.3690   24.7722 C   0  0  0  0  0  0  0  0  0  0  0  0
  -23.0349  -13.5169   24.6306 C   0  0  0  0  0  0  0  0  0  0  0  0
  -23.2278  -15.6818   23.5755 C   0  0  0  0  0  0  0  0  0  0  0  0
  -25.9945  -34.9668   25.5698 C   0  0  0  0  0  0  0  0  0  0  0  0
  -26.5981  -32.4325   24.5903 C   0  0  0  0  0  0  0  0  0  0  0  0
  -26.9620  -30.0049   20.1609 C   0  0  0  0  0  0  0  0  0  0  0  0
  -30.2948  -20.2808   18.1026 C   0  0  0  0  0  0  0  0  0  0  0  0
  -27.9947  -20.0652   17.3956 C   0  0  0  0  0  0  0  0  0  0  0  0
  -30.2251  -19.0278   18.7115 C   0  0  0  0  0  0  0  0  0  0  0  0
  -27.9250  -18.8122   18.0044 C   0  0  0  0  0  0  0  0  0  0  0  0
  -22.1310  -14.0463   25.5516 C   0  0  0  0  0  0  0  0  0  0  0  0
  -22.3239  -16.2112   24.4965 C   0  0  0  0  0  0  0  0  0  0  0  0
  -27.9078  -28.9846   20.0699 C   0  0  0  0  0  0  0  0  0  0  0  0
  -18.9772  -16.2404   24.9649 C   0  0  0  0  0  0  0  0  0  0  0  0
  -17.9655  -17.0669   24.4761 C   0  0  0  0  0  0  0  0  0  0  0  0
  -26.1663  -27.3488   20.4021 C   0  0  0  0  0  0  0  0  0  0  0  0
  -18.7773  -18.8765   25.8557 C   0  0  0  0  0  0  0  0  0  0  0  0
  -23.5834  -14.3347   23.6426 C   0  0  0  0  0  0  0  0  0  0  0  0
  -24.2884  -12.7395   21.7809 C   0  0  0  0  0  0  0  0  0  0  0  0
  -24.9594  -34.0372   25.3825 C   0  0  0  0  0  0  0  0  0  0  0  0
  -25.6105  -29.7047   20.3846 C   0  0  0  0  0  0  0  0  0  0  0  0
  -25.2642  -32.7512   24.8968 C   0  0  0  0  0  0  0  0  0  0  0  0
  -25.2049  -28.3669   20.4931 C   0  0  0  0  0  0  0  0  0  0  0  0
  -29.1796  -20.7995   17.4447 C   0  0  0  0  0  0  0  0  0  0  0  0
  -29.0402  -18.2935   18.6624 C   0  0  0  0  0  0  0  0  0  0  0  0
  -21.7754  -15.3934   25.4846 C   0  0  0  0  0  0  0  0  0  0  0  0
  -27.5105  -27.6565   20.1934 C   0  0  0  0  0  0  0  0  0  0  0  0
  -19.8889  -16.7319   25.8992 C   0  0  0  0  0  0  0  0  0  0  0  0
  -17.8656  -18.3850   24.9215 C   0  0  0  0  0  0  0  0  0  0  0  0
  -19.7890  -18.0500   26.3446 C   0  0  0  0  0  0  0  0  0  0  0  0
  -24.5176  -13.7886   22.6912 C   0  0  0  0  0  0  0  0  0  0  0  0
  -25.4783  -12.6021   21.1087 C   0  0  0  0  0  0  0  0  0  0  0  0
  -23.1057  -11.9590   21.5624 C   0  0  0  0  0  0  0  0  0  0  0  0
  -23.5180  -30.3608   22.6856 C   0  0  0  0  0  0  0  0  0  0  0  0
  -21.4269  -28.9410   20.6524 C   0  0  0  0  0  0  0  0  0  0  0  0
  -21.4065  -26.0546   18.4877 C   0  0  0  0  0  0  0  0  0  0  0  0
  -29.9831  -16.3602   19.9738 C   0  0  0  0  0  0  0  0  0  0  0  0
  -23.5555  -34.4253   25.7736 C   0  0  0  0  0  0  0  0  0  0  0  0
  -24.5987  -30.8155   20.4537 C   0  0  0  0  0  0  0  0  0  0  0  0
  -23.7633  -27.9907   20.7135 C   0  0  0  0  0  0  0  0  0  0  0  0
  -22.4854  -33.5009   25.1986 C   0  0  0  0  0  0  0  0  0  0  0  0
  -30.1916  -13.2369   21.6704 C   0  0  0  0  0  0  0  0  0  0  0  0
  -22.8787  -32.0405   25.3970 C   0  0  0  0  0  0  0  0  0  0  0  0
  -28.7387  -12.9255   22.0365 C   0  0  0  0  0  0  0  0  0  0  0  0
  -29.4602  -25.7198   18.1349 C   0  0  0  0  0  0  0  0  0  0  0  0
  -28.0664  -24.3248   19.6983 C   0  0  0  0  0  0  0  0  0  0  0  0
  -30.4960  -14.7300   21.7778 C   0  0  0  0  0  0  0  0  0  0  0  0
  -28.1277  -15.2939   21.4007 C   0  0  0  0  0  0  0  0  0  0  0  0
  -29.3823  -24.6196   17.0882 C   0  0  0  0  0  0  0  0  0  0  0  0
  -27.9908  -23.2276   18.6482 C   0  0  0  0  0  0  0  0  0  0  0  0
  -24.1852  -31.7163   24.6625 C   0  0  1  0  0  0  0  0  0  0  0  0
  -23.3264  -30.4194   21.1964 C   0  0  1  0  0  0  0  0  0  0  0  0
  -27.7559  -13.8103   21.2447 C   0  0  2  0  0  0  0  0  0  0  0  0
  -28.2526  -25.7013   19.0681 C   0  0  0  0  0  0  0  0  0  1  0  0
  -20.1015  -25.5945   16.3942 C   0  0  0  0  0  0  0  0  0  0  0  0
  -19.4471  -27.5782   22.5321 C   0  0  0  0  0  0  0  0  0  0  0  0
  -19.1036  -25.8201   20.7830 C   0  0  0  0  0  0  0  0  0  0  0  0
  -18.5092  -28.1935   20.2968 C   0  0  0  0  0  0  0  0  0  0  0  0
  -23.8661  -25.5019   16.9373 C   0  0  0  0  0  0  0  0  0  0  0  0
  -29.2546  -22.1473   16.7898 C   0  0  0  0  0  0  0  0  0  0  0  0
  -20.9447  -27.5280   20.4295 C   0  0  1  0  0  0  0  0  0  0  0  0
  -21.4310  -26.0568   16.9699 C   0  0  2  0  0  0  0  0  0  0  0  0
  -19.5272  -27.2854   21.0205 C   0  0  0  0  0  0  0  0  0  0  0  0
  -25.7557  -14.2825   22.6076 N   0  0  0  0  0  0  0  0  0  0  0  0
  -26.3153  -13.5405   21.6369 N   0  0  0  0  0  0  0  0  0  0  0  0
  -22.8125  -29.1128   20.7803 N   0  0  0  0  0  0  0  0  0  0  0  0
  -29.5274  -15.5050   20.9993 N   0  0  0  0  0  0  0  0  0  0  0  0
  -25.8797  -11.7714   20.1233 N   0  0  0  0  0  0  0  0  0  0  0  0
  -21.9720  -12.2318   22.3400 N   0  0  0  0  0  0  0  0  0  0  0  0
  -28.9692  -17.0204   19.2805 N   0  0  0  0  0  0  0  0  0  0  0  0
  -23.9409  -31.5512   23.2456 N   0  0  0  0  0  0  0  0  0  0  0  0
  -21.0434  -27.2845   18.9944 N   0  0  0  0  0  0  0  0  0  0  0  0
  -29.2220  -23.2836   17.7746 N   0  3  0  0  0  0  0  0  0  0  0  0
  -22.5014  -25.1496   16.4678 N   0  3  0  0  0  0  0  0  0  0  0  0
  -23.0609  -11.0357   20.7144 O   0  0  0  0  0  0  0  0  0  0  0  0
  -23.2971  -29.3136   23.2824 O   0  0  0  0  0  0  0  0  0  0  0  0
  -20.6051  -29.8595   20.7037 O   0  0  0  0  0  0  0  0  0  0  0  0
  -21.6783  -25.0602   19.1569 O   0  0  0  0  0  0  0  0  0  0  0  0
  -31.1829  -16.4761   19.7107 O   0  0  0  0  0  0  0  0  0  0  0  0
  -20.8932  -15.9103   26.3830 O   0  0  0  0  0  0  0  0  0  0  0  0
  -28.4317  -26.6587   20.1055 O   0  0  0  0  0  0  0  0  0  1  0  0
  -16.8949  -19.1790   24.4508 F   0  0  0  0  0  0  0  0  0  0  0  0
  -20.6627  -18.5282   27.2411 F   0  0  0  0  0  0  0  0  0  0  0  0
  1  2  1  0  0  0  0
  1  5  2  0  0  0  0
  2  6  2  0  0  0  0
  3 12  2  0  0  0  0
  3 19  1  0  0  0  0
  4 13  1  0  0  0  0
  4 19  2  0  0  0  0
  5 21  1  0  0  0  0
  6 23  1  0  0  0  0
  7 14  2  0  0  0  0
  7 22  1  0  0  0  0
  8 10  2  0  0  0  0
  8 25  1  0  0  0  0
  9 11  1  0  0  0  0
  9 25  2  0  0  0  0
 10 26  1  0  0  0  0
 11 26  2  0  0  0  0
 12 27  1  0  0  0  0
 13 27  2  0  0  0  0
 14 28  1  0  0  0  0
 15 16  2  0  0  0  0
 15 29  1  0  0  0  0
 16 30  1  0  0  0  0
 17 24  1  0  0  0  0
 17 28  2  0  0  0  0
 18 30  2  0  0  0  0
 18 31  1  0  0  0  0
 19 32  1  0  0  0  0
 20 32  1  0  0  0  0
 20 33  2  0  0  0  0
 20 34  1  0  0  0  0
 21 23  2  0  0  0  0
 21 39  1  0  0  0  0
 22 24  2  0  0  0  0
 22 40  1  0  0  0  0
 23 52  1  0  0  0  0
 24 41  1  0  0  0  0
 25 61  1  0  0  0  0
 26 71  1  0  0  0  0
 27 81  1  0  0  0  0
 28 82  1  0  0  0  0
 29 31  2  0  0  0  0
 29 81  1  0  0  0  0
 30 83  1  0  0  0  0
 31 84  1  0  0  0  0
 32 65  2  0  0  0  0
 33 66  1  0  0  0  0
 33 69  1  0  0  0  0
 34 70  1  0  0  0  0
 34 76  2  0  0  0  0
 35 53  1  0  0  0  0
 35 72  1  0  0  0  0
 35 77  2  0  0  0  0
 36 62  1  0  0  0  0
 36 67  1  0  0  0  0
 36 78  2  0  0  0  0
 37 63  1  0  0  0  0
 37 73  1  0  0  0  0
 37 79  2  0  0  0  0
 38 68  1  0  0  0  0
 38 71  1  0  0  0  0
 38 80  2  0  0  0  0
 39 42  1  0  0  0  0
 40 53  1  0  0  0  0
 41 67  1  0  0  0  0
 42 44  1  0  0  0  0
 43 45  1  0  0  0  0
 43 48  1  0  0  0  0
 44 52  1  0  0  0  0
 45 54  1  0  0  0  0
 46 50  1  0  0  0  0
 46 55  1  0  0  0  0
 47 51  1  0  0  0  0
 47 55  1  0  0  0  0
 48 68  1  0  0  0  0
 49 54  1  0  0  0  0
 49 68  1  0  0  0  0
 50 74  1  0  0  0  0
 51 74  1  0  0  0  0
 52 72  1  0  0  0  0
 53 67  1  0  0  0  0
 54 66  1  0  0  0  0
 55 82  1  0  0  0  0
 56 63  1  0  0  0  0
 57 64  1  0  0  0  0
 58 64  1  0  0  0  0
 59 64  1  0  0  0  0
 60 75  1  0  0  0  0
 61 74  1  0  0  0  0
 62 64  1  0  0  0  0
 62 73  1  0  0  0  0
 63 75  1  0  0  0  0
 65 66  1  0  0  0  0
M  CHG  2  74   1  75   1
M  ISO  4  38 100  55 101  71 100  82 101
M  END
> <Batch ID>
0004

> <Smiles>
CNC(C)C(=O)NC(C(=O)N1Cc2cc([101O:1][101CH:1]3CCN(Cc4ccc([100NH:0][100C:0](=O)N5CCCC(n6nc(-c7ccc(Oc8ccc(F)cc8F)cc7)c(C(N)=O)c6N)C5)cc4)CC3)ccc2CC1C(=O)NC1CCCc2ccccc21)C(C)(C)C

> <Shape>
0.254

> <Color>
0.085

> <Negative vol penalty>
0.000

$$$$

  -OEChem-04042320233D

 87 96  0     1  0  0  0  0  0999 V2000
  -19.4262  -31.1368   24.9437 C   0  0  0  0  0  0  0  0  0  0  0  0
  -20.7612  -30.8293   24.7019 C   0  0  0  0  0  0  0  0  0  0  0  0
  -22.7265  -10.6228   19.6527 C   0  0  0  0  0  0  0  0  0  0  0  0
  -21.4809  -11.2038   21.6397 C   0  0  0  0  0  0  0  0  0  0  0  0
  -18.4197  -30.3209   24.4287 C   0  0  0  0  0  0  0  0  0  0  0  0
  -21.0906  -29.7050   23.9457 C   0  0  0  0  0  0  0  0  0  0  0  0
  -27.8631  -20.6808   19.9498 C   0  0  0  0  0  0  0  0  0  0  0  0
  -26.4457  -22.6371   19.9816 C   0  0  0  0  0  0  0  0  0  0  0  0
  -25.8132  -29.1150   20.0915 C   0  0  0  0  0  0  0  0  0  0  0  0
  -27.0375  -20.0982   18.9883 C   0  0  0  0  0  0  0  0  0  0  0  0
  -25.6201  -22.0545   19.0201 C   0  0  0  0  0  0  0  0  0  0  0  0
  -22.1239   -9.3649   19.6428 C   0  0  0  0  0  0  0  0  0  0  0  0
  -20.8783   -9.9459   21.6297 C   0  0  0  0  0  0  0  0  0  0  0  0
  -27.0736  -28.5363   20.2340 C   0  0  0  0  0  0  0  0  0  0  0  0
  -22.4762   -6.4218   21.2672 C   0  0  0  0  0  0  0  0  0  0  0  0
  -23.2935   -5.3142   21.0421 C   0  0  0  0  0  0  0  0  0  0  0  0
  -26.2443  -26.4999   19.2418 C   0  0  0  0  0  0  0  0  0  0  0  0
  -22.0018   -4.7604   19.0770 C   0  0  0  0  0  0  0  0  0  0  0  0
  -22.4051  -11.5423   20.6512 C   0  0  0  0  0  0  0  0  0  0  0  0
  -24.4032  -13.1244   20.7605 C   0  0  0  0  0  0  0  0  0  0  0  0
  -27.5672  -21.9502   20.4465 C   0  0  0  0  0  0  0  0  0  0  0  0
  -18.7367  -29.1914   23.6577 C   0  0  0  0  0  0  0  0  0  0  0  0
  -24.7543  -28.3855   19.5321 C   0  0  0  0  0  0  0  0  0  0  0  0
  -20.0875  -28.8724   23.4210 C   0  0  0  0  0  0  0  0  0  0  0  0
  -24.9721  -27.0725   19.0909 C   0  0  0  0  0  0  0  0  0  0  0  0
  -25.9160  -20.7851   18.5234 C   0  0  0  0  0  0  0  0  0  0  0  0
  -21.1998   -9.0264   20.6312 C   0  0  0  0  0  0  0  0  0  0  0  0
  -27.2886  -27.2277   19.8118 C   0  0  0  0  0  0  0  0  0  0  0  0
  -21.4215   -6.6987   20.3973 C   0  0  0  0  0  0  0  0  0  0  0  0
  -23.0564   -4.4835   19.9470 C   0  0  0  0  0  0  0  0  0  0  0  0
  -21.1844   -5.8680   19.3021 C   0  0  0  0  0  0  0  0  0  0  0  0
  -23.0277  -12.8416   20.6624 C   0  0  0  0  0  0  0  0  0  0  0  0
  -24.4752  -14.4955   20.7270 C   0  0  0  0  0  0  0  0  0  0  0  0
  -29.1762  -23.8350   20.9593 C   0  0  0  0  0  0  0  0  0  0  0  0
  -25.5164  -12.2277   20.8720 C   0  0  0  0  0  0  0  0  0  0  0  0
  -21.9163  -27.3983   20.5687 C   0  0  0  0  0  0  0  0  0  0  0  0
  -21.5560  -26.4491   17.4879 C   0  0  0  0  0  0  0  0  0  0  0  0
  -23.0265  -25.5276   14.5493 C   0  0  0  0  0  0  0  0  0  0  0  0
  -22.9263  -19.3986   18.5576 C   0  0  0  0  0  0  0  0  0  0  0  0
  -17.6155  -28.3129   23.1619 C   0  0  0  0  0  0  0  0  0  0  0  0
  -23.4076  -29.0331   19.3607 C   0  0  0  0  0  0  0  0  0  0  0  0
  -23.8737  -26.2536   18.4653 C   0  0  0  0  0  0  0  0  0  0  0  0
  -18.0397  -27.3502   22.0558 C   0  0  0  0  0  0  0  0  0  0  0  0
  -28.5991  -23.4818   23.8072 C   0  0  0  0  0  0  0  0  0  0  0  0
  -20.8372  -17.9927   21.0746 C   0  0  0  0  0  0  0  0  0  0  0  0
  -27.6934  -22.8130   22.7929 C   0  0  0  0  0  0  0  0  0  0  0  0
  -19.3483  -26.6580   22.4233 C   0  0  0  0  0  0  0  0  0  0  0  0
  -21.3301  -16.5497   21.1951 C   0  0  0  0  0  0  0  0  0  0  0  0
  -29.0354  -24.8320   23.2744 C   0  0  0  0  0  0  0  0  0  0  0  0
  -20.8880  -18.4878   19.6309 C   0  0  0  0  0  0  0  0  0  0  0  0
  -22.6919  -16.8974   19.0920 C   0  0  0  0  0  0  0  0  0  0  0  0
  -28.4665  -22.5858   21.4943 C   0  0  1  0  0  0  0  0  0  0  0  0
  -20.4843  -27.6754   22.5845 C   0  0  1  0  0  0  0  0  0  0  0  0
  -22.2691  -28.0238   19.2489 C   0  0  1  0  0  0  0  0  0  0  0  0
  -22.7120  -16.3724   20.5378 C   0  0  2  0  0  0  0  0  0  0  0  0
  -22.4726  -24.7717   12.2214 C   0  0  0  0  0  0  0  0  0  0  0  0
  -20.8732  -23.6730   18.5543 C   0  0  0  0  0  0  0  0  0  0  0  0
  -21.2659  -22.7687   16.2529 C   0  0  0  0  0  0  0  0  0  0  0  0
  -19.4513  -24.4353   16.6434 C   0  0  0  0  0  0  0  0  0  0  0  0
  -24.3653  -27.8756   13.3438 C   0  0  0  0  0  0  0  0  0  0  0  0
  -25.0346  -20.1622   17.4940 C   0  0  0  0  0  0  0  0  0  0  0  0
  -30.2584  -25.9917   21.4682 C   0  0  0  0  0  0  0  0  0  0  0  0
  -29.3197  -27.1067   21.0430 C   0  0  0  0  0  0  0  0  0  1  0  0
  -21.8633  -25.1897   16.7143 C   0  0  1  0  0  0  0  0  0  0  0  0
  -22.7749  -25.9631   13.1170 C   0  0  2  0  0  0  0  0  0  0  0  0
  -20.8838  -24.0311   17.0548 C   0  0  0  0  0  0  0  0  0  0  0  0
  -22.2796  -13.9446   20.5733 N   0  0  0  0  0  0  0  0  0  0  0  0
  -23.1884  -14.9337   20.6155 N   0  0  0  0  0  0  0  0  0  0  0  0
  -29.5300  -24.8050   21.8987 N   0  0  0  0  0  0  0  0  0  0  0  0
  -22.5730  -26.9290   18.3252 N   0  0  0  0  0  0  0  0  0  0  0  0
  -22.2257  -18.2927   19.0666 N   0  0  0  0  0  0  0  0  0  0  0  0
  -25.5130  -15.3571   20.7824 N   0  0  0  0  0  0  0  0  0  0  0  0
  -25.9404  -11.8448   22.1518 N   0  0  0  0  0  0  0  0  0  0  0  0
  -20.9692  -28.1009   21.2891 N   0  0  0  0  0  0  0  0  0  0  0  0
  -21.8742  -25.5684   15.3055 N   0  0  0  0  0  0  0  0  0  0  0  0
  -24.1899  -19.1272   18.0471 N   0  0  0  0  0  0  0  0  0  0  0  0
  -23.9692  -26.6691   12.5729 N   0  3  0  0  0  0  0  0  0  0  0  0
  -29.4780  -23.9089   19.7639 O   0  0  0  0  0  0  0  0  0  0  0  0
  -26.1278  -11.7922   19.8669 O   0  0  0  0  0  0  0  0  0  0  0  0
  -22.4617  -26.3546   20.9077 O   0  0  0  0  0  0  0  0  0  0  0  0
  -20.4567  -26.9911   17.3488 O   0  0  0  0  0  0  0  0  0  0  0  0
  -24.1337  -25.1820   14.9557 O   0  0  0  0  0  0  0  0  0  0  0  0
  -22.4625  -20.5440   18.5628 O   0  0  0  0  0  0  0  0  0  0  0  0
  -20.6114   -7.7991   20.6217 O   0  0  0  0  0  0  0  0  0  0  0  0
  -28.5177  -26.6603   19.9504 O   0  0  0  0  0  0  0  0  0  1  0  0
  -23.8424   -3.4208   19.7300 F   0  0  0  0  0  0  0  0  0  0  0  0
  -20.1734   -6.1295   18.4622 F   0  0  0  0  0  0  0  0  0  0  0  0
  1  2  1  0  0  0  0
  1  5  2  0  0  0  0
  2  6  2  0  0  0  0
  3 12  2  0  0  0  0
  3 19  1  0  0  0  0
  4 13  1  0  0  0  0
  4 19  2  0  0  0  0
  5 22  1  0  0  0  0
  6 24  1  0  0  0  0
  7 10  2  0  0  0  0
  7 21  1  0  0  0  0
  8 11  1  0  0  0  0
  8 21  2  0  0  0  0
  9 14  2  0  0  0  0
  9 23  1  0  0  0  0
 10 26  1  0  0  0  0
 11 26  2  0  0  0  0
 12 27  1  0  0  0  0
 13 27  2  0  0  0  0
 14 28  1  0  0  0  0
 15 16  2  0  0  0  0
 15 29  1  0  0  0  0
 16 30  1  0  0  0  0
 17 25  1  0  0  0  0
 17 28  2  0  0  0  0
 18 30  2  0  0  0  0
 18 31  1  0  0  0  0
 19 32  1  0  0  0  0
 20 32  1  0  0  0  0
 20 33  2  0  0  0  0
 20 35  1  0  0  0  0
 21 52  1  0  0  0  0
 22 24  2  0  0  0  0
 22 40  1  0  0  0  0
 23 25  2  0  0  0  0
 23 41  1  0  0  0  0
 24 53  1  0  0  0  0
 25 42  1  0  0  0  0
 26 61  1  0  0  0  0
 27 84  1  0  0  0  0
 28 85  1  0  0  0  0
 29 31  2  0  0  0  0
 29 84  1  0  0  0  0
 30 86  1  0  0  0  0
 31 87  1  0  0  0  0
 32 67  2  0  0  0  0
 33 68  1  0  0  0  0
 33 72  1  0  0  0  0
 34 52  1  0  0  0  0
 34 69  1  0  0  0  0
 34 78  2  0  0  0  0
 35 73  1  0  0  0  0
 35 79  2  0  0  0  0
 36 54  1  0  0  0  0
 36 74  1  0  0  0  0
 36 80  2  0  0  0  0
 37 64  1  0  0  0  0
 37 70  1  0  0  0  0
 37 81  2  0  0  0  0
 38 65  1  0  0  0  0
 38 75  1  0  0  0  0
 38 82  2  0  0  0  0
 39 71  1  0  0  0  0
 39 76  1  0  0  0  0
 39 83  2  0  0  0  0
 40 43  1  0  0  0  0
 41 54  1  0  0  0  0
 42 70  1  0  0  0  0
 43 47  1  0  0  0  0
 44 46  1  0  0  0  0
 44 49  1  0  0  0  0
 45 48  1  0  0  0  0
 45 50  1  0  0  0  0
 46 52  1  0  0  0  0
 47 53  1  0  0  0  0
 48 55  1  0  0  0  0
 49 69  1  0  0  0  0
 50 71  1  0  0  0  0
 51 55  1  0  0  0  0
 51 71  1  0  0  0  0
 53 74  1  0  0  0  0
 54 70  1  0  0  0  0
 55 68  1  0  0  0  0
 56 65  1  0  0  0  0
 57 66  1  0  0  0  0
 58 66  1  0  0  0  0
 59 66  1  0  0  0  0
 60 77  1  0  0  0  0
 61 76  1  0  0  0  0
 62 63  1  0  0  0  0
 62 69  1  0  0  0  0
 63 85  1  0  0  0  0
 64 66  1  0  0  0  0
 64 75  1  0  0  0  0
 65 77  1  0  0  0  0
 67 68  1  0  0  0  0
M  CHG  1  77   1
M  ISO  4  39 100  63 101  76 100  85 101
M  END
> <Batch ID>
0004

> <Smiles>
CNC(C)C(=O)NC(C(=O)N1Cc2cc([101O:1][101CH2:1]CN3CCCC(c4ccc(C[100NH:0][100C:0](=O)N5CCCC(n6nc(-c7ccc(Oc8ccc(F)cc8F)cc7)c(C(N)=O)c6N)C5)cc4)C3=O)ccc2CC1C(=O)NC1CCCc2ccccc21)C(C)(C)C

> <Shape>
0.219

> <Color>
0.112

> <Negative vol penalty>
0.000

$$$$

  -OEChem-04042320233D

 82 90  0     1  0  0  0  0  0999 V2000
  -19.3703  -31.5287   21.8495 C   0  0  0  0  0  0  0  0  0  0  0  0
  -20.7157  -31.2131   22.0094 C   0  0  0  0  0  0  0  0  0  0  0  0
  -29.2589  -24.5030   16.9305 C   0  0  0  0  0  0  0  0  0  0  0  0
  -26.3242  -13.8440   21.7548 C   0  0  0  0  0  0  0  0  0  0  0  0
  -25.2435  -15.1961   20.0693 C   0  0  0  0  0  0  0  0  0  0  0  0
  -18.4016  -30.5349   21.9834 C   0  0  0  0  0  0  0  0  0  0  0  0
  -21.0932  -29.9036   22.3045 C   0  0  0  0  0  0  0  0  0  0  0  0
  -25.0379  -28.3481   19.5360 C   0  0  0  0  0  0  0  0  0  0  0  0
  -29.9490  -23.4961   17.6055 C   0  0  0  0  0  0  0  0  0  0  0  0
  -29.4819  -25.8407   17.2566 C   0  0  0  0  0  0  0  0  0  0  0  0
  -25.1882  -13.0389   21.8374 C   0  0  0  0  0  0  0  0  0  0  0  0
  -24.1074  -14.3910   20.1519 C   0  0  0  0  0  0  0  0  0  0  0  0
  -26.3017  -28.7918   19.9227 C   0  0  0  0  0  0  0  0  0  0  0  0
  -22.7075  -10.4110   22.2319 C   0  0  0  0  0  0  0  0  0  0  0  0
  -22.8927   -9.0287   22.2575 C   0  0  0  0  0  0  0  0  0  0  0  0
  -26.7046  -26.6771   21.0111 C   0  0  0  0  0  0  0  0  0  0  0  0
  -31.0849  -25.1648   18.9331 C   0  0  0  0  0  0  0  0  0  0  0  0
  -23.9732   -9.1334   20.0991 C   0  0  0  0  0  0  0  0  0  0  0  0
  -26.3519  -14.9226   20.8708 C   0  0  0  0  0  0  0  0  0  0  0  0
  -28.6321  -15.5789   19.9340 C   0  0  0  0  0  0  0  0  0  0  0  0
  -18.7680  -29.2106   22.2708 C   0  0  0  0  0  0  0  0  0  0  0  0
  -24.5929  -27.0673   19.8938 C   0  0  0  0  0  0  0  0  0  0  0  0
  -20.1284  -28.8914   22.4438 C   0  0  0  0  0  0  0  0  0  0  0  0
  -25.4357  -26.2185   20.6255 C   0  0  0  0  0  0  0  0  0  0  0  0
  -30.8619  -23.8270   18.6068 C   0  0  0  0  0  0  0  0  0  0  0  0
  -24.0798  -13.3123   21.0360 C   0  0  0  0  0  0  0  0  0  0  0  0
  -27.1342  -27.9574   20.6629 C   0  0  0  0  0  0  0  0  0  0  0  0
  -30.3949  -26.1716   18.2579 C   0  0  0  0  0  0  0  0  0  0  0  0
  -23.1551  -11.1545   21.1398 C   0  0  0  0  0  0  0  0  0  0  0  0
  -23.5256   -8.3899   21.1912 C   0  0  0  0  0  0  0  0  0  0  0  0
  -23.7879  -10.5157   20.0734 C   0  0  0  0  0  0  0  0  0  0  0  0
  -27.5249  -15.7550   20.7854 C   0  0  0  0  0  0  0  0  0  0  0  0
  -29.4679  -16.6259   20.2367 C   0  0  0  0  0  0  0  0  0  0  0  0
  -28.8825  -14.5601   18.9567 C   0  0  0  0  0  0  0  0  0  0  0  0
  -22.1939  -25.9338   21.6441 C   0  0  0  0  0  0  0  0  0  0  0  0
  -23.2612  -23.0729   20.5494 C   0  0  0  0  0  0  0  0  0  0  0  0
  -25.8478  -21.2320   19.2974 C   0  0  0  0  0  0  0  0  0  0  0  0
  -30.2942  -22.0386   21.3162 C   0  0  0  0  0  0  0  0  0  0  0  0
  -17.6820  -28.1801   22.4530 C   0  0  0  0  0  0  0  0  0  0  0  0
  -23.2374  -26.5937   19.4460 C   0  0  0  0  0  0  0  0  0  0  0  0
  -25.0133  -24.8270   21.0176 C   0  0  0  0  0  0  0  0  0  0  0  0
  -18.1911  -26.7421   22.3964 C   0  0  0  0  0  0  0  0  0  0  0  0
  -29.3259  -19.9589   24.0390 C   0  0  0  0  0  0  0  0  0  0  0  0
  -19.4430  -26.5849   23.2537 C   0  0  0  0  0  0  0  0  0  0  0  0
  -28.8568  -18.6684   23.3648 C   0  0  0  0  0  0  0  0  0  0  0  0
  -28.9529  -21.1919   23.2190 C   0  0  0  0  0  0  0  0  0  0  0  0
  -28.9309  -19.8691   21.1396 C   0  0  0  0  0  0  0  0  0  0  0  0
  -20.5791  -27.4774   22.7399 C   0  0  1  0  0  0  0  0  0  0  0  0
  -22.6863  -25.4603   20.3058 C   0  0  1  0  0  0  0  0  0  0  0  0
  -29.3333  -18.5949   21.9017 C   0  0  2  0  0  0  0  0  0  0  0  0
  -26.4269  -18.9125   18.5346 C   0  0  0  0  0  0  0  0  0  0  0  0
  -23.4044  -22.1554   23.4558 C   0  0  0  0  0  0  0  0  0  0  0  0
  -24.8476  -20.2502   22.7105 C   0  0  0  0  0  0  0  0  0  0  0  0
  -22.5088  -20.4460   21.8652 C   0  0  0  0  0  0  0  0  0  0  0  0
  -26.4817  -22.1651   16.5612 C   0  0  0  0  0  0  0  0  0  0  0  0
  -31.5992  -22.7504   19.3289 C   0  0  0  0  0  0  0  0  0  0  0  0
  -30.5278  -29.1670   20.3003 C   0  0  0  0  0  0  0  0  0  0  0  0
  -29.0198  -29.3262   20.1867 C   0  0  0  0  0  0  0  0  0  1  0  0
  -30.9821  -27.7660   19.9219 C   0  0  0  0  0  0  0  0  0  0  0  0
  -24.2691  -22.0547   21.0252 C   0  0  1  0  0  0  0  0  0  0  0  0
  -25.9305  -20.2867   18.1125 C   0  0  2  0  0  0  0  0  0  0  0  0
  -23.7650  -21.2535   22.2586 C   0  0  0  0  0  0  0  0  0  0  0  0
  -27.6437  -16.8292   21.5703 N   0  0  0  0  0  0  0  0  0  0  0  0
  -28.8354  -17.3375   21.2133 N   0  0  0  0  0  0  0  0  0  0  0  0
  -23.6763  -24.4121   20.5616 N   0  0  0  0  0  0  0  0  0  0  0  0
  -29.4352  -21.0596   21.8421 N   0  0  0  0  0  0  0  0  0  0  0  0
  -30.6750  -16.9980   19.7602 N   0  0  0  0  0  0  0  0  0  0  0  0
  -27.9188  -13.5593   18.7729 N   0  0  0  0  0  0  0  0  0  0  0  0
  -21.1964  -26.8873   21.5715 N   0  0  0  0  0  0  0  0  0  0  0  0
  -24.5922  -21.2282   19.8672 N   0  0  0  0  0  0  0  0  0  0  0  0
  -30.7094  -21.8336   20.0061 N   0  0  0  0  0  0  0  0  0  0  0  0
  -26.8624  -20.8271   17.0827 N   0  3  0  0  0  0  0  0  0  0  0  0
  -29.9373  -14.5287   18.2786 O   0  0  0  0  0  0  0  0  0  0  0  0
  -22.6817  -25.4674   22.6670 O   0  0  0  0  0  0  0  0  0  0  0  0
  -22.1493  -22.6934   20.1737 O   0  0  0  0  0  0  0  0  0  0  0  0
  -26.8027  -21.9037   19.6815 O   0  0  0  0  0  0  0  0  0  0  0  0
  -30.6681  -23.0197   21.9679 O   0  0  0  0  0  0  0  0  0  0  0  0
  -22.9712  -12.5268   21.1161 O   0  0  0  0  0  0  0  0  0  0  0  0
  -28.3680  -28.3883   21.0422 O   0  0  0  0  0  0  0  0  0  1  0  0
  -30.6144  -27.4862   18.5780 O   0  0  0  0  0  0  0  0  0  0  0  0
  -23.7047   -7.0628   21.2167 F   0  0  0  0  0  0  0  0  0  0  0  0
  -24.2211  -11.2248   19.0221 F   0  0  0  0  0  0  0  0  0  0  0  0
  1  2  1  0  0  0  0
  1  6  2  0  0  0  0
  2  7  2  0  0  0  0
  3  9  1  0  0  0  0
  3 10  2  0  0  0  0
  4 11  2  0  0  0  0
  4 19  1  0  0  0  0
  5 12  1  0  0  0  0
  5 19  2  0  0  0  0
  6 21  1  0  0  0  0
  7 23  1  0  0  0  0
  8 13  2  0  0  0  0
  8 22  1  0  0  0  0
  9 25  2  0  0  0  0
 10 28  1  0  0  0  0
 11 26  1  0  0  0  0
 12 26  2  0  0  0  0
 13 27  1  0  0  0  0
 14 15  2  0  0  0  0
 14 29  1  0  0  0  0
 15 30  1  0  0  0  0
 16 24  1  0  0  0  0
 16 27  2  0  0  0  0
 17 25  1  0  0  0  0
 17 28  2  0  0  0  0
 18 30  2  0  0  0  0
 18 31  1  0  0  0  0
 19 32  1  0  0  0  0
 20 32  1  0  0  0  0
 20 33  2  0  0  0  0
 20 34  1  0  0  0  0
 21 23  2  0  0  0  0
 21 39  1  0  0  0  0
 22 24  2  0  0  0  0
 22 40  1  0  0  0  0
 23 48  1  0  0  0  0
 24 41  1  0  0  0  0
 25 56  1  0  0  0  0
 26 78  1  0  0  0  0
 27 79  1  0  0  0  0
 28 80  1  0  0  0  0
 29 31  2  0  0  0  0
 29 78  1  0  0  0  0
 30 81  1  0  0  0  0
 31 82  1  0  0  0  0
 32 63  2  0  0  0  0
 33 64  1  0  0  0  0
 33 67  1  0  0  0  0
 34 68  1  0  0  0  0
 34 73  2  0  0  0  0
 35 49  1  0  0  0  0
 35 69  1  0  0  0  0
 35 74  2  0  0  0  0
 36 60  1  0  0  0  0
 36 65  1  0  0  0  0
 36 75  2  0  0  0  0
 37 61  1  0  0  0  0
 37 70  1  0  0  0  0
 37 76  2  0  0  0  0
 38 66  1  0  0  0  0
 38 71  1  0  0  0  0
 38 77  2  0  0  0  0
 39 42  1  0  0  0  0
 40 49  1  0  0  0  0
 41 65  1  0  0  0  0
 42 44  1  0  0  0  0
 43 45  1  0  0  0  0
 43 46  1  0  0  0  0
 44 48  1  0  0  0  0
 45 50  1  0  0  0  0
 46 66  1  0  0  0  0
 47 50  1  0  0  0  0
 47 66  1  0  0  0  0
 48 69  1  0  0  0  0
 49 65  1  0  0  0  0
 50 64  1  0  0  0  0
 51 61  1  0  0  0  0
 52 62  1  0  0  0  0
 53 62  1  0  0  0  0
 54 62  1  0  0  0  0
 55 72  1  0  0  0  0
 56 71  1  0  0  0  0
 57 58  1  0  0  0  0
 57 59  1  0  0  0  0
 58 79  1  0  0  0  0
 59 80  1  0  0  0  0
 60 62  1  0  0  0  0
 60 70  1  0  0  0  0
 61 72  1  0  0  0  0
 63 64  1  0  0  0  0
M  CHG  1  72   1
M  ISO  4  38 100  58 101  71 100  79 101
M  END
> <Batch ID>
0004

> <Smiles>
CNC(C)C(=O)NC(C(=O)N1Cc2cc([101O:1][101CH2:1]CCOc3cccc(C[100NH:0][100C:0](=O)N4CCCC(n5nc(-c6ccc(Oc7ccc(F)cc7F)cc6)c(C(N)=O)c5N)C4)c3)ccc2CC1C(=O)NC1CCCc2ccccc21)C(C)(C)C

> <Shape>
0.260

> <Color>
0.055

> <Negative vol penalty>
0.000

$$$$

  -OEChem-04042320233D

 81 89  0     1  0  0  0  0  0999 V2000
  -25.2681  -31.6434   24.3631 C   0  0  0  0  0  0  0  0  0  0  0  0
  -26.0192  -30.4975   24.6040 C   0  0  0  0  0  0  0  0  0  0  0  0
  -23.3378   -9.8631   21.0434 C   0  0  0  0  0  0  0  0  0  0  0  0
  -23.9482  -10.6260   23.2531 C   0  0  0  0  0  0  0  0  0  0  0  0
  -24.6097  -31.8005   23.1442 C   0  0  0  0  0  0  0  0  0  0  0  0
  -26.1116  -29.5074   23.6264 C   0  0  0  0  0  0  0  0  0  0  0  0
  -30.9557  -25.9571   22.4283 C   0  0  0  0  0  0  0  0  0  0  0  0
  -30.9308  -16.2650   23.9291 C   0  0  0  0  0  0  0  0  0  0  0  0
  -32.9439  -16.2358   22.5934 C   0  0  0  0  0  0  0  0  0  0  0  0
  -30.9434  -17.6598   23.9175 C   0  0  0  0  0  0  0  0  0  0  0  0
  -32.9564  -17.6306   22.5819 C   0  0  0  0  0  0  0  0  0  0  0  0
  -22.6435   -8.7917   21.6051 C   0  0  0  0  0  0  0  0  0  0  0  0
  -23.2539   -9.5545   23.8148 C   0  0  0  0  0  0  0  0  0  0  0  0
  -31.2773  -24.6524   22.8001 C   0  0  0  0  0  0  0  0  0  0  0  0
  -19.6564   -8.2686   23.1008 C   0  0  0  0  0  0  0  0  0  0  0  0
  -18.3877   -7.9827   22.5968 C   0  0  0  0  0  0  0  0  0  0  0  0
  -30.3960  -23.8446   20.7049 C   0  0  0  0  0  0  0  0  0  0  0  0
  -19.1358   -5.7735   21.9668 C   0  0  0  0  0  0  0  0  0  0  0  0
  -23.9902  -10.7803   21.8674 C   0  0  0  0  0  0  0  0  0  0  0  0
  -24.2008  -13.1652   20.9868 C   0  0  0  0  0  0  0  0  0  0  0  0
  -24.7018  -30.8162   22.1475 C   0  0  0  0  0  0  0  0  0  0  0  0
  -30.3408  -26.2146   21.1946 C   0  0  0  0  0  0  0  0  0  0  0  0
  -25.4527  -29.6508   22.3935 C   0  0  0  0  0  0  0  0  0  0  0  0
  -30.0699  -25.1536   20.3187 C   0  0  0  0  0  0  0  0  0  0  0  0
  -31.9311  -15.5530   23.2670 C   0  0  0  0  0  0  0  0  0  0  0  0
  -31.9562  -18.3425   23.2439 C   0  0  0  0  0  0  0  0  0  0  0  0
  -22.6015   -8.6374   22.9908 C   0  0  0  0  0  0  0  0  0  0  0  0
  -30.9948  -23.5956   21.9396 C   0  0  0  0  0  0  0  0  0  0  0  0
  -20.6649   -7.3070   23.0377 C   0  0  0  0  0  0  0  0  0  0  0  0
  -18.1273   -6.7352   22.0298 C   0  0  0  0  0  0  0  0  0  0  0  0
  -20.4046   -6.0595   22.4708 C   0  0  0  0  0  0  0  0  0  0  0  0
  -24.7081  -11.8869   21.2878 C   0  0  0  0  0  0  0  0  0  0  0  0
  -25.2714  -13.8437   20.4577 C   0  0  0  0  0  0  0  0  0  0  0  0
  -22.8800  -13.6922   21.1693 C   0  0  0  0  0  0  0  0  0  0  0  0
  -27.5605  -27.4624   20.2910 C   0  0  0  0  0  0  0  0  0  0  0  0
  -28.8498  -27.1990   17.3261 C   0  0  0  0  0  0  0  0  0  0  0  0
  -31.0961  -25.6586   15.2700 C   0  0  0  0  0  0  0  0  0  0  0  0
  -31.1958  -13.2188   21.0597 C   0  0  0  0  0  0  0  0  0  0  0  0
  -23.9339  -31.0089   20.8638 C   0  0  0  0  0  0  0  0  0  0  0  0
  -30.0246  -27.6303   20.7970 C   0  0  0  0  0  0  0  0  0  0  0  0
  -29.4293  -25.3790   18.9744 C   0  0  0  0  0  0  0  0  0  0  0  0
  -24.3884  -30.0841   19.7375 C   0  0  0  0  0  0  0  0  0  0  0  0
  -29.3302  -13.1249   18.0286 C   0  0  0  0  0  0  0  0  0  0  0  0
  -24.5338  -28.6537   20.2471 C   0  0  0  0  0  0  0  0  0  0  0  0
  -27.8883  -12.9123   18.4930 C   0  0  0  0  0  0  0  0  0  0  0  0
  -30.3232  -12.3642   18.9046 C   0  0  0  0  0  0  0  0  0  0  0  0
  -28.7664  -12.4225   20.8142 C   0  0  0  0  0  0  0  0  0  0  0  0
  -25.5971  -28.5658   21.3485 C   0  0  1  0  0  0  0  0  0  0  0  0
  -28.9323  -27.7232   19.7360 C   0  0  1  0  0  0  0  0  0  0  0  0
  -27.7328  -13.2148   19.9956 C   0  0  2  0  0  0  0  0  0  0  0  0
  -31.8913  -25.6306   12.8900 C   0  0  0  0  0  0  0  0  0  0  0  0
  -26.3444  -25.6606   16.5097 C   0  0  0  0  0  0  0  0  0  0  0  0
  -27.5805  -24.8595   14.4852 C   0  0  0  0  0  0  0  0  0  0  0  0
  -27.1645  -27.2980   14.8065 C   0  0  0  0  0  0  0  0  0  0  0  0
  -33.8407  -26.4387   16.0559 C   0  0  0  0  0  0  0  0  0  0  0  0
  -31.9187  -14.0618   23.2792 C   0  0  0  0  0  0  0  0  0  0  0  0
  -30.9723  -20.5435   23.8871 C   0  0  0  0  0  0  0  0  0  0  0  0
  -31.2875  -22.0174   23.6944 C   0  0  0  0  0  0  0  0  0  1  0  0
  -28.8711  -26.1297   16.2607 C   0  0  1  0  0  0  0  0  0  0  0  0
  -32.1007  -26.2162   14.2778 C   0  0  2  0  0  0  0  0  0  0  0  0
  -27.5004  -25.9822   15.5416 C   0  0  0  0  0  0  0  0  0  0  0  0
  -26.0004  -11.7585   20.9756 N   0  0  0  0  0  0  0  0  0  0  0  0
  -26.3142  -12.9647   20.4730 N   0  0  0  0  0  0  0  0  0  0  0  0
  -29.1333  -26.7804   18.6338 N   0  0  0  0  0  0  0  0  0  0  0  0
  -30.1238  -12.6969   20.3172 N   0  0  0  0  0  0  0  0  0  0  0  0
  -25.4132  -15.1004   19.9855 N   0  0  0  0  0  0  0  0  0  0  0  0
  -21.8997  -12.8599   21.7266 N   0  0  0  0  0  0  0  0  0  0  0  0
  -31.9680  -19.7275   23.2307 N   0  0  0  0  0  0  0  0  0  0  0  0
  -26.9246  -28.5907   20.7726 N   0  0  0  0  0  0  0  0  0  0  0  0
  -29.9795  -26.4611   15.3719 N   0  0  0  0  0  0  0  0  0  0  0  0
  -30.9198  -13.5130   22.3894 N   0  0  0  0  0  0  0  0  0  0  0  0
  -33.4902  -25.9022   14.7156 N   0  3  0  0  0  0  0  0  0  0  0  0
  -22.5738  -14.8610   20.8325 O   0  0  0  0  0  0  0  0  0  0  0  0
  -27.1116  -26.3221   20.2815 O   0  0  0  0  0  0  0  0  0  0  0  0
  -28.5981  -28.3641   17.0085 O   0  0  0  0  0  0  0  0  0  0  0  0
  -31.2817  -24.6135   15.8897 O   0  0  0  0  0  0  0  0  0  0  0  0
  -32.3145  -13.4135   20.5723 O   0  0  0  0  0  0  0  0  0  0  0  0
  -21.9239   -7.5921   23.5393 O   0  0  0  0  0  0  0  0  0  0  0  0
  -31.3071  -22.3212   22.3003 O   0  0  0  0  0  0  0  0  0  1  0  0
  -16.9084   -6.4602   21.5472 F   0  0  0  0  0  0  0  0  0  0  0  0
  -21.3691   -5.1312   22.4085 F   0  0  0  0  0  0  0  0  0  0  0  0
  1  2  1  0  0  0  0
  1  5  2  0  0  0  0
  2  6  2  0  0  0  0
  3 12  2  0  0  0  0
  3 19  1  0  0  0  0
  4 13  1  0  0  0  0
  4 19  2  0  0  0  0
  5 21  1  0  0  0  0
  6 23  1  0  0  0  0
  7 14  2  0  0  0  0
  7 22  1  0  0  0  0
  8 10  2  0  0  0  0
  8 25  1  0  0  0  0
  9 11  1  0  0  0  0
  9 25  2  0  0  0  0
 10 26  1  0  0  0  0
 11 26  2  0  0  0  0
 12 27  1  0  0  0  0
 13 27  2  0  0  0  0
 14 28  1  0  0  0  0
 15 16  2  0  0  0  0
 15 29  1  0  0  0  0
 16 30  1  0  0  0  0
 17 24  1  0  0  0  0
 17 28  2  0  0  0  0
 18 30  2  0  0  0  0
 18 31  1  0  0  0  0
 19 32  1  0  0  0  0
 20 32  1  0  0  0  0
 20 33  2  0  0  0  0
 20 34  1  0  0  0  0
 21 23  2  0  0  0  0
 21 39  1  0  0  0  0
 22 24  2  0  0  0  0
 22 40  1  0  0  0  0
 23 48  1  0  0  0  0
 24 41  1  0  0  0  0
 25 56  1  0  0  0  0
 26 68  1  0  0  0  0
 27 78  1  0  0  0  0
 28 79  1  0  0  0  0
 29 31  2  0  0  0  0
 29 78  1  0  0  0  0
 30 80  1  0  0  0  0
 31 81  1  0  0  0  0
 32 62  2  0  0  0  0
 33 63  1  0  0  0  0
 33 66  1  0  0  0  0
 34 67  1  0  0  0  0
 34 73  2  0  0  0  0
 35 49  1  0  0  0  0
 35 69  1  0  0  0  0
 35 74  2  0  0  0  0
 36 59  1  0  0  0  0
 36 64  1  0  0  0  0
 36 75  2  0  0  0  0
 37 60  1  0  0  0  0
 37 70  1  0  0  0  0
 37 76  2  0  0  0  0
 38 65  1  0  0  0  0
 38 71  1  0  0  0  0
 38 77  2  0  0  0  0
 39 42  1  0  0  0  0
 40 49  1  0  0  0  0
 41 64  1  0  0  0  0
 42 44  1  0  0  0  0
 43 45  1  0  0  0  0
 43 46  1  0  0  0  0
 44 48  1  0  0  0  0
 45 50  1  0  0  0  0
 46 65  1  0  0  0  0
 47 50  1  0  0  0  0
 47 65  1  0  0  0  0
 48 69  1  0  0  0  0
 49 64  1  0  0  0  0
 50 63  1  0  0  0  0
 51 60  1  0  0  0  0
 52 61  1  0  0  0  0
 53 61  1  0  0  0  0
 54 61  1  0  0  0  0
 55 72  1  0  0  0  0
 56 71  1  0  0  0  0
 57 58  1  0  0  0  0
 57 68  1  0  0  0  0
 58 79  1  0  0  0  0
 59 61  1  0  0  0  0
 59 70  1  0  0  0  0
 60 72  1  0  0  0  0
 62 63  1  0  0  0  0
M  CHG  1  72   1
M  ISO  4  38 100  58 101  71 100  79 101
M  END
> <Batch ID>
0004

> <Smiles>
CNC(C)C(=O)NC(C(=O)N1Cc2cc([101O:1][101CH2:1]CNc3ccc(C[100NH:0][100C:0](=O)N4CCCC(n5nc(-c6ccc(Oc7ccc(F)cc7F)cc6)c(C(N)=O)c5N)C4)cc3)ccc2CC1C(=O)NC1CCCc2ccccc21)C(C)(C)C

> <Shape>
0.259

> <Color>
0.159

> <Negative vol penalty>
0.000

$$$$

  -OEChem-04042320233D

 95105  0     1  0  0  0  0  0999 V2000
  -17.6521  -32.0696   20.9671 C   0  0  0  0  0  0  0  0  0  0  0  0
  -19.0184  -32.2127   20.7477 C   0  0  0  0  0  0  0  0  0  0  0  0
  -31.7743  -22.4726   19.2601 C   0  0  0  0  0  0  0  0  0  0  0  0
  -22.9092   -9.9677   20.0920 C   0  0  0  0  0  0  0  0  0  0  0  0
  -23.6172  -10.1231   22.3967 C   0  0  0  0  0  0  0  0  0  0  0  0
  -17.1903  -31.1409   21.8989 C   0  0  0  0  0  0  0  0  0  0  0  0
  -19.9239  -31.4279   21.4609 C   0  0  0  0  0  0  0  0  0  0  0  0
  -25.2615  -29.2080   19.4393 C   0  0  0  0  0  0  0  0  0  0  0  0
  -32.1328  -23.7844   19.5710 C   0  0  0  0  0  0  0  0  0  0  0  0
  -22.1083   -8.8715   20.4119 C   0  0  0  0  0  0  0  0  0  0  0  0
  -22.8162   -9.0269   22.7167 C   0  0  0  0  0  0  0  0  0  0  0  0
  -26.5769  -29.6439   19.5922 C   0  0  0  0  0  0  0  0  0  0  0  0
  -22.9681   -5.6617   22.4282 C   0  0  0  0  0  0  0  0  0  0  0  0
  -23.5201   -4.6706   23.2397 C   0  0  0  0  0  0  0  0  0  0  0  0
  -31.2784  -20.1824   19.9776 C   0  0  0  0  0  0  0  0  0  0  0  0
  -31.7311  -20.9099   22.6232 C   0  0  0  0  0  0  0  0  0  0  0  0
  -32.2302  -23.2011   21.9104 C   0  0  0  0  0  0  0  0  0  0  0  0
  -26.8572  -28.1284   21.4479 C   0  0  0  0  0  0  0  0  0  0  0  0
  -21.7906   -5.0528   24.8829 C   0  0  0  0  0  0  0  0  0  0  0  0
  -31.6398  -21.5068   20.2714 C   0  0  0  0  0  0  0  0  0  0  0  0
  -31.8694  -21.8761   21.6139 C   0  0  0  0  0  0  0  0  0  0  0  0
  -23.6638  -10.5935   21.0844 C   0  0  0  0  0  0  0  0  0  0  0  0
  -24.1227  -13.0839   20.7764 C   0  0  0  0  0  0  0  0  0  0  0  0
  -18.0902  -30.3375   22.6169 C   0  0  0  0  0  0  0  0  0  0  0  0
  -24.7298  -28.2351   20.2980 C   0  0  0  0  0  0  0  0  0  0  0  0
  -19.4738  -30.4886   22.4042 C   0  0  0  0  0  0  0  0  0  0  0  0
  -31.1492  -19.2156   20.9890 C   0  0  0  0  0  0  0  0  0  0  0  0
  -31.3704  -19.5828   22.3274 C   0  0  0  0  0  0  0  0  0  0  0  0
  -25.5356  -27.6799   21.3022 C   0  0  0  0  0  0  0  0  0  0  0  0
  -32.3607  -24.1481   20.8945 C   0  0  0  0  0  0  0  0  0  0  0  0
  -22.0617   -8.4011   21.7243 C   0  0  0  0  0  0  0  0  0  0  0  0
  -27.3741  -29.1062   20.5984 C   0  0  0  0  0  0  0  0  0  0  0  0
  -21.8274   -6.3484   22.8441 C   0  0  0  0  0  0  0  0  0  0  0  0
  -22.9314   -4.3661   24.4671 C   0  0  0  0  0  0  0  0  0  0  0  0
  -21.2386   -6.0439   24.0714 C   0  0  0  0  0  0  0  0  0  0  0  0
  -24.4918  -11.7256   20.7544 C   0  0  0  0  0  0  0  0  0  0  0  0
  -25.2557  -13.7539   20.3841 C   0  0  0  0  0  0  0  0  0  0  0  0
  -22.8679  -13.6861   21.1207 C   0  0  0  0  0  0  0  0  0  0  0  0
  -22.3398  -28.1564   22.3921 C   0  0  0  0  0  0  0  0  0  0  0  0
  -23.1028  -25.0079   22.5553 C   0  0  0  0  0  0  0  0  0  0  0  0
  -25.4552  -22.5713   22.1353 C   0  0  0  0  0  0  0  0  0  0  0  0
  -30.7745  -14.5447   20.6340 C   0  0  0  0  0  0  0  0  0  0  0  0
  -17.5459  -29.3808   23.6479 C   0  0  0  0  0  0  0  0  0  0  0  0
  -23.3173  -27.7562   20.1030 C   0  0  0  0  0  0  0  0  0  0  0  0
  -30.6994  -17.8263   20.6020 C   0  0  0  0  0  0  0  0  0  0  0  0
  -25.0187  -26.6183   22.2373 C   0  0  0  0  0  0  0  0  0  0  0  0
  -18.5546  -28.3241   24.0909 C   0  0  0  0  0  0  0  0  0  0  0  0
  -29.5833  -12.0306   18.4122 C   0  0  0  0  0  0  0  0  0  0  0  0
  -19.9047  -28.9676   24.3908 C   0  0  0  0  0  0  0  0  0  0  0  0
  -28.1246  -11.8350   18.8294 C   0  0  0  0  0  0  0  0  0  0  0  0
  -30.4824  -12.3056   19.6155 C   0  0  0  0  0  0  0  0  0  0  0  0
  -28.5854  -13.2264   20.8911 C   0  0  0  0  0  0  0  0  0  0  0  0
  -20.4862  -29.6381   23.1403 C   0  0  1  0  0  0  0  0  0  0  0  0
  -31.2679  -18.5787   23.4595 C   0  0  1  0  0  0  0  0  0  0  0  0
  -22.7190  -27.1324   21.3601 C   0  0  1  0  0  0  0  0  0  0  0  0
  -27.6308  -13.0017   19.7059 C   0  0  2  0  0  0  0  0  0  0  0  0
  -30.9104  -16.7815   21.7005 C   0  0  1  0  0  0  0  0  0  0  0  0
  -30.4694  -17.3367   23.0492 C   0  0  0  0  0  0  0  0  0  0  0  0
  -25.7955  -20.0977   22.3853 C   0  0  0  0  0  0  0  0  0  0  0  0
  -23.3218  -25.3461   25.5798 C   0  0  0  0  0  0  0  0  0  0  0  0
  -24.5578  -23.1705   25.6636 C   0  0  0  0  0  0  0  0  0  0  0  0
  -22.2024  -23.2340   24.8447 C   0  0  0  0  0  0  0  0  0  0  0  0
  -32.5414  -17.6146   25.2546 C   0  0  0  0  0  0  0  0  0  0  0  0
  -33.5131  -19.3262   23.8766 C   0  0  0  0  0  0  0  0  0  0  0  0
  -26.0197  -22.2400   19.2490 C   0  0  0  0  0  0  0  0  0  0  0  0
  -32.7442  -25.5504   21.2271 C   0  0  0  0  0  0  0  0  0  0  0  0
  -30.9792  -28.9109   20.7183 C   0  0  0  0  0  0  0  0  0  0  0  0
  -32.0635  -27.9533   21.1890 C   0  0  0  0  0  0  0  0  0  0  0  0
  -29.5961  -28.5909   21.2718 C   0  0  0  0  0  0  0  0  0  1  0  0
  -24.0450  -24.1782   23.3937 C   0  0  1  0  0  0  0  0  0  0  0  0
  -25.3951  -21.2218   21.4426 C   0  0  2  0  0  0  0  0  0  0  0  0
  -23.5412  -24.0036   24.8542 C   0  0  0  0  0  0  0  0  0  0  0  0
  -25.7600  -11.5419   20.3777 N   0  0  0  0  0  0  0  0  0  0  0  0
  -26.1977  -12.7936   20.1593 N   0  0  0  0  0  0  0  0  0  0  0  0
  -23.6293  -26.1876   22.0104 N   0  0  0  0  0  0  0  0  0  0  0  0
  -29.9595  -13.4240   20.4039 N   0  0  0  0  0  0  0  0  0  0  0  0
  -25.5280  -15.0650   20.2127 N   0  0  0  0  0  0  0  0  0  0  0  0
  -21.8084  -12.8515   21.5017 N   0  0  0  0  0  0  0  0  0  0  0  0
  -21.0552  -28.6462   22.2532 N   0  0  0  0  0  0  0  0  0  0  0  0
  -24.2356  -22.9240   22.6734 N   0  0  0  0  0  0  0  0  0  0  0  0
  -30.1995  -15.5625   21.3852 N   0  0  0  0  0  0  0  0  0  0  0  0
  -32.6070  -18.1809   23.9098 N   0  0  0  0  0  0  0  0  0  0  0  0
  -26.3133  -21.2006   20.2691 N   0  3  0  0  0  0  0  0  0  0  0  0
  -31.7254  -26.5553   20.8152 N   0  3  0  0  0  0  0  0  0  0  0  0
  -22.6867  -14.9266   21.0756 O   0  0  0  0  0  0  0  0  0  0  0  0
  -23.1520  -28.4773   23.2518 O   0  0  0  0  0  0  0  0  0  0  0  0
  -21.9445  -24.6198   22.3841 O   0  0  0  0  0  0  0  0  0  0  0  0
  -26.4823  -23.2435   22.1963 O   0  0  0  0  0  0  0  0  0  0  0  0
  -31.9271  -14.6340   20.1976 O   0  0  0  0  0  0  0  0  0  0  0  0
  -21.2801   -7.3316   22.0369 O   0  0  0  0  0  0  0  0  0  0  0  0
  -28.6672  -29.5334   20.7513 O   0  0  0  0  0  0  0  0  0  1  0  0
  -23.4607   -3.4133   25.2456 F   0  0  0  0  0  0  0  0  0  0  0  0
  -20.1420   -6.6994   24.4757 F   0  0  0  0  0  0  0  0  0  0  0  0
  -30.5914  -16.3806   24.0071 F   0  0  0  0  0  0  0  0  0  0  0  0
  -29.1475  -17.6561   23.0036 F   0  0  0  0  0  0  0  0  0  0  0  0
  1  2  1  0  0  0  0
  1  6  2  0  0  0  0
  2  7  2  0  0  0  0
  3  9  2  0  0  0  0
  3 20  1  0  0  0  0
  4 10  2  0  0  0  0
  4 22  1  0  0  0  0
  5 11  1  0  0  0  0
  5 22  2  0  0  0  0
  6 24  1  0  0  0  0
  7 26  1  0  0  0  0
  8 12  2  0  0  0  0
  8 25  1  0  0  0  0
  9 30  1  0  0  0  0
 10 31  1  0  0  0  0
 11 31  2  0  0  0  0
 12 32  1  0  0  0  0
 13 14  2  0  0  0  0
 13 33  1  0  0  0  0
 14 34  1  0  0  0  0
 15 20  1  0  0  0  0
 15 27  2  0  0  0  0
 16 21  1  0  0  0  0
 16 28  2  0  0  0  0
 17 21  1  0  0  0  0
 17 30  2  0  0  0  0
 18 29  1  0  0  0  0
 18 32  2  0  0  0  0
 19 34  2  0  0  0  0
 19 35  1  0  0  0  0
 20 21  2  0  0  0  0
 22 36  1  0  0  0  0
 23 36  1  0  0  0  0
 23 37  2  0  0  0  0
 23 38  1  0  0  0  0
 24 26  2  0  0  0  0
 24 43  1  0  0  0  0
 25 29  2  0  0  0  0
 25 44  1  0  0  0  0
 26 53  1  0  0  0  0
 27 28  1  0  0  0  0
 27 45  1  0  0  0  0
 28 54  1  0  0  0  0
 29 46  1  0  0  0  0
 30 66  1  0  0  0  0
 31 90  1  0  0  0  0
 32 91  1  0  0  0  0
 33 35  2  0  0  0  0
 33 90  1  0  0  0  0
 34 92  1  0  0  0  0
 35 93  1  0  0  0  0
 36 73  2  0  0  0  0
 37 74  1  0  0  0  0
 37 77  1  0  0  0  0
 38 78  1  0  0  0  0
 38 85  2  0  0  0  0
 39 55  1  0  0  0  0
 39 79  1  0  0  0  0
 39 86  2  0  0  0  0
 40 70  1  0  0  0  0
 40 75  1  0  0  0  0
 40 87  2  0  0  0  0
 41 71  1  0  0  0  0
 41 80  1  0  0  0  0
 41 88  2  0  0  0  0
 42 76  1  0  0  0  0
 42 81  1  0  0  0  0
 42 89  2  0  0  0  0
 43 47  1  0  0  0  0
 44 55  1  0  0  0  0
 45 57  1  0  0  0  0
 46 75  1  0  0  0  0
 47 49  1  0  0  0  0
 48 50  1  0  0  0  0
 48 51  1  0  0  0  0
 49 53  1  0  0  0  0
 50 56  1  0  0  0  0
 51 76  1  0  0  0  0
 52 56  1  0  0  0  0
 52 76  1  0  0  0  0
 53 79  1  0  0  0  0
 54 58  1  0  0  0  0
 54 82  1  0  0  0  0
 55 75  1  0  0  0  0
 56 74  1  0  0  0  0
 57 58  1  0  0  0  0
 57 81  1  0  0  0  0
 58 94  1  0  0  0  0
 58 95  1  0  0  0  0
 59 71  1  0  0  0  0
 60 72  1  0  0  0  0
 61 72  1  0  0  0  0
 62 72  1  0  0  0  0
 63 82  1  0  0  0  0
 64 82  1  0  0  0  0
 65 83  1  0  0  0  0
 66 84  1  0  0  0  0
 67 68  1  0  0  0  0
 67 69  1  0  0  0  0
 68 84  1  0  0  0  0
 69 91  1  0  0  0  0
 70 72  1  0  0  0  0
 70 80  1  0  0  0  0
 71 83  1  0  0  0  0
 73 74  1  0  0  0  0
M  CHG  2  83   1  84   1
M  ISO  4  42 100  69 101  81 100  91 101
M  END
> <Batch ID>
0004

> <Smiles>
CNC(C)C(=O)NC(C(=O)N1Cc2cc([101O:1][101CH2:1]CCNCc3ccc4cc5c(cc4c3)C(N(C)C)C(F)(F)C([100NH:0][100C:0](=O)N3CCCC(n4nc(-c6ccc(Oc7ccc(F)cc7F)cc6)c(C(N)=O)c4N)C3)C5)ccc2CC1C(=O)NC1CCCc2ccccc21)C(C)(C)C

> <Shape>
0.289

> <Color>
0.238

> <Negative vol penalty>
0.000

$$$$

  -OEChem-04042320233D

 81 89  0     1  0  0  0  0  0999 V2000
  -16.6897  -29.4611   23.1319 C   0  0  0  0  0  0  0  0  0  0  0  0
  -17.6537  -29.5874   22.1369 C   0  0  0  0  0  0  0  0  0  0  0  0
  -26.5850  -12.6865   21.9931 C   0  0  0  0  0  0  0  0  0  0  0  0
  -25.7693  -14.3575   20.4506 C   0  0  0  0  0  0  0  0  0  0  0  0
  -17.0736  -29.1677   24.4398 C   0  0  0  0  0  0  0  0  0  0  0  0
  -19.0025  -29.4214   22.4495 C   0  0  0  0  0  0  0  0  0  0  0  0
  -25.1332  -27.0212   19.6262 C   0  0  0  0  0  0  0  0  0  0  0  0
  -28.8220  -22.0323   20.5317 C   0  0  0  0  0  0  0  0  0  0  0  0
  -30.6671  -22.6487   21.9643 C   0  0  0  0  0  0  0  0  0  0  0  0
  -25.3403  -12.0575   21.9700 C   0  0  0  0  0  0  0  0  0  0  0  0
  -24.5245  -13.7284   20.4274 C   0  0  0  0  0  0  0  0  0  0  0  0
  -26.4510  -27.4234   19.4131 C   0  0  0  0  0  0  0  0  0  0  0  0
  -29.1192  -23.1028   19.6883 C   0  0  0  0  0  0  0  0  0  0  0  0
  -30.9644  -23.7192   21.1209 C   0  0  0  0  0  0  0  0  0  0  0  0
  -22.4870   -9.8060   22.0365 C   0  0  0  0  0  0  0  0  0  0  0  0
  -22.4646   -8.4169   21.9129 C   0  0  0  0  0  0  0  0  0  0  0  0
  -26.9909  -26.8404   21.6907 C   0  0  0  0  0  0  0  0  0  0  0  0
  -23.6152   -8.5868   19.7952 C   0  0  0  0  0  0  0  0  0  0  0  0
  -26.7995  -13.8366   21.2335 C   0  0  0  0  0  0  0  0  0  0  0  0
  -29.1797  -14.2381   20.4083 C   0  0  0  0  0  0  0  0  0  0  0  0
  -18.4270  -28.9886   24.7666 C   0  0  0  0  0  0  0  0  0  0  0  0
  -24.7311  -26.5350   20.8786 C   0  0  0  0  0  0  0  0  0  0  0  0
  -19.4050  -29.1267   23.7632 C   0  0  0  0  0  0  0  0  0  0  0  0
  -25.6680  -26.4303   21.9165 C   0  0  0  0  0  0  0  0  0  0  0  0
  -29.5959  -21.8053   21.6698 C   0  0  0  0  0  0  0  0  0  0  0  0
  -24.3101  -12.5784   21.1871 C   0  0  0  0  0  0  0  0  0  0  0  0
  -30.1904  -23.9462   19.9829 C   0  0  0  0  0  0  0  0  0  0  0  0
  -27.3794  -27.3357   20.4462 C   0  0  0  0  0  0  0  0  0  0  0  0
  -23.0734  -10.5856   21.0395 C   0  0  0  0  0  0  0  0  0  0  0  0
  -23.0288   -7.8072   20.7923 C   0  0  0  0  0  0  0  0  0  0  0  0
  -23.6375   -9.9760   19.9189 C   0  0  0  0  0  0  0  0  0  0  0  0
  -28.0849  -14.4872   21.2574 C   0  0  0  0  0  0  0  0  0  0  0  0
  -30.1515  -15.1091   20.8365 C   0  0  0  0  0  0  0  0  0  0  0  0
  -29.3069  -13.3031   19.3288 C   0  0  0  0  0  0  0  0  0  0  0  0
  -22.6340  -27.4660   23.0784 C   0  0  0  0  0  0  0  0  0  0  0  0
  -23.4563  -24.6625   24.4878 C   0  0  0  0  0  0  0  0  0  0  0  0
  -25.7688  -22.1825   24.8734 C   0  0  0  0  0  0  0  0  0  0  0  0
  -29.9615  -20.3528   23.6953 C   0  0  0  0  0  0  0  0  0  0  0  0
  -18.7973  -28.7192   26.2036 C   0  0  0  0  0  0  0  0  0  0  0  0
  -23.3122  -26.0803   21.0845 C   0  0  0  0  0  0  0  0  0  0  0  0
  -25.2918  -25.8963   23.2735 C   0  0  0  0  0  0  0  0  0  0  0  0
  -20.2180  -28.1885   26.3773 C   0  0  0  0  0  0  0  0  0  0  0  0
  -31.6554  -17.4075   24.7596 C   0  0  0  0  0  0  0  0  0  0  0  0
  -21.2010  -29.0149   25.5542 C   0  0  0  0  0  0  0  0  0  0  0  0
  -31.0359  -16.3026   23.9007 C   0  0  0  0  0  0  0  0  0  0  0  0
  -30.6229  -18.4591   25.1620 C   0  0  0  0  0  0  0  0  0  0  0  0
  -29.2429  -17.9355   23.1896 C   0  0  0  0  0  0  0  0  0  0  0  0
  -20.8762  -28.9294   24.0580 C   0  0  1  0  0  0  0  0  0  0  0  0
  -22.8907  -26.0828   22.5507 C   0  0  1  0  0  0  0  0  0  0  0  0
  -30.2581  -16.8873   22.7054 C   0  0  2  0  0  0  0  0  0  0  0  0
  -26.7383  -20.0040   25.6554 C   0  0  0  0  0  0  0  0  0  0  0  0
  -24.0606  -26.2563   27.0185 C   0  0  0  0  0  0  0  0  0  0  0  0
  -25.3278  -24.2761   27.8794 C   0  0  0  0  0  0  0  0  0  0  0  0
  -22.8855  -24.0837   27.4097 C   0  0  0  0  0  0  0  0  0  0  0  0
  -24.6824  -20.7270   22.5367 C   0  0  0  0  0  0  0  0  0  0  0  0
  -30.6908  -27.3904   18.9728 C   0  0  0  0  0  0  0  0  0  0  0  0
  -31.0716  -26.1434   19.7552 C   0  0  0  0  0  0  0  0  0  0  0  0
  -29.1843  -27.5901   18.9186 C   0  0  0  0  0  0  0  0  0  1  0  0
  -24.5109  -24.2332   25.4790 C   0  0  1  0  0  0  0  0  0  0  0  0
  -25.6386  -20.6703   24.8434 C   0  0  2  0  0  0  0  0  0  0  0  0
  -24.2031  -24.7242   26.9218 C   0  0  0  0  0  0  0  0  0  0  0  0
  -28.3369  -15.4416   22.1572 N   0  0  0  0  0  0  0  0  0  0  0  0
  -29.6013  -15.7998   21.8759 N   0  0  0  0  0  0  0  0  0  0  0  0
  -23.8910  -25.4702   23.4273 N   0  0  0  0  0  0  0  0  0  0  0  0
  -29.9288  -18.9709   23.9784 N   0  0  0  0  0  0  0  0  0  0  0  0
  -31.4146  -15.3439   20.4217 N   0  0  0  0  0  0  0  0  0  0  0  0
  -28.2117  -12.4841   19.0219 N   0  0  0  0  0  0  0  0  0  0  0  0
  -29.2941  -20.7179   22.5266 N   0  0  0  0  0  0  0  0  0  0  0  0
  -21.3380  -27.6713   23.5117 N   0  0  0  0  0  0  0  0  0  0  0  0
  -24.6244  -22.7842   25.3524 N   0  0  0  0  0  0  0  0  0  0  0  0
  -25.7210  -20.1710   23.4417 N   0  3  0  0  0  0  0  0  0  0  0  0
  -30.3659  -13.1856   18.6670 O   0  0  0  0  0  0  0  0  0  0  0  0
  -23.5446  -28.2859   23.0928 O   0  0  0  0  0  0  0  0  0  0  0  0
  -22.2912  -24.2890   24.6446 O   0  0  0  0  0  0  0  0  0  0  0  0
  -26.7855  -22.7708   24.5118 O   0  0  0  0  0  0  0  0  0  0  0  0
  -30.5621  -21.1498   24.4207 O   0  0  0  0  0  0  0  0  0  0  0  0
  -23.0954  -11.9646   21.1640 O   0  0  0  0  0  0  0  0  0  0  0  0
  -30.4825  -24.9982   19.1542 O   0  0  0  0  0  0  0  0  0  0  0  0
  -28.6662  -27.7281   20.2411 O   0  0  0  0  0  0  0  0  0  1  0  0
  -23.0086   -6.4731   20.6744 F   0  0  0  0  0  0  0  0  0  0  0  0
  -24.2034  -10.7197   18.9583 F   0  0  0  0  0  0  0  0  0  0  0  0
  1  2  1  0  0  0  0
  1  5  2  0  0  0  0
  2  6  2  0  0  0  0
  3 10  2  0  0  0  0
  3 19  1  0  0  0  0
  4 11  1  0  0  0  0
  4 19  2  0  0  0  0
  5 21  1  0  0  0  0
  6 23  1  0  0  0  0
  7 12  2  0  0  0  0
  7 22  1  0  0  0  0
  8 13  2  0  0  0  0
  8 25  1  0  0  0  0
  9 14  1  0  0  0  0
  9 25  2  0  0  0  0
 10 26  1  0  0  0  0
 11 26  2  0  0  0  0
 12 28  1  0  0  0  0
 13 27  1  0  0  0  0
 14 27  2  0  0  0  0
 15 16  2  0  0  0  0
 15 29  1  0  0  0  0
 16 30  1  0  0  0  0
 17 24  1  0  0  0  0
 17 28  2  0  0  0  0
 18 30  2  0  0  0  0
 18 31  1  0  0  0  0
 19 32  1  0  0  0  0
 20 32  1  0  0  0  0
 20 33  2  0  0  0  0
 20 34  1  0  0  0  0
 21 23  2  0  0  0  0
 21 39  1  0  0  0  0
 22 24  2  0  0  0  0
 22 40  1  0  0  0  0
 23 48  1  0  0  0  0
 24 41  1  0  0  0  0
 25 68  1  0  0  0  0
 26 77  1  0  0  0  0
 27 78  1  0  0  0  0
 28 79  1  0  0  0  0
 29 31  2  0  0  0  0
 29 77  1  0  0  0  0
 30 80  1  0  0  0  0
 31 81  1  0  0  0  0
 32 62  2  0  0  0  0
 33 63  1  0  0  0  0
 33 66  1  0  0  0  0
 34 67  1  0  0  0  0
 34 72  2  0  0  0  0
 35 49  1  0  0  0  0
 35 69  1  0  0  0  0
 35 73  2  0  0  0  0
 36 59  1  0  0  0  0
 36 64  1  0  0  0  0
 36 74  2  0  0  0  0
 37 60  1  0  0  0  0
 37 70  1  0  0  0  0
 37 75  2  0  0  0  0
 38 65  1  0  0  0  0
 38 68  1  0  0  0  0
 38 76  2  0  0  0  0
 39 42  1  0  0  0  0
 40 49  1  0  0  0  0
 41 64  1  0  0  0  0
 42 44  1  0  0  0  0
 43 45  1  0  0  0  0
 43 46  1  0  0  0  0
 44 48  1  0  0  0  0
 45 50  1  0  0  0  0
 46 65  1  0  0  0  0
 47 50  1  0  0  0  0
 47 65  1  0  0  0  0
 48 69  1  0  0  0  0
 49 64  1  0  0  0  0
 50 63  1  0  0  0  0
 51 60  1  0  0  0  0
 52 61  1  0  0  0  0
 53 61  1  0  0  0  0
 54 61  1  0  0  0  0
 55 71  1  0  0  0  0
 56 57  1  0  0  0  0
 56 58  1  0  0  0  0
 57 78  1  0  0  0  0
 58 79  1  0  0  0  0
 59 61  1  0  0  0  0
 59 70  1  0  0  0  0
 60 71  1  0  0  0  0
 62 63  1  0  0  0  0
M  CHG  1  71   1
M  ISO  4  38 100  58 101  68 100  79 101
M  END
> <Batch ID>
0004

> <Smiles>
CNC(C)C(=O)NC(C(=O)N1Cc2cc([101O:1][101CH2:1]CCOc3ccc([100NH:0][100C:0](=O)N4CCCC(n5nc(-c6ccc(Oc7ccc(F)cc7F)cc6)c(C(N)=O)c5N)C4)cc3)ccc2CC1C(=O)NC1CCCc2ccccc21)C(C)(C)C

> <Shape>
0.239

> <Color>
0.096

> <Negative vol penalty>
0.000

$$$$

  -OEChem-04042320233D

 93103  0     1  0  0  0  0  0999 V2000
  -31.2701  -24.7359   25.8151 C   0  0  0  0  0  0  0  0  0  0  0  0
  -30.0245  -24.5132   25.2369 C   0  0  0  0  0  0  0  0  0  0  0  0
  -18.2847  -30.2511   23.1731 C   0  0  0  0  0  0  0  0  0  0  0  0
  -18.8564  -28.9870   23.1610 C   0  0  0  0  0  0  0  0  0  0  0  0
  -26.3083  -23.3385   16.7594 C   0  0  0  0  0  0  0  0  0  0  0  0
  -27.1381  -25.0909   15.3180 C   0  0  0  0  0  0  0  0  0  0  0  0
  -16.4618  -25.6350   23.9262 C   0  0  0  0  0  0  0  0  0  0  0  0
  -32.4253  -24.2954   25.1705 C   0  0  0  0  0  0  0  0  0  0  0  0
  -29.9335  -23.8508   24.0132 C   0  0  0  0  0  0  0  0  0  0  0  0
  -26.2812  -20.3432   23.9698 C   0  0  0  0  0  0  0  0  0  0  0  0
  -15.9166  -26.9212   23.9309 C   0  0  0  0  0  0  0  0  0  0  0  0
  -25.9852  -22.5710   15.6404 C   0  0  0  0  0  0  0  0  0  0  0  0
  -26.8152  -24.3234   14.1990 C   0  0  0  0  0  0  0  0  0  0  0  0
  -24.9698  -20.7912   23.8166 C   0  0  0  0  0  0  0  0  0  0  0  0
  -24.6116  -20.3007   13.1539 C   0  0  0  0  0  0  0  0  0  0  0  0
  -23.3676  -19.6703   13.1352 C   0  0  0  0  0  0  0  0  0  0  0  0
  -25.0493  -20.2056   21.4778 C   0  0  0  0  0  0  0  0  0  0  0  0
  -22.2762  -21.8187   13.3090 C   0  0  0  0  0  0  0  0  0  0  0  0
  -16.9337  -30.3379   23.4414 C   0  0  0  0  0  0  0  0  0  0  0  0
  -18.0700  -27.8552   23.4149 C   0  0  0  0  0  0  0  0  0  0  0  0
  -26.8847  -24.5985   16.5982 C   0  0  0  0  0  0  0  0  0  0  0  0
  -17.8145  -25.4545   23.6655 C   0  0  0  0  0  0  0  0  0  0  0  0
  -28.4360  -25.3960   18.4596 C   0  0  0  0  0  0  0  0  0  0  0  0
  -32.3478  -23.6188   23.9430 C   0  0  0  0  0  0  0  0  0  0  0  0
  -26.9913  -19.8322   22.8738 C   0  0  0  0  0  0  0  0  0  0  0  0
  -31.0888  -23.4021   23.3510 C   0  0  0  0  0  0  0  0  0  0  0  0
  -26.3686  -19.7493   21.6203 C   0  0  0  0  0  0  0  0  0  0  0  0
  -18.6186  -26.5615   23.4100 C   0  0  0  0  0  0  0  0  0  0  0  0
  -16.6974  -28.0459   23.6790 C   0  0  0  0  0  0  0  0  0  0  0  0
  -26.2387  -23.0634   14.3602 C   0  0  0  0  0  0  0  0  0  0  0  0
  -24.3547  -20.7252   22.5699 C   0  0  0  0  0  0  0  0  0  0  0  0
  -24.6880  -21.6902   13.2503 C   0  0  0  0  0  0  0  0  0  0  0  0
  -22.1998  -20.4292   13.2127 C   0  0  0  0  0  0  0  0  0  0  0  0
  -23.5203  -22.4492   13.3278 C   0  0  0  0  0  0  0  0  0  0  0  0
  -27.2180  -25.3920   17.7538 C   0  0  0  0  0  0  0  0  0  0  0  0
  -28.2475  -26.3131   19.4646 C   0  0  0  0  0  0  0  0  0  0  0  0
  -18.3550  -24.1014   23.6685 C   0  0  0  0  0  0  0  0  0  0  0  0
  -29.6311  -24.6386   18.2276 C   0  0  0  0  0  0  0  0  0  0  0  0
  -29.6384  -20.6719   21.3274 C   0  0  0  0  0  0  0  0  0  0  0  0
  -29.1330  -17.8846   19.7469 C   0  0  0  0  0  0  0  0  0  0  0  0
  -26.9275  -15.4800   18.7465 C   0  0  0  0  0  0  0  0  0  0  0  0
  -23.5608  -28.3787   22.3305 C   0  0  0  0  0  0  0  0  0  0  0  0
  -33.6272  -23.2033   23.2610 C   0  0  0  0  0  0  0  0  0  0  0  0
  -28.3960  -19.3282   23.0614 C   0  0  0  0  0  0  0  0  0  0  0  0
  -27.0807  -19.1904   20.4165 C   0  0  0  0  0  0  0  0  0  0  0  0
  -33.4195  -22.1783   22.1490 C   0  0  0  0  0  0  0  0  0  0  0  0
  -25.8043  -30.2813   20.5152 C   0  0  0  0  0  0  0  0  0  0  0  0
  -32.2609  -22.5950   21.2485 C   0  0  0  0  0  0  0  0  0  0  0  0
  -26.5493  -29.2521   19.6654 C   0  0  0  0  0  0  0  0  0  0  0  0
  -20.4867  -26.8011   21.7146 C   0  0  0  0  0  0  0  0  0  0  0  0
  -20.9895  -27.0062   24.1874 C   0  0  0  0  0  0  0  0  0  0  0  0
  -24.3157  -29.9598   20.5810 C   0  0  0  0  0  0  0  0  0  0  0  0
  -21.9820  -26.6033   21.4495 C   0  0  0  0  0  0  0  0  0  0  0  0
  -22.4641  -26.7782   23.8681 C   0  0  0  0  0  0  0  0  0  0  0  0
  -24.7547  -27.5478   20.2533 C   0  0  0  0  0  0  0  0  0  0  0  0
  -20.0927  -26.3387   23.1290 C   0  0  0  0  0  0  0  0  0  0  0  0
  -30.9474  -22.6654   22.0367 C   0  0  1  0  0  0  0  0  0  0  0  0
  -29.1999  -19.3030   21.7651 C   0  0  1  0  0  0  0  0  0  0  0  0
  -26.2696  -27.8213   20.1584 C   0  0  1  0  0  0  0  0  0  0  0  0
  -26.8029  -13.3442   17.4349 C   0  0  0  0  0  0  0  0  0  0  0  0
  -29.2950  -19.4743   17.1475 C   0  0  0  0  0  0  0  0  0  0  0  0
  -28.2414  -17.5297   15.9741 C   0  0  0  0  0  0  0  0  0  0  0  0
  -30.4559  -17.2599   17.0902 C   0  0  0  0  0  0  0  0  0  0  0  0
  -26.0089  -13.9486   21.1065 C   0  0  0  0  0  0  0  0  0  0  0  0
  -20.3024  -21.9956   21.9453 C   0  0  0  0  0  0  0  0  0  0  0  0
  -20.8131  -20.5610   21.8080 C   0  0  0  0  0  0  0  0  0  0  0  0
  -18.8197  -22.0568   22.2984 C   0  0  0  0  0  0  0  0  0  0  0  0
  -22.2849  -20.5261   21.4157 C   0  0  0  0  0  0  0  0  0  1  0  0
  -28.3732  -17.4817   18.5062 C   0  0  1  0  0  0  0  0  0  0  0  0
  -26.9920  -13.9647   18.8104 C   0  0  2  0  0  0  0  0  0  0  0  0
  -29.0784  -17.9488   17.2015 C   0  0  0  0  0  0  0  0  0  0  0  0
  -16.1398  -29.2714   23.6913 N   0  0  0  0  0  0  0  0  0  0  0  0
  -26.3219  -26.2392   18.2669 N   0  0  0  0  0  0  0  0  0  0  0  0
  -26.9773  -26.7840   19.3060 N   0  0  0  0  0  0  0  0  0  0  0  0
  -28.4549  -18.7162   20.6493 N   0  0  0  0  0  0  0  0  0  0  0  0
  -24.0920  -28.5923   21.0496 N   0  0  0  0  0  0  0  0  0  0  0  0
  -22.7843  -27.2244   22.5125 N   0  0  0  0  0  0  0  0  0  0  0  0
  -29.0459  -26.7544   20.4597 N   0  0  0  0  0  0  0  0  0  0  0  0
  -29.6549  -23.7411   17.1514 N   0  0  0  0  0  0  0  0  0  0  0  0
  -18.3413  -23.4119   22.4518 N   0  0  0  0  0  0  0  0  0  0  0  0
  -30.4172  -21.3367   22.2552 N   0  0  0  0  0  0  0  0  0  0  0  0
  -28.1793  -16.0386   18.5968 N   0  0  0  0  0  0  0  0  0  0  0  0
  -25.9295  -13.4387   19.7134 N   0  3  0  0  0  0  0  0  0  0  0  0
  -18.7831  -23.5979   24.7205 O   0  0  0  0  0  0  0  0  0  0  0  0
  -30.6420  -24.7422   18.9630 O   0  0  0  0  0  0  0  0  0  0  0  0
  -29.2967  -21.0932   20.2285 O   0  0  0  0  0  0  0  0  0  0  0  0
  -30.2831  -17.4708   19.9127 O   0  0  0  0  0  0  0  0  0  0  0  0
  -25.8720  -16.1054   18.8181 O   0  0  0  0  0  0  0  0  0  0  0  0
  -23.7682  -29.1716   23.2575 O   0  0  0  0  0  0  0  0  0  0  0  0
  -25.9239  -22.3147   13.2680 O   0  0  0  0  0  0  0  0  0  0  0  0
  -23.0658  -21.1656   22.4164 O   0  0  0  0  0  0  0  0  0  1  0  0
  -21.0052  -19.8238   13.1931 F   0  0  0  0  0  0  0  0  0  0  0  0
  -23.5873  -23.7844   13.4193 F   0  0  0  0  0  0  0  0  0  0  0  0
  1  2  1  0  0  0  0
  1  8  2  0  0  0  0
  2  9  2  0  0  0  0
  3  4  2  0  0  0  0
  3 19  1  0  0  0  0
  4 20  1  0  0  0  0
  5 12  2  0  0  0  0
  5 21  1  0  0  0  0
  6 13  1  0  0  0  0
  6 21  2  0  0  0  0
  7 11  2  0  0  0  0
  7 22  1  0  0  0  0
  8 24  1  0  0  0  0
  9 26  1  0  0  0  0
 10 14  2  0  0  0  0
 10 25  1  0  0  0  0
 11 29  1  0  0  0  0
 12 30  1  0  0  0  0
 13 30  2  0  0  0  0
 14 31  1  0  0  0  0
 15 16  2  0  0  0  0
 15 32  1  0  0  0  0
 16 33  1  0  0  0  0
 17 27  1  0  0  0  0
 17 31  2  0  0  0  0
 18 33  2  0  0  0  0
 18 34  1  0  0  0  0
 19 72  2  0  0  0  0
 20 28  1  0  0  0  0
 20 29  2  0  0  0  0
 21 35  1  0  0  0  0
 22 28  2  0  0  0  0
 22 37  1  0  0  0  0
 23 35  1  0  0  0  0
 23 36  2  0  0  0  0
 23 38  1  0  0  0  0
 24 26  2  0  0  0  0
 24 43  1  0  0  0  0
 25 27  2  0  0  0  0
 25 44  1  0  0  0  0
 26 57  1  0  0  0  0
 27 45  1  0  0  0  0
 28 56  1  0  0  0  0
 29 72  1  0  0  0  0
 30 90  1  0  0  0  0
 31 91  1  0  0  0  0
 32 34  2  0  0  0  0
 32 90  1  0  0  0  0
 33 92  1  0  0  0  0
 34 93  1  0  0  0  0
 35 73  2  0  0  0  0
 36 74  1  0  0  0  0
 36 78  1  0  0  0  0
 37 80  1  0  0  0  0
 37 84  2  0  0  0  0
 38 79  1  0  0  0  0
 38 85  2  0  0  0  0
 39 58  1  0  0  0  0
 39 81  1  0  0  0  0
 39 86  2  0  0  0  0
 40 69  1  0  0  0  0
 40 75  1  0  0  0  0
 40 87  2  0  0  0  0
 41 70  1  0  0  0  0
 41 82  1  0  0  0  0
 41 88  2  0  0  0  0
 42 76  1  0  0  0  0
 42 77  1  0  0  0  0
 42 89  2  0  0  0  0
 43 46  1  0  0  0  0
 44 58  1  0  0  0  0
 45 75  1  0  0  0  0
 46 48  1  0  0  0  0
 47 49  1  0  0  0  0
 47 52  1  0  0  0  0
 48 57  1  0  0  0  0
 49 59  1  0  0  0  0
 50 53  1  0  0  0  0
 50 56  1  0  0  0  0
 51 54  1  0  0  0  0
 51 56  1  0  0  0  0
 52 76  1  0  0  0  0
 53 77  1  0  0  0  0
 54 77  1  0  0  0  0
 55 59  1  0  0  0  0
 55 76  1  0  0  0  0
 57 81  1  0  0  0  0
 58 75  1  0  0  0  0
 59 74  1  0  0  0  0
 60 70  1  0  0  0  0
 61 71  1  0  0  0  0
 62 71  1  0  0  0  0
 63 71  1  0  0  0  0
 64 83  1  0  0  0  0
 65 66  1  0  0  0  0
 65 67  1  0  0  0  0
 66 68  1  0  0  0  0
 67 80  1  0  0  0  0
 68 91  1  0  0  0  0
 69 71  1  0  0  0  0
 69 82  1  0  0  0  0
 70 83  1  0  0  0  0
 73 74  1  0  0  0  0
M  CHG  1  83   1
M  ISO  4  42 100  68 101  77 100  91 101
M  END
> <Batch ID>
0004

> <Smiles>
CNC(C)C(=O)NC(C(=O)N1Cc2cc([101O:1][101CH2:1]CCCNC(=O)c3ccc4ncccc4c3C3CC[100N:0]([100C:0](=O)N4CCCC(n5nc(-c6ccc(Oc7ccc(F)cc7F)cc6)c(C(N)=O)c5N)C4)CC3)ccc2CC1C(=O)NC1CCCc2ccccc21)C(C)(C)C

> <Shape>
0.197

> <Color>
0.090

> <Negative vol penalty>
0.000

$$$$

  -OEChem-04042320233D

 85 94  0     1  0  0  0  0  0999 V2000
  -43.1850  -22.1432   26.6913 C   0  0  0  0  0  0  0  0  0  0  0  0
  -28.1708  -19.6200   22.7976 C   0  0  0  0  0  0  0  0  0  0  0  0
  -29.4526  -19.8625   23.3176 C   0  0  0  0  0  0  0  0  0  0  0  0
  -42.0006  -21.4701   26.9734 C   0  0  0  0  0  0  0  0  0  0  0  0
  -23.0189   -9.8997   19.9927 C   0  0  0  0  0  0  0  0  0  0  0  0
  -23.8475   -9.9288   22.2620 C   0  0  0  0  0  0  0  0  0  0  0  0
  -43.1632  -23.5142   26.4388 C   0  0  0  0  0  0  0  0  0  0  0  0
  -27.8724  -18.4065   22.1745 C   0  0  0  0  0  0  0  0  0  0  0  0
  -30.4553  -18.8950   23.2224 C   0  0  0  0  0  0  0  0  0  0  0  0
  -40.7937  -22.1680   27.0042 C   0  0  0  0  0  0  0  0  0  0  0  0
  -37.0781  -19.7314   24.5748 C   0  0  0  0  0  0  0  0  0  0  0  0
  -22.2857   -8.7472   20.2751 C   0  0  0  0  0  0  0  0  0  0  0  0
  -23.1142   -8.7763   22.5445 C   0  0  0  0  0  0  0  0  0  0  0  0
  -36.4718  -18.6677   25.2417 C   0  0  0  0  0  0  0  0  0  0  0  0
  -23.3962   -5.4501   22.0081 C   0  0  0  0  0  0  0  0  0  0  0  0
  -24.0354   -4.4326   22.7163 C   0  0  0  0  0  0  0  0  0  0  0  0
  -34.6312  -20.1046   25.8475 C   0  0  0  0  0  0  0  0  0  0  0  0
  -22.3857   -4.6178   24.4716 C   0  0  0  0  0  0  0  0  0  0  0  0
  -23.7999  -10.4904   20.9861 C   0  0  0  0  0  0  0  0  0  0  0  0
  -24.1319  -13.0151   20.8334 C   0  0  0  0  0  0  0  0  0  0  0  0
  -41.9542  -24.2274   26.4570 C   0  0  0  0  0  0  0  0  0  0  0  0
  -36.4698  -20.9946   24.5484 C   0  0  0  0  0  0  0  0  0  0  0  0
  -28.8738  -17.4560   22.0824 C   0  0  0  0  0  0  0  0  0  0  0  0
  -30.1504  -17.6948   22.6032 C   0  0  0  0  0  0  0  0  0  0  0  0
  -40.7559  -23.5501   26.7530 C   0  0  0  0  0  0  0  0  0  0  0  0
  -35.2307  -21.1820   25.1774 C   0  0  0  0  0  0  0  0  0  0  0  0
  -22.3333   -8.1855   21.5510 C   0  0  0  0  0  0  0  0  0  0  0  0
  -35.2496  -18.8550   25.8806 C   0  0  0  0  0  0  0  0  0  0  0  0
  -22.2517   -6.0516   22.5317 C   0  0  0  0  0  0  0  0  0  0  0  0
  -23.5302   -4.0164   23.9480 C   0  0  0  0  0  0  0  0  0  0  0  0
  -21.7465   -5.6354   23.7634 C   0  0  0  0  0  0  0  0  0  0  0  0
  -24.5580  -11.6806   20.6948 C   0  0  0  0  0  0  0  0  0  0  0  0
  -25.2108  -13.7637   20.4308 C   0  0  0  0  0  0  0  0  0  0  0  0
  -22.8733  -13.5320   21.2858 C   0  0  0  0  0  0  0  0  0  0  0  0
  -31.3871  -15.7953   23.6290 C   0  0  0  0  0  0  0  0  0  0  0  0
  -37.2623  -23.8882   25.5984 C   0  0  0  0  0  0  0  0  0  0  0  0
  -34.5615  -24.7695   24.0327 C   0  0  0  0  0  0  0  0  0  0  0  0
  -31.5127  -23.8761   22.7865 C   0  0  0  0  0  0  0  0  0  0  0  0
  -30.7695  -14.6119   20.7682 C   0  0  0  0  0  0  0  0  0  0  0  0
  -41.9867  -25.7172   26.2244 C   0  0  0  0  0  0  0  0  0  0  0  0
  -37.1239  -22.1248   23.8020 C   0  0  0  0  0  0  0  0  0  0  0  0
  -28.8024  -16.0867   21.4874 C   0  0  0  0  0  0  0  0  0  0  0  0
  -34.5265  -22.5133   25.1612 C   0  0  0  0  0  0  0  0  0  0  0  0
  -40.6181  -26.3142   25.9071 C   0  0  0  0  0  0  0  0  0  0  0  0
  -29.5034  -12.4062   18.1237 C   0  0  0  0  0  0  0  0  0  0  0  0
  -39.5682  -25.7902   26.8819 C   0  0  0  0  0  0  0  0  0  0  0  0
  -28.0818  -12.0972   18.5975 C   0  0  0  0  0  0  0  0  0  0  0  0
  -30.4550  -12.6563   19.2917 C   0  0  0  0  0  0  0  0  0  0  0  0
  -28.5761  -13.3574   20.7238 C   0  0  0  0  0  0  0  0  0  0  0  0
  -31.0333  -16.5124   22.3682 C   0  0  1  0  0  0  0  0  0  0  0  0
  -39.4237  -24.2676   26.7711 C   0  0  1  0  0  0  0  0  0  0  0  0
  -36.6634  -23.4997   24.2763 C   0  0  1  0  0  0  0  0  0  0  0  0
  -27.5741  -13.1734   19.5763 C   0  0  2  0  0  0  0  0  0  0  0  0
  -29.5180  -24.8224   21.5936 C   0  0  0  0  0  0  0  0  0  0  0  0
  -33.6348  -26.0806   26.6274 C   0  0  0  0  0  0  0  0  0  0  0  0
  -31.3188  -26.1578   25.6796 C   0  0  0  0  0  0  0  0  0  0  0  0
  -33.1645  -27.4091   24.5614 C   0  0  0  0  0  0  0  0  0  0  0  0
  -31.8897  -22.0651   20.4763 C   0  0  0  0  0  0  0  0  0  0  0  0
  -32.7359  -16.3753   26.6117 C   0  0  0  0  0  0  0  0  0  0  0  0
  -33.1463  -15.5889   25.3741 C   0  0  0  0  0  0  0  0  0  0  0  0
  -33.2311  -17.8163   26.5897 C   0  0  0  0  0  0  0  0  0  1  0  0
  -33.1022  -24.8867   24.4010 C   0  0  1  0  0  0  0  0  0  0  0  0
  -30.8623  -24.1285   21.4383 C   0  0  2  0  0  0  0  0  0  0  0  0
  -32.8190  -26.1088   25.3195 C   0  0  0  0  0  0  0  0  0  0  0  0
  -25.8099  -11.5837   20.2395 N   0  0  0  0  0  0  0  0  0  0  0  0
  -26.1797  -12.8669   20.0885 N   0  0  0  0  0  0  0  0  0  0  0  0
  -35.2092  -23.5890   24.4235 N   0  0  0  0  0  0  0  0  0  0  0  0
  -30.1905  -15.5861   21.5901 N   0  0  0  0  0  0  0  0  0  0  0  0
  -29.9105  -13.6647   20.1997 N   0  0  0  0  0  0  0  0  0  0  0  0
  -25.4157  -15.0949   20.3397 N   0  0  0  0  0  0  0  0  0  0  0  0
  -21.8742  -12.6237   21.6614 N   0  0  0  0  0  0  0  0  0  0  0  0
  -38.6438  -23.9175   25.6034 N   0  0  0  0  0  0  0  0  0  0  0  0
  -32.6110  -16.1581   24.1581 N   0  0  0  0  0  0  0  0  0  0  0  0
  -32.3636  -24.9009   23.1429 N   0  0  0  0  0  0  0  0  0  0  0  0
  -30.6466  -22.8417   20.7182 N   0  3  0  0  0  0  0  0  0  0  0  0
  -22.6360  -14.7625   21.3393 O   0  0  0  0  0  0  0  0  0  0  0  0
  -30.6084  -14.9715   24.0944 O   0  0  0  0  0  0  0  0  0  0  0  0
  -36.5255  -24.1439   26.5437 O   0  0  0  0  0  0  0  0  0  0  0  0
  -35.1049  -25.6884   23.4146 O   0  0  0  0  0  0  0  0  0  0  0  0
  -31.2855  -22.8722   23.4581 O   0  0  0  0  0  0  0  0  0  0  0  0
  -31.9816  -14.6143   20.5188 O   0  0  0  0  0  0  0  0  0  0  0  0
  -21.6177   -7.0611   21.8270 O   0  0  0  0  0  0  0  0  0  0  0  0
  -34.6516  -17.8112   26.5375 O   0  0  0  0  0  0  0  0  0  1  0  0
  -24.1433   -3.0382   24.6272 F   0  0  0  0  0  0  0  0  0  0  0  0
  -20.6467   -6.2086   24.2710 F   0  0  0  0  0  0  0  0  0  0  0  0
  1  4  1  0  0  0  0
  1  7  2  0  0  0  0
  2  3  1  0  0  0  0
  2  8  2  0  0  0  0
  3  9  2  0  0  0  0
  4 10  2  0  0  0  0
  5 12  2  0  0  0  0
  5 19  1  0  0  0  0
  6 13  1  0  0  0  0
  6 19  2  0  0  0  0
  7 21  1  0  0  0  0
  8 23  1  0  0  0  0
  9 24  1  0  0  0  0
 10 25  1  0  0  0  0
 11 14  2  0  0  0  0
 11 22  1  0  0  0  0
 12 27  1  0  0  0  0
 13 27  2  0  0  0  0
 14 28  1  0  0  0  0
 15 16  2  0  0  0  0
 15 29  1  0  0  0  0
 16 30  1  0  0  0  0
 17 26  1  0  0  0  0
 17 28  2  0  0  0  0
 18 30  2  0  0  0  0
 18 31  1  0  0  0  0
 19 32  1  0  0  0  0
 20 32  1  0  0  0  0
 20 33  2  0  0  0  0
 20 34  1  0  0  0  0
 21 25  2  0  0  0  0
 21 40  1  0  0  0  0
 22 26  2  0  0  0  0
 22 41  1  0  0  0  0
 23 24  2  0  0  0  0
 23 42  1  0  0  0  0
 24 50  1  0  0  0  0
 25 51  1  0  0  0  0
 26 43  1  0  0  0  0
 27 82  1  0  0  0  0
 28 83  1  0  0  0  0
 29 31  2  0  0  0  0
 29 82  1  0  0  0  0
 30 84  1  0  0  0  0
 31 85  1  0  0  0  0
 32 65  2  0  0  0  0
 33 66  1  0  0  0  0
 33 70  1  0  0  0  0
 34 71  1  0  0  0  0
 34 76  2  0  0  0  0
 35 50  1  0  0  0  0
 35 73  1  0  0  0  0
 35 77  2  0  0  0  0
 36 52  1  0  0  0  0
 36 72  1  0  0  0  0
 36 78  2  0  0  0  0
 37 62  1  0  0  0  0
 37 67  1  0  0  0  0
 37 79  2  0  0  0  0
 38 63  1  0  0  0  0
 38 74  1  0  0  0  0
 38 80  2  0  0  0  0
 39 68  1  0  0  0  0
 39 69  1  0  0  0  0
 39 81  2  0  0  0  0
 40 44  1  0  0  0  0
 41 52  1  0  0  0  0
 42 68  1  0  0  0  0
 43 67  1  0  0  0  0
 44 46  1  0  0  0  0
 45 47  1  0  0  0  0
 45 48  1  0  0  0  0
 46 51  1  0  0  0  0
 47 53  1  0  0  0  0
 48 69  1  0  0  0  0
 49 53  1  0  0  0  0
 49 69  1  0  0  0  0
 50 68  1  0  0  0  0
 51 72  1  0  0  0  0
 52 67  1  0  0  0  0
 53 66  1  0  0  0  0
 54 63  1  0  0  0  0
 55 64  1  0  0  0  0
 56 64  1  0  0  0  0
 57 64  1  0  0  0  0
 58 75  1  0  0  0  0
 59 60  1  0  0  0  0
 59 61  1  0  0  0  0
 60 73  1  0  0  0  0
 61 83  1  0  0  0  0
 62 64  1  0  0  0  0
 62 74  1  0  0  0  0
 63 75  1  0  0  0  0
 65 66  1  0  0  0  0
M  CHG  1  75   1
M  ISO  4  39 100  61 101  68 100  83 101
M  END
> <Batch ID>
0004

> <Smiles>
CNC(C)C(=O)NC(C(=O)N1Cc2cc([101O:1][101CH2:1]CCNC(=O)C3c4ccccc4C[100N:0]3[100C:0](=O)N3CCCC(n4nc(-c5ccc(Oc6ccc(F)cc6F)cc5)c(C(N)=O)c4N)C3)ccc2CC1C(=O)NC1CCCc2ccccc21)C(C)(C)C

> <Shape>
0.191

> <Color>
0.189

> <Negative vol penalty>
0.000

$$$$

  -OEChem-04042320233D

 90100  0     1  0  0  0  0  0999 V2000
  -30.9827  -19.4629   13.5891 C   0  0  0  0  0  0  0  0  0  0  0  0
  -31.9553  -18.7440   14.2765 C   0  0  0  0  0  0  0  0  0  0  0  0
  -31.6687  -12.2936   26.2143 C   0  0  0  0  0  0  0  0  0  0  0  0
  -23.2890   -9.7989   19.9146 C   0  0  0  0  0  0  0  0  0  0  0  0
  -23.7434   -9.9408   22.2832 C   0  0  0  0  0  0  0  0  0  0  0  0
  -30.3942  -20.5796   14.1813 C   0  0  0  0  0  0  0  0  0  0  0  0
  -32.3409  -19.1420   15.5560 C   0  0  0  0  0  0  0  0  0  0  0  0
  -34.0021  -15.5084   20.1975 C   0  0  0  0  0  0  0  0  0  0  0  0
  -30.8945  -12.6067   25.0968 C   0  0  0  0  0  0  0  0  0  0  0  0
  -22.5645   -8.6255   20.1238 C   0  0  0  0  0  0  0  0  0  0  0  0
  -23.0189   -8.7674   22.4925 C   0  0  0  0  0  0  0  0  0  0  0  0
  -35.2493  -15.1259   20.6893 C   0  0  0  0  0  0  0  0  0  0  0  0
  -19.7734   -7.8522   22.7154 C   0  0  0  0  0  0  0  0  0  0  0  0
  -18.8728   -7.8297   23.7803 C   0  0  0  0  0  0  0  0  0  0  0  0
  -33.8236  -11.6540   27.1901 C   0  0  0  0  0  0  0  0  0  0  0  0
  -34.9706  -11.6412   24.6559 C   0  0  0  0  0  0  0  0  0  0  0  0
  -32.8182  -12.2840   23.6763 C   0  0  0  0  0  0  0  0  0  0  0  0
  -35.1277  -16.8778   22.3433 C   0  0  0  0  0  0  0  0  0  0  0  0
  -20.0826   -5.9843   24.7643 C   0  0  0  0  0  0  0  0  0  0  0  0
  -33.0293  -11.9722   26.0771 C   0  0  0  0  0  0  0  0  0  0  0  0
  -33.6114  -11.9663   24.7913 C   0  0  0  0  0  0  0  0  0  0  0  0
  -23.8785  -10.4566   20.9942 C   0  0  0  0  0  0  0  0  0  0  0  0
  -24.1343  -12.9868   20.7944 C   0  0  0  0  0  0  0  0  0  0  0  0
  -30.7658  -20.9858   15.4726 C   0  0  0  0  0  0  0  0  0  0  0  0
  -33.3120  -16.5872   20.7689 C   0  0  0  0  0  0  0  0  0  0  0  0
  -31.7578  -20.2660   16.1655 C   0  0  0  0  0  0  0  0  0  0  0  0
  -35.1854  -11.3400   27.0514 C   0  0  0  0  0  0  0  0  0  0  0  0
  -35.7644  -11.3233   25.7719 C   0  0  0  0  0  0  0  0  0  0  0  0
  -33.8707  -17.2703   21.8585 C   0  0  0  0  0  0  0  0  0  0  0  0
  -31.4686  -12.6021   23.8295 C   0  0  0  0  0  0  0  0  0  0  0  0
  -22.4294   -8.1098   21.4128 C   0  0  0  0  0  0  0  0  0  0  0  0
  -35.8136  -15.8125   21.7605 C   0  0  0  0  0  0  0  0  0  0  0  0
  -20.8286   -6.9407   22.6749 C   0  0  0  0  0  0  0  0  0  0  0  0
  -19.0274   -6.8958   24.8048 C   0  0  0  0  0  0  0  0  0  0  0  0
  -20.9831   -6.0069   23.6994 C   0  0  0  0  0  0  0  0  0  0  0  0
  -24.6275  -11.6684   20.7786 C   0  0  0  0  0  0  0  0  0  0  0  0
  -25.2343  -13.7681   20.5374 C   0  0  0  0  0  0  0  0  0  0  0  0
  -37.9992  -12.2266   25.1819 C   0  0  0  0  0  0  0  0  0  0  0  0
  -22.8010  -13.4628   21.0213 C   0  0  0  0  0  0  0  0  0  0  0  0
  -32.3006  -19.4119   19.7192 C   0  0  0  0  0  0  0  0  0  0  0  0
  -30.9175  -19.5685   22.6492 C   0  0  0  0  0  0  0  0  0  0  0  0
  -30.8959  -18.5356   25.9018 C   0  0  0  0  0  0  0  0  0  0  0  0
  -31.0970  -12.9617   21.3639 C   0  0  0  0  0  0  0  0  0  0  0  0
  -30.1357  -22.2273   16.0526 C   0  0  0  0  0  0  0  0  0  0  0  0
  -31.9555  -16.9703   20.2440 C   0  0  0  0  0  0  0  0  0  0  0  0
  -35.9720  -10.9626   28.2812 C   0  0  0  0  0  0  0  0  0  0  0  0
  -33.1614  -18.4224   22.5204 C   0  0  0  0  0  0  0  0  0  0  0  0
  -30.3312  -22.3620   17.5605 C   0  0  0  0  0  0  0  0  0  0  0  0
  -37.4820  -11.0447   28.0803 C   0  0  0  0  0  0  0  0  0  0  0  0
  -29.4576  -13.6630   18.2821 C   0  0  0  0  0  0  0  0  0  0  0  0
  -37.8892  -10.3477   26.7861 C   0  0  0  0  0  0  0  0  0  0  0  0
  -31.7829  -22.0839   17.9375 C   0  0  0  0  0  0  0  0  0  0  0  0
  -27.9872  -13.3569   18.5758 C   0  0  0  0  0  0  0  0  0  0  0  0
  -30.3933  -12.6893   18.9963 C   0  0  0  0  0  0  0  0  0  0  0  0
  -28.7035  -12.2595   20.7367 C   0  0  0  0  0  0  0  0  0  0  0  0
  -37.2267  -10.9975   25.5653 C   0  0  1  0  0  0  0  0  0  0  0  0
  -32.1849  -20.6518   17.5651 C   0  0  1  0  0  0  0  0  0  0  0  0
  -31.5731  -18.4105   20.5711 C   0  0  1  0  0  0  0  0  0  0  0  0
  -27.7248  -13.2540   20.0911 C   0  0  2  0  0  0  0  0  0  0  0  0
  -30.0788  -18.2912   28.2618 C   0  0  0  0  0  0  0  0  0  0  0  0
  -32.3127  -22.2558   23.0262 C   0  0  0  0  0  0  0  0  0  0  0  0
  -31.8438  -22.0763   25.4790 C   0  0  0  0  0  0  0  0  0  0  0  0
  -29.9540  -22.1798   23.8540 C   0  0  0  0  0  0  0  0  0  0  0  0
  -29.2328  -16.1885   25.2058 C   0  0  0  0  0  0  0  0  0  0  0  0
  -39.0228  -14.0956   22.2723 C   0  0  0  0  0  0  0  0  0  0  0  0
  -38.8967  -13.7891   23.7580 C   0  0  0  0  0  0  0  0  0  0  0  0
  -37.6756  -14.3413   21.6038 C   0  0  0  0  0  0  0  0  0  1  0  0
  -31.3433  -20.0730   24.0068 C   0  0  1  0  0  0  0  0  0  0  0  0
  -29.7721  -18.0396   26.7937 C   0  0  2  0  0  0  0  0  0  0  0  0
  -31.3779  -21.6258   24.0780 C   0  0  0  0  0  0  0  0  0  0  0  0
  -25.9388  -11.6114   20.5309 N   0  0  0  0  0  0  0  0  0  0  0  0
  -38.1111  -12.5733   23.9476 N   0  0  0  0  0  0  0  0  0  0  0  0
  -26.2788  -12.9038   20.3887 N   0  0  0  0  0  0  0  0  0  0  0  0
  -31.8404  -18.7632   21.9669 N   0  0  0  0  0  0  0  0  0  0  0  0
  -30.0888  -12.6474   20.4282 N   0  0  0  0  0  0  0  0  0  0  0  0
  -25.4003  -15.1032   20.4263 N   0  0  0  0  0  0  0  0  0  0  0  0
  -21.7900  -12.5246   21.2707 N   0  0  0  0  0  0  0  0  0  0  0  0
  -30.6820  -12.9200   22.6945 N   0  0  0  0  0  0  0  0  0  0  0  0
  -31.6600  -19.7117   18.5322 N   0  0  0  0  0  0  0  0  0  0  0  0
  -30.4454  -19.4504   24.9736 N   0  0  0  0  0  0  0  0  0  0  0  0
  -29.5651  -16.5764   26.6008 N   0  3  0  0  0  0  0  0  0  0  0  0
  -22.5114  -14.6828   20.9871 O   0  0  0  0  0  0  0  0  0  0  0  0
  -33.3637  -19.8792   20.1107 O   0  0  0  0  0  0  0  0  0  0  0  0
  -29.8041  -19.8719   22.2132 O   0  0  0  0  0  0  0  0  0  0  0  0
  -32.0579  -18.1528   26.0193 O   0  0  0  0  0  0  0  0  0  0  0  0
  -32.2369  -13.2734   21.0095 O   0  0  0  0  0  0  0  0  0  0  0  0
  -21.7223   -6.9649   21.6174 O   0  0  0  0  0  0  0  0  0  0  0  0
  -37.0399  -15.4390   22.2455 O   0  0  0  0  0  0  0  0  0  1  0  0
  -18.1633   -6.8752   25.8281 F   0  0  0  0  0  0  0  0  0  0  0  0
  -21.9956   -5.1295   23.6666 F   0  0  0  0  0  0  0  0  0  0  0  0
  1  2  1  0  0  0  0
  1  6  2  0  0  0  0
  2  7  2  0  0  0  0
  3  9  2  0  0  0  0
  3 20  1  0  0  0  0
  4 10  2  0  0  0  0
  4 22  1  0  0  0  0
  5 11  1  0  0  0  0
  5 22  2  0  0  0  0
  6 24  1  0  0  0  0
  7 26  1  0  0  0  0
  8 12  2  0  0  0  0
  8 25  1  0  0  0  0
  9 30  1  0  0  0  0
 10 31  1  0  0  0  0
 11 31  2  0  0  0  0
 12 32  1  0  0  0  0
 13 14  2  0  0  0  0
 13 33  1  0  0  0  0
 14 34  1  0  0  0  0
 15 20  2  0  0  0  0
 15 27  1  0  0  0  0
 16 21  2  0  0  0  0
 16 28  1  0  0  0  0
 17 21  1  0  0  0  0
 17 30  2  0  0  0  0
 18 29  1  0  0  0  0
 18 32  2  0  0  0  0
 19 34  2  0  0  0  0
 19 35  1  0  0  0  0
 20 21  1  0  0  0  0
 22 36  1  0  0  0  0
 23 36  1  0  0  0  0
 23 37  2  0  0  0  0
 23 39  1  0  0  0  0
 24 26  2  0  0  0  0
 24 44  1  0  0  0  0
 25 29  2  0  0  0  0
 25 45  1  0  0  0  0
 26 57  1  0  0  0  0
 27 28  2  0  0  0  0
 27 46  1  0  0  0  0
 28 56  1  0  0  0  0
 29 47  1  0  0  0  0
 30 78  1  0  0  0  0
 31 87  1  0  0  0  0
 32 88  1  0  0  0  0
 33 35  2  0  0  0  0
 33 87  1  0  0  0  0
 34 89  1  0  0  0  0
 35 90  1  0  0  0  0
 36 71  2  0  0  0  0
 37 73  1  0  0  0  0
 37 76  1  0  0  0  0
 38 56  1  0  0  0  0
 38 72  2  0  0  0  0
 39 77  1  0  0  0  0
 39 82  2  0  0  0  0
 40 58  1  0  0  0  0
 40 79  1  0  0  0  0
 40 83  2  0  0  0  0
 41 68  1  0  0  0  0
 41 74  1  0  0  0  0
 41 84  2  0  0  0  0
 42 69  1  0  0  0  0
 42 80  1  0  0  0  0
 42 85  2  0  0  0  0
 43 75  1  0  0  0  0
 43 78  1  0  0  0  0
 43 86  2  0  0  0  0
 44 48  1  0  0  0  0
 45 58  1  0  0  0  0
 46 49  1  0  0  0  0
 47 74  1  0  0  0  0
 48 52  1  0  0  0  0
 49 51  1  0  0  0  0
 50 53  1  0  0  0  0
 50 54  1  0  0  0  0
 51 56  1  0  0  0  0
 52 57  1  0  0  0  0
 53 59  1  0  0  0  0
 54 75  1  0  0  0  0
 55 59  1  0  0  0  0
 55 75  1  0  0  0  0
 57 79  1  0  0  0  0
 58 74  1  0  0  0  0
 59 73  1  0  0  0  0
 60 69  1  0  0  0  0
 61 70  1  0  0  0  0
 62 70  1  0  0  0  0
 63 70  1  0  0  0  0
 64 81  1  0  0  0  0
 65 66  1  0  0  0  0
 65 67  1  0  0  0  0
 66 72  1  0  0  0  0
 67 88  1  0  0  0  0
 68 70  1  0  0  0  0
 68 80  1  0  0  0  0
 69 81  1  0  0  0  0
 71 73  1  0  0  0  0
M  CHG  1  81   1
M  ISO  4  43 100  67 101  78 100  88 101
M  END
> <Batch ID>
0004

> <Smiles>
CNC(C)C(=O)NC(C(=O)N1Cc2cc([101O:1][101CH2:1]CCNC=C3CCCc4cc5ccc([100NH:0][100C:0](=O)N6CCCC(n7nc(-c8ccc(Oc9ccc(F)cc9F)cc8)c(C(N)=O)c7N)C6)cc5cc43)ccc2CC1C(=O)NC1CCCc2ccccc21)C(C)(C)C

> <Shape>
0.149

> <Color>
0.171

> <Negative vol penalty>
0.000

$$$$

  -OEChem-04042320233D

 95104  0     1  0  0  0  0  0999 V2000
  -25.3470  -21.0586   23.7140 C   0  0  0  0  0  0  0  0  0  0  0  0
  -25.9094  -21.8453   24.7141 C   0  0  0  0  0  0  0  0  0  0  0  0
  -23.1272   -9.8757   21.4845 C   0  0  0  0  0  0  0  0  0  0  0  0
  -23.8325  -10.8115   23.5973 C   0  0  0  0  0  0  0  0  0  0  0  0
  -25.2811  -21.5375   22.4062 C   0  0  0  0  0  0  0  0  0  0  0  0
  -26.4071  -23.1111   24.4067 C   0  0  0  0  0  0  0  0  0  0  0  0
  -25.0165  -26.6183   27.7846 C   0  0  0  0  0  0  0  0  0  0  0  0
  -30.4283  -23.4027   26.0271 C   0  0  0  0  0  0  0  0  0  0  0  0
  -32.5385  -22.7773   27.0235 C   0  0  0  0  0  0  0  0  0  0  0  0
  -29.9339  -23.7414   27.2866 C   0  0  0  0  0  0  0  0  0  0  0  0
  -32.0441  -23.1160   28.2831 C   0  0  0  0  0  0  0  0  0  0  0  0
  -32.4140  -18.5785   21.7987 C   0  0  0  0  0  0  0  0  0  0  0  0
  -31.8549  -17.3973   21.3112 C   0  0  0  0  0  0  0  0  0  0  0  0
  -22.4113   -8.8881   22.1609 C   0  0  0  0  0  0  0  0  0  0  0  0
  -23.1164   -9.8239   24.2737 C   0  0  0  0  0  0  0  0  0  0  0  0
  -25.7093  -26.6475   28.9941 C   0  0  0  0  0  0  0  0  0  0  0  0
  -23.0720   -5.9744   23.7416 C   0  0  0  0  0  0  0  0  0  0  0  0
  -23.1906   -4.6617   23.2852 C   0  0  0  0  0  0  0  0  0  0  0  0
  -27.0385  -28.4892   28.1814 C   0  0  0  0  0  0  0  0  0  0  0  0
  -30.2072  -19.5419   21.9959 C   0  0  0  0  0  0  0  0  0  0  0  0
  -20.8112   -4.5904   22.8722 C   0  0  0  0  0  0  0  0  0  0  0  0
  -23.8379  -10.8374   22.2027 C   0  0  0  0  0  0  0  0  0  0  0  0
  -24.1095  -13.1222   21.1010 C   0  0  0  0  0  0  0  0  0  0  0  0
  -25.7695  -22.8136   22.0845 C   0  0  0  0  0  0  0  0  0  0  0  0
  -25.3374  -27.5188   26.7587 C   0  0  0  0  0  0  0  0  0  0  0  0
  -26.3489  -23.6070   23.0932 C   0  0  0  0  0  0  0  0  0  0  0  0
  -26.3466  -28.4711   26.9608 C   0  0  0  0  0  0  0  0  0  0  0  0
  -31.7306  -22.9206   25.8955 C   0  0  0  0  0  0  0  0  0  0  0  0
  -30.7418  -23.5981   28.4146 C   0  0  0  0  0  0  0  0  0  0  0  0
  -31.5902  -19.6508   22.1411 C   0  0  0  0  0  0  0  0  0  0  0  0
  -29.6480  -18.3607   21.5083 C   0  0  0  0  0  0  0  0  0  0  0  0
  -30.4719  -17.2884   21.1659 C   0  0  0  0  0  0  0  0  0  0  0  0
  -22.4058   -8.8622   23.5555 C   0  0  0  0  0  0  0  0  0  0  0  0
  -26.7225  -27.5811   29.1916 C   0  0  0  0  0  0  0  0  0  0  0  0
  -21.8230   -6.5951   23.7633 C   0  0  0  0  0  0  0  0  0  0  0  0
  -22.0602   -3.9697   22.8505 C   0  0  0  0  0  0  0  0  0  0  0  0
  -20.6926   -5.9031   23.3286 C   0  0  0  0  0  0  0  0  0  0  0  0
  -24.5782  -11.8575   21.5045 C   0  0  0  0  0  0  0  0  0  0  0  0
  -25.1879  -13.7068   20.4831 C   0  0  0  0  0  0  0  0  0  0  0  0
  -22.8152  -13.7154   21.2698 C   0  0  0  0  0  0  0  0  0  0  0  0
  -26.4188  -27.2363   23.7830 C   0  0  0  0  0  0  0  0  0  0  0  0
  -25.9144  -30.4398   23.7103 C   0  0  0  0  0  0  0  0  0  0  0  0
  -25.6085  -33.3646   25.4420 C   0  0  0  0  0  0  0  0  0  0  0  0
  -30.6160  -14.9316   20.2879 C   0  0  0  0  0  0  0  0  0  0  0  0
  -25.7193  -23.2692   20.6477 C   0  0  0  0  0  0  0  0  0  0  0  0
  -24.5626  -27.4919   25.4697 C   0  0  0  0  0  0  0  0  0  0  0  0
  -26.7158  -29.4730   25.8986 C   0  0  0  0  0  0  0  0  0  0  0  0
  -25.9293  -24.7716   20.4774 C   0  0  0  0  0  0  0  0  0  0  0  0
  -29.6277  -11.7425   19.0508 C   0  0  0  0  0  0  0  0  0  0  0  0
  -27.1178  -25.2422   21.3097 C   0  0  0  0  0  0  0  0  0  0  0  0
  -28.1873  -11.5922   19.5457 C   0  0  0  0  0  0  0  0  0  0  0  0
  -30.5073  -12.4582   20.0745 C   0  0  0  0  0  0  0  0  0  0  0  0
  -28.5483  -13.5990   21.0389 C   0  0  0  0  0  0  0  0  0  0  0  0
  -26.8772  -24.9953   22.8039 C   0  0  1  0  0  0  0  0  0  0  0  0
  -25.3204  -28.1194   24.3038 C   0  0  1  0  0  0  0  0  0  0  0  0
  -27.6088  -12.9416   20.0147 C   0  0  2  0  0  0  0  0  0  0  0  0
  -25.2371  -35.8235   25.1056 C   0  0  0  0  0  0  0  0  0  0  0  0
  -28.8067  -30.7481   22.7885 C   0  0  0  0  0  0  0  0  0  0  0  0
  -28.6639  -33.1761   23.3823 C   0  0  0  0  0  0  0  0  0  0  0  0
  -27.1739  -32.2362   21.6162 C   0  0  0  0  0  0  0  0  0  0  0  0
  -23.0991  -33.3182   27.0104 C   0  0  0  0  0  0  0  0  0  0  0  0
  -32.2599  -22.5583   24.5492 C   0  0  0  0  0  0  0  0  0  0  0  0
  -30.2099  -23.9642   29.7688 C   0  0  0  0  0  0  0  0  0  0  0  0
  -32.1919  -20.9221   22.6633 C   0  0  0  0  0  0  0  0  0  0  0  0
  -29.5355  -27.3466   31.4320 C   0  0  0  0  0  0  0  0  0  0  0  0
  -29.5556  -25.8318   31.2929 C   0  0  0  0  0  0  0  0  0  0  0  0
  -28.7569  -28.0532   30.3292 C   0  0  0  0  0  0  0  0  0  1  0  0
  -26.7403  -31.6599   24.0394 C   0  0  1  0  0  0  0  0  0  0  0  0
  -24.5789  -34.4775   25.3657 C   0  0  2  0  0  0  0  0  0  0  0  0
  -28.1635  -18.2731   21.3602 C   0  0  0  0  0  0  0  0  0  0  0  0
  -27.8408  -31.9351   22.9761 C   0  0  0  0  0  0  0  0  0  0  0  0
  -25.8548  -11.6502   21.1709 N   0  0  0  0  0  0  0  0  0  0  0  0
  -26.1974  -12.7923   20.5511 N   0  0  0  0  0  0  0  0  0  0  0  0
  -25.9335  -29.4024   24.6533 N   0  0  0  0  0  0  0  0  0  0  0  0
  -29.8984  -13.7304   20.4690 N   0  0  0  0  0  0  0  0  0  0  0  0
  -25.3615  -14.9088   19.8936 N   0  0  0  0  0  0  0  0  0  0  0  0
  -21.8223  -12.9767   21.9276 N   0  0  0  0  0  0  0  0  0  0  0  0
  -29.9232  -16.0802   20.6689 N   0  0  0  0  0  0  0  0  0  0  0  0
  -25.9862  -25.9992   23.3450 N   0  0  0  0  0  0  0  0  0  0  0  0
  -25.7950  -32.7566   24.2186 N   0  0  0  0  0  0  0  0  0  0  0  0
  -23.8163  -34.5662   26.6430 N   0  3  0  0  0  0  0  0  0  0  0  0
  -31.7199  -21.2722   24.0282 N   0  3  0  0  0  0  0  0  0  0  0  0
  -30.1363  -25.4352   29.9887 N   0  3  0  0  0  0  0  0  0  0  0  0
  -22.5423  -14.8600   20.8352 O   0  0  0  0  0  0  0  0  0  0  0  0
  -27.5732  -27.6474   23.7775 O   0  0  0  0  0  0  0  0  0  0  0  0
  -25.2702  -30.4113   22.6587 O   0  0  0  0  0  0  0  0  0  0  0  0
  -26.1919  -33.0671   26.4821 O   0  0  0  0  0  0  0  0  0  0  0  0
  -31.7505  -14.9430   19.8032 O   0  0  0  0  0  0  0  0  0  0  0  0
  -21.7070   -7.8987   24.2159 O   0  0  0  0  0  0  0  0  0  0  0  0
  -27.4007  -27.6113   30.3710 O   0  0  0  0  0  0  0  0  0  1  0  0
  -22.1744   -2.7096   22.4109 F   0  0  0  0  0  0  0  0  0  0  0  0
  -19.4902   -6.4946   23.3460 F   0  0  0  0  0  0  0  0  0  0  0  0
  -27.5106  -19.4107   21.7374 F   0  0  0  0  0  0  0  0  0  0  0  0
  -27.7580  -18.0348   20.0791 F   0  0  0  0  0  0  0  0  0  0  0  0
  -27.6222  -17.2713   22.1107 F   0  0  0  0  0  0  0  0  0  0  0  0
  1  2  1  0  0  0  0
  1  5  2  0  0  0  0
  2  6  2  0  0  0  0
  3 14  2  0  0  0  0
  3 22  1  0  0  0  0
  4 15  1  0  0  0  0
  4 22  2  0  0  0  0
  5 24  1  0  0  0  0
  6 26  1  0  0  0  0
  7 16  2  0  0  0  0
  7 25  1  0  0  0  0
  8 10  2  0  0  0  0
  8 28  1  0  0  0  0
  9 11  1  0  0  0  0
  9 28  2  0  0  0  0
 10 29  1  0  0  0  0
 11 29  2  0  0  0  0
 12 13  2  0  0  0  0
 12 30  1  0  0  0  0
 13 32  1  0  0  0  0
 14 33  1  0  0  0  0
 15 33  2  0  0  0  0
 16 34  1  0  0  0  0
 17 18  2  0  0  0  0
 17 35  1  0  0  0  0
 18 36  1  0  0  0  0
 19 27  1  0  0  0  0
 19 34  2  0  0  0  0
 20 30  2  0  0  0  0
 20 31  1  0  0  0  0
 21 36  2  0  0  0  0
 21 37  1  0  0  0  0
 22 38  1  0  0  0  0
 23 38  1  0  0  0  0
 23 39  2  0  0  0  0
 23 40  1  0  0  0  0
 24 26  2  0  0  0  0
 24 45  1  0  0  0  0
 25 27  2  0  0  0  0
 25 46  1  0  0  0  0
 26 54  1  0  0  0  0
 27 47  1  0  0  0  0
 28 62  1  0  0  0  0
 29 63  1  0  0  0  0
 30 64  1  0  0  0  0
 31 32  2  0  0  0  0
 31 70  1  0  0  0  0
 32 78  1  0  0  0  0
 33 89  1  0  0  0  0
 34 90  1  0  0  0  0
 35 37  2  0  0  0  0
 35 89  1  0  0  0  0
 36 91  1  0  0  0  0
 37 92  1  0  0  0  0
 38 72  2  0  0  0  0
 39 73  1  0  0  0  0
 39 76  1  0  0  0  0
 40 77  1  0  0  0  0
 40 84  2  0  0  0  0
 41 55  1  0  0  0  0
 41 79  1  0  0  0  0
 41 85  2  0  0  0  0
 42 68  1  0  0  0  0
 42 74  1  0  0  0  0
 42 86  2  0  0  0  0
 43 69  1  0  0  0  0
 43 80  1  0  0  0  0
 43 87  2  0  0  0  0
 44 75  1  0  0  0  0
 44 78  1  0  0  0  0
 44 88  2  0  0  0  0
 45 48  1  0  0  0  0
 46 55  1  0  0  0  0
 47 74  1  0  0  0  0
 48 50  1  0  0  0  0
 49 51  1  0  0  0  0
 49 52  1  0  0  0  0
 50 54  1  0  0  0  0
 51 56  1  0  0  0  0
 52 75  1  0  0  0  0
 53 56  1  0  0  0  0
 53 75  1  0  0  0  0
 54 79  1  0  0  0  0
 55 74  1  0  0  0  0
 56 73  1  0  0  0  0
 57 69  1  0  0  0  0
 58 71  1  0  0  0  0
 59 71  1  0  0  0  0
 60 71  1  0  0  0  0
 61 81  1  0  0  0  0
 62 82  1  0  0  0  0
 63 83  1  0  0  0  0
 64 82  1  0  0  0  0
 65 66  1  0  0  0  0
 65 67  1  0  0  0  0
 66 83  1  0  0  0  0
 67 90  1  0  0  0  0
 68 71  1  0  0  0  0
 68 80  1  0  0  0  0
 69 81  1  0  0  0  0
 70 93  1  0  0  0  0
 70 94  1  0  0  0  0
 70 95  1  0  0  0  0
 72 73  1  0  0  0  0
M  CHG  3  81   1  82   1  83   1
M  ISO  4  44 100  67 101  78 100  90 101
M  END
> <Batch ID>
0004

> <Smiles>
CNC(C)C(=O)NC(C(=O)N1Cc2cc([101O:1][101CH2:1]CCNCc3ccc(CNCc4ccc([100NH:0][100C:0](=O)N5CCCC(n6nc(-c7ccc(Oc8ccc(F)cc8F)cc7)c(C(N)=O)c6N)C5)c(C(F)(F)F)c4)cc3)ccc2CC1C(=O)NC1CCCc2ccccc21)C(C)(C)C

> <Shape>
0.231

> <Color>
0.148

> <Negative vol penalty>
0.000

$$$$

  -OEChem-04042320233D

 94104  0     1  0  0  0  0  0999 V2000
  -30.7851  -24.3738   18.5508 C   0  0  0  0  0  0  0  0  0  0  0  0
  -26.5190  -18.9315   23.8670 C   0  0  0  0  0  0  0  0  0  0  0  0
  -31.0537  -24.1104   19.8902 C   0  0  0  0  0  0  0  0  0  0  0  0
  -27.1341  -18.3452   24.9684 C   0  0  0  0  0  0  0  0  0  0  0  0
  -22.6706  -10.1872   20.1627 C   0  0  0  0  0  0  0  0  0  0  0  0
  -24.3243   -9.4119   21.7443 C   0  0  0  0  0  0  0  0  0  0  0  0
  -30.6201  -25.6894   18.1197 C   0  0  0  0  0  0  0  0  0  0  0  0
  -27.1615  -18.9319   22.6295 C   0  0  0  0  0  0  0  0  0  0  0  0
  -31.1585  -25.1627   20.7991 C   0  0  0  0  0  0  0  0  0  0  0  0
  -28.3914  -17.7580   24.8325 C   0  0  0  0  0  0  0  0  0  0  0  0
  -28.6738  -24.2548   25.1173 C   0  0  0  0  0  0  0  0  0  0  0  0
  -21.9388   -9.0151   20.3534 C   0  0  0  0  0  0  0  0  0  0  0  0
  -23.5924   -8.2399   21.9350 C   0  0  0  0  0  0  0  0  0  0  0  0
  -29.2873  -23.4073   26.0388 C   0  0  0  0  0  0  0  0  0  0  0  0
  -20.8466   -7.2711   23.6503 C   0  0  0  0  0  0  0  0  0  0  0  0
  -20.6624   -6.8299   24.9607 C   0  0  0  0  0  0  0  0  0  0  0  0
  -30.0281  -25.3253   27.3004 C   0  0  0  0  0  0  0  0  0  0  0  0
  -34.9787  -18.4071   24.5692 C   0  0  0  0  0  0  0  0  0  0  0  0
  -35.5775  -19.9636   26.3171 C   0  0  0  0  0  0  0  0  0  0  0  0
  -33.3786  -18.9632   26.2918 C   0  0  0  0  0  0  0  0  0  0  0  0
  -21.7910   -4.7624   24.4230 C   0  0  0  0  0  0  0  0  0  0  0  0
  -23.8634  -10.3856   20.8581 C   0  0  0  0  0  0  0  0  0  0  0  0
  -24.1909  -12.9151   20.8999 C   0  0  0  0  0  0  0  0  0  0  0  0
  -30.7133  -26.7577   19.0255 C   0  0  0  0  0  0  0  0  0  0  0  0
  -28.4313  -18.3518   22.4799 C   0  0  0  0  0  0  0  0  0  0  0  0
  -28.7423  -25.6465   25.2748 C   0  0  0  0  0  0  0  0  0  0  0  0
  -30.9959  -26.4940   20.3794 C   0  0  0  0  0  0  0  0  0  0  0  0
  -29.0495  -17.7483   23.5914 C   0  0  0  0  0  0  0  0  0  0  0  0
  -29.4125  -26.1882   26.3809 C   0  0  0  0  0  0  0  0  0  0  0  0
  -35.9113  -19.2594   25.1602 C   0  0  0  0  0  0  0  0  0  0  0  0
  -33.7123  -18.2590   25.1349 C   0  0  0  0  0  0  0  0  0  0  0  0
  -34.3112  -19.8155   26.8829 C   0  0  0  0  0  0  0  0  0  0  0  0
  -22.3997   -8.0415   21.2395 C   0  0  0  0  0  0  0  0  0  0  0  0
  -29.9671  -23.9426   27.1290 C   0  0  0  0  0  0  0  0  0  0  0  0
  -21.5029   -6.4580   22.7263 C   0  0  0  0  0  0  0  0  0  0  0  0
  -21.1346   -5.5755   25.3470 C   0  0  0  0  0  0  0  0  0  0  0  0
  -21.9751   -5.2036   23.1127 C   0  0  0  0  0  0  0  0  0  0  0  0
  -24.6201  -11.5958   20.6612 C   0  0  0  0  0  0  0  0  0  0  0  0
  -25.2696  -13.6941   20.5593 C   0  0  0  0  0  0  0  0  0  0  0  0
  -22.9298  -13.3937   21.3862 C   0  0  0  0  0  0  0  0  0  0  0  0
  -29.9524  -28.0402   23.5690 C   0  0  0  0  0  0  0  0  0  0  0  0
  -28.5131  -29.8649   25.8320 C   0  0  0  0  0  0  0  0  0  0  0  0
  -27.2895  -30.1109   29.0083 C   0  0  0  0  0  0  0  0  0  0  0  0
  -30.7520  -14.7318   20.6711 C   0  0  0  0  0  0  0  0  0  0  0  0
  -30.5743  -28.1660   18.5039 C   0  0  0  0  0  0  0  0  0  0  0  0
  -29.0619  -18.3370   21.1094 C   0  0  0  0  0  0  0  0  0  0  0  0
  -28.0524  -26.5464   24.2865 C   0  0  0  0  0  0  0  0  0  0  0  0
  -29.4977  -27.6749   26.6065 C   0  0  0  0  0  0  0  0  0  0  0  0
  -30.3295  -29.2001   19.5998 C   0  0  0  0  0  0  0  0  0  0  0  0
  -30.5465  -17.9708   21.1131 C   0  0  0  0  0  0  0  0  0  0  0  0
  -29.5612  -12.5066   18.1596 C   0  0  0  0  0  0  0  0  0  0  0  0
  -31.2951  -28.9861   20.7611 C   0  0  0  0  0  0  0  0  0  0  0  0
  -28.1372  -12.1756   18.6096 C   0  0  0  0  0  0  0  0  0  0  0  0
  -30.5092  -12.6517   19.3480 C   0  0  0  0  0  0  0  0  0  0  0  0
  -28.6421  -13.2759   20.8306 C   0  0  0  0  0  0  0  0  0  0  0  0
  -31.0924  -27.6070   21.4002 C   0  0  1  0  0  0  0  0  0  0  0  0
  -30.4267  -17.1295   23.4934 C   0  0  1  0  0  0  0  0  0  0  0  0
  -28.6237  -27.9608   24.2662 C   0  0  1  0  0  0  0  0  0  0  0  0
  -27.6375  -13.1751   19.6700 C   0  0  2  0  0  0  0  0  0  0  0  0
  -30.8416  -16.7945   22.0482 C   0  0  1  0  0  0  0  0  0  0  0  0
  -37.2653  -19.4171   24.5550 C   0  0  0  0  0  0  0  0  0  0  0  0
  -26.2086  -31.7393   30.5823 C   0  0  0  0  0  0  0  0  0  0  0  0
  -31.2075  -31.2291   26.2670 C   0  0  0  0  0  0  0  0  0  0  0  0
  -30.3244  -32.1280   28.4304 C   0  0  0  0  0  0  0  0  0  0  0  0
  -29.2416  -32.7749   26.2783 C   0  0  0  0  0  0  0  0  0  0  0  0
  -24.8611  -28.4374   29.2564 C   0  0  0  0  0  0  0  0  0  0  0  0
  -32.7148  -17.3474   24.5035 C   0  0  0  0  0  0  0  0  0  0  0  0
  -33.9526  -20.5732   28.1272 C   0  0  0  0  0  0  0  0  0  0  0  0
  -32.6225  -22.4561   29.0886 C   0  0  0  0  0  0  0  0  0  0  0  0
  -31.7292  -23.6151   28.6922 C   0  0  0  0  0  0  0  0  0  1  0  0
  -28.9242  -30.4305   27.1699 C   0  0  1  0  0  0  0  0  0  0  0  0
  -25.9764  -30.6539   29.5427 C   0  0  2  0  0  0  0  0  0  0  0  0
  -29.9247  -31.6126   27.0314 C   0  0  0  0  0  0  0  0  0  0  0  0
  -25.8737  -11.5362   20.2041 N   0  0  0  0  0  0  0  0  0  0  0  0
  -26.2414  -12.8278   20.1528 N   0  0  0  0  0  0  0  0  0  0  0  0
  -28.8125  -28.5134   25.6090 N   0  0  0  0  0  0  0  0  0  0  0  0
  -29.9781  -13.6147   20.3157 N   0  0  0  0  0  0  0  0  0  0  0  0
  -25.4722  -15.0287   20.5709 N   0  0  0  0  0  0  0  0  0  0  0  0
  -22.7603  -13.5434   22.7693 N   0  0  0  0  0  0  0  0  0  0  0  0
  -29.9247  -27.6129   22.2552 N   0  0  0  0  0  0  0  0  0  0  0  0
  -27.6884  -30.7720   27.8659 N   0  0  0  0  0  0  0  0  0  0  0  0
  -30.1715  -15.5981   21.5895 N   0  0  0  0  0  0  0  0  0  0  0  0
  -31.4670  -18.0401   24.0790 N   0  3  0  0  0  0  0  0  0  0  0  0
  -25.1823  -29.5616   30.1729 N   0  3  0  0  0  0  0  0  0  0  0  0
  -33.0434  -21.7223   27.8685 N   0  3  0  0  0  0  0  0  0  0  0  0
  -21.9759  -13.6644   20.6179 O   0  0  0  0  0  0  0  0  0  0  0  0
  -30.9299  -28.4595   24.1775 O   0  0  0  0  0  0  0  0  0  0  0  0
  -27.9407  -30.5934   25.0176 O   0  0  0  0  0  0  0  0  0  0  0  0
  -27.9020  -29.1946   29.5521 O   0  0  0  0  0  0  0  0  0  0  0  0
  -31.8746  -14.9445   20.2005 O   0  0  0  0  0  0  0  0  0  0  0  0
  -21.6857   -6.8978   21.4260 O   0  0  0  0  0  0  0  0  0  0  0  0
  -30.5674  -23.1177   28.0296 O   0  0  0  0  0  0  0  0  0  1  0  0
  -20.9590   -5.1525   26.6058 F   0  0  0  0  0  0  0  0  0  0  0  0
  -22.6074   -4.4185   22.2297 F   0  0  0  0  0  0  0  0  0  0  0  0
  1  3  1  0  0  0  0
  1  7  2  0  0  0  0
  2  4  1  0  0  0  0
  2  8  2  0  0  0  0
  3  9  2  0  0  0  0
  4 10  2  0  0  0  0
  5 12  2  0  0  0  0
  5 22  1  0  0  0  0
  6 13  1  0  0  0  0
  6 22  2  0  0  0  0
  7 24  1  0  0  0  0
  8 25  1  0  0  0  0
  9 27  1  0  0  0  0
 10 28  1  0  0  0  0
 11 14  2  0  0  0  0
 11 26  1  0  0  0  0
 12 33  1  0  0  0  0
 13 33  2  0  0  0  0
 14 34  1  0  0  0  0
 15 16  2  0  0  0  0
 15 35  1  0  0  0  0
 16 36  1  0  0  0  0
 17 29  1  0  0  0  0
 17 34  2  0  0  0  0
 18 30  1  0  0  0  0
 18 31  2  0  0  0  0
 19 30  2  0  0  0  0
 19 32  1  0  0  0  0
 20 31  1  0  0  0  0
 20 32  2  0  0  0  0
 21 36  2  0  0  0  0
 21 37  1  0  0  0  0
 22 38  1  0  0  0  0
 23 38  1  0  0  0  0
 23 39  2  0  0  0  0
 23 40  1  0  0  0  0
 24 27  2  0  0  0  0
 24 45  1  0  0  0  0
 25 28  2  0  0  0  0
 25 46  1  0  0  0  0
 26 29  2  0  0  0  0
 26 47  1  0  0  0  0
 27 56  1  0  0  0  0
 28 57  1  0  0  0  0
 29 48  1  0  0  0  0
 30 61  1  0  0  0  0
 31 67  1  0  0  0  0
 32 68  1  0  0  0  0
 33 91  1  0  0  0  0
 34 92  1  0  0  0  0
 35 37  2  0  0  0  0
 35 91  1  0  0  0  0
 36 93  1  0  0  0  0
 37 94  1  0  0  0  0
 38 74  2  0  0  0  0
 39 75  1  0  0  0  0
 39 78  1  0  0  0  0
 40 79  1  0  0  0  0
 40 86  2  0  0  0  0
 41 58  1  0  0  0  0
 41 80  1  0  0  0  0
 41 87  2  0  0  0  0
 42 71  1  0  0  0  0
 42 76  1  0  0  0  0
 42 88  2  0  0  0  0
 43 72  1  0  0  0  0
 43 81  1  0  0  0  0
 43 89  2  0  0  0  0
 44 77  1  0  0  0  0
 44 82  1  0  0  0  0
 44 90  2  0  0  0  0
 45 49  1  0  0  0  0
 46 50  1  0  0  0  0
 47 58  1  0  0  0  0
 48 76  1  0  0  0  0
 49 52  1  0  0  0  0
 50 60  1  0  0  0  0
 51 53  1  0  0  0  0
 51 54  1  0  0  0  0
 52 56  1  0  0  0  0
 53 59  1  0  0  0  0
 54 77  1  0  0  0  0
 55 59  1  0  0  0  0
 55 77  1  0  0  0  0
 56 80  1  0  0  0  0
 57 60  1  0  0  0  0
 57 83  1  0  0  0  0
 58 76  1  0  0  0  0
 59 75  1  0  0  0  0
 60 82  1  0  0  0  0
 62 72  1  0  0  0  0
 63 73  1  0  0  0  0
 64 73  1  0  0  0  0
 65 73  1  0  0  0  0
 66 84  1  0  0  0  0
 67 83  1  0  0  0  0
 68 85  1  0  0  0  0
 69 70  1  0  0  0  0
 69 85  1  0  0  0  0
 70 92  1  0  0  0  0
 71 73  1  0  0  0  0
 71 81  1  0  0  0  0
 72 84  1  0  0  0  0
 74 75  1  0  0  0  0
M  CHG  3  83   1  84   1  85   1
M  ISO  4  44 100  70 101  82 100  92 101
M  END
> <Batch ID>
0004

> <Smiles>
CNC(C)C(=O)NC(C(=O)N1Cc2cc([101O:1][101CH2:1]CNCc3cc(C)cc(CNC4c5ccccc5CCC4[100NH:0][100C:0](=O)N4CCCC(n5nc(-c6ccc(Oc7ccc(F)cc7F)cc6)c(C(N)=O)c5N)C4)c3)ccc2CC1C(=O)NC1CCCc2ccccc21)C(C)(C)C

> <Shape>
0.253

> <Color>
0.165

> <Negative vol penalty>
0.000

$$$$

  -OEChem-04042320233D

 88 98  0     1  0  0  0  0  0999 V2000
  -27.8836  -24.2402   17.0229 C   0  0  0  0  0  0  0  0  0  0  0  0
  -26.7063  -24.5018   17.7164 C   0  0  0  0  0  0  0  0  0  0  0  0
  -17.4496  -21.8547   16.9001 C   0  0  0  0  0  0  0  0  0  0  0  0
  -16.8495  -23.0412   17.3281 C   0  0  0  0  0  0  0  0  0  0  0  0
  -25.9075  -14.2633   20.2102 C   0  0  0  0  0  0  0  0  0  0  0  0
  -23.5072  -14.1030   20.4331 C   0  0  0  0  0  0  0  0  0  0  0  0
  -29.0972  -24.7323   17.5015 C   0  0  0  0  0  0  0  0  0  0  0  0
  -26.7421  -25.2546   18.8896 C   0  0  0  0  0  0  0  0  0  0  0  0
  -23.0754  -28.7427   19.0721 C   0  0  0  0  0  0  0  0  0  0  0  0
  -18.3404  -21.1580   17.7263 C   0  0  0  0  0  0  0  0  0  0  0  0
  -17.1161  -23.5741   18.5936 C   0  0  0  0  0  0  0  0  0  0  0  0
  -26.0488  -13.0281   20.8426 C   0  0  0  0  0  0  0  0  0  0  0  0
  -23.6484  -12.8678   21.0655 C   0  0  0  0  0  0  0  0  0  0  0  0
  -21.7941  -28.3030   19.4019 C   0  0  0  0  0  0  0  0  0  0  0  0
  -23.3576   -9.5046   22.4157 C   0  0  0  0  0  0  0  0  0  0  0  0
  -22.5102   -8.4708   22.0175 C   0  0  0  0  0  0  0  0  0  0  0  0
  -22.1224  -29.0644   21.6672 C   0  0  0  0  0  0  0  0  0  0  0  0
  -23.3784   -8.6255   19.7681 C   0  0  0  0  0  0  0  0  0  0  0  0
  -24.6367  -14.8008   20.0055 C   0  0  0  0  0  0  0  0  0  0  0  0
  -24.3460  -16.3144   17.9728 C   0  0  0  0  0  0  0  0  0  0  0  0
  -29.1466  -25.4997   18.6759 C   0  0  0  0  0  0  0  0  0  0  0  0
  -23.8952  -29.3377   20.0418 C   0  0  0  0  0  0  0  0  0  0  0  0
  -27.9576  -25.7562   19.3851 C   0  0  0  0  0  0  0  0  0  0  0  0
  -23.4127  -29.5132   21.3466 C   0  0  0  0  0  0  0  0  0  0  0  0
  -18.6200  -21.6791   19.0009 C   0  0  0  0  0  0  0  0  0  0  0  0
  -18.0063  -22.8634   19.3993 C   0  0  0  0  0  0  0  0  0  0  0  0
  -24.9192  -12.3303   21.2702 C   0  0  0  0  0  0  0  0  0  0  0  0
  -21.3185  -28.4612   20.7003 C   0  0  0  0  0  0  0  0  0  0  0  0
  -24.2154  -10.0991   21.4901 C   0  0  0  0  0  0  0  0  0  0  0  0
  -22.5206   -8.0312   20.6937 C   0  0  0  0  0  0  0  0  0  0  0  0
  -24.2257   -9.6595   20.1663 C   0  0  0  0  0  0  0  0  0  0  0  0
  -24.4902  -16.0770   19.3529 C   0  0  0  0  0  0  0  0  0  0  0  0
  -24.2443  -17.6801   17.8681 C   0  0  0  0  0  0  0  0  0  0  0  0
  -19.3403  -22.0655   20.9736 C   0  0  0  0  0  0  0  0  0  0  0  0
  -24.3074  -15.3837   16.8829 C   0  0  0  0  0  0  0  0  0  0  0  0
  -26.7055  -28.6268   21.3459 C   0  0  0  0  0  0  0  0  0  0  0  0
  -26.3435  -31.5241   22.7591 C   0  0  0  0  0  0  0  0  0  0  0  0
  -24.2327  -33.9899   23.8132 C   0  0  0  0  0  0  0  0  0  0  0  0
  -22.4516  -21.9338   21.5800 C   0  0  0  0  0  0  0  0  0  0  0  0
  -30.4880  -25.9701   19.1798 C   0  0  0  0  0  0  0  0  0  0  0  0
  -25.2649  -29.8310   19.6634 C   0  0  0  0  0  0  0  0  0  0  0  0
  -24.2457  -30.1642   22.4193 C   0  0  0  0  0  0  0  0  0  0  0  0
  -30.3914  -27.0757   20.2280 C   0  0  0  0  0  0  0  0  0  0  0  0
  -20.3662  -20.5968   24.2282 C   0  0  0  0  0  0  0  0  0  0  0  0
  -25.5765  -21.7254   20.0240 C   0  0  0  0  0  0  0  0  0  0  0  0
  -29.3434  -26.7245   21.2792 C   0  0  0  0  0  0  0  0  0  0  0  0
  -19.2733  -21.1928   23.3501 C   0  0  0  0  0  0  0  0  0  0  0  0
  -25.6605  -20.2744   19.5547 C   0  0  0  0  0  0  0  0  0  0  0  0
  -24.9151  -21.8153   21.3936 C   0  0  0  0  0  0  0  0  0  0  0  0
  -21.4597  -20.2624   23.2256 C   0  0  0  0  0  0  0  0  0  0  0  0
  -23.6047  -19.7581   20.9652 C   0  0  0  0  0  0  0  0  0  0  0  0
  -27.9524  -26.5899   20.6481 C   0  0  1  0  0  0  0  0  0  0  0  0
  -20.0588  -21.9920   22.3018 C   0  0  1  0  0  0  0  0  0  0  0  0
  -26.2056  -29.9571   20.8578 C   0  0  1  0  0  0  0  0  0  0  0  0
  -24.2740  -19.6101   19.5834 C   0  0  2  0  0  0  0  0  0  0  0  0
  -24.2273  -36.2185   24.9668 C   0  0  0  0  0  0  0  0  0  0  0  0
  -26.8081  -30.1366   25.4365 C   0  0  0  0  0  0  0  0  0  0  0  0
  -25.8665  -32.1608   26.5698 C   0  0  0  0  0  0  0  0  0  0  0  0
  -27.9421  -32.3530   25.1995 C   0  0  0  0  0  0  0  0  0  0  0  0
  -23.0430  -35.3349   21.4607 C   0  0  0  0  0  0  0  0  0  0  0  0
  -19.2093  -25.3038   21.5538 C   0  0  0  0  0  0  0  0  0  0  0  0
  -18.7876  -26.5182   22.3826 C   0  0  0  0  0  0  0  0  0  0  0  0
  -18.1429  -24.2033   21.5163 C   0  0  0  0  0  0  0  0  0  0  0  0
  -19.8556  -27.6035   22.3678 C   0  0  0  0  0  0  0  0  0  1  0  0
  -25.7195  -32.0172   24.0422 C   0  0  1  0  0  0  0  0  0  0  0  0
  -24.2719  -35.4962   23.6292 C   0  0  2  0  0  0  0  0  0  0  0  0
  -26.5688  -31.6528   25.2925 C   0  0  0  0  0  0  0  0  0  0  0  0
  -19.4448  -21.1982   19.9918 N   0  0  0  0  0  0  0  0  0  0  0  0
  -24.4815  -17.2017   20.0732 N   0  0  0  0  0  0  0  0  0  0  0  0
  -18.4854  -23.0866   20.6647 N   0  0  0  0  0  0  0  0  0  0  0  0
  -24.3307  -18.1591   19.1422 N   0  0  0  0  0  0  0  0  0  0  0  0
  -25.5804  -30.6241   22.0016 N   0  0  0  0  0  0  0  0  0  0  0  0
  -23.6060  -21.1613   21.4002 N   0  0  0  0  0  0  0  0  0  0  0  0
  -21.3698  -21.3289   22.2265 N   0  0  0  0  0  0  0  0  0  0  0  0
  -24.0903  -18.5061   16.8114 N   0  0  0  0  0  0  0  0  0  0  0  0
  -24.4259  -14.0164   17.1673 N   0  0  0  0  0  0  0  0  0  0  0  0
  -27.3858  -27.8964   20.3903 N   0  0  0  0  0  0  0  0  0  0  0  0
  -25.4998  -33.4486   23.8655 N   0  0  0  0  0  0  0  0  0  0  0  0
  -23.1107  -35.9486   22.8119 N   0  3  0  0  0  0  0  0  0  0  0  0
  -24.1884  -15.7546   15.6905 O   0  0  0  0  0  0  0  0  0  0  0  0
  -26.4912  -28.2889   22.5041 O   0  0  0  0  0  0  0  0  0  0  0  0
  -27.4635  -31.9282   22.4370 O   0  0  0  0  0  0  0  0  0  0  0  0
  -23.1831  -33.3572   23.9054 O   0  0  0  0  0  0  0  0  0  0  0  0
  -22.3962  -23.1111   21.2023 O   0  0  0  0  0  0  0  0  0  0  0  0
  -25.0566  -11.1249   21.8871 O   0  0  0  0  0  0  0  0  0  0  0  0
  -20.0593  -28.0291   21.0274 O   0  0  0  0  0  0  0  0  0  1  0  0
  -21.7079   -7.0373   20.3118 F   0  0  0  0  0  0  0  0  0  0  0  0
  -25.0484  -10.2258   19.2729 F   0  0  0  0  0  0  0  0  0  0  0  0
  1  2  1  0  0  0  0
  1  7  2  0  0  0  0
  2  8  2  0  0  0  0
  3  4  1  0  0  0  0
  3 10  2  0  0  0  0
  4 11  2  0  0  0  0
  5 12  2  0  0  0  0
  5 19  1  0  0  0  0
  6 13  1  0  0  0  0
  6 19  2  0  0  0  0
  7 21  1  0  0  0  0
  8 23  1  0  0  0  0
  9 14  2  0  0  0  0
  9 22  1  0  0  0  0
 10 25  1  0  0  0  0
 11 26  1  0  0  0  0
 12 27  1  0  0  0  0
 13 27  2  0  0  0  0
 14 28  1  0  0  0  0
 15 16  2  0  0  0  0
 15 29  1  0  0  0  0
 16 30  1  0  0  0  0
 17 24  1  0  0  0  0
 17 28  2  0  0  0  0
 18 30  2  0  0  0  0
 18 31  1  0  0  0  0
 19 32  1  0  0  0  0
 20 32  1  0  0  0  0
 20 33  2  0  0  0  0
 20 35  1  0  0  0  0
 21 23  2  0  0  0  0
 21 40  1  0  0  0  0
 22 24  2  0  0  0  0
 22 41  1  0  0  0  0
 23 52  1  0  0  0  0
 24 42  1  0  0  0  0
 25 26  2  0  0  0  0
 25 68  1  0  0  0  0
 26 70  1  0  0  0  0
 27 85  1  0  0  0  0
 28 86  1  0  0  0  0
 29 31  2  0  0  0  0
 29 85  1  0  0  0  0
 30 87  1  0  0  0  0
 31 88  1  0  0  0  0
 32 69  2  0  0  0  0
 33 71  1  0  0  0  0
 33 75  1  0  0  0  0
 34 53  1  0  0  0  0
 34 68  2  0  0  0  0
 34 70  1  0  0  0  0
 35 76  1  0  0  0  0
 35 80  2  0  0  0  0
 36 54  1  0  0  0  0
 36 77  1  0  0  0  0
 36 81  2  0  0  0  0
 37 65  1  0  0  0  0
 37 72  1  0  0  0  0
 37 82  2  0  0  0  0
 38 66  1  0  0  0  0
 38 78  1  0  0  0  0
 38 83  2  0  0  0  0
 39 73  1  0  0  0  0
 39 74  1  0  0  0  0
 39 84  2  0  0  0  0
 40 43  1  0  0  0  0
 41 54  1  0  0  0  0
 42 72  1  0  0  0  0
 43 46  1  0  0  0  0
 44 47  1  0  0  0  0
 44 50  1  0  0  0  0
 45 48  1  0  0  0  0
 45 49  1  0  0  0  0
 46 52  1  0  0  0  0
 47 53  1  0  0  0  0
 48 55  1  0  0  0  0
 49 73  1  0  0  0  0
 50 74  1  0  0  0  0
 51 55  1  0  0  0  0
 51 73  1  0  0  0  0
 52 77  1  0  0  0  0
 53 74  1  0  0  0  0
 54 72  1  0  0  0  0
 55 71  1  0  0  0  0
 56 66  1  0  0  0  0
 57 67  1  0  0  0  0
 58 67  1  0  0  0  0
 59 67  1  0  0  0  0
 60 79  1  0  0  0  0
 61 62  1  0  0  0  0
 61 63  1  0  0  0  0
 62 64  1  0  0  0  0
 63 70  1  0  0  0  0
 64 86  1  0  0  0  0
 65 67  1  0  0  0  0
 65 78  1  0  0  0  0
 66 79  1  0  0  0  0
 69 71  1  0  0  0  0
M  CHG  1  79   1
M  ISO  4  39 100  64 101  74 100  86 101
M  END
> <Batch ID>
0004

> <Smiles>
CNC(C)C(=O)NC(C(=O)N1Cc2cc([101O:1][101CH2:1]CCCn3c(C4CCC[100N:0]4[100C:0](=O)N4CCCC(n5nc(-c6ccc(Oc7ccc(F)cc7F)cc6)c(C(N)=O)c5N)C4)nc4ccccc43)ccc2CC1C(=O)NC1CCCc2ccccc21)C(C)(C)C

> <Shape>
0.264

> <Color>
0.078

> <Negative vol penalty>
0.000

$$$$

  -OEChem-04042320233D

 97106  0     1  0  0  0  0  0999 V2000
  -23.8706  -38.8844   20.4795 C   0  0  0  0  0  0  0  0  0  0  0  0
  -24.7662  -38.0386   19.8330 C   0  0  0  0  0  0  0  0  0  0  0  0
  -19.9646   -2.8402   21.6842 C   0  0  0  0  0  0  0  0  0  0  0  0
  -22.1218   -3.3272   20.7114 C   0  0  0  0  0  0  0  0  0  0  0  0
  -29.5593  -16.0517   16.8374 C   0  0  0  0  0  0  0  0  0  0  0  0
  -23.3251  -38.5129   21.7076 C   0  0  0  0  0  0  0  0  0  0  0  0
  -25.1177  -36.8211   20.4150 C   0  0  0  0  0  0  0  0  0  0  0  0
  -26.9166  -30.1109   18.6675 C   0  0  0  0  0  0  0  0  0  0  0  0
  -26.1462  -11.5285   20.1174 C   0  0  0  0  0  0  0  0  0  0  0  0
  -24.5982  -13.3801   20.2281 C   0  0  0  0  0  0  0  0  0  0  0  0
  -28.6121  -15.2546   17.4799 C   0  0  0  0  0  0  0  0  0  0  0  0
  -25.3322  -10.7963   20.9815 C   0  0  0  0  0  0  0  0  0  0  0  0
  -23.7841  -12.6478   21.0922 C   0  0  0  0  0  0  0  0  0  0  0  0
  -19.6896   -1.9629   20.6352 C   0  0  0  0  0  0  0  0  0  0  0  0
  -21.8469   -2.4499   19.6624 C   0  0  0  0  0  0  0  0  0  0  0  0
  -27.9104  -29.1640   18.9114 C   0  0  0  0  0  0  0  0  0  0  0  0
  -21.8658    0.8889   19.1399 C   0  0  0  0  0  0  0  0  0  0  0  0
  -22.8722    1.7762   18.7585 C   0  0  0  0  0  0  0  0  0  0  0  0
  -30.8452  -16.1697   18.8793 C   0  0  0  0  0  0  0  0  0  0  0  0
  -26.8442  -28.5912   20.9980 C   0  0  0  0  0  0  0  0  0  0  0  0
  -22.8699    0.8242   16.5379 C   0  0  0  0  0  0  0  0  0  0  0  0
  -21.1807   -3.5224   21.7223 C   0  0  0  0  0  0  0  0  0  0  0  0
  -30.6759  -16.5093   17.5371 C   0  0  0  0  0  0  0  0  0  0  0  0
  -22.0870   -4.1219   24.0303 C   0  0  0  0  0  0  0  0  0  0  0  0
  -23.6627  -37.2859   22.3003 C   0  0  0  0  0  0  0  0  0  0  0  0
  -25.8834  -30.3131   19.5938 C   0  0  0  0  0  0  0  0  0  0  0  0
  -24.5773  -36.4334   21.6529 C   0  0  0  0  0  0  0  0  0  0  0  0
  -25.8370  -29.5395   20.7623 C   0  0  0  0  0  0  0  0  0  0  0  0
  -25.7792  -12.8205   19.7407 C   0  0  0  0  0  0  0  0  0  0  0  0
  -24.1512  -11.3559   21.4689 C   0  0  0  0  0  0  0  0  0  0  0  0
  -28.7813  -14.9150   18.8221 C   0  0  0  0  0  0  0  0  0  0  0  0
  -20.6307   -1.7677   19.6244 C   0  0  0  0  0  0  0  0  0  0  0  0
  -27.8759  -28.4060   20.0781 C   0  0  0  0  0  0  0  0  0  0  0  0
  -21.3614   -0.0308   18.2203 C   0  0  0  0  0  0  0  0  0  0  0  0
  -23.3742    1.7438   17.4575 C   0  0  0  0  0  0  0  0  0  0  0  0
  -29.8979  -15.3725   19.5219 C   0  0  0  0  0  0  0  0  0  0  0  0
  -21.8635   -0.0631   16.9193 C   0  0  0  0  0  0  0  0  0  0  0  0
  -21.4651   -4.4292   22.8053 C   0  0  0  0  0  0  0  0  0  0  0  0
  -22.1231   -5.3169   24.7064 C   0  0  0  0  0  0  0  0  0  0  0  0
  -31.6854  -17.3583   16.8536 C   0  0  0  0  0  0  0  0  0  0  0  0
  -22.5876   -2.8683   24.5137 C   0  0  0  0  0  0  0  0  0  0  0  0
  -24.9081  -32.7644   21.3668 C   0  0  0  0  0  0  0  0  0  0  0  0
  -22.4687  -30.7574   22.1038 C   0  0  0  0  0  0  0  0  0  0  0  0
  -21.3310  -27.5496   22.3540 C   0  0  0  0  0  0  0  0  0  0  0  0
  -22.1199  -11.0192   22.9205 C   0  0  0  0  0  0  0  0  0  0  0  0
  -23.0837  -36.9488   23.6515 C   0  0  0  0  0  0  0  0  0  0  0  0
  -24.8041  -31.3197   19.3033 C   0  0  0  0  0  0  0  0  0  0  0  0
  -24.7380  -29.7038   21.7790 C   0  0  0  0  0  0  0  0  0  0  0  0
  -23.2196  -35.4741   24.0216 C   0  0  0  0  0  0  0  0  0  0  0  0
  -19.7697   -9.4691   25.1001 C   0  0  0  0  0  0  0  0  0  0  0  0
  -24.6334  -34.9794   23.7333 C   0  0  0  0  0  0  0  0  0  0  0  0
  -19.9985   -7.9727   24.8750 C   0  0  0  0  0  0  0  0  0  0  0  0
  -19.9235  -10.2673   23.8067 C   0  0  0  0  0  0  0  0  0  0  0  0
  -21.4116   -8.5473   22.8600 C   0  0  0  0  0  0  0  0  0  0  0  0
  -24.9641  -35.0935   22.2403 C   0  0  1  0  0  0  0  0  0  0  0  0
  -24.0840  -31.8026   20.5585 C   0  0  1  0  0  0  0  0  0  0  0  0
  -21.3313   -7.7098   24.1468 C   0  0  2  0  0  0  0  0  0  0  0  0
  -19.3075  -26.2235   23.0208 C   0  0  0  0  0  0  0  0  0  0  0  0
  -23.1187  -31.2487   25.0442 C   0  0  0  0  0  0  0  0  0  0  0  0
  -21.7505  -29.2302   25.6119 C   0  0  0  0  0  0  0  0  0  0  0  0
  -20.6759  -31.1938   24.5108 C   0  0  0  0  0  0  0  0  0  0  0  0
  -21.0523  -26.3934   19.6440 C   0  0  0  0  0  0  0  0  0  0  0  0
  -26.6556  -13.6086   18.8106 C   0  0  0  0  0  0  0  0  0  0  0  0
  -31.6409  -22.5985   17.5982 C   0  0  0  0  0  0  0  0  0  0  0  0
  -31.0340  -23.3383   18.7925 C   0  0  0  0  0  0  0  0  0  0  0  0
  -32.1817  -21.2095   17.9516 C   0  0  0  0  0  0  0  0  0  0  0  0
  -30.5390  -24.7290   18.3886 C   0  0  0  0  0  0  0  0  0  0  0  0
  -32.8169  -20.4836   16.7609 C   0  0  0  0  0  0  0  0  0  0  0  0
  -29.9026  -25.4577   19.5704 C   0  0  0  0  0  0  0  0  0  0  0  0
  -33.3997  -19.1274   17.1497 C   0  0  0  0  0  0  0  0  0  0  0  0
  -29.4460  -26.8581   19.1867 C   0  0  0  0  0  0  0  0  0  1  0  0
  -22.2264  -29.7151   23.1686 C   0  0  1  0  0  0  0  0  0  0  0  0
  -20.0475  -26.8958   21.8748 C   0  0  2  0  0  0  0  0  0  0  0  0
  -21.9648  -30.3449   24.5658 C   0  0  0  0  0  0  0  0  0  0  0  0
  -21.1300   -5.7183   22.7063 N   0  0  0  0  0  0  0  0  0  0  0  0
  -21.5428   -6.2316   23.8777 N   0  0  0  0  0  0  0  0  0  0  0  0
  -23.7093  -30.7052   21.4527 N   0  0  0  0  0  0  0  0  0  0  0  0
  -21.2108   -9.9705   23.1746 N   0  0  0  0  0  0  0  0  0  0  0  0
  -22.5941   -5.6639   25.9229 N   0  0  0  0  0  0  0  0  0  0  0  0
  -22.4703   -1.7399   23.6907 N   0  0  0  0  0  0  0  0  0  0  0  0
  -23.3239  -10.6121   22.3466 N   0  0  0  0  0  0  0  0  0  0  0  0
  -27.8218  -14.1094   19.4698 N   0  0  0  0  0  0  0  0  0  0  0  0
  -32.4062  -18.2261   17.6659 N   0  0  0  0  0  0  0  0  0  0  0  0
  -24.3404  -34.0171   21.5008 N   0  0  0  0  0  0  0  0  0  0  0  0
  -21.1384  -28.8759   22.6783 N   0  0  0  0  0  0  0  0  0  0  0  0
  -20.3459  -25.8660   20.8397 N   0  3  0  0  0  0  0  0  0  0  0  0
  -31.8173  -17.2709   15.6357 O   0  0  0  0  0  0  0  0  0  0  0  0
  -23.1080   -2.7489   25.6488 O   0  0  0  0  0  0  0  0  0  0  0  0
  -25.9791  -32.3968   21.8354 O   0  0  0  0  0  0  0  0  0  0  0  0
  -21.5868  -31.5829   21.8538 O   0  0  0  0  0  0  0  0  0  0  0  0
  -22.3969  -26.9434   22.4363 O   0  0  0  0  0  0  0  0  0  0  0  0
  -21.8613  -12.1884   23.2171 O   0  0  0  0  0  0  0  0  0  0  0  0
  -20.3628   -0.9116   18.6008 O   0  0  0  0  0  0  0  0  0  0  0  0
  -28.8522  -27.4747   20.3207 O   0  0  0  0  0  0  0  0  0  1  0  0
  -24.3417    2.5950   17.0918 F   0  0  0  0  0  0  0  0  0  0  0  0
  -30.0706  -15.0524   20.8123 F   0  0  0  0  0  0  0  0  0  0  0  0
  -21.3837   -0.9451   16.0318 F   0  0  0  0  0  0  0  0  0  0  0  0
  1  2  1  0  0  0  0
  1  6  2  0  0  0  0
  2  7  2  0  0  0  0
  3 14  2  0  0  0  0
  3 22  1  0  0  0  0
  4 15  1  0  0  0  0
  4 22  2  0  0  0  0
  5 11  2  0  0  0  0
  5 23  1  0  0  0  0
  6 25  1  0  0  0  0
  7 27  1  0  0  0  0
  8 16  2  0  0  0  0
  8 26  1  0  0  0  0
  9 12  2  0  0  0  0
  9 29  1  0  0  0  0
 10 13  1  0  0  0  0
 10 29  2  0  0  0  0
 11 31  1  0  0  0  0
 12 30  1  0  0  0  0
 13 30  2  0  0  0  0
 14 32  1  0  0  0  0
 15 32  2  0  0  0  0
 16 33  1  0  0  0  0
 17 18  2  0  0  0  0
 17 34  1  0  0  0  0
 18 35  1  0  0  0  0
 19 23  2  0  0  0  0
 19 36  1  0  0  0  0
 20 28  1  0  0  0  0
 20 33  2  0  0  0  0
 21 35  2  0  0  0  0
 21 37  1  0  0  0  0
 22 38  1  0  0  0  0
 23 40  1  0  0  0  0
 24 38  1  0  0  0  0
 24 39  2  0  0  0  0
 24 41  1  0  0  0  0
 25 27  2  0  0  0  0
 25 46  1  0  0  0  0
 26 28  2  0  0  0  0
 26 47  1  0  0  0  0
 27 55  1  0  0  0  0
 28 48  1  0  0  0  0
 29 63  1  0  0  0  0
 30 81  1  0  0  0  0
 31 36  2  0  0  0  0
 31 82  1  0  0  0  0
 32 93  1  0  0  0  0
 33 94  1  0  0  0  0
 34 37  2  0  0  0  0
 34 93  1  0  0  0  0
 35 95  1  0  0  0  0
 36 96  1  0  0  0  0
 37 97  1  0  0  0  0
 38 75  2  0  0  0  0
 39 76  1  0  0  0  0
 39 79  1  0  0  0  0
 40 83  1  0  0  0  0
 40 87  2  0  0  0  0
 41 80  1  0  0  0  0
 41 88  2  0  0  0  0
 42 56  1  0  0  0  0
 42 84  1  0  0  0  0
 42 89  2  0  0  0  0
 43 72  1  0  0  0  0
 43 77  1  0  0  0  0
 43 90  2  0  0  0  0
 44 73  1  0  0  0  0
 44 85  1  0  0  0  0
 44 91  2  0  0  0  0
 45 78  1  0  0  0  0
 45 81  1  0  0  0  0
 45 92  2  0  0  0  0
 46 49  1  0  0  0  0
 47 56  1  0  0  0  0
 48 77  1  0  0  0  0
 49 51  1  0  0  0  0
 50 52  1  0  0  0  0
 50 53  1  0  0  0  0
 51 55  1  0  0  0  0
 52 57  1  0  0  0  0
 53 78  1  0  0  0  0
 54 57  1  0  0  0  0
 54 78  1  0  0  0  0
 55 84  1  0  0  0  0
 56 77  1  0  0  0  0
 57 76  1  0  0  0  0
 58 73  1  0  0  0  0
 59 74  1  0  0  0  0
 60 74  1  0  0  0  0
 61 74  1  0  0  0  0
 62 86  1  0  0  0  0
 63 82  1  0  0  0  0
 64 65  1  0  0  0  0
 64 66  1  0  0  0  0
 65 67  1  0  0  0  0
 66 68  1  0  0  0  0
 67 69  1  0  0  0  0
 68 70  1  0  0  0  0
 69 71  1  0  0  0  0
 70 83  1  0  0  0  0
 71 94  1  0  0  0  0
 72 74  1  0  0  0  0
 72 85  1  0  0  0  0
 73 86  1  0  0  0  0
 75 76  1  0  0  0  0
M  CHG  1  86   1
M  ISO  4  45 100  71 101  81 100  94 101
M  END
> <Batch ID>
0004

> <Smiles>
CNC(C)C(=O)NC(C(=O)N1Cc2cc([101O:1][101CH2:1]CCCCCCCNC(=O)c3ccc(NCc4ccc([100NH:0][100C:0](=O)N5CCCC(n6nc(-c7ccc(Oc8ccc(F)cc8F)cc7)c(C(N)=O)c6N)C5)cc4)c(F)c3)ccc2CC1C(=O)NC1CCCc2ccccc21)C(C)(C)C

> <Shape>
0.256

> <Color>
0.065

> <Negative vol penalty>
0.000

$$$$

  -OEChem-04042320233D

 85 94  0     1  0  0  0  0  0999 V2000
  -16.8750  -30.3670   24.1384 C   0  0  0  0  0  0  0  0  0  0  0  0
  -18.0929  -30.6557   24.7457 C   0  0  0  0  0  0  0  0  0  0  0  0
  -25.6510  -15.3220   19.7937 C   0  0  0  0  0  0  0  0  0  0  0  0
  -25.2025  -14.9461   22.1378 C   0  0  0  0  0  0  0  0  0  0  0  0
  -16.8049  -29.3840   23.1521 C   0  0  0  0  0  0  0  0  0  0  0  0
  -19.2413  -29.9609   24.3677 C   0  0  0  0  0  0  0  0  0  0  0  0
  -26.3114  -30.8447   23.6273 C   0  0  0  0  0  0  0  0  0  0  0  0
  -25.8247  -13.9507   19.6070 C   0  0  0  0  0  0  0  0  0  0  0  0
  -25.3761  -13.5747   21.9510 C   0  0  0  0  0  0  0  0  0  0  0  0
  -27.5163  -30.2596   24.0140 C   0  0  0  0  0  0  0  0  0  0  0  0
  -23.5836  -10.9818   20.7327 C   0  0  0  0  0  0  0  0  0  0  0  0
  -22.6495  -10.1263   21.3169 C   0  0  0  0  0  0  0  0  0  0  0  0
  -27.2902  -28.6376   22.2428 C   0  0  0  0  0  0  0  0  0  0  0  0
  -24.4088   -9.0839   22.6035 C   0  0  0  0  0  0  0  0  0  0  0  0
  -25.9462  -25.4558   26.0459 C   0  0  0  0  0  0  0  0  0  0  0  0
  -25.3400  -15.8197   21.0592 C   0  0  0  0  0  0  0  0  0  0  0  0
  -26.1068  -18.2524   21.0191 C   0  0  0  0  0  0  0  0  0  0  0  0
  -17.9547  -28.6835   22.7550 C   0  0  0  0  0  0  0  0  0  0  0  0
  -25.5802  -30.3231   22.5505 C   0  0  0  0  0  0  0  0  0  0  0  0
  -19.1862  -28.9667   23.3761 C   0  0  0  0  0  0  0  0  0  0  0  0
  -26.0776  -29.2195   21.8428 C   0  0  0  0  0  0  0  0  0  0  0  0
  -25.6872  -13.0770   20.6856 C   0  0  0  0  0  0  0  0  0  0  0  0
  -28.0045  -29.1541   23.3236 C   0  0  0  0  0  0  0  0  0  0  0  0
  -24.9303  -10.8883   21.0839 C   0  0  0  0  0  0  0  0  0  0  0  0
  -23.0620   -9.1774   22.2523 C   0  0  0  0  0  0  0  0  0  0  0  0
  -25.3429   -9.9393   22.0193 C   0  0  0  0  0  0  0  0  0  0  0  0
  -25.1610  -17.2363   21.2528 C   0  0  0  0  0  0  0  0  0  0  0  0
  -25.3142  -24.2974   25.5601 C   0  0  0  0  0  0  0  0  0  0  0  0
  -27.2939  -25.1713   25.9951 C   0  0  0  0  0  0  0  0  0  0  0  0
  -25.4533  -19.4133   21.3535 C   0  0  0  0  0  0  0  0  0  0  0  0
  -27.4555  -18.1556   20.5423 C   0  0  0  0  0  0  0  0  0  0  0  0
  -23.8563  -24.0616   25.4005 C   0  0  0  0  0  0  0  0  0  0  0  0
  -22.6925  -29.0380   22.2128 C   0  0  0  0  0  0  0  0  0  0  0  0
  -23.4551  -29.1132   19.0608 C   0  0  0  0  0  0  0  0  0  0  0  0
  -26.3628  -28.4273   17.0379 C   0  0  0  0  0  0  0  0  0  0  0  0
  -22.1844  -22.3741   24.7070 C   0  0  0  0  0  0  0  0  0  0  0  0
  -17.8207  -27.5966   21.7180 C   0  0  0  0  0  0  0  0  0  0  0  0
  -24.2955  -30.9821   22.1290 C   0  0  0  0  0  0  0  0  0  0  0  0
  -25.3408  -28.6339   20.6669 C   0  0  0  0  0  0  0  0  0  0  0  0
  -28.4772  -25.9837   26.3680 C   0  0  0  0  0  0  0  0  0  0  0  0
  -19.1534  -27.1674   21.1097 C   0  0  0  0  0  0  0  0  0  0  0  0
  -20.5664  -20.2699   22.3722 C   0  0  0  0  0  0  0  0  0  0  0  0
  -20.1951  -26.9536   22.2033 C   0  0  0  0  0  0  0  0  0  0  0  0
  -21.6953  -19.3798   21.8453 C   0  0  0  0  0  0  0  0  0  0  0  0
  -29.5523  -23.8515   24.3044 C   0  0  0  0  0  0  0  0  0  0  0  0
  -28.5906  -23.1489   25.2578 C   0  0  0  0  0  0  0  0  0  0  0  0
  -20.7212  -20.5588   23.8647 C   0  0  0  0  0  0  0  0  0  0  0  0
  -23.1531  -20.2013   23.7385 C   0  0  0  0  0  0  0  0  0  0  0  0
  -30.3354  -25.0010   24.9336 C   0  0  0  0  0  0  0  0  0  0  0  0
  -20.4585  -28.2519   22.9757 C   0  0  1  0  0  0  0  0  0  0  0  0
  -23.3774  -30.0525   21.3413 C   0  0  1  0  0  0  0  0  0  0  0  0
  -23.0810  -19.9392   22.2255 C   0  0  1  0  0  0  0  0  0  0  0  0
  -27.0462  -29.3378   14.8015 C   0  0  0  0  0  0  0  0  0  0  0  0
  -22.0653  -26.6341   17.9506 C   0  0  0  0  0  0  0  0  0  0  0  0
  -23.8845  -26.4662   16.2387 C   0  0  0  0  0  0  0  0  0  0  0  0
  -22.4031  -28.4726   16.2893 C   0  0  0  0  0  0  0  0  0  0  0  0
  -28.9835  -29.3291   18.0761 C   0  0  0  0  0  0  0  0  0  0  0  0
  -30.3082  -27.4248   25.4809 C   0  0  0  0  0  0  0  0  0  0  0  0
  -29.5306  -28.6628   25.0802 C   0  0  0  0  0  0  0  0  0  1  0  0
  -24.1376  -28.1666   18.1031 C   0  0  1  0  0  0  0  0  0  0  0  0
  -27.2226  -29.4436   16.3083 C   0  0  2  0  0  0  0  0  0  0  0  0
  -23.1288  -27.4350   17.1732 C   0  0  0  0  0  0  0  0  0  0  0  0
  -23.9954  -17.7100   21.7012 N   0  0  0  0  0  0  0  0  0  0  0  0
  -26.1826  -23.3417   25.2233 N   0  0  0  0  0  0  0  0  0  0  0  0
  -27.3778  -23.8997   25.4969 N   0  0  0  0  0  0  0  0  0  0  0  0
  -24.2045  -19.0365   21.7519 N   0  0  0  0  0  0  0  0  0  0  0  0
  -24.0862  -29.3097   20.2973 N   0  0  0  0  0  0  0  0  0  0  0  0
  -22.0557  -21.0942   24.1400 N   0  0  0  0  0  0  0  0  0  0  0  0
  -25.8309  -20.7093   21.3427 N   0  0  0  0  0  0  0  0  0  0  0  0
  -28.4862  -18.0028   21.4797 N   0  0  0  0  0  0  0  0  0  0  0  0
  -23.5004  -22.8123   24.8915 N   0  0  0  0  0  0  0  0  0  0  0  0
  -21.3139  -29.1318   22.2084 N   0  0  0  0  0  0  0  0  0  0  0  0
  -25.1399  -28.9550   17.3946 N   0  0  0  0  0  0  0  0  0  0  0  0
  -29.4602  -26.2005   25.2298 N   0  3  2  0  0  0  0  0  0  0  0  0
  -28.6622  -29.2297   16.6291 N   0  3  0  0  0  0  0  0  0  0  0  0
  -27.7398  -18.2197   19.3223 O   0  0  0  0  0  0  0  0  0  0  0  0
  -23.0673  -24.9348   25.7511 O   0  0  0  0  0  0  0  0  0  0  0  0
  -23.3650  -28.2291   22.8413 O   0  0  0  0  0  0  0  0  0  0  0  0
  -22.4047  -29.6637   18.7214 O   0  0  0  0  0  0  0  0  0  0  0  0
  -26.7371  -27.2788   17.2651 O   0  0  0  0  0  0  0  0  0  0  0  0
  -21.2122  -23.0816   24.9894 O   0  0  0  0  0  0  0  0  0  0  0  0
  -25.8564  -11.7388   20.5037 O   0  0  0  0  0  0  0  0  0  0  0  0
  -29.1800  -28.5806   23.6994 O   0  0  0  0  0  0  0  0  0  1  0  0
  -22.1647   -8.3570   22.8143 F   0  0  0  0  0  0  0  0  0  0  0  0
  -26.6351   -9.8455   22.3616 F   0  0  0  0  0  0  0  0  0  0  0  0
  1  2  1  0  0  0  0
  1  5  2  0  0  0  0
  2  6  2  0  0  0  0
  3  8  2  0  0  0  0
  3 16  1  0  0  0  0
  4  9  1  0  0  0  0
  4 16  2  0  0  0  0
  5 18  1  0  0  0  0
  6 20  1  0  0  0  0
  7 10  2  0  0  0  0
  7 19  1  0  0  0  0
  8 22  1  0  0  0  0
  9 22  2  0  0  0  0
 10 23  1  0  0  0  0
 11 12  2  0  0  0  0
 11 24  1  0  0  0  0
 12 25  1  0  0  0  0
 13 21  1  0  0  0  0
 13 23  2  0  0  0  0
 14 25  2  0  0  0  0
 14 26  1  0  0  0  0
 15 28  1  0  0  0  0
 15 29  2  0  0  0  0
 16 27  1  0  0  0  0
 17 27  1  0  0  0  0
 17 30  2  0  0  0  0
 17 31  1  0  0  0  0
 18 20  2  0  0  0  0
 18 37  1  0  0  0  0
 19 21  2  0  0  0  0
 19 38  1  0  0  0  0
 20 50  1  0  0  0  0
 21 39  1  0  0  0  0
 22 82  1  0  0  0  0
 23 83  1  0  0  0  0
 24 26  2  0  0  0  0
 24 82  1  0  0  0  0
 25 84  1  0  0  0  0
 26 85  1  0  0  0  0
 27 63  2  0  0  0  0
 28 32  1  0  0  0  0
 28 64  2  0  0  0  0
 29 40  1  0  0  0  0
 29 65  1  0  0  0  0
 30 66  1  0  0  0  0
 30 69  1  0  0  0  0
 31 70  1  0  0  0  0
 31 76  2  0  0  0  0
 32 71  1  0  0  0  0
 32 77  2  0  0  0  0
 33 51  1  0  0  0  0
 33 72  1  0  0  0  0
 33 78  2  0  0  0  0
 34 60  1  0  0  0  0
 34 67  1  0  0  0  0
 34 79  2  0  0  0  0
 35 61  1  0  0  0  0
 35 73  1  0  0  0  0
 35 80  2  0  0  0  0
 36 68  1  0  0  0  0
 36 71  1  0  0  0  0
 36 81  2  0  0  0  0
 37 41  1  0  0  0  0
 38 51  1  0  0  0  0
 39 67  1  0  0  0  0
 40 74  1  0  0  0  0
 41 43  1  0  0  0  0
 42 44  1  0  0  0  0
 42 47  1  0  0  0  0
 43 50  1  0  0  0  0
 44 52  1  0  0  0  0
 45 46  1  0  0  0  0
 45 49  1  0  0  0  0
 46 65  1  0  0  0  0
 47 68  1  0  0  0  0
 48 52  1  0  0  0  0
 48 68  1  0  0  0  0
 49 74  1  0  0  0  0
 50 72  1  0  0  0  0
 51 67  1  0  0  0  0
 52 66  1  0  0  0  0
 53 61  1  0  0  0  0
 54 62  1  0  0  0  0
 55 62  1  0  0  0  0
 56 62  1  0  0  0  0
 57 75  1  0  0  0  0
 58 59  1  0  0  0  0
 58 74  1  0  0  0  0
 59 83  1  0  0  0  0
 60 62  1  0  0  0  0
 60 73  1  0  0  0  0
 61 75  1  0  0  0  0
 63 66  1  0  0  0  0
 64 65  1  0  0  0  0
M  CHG  2  74   1  75   1
M  ISO  4  36 100  59 101  71 100  83 101
M  END
> <Batch ID>
0004

> <Smiles>
CNC(C)C(=O)NC(C(=O)N1Cc2cc([101O:1][101CH2:1]CN3CCCn4nc(C(=O)[100NH:0][100C:0](=O)N5CCCC(n6nc(-c7ccc(Oc8ccc(F)cc8F)cc7)c(C(N)=O)c6N)C5)cc4C3)ccc2CC1C(=O)NC1CCCc2ccccc21)C(C)(C)C

> <Shape>
0.209

> <Color>
0.094

> <Negative vol penalty>
0.000

$$$$

  -OEChem-04042320233D

 79 87  0     1  0  0  0  0  0999 V2000
  -26.2557  -33.1308   18.4077 C   0  0  0  0  0  0  0  0  0  0  0  0
  -26.8579  -31.9800   18.9060 C   0  0  0  0  0  0  0  0  0  0  0  0
  -23.1007   -9.8373   19.9341 C   0  0  0  0  0  0  0  0  0  0  0  0
  -23.8695   -9.8462   22.2244 C   0  0  0  0  0  0  0  0  0  0  0  0
  -25.3740  -33.0446   17.3311 C   0  0  0  0  0  0  0  0  0  0  0  0
  -26.5779  -30.7420   18.3287 C   0  0  0  0  0  0  0  0  0  0  0  0
  -30.4333  -26.0292   17.6725 C   0  0  0  0  0  0  0  0  0  0  0  0
  -29.1411  -18.7571   21.0185 C   0  0  0  0  0  0  0  0  0  0  0  0
  -31.3554  -18.5679   20.0707 C   0  0  0  0  0  0  0  0  0  0  0  0
  -28.8580  -19.8089   20.1472 C   0  0  0  0  0  0  0  0  0  0  0  0
  -31.0723  -19.6197   19.1994 C   0  0  0  0  0  0  0  0  0  0  0  0
  -22.3825   -8.6671   20.1797 C   0  0  0  0  0  0  0  0  0  0  0  0
  -23.1512   -8.6760   22.4701 C   0  0  0  0  0  0  0  0  0  0  0  0
  -30.6269  -24.8652   18.4152 C   0  0  0  0  0  0  0  0  0  0  0  0
  -19.9432   -7.8061   23.0802 C   0  0  0  0  0  0  0  0  0  0  0  0
  -19.1920   -7.7429   24.2538 C   0  0  0  0  0  0  0  0  0  0  0  0
  -29.1880  -23.6642   16.8965 C   0  0  0  0  0  0  0  0  0  0  0  0
  -20.4772   -5.8277   24.9732 C   0  0  0  0  0  0  0  0  0  0  0  0
  -23.8443  -10.4268   20.9564 C   0  0  0  0  0  0  0  0  0  0  0  0
  -24.1320  -12.9594   20.8509 C   0  0  0  0  0  0  0  0  0  0  0  0
  -25.0904  -31.8062   16.7341 C   0  0  0  0  0  0  0  0  0  0  0  0
  -29.6055  -26.0219   16.5406 C   0  0  0  0  0  0  0  0  0  0  0  0
  -25.6905  -30.6389   17.2439 C   0  0  0  0  0  0  0  0  0  0  0  0
  -28.9876  -24.8287   16.1397 C   0  0  0  0  0  0  0  0  0  0  0  0
  -30.3898  -18.1366   20.9803 C   0  0  0  0  0  0  0  0  0  0  0  0
  -29.8236  -20.2402   19.2377 C   0  0  0  0  0  0  0  0  0  0  0  0
  -22.4077   -8.0864   21.4477 C   0  0  0  0  0  0  0  0  0  0  0  0
  -30.0019  -23.6832   18.0289 C   0  0  0  0  0  0  0  0  0  0  0  0
  -20.9613   -6.8801   22.8531 C   0  0  0  0  0  0  0  0  0  0  0  0
  -19.4590   -6.7537   25.2003 C   0  0  0  0  0  0  0  0  0  0  0  0
  -21.2283   -5.8909   23.7996 C   0  0  0  0  0  0  0  0  0  0  0  0
  -24.5869  -11.6354   20.7032 C   0  0  0  0  0  0  0  0  0  0  0  0
  -25.2065  -13.7341   20.4881 C   0  0  0  0  0  0  0  0  0  0  0  0
  -22.8525  -13.4455   21.2780 C   0  0  0  0  0  0  0  0  0  0  0  0
  -26.9174  -27.5054   15.7179 C   0  0  0  0  0  0  0  0  0  0  0  0
  -27.4575  -26.0678   12.8607 C   0  0  0  0  0  0  0  0  0  0  0  0
  -28.9270  -23.5185   11.1320 C   0  0  0  0  0  0  0  0  0  0  0  0
  -30.6681  -14.8682   20.6614 C   0  0  0  0  0  0  0  0  0  0  0  0
  -24.0943  -31.7568   15.6028 C   0  0  0  0  0  0  0  0  0  0  0  0
  -29.4283  -27.2796   15.7349 C   0  0  0  0  0  0  0  0  0  0  0  0
  -28.1054  -24.7632   14.9207 C   0  0  0  0  0  0  0  0  0  0  0  0
  -24.1397  -30.4546   14.8075 C   0  0  0  0  0  0  0  0  0  0  0  0
  -29.5717  -12.4749   18.2642 C   0  0  0  0  0  0  0  0  0  0  0  0
  -24.1751  -29.2550   15.7492 C   0  0  0  0  0  0  0  0  0  0  0  0
  -28.1426  -12.1480   18.7009 C   0  0  0  0  0  0  0  0  0  0  0  0
  -30.4888  -12.7077   19.4629 C   0  0  0  0  0  0  0  0  0  0  0  0
  -28.5776  -13.3896   20.8614 C   0  0  0  0  0  0  0  0  0  0  0  0
  -25.4311  -29.2809   16.6286 C   0  0  1  0  0  0  0  0  0  0  0  0
  -28.1542  -27.2771   14.8958 C   0  0  1  0  0  0  0  0  0  0  0  0
  -27.6026  -13.2017   19.6865 C   0  0  2  0  0  0  0  0  0  0  0  0
  -29.1577  -22.5866    8.8134 C   0  0  0  0  0  0  0  0  0  0  0  0
  -24.6287  -24.9379   13.0360 C   0  0  0  0  0  0  0  0  0  0  0  0
  -25.2453  -23.3033   11.2426 C   0  0  0  0  0  0  0  0  0  0  0  0
  -25.2883  -25.7512   10.7649 C   0  0  0  0  0  0  0  0  0  0  0  0
  -31.8638  -23.8847   11.1519 C   0  0  0  0  0  0  0  0  0  0  0  0
  -30.6933  -17.0120   21.9115 C   0  0  0  0  0  0  0  0  0  0  0  0
  -29.5177  -21.3705   18.2996 C   0  0  0  0  0  0  0  0  0  1  0  0
  -27.0774  -24.7449   12.2408 C   0  0  1  0  0  0  0  0  0  0  0  0
  -29.7581  -23.5105    9.8616 C   0  0  2  0  0  0  0  0  0  0  0  0
  -25.5749  -24.6857   11.8452 C   0  0  0  0  0  0  0  0  0  0  0  0
  -25.8518  -11.5690   20.2794 N   0  0  0  0  0  0  0  0  0  0  0  0
  -26.2008  -12.8611   20.1576 N   0  0  0  0  0  0  0  0  0  0  0  0
  -27.9582  -26.0208   14.1695 N   0  0  0  0  0  0  0  0  0  0  0  0
  -29.9201  -13.7188   20.3574 N   0  0  0  0  0  0  0  0  0  0  0  0
  -25.3883  -15.0702   20.4226 N   0  0  0  0  0  0  0  0  0  0  0  0
  -21.8615  -12.5130   21.6135 N   0  0  0  0  0  0  0  0  0  0  0  0
  -26.5846  -28.8373   15.8756 N   0  0  0  0  0  0  0  0  0  0  0  0
  -27.9970  -24.5365   11.1275 N   0  0  0  0  0  0  0  0  0  0  0  0
  -30.0528  -15.7789   21.5116 N   0  0  0  0  0  0  0  0  0  0  0  0
  -31.1456  -23.0516   10.1533 N   0  3  0  0  0  0  0  0  0  0  0  0
  -22.5905  -14.6704   21.3440 O   0  0  0  0  0  0  0  0  0  0  0  0
  -26.3092  -26.5444   16.1741 O   0  0  0  0  0  0  0  0  0  0  0  0
  -27.3221  -27.1040   12.2052 O   0  0  0  0  0  0  0  0  0  0  0  0
  -29.0845  -22.7010   12.0361 O   0  0  0  0  0  0  0  0  0  0  0  0
  -31.7982  -15.0706   20.2045 O   0  0  0  0  0  0  0  0  0  0  0  0
  -21.7068   -6.9447   21.6878 O   0  0  0  0  0  0  0  0  0  0  0  0
  -30.1886  -22.5458   18.7524 O   0  0  0  0  0  0  0  0  0  1  0  0
  -18.7385   -6.6940   26.3279 F   0  0  0  0  0  0  0  0  0  0  0  0
  -22.2060   -4.9993   23.5875 F   0  0  0  0  0  0  0  0  0  0  0  0
  1  2  1  0  0  0  0
  1  5  2  0  0  0  0
  2  6  2  0  0  0  0
  3 12  2  0  0  0  0
  3 19  1  0  0  0  0
  4 13  1  0  0  0  0
  4 19  2  0  0  0  0
  5 21  1  0  0  0  0
  6 23  1  0  0  0  0
  7 14  2  0  0  0  0
  7 22  1  0  0  0  0
  8 10  2  0  0  0  0
  8 25  1  0  0  0  0
  9 11  1  0  0  0  0
  9 25  2  0  0  0  0
 10 26  1  0  0  0  0
 11 26  2  0  0  0  0
 12 27  1  0  0  0  0
 13 27  2  0  0  0  0
 14 28  1  0  0  0  0
 15 16  2  0  0  0  0
 15 29  1  0  0  0  0
 16 30  1  0  0  0  0
 17 24  1  0  0  0  0
 17 28  2  0  0  0  0
 18 30  2  0  0  0  0
 18 31  1  0  0  0  0
 19 32  1  0  0  0  0
 20 32  1  0  0  0  0
 20 33  2  0  0  0  0
 20 34  1  0  0  0  0
 21 23  2  0  0  0  0
 21 39  1  0  0  0  0
 22 24  2  0  0  0  0
 22 40  1  0  0  0  0
 23 48  1  0  0  0  0
 24 41  1  0  0  0  0
 25 56  1  0  0  0  0
 26 57  1  0  0  0  0
 27 76  1  0  0  0  0
 28 77  1  0  0  0  0
 29 31  2  0  0  0  0
 29 76  1  0  0  0  0
 30 78  1  0  0  0  0
 31 79  1  0  0  0  0
 32 61  2  0  0  0  0
 33 62  1  0  0  0  0
 33 65  1  0  0  0  0
 34 66  1  0  0  0  0
 34 71  2  0  0  0  0
 35 49  1  0  0  0  0
 35 67  1  0  0  0  0
 35 72  2  0  0  0  0
 36 58  1  0  0  0  0
 36 63  1  0  0  0  0
 36 73  2  0  0  0  0
 37 59  1  0  0  0  0
 37 68  1  0  0  0  0
 37 74  2  0  0  0  0
 38 64  1  0  0  0  0
 38 69  1  0  0  0  0
 38 75  2  0  0  0  0
 39 42  1  0  0  0  0
 40 49  1  0  0  0  0
 41 63  1  0  0  0  0
 42 44  1  0  0  0  0
 43 45  1  0  0  0  0
 43 46  1  0  0  0  0
 44 48  1  0  0  0  0
 45 50  1  0  0  0  0
 46 64  1  0  0  0  0
 47 50  1  0  0  0  0
 47 64  1  0  0  0  0
 48 67  1  0  0  0  0
 49 63  1  0  0  0  0
 50 62  1  0  0  0  0
 51 59  1  0  0  0  0
 52 60  1  0  0  0  0
 53 60  1  0  0  0  0
 54 60  1  0  0  0  0
 55 70  1  0  0  0  0
 56 69  1  0  0  0  0
 57 77  1  0  0  0  0
 58 60  1  0  0  0  0
 58 68  1  0  0  0  0
 59 70  1  0  0  0  0
 61 62  1  0  0  0  0
M  CHG  1  70   1
M  ISO  4  38 100  57 101  69 100  77 101
M  END
> <Batch ID>
0004

> <Smiles>
CNC(C)C(=O)NC(C(=O)N1Cc2cc([101O:1][101CH2:1]c3ccc(C[100NH:0][100C:0](=O)N4CCCC(n5nc(-c6ccc(Oc7ccc(F)cc7F)cc6)c(C(N)=O)c5N)C4)cc3)ccc2CC1C(=O)NC1CCCc2ccccc21)C(C)(C)C

> <Shape>
0.232

> <Color>
0.203

> <Negative vol penalty>
0.000

$$$$

  -OEChem-04042320233D

 82 90  0     1  0  0  0  0  0999 V2000
  -29.8847  -25.5438   18.4480 C   0  0  0  0  0  0  0  0  0  0  0  0
  -30.2654  -24.5106   17.9680 C   0  0  0  0  0  0  0  0  0  0  0  0
  -27.4810  -34.4492   25.2349 C   0  0  0  0  0  0  0  0  0  0  0  0
  -27.7573  -33.1903   24.7113 C   0  0  0  0  0  0  0  0  0  0  0  0
  -31.6962  -20.3726   19.6866 C   0  0  0  0  0  0  0  0  0  0  0  0
  -24.1344  -12.7505   20.6140 C   0  0  0  0  0  0  0  0  0  0  0  0
  -26.5400  -12.8900   20.7895 C   0  0  0  0  0  0  0  0  0  0  0  0
  -26.1804  -34.7730   25.6190 C   0  0  0  0  0  0  0  0  0  0  0  0
  -26.7333  -32.2541   24.5724 C   0  0  0  0  0  0  0  0  0  0  0  0
  -26.8573  -29.8891   20.0962 C   0  0  0  0  0  0  0  0  0  0  0  0
  -31.7871  -21.4238   18.7742 C   0  0  0  0  0  0  0  0  0  0  0  0
  -30.4530  -19.9958   20.1947 C   0  0  0  0  0  0  0  0  0  0  0  0
  -24.2545  -11.5409   19.9298 C   0  0  0  0  0  0  0  0  0  0  0  0
  -26.6601  -11.6803   20.1054 C   0  0  0  0  0  0  0  0  0  0  0  0
  -27.7983  -28.8724   19.9390 C   0  0  0  0  0  0  0  0  0  0  0  0
  -24.8371   -8.2976   20.6877 C   0  0  0  0  0  0  0  0  0  0  0  0
  -23.9945   -7.2525   21.0661 C   0  0  0  0  0  0  0  0  0  0  0  0
  -26.0804  -27.2280   20.3434 C   0  0  0  0  0  0  0  0  0  0  0  0
  -29.3918  -21.7214   18.8783 C   0  0  0  0  0  0  0  0  0  0  0  0
  -23.0717   -7.1884   18.8342 C   0  0  0  0  0  0  0  0  0  0  0  0
  -25.2772  -13.4251   21.0438 C   0  0  0  0  0  0  0  0  0  0  0  0
  -25.0420  -14.8576   23.1414 C   0  0  0  0  0  0  0  0  0  0  0  0
  -25.1381  -33.8437   25.4757 C   0  0  0  0  0  0  0  0  0  0  0  0
  -25.5207  -29.5827   20.3894 C   0  0  0  0  0  0  0  0  0  0  0  0
  -25.4178  -32.5653   24.9561 C   0  0  0  0  0  0  0  0  0  0  0  0
  -25.1238  -28.2425   20.5013 C   0  0  0  0  0  0  0  0  0  0  0  0
  -30.6350  -22.0982   18.3701 C   0  0  0  0  0  0  0  0  0  0  0  0
  -29.3008  -20.6702   19.7906 C   0  0  0  0  0  0  0  0  0  0  0  0
  -25.5172  -11.0058   19.6755 C   0  0  0  0  0  0  0  0  0  0  0  0
  -27.4105  -27.5418   20.0655 C   0  0  0  0  0  0  0  0  0  0  0  0
  -24.7970   -8.7883   19.3825 C   0  0  0  0  0  0  0  0  0  0  0  0
  -23.1118   -6.6978   20.1394 C   0  0  0  0  0  0  0  0  0  0  0  0
  -23.9143   -8.2336   18.4558 C   0  0  0  0  0  0  0  0  0  0  0  0
  -25.1539  -14.6749   21.7501 C   0  0  0  0  0  0  0  0  0  0  0  0
  -24.9522  -16.2186   23.3029 C   0  0  0  0  0  0  0  0  0  0  0  0
  -25.0212  -13.8841   24.1939 C   0  0  0  0  0  0  0  0  0  0  0  0
  -23.5566  -30.2017   22.8107 C   0  0  0  0  0  0  0  0  0  0  0  0
  -21.3593  -28.8054   20.8757 C   0  0  0  0  0  0  0  0  0  0  0  0
  -20.7138  -26.6717   18.2917 C   0  0  0  0  0  0  0  0  0  0  0  0
  -26.7977  -20.8506   20.0099 C   0  0  0  0  0  0  0  0  0  0  0  0
  -23.7571  -34.2230   25.9487 C   0  0  0  0  0  0  0  0  0  0  0  0
  -24.5124  -30.6899   20.5295 C   0  0  0  0  0  0  0  0  0  0  0  0
  -23.6970  -27.8599   20.7952 C   0  0  0  0  0  0  0  0  0  0  0  0
  -22.6586  -33.3042   25.4204 C   0  0  0  0  0  0  0  0  0  0  0  0
  -23.4592  -20.1674   21.0418 C   0  0  0  0  0  0  0  0  0  0  0  0
  -23.0645  -31.8421   25.5764 C   0  0  0  0  0  0  0  0  0  0  0  0
  -23.5061  -18.6997   21.4729 C   0  0  0  0  0  0  0  0  0  0  0  0
  -24.3546  -20.4323   19.8327 C   0  0  0  0  0  0  0  0  0  0  0  0
  -25.7925  -18.5174   20.4115 C   0  0  0  0  0  0  0  0  0  0  0  0
  -24.3292  -31.5312   24.7669 C   0  0  1  0  0  0  0  0  0  0  0  0
  -23.2834  -30.2805   21.3353 C   0  0  1  0  0  0  0  0  0  0  0  0
  -24.9565  -18.2152   21.6659 C   0  0  2  0  0  0  0  0  0  0  0  0
  -29.9800  -22.9397   16.0800 C   0  0  0  0  0  0  0  0  0  0  0  0
  -18.8179  -25.7053   16.9616 C   0  0  0  0  0  0  0  0  0  0  0  0
  -20.6860  -26.9406   23.1950 C   0  0  0  0  0  0  0  0  0  0  0  0
  -19.5257  -25.4404   21.5606 C   0  0  0  0  0  0  0  0  0  0  0  0
  -18.7046  -27.7693   21.9137 C   0  0  0  0  0  0  0  0  0  0  0  0
  -21.7294  -27.8466   15.7723 C   0  0  0  0  0  0  0  0  0  0  0  0
  -29.4203  -26.8013   19.0318 C   0  0  0  0  0  0  0  0  0  1  0  0
  -30.7345  -23.2415   17.3777 C   0  0  1  0  0  0  0  0  0  0  0  0
  -20.8678  -27.3944   20.6598 C   0  0  1  0  0  0  0  0  0  0  0  0
  -19.8470  -26.8211   17.0544 C   0  0  2  0  0  0  0  0  0  0  0  0
  -19.9734  -26.8931   21.8286 C   0  0  0  0  0  0  0  0  0  0  0  0
  -25.1368  -15.8276   21.0756 N   0  0  0  0  0  0  0  0  0  0  0  0
  -25.0130  -16.7477   22.0473 N   0  0  0  0  0  0  0  0  0  0  0  0
  -22.7496  -28.9787   20.9298 N   0  0  0  0  0  0  0  0  0  0  0  0
  -25.7137  -19.9510   20.0898 N   0  0  0  0  0  0  0  0  0  0  0  0
  -24.8278  -17.0024   24.3949 N   0  0  0  0  0  0  0  0  0  0  0  0
  -25.1239  -12.5287   23.8524 N   0  0  0  0  0  0  0  0  0  0  0  0
  -28.0381  -20.2867   20.3065 N   0  0  0  0  0  0  0  0  0  0  0  0
  -24.0077  -31.3852   23.3634 N   0  0  0  0  0  0  0  0  0  0  0  0
  -20.2097  -27.3861   19.3578 N   0  0  0  0  0  0  0  0  0  0  0  0
  -20.6887  -26.7877   15.8251 N   0  3  0  0  0  0  0  0  0  0  0  0
  -24.8981  -14.2057   25.4001 O   0  0  0  0  0  0  0  0  0  0  0  0
  -23.3705  -29.1458   23.4041 O   0  0  0  0  0  0  0  0  0  0  0  0
  -20.5401  -29.7211   20.9849 O   0  0  0  0  0  0  0  0  0  0  0  0
  -21.7339  -25.9864   18.3115 O   0  0  0  0  0  0  0  0  0  0  0  0
  -26.6341  -22.0404   19.7277 O   0  0  0  0  0  0  0  0  0  0  0  0
  -25.6347   -9.8254   19.0081 O   0  0  0  0  0  0  0  0  0  0  0  0
  -28.3271  -26.5475   19.9133 O   0  0  0  0  0  0  0  0  0  1  0  0
  -22.3038   -5.6931   20.5025 F   0  0  0  0  0  0  0  0  0  0  0  0
  -23.8720   -8.6999   17.2002 F   0  0  0  0  0  0  0  0  0  0  0  0
  1  2  3  0  0  0  0
  1 59  1  0  0  0  0
  2 60  1  0  0  0  0
  3  4  1  0  0  0  0
  3  8  2  0  0  0  0
  4  9  2  0  0  0  0
  5 11  2  0  0  0  0
  5 12  1  0  0  0  0
  6 13  2  0  0  0  0
  6 21  1  0  0  0  0
  7 14  1  0  0  0  0
  7 21  2  0  0  0  0
  8 23  1  0  0  0  0
  9 25  1  0  0  0  0
 10 15  2  0  0  0  0
 10 24  1  0  0  0  0
 11 27  1  0  0  0  0
 12 28  2  0  0  0  0
 13 29  1  0  0  0  0
 14 29  2  0  0  0  0
 15 30  1  0  0  0  0
 16 17  2  0  0  0  0
 16 31  1  0  0  0  0
 17 32  1  0  0  0  0
 18 26  1  0  0  0  0
 18 30  2  0  0  0  0
 19 27  2  0  0  0  0
 19 28  1  0  0  0  0
 20 32  2  0  0  0  0
 20 33  1  0  0  0  0
 21 34  1  0  0  0  0
 22 34  1  0  0  0  0
 22 35  2  0  0  0  0
 22 36  1  0  0  0  0
 23 25  2  0  0  0  0
 23 41  1  0  0  0  0
 24 26  2  0  0  0  0
 24 42  1  0  0  0  0
 25 50  1  0  0  0  0
 26 43  1  0  0  0  0
 27 60  1  0  0  0  0
 28 70  1  0  0  0  0
 29 79  1  0  0  0  0
 30 80  1  0  0  0  0
 31 33  2  0  0  0  0
 31 79  1  0  0  0  0
 32 81  1  0  0  0  0
 33 82  1  0  0  0  0
 34 64  2  0  0  0  0
 35 65  1  0  0  0  0
 35 68  1  0  0  0  0
 36 69  1  0  0  0  0
 36 74  2  0  0  0  0
 37 51  1  0  0  0  0
 37 71  1  0  0  0  0
 37 75  2  0  0  0  0
 38 61  1  0  0  0  0
 38 66  1  0  0  0  0
 38 76  2  0  0  0  0
 39 62  1  0  0  0  0
 39 72  1  0  0  0  0
 39 77  2  0  0  0  0
 40 67  1  0  0  0  0
 40 70  1  0  0  0  0
 40 78  2  0  0  0  0
 41 44  1  0  0  0  0
 42 51  1  0  0  0  0
 43 66  1  0  0  0  0
 44 46  1  0  0  0  0
 45 47  1  0  0  0  0
 45 48  1  0  0  0  0
 46 50  1  0  0  0  0
 47 52  1  0  0  0  0
 48 67  1  0  0  0  0
 49 52  1  0  0  0  0
 49 67  1  0  0  0  0
 50 71  1  0  0  0  0
 51 66  1  0  0  0  0
 52 65  1  0  0  0  0
 53 60  1  0  0  0  0
 54 62  1  0  0  0  0
 55 63  1  0  0  0  0
 56 63  1  0  0  0  0
 57 63  1  0  0  0  0
 58 73  1  0  0  0  0
 59 80  1  0  0  0  0
 61 63  1  0  0  0  0
 61 72  1  0  0  0  0
 62 73  1  0  0  0  0
 64 65  1  0  0  0  0
M  CHG  1  73   1
M  ISO  4  40 100  59 101  70 100  80 101
M  END
> <Batch ID>
0004

> <Smiles>
CNC(C)C(=O)NC(C(=O)N1Cc2cc([101O:1][101CH2:1]C#CC(C)c3cccc([100NH:0][100C:0](=O)N4CCCC(n5nc(-c6ccc(Oc7ccc(F)cc7F)cc6)c(C(N)=O)c5N)C4)c3)ccc2CC1C(=O)NC1CCCc2ccccc21)C(C)(C)C

> <Shape>
0.247

> <Color>
0.080

> <Negative vol penalty>
0.000

$$$$

  -OEChem-04042320233D

 89 99  0     1  0  0  0  0  0999 V2000
  -18.4842  -28.4321   23.3812 C   0  0  0  0  0  0  0  0  0  0  0  0
  -19.7922  -28.3708   23.8512 C   0  0  0  0  0  0  0  0  0  0  0  0
  -22.2196  -15.9160   21.9885 C   0  0  0  0  0  0  0  0  0  0  0  0
  -21.6548  -15.1318   19.7742 C   0  0  0  0  0  0  0  0  0  0  0  0
  -18.1498  -27.8232   22.1724 C   0  0  0  0  0  0  0  0  0  0  0  0
  -20.7663  -27.6994   23.1131 C   0  0  0  0  0  0  0  0  0  0  0  0
  -32.3729  -17.6384   23.7591 C   0  0  0  0  0  0  0  0  0  0  0  0
  -26.6862  -29.1875   22.6171 C   0  0  0  0  0  0  0  0  0  0  0  0
  -31.4966  -17.4183   22.6997 C   0  0  0  0  0  0  0  0  0  0  0  0
  -20.9646  -16.5152   22.0964 C   0  0  0  0  0  0  0  0  0  0  0  0
  -20.3998  -15.7309   19.8821 C   0  0  0  0  0  0  0  0  0  0  0  0
  -27.8295  -28.7136   23.2591 C   0  0  0  0  0  0  0  0  0  0  0  0
  -19.4457  -19.3287   21.0001 C   0  0  0  0  0  0  0  0  0  0  0  0
  -19.3897  -20.6269   21.5070 C   0  0  0  0  0  0  0  0  0  0  0  0
  -28.2385  -27.2163   21.4124 C   0  0  0  0  0  0  0  0  0  0  0  0
  -17.9878  -19.8590   23.3187 C   0  0  0  0  0  0  0  0  0  0  0  0
  -22.5647  -15.2243   20.8274 C   0  0  0  0  0  0  0  0  0  0  0  0
  -24.2128  -13.2949   21.0894 C   0  0  0  0  0  0  0  0  0  0  0  0
  -19.1223  -27.1523   21.4143 C   0  0  0  0  0  0  0  0  0  0  0  0
  -32.2843  -18.7980   24.5348 C   0  0  0  0  0  0  0  0  0  0  0  0
  -26.3039  -28.6707   21.3708 C   0  0  0  0  0  0  0  0  0  0  0  0
  -20.4442  -27.0797   21.8936 C   0  0  0  0  0  0  0  0  0  0  0  0
  -27.0914  -27.6872   20.7555 C   0  0  0  0  0  0  0  0  0  0  0  0
  -31.2843  -19.7491   24.2468 C   0  0  0  0  0  0  0  0  0  0  0  0
  -30.4218  -19.5506   23.1309 C   0  0  0  0  0  0  0  0  0  0  0  0
  -30.5194  -18.3643   22.3611 C   0  0  0  0  0  0  0  0  0  0  0  0
  -20.0547  -16.4227   21.0432 C   0  0  0  0  0  0  0  0  0  0  0  0
  -28.6042  -27.7258   22.6581 C   0  0  0  0  0  0  0  0  0  0  0  0
  -18.7727  -18.2955   21.6524 C   0  0  0  0  0  0  0  0  0  0  0  0
  -18.6607  -20.8921   22.6663 C   0  0  0  0  0  0  0  0  0  0  0  0
  -18.0438  -18.5607   22.8117 C   0  0  0  0  0  0  0  0  0  0  0  0
  -23.8611  -14.6056   20.7151 C   0  0  0  0  0  0  0  0  0  0  0  0
  -25.5480  -13.1968   20.7826 C   0  0  0  0  0  0  0  0  0  0  0  0
  -23.4048  -12.2587   21.6630 C   0  0  0  0  0  0  0  0  0  0  0  0
  -23.7667  -27.0990   20.2770 C   0  0  0  0  0  0  0  0  0  0  0  0
  -25.2392  -27.4996   17.4145 C   0  0  0  0  0  0  0  0  0  0  0  0
  -28.1417  -28.0237   15.6977 C   0  0  0  0  0  0  0  0  0  0  0  0
  -29.9200  -17.1849   20.2526 C   0  0  0  0  0  0  0  0  0  0  0  0
  -18.7031  -26.4688   20.1369 C   0  0  0  0  0  0  0  0  0  0  0  0
  -33.2708  -18.9954   25.6613 C   0  0  0  0  0  0  0  0  0  0  0  0
  -25.0826  -29.2116   20.6791 C   0  0  0  0  0  0  0  0  0  0  0  0
  -29.3946  -20.6045   22.7723 C   0  0  0  0  0  0  0  0  0  0  0  0
  -26.7354  -27.1139   19.4090 C   0  0  0  0  0  0  0  0  0  0  0  0
  -31.1682  -20.9637   25.1416 C   0  0  0  0  0  0  0  0  0  0  0  0
  -19.8748  -26.0982   19.2315 C   0  0  0  0  0  0  0  0  0  0  0  0
  -34.1558  -20.2280   25.4665 C   0  0  0  0  0  0  0  0  0  0  0  0
  -28.8276  -20.4302   21.3730 C   0  0  0  0  0  0  0  0  0  0  0  0
  -28.8506  -14.9126   17.7966 C   0  0  0  0  0  0  0  0  0  0  0  0
  -20.9837  -25.4315   20.0394 C   0  0  0  0  0  0  0  0  0  0  0  0
  -27.4759  -14.4600   18.2855 C   0  0  0  0  0  0  0  0  0  0  0  0
  -28.4339  -18.9825   21.1631 C   0  0  0  0  0  0  0  0  0  0  0  0
  -29.0618  -16.3980   18.0622 C   0  0  0  0  0  0  0  0  0  0  0  0
  -27.5367  -16.3268   20.0134 C   0  0  0  0  0  0  0  0  0  0  0  0
  -33.5158  -21.5456   25.8913 C   0  0  0  0  0  0  0  0  0  0  0  0
  -21.5343  -26.3819   21.1095 C   0  0  1  0  0  0  0  0  0  0  0  0
  -24.5037  -28.2475   19.6481 C   0  0  1  0  0  0  0  0  0  0  0  0
  -27.2714  -14.8283   19.7645 C   0  0  1  0  0  0  0  0  0  0  0  0
  -29.0342  -28.2671   13.3650 C   0  0  0  0  0  0  0  0  0  0  0  0
  -25.0011  -24.4845   17.0114 C   0  0  0  0  0  0  0  0  0  0  0  0
  -26.7046  -24.6643   15.1855 C   0  0  0  0  0  0  0  0  0  0  0  0
  -24.5206  -25.8507   14.9725 C   0  0  0  0  0  0  0  0  0  0  0  0
  -29.1159  -30.7668   16.2323 C   0  0  0  0  0  0  0  0  0  0  0  0
  -31.2283  -23.8967   24.0432 C   0  0  0  0  0  0  0  0  0  0  0  0
  -30.8198  -25.3539   24.2462 C   0  0  0  0  0  0  0  0  0  0  0  0
  -31.9150  -23.3440   25.2832 C   0  0  0  0  0  0  0  0  0  0  0  0
  -30.0928  -25.9087   23.0294 C   0  0  0  0  0  0  0  0  0  1  0  0
  -26.2442  -26.7114   16.6097 C   0  0  1  0  0  0  0  0  0  0  0  0
  -28.4927  -28.9953   14.5854 C   0  0  2  0  0  0  0  0  0  0  0  0
  -25.6235  -25.4369   15.9710 C   0  0  0  0  0  0  0  0  0  0  0  0
  -24.8899  -15.2911   20.2093 N   0  0  0  0  0  0  0  0  0  0  0  0
  -25.9012  -14.4077   20.2638 N   0  0  0  0  0  0  0  0  0  0  0  0
  -29.6027  -18.0992   21.2805 N   0  0  0  0  0  0  0  0  0  0  0  0
  -25.5286  -27.6708   18.7757 N   0  0  0  0  0  0  0  0  0  0  0  0
  -28.8453  -16.7230   19.4725 N   0  0  0  0  0  0  0  0  0  0  0  0
  -26.4427  -12.1938   20.9089 N   0  0  0  0  0  0  0  0  0  0  0  0
  -22.0523  -12.5275   21.9136 N   0  0  0  0  0  0  0  0  0  0  0  0
  -22.4287  -27.3509   20.5130 N   0  0  0  0  0  0  0  0  0  0  0  0
  -26.8171  -27.6445   15.6456 N   0  0  0  0  0  0  0  0  0  0  0  0
  -32.3403  -21.9203   25.0195 N   0  3  2  0  0  0  0  0  0  0  0  0
  -29.5247  -29.9645   15.0507 N   0  3  0  0  0  0  0  0  0  0  0  0
  -23.8723  -11.1332   21.9602 O   0  0  0  0  0  0  0  0  0  0  0  0
  -24.3672  -26.0607   20.5280 O   0  0  0  0  0  0  0  0  0  0  0  0
  -24.2379  -27.9529   16.8545 O   0  0  0  0  0  0  0  0  0  0  0  0
  -28.9617  -27.6368   16.5275 O   0  0  0  0  0  0  0  0  0  0  0  0
  -31.0845  -16.8378   20.0194 O   0  0  0  0  0  0  0  0  0  0  0  0
  -18.8300  -17.0070   21.1483 O   0  0  0  0  0  0  0  0  0  0  0  0
  -29.7285  -27.2576   23.2875 O   0  0  0  0  0  0  0  0  0  1  0  0
  -18.6083  -22.1385   23.1539 F   0  0  0  0  0  0  0  0  0  0  0  0
  -17.3961  -17.5721   23.4434 F   0  0  0  0  0  0  0  0  0  0  0  0
  1  2  1  0  0  0  0
  1  5  2  0  0  0  0
  2  6  2  0  0  0  0
  3 10  2  0  0  0  0
  3 17  1  0  0  0  0
  4 11  1  0  0  0  0
  4 17  2  0  0  0  0
  5 19  1  0  0  0  0
  6 22  1  0  0  0  0
  7  9  2  0  0  0  0
  7 20  1  0  0  0  0
  8 12  2  0  0  0  0
  8 21  1  0  0  0  0
  9 26  1  0  0  0  0
 10 27  1  0  0  0  0
 11 27  2  0  0  0  0
 12 28  1  0  0  0  0
 13 14  2  0  0  0  0
 13 29  1  0  0  0  0
 14 30  1  0  0  0  0
 15 23  1  0  0  0  0
 15 28  2  0  0  0  0
 16 30  2  0  0  0  0
 16 31  1  0  0  0  0
 17 32  1  0  0  0  0
 18 32  1  0  0  0  0
 18 33  2  0  0  0  0
 18 34  1  0  0  0  0
 19 22  2  0  0  0  0
 19 39  1  0  0  0  0
 20 24  2  0  0  0  0
 20 40  1  0  0  0  0
 21 23  2  0  0  0  0
 21 41  1  0  0  0  0
 22 55  1  0  0  0  0
 23 43  1  0  0  0  0
 24 25  1  0  0  0  0
 24 44  1  0  0  0  0
 25 26  2  0  0  0  0
 25 42  1  0  0  0  0
 26 72  1  0  0  0  0
 27 86  1  0  0  0  0
 28 87  1  0  0  0  0
 29 31  2  0  0  0  0
 29 86  1  0  0  0  0
 30 88  1  0  0  0  0
 31 89  1  0  0  0  0
 32 70  2  0  0  0  0
 33 71  1  0  0  0  0
 33 75  1  0  0  0  0
 34 76  1  0  0  0  0
 34 81  2  0  0  0  0
 35 56  1  0  0  0  0
 35 77  1  0  0  0  0
 35 82  2  0  0  0  0
 36 67  1  0  0  0  0
 36 73  1  0  0  0  0
 36 83  2  0  0  0  0
 37 68  1  0  0  0  0
 37 78  1  0  0  0  0
 37 84  2  0  0  0  0
 38 72  1  0  0  0  0
 38 74  1  0  0  0  0
 38 85  2  0  0  0  0
 39 45  1  0  0  0  0
 40 46  1  0  0  0  0
 41 56  1  0  0  0  0
 42 47  1  0  0  0  0
 43 73  1  0  0  0  0
 44 79  1  0  0  0  0
 45 49  1  0  0  0  0
 46 54  1  0  0  0  0
 47 51  1  0  0  0  0
 48 50  1  0  0  0  0
 48 52  1  0  0  0  0
 49 55  1  0  0  0  0
 50 57  1  0  0  0  0
 51 72  1  0  0  0  0
 52 74  1  0  0  0  0
 53 57  1  0  0  0  0
 53 74  1  0  0  0  0
 54 79  1  0  0  0  0
 55 77  1  0  0  0  0
 56 73  1  0  0  0  0
 57 71  1  0  0  0  0
 58 68  1  0  0  0  0
 59 69  1  0  0  0  0
 60 69  1  0  0  0  0
 61 69  1  0  0  0  0
 62 80  1  0  0  0  0
 63 64  1  0  0  0  0
 63 65  1  0  0  0  0
 64 66  1  0  0  0  0
 65 79  1  0  0  0  0
 66 87  1  0  0  0  0
 67 69  1  0  0  0  0
 67 78  1  0  0  0  0
 68 80  1  0  0  0  0
 70 71  1  0  0  0  0
M  CHG  2  79   1  80   1
M  ISO  4  38 100  66 101  72 100  87 101
M  END
> <Batch ID>
0004

> <Smiles>
CNC(C)C(=O)NC(C(=O)N1Cc2cc([101O:1][101CH2:1]CCCN3CCCc4ccc5c(c4C3)CCC[100N:0]5[100C:0](=O)N3CCCC(n4nc(-c5ccc(Oc6ccc(F)cc6F)cc5)c(C(N)=O)c4N)C3)ccc2CC1C(=O)NC1CCCc2ccccc21)C(C)(C)C

> <Shape>
0.189

> <Color>
0.085

> <Negative vol penalty>
0.000

$$$$

  -OEChem-04042320233D

 81 90  0     1  0  0  0  0  0999 V2000
  -17.0299  -30.7607   23.1154 C   0  0  0  0  0  0  0  0  0  0  0  0
  -17.6338  -30.0345   22.0940 C   0  0  0  0  0  0  0  0  0  0  0  0
  -24.3767   -9.1380   21.5431 C   0  0  0  0  0  0  0  0  0  0  0  0
  -22.4523  -10.1579   20.4973 C   0  0  0  0  0  0  0  0  0  0  0  0
  -17.7203  -31.8052   23.7289 C   0  0  0  0  0  0  0  0  0  0  0  0
  -18.9282  -30.3532   21.6847 C   0  0  0  0  0  0  0  0  0  0  0  0
  -23.9566  -21.7608   19.9169 C   0  0  0  0  0  0  0  0  0  0  0  0
  -21.8381  -26.2534   21.0767 C   0  0  0  0  0  0  0  0  0  0  0  0
  -24.2561  -20.6377   20.6879 C   0  0  0  0  0  0  0  0  0  0  0  0
  -23.6742   -7.9393   21.6668 C   0  0  0  0  0  0  0  0  0  0  0  0
  -21.7498   -8.9592   20.6210 C   0  0  0  0  0  0  0  0  0  0  0  0
  -21.6589  -25.5129   19.9092 C   0  0  0  0  0  0  0  0  0  0  0  0
  -21.3145   -6.6346   23.7049 C   0  0  0  0  0  0  0  0  0  0  0  0
  -21.3913   -5.9622   24.9245 C   0  0  0  0  0  0  0  0  0  0  0  0
  -23.5971  -26.5766   18.9442 C   0  0  0  0  0  0  0  0  0  0  0  0
  -24.5531  -20.5461   17.9155 C   0  0  0  0  0  0  0  0  0  0  0  0
  -22.3418   -4.0429   23.8065 C   0  0  0  0  0  0  0  0  0  0  0  0
  -23.7657  -10.2473   20.9584 C   0  0  0  0  0  0  0  0  0  0  0  0
  -25.2941  -11.8932   19.7491 C   0  0  0  0  0  0  0  0  0  0  0  0
  -24.1050  -21.7150   18.5307 C   0  0  0  0  0  0  0  0  0  0  0  0
  -19.0273  -32.1306   23.3334 C   0  0  0  0  0  0  0  0  0  0  0  0
  -22.8935  -27.1706   21.1830 C   0  0  0  0  0  0  0  0  0  0  0  0
  -19.6362  -31.4039   22.2925 C   0  0  0  0  0  0  0  0  0  0  0  0
  -23.7890  -27.3256   20.1152 C   0  0  0  0  0  0  0  0  0  0  0  0
  -24.7042  -19.4687   20.0727 C   0  0  0  0  0  0  0  0  0  0  0  0
  -22.3608   -7.8499   21.2057 C   0  0  0  0  0  0  0  0  0  0  0  0
  -22.5367  -25.6765   18.8416 C   0  0  0  0  0  0  0  0  0  0  0  0
  -21.7513   -6.0111   22.5360 C   0  0  0  0  0  0  0  0  0  0  0  0
  -21.9049   -4.6664   24.9754 C   0  0  0  0  0  0  0  0  0  0  0  0
  -24.8527  -19.4229   18.6864 C   0  0  0  0  0  0  0  0  0  0  0  0
  -22.2649   -4.7153   22.5869 C   0  0  0  0  0  0  0  0  0  0  0  0
  -24.4906  -11.4860   20.8309 C   0  0  0  0  0  0  0  0  0  0  0  0
  -25.7544  -13.1355   20.1117 C   0  0  0  0  0  0  0  0  0  0  0  0
  -25.5973  -11.2098   18.5257 C   0  0  0  0  0  0  0  0  0  0  0  0
  -23.0993  -30.3143   21.6053 C   0  0  0  0  0  0  0  0  0  0  0  0
  -26.2751  -29.6861   21.8110 C   0  0  0  0  0  0  0  0  0  0  0  0
  -28.8739  -27.6120   21.0423 C   0  0  0  0  0  0  0  0  0  0  0  0
  -24.9140  -18.2097   22.2446 C   0  0  0  0  0  0  0  0  0  0  0  0
  -19.7160  -33.2985   23.9939 C   0  0  0  0  0  0  0  0  0  0  0  0
  -23.0889  -27.9422   22.4592 C   0  0  0  0  0  0  0  0  0  0  0  0
  -24.9500  -28.2825   20.1865 C   0  0  0  0  0  0  0  0  0  0  0  0
  -21.2237  -33.3301   23.7567 C   0  0  0  0  0  0  0  0  0  0  0  0
  -25.5324  -15.5650   24.5468 C   0  0  0  0  0  0  0  0  0  0  0  0
  -21.5377  -33.0861   22.2841 C   0  0  0  0  0  0  0  0  0  0  0  0
  -25.3826  -14.3015   23.6963 C   0  0  0  0  0  0  0  0  0  0  0  0
  -22.7978  -22.7865   16.5765 C   0  0  0  0  0  0  0  0  0  0  0  0
  -24.5332  -16.6458   24.1378 C   0  0  0  0  0  0  0  0  0  0  0  0
  -24.3865  -15.7220   21.8586 C   0  0  0  0  0  0  0  0  0  0  0  0
  -23.7874  -22.9090   17.7115 C   0  0  1  0  0  0  0  0  0  0  0  0
  -21.0480  -31.7032   21.8374 C   0  0  1  0  0  0  0  0  0  0  0  0
  -23.8942  -29.2234   22.2655 C   0  0  1  0  0  0  0  0  0  0  0  0
  -25.4152  -14.6287   22.1905 C   0  0  2  0  0  0  0  0  0  0  0  0
  -22.4135  -23.5340   17.8167 C   0  0  1  0  0  0  0  0  0  1  0  0
  -31.3580  -27.3826   21.3141 C   0  0  0  0  0  0  0  0  0  0  0  0
  -26.7042  -31.7892   19.6424 C   0  0  0  0  0  0  0  0  0  0  0  0
  -29.0009  -30.8567   19.2903 C   0  0  0  0  0  0  0  0  0  0  0  0
  -28.3824  -31.8445   21.4958 C   0  0  0  0  0  0  0  0  0  0  0  0
  -28.5917  -25.0838   22.5547 C   0  0  0  0  0  0  0  0  0  0  0  0
  -27.4153  -29.6069   20.8248 C   0  0  1  0  0  0  0  0  0  0  0  0
  -29.9940  -27.0423   21.8940 C   0  0  2  0  0  0  0  0  0  0  0  0
  -27.8528  -31.0076   20.3109 C   0  0  0  0  0  0  0  0  0  0  0  0
  -24.4413  -12.3957   21.8076 N   0  0  0  0  0  0  0  0  0  0  0  0
  -25.2197  -13.3869   21.3410 N   0  0  0  0  0  0  0  0  0  0  0  0
  -25.0951  -29.0187   21.4531 N   0  0  0  0  0  0  0  0  0  0  0  0
  -24.6241  -16.9059   22.6994 N   0  0  0  0  0  0  0  0  0  0  0  0
  -26.5603  -14.0263   19.4958 N   0  0  0  0  0  0  0  0  0  0  0  0
  -25.0410   -9.9409   18.3137 N   0  0  0  0  0  0  0  0  0  0  0  0
  -25.0076  -18.3293   20.8584 N   0  0  0  0  0  0  0  0  0  0  0  0
  -21.9566  -30.6735   22.2942 N   0  0  0  0  0  0  0  0  0  0  0  0
  -28.4760  -28.8552   21.4867 N   0  0  0  0  0  0  0  0  0  0  0  0
  -29.8764  -25.5592   21.9798 N   0  3  0  0  0  0  0  0  0  0  0  0
  -26.3527  -11.7024   17.6538 O   0  0  0  0  0  0  0  0  0  0  0  0
  -23.4944  -30.7956   20.5498 O   0  0  0  0  0  0  0  0  0  0  0  0
  -26.4282  -30.3110   22.8635 O   0  0  0  0  0  0  0  0  0  0  0  0
  -28.4019  -27.0157   20.0768 O   0  0  0  0  0  0  0  0  0  0  0  0
  -25.0947  -19.1452   23.0283 O   0  0  0  0  0  0  0  0  0  0  0  0
  -21.6751   -6.6803   21.3260 O   0  0  0  0  0  0  0  0  0  0  0  0
  -22.3637  -24.9554   17.7006 O   0  0  0  0  0  0  0  0  0  1  0  0
  -21.9800   -4.0214   26.1469 F   0  0  0  0  0  0  0  0  0  0  0  0
  -25.2840  -18.3053   18.0846 F   0  0  0  0  0  0  0  0  0  0  0  0
  -22.6872   -4.1116   21.4675 F   0  0  0  0  0  0  0  0  0  0  0  0
  1  2  1  0  0  0  0
  1  5  2  0  0  0  0
  2  6  2  0  0  0  0
  3 10  2  0  0  0  0
  3 18  1  0  0  0  0
  4 11  1  0  0  0  0
  4 18  2  0  0  0  0
  5 21  1  0  0  0  0
  6 23  1  0  0  0  0
  7  9  2  0  0  0  0
  7 20  1  0  0  0  0
  8 12  2  0  0  0  0
  8 22  1  0  0  0  0
  9 25  1  0  0  0  0
 10 26  1  0  0  0  0
 11 26  2  0  0  0  0
 12 27  1  0  0  0  0
 13 14  2  0  0  0  0
 13 28  1  0  0  0  0
 14 29  1  0  0  0  0
 15 24  1  0  0  0  0
 15 27  2  0  0  0  0
 16 20  2  0  0  0  0
 16 30  1  0  0  0  0
 17 29  2  0  0  0  0
 17 31  1  0  0  0  0
 18 32  1  0  0  0  0
 19 32  1  0  0  0  0
 19 33  2  0  0  0  0
 19 34  1  0  0  0  0
 20 49  1  0  0  0  0
 21 23  2  0  0  0  0
 21 39  1  0  0  0  0
 22 24  2  0  0  0  0
 22 40  1  0  0  0  0
 23 50  1  0  0  0  0
 24 41  1  0  0  0  0
 25 30  2  0  0  0  0
 25 68  1  0  0  0  0
 26 77  1  0  0  0  0
 27 78  1  0  0  0  0
 28 31  2  0  0  0  0
 28 77  1  0  0  0  0
 29 79  1  0  0  0  0
 30 80  1  0  0  0  0
 31 81  1  0  0  0  0
 32 62  2  0  0  0  0
 33 63  1  0  0  0  0
 33 66  1  0  0  0  0
 34 67  1  0  0  0  0
 34 72  2  0  0  0  0
 35 51  1  0  0  0  0
 35 69  1  0  0  0  0
 35 73  2  0  0  0  0
 36 59  1  0  0  0  0
 36 64  1  0  0  0  0
 36 74  2  0  0  0  0
 37 60  1  0  0  0  0
 37 70  1  0  0  0  0
 37 75  2  0  0  0  0
 38 65  1  0  0  0  0
 38 68  1  0  0  0  0
 38 76  2  0  0  0  0
 39 42  1  0  0  0  0
 40 51  1  0  0  0  0
 41 64  1  0  0  0  0
 42 44  1  0  0  0  0
 43 45  1  0  0  0  0
 43 47  1  0  0  0  0
 44 50  1  0  0  0  0
 45 52  1  0  0  0  0
 46 49  1  0  0  0  0
 46 53  1  0  0  0  0
 47 65  1  0  0  0  0
 48 52  1  0  0  0  0
 48 65  1  0  0  0  0
 49 53  1  0  0  0  0
 50 69  1  0  0  0  0
 51 64  1  0  0  0  0
 52 63  1  0  0  0  0
 53 78  1  0  0  0  0
 54 60  1  0  0  0  0
 55 61  1  0  0  0  0
 56 61  1  0  0  0  0
 57 61  1  0  0  0  0
 58 71  1  0  0  0  0
 59 61  1  0  0  0  0
 59 70  1  0  0  0  0
 60 71  1  0  0  0  0
 62 63  1  0  0  0  0
M  CHG  1  71   1
M  ISO  4  38 100  53 101  68 100  78 101
M  END
> <Batch ID>
0004

> <Smiles>
CNC(C)C(=O)NC(C(=O)N1Cc2cc([101O:1][101CH:1]3CC3c3ccc([100NH:0][100C:0](=O)N4CCCC(n5nc(-c6ccc(Oc7ccc(F)cc7F)cc6)c(C(N)=O)c5N)C4)c(F)c3)ccc2CC1C(=O)NC1CCCc2ccccc21)C(C)(C)C

> <Shape>
0.219

> <Color>
0.100

> <Negative vol penalty>
0.000

$$$$

  -OEChem-04042320233D

 89 98  0     1  0  0  0  0  0999 V2000
  -29.0035  -34.9255   27.3873 C   0  0  0  0  0  0  0  0  0  0  0  0
  -28.9133  -33.7327   26.6770 C   0  0  0  0  0  0  0  0  0  0  0  0
  -23.4870   -9.9239   22.3021 C   0  0  0  0  0  0  0  0  0  0  0  0
  -23.4231   -9.5996   19.9089 C   0  0  0  0  0  0  0  0  0  0  0  0
  -27.8717  -35.7220   27.5564 C   0  0  0  0  0  0  0  0  0  0  0  0
  -27.6910  -33.3352   26.1363 C   0  0  0  0  0  0  0  0  0  0  0  0
  -28.1276  -31.6426   21.3834 C   0  0  0  0  0  0  0  0  0  0  0  0
  -29.7024  -25.4662   21.6427 C   0  0  0  0  0  0  0  0  0  0  0  0
  -30.0044  -24.1227   21.4206 C   0  0  0  0  0  0  0  0  0  0  0  0
  -30.9872  -18.1120   19.0114 C   0  0  0  0  0  0  0  0  0  0  0  0
  -30.9514  -19.4693   19.3307 C   0  0  0  0  0  0  0  0  0  0  0  0
  -22.6340   -8.8336   22.4727 C   0  0  0  0  0  0  0  0  0  0  0  0
  -22.5701   -8.5092   20.0794 C   0  0  0  0  0  0  0  0  0  0  0  0
  -28.6166  -30.3485   21.2108 C   0  0  0  0  0  0  0  0  0  0  0  0
  -22.8720   -5.4607   22.4711 C   0  0  0  0  0  0  0  0  0  0  0  0
  -23.1904   -4.5382   23.4676 C   0  0  0  0  0  0  0  0  0  0  0  0
  -26.3636  -29.5455   20.8972 C   0  0  0  0  0  0  0  0  0  0  0  0
  -30.4933  -26.0106   19.4257 C   0  0  0  0  0  0  0  0  0  0  0  0
  -28.9699  -19.7361   17.9744 C   0  0  0  0  0  0  0  0  0  0  0  0
  -21.0819   -4.9882   24.5580 C   0  0  0  0  0  0  0  0  0  0  0  0
  -23.8815  -10.3070   21.0202 C   0  0  0  0  0  0  0  0  0  0  0  0
  -26.1694  -11.4153   20.8080 C   0  0  0  0  0  0  0  0  0  0  0  0
  -26.6371  -35.3389   27.0093 C   0  0  0  0  0  0  0  0  0  0  0  0
  -26.7498  -31.8966   21.3250 C   0  0  0  0  0  0  0  0  0  0  0  0
  -26.5414  -34.1267   26.2994 C   0  0  0  0  0  0  0  0  0  0  0  0
  -25.8599  -30.8442   21.0669 C   0  0  0  0  0  0  0  0  0  0  0  0
  -29.9468  -26.4102   20.6452 C   0  0  0  0  0  0  0  0  0  0  0  0
  -30.0143  -17.5667   18.1736 C   0  0  0  0  0  0  0  0  0  0  0  0
  -30.5509  -23.7231   20.2010 C   0  0  0  0  0  0  0  0  0  0  0  0
  -30.7954  -24.6671   19.2036 C   0  0  0  0  0  0  0  0  0  0  0  0
  -29.0057  -18.3787   17.6551 C   0  0  0  0  0  0  0  0  0  0  0  0
  -29.9427  -20.2814   18.8122 C   0  0  0  0  0  0  0  0  0  0  0  0
  -22.1756   -8.1262   21.3613 C   0  0  0  0  0  0  0  0  0  0  0  0
  -27.7344  -29.2992   20.9705 C   0  0  0  0  0  0  0  0  0  0  0  0
  -21.6585   -6.1470   22.5180 C   0  0  0  0  0  0  0  0  0  0  0  0
  -22.2954   -4.3019   24.5111 C   0  0  0  0  0  0  0  0  0  0  0  0
  -20.7635   -5.9108   23.5614 C   0  0  0  0  0  0  0  0  0  0  0  0
  -24.7622  -11.4336   20.8433 C   0  0  0  0  0  0  0  0  0  0  0  0
  -26.5252  -12.7285   20.6197 C   0  0  0  0  0  0  0  0  0  0  0  0
  -27.0740  -10.3101   20.9340 C   0  0  0  0  0  0  0  0  0  0  0  0
  -24.5864  -33.0152   23.3676 C   0  0  0  0  0  0  0  0  0  0  0  0
  -22.6437  -32.8931   20.7727 C   0  0  0  0  0  0  0  0  0  0  0  0
  -21.9704  -31.5254   17.7194 C   0  0  0  0  0  0  0  0  0  0  0  0
  -25.8443  -17.6347   18.0486 C   0  0  0  0  0  0  0  0  0  0  0  0
  -25.4310  -36.2094   27.2587 C   0  0  0  0  0  0  0  0  0  0  0  0
  -26.2403  -33.3026   21.4867 C   0  0  0  0  0  0  0  0  0  0  0  0
  -24.3732  -31.0673   20.9745 C   0  0  0  0  0  0  0  0  0  0  0  0
  -24.2559  -35.9016   26.3342 C   0  0  0  0  0  0  0  0  0  0  0  0
  -23.7567  -16.9555   20.8517 C   0  0  0  0  0  0  0  0  0  0  0  0
  -24.0173  -34.3970   26.2570 C   0  0  0  0  0  0  0  0  0  0  0  0
  -23.9435  -15.4564   21.0922 C   0  0  0  0  0  0  0  0  0  0  0  0
  -23.7722  -17.2944   19.3627 C   0  0  0  0  0  0  0  0  0  0  0  0
  -25.1401  -15.3049   18.8687 C   0  0  0  0  0  0  0  0  0  0  0  0
  -25.2386  -33.6738   25.6766 C   0  0  1  0  0  0  0  0  0  0  0  0
  -24.7783  -33.3624   21.9184 C   0  0  1  0  0  0  0  0  0  0  0  0
  -25.1875  -14.9214   20.3577 C   0  0  2  0  0  0  0  0  0  0  0  0
  -30.0741  -16.1110   17.8452 C   0  0  0  0  0  0  0  0  0  0  0  0
  -31.3802  -24.2626   17.8901 C   0  0  0  0  0  0  0  0  0  0  0  0
  -20.2918  -31.5977   15.8554 C   0  0  0  0  0  0  0  0  0  0  0  0
  -20.7066  -31.2429   22.4563 C   0  0  0  0  0  0  0  0  0  0  0  0
  -19.5589  -30.5584   20.3392 C   0  0  0  0  0  0  0  0  0  0  0  0
  -19.6203  -32.9627   21.0014 C   0  0  0  0  0  0  0  0  0  0  0  0
  -24.0029  -32.4323   15.7686 C   0  0  0  0  0  0  0  0  0  0  0  0
  -30.8672  -22.2793   19.9867 C   0  0  0  0  0  0  0  0  0  0  0  0
  -27.9543  -17.8174   16.7550 C   0  0  0  0  0  0  0  0  0  0  0  0
  -29.6222  -27.8554   20.8846 C   0  0  0  0  0  0  0  0  0  1  0  0
  -21.7330  -31.8526   20.1670 C   0  0  1  0  0  0  0  0  0  0  0  0
  -21.5993  -32.1599   16.3911 C   0  0  2  0  0  0  0  0  0  0  0  0
  -20.4325  -31.6493   20.9946 C   0  0  0  0  0  0  0  0  0  0  0  0
  -24.2585  -12.6611   20.6900 N   0  0  0  0  0  0  0  0  0  0  0  0
  -25.3551  -13.4264   20.5565 N   0  0  0  0  0  0  0  0  0  0  0  0
  -23.9235  -32.4587   21.1459 N   0  0  0  0  0  0  0  0  0  0  0  0
  -24.9783  -16.7602   18.7257 N   0  0  0  0  0  0  0  0  0  0  0  0
  -27.7218  -13.3427   20.5038 N   0  0  0  0  0  0  0  0  0  0  0  0
  -26.5402   -9.0280   21.1228 N   0  0  0  0  0  0  0  0  0  0  0  0
  -29.9070  -21.6316   19.1308 N   0  0  0  0  0  0  0  0  0  0  0  0
  -25.2829  -33.8310   24.2386 N   0  0  0  0  0  0  0  0  0  0  0  0
  -21.5043  -32.2643   18.7862 N   0  0  0  0  0  0  0  0  0  0  0  0
  -26.9673  -17.0475   17.4788 N   0  0  0  0  0  0  0  0  0  0  0  0
  -22.6669  -31.9103   15.3817 N   0  3  0  0  0  0  0  0  0  0  0  0
  -28.3192  -10.4574   20.8973 O   0  0  0  0  0  0  0  0  0  0  0  0
  -23.8589  -32.0775   23.6730 O   0  0  0  0  0  0  0  0  0  0  0  0
  -22.2371  -34.0504   20.9031 O   0  0  0  0  0  0  0  0  0  0  0  0
  -22.6066  -30.4771   17.8022 O   0  0  0  0  0  0  0  0  0  0  0  0
  -25.6350  -18.8495   17.9631 O   0  0  0  0  0  0  0  0  0  0  0  0
  -21.3434   -7.0620   21.5274 O   0  0  0  0  0  0  0  0  0  0  0  0
  -28.2089  -28.0349   20.8023 O   0  0  0  0  0  0  0  0  0  1  0  0
  -22.6007   -3.4149   25.4672 F   0  0  0  0  0  0  0  0  0  0  0  0
  -19.5957   -6.5662   23.6112 F   0  0  0  0  0  0  0  0  0  0  0  0
  1  2  1  0  0  0  0
  1  5  2  0  0  0  0
  2  6  2  0  0  0  0
  3 12  2  0  0  0  0
  3 21  1  0  0  0  0
  4 13  1  0  0  0  0
  4 21  2  0  0  0  0
  5 23  1  0  0  0  0
  6 25  1  0  0  0  0
  7 14  2  0  0  0  0
  7 24  1  0  0  0  0
  8  9  2  0  0  0  0
  8 27  1  0  0  0  0
  9 29  1  0  0  0  0
 10 11  2  0  0  0  0
 10 28  1  0  0  0  0
 11 32  1  0  0  0  0
 12 33  1  0  0  0  0
 13 33  2  0  0  0  0
 14 34  1  0  0  0  0
 15 16  2  0  0  0  0
 15 35  1  0  0  0  0
 16 36  1  0  0  0  0
 17 26  1  0  0  0  0
 17 34  2  0  0  0  0
 18 27  2  0  0  0  0
 18 30  1  0  0  0  0
 19 31  1  0  0  0  0
 19 32  2  0  0  0  0
 20 36  2  0  0  0  0
 20 37  1  0  0  0  0
 21 38  1  0  0  0  0
 22 38  1  0  0  0  0
 22 39  2  0  0  0  0
 22 40  1  0  0  0  0
 23 25  2  0  0  0  0
 23 45  1  0  0  0  0
 24 26  2  0  0  0  0
 24 46  1  0  0  0  0
 25 54  1  0  0  0  0
 26 47  1  0  0  0  0
 27 66  1  0  0  0  0
 28 31  2  0  0  0  0
 28 57  1  0  0  0  0
 29 30  2  0  0  0  0
 29 64  1  0  0  0  0
 30 58  1  0  0  0  0
 31 65  1  0  0  0  0
 32 76  1  0  0  0  0
 33 86  1  0  0  0  0
 34 87  1  0  0  0  0
 35 37  2  0  0  0  0
 35 86  1  0  0  0  0
 36 88  1  0  0  0  0
 37 89  1  0  0  0  0
 38 70  2  0  0  0  0
 39 71  1  0  0  0  0
 39 74  1  0  0  0  0
 40 75  1  0  0  0  0
 40 81  2  0  0  0  0
 41 55  1  0  0  0  0
 41 77  1  0  0  0  0
 41 82  2  0  0  0  0
 42 67  1  0  0  0  0
 42 72  1  0  0  0  0
 42 83  2  0  0  0  0
 43 68  1  0  0  0  0
 43 78  1  0  0  0  0
 43 84  2  0  0  0  0
 44 73  1  0  0  0  0
 44 79  1  0  0  0  0
 44 85  2  0  0  0  0
 45 48  1  0  0  0  0
 46 55  1  0  0  0  0
 47 72  1  0  0  0  0
 48 50  1  0  0  0  0
 49 51  1  0  0  0  0
 49 52  1  0  0  0  0
 50 54  1  0  0  0  0
 51 56  1  0  0  0  0
 52 73  1  0  0  0  0
 53 56  1  0  0  0  0
 53 73  1  0  0  0  0
 54 77  1  0  0  0  0
 55 72  1  0  0  0  0
 56 71  1  0  0  0  0
 59 68  1  0  0  0  0
 60 69  1  0  0  0  0
 61 69  1  0  0  0  0
 62 69  1  0  0  0  0
 63 80  1  0  0  0  0
 64 76  1  0  0  0  0
 65 79  1  0  0  0  0
 66 87  1  0  0  0  0
 67 69  1  0  0  0  0
 67 78  1  0  0  0  0
 68 80  1  0  0  0  0
 70 71  1  0  0  0  0
M  CHG  1  80   1
M  ISO  4  44 100  66 101  79 100  87 101
M  END
> <Batch ID>
0004

> <Smiles>
CNC(C)C(=O)NC(C(=O)N1Cc2cc([101O:1][101CH2:1]c3ccc(CNc4ccc(C)c(C[100NH:0][100C:0](=O)N5CCCC(n6nc(-c7ccc(Oc8ccc(F)cc8F)cc7)c(C(N)=O)c6N)C5)c4)c(C)c3)ccc2CC1C(=O)NC1CCCc2ccccc21)C(C)(C)C

> <Shape>
0.264

> <Color>
0.110

> <Negative vol penalty>
0.000

$$$$

  -OEChem-04042320233D

 86 94  0     1  0  0  0  0  0999 V2000
  -28.5241  -14.7214   27.7497 C   0  0  0  0  0  0  0  0  0  0  0  0
  -28.2169  -15.9133   27.1012 C   0  0  0  0  0  0  0  0  0  0  0  0
  -29.3674  -17.4979   21.4053 C   0  0  0  0  0  0  0  0  0  0  0  0
  -31.2703  -18.4651   20.2737 C   0  0  0  0  0  0  0  0  0  0  0  0
  -28.3882  -13.5079   27.0768 C   0  0  0  0  0  0  0  0  0  0  0  0
  -27.7747  -15.8923   25.7789 C   0  0  0  0  0  0  0  0  0  0  0  0
  -23.8078  -18.9443   25.0085 C   0  0  0  0  0  0  0  0  0  0  0  0
  -26.6043  -29.5699   20.7495 C   0  0  0  0  0  0  0  0  0  0  0  0
  -29.8374  -16.2198   21.1032 C   0  0  0  0  0  0  0  0  0  0  0  0
  -31.7404  -17.1870   19.9717 C   0  0  0  0  0  0  0  0  0  0  0  0
  -24.0676  -20.3092   24.8924 C   0  0  0  0  0  0  0  0  0  0  0  0
  -29.8721  -14.1452   18.4350 C   0  0  0  0  0  0  0  0  0  0  0  0
  -25.8320  -30.0354   21.8136 C   0  0  0  0  0  0  0  0  0  0  0  0
  -28.9517  -13.2138   17.9547 C   0  0  0  0  0  0  0  0  0  0  0  0
  -23.9228  -20.1263   22.4914 C   0  0  0  0  0  0  0  0  0  0  0  0
  -24.6360  -28.5874   19.7507 C   0  0  0  0  0  0  0  0  0  0  0  0
  -29.4266  -11.7743   19.8361 C   0  0  0  0  0  0  0  0  0  0  0  0
  -30.0839  -18.6205   20.9904 C   0  0  0  0  0  0  0  0  0  0  0  0
  -29.8908  -20.7062   22.4466 C   0  0  0  0  0  0  0  0  0  0  0  0
  -27.9348  -13.4713   25.7487 C   0  0  0  0  0  0  0  0  0  0  0  0
  -23.6140  -18.1568   23.8645 C   0  0  0  0  0  0  0  0  0  0  0  0
  -27.6339  -14.6772   25.0872 C   0  0  0  0  0  0  0  0  0  0  0  0
  -23.6582  -18.7522   22.5958 C   0  0  0  0  0  0  0  0  0  0  0  0
  -26.0063  -28.8459   19.7179 C   0  0  0  0  0  0  0  0  0  0  0  0
  -23.8637  -29.0528   20.8149 C   0  0  0  0  0  0  0  0  0  0  0  0
  -31.0239  -16.0643   20.3864 C   0  0  0  0  0  0  0  0  0  0  0  0
  -24.1280  -20.8998   23.6336 C   0  0  0  0  0  0  0  0  0  0  0  0
  -30.5699  -13.8912   19.6158 C   0  0  0  0  0  0  0  0  0  0  0  0
  -28.7288  -12.0284   18.6552 C   0  0  0  0  0  0  0  0  0  0  0  0
  -24.4617  -29.7768   21.8463 C   0  0  0  0  0  0  0  0  0  0  0  0
  -30.3471  -12.7058   20.3163 C   0  0  0  0  0  0  0  0  0  0  0  0
  -29.5986  -19.9410   21.3016 C   0  0  0  0  0  0  0  0  0  0  0  0
  -29.1912  -21.8743   22.2667 C   0  0  0  0  0  0  0  0  0  0  0  0
  -30.7206  -20.3893   23.5721 C   0  0  0  0  0  0  0  0  0  0  0  0
  -25.1123  -15.6678   22.5746 C   0  0  0  0  0  0  0  0  0  0  0  0
  -22.6032  -15.7185   20.5193 C   0  0  0  0  0  0  0  0  0  0  0  0
  -20.1009  -17.5112   19.0456 C   0  0  0  0  0  0  0  0  0  0  0  0
  -27.6851  -26.0779   19.1030 C   0  0  0  0  0  0  0  0  0  0  0  0
  -27.8490  -12.1389   25.0474 C   0  0  0  0  0  0  0  0  0  0  0  0
  -23.3082  -16.6911   24.0079 C   0  0  0  0  0  0  0  0  0  0  0  0
  -23.4371  -17.9547   21.3374 C   0  0  0  0  0  0  0  0  0  0  0  0
  -27.0165  -12.1763   23.7684 C   0  0  0  0  0  0  0  0  0  0  0  0
  -25.6411  -23.0998   18.8776 C   0  0  0  0  0  0  0  0  0  0  0  0
  -27.4011  -13.3816   22.9162 C   0  0  0  0  0  0  0  0  0  0  0  0
  -26.5224  -22.0715   19.5889 C   0  0  0  0  0  0  0  0  0  0  0  0
  -26.4803  -24.0694   18.0507 C   0  0  0  0  0  0  0  0  0  0  0  0
  -28.4236  -23.7514   19.5325 C   0  0  0  0  0  0  0  0  0  0  0  0
  -27.1276  -14.6938   23.6611 C   0  0  1  0  0  0  0  0  0  0  0  0
  -23.6366  -15.8867   22.7538 C   0  0  1  0  0  0  0  0  0  0  0  0
  -27.6360  -22.7558   20.4036 C   0  0  2  0  0  0  0  0  0  0  0  0
  -18.2366  -17.2902   17.3804 C   0  0  0  0  0  0  0  0  0  0  0  0
  -24.6318  -15.7964   18.2414 C   0  0  0  0  0  0  0  0  0  0  0  0
  -22.7854  -16.5236   16.7149 C   0  0  0  0  0  0  0  0  0  0  0  0
  -22.6687  -14.2999   17.8394 C   0  0  0  0  0  0  0  0  0  0  0  0
  -18.0541  -18.1883   21.0732 C   0  0  0  0  0  0  0  0  0  0  0  0
  -20.5808  -27.0637   20.7621 C   0  0  0  0  0  0  0  0  0  0  0  0
  -26.8322  -28.3486   18.5801 C   0  0  0  0  0  0  0  0  0  0  0  0
  -22.3902  -28.7723   20.8482 C   0  0  0  0  0  0  0  0  0  0  0  0
  -22.9314  -25.1353   21.6141 C   0  0  0  0  0  0  0  0  0  0  0  0
  -23.5261  -24.3485   22.7796 C   0  0  0  0  0  0  0  0  0  0  0  0
  -22.6869  -26.5859   22.0023 C   0  0  0  0  0  0  0  0  0  0  0  0
  -23.8166  -22.9051   22.3935 C   0  0  0  0  0  0  0  0  0  1  0  0
  -22.3127  -16.3988   19.2033 C   0  0  1  0  0  0  0  0  0  0  0  0
  -18.6266  -17.2085   18.8481 C   0  0  2  0  0  0  0  0  0  0  0  0
  -23.1058  -15.7696   18.0232 C   0  0  0  0  0  0  0  0  0  0  0  0
  -28.7772  -20.5701   20.4569 N   0  0  0  0  0  0  0  0  0  0  0  0
  -28.5472  -21.7429   21.0717 N   0  0  0  0  0  0  0  0  0  0  0  0
  -23.1476  -16.5240   21.5295 N   0  0  0  0  0  0  0  0  0  0  0  0
  -27.5093  -24.7006   18.8891 N   0  0  0  0  0  0  0  0  0  0  0  0
  -29.0701  -22.9908   23.0159 N   0  0  0  0  0  0  0  0  0  0  0  0
  -31.3665  -19.1457   23.5970 N   0  0  0  0  0  0  0  0  0  0  0  0
  -25.7154  -15.0085   23.6286 N   0  0  0  0  0  0  0  0  0  0  0  0
  -20.8639  -16.3627   19.0362 N   0  0  0  0  0  0  0  0  0  0  0  0
  -26.7818  -26.9091   18.4520 N   0  0  0  0  0  0  0  0  0  0  0  0
  -17.7917  -18.1791   19.6109 N   0  3  0  0  0  0  0  0  0  0  0  0
  -22.0690  -27.2975   20.8576 N   0  3  1  0  0  0  0  0  0  0  0  0
  -30.8714  -21.1788   24.5353 O   0  0  0  0  0  0  0  0  0  0  0  0
  -25.6627  -16.0662   21.5547 O   0  0  0  0  0  0  0  0  0  0  0  0
  -22.3494  -14.5182   20.6486 O   0  0  0  0  0  0  0  0  0  0  0  0
  -20.5331  -18.6527   19.1899 O   0  0  0  0  0  0  0  0  0  0  0  0
  -28.5782  -26.5333   19.8255 O   0  0  0  0  0  0  0  0  0  0  0  0
  -31.4829  -14.8173   20.0918 O   0  0  0  0  0  0  0  0  0  0  0  0
  -24.3820  -22.2317   23.5174 O   0  0  0  0  0  0  0  0  0  1  0  0
  -27.8437  -11.1347   18.1947 F   0  0  0  0  0  0  0  0  0  0  0  0
  -23.7281  -30.2269   22.8739 F   0  0  0  0  0  0  0  0  0  0  0  0
  -31.0136  -12.4568   21.4519 F   0  0  0  0  0  0  0  0  0  0  0  0
  1  2  1  0  0  0  0
  1  5  2  0  0  0  0
  2  6  2  0  0  0  0
  3  9  2  0  0  0  0
  3 18  1  0  0  0  0
  4 10  1  0  0  0  0
  4 18  2  0  0  0  0
  5 20  1  0  0  0  0
  6 22  1  0  0  0  0
  7 11  2  0  0  0  0
  7 21  1  0  0  0  0
  8 13  2  0  0  0  0
  8 24  1  0  0  0  0
  9 26  1  0  0  0  0
 10 26  2  0  0  0  0
 11 27  1  0  0  0  0
 12 14  2  0  0  0  0
 12 28  1  0  0  0  0
 13 30  1  0  0  0  0
 14 29  1  0  0  0  0
 15 23  1  0  0  0  0
 15 27  2  0  0  0  0
 16 24  2  0  0  0  0
 16 25  1  0  0  0  0
 17 29  2  0  0  0  0
 17 31  1  0  0  0  0
 18 32  1  0  0  0  0
 19 32  1  0  0  0  0
 19 33  2  0  0  0  0
 19 34  1  0  0  0  0
 20 22  2  0  0  0  0
 20 39  1  0  0  0  0
 21 23  2  0  0  0  0
 21 40  1  0  0  0  0
 22 48  1  0  0  0  0
 23 41  1  0  0  0  0
 24 57  1  0  0  0  0
 25 30  2  0  0  0  0
 25 58  1  0  0  0  0
 26 82  1  0  0  0  0
 27 83  1  0  0  0  0
 28 31  2  0  0  0  0
 28 82  1  0  0  0  0
 29 84  1  0  0  0  0
 30 85  1  0  0  0  0
 31 86  1  0  0  0  0
 32 66  2  0  0  0  0
 33 67  1  0  0  0  0
 33 70  1  0  0  0  0
 34 71  1  0  0  0  0
 34 77  2  0  0  0  0
 35 49  1  0  0  0  0
 35 72  1  0  0  0  0
 35 78  2  0  0  0  0
 36 63  1  0  0  0  0
 36 68  1  0  0  0  0
 36 79  2  0  0  0  0
 37 64  1  0  0  0  0
 37 73  1  0  0  0  0
 37 80  2  0  0  0  0
 38 69  1  0  0  0  0
 38 74  1  0  0  0  0
 38 81  2  0  0  0  0
 39 42  1  0  0  0  0
 40 49  1  0  0  0  0
 41 68  1  0  0  0  0
 42 44  1  0  0  0  0
 43 45  1  0  0  0  0
 43 46  1  0  0  0  0
 44 48  1  0  0  0  0
 45 50  1  0  0  0  0
 46 69  1  0  0  0  0
 47 50  1  0  0  0  0
 47 69  1  0  0  0  0
 48 72  1  0  0  0  0
 49 68  1  0  0  0  0
 50 67  1  0  0  0  0
 51 64  1  0  0  0  0
 52 65  1  0  0  0  0
 53 65  1  0  0  0  0
 54 65  1  0  0  0  0
 55 75  1  0  0  0  0
 56 76  1  0  0  0  0
 57 74  1  0  0  0  0
 58 76  1  0  0  0  0
 59 60  1  0  0  0  0
 59 61  1  0  0  0  0
 60 62  1  0  0  0  0
 61 76  1  0  0  0  0
 62 83  1  0  0  0  0
 63 65  1  0  0  0  0
 63 73  1  0  0  0  0
 64 75  1  0  0  0  0
 66 67  1  0  0  0  0
M  CHG  2  75   1  76   1
M  ISO  4  38 100  62 101  74 100  83 101
M  END
> <Batch ID>
0004

> <Smiles>
CNC(C)C(=O)NC(C(=O)N1Cc2cc([101O:1][101CH2:1]CCCN(C)Cc3cc(C[100NH:0][100C:0](=O)N4CCCC(n5nc(-c6ccc(Oc7ccc(F)cc7F)cc6)c(C(N)=O)c5N)C4)ccc3F)ccc2CC1C(=O)NC1CCCc2ccccc21)C(C)(C)C

> <Shape>
0.172

> <Color>
0.087

> <Negative vol penalty>
0.000

$$$$

  -OEChem-04042320233D

 74 81  0     1  0  0  0  0  0999 V2000
  -28.2370  -24.4861   17.1417 C   0  0  0  0  0  0  0  0  0  0  0  0
  -27.0905  -25.1970   17.4776 C   0  0  0  0  0  0  0  0  0  0  0  0
  -23.9976  -17.2212   19.7044 C   0  0  0  0  0  0  0  0  0  0  0  0
  -21.6114  -17.5982   19.7372 C   0  0  0  0  0  0  0  0  0  0  0  0
  -29.3729  -24.5840   17.9426 C   0  0  0  0  0  0  0  0  0  0  0  0
  -27.0832  -26.0153   18.6078 C   0  0  0  0  0  0  0  0  0  0  0  0
  -23.1087  -28.8301   19.3032 C   0  0  0  0  0  0  0  0  0  0  0  0
  -23.7896  -15.8777   20.0166 C   0  0  0  0  0  0  0  0  0  0  0  0
  -21.4034  -16.2547   20.0494 C   0  0  0  0  0  0  0  0  0  0  0  0
  -21.8764  -28.3102   19.6969 C   0  0  0  0  0  0  0  0  0  0  0  0
  -23.8696  -12.2693   20.4498 C   0  0  0  0  0  0  0  0  0  0  0  0
  -24.5945  -11.3172   19.7332 C   0  0  0  0  0  0  0  0  0  0  0  0
  -22.2606  -29.1131   21.9389 C   0  0  0  0  0  0  0  0  0  0  0  0
  -23.5960  -12.1033   17.6784 C   0  0  0  0  0  0  0  0  0  0  0  0
  -22.9085  -18.0814   19.5647 C   0  0  0  0  0  0  0  0  0  0  0  0
  -23.1955  -20.0430   17.9592 C   0  0  0  0  0  0  0  0  0  0  0  0
  -29.3747  -25.3944   19.0898 C   0  0  0  0  0  0  0  0  0  0  0  0
  -23.9324  -29.4870   20.2287 C   0  0  0  0  0  0  0  0  0  0  0  0
  -28.2273  -26.1461   19.4155 C   0  0  0  0  0  0  0  0  0  0  0  0
  -23.5017  -29.6426   21.5540 C   0  0  0  0  0  0  0  0  0  0  0  0
  -22.4925  -15.3945   20.1891 C   0  0  0  0  0  0  0  0  0  0  0  0
  -21.4534  -28.4491   21.0155 C   0  0  0  0  0  0  0  0  0  0  0  0
  -23.0077  -13.1384   19.7807 C   0  0  0  0  0  0  0  0  0  0  0  0
  -24.4578  -11.2342   18.3475 C   0  0  0  0  0  0  0  0  0  0  0  0
  -22.8709  -13.0554   18.3951 C   0  0  0  0  0  0  0  0  0  0  0  0
  -23.1227  -19.4695   19.2428 C   0  0  0  0  0  0  0  0  0  0  0  0
  -23.4090  -21.3796   18.1920 C   0  0  0  0  0  0  0  0  0  0  0  0
  -23.0803  -19.4229   16.6716 C   0  0  0  0  0  0  0  0  0  0  0  0
  -26.8422  -28.9749   21.4010 C   0  0  0  0  0  0  0  0  0  0  0  0
  -26.3567  -31.8553   22.8116 C   0  0  0  0  0  0  0  0  0  0  0  0
  -24.1398  -34.1868   23.9501 C   0  0  0  0  0  0  0  0  0  0  0  0
  -22.1653  -24.9610   22.8264 C   0  0  0  0  0  0  0  0  0  0  0  0
  -30.6340  -25.4698   19.9166 C   0  0  0  0  0  0  0  0  0  0  0  0
  -25.2470  -30.0656   19.7819 C   0  0  0  0  0  0  0  0  0  0  0  0
  -24.3398  -30.3572   22.5814 C   0  0  0  0  0  0  0  0  0  0  0  0
  -30.3902  -26.0052   21.3238 C   0  0  0  0  0  0  0  0  0  0  0  0
  -25.3644  -24.3589   21.3844 C   0  0  0  0  0  0  0  0  0  0  0  0
  -29.5719  -27.2861   21.2580 C   0  0  0  0  0  0  0  0  0  0  0  0
  -25.1592  -23.0892   20.5562 C   0  0  0  0  0  0  0  0  0  0  0  0
  -24.5549  -24.3253   22.6788 C   0  0  0  0  0  0  0  0  0  0  0  0
  -22.9098  -22.7899   21.6739 C   0  0  0  0  0  0  0  0  0  0  0  0
  -28.1862  -27.0186   20.6570 C   0  0  1  0  0  0  0  0  0  0  0  0
  -26.2328  -30.2646   20.9290 C   0  0  1  0  0  0  0  0  0  0  0  0
  -23.6624  -22.8016   20.3323 C   0  0  2  0  0  0  0  0  0  0  0  0
  -24.0417  -36.4211   25.0884 C   0  0  0  0  0  0  0  0  0  0  0  0
  -27.0386  -30.5268   25.4724 C   0  0  0  0  0  0  0  0  0  0  0  0
  -26.0199  -32.4953   26.6367 C   0  0  0  0  0  0  0  0  0  0  0  0
  -28.0109  -32.8106   25.1672 C   0  0  0  0  0  0  0  0  0  0  0  0
  -22.7535  -35.4283   21.6488 C   0  0  0  0  0  0  0  0  0  0  0  0
  -18.9463  -25.9462   21.6711 C   0  0  0  0  0  0  0  0  0  0  0  0
  -19.7364  -25.4678   22.8817 C   0  0  0  0  0  0  0  0  0  0  0  0
  -19.7817  -26.7851   20.7116 C   0  0  0  0  0  0  0  0  0  1  0  0
  -25.7630  -32.3184   24.1200 C   0  0  1  0  0  0  0  0  0  0  0  0
  -24.0705  -35.6906   23.7549 C   0  0  2  0  0  0  0  0  0  0  0  0
  -26.6930  -32.0226   25.3304 C   0  0  0  0  0  0  0  0  0  0  0  0
  -23.2776  -20.3682   20.2186 N   0  0  0  0  0  0  0  0  0  0  0  0
  -23.4499  -21.5200   19.5480 N   0  0  0  0  0  0  0  0  0  0  0  0
  -25.6199  -30.9000   22.0973 N   0  0  0  0  0  0  0  0  0  0  0  0
  -23.1441  -24.0498   22.3967 N   0  0  0  0  0  0  0  0  0  0  0  0
  -23.5640  -22.4369   17.3670 N   0  0  0  0  0  0  0  0  0  0  0  0
  -22.8617  -18.0397   16.6133 N   0  0  0  0  0  0  0  0  0  0  0  0
  -27.5233  -28.2817   20.4185 N   0  0  0  0  0  0  0  0  0  0  0  0
  -25.4410  -33.7306   23.9450 N   0  0  0  0  0  0  0  0  0  0  0  0
  -20.8535  -24.6272   22.5125 N   0  0  0  0  0  0  0  0  0  0  0  0
  -22.8445  -36.0579   22.9913 N   0  3  0  0  0  0  0  0  0  0  0  0
  -23.1849  -20.0734   15.6042 O   0  0  0  0  0  0  0  0  0  0  0  0
  -26.7060  -28.6345   22.5703 O   0  0  0  0  0  0  0  0  0  0  0  0
  -27.4311  -32.3292   22.4336 O   0  0  0  0  0  0  0  0  0  0  0  0
  -23.1399  -33.4873   24.0965 O   0  0  0  0  0  0  0  0  0  0  0  0
  -22.4405  -25.9981   23.4394 O   0  0  0  0  0  0  0  0  0  0  0  0
  -22.2892  -14.0836   20.4935 O   0  0  0  0  0  0  0  0  0  0  0  0
  -20.2514  -27.9420   21.4025 O   0  0  0  0  0  0  0  0  0  1  0  0
  -25.1552  -10.3209   17.6593 F   0  0  0  0  0  0  0  0  0  0  0  0
  -22.0454  -13.8884   17.7467 F   0  0  0  0  0  0  0  0  0  0  0  0
  1  2  1  0  0  0  0
  1  5  2  0  0  0  0
  2  6  2  0  0  0  0
  3  8  2  0  0  0  0
  3 15  1  0  0  0  0
  4  9  1  0  0  0  0
  4 15  2  0  0  0  0
  5 17  1  0  0  0  0
  6 19  1  0  0  0  0
  7 10  2  0  0  0  0
  7 18  1  0  0  0  0
  8 21  1  0  0  0  0
  9 21  2  0  0  0  0
 10 22  1  0  0  0  0
 11 12  2  0  0  0  0
 11 23  1  0  0  0  0
 12 24  1  0  0  0  0
 13 20  1  0  0  0  0
 13 22  2  0  0  0  0
 14 24  2  0  0  0  0
 14 25  1  0  0  0  0
 15 26  1  0  0  0  0
 16 26  1  0  0  0  0
 16 27  2  0  0  0  0
 16 28  1  0  0  0  0
 17 19  2  0  0  0  0
 17 33  1  0  0  0  0
 18 20  2  0  0  0  0
 18 34  1  0  0  0  0
 19 42  1  0  0  0  0
 20 35  1  0  0  0  0
 21 71  1  0  0  0  0
 22 72  1  0  0  0  0
 23 25  2  0  0  0  0
 23 71  1  0  0  0  0
 24 73  1  0  0  0  0
 25 74  1  0  0  0  0
 26 56  2  0  0  0  0
 27 57  1  0  0  0  0
 27 60  1  0  0  0  0
 28 61  1  0  0  0  0
 28 66  2  0  0  0  0
 29 43  1  0  0  0  0
 29 62  1  0  0  0  0
 29 67  2  0  0  0  0
 30 53  1  0  0  0  0
 30 58  1  0  0  0  0
 30 68  2  0  0  0  0
 31 54  1  0  0  0  0
 31 63  1  0  0  0  0
 31 69  2  0  0  0  0
 32 59  1  0  0  0  0
 32 64  1  0  0  0  0
 32 70  2  0  0  0  0
 33 36  1  0  0  0  0
 34 43  1  0  0  0  0
 35 58  1  0  0  0  0
 36 38  1  0  0  0  0
 37 39  1  0  0  0  0
 37 40  1  0  0  0  0
 38 42  1  0  0  0  0
 39 44  1  0  0  0  0
 40 59  1  0  0  0  0
 41 44  1  0  0  0  0
 41 59  1  0  0  0  0
 42 62  1  0  0  0  0
 43 58  1  0  0  0  0
 44 57  1  0  0  0  0
 45 54  1  0  0  0  0
 46 55  1  0  0  0  0
 47 55  1  0  0  0  0
 48 55  1  0  0  0  0
 49 65  1  0  0  0  0
 50 51  1  0  0  0  0
 50 52  1  0  0  0  0
 51 64  1  0  0  0  0
 52 72  1  0  0  0  0
 53 55  1  0  0  0  0
 53 63  1  0  0  0  0
 54 65  1  0  0  0  0
 56 57  1  0  0  0  0
M  CHG  1  65   1
M  ISO  4  32 100  52 101  64 100  72 101
M  END
> <Batch ID>
0004

> <Smiles>
CNC(C)C(=O)NC(C(=O)N1Cc2cc([101O:1][101CH2:1]CC[100NH:0][100C:0](=O)N3CCCC(n4nc(-c5ccc(Oc6ccc(F)cc6F)cc5)c(C(N)=O)c4N)C3)ccc2CC1C(=O)NC1CCCc2ccccc21)C(C)(C)C

> <Shape>
0.222

> <Color>
0.068

> <Negative vol penalty>
0.000

$$$$

  -OEChem-04042320233D

 88 97  0     1  0  0  0  0  0999 V2000
  -28.8881  -36.0955   22.3447 C   0  0  0  0  0  0  0  0  0  0  0  0
  -28.9321  -34.7132   22.4947 C   0  0  0  0  0  0  0  0  0  0  0  0
  -24.7549   -8.5498   20.9112 C   0  0  0  0  0  0  0  0  0  0  0  0
  -23.0177  -10.1588   20.4314 C   0  0  0  0  0  0  0  0  0  0  0  0
  -23.9088  -20.8005   25.5078 C   0  0  0  0  0  0  0  0  0  0  0  0
  -27.6894  -36.7794   22.5429 C   0  0  0  0  0  0  0  0  0  0  0  0
  -27.7774  -34.0139   22.8443 C   0  0  0  0  0  0  0  0  0  0  0  0
  -24.0251  -20.1134   24.3052 C   0  0  0  0  0  0  0  0  0  0  0  0
  -27.1351  -29.8193   20.0807 C   0  0  0  0  0  0  0  0  0  0  0  0
  -23.7858   -7.5975   21.2266 C   0  0  0  0  0  0  0  0  0  0  0  0
  -22.0485   -9.2065   20.7467 C   0  0  0  0  0  0  0  0  0  0  0  0
  -27.9034  -28.7074   20.4230 C   0  0  0  0  0  0  0  0  0  0  0  0
  -21.7678   -6.8683   23.8382 C   0  0  0  0  0  0  0  0  0  0  0  0
  -21.9588   -6.1078   24.9918 C   0  0  0  0  0  0  0  0  0  0  0  0
  -25.8690  -22.0881   24.9342 C   0  0  0  0  0  0  0  0  0  0  0  0
  -26.0170  -27.7745   21.6022 C   0  0  0  0  0  0  0  0  0  0  0  0
  -21.9652   -4.0911   23.6612 C   0  0  0  0  0  0  0  0  0  0  0  0
  -24.3709   -9.8305   20.5137 C   0  0  0  0  0  0  0  0  0  0  0  0
  -24.8303  -21.7890   25.8215 C   0  0  0  0  0  0  0  0  0  0  0  0
  -26.3514  -10.7303   19.1811 C   0  0  0  0  0  0  0  0  0  0  0  0
  -26.5172  -36.0870   22.8856 C   0  0  0  0  0  0  0  0  0  0  0  0
  -25.8030  -29.9224   20.5065 C   0  0  0  0  0  0  0  0  0  0  0  0
  -26.5621  -34.6892   23.0486 C   0  0  0  0  0  0  0  0  0  0  0  0
  -25.0647  -20.4115   23.4037 C   0  0  0  0  0  0  0  0  0  0  0  0
  -25.2332  -28.8875   21.2618 C   0  0  0  0  0  0  0  0  0  0  0  0
  -26.0232  -21.4094   23.7083 C   0  0  0  0  0  0  0  0  0  0  0  0
  -22.4326   -7.9258   21.1443 C   0  0  0  0  0  0  0  0  0  0  0  0
  -27.3453  -27.6861   21.1863 C   0  0  0  0  0  0  0  0  0  0  0  0
  -21.6755   -6.2402   22.5961 C   0  0  0  0  0  0  0  0  0  0  0  0
  -22.0575   -4.7192   24.9033 C   0  0  0  0  0  0  0  0  0  0  0  0
  -21.7742   -4.8517   22.5076 C   0  0  0  0  0  0  0  0  0  0  0  0
  -25.3715  -10.8149   20.1883 C   0  0  0  0  0  0  0  0  0  0  0  0
  -27.0477  -11.9101   19.2795 C   0  0  0  0  0  0  0  0  0  0  0  0
  -24.7155  -22.5153   27.0768 C   0  0  0  0  0  0  0  0  0  0  0  0
  -26.6090   -9.6792   18.2405 C   0  0  0  0  0  0  0  0  0  0  0  0
  -24.1880  -31.9450   22.3516 C   0  0  0  0  0  0  0  0  0  0  0  0
  -21.6397  -30.1924   21.3735 C   0  0  0  0  0  0  0  0  0  0  0  0
  -20.4537  -27.2303   20.1627 C   0  0  0  0  0  0  0  0  0  0  0  0
  -25.3417  -17.1994   21.5960 C   0  0  0  0  0  0  0  0  0  0  0  0
  -25.2557  -36.8748   23.1359 C   0  0  0  0  0  0  0  0  0  0  0  0
  -24.9795  -31.1158   20.1062 C   0  0  0  0  0  0  0  0  0  0  0  0
  -23.8015  -28.9406   21.7266 C   0  0  0  0  0  0  0  0  0  0  0  0
  -23.9926  -36.0175   23.1378 C   0  0  0  0  0  0  0  0  0  0  0  0
  -27.5119  -14.4835   23.2370 C   0  0  0  0  0  0  0  0  0  0  0  0
  -24.2008  -34.7619   23.9785 C   0  0  0  0  0  0  0  0  0  0  0  0
  -27.9596  -13.9006   21.9000 C   0  0  0  0  0  0  0  0  0  0  0  0
  -25.9554  -20.3766   21.0663 C   0  0  0  0  0  0  0  0  0  0  0  0
  -26.9507  -15.8909   23.0585 C   0  0  0  0  0  0  0  0  0  0  0  0
  -27.2750  -20.8664   21.6459 C   0  0  0  0  0  0  0  0  0  0  0  0
  -25.6135  -14.7515   21.2876 C   0  0  0  0  0  0  0  0  0  0  0  0
  -25.3252  -33.8926   23.4027 C   0  0  1  0  0  0  0  0  0  0  0  0
  -25.1459  -19.6206   22.1163 C   0  0  1  0  0  0  0  0  0  0  0  0
  -23.7882  -31.3561   21.0284 C   0  0  1  0  0  0  0  0  0  0  0  0
  -26.8574  -13.9749   20.8208 C   0  0  2  0  0  0  0  0  0  0  0  0
  -23.3398  -22.6983   27.6482 C   0  0  0  0  0  0  0  0  0  0  0  0
  -18.3212  -26.0856   19.4996 C   0  0  0  0  0  0  0  0  0  0  0  0
  -20.9354  -29.8045   24.3169 C   0  0  0  0  0  0  0  0  0  0  0  0
  -19.4230  -27.9291   23.6359 C   0  0  0  0  0  0  0  0  0  0  0  0
  -18.9773  -30.2457   22.8251 C   0  0  0  0  0  0  0  0  0  0  0  0
  -21.3783  -26.8696   17.3746 C   0  0  0  0  0  0  0  0  0  0  0  0
  -27.6168  -24.1015   22.9108 C   0  0  0  0  0  0  0  0  0  0  0  0
  -28.0921  -22.6726   23.1632 C   0  0  0  0  0  0  0  0  0  0  0  0
  -28.6963  -25.1412   23.2178 C   0  0  0  0  0  0  0  0  0  0  0  0
  -20.9351  -28.9564   21.8783 C   0  0  1  0  0  0  0  0  0  0  0  0
  -19.5019  -26.9170   19.0224 C   0  0  2  0  0  0  0  0  0  0  0  0
  -20.0953  -29.2335   23.1571 C   0  0  0  0  0  0  0  0  0  0  0  0
  -25.4365  -11.9580   20.8761 N   0  0  0  0  0  0  0  0  0  0  0  0
  -26.4655  -12.6025   20.3001 N   0  0  0  0  0  0  0  0  0  0  0  0
  -27.0522  -21.7133   22.8165 N   0  0  3  0  0  0  0  0  0  0  0  0
  -23.0392  -30.1310   21.3151 N   0  0  0  0  0  0  0  0  0  0  0  0
  -25.9768  -15.9976   21.9647 N   0  0  0  0  0  0  0  0  0  0  0  0
  -28.0951  -12.4123   18.5917 N   0  0  0  0  0  0  0  0  0  0  0  0
  -25.9525   -9.7145   17.0027 N   0  0  0  0  0  0  0  0  0  0  0  0
  -24.8529  -33.1523   22.2523 N   0  0  0  0  0  0  0  0  0  0  0  0
  -20.1605  -28.4406   20.7548 N   0  0  0  0  0  0  0  0  0  0  0  0
  -25.7030  -18.3088   22.3562 N   0  0  0  0  0  0  0  0  0  0  0  0
  -28.1859  -26.4834   22.9774 N   0  0  0  0  0  0  0  0  0  1  0  0
  -20.2083  -26.1588   17.9515 N   0  3  0  0  0  0  0  0  0  0  0  0
  -25.6619  -22.9955   27.7037 O   0  0  0  0  0  0  0  0  0  0  0  0
  -27.3854   -8.7279   18.4968 O   0  0  0  0  0  0  0  0  0  0  0  0
  -23.9124  -31.3489   23.3862 O   0  0  0  0  0  0  0  0  0  0  0  0
  -20.9725  -31.1737   21.0365 O   0  0  0  0  0  0  0  0  0  0  0  0
  -21.3637  -26.4751   20.4973 O   0  0  0  0  0  0  0  0  0  0  0  0
  -24.5243  -17.2754   20.6737 O   0  0  0  0  0  0  0  0  0  0  0  0
  -21.4866   -6.9967   21.4517 O   0  0  0  0  0  0  0  0  0  0  0  0
  -28.0932  -26.6001   21.5224 O   0  0  0  0  0  0  0  0  0  1  0  0
  -22.2425   -3.9891   26.0110 F   0  0  0  0  0  0  0  0  0  0  0  0
  -21.6874   -4.2428   21.3170 F   0  0  0  0  0  0  0  0  0  0  0  0
  1  2  1  0  0  0  0
  1  6  2  0  0  0  0
  2  7  2  0  0  0  0
  3 10  2  0  0  0  0
  3 18  1  0  0  0  0
  4 11  1  0  0  0  0
  4 18  2  0  0  0  0
  5  8  2  0  0  0  0
  5 19  1  0  0  0  0
  6 21  1  0  0  0  0
  7 23  1  0  0  0  0
  8 24  1  0  0  0  0
  9 12  2  0  0  0  0
  9 22  1  0  0  0  0
 10 27  1  0  0  0  0
 11 27  2  0  0  0  0
 12 28  1  0  0  0  0
 13 14  2  0  0  0  0
 13 29  1  0  0  0  0
 14 30  1  0  0  0  0
 15 19  2  0  0  0  0
 15 26  1  0  0  0  0
 16 25  1  0  0  0  0
 16 28  2  0  0  0  0
 17 30  2  0  0  0  0
 17 31  1  0  0  0  0
 18 32  1  0  0  0  0
 19 34  1  0  0  0  0
 20 32  1  0  0  0  0
 20 33  2  0  0  0  0
 20 35  1  0  0  0  0
 21 23  2  0  0  0  0
 21 40  1  0  0  0  0
 22 25  2  0  0  0  0
 22 41  1  0  0  0  0
 23 51  1  0  0  0  0
 24 26  2  0  0  0  0
 24 52  1  0  0  0  0
 25 42  1  0  0  0  0
 26 69  1  0  0  0  0
 27 85  1  0  0  0  0
 28 86  1  0  0  0  0
 29 31  2  0  0  0  0
 29 85  1  0  0  0  0
 30 87  1  0  0  0  0
 31 88  1  0  0  0  0
 32 67  2  0  0  0  0
 33 68  1  0  0  0  0
 33 72  1  0  0  0  0
 34 55  1  0  0  0  0
 34 79  2  0  0  0  0
 35 73  1  0  0  0  0
 35 80  2  0  0  0  0
 36 53  1  0  0  0  0
 36 74  1  0  0  0  0
 36 81  2  0  0  0  0
 37 64  1  0  0  0  0
 37 70  1  0  0  0  0
 37 82  2  0  0  0  0
 38 65  1  0  0  0  0
 38 75  1  0  0  0  0
 38 83  2  0  0  0  0
 39 71  1  0  0  0  0
 39 76  1  0  0  0  0
 39 84  2  0  0  0  0
 40 43  1  0  0  0  0
 41 53  1  0  0  0  0
 42 70  1  0  0  0  0
 43 45  1  0  0  0  0
 44 46  1  0  0  0  0
 44 48  1  0  0  0  0
 45 51  1  0  0  0  0
 46 54  1  0  0  0  0
 47 49  1  0  0  0  0
 47 52  1  0  0  0  0
 48 71  1  0  0  0  0
 49 69  1  0  0  0  0
 50 54  1  0  0  0  0
 50 71  1  0  0  0  0
 51 74  1  0  0  0  0
 52 76  1  0  0  0  0
 53 70  1  0  0  0  0
 54 68  1  0  0  0  0
 56 65  1  0  0  0  0
 57 66  1  0  0  0  0
 58 66  1  0  0  0  0
 59 66  1  0  0  0  0
 60 78  1  0  0  0  0
 61 62  1  0  0  0  0
 61 63  1  0  0  0  0
 62 69  1  0  0  0  0
 63 77  1  0  0  0  0
 64 66  1  0  0  0  0
 64 75  1  0  0  0  0
 65 78  1  0  0  0  0
 67 68  1  0  0  0  0
 77 86  1  0  0  0  0
M  CHG  1  78   1
M  ISO  4  39 100  76 100  77 101  86 101
M  END
> <Batch ID>
0004

> <Smiles>
CNC(C)C(=O)NC(C(=O)N1Cc2cc([101O:1][101NH:1]CCCN3CCC([100NH:0][100C:0](=O)N4CCCC(n5nc(-c6ccc(Oc7ccc(F)cc7F)cc6)c(C(N)=O)c5N)C4)c4ccc(C(C)=O)cc43)ccc2CC1C(=O)NC1CCCc2ccccc21)C(C)(C)C

> <Shape>
0.268

> <Color>
0.100

> <Negative vol penalty>
0.000

$$$$

  -OEChem-04042320233D

 83 91  0     1  0  0  0  0  0999 V2000
  -22.8202  -23.5449   18.0481 C   0  0  0  0  0  0  0  0  0  0  0  0
  -23.8050  -22.5666   17.9721 C   0  0  0  0  0  0  0  0  0  0  0  0
  -21.0371  -27.0963   21.2503 C   0  0  0  0  0  0  0  0  0  0  0  0
  -22.2483  -27.0100   23.3389 C   0  0  0  0  0  0  0  0  0  0  0  0
  -21.7518  -23.3861   18.9282 C   0  0  0  0  0  0  0  0  0  0  0  0
  -23.7157  -21.4236   18.7674 C   0  0  0  0  0  0  0  0  0  0  0  0
  -27.0189  -17.8700   17.9524 C   0  0  0  0  0  0  0  0  0  0  0  0
  -32.1915  -22.8552   21.9407 C   0  0  0  0  0  0  0  0  0  0  0  0
  -31.9798  -24.1772   21.5494 C   0  0  0  0  0  0  0  0  0  0  0  0
  -19.9966  -26.3651   21.8233 C   0  0  0  0  0  0  0  0  0  0  0  0
  -21.2078  -26.2788   23.9121 C   0  0  0  0  0  0  0  0  0  0  0  0
  -28.3603  -17.9909   18.3125 C   0  0  0  0  0  0  0  0  0  0  0  0
  -16.8620  -24.8316   22.8417 C   0  0  0  0  0  0  0  0  0  0  0  0
  -15.5575  -25.2649   22.6047 C   0  0  0  0  0  0  0  0  0  0  0  0
  -27.9744  -16.5520   20.2098 C   0  0  0  0  0  0  0  0  0  0  0  0
  -32.4783  -22.2167   19.6283 C   0  0  0  0  0  0  0  0  0  0  0  0
  -16.0727  -27.3842   23.6440 C   0  0  0  0  0  0  0  0  0  0  0  0
  -22.1629  -27.4187   22.0080 C   0  0  0  0  0  0  0  0  0  0  0  0
  -23.3809  -29.5738   21.3918 C   0  0  0  0  0  0  0  0  0  0  0  0
  -21.6566  -22.2461   19.7433 C   0  0  0  0  0  0  0  0  0  0  0  0
  -26.1412  -17.0967   18.7257 C   0  0  0  0  0  0  0  0  0  0  0  0
  -22.6326  -21.2337   19.6445 C   0  0  0  0  0  0  0  0  0  0  0  0
  -26.6228  -16.4208   19.8559 C   0  0  0  0  0  0  0  0  0  0  0  0
  -32.4408  -21.8749   20.9801 C   0  0  0  0  0  0  0  0  0  0  0  0
  -32.0173  -24.5189   20.1975 C   0  0  0  0  0  0  0  0  0  0  0  0
  -32.2665  -23.5387   19.2370 C   0  0  0  0  0  0  0  0  0  0  0  0
  -20.0819  -25.9564   23.1542 C   0  0  0  0  0  0  0  0  0  0  0  0
  -28.8376  -17.3342   19.4430 C   0  0  0  0  0  0  0  0  0  0  0  0
  -17.7718  -25.6745   23.4800 C   0  0  0  0  0  0  0  0  0  0  0  0
  -15.1629  -26.5412   23.0058 C   0  0  0  0  0  0  0  0  0  0  0  0
  -17.3772  -26.9508   23.8811 C   0  0  0  0  0  0  0  0  0  0  0  0
  -23.2383  -28.1735   21.4165 C   0  0  0  0  0  0  0  0  0  0  0  0
  -24.5589  -29.7872   20.7186 C   0  0  0  0  0  0  0  0  0  0  0  0
  -22.5252  -30.5907   21.9296 C   0  0  0  0  0  0  0  0  0  0  0  0
  -23.5069  -17.6945   20.4012 C   0  0  0  0  0  0  0  0  0  0  0  0
  -23.4528  -14.4679   20.7305 C   0  0  0  0  0  0  0  0  0  0  0  0
  -25.1835  -11.5266   20.7350 C   0  0  0  0  0  0  0  0  0  0  0  0
  -29.3643  -26.4258   20.0369 C   0  0  0  0  0  0  0  0  0  0  0  0
  -20.4749  -22.1216   20.6724 C   0  0  0  0  0  0  0  0  0  0  0  0
  -24.7030  -16.9548   18.3087 C   0  0  0  0  0  0  0  0  0  0  0  0
  -25.7261  -15.5620   20.7083 C   0  0  0  0  0  0  0  0  0  0  0  0
  -20.6976  -21.1015   21.7842 C   0  0  0  0  0  0  0  0  0  0  0  0
  -27.3647  -27.8335   17.3692 C   0  0  0  0  0  0  0  0  0  0  0  0
  -21.2093  -19.7950   21.1961 C   0  0  0  0  0  0  0  0  0  0  0  0
  -26.0853  -28.2141   18.1164 C   0  0  0  0  0  0  0  0  0  0  0  0
  -27.9461  -26.5261   17.8989 C   0  0  0  0  0  0  0  0  0  0  0  0
  -26.9327  -26.8987   20.1142 C   0  0  0  0  0  0  0  0  0  0  0  0
  -22.5723  -19.9964   20.5220 C   0  0  1  0  0  0  0  0  0  0  0  0
  -23.7837  -16.5569   19.4594 C   0  0  1  0  0  0  0  0  0  0  0  0
  -26.3082  -28.2236   19.6403 C   0  0  2  0  0  0  0  0  0  0  0  0
  -32.3110  -23.8810   17.7838 C   0  0  0  0  0  0  0  0  0  0  0  0
  -24.8738   -9.0592   21.0715 C   0  0  0  0  0  0  0  0  0  0  0  0
  -23.2734  -14.9039   23.7451 C   0  0  0  0  0  0  0  0  0  0  0  0
  -23.9194  -12.5057   24.0602 C   0  0  0  0  0  0  0  0  0  0  0  0
  -21.8059  -13.0797   22.8658 C   0  0  0  0  0  0  0  0  0  0  0  0
  -26.0936  -10.9198   17.9850 C   0  0  0  0  0  0  0  0  0  0  0  0
  -31.7865  -25.9407   19.8025 C   0  0  0  0  0  0  0  0  0  0  0  0
  -32.6680  -20.4530   21.4013 C   0  0  0  0  0  0  0  0  0  0  0  0
  -31.7172  -18.1446   21.4806 C   0  0  0  0  0  0  0  0  0  0  0  0
  -30.4535  -17.3601   21.1878 C   0  0  0  0  0  0  0  0  0  1  0  0
  -24.0246  -13.4848   21.7233 C   0  0  1  0  0  0  0  0  0  0  0  0
  -24.9082  -10.1948   20.0606 C   0  0  2  0  0  0  0  0  0  0  0  0
  -23.2726  -13.5112   23.0838 C   0  0  0  0  0  0  0  0  0  0  0  0
  -24.2451  -27.5418   20.8071 N   0  0  0  0  0  0  0  0  0  0  0  0
  -25.0317  -28.5499   20.3932 N   0  0  0  0  0  0  0  0  0  0  0  0
  -24.3265  -15.4597   20.2629 N   0  0  0  0  0  0  0  0  0  0  0  0
  -28.1515  -26.6077   19.3519 N   0  0  0  0  0  0  0  0  0  0  0  0
  -25.2261  -30.9105   20.3790 N   0  0  0  0  0  0  0  0  0  0  0  0
  -21.3541  -30.1973   22.5915 N   0  0  0  0  0  0  0  0  0  0  0  0
  -22.9241  -18.7936   19.7998 N   0  0  0  0  0  0  0  0  0  0  0  0
  -24.0167  -12.1848   21.0613 N   0  0  0  0  0  0  0  0  0  0  0  0
  -30.4695  -26.1468   19.2422 N   0  0  0  0  0  0  0  0  0  0  0  0
  -25.9653   -9.8957   19.0536 N   0  3  0  0  0  0  0  0  0  0  0  0
  -31.5010  -19.5709   21.1295 N   0  3  0  0  0  0  0  0  0  0  0  0
  -22.7828  -31.8127   21.8119 O   0  0  0  0  0  0  0  0  0  0  0  0
  -23.7991  -17.5827   21.5860 O   0  0  0  0  0  0  0  0  0  0  0  0
  -22.2762  -14.3554   20.3774 O   0  0  0  0  0  0  0  0  0  0  0  0
  -26.3201  -11.9399   20.9541 O   0  0  0  0  0  0  0  0  0  0  0  0
  -29.4568  -26.5109   21.2663 O   0  0  0  0  0  0  0  0  0  0  0  0
  -19.0667  -25.2431   23.7138 O   0  0  0  0  0  0  0  0  0  0  0  0
  -30.1464  -17.4510   19.7972 O   0  0  0  0  0  0  0  0  0  1  0  0
  -13.9106  -26.9578   22.7768 F   0  0  0  0  0  0  0  0  0  0  0  0
  -18.2471  -27.7656   24.4936 F   0  0  0  0  0  0  0  0  0  0  0  0
  1  2  1  0  0  0  0
  1  5  2  0  0  0  0
  2  6  2  0  0  0  0
  3 10  2  0  0  0  0
  3 18  1  0  0  0  0
  4 11  1  0  0  0  0
  4 18  2  0  0  0  0
  5 20  1  0  0  0  0
  6 22  1  0  0  0  0
  7 12  2  0  0  0  0
  7 21  1  0  0  0  0
  8  9  2  0  0  0  0
  8 24  1  0  0  0  0
  9 25  1  0  0  0  0
 10 27  1  0  0  0  0
 11 27  2  0  0  0  0
 12 28  1  0  0  0  0
 13 14  2  0  0  0  0
 13 29  1  0  0  0  0
 14 30  1  0  0  0  0
 15 23  1  0  0  0  0
 15 28  2  0  0  0  0
 16 24  2  0  0  0  0
 16 26  1  0  0  0  0
 17 30  2  0  0  0  0
 17 31  1  0  0  0  0
 18 32  1  0  0  0  0
 19 32  1  0  0  0  0
 19 33  2  0  0  0  0
 19 34  1  0  0  0  0
 20 22  2  0  0  0  0
 20 39  1  0  0  0  0
 21 23  2  0  0  0  0
 21 40  1  0  0  0  0
 22 48  1  0  0  0  0
 23 41  1  0  0  0  0
 24 58  1  0  0  0  0
 25 26  2  0  0  0  0
 25 57  1  0  0  0  0
 26 51  1  0  0  0  0
 27 80  1  0  0  0  0
 28 81  1  0  0  0  0
 29 31  2  0  0  0  0
 29 80  1  0  0  0  0
 30 82  1  0  0  0  0
 31 83  1  0  0  0  0
 32 64  2  0  0  0  0
 33 65  1  0  0  0  0
 33 68  1  0  0  0  0
 34 69  1  0  0  0  0
 34 75  2  0  0  0  0
 35 49  1  0  0  0  0
 35 70  1  0  0  0  0
 35 76  2  0  0  0  0
 36 61  1  0  0  0  0
 36 66  1  0  0  0  0
 36 77  2  0  0  0  0
 37 62  1  0  0  0  0
 37 71  1  0  0  0  0
 37 78  2  0  0  0  0
 38 67  1  0  0  0  0
 38 72  1  0  0  0  0
 38 79  2  0  0  0  0
 39 42  1  0  0  0  0
 40 49  1  0  0  0  0
 41 66  1  0  0  0  0
 42 44  1  0  0  0  0
 43 45  1  0  0  0  0
 43 46  1  0  0  0  0
 44 48  1  0  0  0  0
 45 50  1  0  0  0  0
 46 67  1  0  0  0  0
 47 50  1  0  0  0  0
 47 67  1  0  0  0  0
 48 70  1  0  0  0  0
 49 66  1  0  0  0  0
 50 65  1  0  0  0  0
 52 62  1  0  0  0  0
 53 63  1  0  0  0  0
 54 63  1  0  0  0  0
 55 63  1  0  0  0  0
 56 73  1  0  0  0  0
 57 72  1  0  0  0  0
 58 74  1  0  0  0  0
 59 60  1  0  0  0  0
 59 74  1  0  0  0  0
 60 81  1  0  0  0  0
 61 63  1  0  0  0  0
 61 71  1  0  0  0  0
 62 73  1  0  0  0  0
 64 65  1  0  0  0  0
M  CHG  2  73   1  74   1
M  ISO  4  38 100  60 101  72 100  81 101
M  END
> <Batch ID>
0004

> <Smiles>
CNC(C)C(=O)NC(C(=O)N1Cc2cc([101O:1][101CH2:1]CNCc3ccc(C[100NH:0][100C:0](=O)N4CCCC(n5nc(-c6ccc(Oc7ccc(F)cc7F)cc6)c(C(N)=O)c5N)C4)c(C)c3)ccc2CC1C(=O)NC1CCCc2ccccc21)C(C)(C)C

> <Shape>
0.214

> <Color>
0.059

> <Negative vol penalty>
0.000

$$$$

  -OEChem-04042320233D

 79 87  0     1  0  0  0  0  0999 V2000
  -17.4802  -23.1131   24.9873 C   0  0  0  0  0  0  0  0  0  0  0  0
  -18.8266  -22.9147   24.6988 C   0  0  0  0  0  0  0  0  0  0  0  0
  -31.2477  -19.4820   19.1739 C   0  0  0  0  0  0  0  0  0  0  0  0
  -23.0743   -9.8691   19.9414 C   0  0  0  0  0  0  0  0  0  0  0  0
  -23.8387   -9.8740   22.2333 C   0  0  0  0  0  0  0  0  0  0  0  0
  -16.5195  -22.2592   24.4472 C   0  0  0  0  0  0  0  0  0  0  0  0
  -19.2132  -21.8614   23.8707 C   0  0  0  0  0  0  0  0  0  0  0  0
  -23.8641  -21.8265   19.8866 C   0  0  0  0  0  0  0  0  0  0  0  0
  -31.5069  -18.4283   20.0502 C   0  0  0  0  0  0  0  0  0  0  0  0
  -30.0125  -20.1292   19.2073 C   0  0  0  0  0  0  0  0  0  0  0  0
  -22.3316   -8.7152   20.1915 C   0  0  0  0  0  0  0  0  0  0  0  0
  -23.0959   -8.7201   22.4834 C   0  0  0  0  0  0  0  0  0  0  0  0
  -25.1647  -21.3308   19.9673 C   0  0  0  0  0  0  0  0  0  0  0  0
  -21.1153   -5.9803   23.8209 C   0  0  0  0  0  0  0  0  0  0  0  0
  -20.3613   -5.9350   24.9935 C   0  0  0  0  0  0  0  0  0  0  0  0
  -24.4524  -19.3012   18.8753 C   0  0  0  0  0  0  0  0  0  0  0  0
  -29.2957  -18.6688   20.9934 C   0  0  0  0  0  0  0  0  0  0  0  0
  -19.1141   -7.8723   24.2665 C   0  0  0  0  0  0  0  0  0  0  0  0
  -23.8279  -10.4484   20.9622 C   0  0  0  0  0  0  0  0  0  0  0  0
  -24.1680  -12.9739   20.8443 C   0  0  0  0  0  0  0  0  0  0  0  0
  -16.8936  -21.2008   23.6043 C   0  0  0  0  0  0  0  0  0  0  0  0
  -22.8439  -21.0575   19.3084 C   0  0  0  0  0  0  0  0  0  0  0  0
  -18.2566  -20.9917   23.3199 C   0  0  0  0  0  0  0  0  0  0  0  0
  -23.1403  -19.7905   18.7861 C   0  0  0  0  0  0  0  0  0  0  0  0
  -30.5309  -18.0216   20.9600 C   0  0  0  0  0  0  0  0  0  0  0  0
  -29.0365  -19.7226   20.1171 C   0  0  0  0  0  0  0  0  0  0  0  0
  -22.3424   -8.1407   21.4625 C   0  0  0  0  0  0  0  0  0  0  0  0
  -25.4584  -20.0668   19.4643 C   0  0  0  0  0  0  0  0  0  0  0  0
  -20.8687   -6.9717   22.8711 C   0  0  0  0  0  0  0  0  0  0  0  0
  -19.3607   -6.8809   25.2163 C   0  0  0  0  0  0  0  0  0  0  0  0
  -19.8682   -7.9177   23.0939 C   0  0  0  0  0  0  0  0  0  0  0  0
  -24.5957  -11.6401   20.7043 C   0  0  0  0  0  0  0  0  0  0  0  0
  -25.2589  -13.7245   20.4798 C   0  0  0  0  0  0  0  0  0  0  0  0
  -22.8980  -13.4885   21.2663 C   0  0  0  0  0  0  0  0  0  0  0  0
  -20.1084  -19.8154   20.3467 C   0  0  0  0  0  0  0  0  0  0  0  0
  -19.7350  -19.0210   17.2239 C   0  0  0  0  0  0  0  0  0  0  0  0
  -21.1893  -18.3748   14.2049 C   0  0  0  0  0  0  0  0  0  0  0  0
  -30.7424  -14.7466   20.6586 C   0  0  0  0  0  0  0  0  0  0  0  0
  -15.8233  -20.2754   23.0822 C   0  0  0  0  0  0  0  0  0  0  0  0
  -21.4518  -21.6175   19.2048 C   0  0  0  0  0  0  0  0  0  0  0  0
  -22.0852  -18.9335   18.1373 C   0  0  0  0  0  0  0  0  0  0  0  0
  -16.2841  -19.4098   21.9123 C   0  0  0  0  0  0  0  0  0  0  0  0
  -29.6016  -12.3640   18.2714 C   0  0  0  0  0  0  0  0  0  0  0  0
  -17.6464  -18.7914   22.2099 C   0  0  0  0  0  0  0  0  0  0  0  0
  -28.1652  -12.0690   18.7068 C   0  0  0  0  0  0  0  0  0  0  0  0
  -30.5210  -12.5841   19.4707 C   0  0  0  0  0  0  0  0  0  0  0  0
  -28.6215  -13.3125   20.8618 C   0  0  0  0  0  0  0  0  0  0  0  0
  -18.7133  -19.8753   22.4060 C   0  0  1  0  0  0  0  0  0  0  0  0
  -20.3831  -20.5387   19.0586 C   0  0  1  0  0  0  0  0  0  0  0  0
  -27.6451  -13.1386   19.6859 C   0  0  2  0  0  0  0  0  0  0  0  0
  -20.6289  -17.7163   11.8491 C   0  0  0  0  0  0  0  0  0  0  0  0
  -19.2731  -16.1473   18.1396 C   0  0  0  0  0  0  0  0  0  0  0  0
  -19.6676  -15.4060   15.7810 C   0  0  0  0  0  0  0  0  0  0  0  0
  -17.7531  -16.9157   16.3083 C   0  0  0  0  0  0  0  0  0  0  0  0
  -22.3314  -20.8763   13.1108 C   0  0  0  0  0  0  0  0  0  0  0  0
  -30.8094  -16.8958   21.8977 C   0  0  0  0  0  0  0  0  0  0  0  0
  -27.7076  -20.4183   20.1525 C   0  0  0  0  0  0  0  0  0  1  0  0
  -20.1084  -17.8326   16.3710 C   0  0  1  0  0  0  0  0  0  0  0  0
  -20.8713  -18.8727   12.8065 C   0  0  2  0  0  0  0  0  0  0  0  0
  -19.2203  -16.5905   16.6639 C   0  0  0  0  0  0  0  0  0  0  0  0
  -25.8598  -11.5454   20.2835 N   0  0  0  0  0  0  0  0  0  0  0  0
  -26.2357  -12.8294   20.1558 N   0  0  0  0  0  0  0  0  0  0  0  0
  -20.7379  -19.5226   18.0656 N   0  0  0  0  0  0  0  0  0  0  0  0
  -29.9715  -13.6113   20.3589 N   0  0  0  0  0  0  0  0  0  0  0  0
  -25.4684  -15.0561   20.4078 N   0  0  0  0  0  0  0  0  0  0  0  0
  -21.8873  -12.5783   21.6046 N   0  0  0  0  0  0  0  0  0  0  0  0
  -19.1341  -20.4073   21.1276 N   0  0  0  0  0  0  0  0  0  0  0  0
  -20.0568  -18.2912   14.9870 N   0  0  0  0  0  0  0  0  0  0  0  0
  -30.1444  -15.6741   21.5028 N   0  0  0  0  0  0  0  0  0  0  0  0
  -21.9997  -19.6910   12.2790 N   0  3  0  0  0  0  0  0  0  0  0  0
  -22.6611  -14.7189   21.3255 O   0  0  0  0  0  0  0  0  0  0  0  0
  -20.7332  -18.7950   20.6117 O   0  0  0  0  0  0  0  0  0  0  0  0
  -18.5977  -19.4914   17.1409 O   0  0  0  0  0  0  0  0  0  0  0  0
  -22.3278  -18.0853   14.5660 O   0  0  0  0  0  0  0  0  0  0  0  0
  -31.8774  -14.9233   20.2029 O   0  0  0  0  0  0  0  0  0  0  0  0
  -21.6176   -7.0149   21.7070 O   0  0  0  0  0  0  0  0  0  0  0  0
  -26.7269  -19.5802   19.5424 O   0  0  0  0  0  0  0  0  0  1  0  0
  -18.6357   -6.8363   26.3417 F   0  0  0  0  0  0  0  0  0  0  0  0
  -19.6259   -8.8717   22.1845 F   0  0  0  0  0  0  0  0  0  0  0  0
  1  2  1  0  0  0  0
  1  6  2  0  0  0  0
  2  7  2  0  0  0  0
  3  9  1  0  0  0  0
  3 10  2  0  0  0  0
  4 11  2  0  0  0  0
  4 19  1  0  0  0  0
  5 12  1  0  0  0  0
  5 19  2  0  0  0  0
  6 21  1  0  0  0  0
  7 23  1  0  0  0  0
  8 13  2  0  0  0  0
  8 22  1  0  0  0  0
  9 25  2  0  0  0  0
 10 26  1  0  0  0  0
 11 27  1  0  0  0  0
 12 27  2  0  0  0  0
 13 28  1  0  0  0  0
 14 15  2  0  0  0  0
 14 29  1  0  0  0  0
 15 30  1  0  0  0  0
 16 24  1  0  0  0  0
 16 28  2  0  0  0  0
 17 25  1  0  0  0  0
 17 26  2  0  0  0  0
 18 30  2  0  0  0  0
 18 31  1  0  0  0  0
 19 32  1  0  0  0  0
 20 32  1  0  0  0  0
 20 33  2  0  0  0  0
 20 34  1  0  0  0  0
 21 23  2  0  0  0  0
 21 39  1  0  0  0  0
 22 24  2  0  0  0  0
 22 40  1  0  0  0  0
 23 48  1  0  0  0  0
 24 41  1  0  0  0  0
 25 56  1  0  0  0  0
 26 57  1  0  0  0  0
 27 76  1  0  0  0  0
 28 77  1  0  0  0  0
 29 31  2  0  0  0  0
 29 76  1  0  0  0  0
 30 78  1  0  0  0  0
 31 79  1  0  0  0  0
 32 61  2  0  0  0  0
 33 62  1  0  0  0  0
 33 65  1  0  0  0  0
 34 66  1  0  0  0  0
 34 71  2  0  0  0  0
 35 49  1  0  0  0  0
 35 67  1  0  0  0  0
 35 72  2  0  0  0  0
 36 58  1  0  0  0  0
 36 63  1  0  0  0  0
 36 73  2  0  0  0  0
 37 59  1  0  0  0  0
 37 68  1  0  0  0  0
 37 74  2  0  0  0  0
 38 64  1  0  0  0  0
 38 69  1  0  0  0  0
 38 75  2  0  0  0  0
 39 42  1  0  0  0  0
 40 49  1  0  0  0  0
 41 63  1  0  0  0  0
 42 44  1  0  0  0  0
 43 45  1  0  0  0  0
 43 46  1  0  0  0  0
 44 48  1  0  0  0  0
 45 50  1  0  0  0  0
 46 64  1  0  0  0  0
 47 50  1  0  0  0  0
 47 64  1  0  0  0  0
 48 67  1  0  0  0  0
 49 63  1  0  0  0  0
 50 62  1  0  0  0  0
 51 59  1  0  0  0  0
 52 60  1  0  0  0  0
 53 60  1  0  0  0  0
 54 60  1  0  0  0  0
 55 70  1  0  0  0  0
 56 69  1  0  0  0  0
 57 77  1  0  0  0  0
 58 60  1  0  0  0  0
 58 68  1  0  0  0  0
 59 70  1  0  0  0  0
 61 62  1  0  0  0  0
M  CHG  1  70   1
M  ISO  4  38 100  57 101  69 100  77 101
M  END
> <Batch ID>
0004

> <Smiles>
CNC(C)C(=O)NC(C(=O)N1Cc2cc([101O:1][101CH2:1]c3cccc(C[100NH:0][100C:0](=O)N4CCCC(n5nc(-c6ccc(Oc7ccc(F)cc7F)cc6)c(C(N)=O)c5N)C4)c3)ccc2CC1C(=O)NC1CCCc2ccccc21)C(C)(C)C

> <Shape>
0.192

> <Color>
0.200

> <Negative vol penalty>
0.000

$$$$

  -OEChem-04042320233D

 87 97  0     1  0  0  0  0  0999 V2000
  -31.4304  -21.2663   25.0236 C   0  0  0  0  0  0  0  0  0  0  0  0
  -30.9020  -22.1007   24.3403 C   0  0  0  0  0  0  0  0  0  0  0  0
  -31.9210  -34.4262   19.2316 C   0  0  0  0  0  0  0  0  0  0  0  0
  -32.3203  -33.1723   19.6830 C   0  0  0  0  0  0  0  0  0  0  0  0
  -23.0777   -9.8654   19.9414 C   0  0  0  0  0  0  0  0  0  0  0  0
  -23.8354   -9.8757   22.2355 C   0  0  0  0  0  0  0  0  0  0  0  0
  -30.6017  -34.8415   19.4071 C   0  0  0  0  0  0  0  0  0  0  0  0
  -31.4006  -32.3333   20.3112 C   0  0  0  0  0  0  0  0  0  0  0  0
  -31.1663  -26.2227   19.9787 C   0  0  0  0  0  0  0  0  0  0  0  0
  -30.4276  -18.3599   24.0523 C   0  0  0  0  0  0  0  0  0  0  0  0
  -29.8624  -17.4663   23.1372 C   0  0  0  0  0  0  0  0  0  0  0  0
  -22.3345   -8.7120   20.1920 C   0  0  0  0  0  0  0  0  0  0  0  0
  -23.0922   -8.7223   22.4862 C   0  0  0  0  0  0  0  0  0  0  0  0
  -31.6230  -25.2187   20.8315 C   0  0  0  0  0  0  0  0  0  0  0  0
  -19.8641   -7.9227   23.0866 C   0  0  0  0  0  0  0  0  0  0  0  0
  -19.1060   -7.8836   24.2568 C   0  0  0  0  0  0  0  0  0  0  0  0
  -32.0566  -16.6115   22.5500 C   0  0  0  0  0  0  0  0  0  0  0  0
  -29.4276  -25.0676   21.8197 C   0  0  0  0  0  0  0  0  0  0  0  0
  -20.3482   -5.9480   24.9967 C   0  0  0  0  0  0  0  0  0  0  0  0
  -23.8283  -10.4472   20.9631 C   0  0  0  0  0  0  0  0  0  0  0  0
  -24.1683  -12.9725   20.8403 C   0  0  0  0  0  0  0  0  0  0  0  0
  -29.6630  -34.0033   20.0292 C   0  0  0  0  0  0  0  0  0  0  0  0
  -29.8373  -26.6650   20.0476 C   0  0  0  0  0  0  0  0  0  0  0  0
  -30.0678  -32.7383   20.4964 C   0  0  0  0  0  0  0  0  0  0  0  0
  -32.6033  -17.5071   23.4557 C   0  0  0  0  0  0  0  0  0  0  0  0
  -28.9558  -26.0755   20.9649 C   0  0  0  0  0  0  0  0  0  0  0  0
  -31.8051  -18.3779   24.2099 C   0  0  0  0  0  0  0  0  0  0  0  0
  -30.6716  -16.5978   22.3912 C   0  0  0  0  0  0  0  0  0  0  0  0
  -22.3417   -8.1404   21.4644 C   0  0  0  0  0  0  0  0  0  0  0  0
  -30.7544  -24.6430   21.7541 C   0  0  0  0  0  0  0  0  0  0  0  0
  -20.8642   -6.9744   22.8714 C   0  0  0  0  0  0  0  0  0  0  0  0
  -19.3481   -6.8963   25.2119 C   0  0  0  0  0  0  0  0  0  0  0  0
  -21.1062   -5.9871   23.8265 C   0  0  0  0  0  0  0  0  0  0  0  0
  -24.5967  -11.6384   20.7047 C   0  0  0  0  0  0  0  0  0  0  0  0
  -25.2602  -13.7224   20.4772 C   0  0  0  0  0  0  0  0  0  0  0  0
  -22.8970  -13.4879   21.2574 C   0  0  0  0  0  0  0  0  0  0  0  0
  -28.4267  -29.4348   20.7125 C   0  0  0  0  0  0  0  0  0  0  0  0
  -25.7424  -27.8280   19.8551 C   0  0  0  0  0  0  0  0  0  0  0  0
  -24.1544  -24.8302   19.4839 C   0  0  0  0  0  0  0  0  0  0  0  0
  -30.7254  -14.7724   20.6559 C   0  0  0  0  0  0  0  0  0  0  0  0
  -28.2597  -34.5147   20.2388 C   0  0  0  0  0  0  0  0  0  0  0  0
  -29.3532  -27.7302   19.1025 C   0  0  0  0  0  0  0  0  0  0  0  0
  -27.5143  -26.5005   21.0650 C   0  0  0  0  0  0  0  0  0  0  0  0
  -27.2556  -33.4163   20.5787 C   0  0  0  0  0  0  0  0  0  0  0  0
  -29.6151  -12.3549   18.2895 C   0  0  0  0  0  0  0  0  0  0  0  0
  -27.8203  -32.4899   21.6510 C   0  0  0  0  0  0  0  0  0  0  0  0
  -28.1753  -12.0627   18.7180 C   0  0  0  0  0  0  0  0  0  0  0  0
  -34.9638  -18.1162   22.6773 C   0  0  0  0  0  0  0  0  0  0  0  0
  -30.5289  -12.5858   19.4917 C   0  0  0  0  0  0  0  0  0  0  0  0
  -28.6201  -13.3105   20.8703 C   0  0  0  0  0  0  0  0  0  0  0  0
  -34.7406  -19.6073   22.5363 C   0  0  0  0  0  0  0  0  0  0  0  0
  -34.0486  -17.7003   23.8206 C   0  0  1  0  0  0  0  0  0  0  0  0
  -29.0933  -31.7897   21.1604 C   0  0  1  0  0  0  0  0  0  0  0  0
  -28.1148  -28.4620   19.6107 C   0  0  1  0  0  0  0  0  0  0  0  0
  -27.6485  -13.1351   19.6917 C   0  0  2  0  0  0  0  0  0  0  0  0
  -33.9714  -18.9343   24.7550 C   0  0  2  0  0  0  0  0  0  0  0  0
  -21.9527  -23.8385   18.8008 C   0  0  0  0  0  0  0  0  0  0  0  0
  -24.5394  -28.6606   22.5327 C   0  0  0  0  0  0  0  0  0  0  0  0
  -22.7854  -26.9030   22.2121 C   0  0  0  0  0  0  0  0  0  0  0  0
  -22.9642  -28.7938   20.5947 C   0  0  0  0  0  0  0  0  0  0  0  0
  -25.3894  -23.3361   17.2475 C   0  0  0  0  0  0  0  0  0  0  0  0
  -32.0752  -20.2518   25.8600 C   0  0  0  0  0  0  0  0  0  0  0  0
  -30.2574  -23.1164   23.5087 C   0  0  0  0  0  0  0  0  0  1  0  0
  -24.7259  -26.9804   20.5812 C   0  0  1  0  0  0  0  0  0  0  0  0
  -23.3398  -24.2568   18.3384 C   0  0  2  0  0  0  0  0  0  0  0  0
  -23.7813  -27.8276   21.4799 C   0  0  0  0  0  0  0  0  0  0  0  0
  -25.8620  -11.5430   20.2877 N   0  0  0  0  0  0  0  0  0  0  0  0
  -26.2380  -12.8267   20.1582 N   0  0  0  0  0  0  0  0  0  0  0  0
  -32.5658  -19.1701   25.0478 N   0  0  3  0  0  0  0  0  0  0  0  0
  -27.0902  -27.5501   20.1236 N   0  0  0  0  0  0  0  0  0  0  0  0
  -29.9683  -13.6173   20.3673 N   0  0  0  0  0  0  0  0  0  0  0  0
  -25.4696  -15.0539   20.4028 N   0  0  0  0  0  0  0  0  0  0  0  0
  -21.8854  -12.5783   21.5948 N   0  0  0  0  0  0  0  0  0  0  0  0
  -30.0765  -15.6980   21.4725 N   0  0  0  0  0  0  0  0  0  0  0  0
  -28.7592  -30.7003   20.2683 N   0  0  0  0  0  0  0  0  0  0  0  0
  -24.0373  -26.2021   19.5573 N   0  0  0  0  0  0  0  0  0  0  0  0
  -34.5627  -20.0647   23.9491 N   0  3  0  0  0  0  0  0  0  0  0  0
  -24.0230  -23.0638   17.7632 N   0  3  0  0  0  0  0  0  0  0  0  0
  -22.6597  -14.7184   21.3130 O   0  0  0  0  0  0  0  0  0  0  0  0
  -28.3686  -29.0650   21.8794 O   0  0  0  0  0  0  0  0  0  0  0  0
  -25.3550  -28.6996   19.0729 O   0  0  0  0  0  0  0  0  0  0  0  0
  -24.8243  -24.1306   20.2404 O   0  0  0  0  0  0  0  0  0  0  0  0
  -31.8548  -14.9415   20.1891 O   0  0  0  0  0  0  0  0  0  0  0  0
  -21.6164   -7.0151   21.7094 O   0  0  0  0  0  0  0  0  0  0  0  0
  -31.2011  -23.6560   22.5943 O   0  0  0  0  0  0  0  0  0  1  0  0
  -18.6211   -6.8598   26.3363 F   0  0  0  0  0  0  0  0  0  0  0  0
  -22.0665   -5.0741   23.6259 F   0  0  0  0  0  0  0  0  0  0  0  0
  1  2  3  0  0  0  0
  1 62  1  0  0  0  0
  2 63  1  0  0  0  0
  3  4  1  0  0  0  0
  3  7  2  0  0  0  0
  4  8  2  0  0  0  0
  5 12  2  0  0  0  0
  5 20  1  0  0  0  0
  6 13  1  0  0  0  0
  6 20  2  0  0  0  0
  7 22  1  0  0  0  0
  8 24  1  0  0  0  0
  9 14  2  0  0  0  0
  9 23  1  0  0  0  0
 10 11  2  0  0  0  0
 10 27  1  0  0  0  0
 11 28  1  0  0  0  0
 12 29  1  0  0  0  0
 13 29  2  0  0  0  0
 14 30  1  0  0  0  0
 15 16  2  0  0  0  0
 15 31  1  0  0  0  0
 16 32  1  0  0  0  0
 17 25  1  0  0  0  0
 17 28  2  0  0  0  0
 18 26  1  0  0  0  0
 18 30  2  0  0  0  0
 19 32  2  0  0  0  0
 19 33  1  0  0  0  0
 20 34  1  0  0  0  0
 21 34  1  0  0  0  0
 21 35  2  0  0  0  0
 21 36  1  0  0  0  0
 22 24  2  0  0  0  0
 22 41  1  0  0  0  0
 23 26  2  0  0  0  0
 23 42  1  0  0  0  0
 24 53  1  0  0  0  0
 25 27  2  0  0  0  0
 25 52  1  0  0  0  0
 26 43  1  0  0  0  0
 27 69  1  0  0  0  0
 28 74  1  0  0  0  0
 29 84  1  0  0  0  0
 30 85  1  0  0  0  0
 31 33  2  0  0  0  0
 31 84  1  0  0  0  0
 32 86  1  0  0  0  0
 33 87  1  0  0  0  0
 34 67  2  0  0  0  0
 35 68  1  0  0  0  0
 35 72  1  0  0  0  0
 36 73  1  0  0  0  0
 36 79  2  0  0  0  0
 37 54  1  0  0  0  0
 37 75  1  0  0  0  0
 37 80  2  0  0  0  0
 38 64  1  0  0  0  0
 38 70  1  0  0  0  0
 38 81  2  0  0  0  0
 39 65  1  0  0  0  0
 39 76  1  0  0  0  0
 39 82  2  0  0  0  0
 40 71  1  0  0  0  0
 40 74  1  0  0  0  0
 40 83  2  0  0  0  0
 41 44  1  0  0  0  0
 42 54  1  0  0  0  0
 43 70  1  0  0  0  0
 44 46  1  0  0  0  0
 45 47  1  0  0  0  0
 45 49  1  0  0  0  0
 46 53  1  0  0  0  0
 47 55  1  0  0  0  0
 48 51  1  0  0  0  0
 48 52  1  0  0  0  0
 49 71  1  0  0  0  0
 50 55  1  0  0  0  0
 50 71  1  0  0  0  0
 51 77  1  0  0  0  0
 52 56  1  0  0  0  0
 53 75  1  0  0  0  0
 54 70  1  0  0  0  0
 55 68  1  0  0  0  0
 56 69  1  0  0  0  0
 56 77  1  0  0  0  0
 57 65  1  0  0  0  0
 58 66  1  0  0  0  0
 59 66  1  0  0  0  0
 60 66  1  0  0  0  0
 61 78  1  0  0  0  0
 62 69  1  0  0  0  0
 63 85  1  0  0  0  0
 64 66  1  0  0  0  0
 64 76  1  0  0  0  0
 65 78  1  0  0  0  0
 67 68  1  0  0  0  0
M  CHG  2  77   1  78   1
M  ISO  4  40 100  63 101  74 100  85 101
M  END
> <Batch ID>
0004

> <Smiles>
CNC(C)C(=O)NC(C(=O)N1Cc2cc([101O:1][101CH2:1]C#CCN3c4ccc([100NH:0][100C:0](=O)N5CCCC(n6nc(-c7ccc(Oc8ccc(F)cc8F)cc7)c(C(N)=O)c6N)C5)cc4C4CCNC43)ccc2CC1C(=O)NC1CCCc2ccccc21)C(C)(C)C

> <Shape>
0.252

> <Color>
0.183

> <Negative vol penalty>
0.000

$$$$

  -OEChem-04042320233D

 84 93  0     1  0  0  0  0  0999 V2000
  -41.5991  -25.9295   20.3837 C   0  0  0  0  0  0  0  0  0  0  0  0
  -40.7016  -25.3412   21.2691 C   0  0  0  0  0  0  0  0  0  0  0  0
  -23.0773   -9.8646   19.9438 C   0  0  0  0  0  0  0  0  0  0  0  0
  -23.8344   -9.8779   22.2381 C   0  0  0  0  0  0  0  0  0  0  0  0
  -41.2399  -27.0876   19.6955 C   0  0  0  0  0  0  0  0  0  0  0  0
  -39.4446  -25.9114   21.4675 C   0  0  0  0  0  0  0  0  0  0  0  0
  -35.7283  -22.4713   21.4635 C   0  0  0  0  0  0  0  0  0  0  0  0
  -32.6422  -17.5008   23.4581 C   0  0  0  0  0  0  0  0  0  0  0  0
  -32.0543  -16.6187   22.5478 C   0  0  0  0  0  0  0  0  0  0  0  0
  -22.3336   -8.7119   20.1959 C   0  0  0  0  0  0  0  0  0  0  0  0
  -23.0906   -8.7251   22.4902 C   0  0  0  0  0  0  0  0  0  0  0  0
  -35.5600  -21.7145   22.6222 C   0  0  0  0  0  0  0  0  0  0  0  0
  -19.8619   -7.9277   23.0908 C   0  0  0  0  0  0  0  0  0  0  0  0
  -19.1036   -7.8905   24.2608 C   0  0  0  0  0  0  0  0  0  0  0  0
  -29.8766  -17.4580   23.1366 C   0  0  0  0  0  0  0  0  0  0  0  0
  -33.7334  -23.1446   23.2836 C   0  0  0  0  0  0  0  0  0  0  0  0
  -20.3448   -5.9555   25.0039 C   0  0  0  0  0  0  0  0  0  0  0  0
  -23.8278  -10.4476   20.9649 C   0  0  0  0  0  0  0  0  0  0  0  0
  -24.1688  -12.9726   20.8387 C   0  0  0  0  0  0  0  0  0  0  0  0
  -39.9743  -27.6668   19.8783 C   0  0  0  0  0  0  0  0  0  0  0  0
  -34.9062  -23.5788   21.2110 C   0  0  0  0  0  0  0  0  0  0  0  0
  -39.0686  -27.0791   20.7821 C   0  0  0  0  0  0  0  0  0  0  0  0
  -30.4598  -18.3566   24.0417 C   0  0  0  0  0  0  0  0  0  0  0  0
  -33.8917  -23.9123   22.1197 C   0  0  0  0  0  0  0  0  0  0  0  0
  -31.8553  -18.3853   24.2132 C   0  0  0  0  0  0  0  0  0  0  0  0
  -30.6731  -16.5975   22.3863 C   0  0  0  0  0  0  0  0  0  0  0  0
  -22.3401   -8.1421   21.4690 C   0  0  0  0  0  0  0  0  0  0  0  0
  -34.5643  -22.0528   23.5339 C   0  0  0  0  0  0  0  0  0  0  0  0
  -20.8617   -6.9787   22.8772 C   0  0  0  0  0  0  0  0  0  0  0  0
  -19.3450   -6.9045   25.2174 C   0  0  0  0  0  0  0  0  0  0  0  0
  -21.1031   -5.9926   23.8338 C   0  0  0  0  0  0  0  0  0  0  0  0
  -24.5967  -11.6381   20.7050 C   0  0  0  0  0  0  0  0  0  0  0  0
  -25.2612  -13.7215   20.4748 C   0  0  0  0  0  0  0  0  0  0  0  0
  -31.6779  -20.3063   25.7712 C   0  0  0  0  0  0  0  0  0  0  0  0
  -22.8976  -13.4890   21.2547 C   0  0  0  0  0  0  0  0  0  0  0  0
  -35.3939  -26.6994   20.8534 C   0  0  0  0  0  0  0  0  0  0  0  0
  -32.2374  -26.7116   20.1058 C   0  0  0  0  0  0  0  0  0  0  0  0
  -29.1912  -25.1961   20.3717 C   0  0  0  0  0  0  0  0  0  0  0  0
  -30.7267  -14.7696   20.6536 C   0  0  0  0  0  0  0  0  0  0  0  0
  -39.6487  -28.9454   19.1477 C   0  0  0  0  0  0  0  0  0  0  0  0
  -35.0832  -24.3689   19.9434 C   0  0  0  0  0  0  0  0  0  0  0  0
  -29.5868  -19.2266   24.8972 C   0  0  0  0  0  0  0  0  0  0  0  0
  -32.9694  -25.0797   21.8853 C   0  0  0  0  0  0  0  0  0  0  0  0
  -30.2971  -20.5304   25.1921 C   0  0  0  0  0  0  0  0  0  0  0  0
  -38.1584  -29.2758   19.1325 C   0  0  0  0  0  0  0  0  0  0  0  0
  -29.6162  -12.3492   18.2903 C   0  0  0  0  0  0  0  0  0  0  0  0
  -37.5595  -29.1045   20.5249 C   0  0  0  0  0  0  0  0  0  0  0  0
  -28.1761  -12.0582   18.7188 C   0  0  0  0  0  0  0  0  0  0  0  0
  -30.5297  -12.5815   19.4924 C   0  0  0  0  0  0  0  0  0  0  0  0
  -28.6208  -13.3088   20.8694 C   0  0  0  0  0  0  0  0  0  0  0  0
  -37.6866  -27.6538   21.0055 C   0  0  1  0  0  0  0  0  0  0  0  0
  -34.5235  -25.7849   20.0387 C   0  0  1  0  0  0  0  0  0  0  0  0
  -27.6495  -13.1321   19.6909 C   0  0  2  0  0  0  0  0  0  0  0  0
  -26.7921  -25.4619   19.6853 C   0  0  0  0  0  0  0  0  0  0  0  0
  -31.8697  -28.8664   22.2346 C   0  0  0  0  0  0  0  0  0  0  0  0
  -29.4090  -28.4085   22.1736 C   0  0  0  0  0  0  0  0  0  0  0  0
  -30.5711  -29.2456   20.1311 C   0  0  0  0  0  0  0  0  0  0  0  0
  -29.2234  -22.6561   18.8530 C   0  0  0  0  0  0  0  0  0  0  0  0
  -33.8371  -19.1416   25.5244 C   0  0  0  0  0  0  0  0  0  0  0  0
  -34.7421  -19.9330   24.5972 C   0  0  0  0  0  0  0  0  0  1  0  0
  -30.9544  -26.8635   20.8867 C   0  0  1  0  0  0  0  0  0  0  0  0
  -28.1409  -24.8561   19.3297 C   0  0  2  0  0  0  0  0  0  0  0  0
  -30.7195  -28.3251   21.3622 C   0  0  0  0  0  0  0  0  0  0  0  0
  -25.8622  -11.5417   20.2886 N   0  0  0  0  0  0  0  0  0  0  0  0
  -26.2387  -12.8250   20.1573 N   0  0  0  0  0  0  0  0  0  0  0  0
  -32.4294  -19.2904   25.1663 N   0  0  0  0  0  0  0  0  0  0  0  0
  -33.1864  -25.8252   20.6345 N   0  0  0  0  0  0  0  0  0  0  0  0
  -29.9692  -13.6144   20.3664 N   0  0  0  0  0  0  0  0  0  0  0  0
  -25.4712  -15.0529   20.3986 N   0  0  0  0  0  0  0  0  0  0  0  0
  -21.8856  -12.5804   21.5931 N   0  0  0  0  0  0  0  0  0  0  0  0
  -30.0780  -15.6965   21.4688 N   0  0  0  0  0  0  0  0  0  0  0  0
  -36.6841  -26.8226   20.3743 N   0  0  0  0  0  0  0  0  0  0  0  0
  -29.8938  -26.3341   20.0363 N   0  0  0  0  0  0  0  0  0  0  0  0
  -27.9785  -23.3787   19.2208 N   0  3  0  0  0  0  0  0  0  0  0  0
  -32.0969  -21.0572   26.6547 O   0  0  0  0  0  0  0  0  0  0  0  0
  -22.6609  -14.7197   21.3085 O   0  0  0  0  0  0  0  0  0  0  0  0
  -34.9288  -27.2535   21.8426 O   0  0  0  0  0  0  0  0  0  0  0  0
  -32.3889  -27.3503   19.0615 O   0  0  0  0  0  0  0  0  0  0  0  0
  -29.3680  -24.5218   21.3840 O   0  0  0  0  0  0  0  0  0  0  0  0
  -31.8563  -14.9375   20.1869 O   0  0  0  0  0  0  0  0  0  0  0  0
  -21.6143   -7.0174   21.7154 O   0  0  0  0  0  0  0  0  0  0  0  0
  -34.3982  -21.3162   24.6660 O   0  0  0  0  0  0  0  0  0  1  0  0
  -18.6176   -6.8699   26.3417 F   0  0  0  0  0  0  0  0  0  0  0  0
  -22.0630   -5.0790   23.6347 F   0  0  0  0  0  0  0  0  0  0  0  0
  1  2  1  0  0  0  0
  1  5  2  0  0  0  0
  2  6  2  0  0  0  0
  3 10  2  0  0  0  0
  3 18  1  0  0  0  0
  4 11  1  0  0  0  0
  4 18  2  0  0  0  0
  5 20  1  0  0  0  0
  6 22  1  0  0  0  0
  7 12  2  0  0  0  0
  7 21  1  0  0  0  0
  8  9  2  0  0  0  0
  8 25  1  0  0  0  0
  9 26  1  0  0  0  0
 10 27  1  0  0  0  0
 11 27  2  0  0  0  0
 12 28  1  0  0  0  0
 13 14  2  0  0  0  0
 13 29  1  0  0  0  0
 14 30  1  0  0  0  0
 15 23  1  0  0  0  0
 15 26  2  0  0  0  0
 16 24  1  0  0  0  0
 16 28  2  0  0  0  0
 17 30  2  0  0  0  0
 17 31  1  0  0  0  0
 18 32  1  0  0  0  0
 19 32  1  0  0  0  0
 19 33  2  0  0  0  0
 19 35  1  0  0  0  0
 20 22  2  0  0  0  0
 20 40  1  0  0  0  0
 21 24  2  0  0  0  0
 21 41  1  0  0  0  0
 22 51  1  0  0  0  0
 23 25  2  0  0  0  0
 23 42  1  0  0  0  0
 24 43  1  0  0  0  0
 25 66  1  0  0  0  0
 26 71  1  0  0  0  0
 27 81  1  0  0  0  0
 28 82  1  0  0  0  0
 29 31  2  0  0  0  0
 29 81  1  0  0  0  0
 30 83  1  0  0  0  0
 31 84  1  0  0  0  0
 32 64  2  0  0  0  0
 33 65  1  0  0  0  0
 33 69  1  0  0  0  0
 34 44  1  0  0  0  0
 34 66  1  0  0  0  0
 34 75  2  0  0  0  0
 35 70  1  0  0  0  0
 35 76  2  0  0  0  0
 36 52  1  0  0  0  0
 36 72  1  0  0  0  0
 36 77  2  0  0  0  0
 37 61  1  0  0  0  0
 37 67  1  0  0  0  0
 37 78  2  0  0  0  0
 38 62  1  0  0  0  0
 38 73  1  0  0  0  0
 38 79  2  0  0  0  0
 39 68  1  0  0  0  0
 39 71  1  0  0  0  0
 39 80  2  0  0  0  0
 40 45  1  0  0  0  0
 41 52  1  0  0  0  0
 42 44  1  0  0  0  0
 43 67  1  0  0  0  0
 45 47  1  0  0  0  0
 46 48  1  0  0  0  0
 46 49  1  0  0  0  0
 47 51  1  0  0  0  0
 48 53  1  0  0  0  0
 49 68  1  0  0  0  0
 50 53  1  0  0  0  0
 50 68  1  0  0  0  0
 51 72  1  0  0  0  0
 52 67  1  0  0  0  0
 53 65  1  0  0  0  0
 54 62  1  0  0  0  0
 55 63  1  0  0  0  0
 56 63  1  0  0  0  0
 57 63  1  0  0  0  0
 58 74  1  0  0  0  0
 59 60  1  0  0  0  0
 59 66  1  0  0  0  0
 60 82  1  0  0  0  0
 61 63  1  0  0  0  0
 61 73  1  0  0  0  0
 62 74  1  0  0  0  0
 64 65  1  0  0  0  0
M  CHG  1  74   1
M  ISO  4  39 100  60 101  71 100  82 101
M  END
> <Batch ID>
0004

> <Smiles>
CNC(C)C(=O)NC(C(=O)N1Cc2cc([101O:1][101CH2:1]CN3C(=O)CCc4cc([100NH:0][100C:0](=O)N5CCCC(n6nc(-c7ccc(Oc8ccc(F)cc8F)cc7)c(C(N)=O)c6N)C5)ccc43)ccc2CC1C(=O)NC1CCCc2ccccc21)C(C)(C)C

> <Shape>
0.216

> <Color>
0.192

> <Negative vol penalty>
0.000

$$$$

  -OEChem-04042320233D

 79 87  0     1  0  0  0  0  0999 V2000
  -26.2557  -33.1308   18.4077 C   0  0  0  0  0  0  0  0  0  0  0  0
  -26.8579  -31.9800   18.9060 C   0  0  0  0  0  0  0  0  0  0  0  0
  -23.1007   -9.8373   19.9341 C   0  0  0  0  0  0  0  0  0  0  0  0
  -23.8695   -9.8462   22.2244 C   0  0  0  0  0  0  0  0  0  0  0  0
  -25.3740  -33.0446   17.3311 C   0  0  0  0  0  0  0  0  0  0  0  0
  -26.5779  -30.7420   18.3287 C   0  0  0  0  0  0  0  0  0  0  0  0
  -30.4333  -26.0292   17.6725 C   0  0  0  0  0  0  0  0  0  0  0  0
  -29.1411  -18.7571   21.0185 C   0  0  0  0  0  0  0  0  0  0  0  0
  -31.3554  -18.5679   20.0707 C   0  0  0  0  0  0  0  0  0  0  0  0
  -28.8580  -19.8089   20.1472 C   0  0  0  0  0  0  0  0  0  0  0  0
  -31.0723  -19.6197   19.1994 C   0  0  0  0  0  0  0  0  0  0  0  0
  -22.3825   -8.6671   20.1797 C   0  0  0  0  0  0  0  0  0  0  0  0
  -23.1512   -8.6760   22.4701 C   0  0  0  0  0  0  0  0  0  0  0  0
  -30.6269  -24.8652   18.4152 C   0  0  0  0  0  0  0  0  0  0  0  0
  -19.9432   -7.8061   23.0802 C   0  0  0  0  0  0  0  0  0  0  0  0
  -19.1920   -7.7429   24.2538 C   0  0  0  0  0  0  0  0  0  0  0  0
  -29.1880  -23.6642   16.8965 C   0  0  0  0  0  0  0  0  0  0  0  0
  -20.4772   -5.8277   24.9732 C   0  0  0  0  0  0  0  0  0  0  0  0
  -23.8443  -10.4268   20.9564 C   0  0  0  0  0  0  0  0  0  0  0  0
  -24.1320  -12.9594   20.8509 C   0  0  0  0  0  0  0  0  0  0  0  0
  -25.0904  -31.8062   16.7341 C   0  0  0  0  0  0  0  0  0  0  0  0
  -29.6055  -26.0219   16.5406 C   0  0  0  0  0  0  0  0  0  0  0  0
  -25.6905  -30.6389   17.2439 C   0  0  0  0  0  0  0  0  0  0  0  0
  -28.9876  -24.8287   16.1397 C   0  0  0  0  0  0  0  0  0  0  0  0
  -30.3898  -18.1366   20.9803 C   0  0  0  0  0  0  0  0  0  0  0  0
  -29.8236  -20.2402   19.2377 C   0  0  0  0  0  0  0  0  0  0  0  0
  -22.4077   -8.0864   21.4477 C   0  0  0  0  0  0  0  0  0  0  0  0
  -30.0019  -23.6832   18.0289 C   0  0  0  0  0  0  0  0  0  0  0  0
  -20.9613   -6.8801   22.8531 C   0  0  0  0  0  0  0  0  0  0  0  0
  -19.4590   -6.7537   25.2003 C   0  0  0  0  0  0  0  0  0  0  0  0
  -21.2283   -5.8909   23.7996 C   0  0  0  0  0  0  0  0  0  0  0  0
  -24.5869  -11.6354   20.7032 C   0  0  0  0  0  0  0  0  0  0  0  0
  -25.2065  -13.7341   20.4881 C   0  0  0  0  0  0  0  0  0  0  0  0
  -22.8525  -13.4455   21.2780 C   0  0  0  0  0  0  0  0  0  0  0  0
  -26.9174  -27.5054   15.7179 C   0  0  0  0  0  0  0  0  0  0  0  0
  -27.4575  -26.0678   12.8607 C   0  0  0  0  0  0  0  0  0  0  0  0
  -28.9270  -23.5185   11.1320 C   0  0  0  0  0  0  0  0  0  0  0  0
  -30.6681  -14.8682   20.6614 C   0  0  0  0  0  0  0  0  0  0  0  0
  -24.0943  -31.7568   15.6028 C   0  0  0  0  0  0  0  0  0  0  0  0
  -29.4283  -27.2796   15.7349 C   0  0  0  0  0  0  0  0  0  0  0  0
  -28.1054  -24.7632   14.9207 C   0  0  0  0  0  0  0  0  0  0  0  0
  -24.1397  -30.4546   14.8075 C   0  0  0  0  0  0  0  0  0  0  0  0
  -29.5717  -12.4749   18.2642 C   0  0  0  0  0  0  0  0  0  0  0  0
  -24.1751  -29.2550   15.7492 C   0  0  0  0  0  0  0  0  0  0  0  0
  -28.1426  -12.1480   18.7009 C   0  0  0  0  0  0  0  0  0  0  0  0
  -30.4888  -12.7077   19.4629 C   0  0  0  0  0  0  0  0  0  0  0  0
  -28.5776  -13.3896   20.8614 C   0  0  0  0  0  0  0  0  0  0  0  0
  -25.4311  -29.2809   16.6286 C   0  0  1  0  0  0  0  0  0  0  0  0
  -28.1542  -27.2771   14.8958 C   0  0  1  0  0  0  0  0  0  0  0  0
  -27.6026  -13.2017   19.6865 C   0  0  2  0  0  0  0  0  0  0  0  0
  -29.1577  -22.5866    8.8134 C   0  0  0  0  0  0  0  0  0  0  0  0
  -24.6287  -24.9379   13.0360 C   0  0  0  0  0  0  0  0  0  0  0  0
  -25.2453  -23.3033   11.2426 C   0  0  0  0  0  0  0  0  0  0  0  0
  -25.2883  -25.7512   10.7649 C   0  0  0  0  0  0  0  0  0  0  0  0
  -31.8638  -23.8847   11.1519 C   0  0  0  0  0  0  0  0  0  0  0  0
  -30.6933  -17.0120   21.9115 C   0  0  0  0  0  0  0  0  0  0  0  0
  -29.5177  -21.3705   18.2996 C   0  0  0  0  0  0  0  0  0  1  0  0
  -27.0774  -24.7449   12.2408 C   0  0  1  0  0  0  0  0  0  0  0  0
  -29.7581  -23.5105    9.8616 C   0  0  2  0  0  0  0  0  0  0  0  0
  -25.5749  -24.6857   11.8452 C   0  0  0  0  0  0  0  0  0  0  0  0
  -25.8518  -11.5690   20.2794 N   0  0  0  0  0  0  0  0  0  0  0  0
  -26.2008  -12.8611   20.1576 N   0  0  0  0  0  0  0  0  0  0  0  0
  -27.9582  -26.0208   14.1695 N   0  0  0  0  0  0  0  0  0  0  0  0
  -29.9201  -13.7188   20.3574 N   0  0  0  0  0  0  0  0  0  0  0  0
  -25.3883  -15.0702   20.4226 N   0  0  0  0  0  0  0  0  0  0  0  0
  -21.8615  -12.5130   21.6135 N   0  0  0  0  0  0  0  0  0  0  0  0
  -26.5846  -28.8373   15.8756 N   0  0  0  0  0  0  0  0  0  0  0  0
  -27.9970  -24.5365   11.1275 N   0  0  0  0  0  0  0  0  0  0  0  0
  -30.0528  -15.7789   21.5116 N   0  0  0  0  0  0  0  0  0  0  0  0
  -31.1456  -23.0516   10.1533 N   0  3  0  0  0  0  0  0  0  0  0  0
  -22.5905  -14.6704   21.3440 O   0  0  0  0  0  0  0  0  0  0  0  0
  -26.3092  -26.5444   16.1741 O   0  0  0  0  0  0  0  0  0  0  0  0
  -27.3221  -27.1040   12.2052 O   0  0  0  0  0  0  0  0  0  0  0  0
  -29.0845  -22.7010   12.0361 O   0  0  0  0  0  0  0  0  0  0  0  0
  -31.7982  -15.0706   20.2045 O   0  0  0  0  0  0  0  0  0  0  0  0
  -21.7068   -6.9447   21.6878 O   0  0  0  0  0  0  0  0  0  0  0  0
  -30.1886  -22.5458   18.7524 O   0  0  0  0  0  0  0  0  0  1  0  0
  -18.7385   -6.6940   26.3279 F   0  0  0  0  0  0  0  0  0  0  0  0
  -22.2060   -4.9993   23.5875 F   0  0  0  0  0  0  0  0  0  0  0  0
  1  2  1  0  0  0  0
  1  5  2  0  0  0  0
  2  6  2  0  0  0  0
  3 12  2  0  0  0  0
  3 19  1  0  0  0  0
  4 13  1  0  0  0  0
  4 19  2  0  0  0  0
  5 21  1  0  0  0  0
  6 23  1  0  0  0  0
  7 14  2  0  0  0  0
  7 22  1  0  0  0  0
  8 10  2  0  0  0  0
  8 25  1  0  0  0  0
  9 11  1  0  0  0  0
  9 25  2  0  0  0  0
 10 26  1  0  0  0  0
 11 26  2  0  0  0  0
 12 27  1  0  0  0  0
 13 27  2  0  0  0  0
 14 28  1  0  0  0  0
 15 16  2  0  0  0  0
 15 29  1  0  0  0  0
 16 30  1  0  0  0  0
 17 24  1  0  0  0  0
 17 28  2  0  0  0  0
 18 30  2  0  0  0  0
 18 31  1  0  0  0  0
 19 32  1  0  0  0  0
 20 32  1  0  0  0  0
 20 33  2  0  0  0  0
 20 34  1  0  0  0  0
 21 23  2  0  0  0  0
 21 39  1  0  0  0  0
 22 24  2  0  0  0  0
 22 40  1  0  0  0  0
 23 48  1  0  0  0  0
 24 41  1  0  0  0  0
 25 56  1  0  0  0  0
 26 57  1  0  0  0  0
 27 76  1  0  0  0  0
 28 77  1  0  0  0  0
 29 31  2  0  0  0  0
 29 76  1  0  0  0  0
 30 78  1  0  0  0  0
 31 79  1  0  0  0  0
 32 61  2  0  0  0  0
 33 62  1  0  0  0  0
 33 65  1  0  0  0  0
 34 66  1  0  0  0  0
 34 71  2  0  0  0  0
 35 49  1  0  0  0  0
 35 67  1  0  0  0  0
 35 72  2  0  0  0  0
 36 58  1  0  0  0  0
 36 63  1  0  0  0  0
 36 73  2  0  0  0  0
 37 59  1  0  0  0  0
 37 68  1  0  0  0  0
 37 74  2  0  0  0  0
 38 64  1  0  0  0  0
 38 69  1  0  0  0  0
 38 75  2  0  0  0  0
 39 42  1  0  0  0  0
 40 49  1  0  0  0  0
 41 63  1  0  0  0  0
 42 44  1  0  0  0  0
 43 45  1  0  0  0  0
 43 46  1  0  0  0  0
 44 48  1  0  0  0  0
 45 50  1  0  0  0  0
 46 64  1  0  0  0  0
 47 50  1  0  0  0  0
 47 64  1  0  0  0  0
 48 67  1  0  0  0  0
 49 63  1  0  0  0  0
 50 62  1  0  0  0  0
 51 59  1  0  0  0  0
 52 60  1  0  0  0  0
 53 60  1  0  0  0  0
 54 60  1  0  0  0  0
 55 70  1  0  0  0  0
 56 69  1  0  0  0  0
 57 77  1  0  0  0  0
 58 60  1  0  0  0  0
 58 68  1  0  0  0  0
 59 70  1  0  0  0  0
 61 62  1  0  0  0  0
M  CHG  1  70   1
M  ISO  4  38 100  57 101  69 100  77 101
M  END
> <Batch ID>
0004

> <Smiles>
CNC(C)C(=O)NC(C(=O)N1Cc2cc([101O:1][101CH2:1]c3ccc(C[100NH:0][100C:0](=O)N4CCCC(n5nc(-c6ccc(Oc7ccc(F)cc7F)cc6)c(C(N)=O)c5N)C4)cc3)ccc2CC1C(=O)NC1CCCc2ccccc21)C(C)(C)C

> <Shape>
0.232

> <Color>
0.203

> <Negative vol penalty>
0.000

$$$$

  -OEChem-04042320233D

 99109  0     1  0  0  0  0  0999 V2000
  -20.2237  -23.0707   20.3674 C   0  0  0  0  0  0  0  0  0  0  0  0
  -20.6479  -22.0731   19.8495 C   0  0  0  0  0  0  0  0  0  0  0  0
  -33.2218  -24.2854   12.7184 C   0  0  0  0  0  0  0  0  0  0  0  0
  -32.4747  -25.2363   13.4061 C   0  0  0  0  0  0  0  0  0  0  0  0
  -19.7741  -24.3976   22.3719 C   0  0  0  0  0  0  0  0  0  0  0  0
  -19.1724  -25.2724   20.2017 C   0  0  0  0  0  0  0  0  0  0  0  0
  -23.0858  -10.2118   22.3458 C   0  0  0  0  0  0  0  0  0  0  0  0
  -22.3793  -10.3930   20.0425 C   0  0  0  0  0  0  0  0  0  0  0  0
  -32.8334  -22.9465   12.7401 C   0  0  0  0  0  0  0  0  0  0  0  0
  -31.3381  -24.8491   14.1150 C   0  0  0  0  0  0  0  0  0  0  0  0
  -29.2827  -27.2381   19.3660 C   0  0  0  0  0  0  0  0  0  0  0  0
  -19.2819  -25.5550   22.9749 C   0  0  0  0  0  0  0  0  0  0  0  0
  -18.6802  -26.4298   20.8047 C   0  0  0  0  0  0  0  0  0  0  0  0
  -22.5297   -8.9345   22.4159 C   0  0  0  0  0  0  0  0  0  0  0  0
  -21.8232   -9.1157   20.1126 C   0  0  0  0  0  0  0  0  0  0  0  0
  -28.2926  -28.1795   19.6442 C   0  0  0  0  0  0  0  0  0  0  0  0
  -19.4582   -7.5722   22.7825 C   0  0  0  0  0  0  0  0  0  0  0  0
  -18.6954   -7.2592   23.9075 C   0  0  0  0  0  0  0  0  0  0  0  0
  -26.7199  -26.3961   20.0512 C   0  0  0  0  0  0  0  0  0  0  0  0
  -20.2148   -5.4565   24.4360 C   0  0  0  0  0  0  0  0  0  0  0  0
  -19.7195  -24.2563   20.9852 C   0  0  0  0  0  0  0  0  0  0  0  0
  -23.0105  -10.9411   21.1591 C   0  0  0  0  0  0  0  0  0  0  0  0
  -24.8983  -12.5968   20.7094 C   0  0  0  0  0  0  0  0  0  0  0  0
  -31.6970  -22.5411   13.4576 C   0  0  0  0  0  0  0  0  0  0  0  0
  -28.9955  -25.8665   19.4179 C   0  0  0  0  0  0  0  0  0  0  0  0
  -30.9334  -23.5037   14.1452 C   0  0  0  0  0  0  0  0  0  0  0  0
  -27.7088  -25.4394   19.7758 C   0  0  0  0  0  0  0  0  0  0  0  0
  -18.7349  -26.5711   22.1914 C   0  0  0  0  0  0  0  0  0  0  0  0
  -21.8985   -8.3864   21.2993 C   0  0  0  0  0  0  0  0  0  0  0  0
  -27.0102  -27.7586   19.9840 C   0  0  0  0  0  0  0  0  0  0  0  0
  -20.5993   -6.8274   22.4841 C   0  0  0  0  0  0  0  0  0  0  0  0
  -19.0737   -6.2013   24.7343 C   0  0  0  0  0  0  0  0  0  0  0  0
  -20.9775   -5.7696   23.3109 C   0  0  0  0  0  0  0  0  0  0  0  0
  -23.5842  -12.2608   21.0862 C   0  0  0  0  0  0  0  0  0  0  0  0
  -24.9427  -13.9664   20.8026 C   0  0  0  0  0  0  0  0  0  0  0  0
  -25.9820  -11.7470   20.3105 C   0  0  0  0  0  0  0  0  0  0  0  0
  -29.0277  -23.4868   17.3108 C   0  0  0  0  0  0  0  0  0  0  0  0
  -28.3919  -21.6793   19.9282 C   0  0  0  0  0  0  0  0  0  0  0  0
  -27.1326  -21.5094   23.0956 C   0  0  0  0  0  0  0  0  0  0  0  0
  -21.6448  -18.4971   19.7982 C   0  0  0  0  0  0  0  0  0  0  0  0
  -31.2897  -21.0896   13.4128 C   0  0  0  0  0  0  0  0  0  0  0  0
  -30.0816  -24.8635   19.1412 C   0  0  0  0  0  0  0  0  0  0  0  0
  -27.3545  -23.9783   19.8653 C   0  0  0  0  0  0  0  0  0  0  0  0
  -30.2852  -20.7052   14.4960 C   0  0  0  0  0  0  0  0  0  0  0  0
  -22.2794  -17.3858   23.1834 C   0  0  0  0  0  0  0  0  0  0  0  0
  -16.7823  -32.7051   24.2000 C   0  0  0  0  0  0  0  0  0  0  0  0
  -29.1627  -21.7352   14.5730 C   0  0  0  0  0  0  0  0  0  0  0  0
  -22.8131  -15.9723   22.9445 C   0  0  0  0  0  0  0  0  0  0  0  0
  -16.2484  -31.2770   24.2732 C   0  0  0  0  0  0  0  0  0  0  0  0
  -16.7357  -28.8194   24.4210 C   0  0  0  0  0  0  0  0  0  0  0  0
  -17.8852  -30.1755   22.6761 C   0  0  0  0  0  0  0  0  0  0  0  0
  -21.1638  -17.7290   22.2006 C   0  0  0  0  0  0  0  0  0  0  0  0
  -17.6877  -27.6537   24.1514 C   0  0  0  0  0  0  0  0  0  0  0  0
  -18.8367  -29.0121   22.3922 C   0  0  0  0  0  0  0  0  0  0  0  0
  -22.0723  -16.1666   20.5251 C   0  0  0  0  0  0  0  0  0  0  0  0
  -17.8927  -32.9448   25.2091 C   0  0  0  0  0  0  0  0  0  0  0  0
  -18.4712  -30.5031   25.1617 C   0  0  0  0  0  0  0  0  0  0  0  0
  -29.7083  -23.1189   14.9460 C   0  0  1  0  0  0  0  0  0  0  0  0
  -29.5424  -23.4992   18.7224 C   0  0  1  0  0  0  0  0  0  0  0  0
  -23.2182  -15.7676   21.4727 C   0  0  2  0  0  0  0  0  0  0  0  0
  -17.3573  -30.2055   24.1312 C   0  0  0  0  0  0  0  0  0  0  0  0
  -26.7151  -19.8883   24.9651 C   0  0  0  0  0  0  0  0  0  0  0  0
  -25.9922  -20.5560   18.4151 C   0  0  0  0  0  0  0  0  0  0  0  0
  -25.1020  -19.7084   20.5962 C   0  0  0  0  0  0  0  0  0  0  0  0
  -27.2827  -18.8636   19.7284 C   0  0  0  0  0  0  0  0  0  0  0  0
  -28.9070  -22.9982   24.9378 C   0  0  0  0  0  0  0  0  0  0  0  0
  -21.1649  -20.8611   19.2165 C   0  0  0  0  0  0  0  0  0  0  0  0
  -21.8259  -31.8290   24.0392 C   0  0  0  0  0  0  0  0  0  0  0  0
  -21.3868  -31.4345   25.4523 C   0  0  0  0  0  0  0  0  0  0  0  0
  -23.0646  -31.0427   23.6042 C   0  0  0  0  0  0  0  0  0  0  0  0
  -20.1482  -32.1808   25.9328 C   0  0  0  0  0  0  0  0  0  0  0  0
  -23.5183  -31.4635   22.2141 C   0  0  0  0  0  0  0  0  0  0  0  0
  -25.1971  -30.9233   20.4454 C   0  0  0  0  0  0  0  0  0  0  0  0
  -26.4069  -30.0512   20.1735 C   0  0  0  0  0  0  0  0  0  1  0  0
  -27.1375  -21.2205   20.6316 C   0  0  1  0  0  0  0  0  0  0  0  0
  -27.6866  -20.8946   24.3682 C   0  0  2  0  0  0  0  0  0  0  0  0
  -26.3844  -20.1148   19.8394 C   0  0  0  0  0  0  0  0  0  0  0  0
  -22.8471  -13.3307   21.3960 N   0  0  0  0  0  0  0  0  0  0  0  0
  -23.7009  -14.3524   21.2140 N   0  0  0  0  0  0  0  0  0  0  0  0
  -18.2404  -27.7340   22.7972 N   0  0  0  0  0  0  0  0  0  0  0  0
  -28.4492  -23.0361   19.5795 N   0  0  0  0  0  0  0  0  0  0  0  0
  -21.6201  -17.5309   20.8176 N   0  0  0  0  0  0  0  0  0  0  0  0
  -25.9223  -14.8662   20.5722 N   0  0  0  0  0  0  0  0  0  0  0  0
  -25.7652  -10.3629   20.2689 N   0  0  0  0  0  0  0  0  0  0  0  0
  -29.9885  -23.1862   16.3643 N   0  0  0  0  0  0  0  0  0  0  0  0
  -27.5451  -20.8211   21.9743 N   0  0  0  0  0  0  0  0  0  0  0  0
  -21.1935  -19.7618   20.1555 N   0  0  0  0  0  0  0  0  0  0  0  0
  -18.9814  -31.9197   25.0180 N   0  3  2  0  0  0  0  0  0  0  0  0
  -27.9491  -21.9536   25.3833 N   0  3  0  0  0  0  0  0  0  0  0  0
  -24.6899  -30.6460   21.8173 N   0  3  0  0  0  0  0  0  0  0  0  0
  -27.1140  -12.2002   20.0161 O   0  0  0  0  0  0  0  0  0  0  0  0
  -27.8460  -23.7305   17.0964 O   0  0  0  0  0  0  0  0  0  0  0  0
  -29.2911  -20.8653   19.7030 O   0  0  0  0  0  0  0  0  0  0  0  0
  -26.4035  -22.4988   23.0963 O   0  0  0  0  0  0  0  0  0  0  0  0
  -22.0447  -18.2523   18.6549 O   0  0  0  0  0  0  0  0  0  0  0  0
  -21.3560   -7.1400   21.3673 O   0  0  0  0  0  0  0  0  0  0  0  0
  -26.0348  -28.6819   20.2572 O   0  0  0  0  0  0  0  0  0  1  0  0
  -18.3419   -5.9018   25.8155 F   0  0  0  0  0  0  0  0  0  0  0  0
  -22.0734   -5.0512   23.0301 F   0  0  0  0  0  0  0  0  0  0  0  0
  1  2  3  0  0  0  0
  1 21  1  0  0  0  0
  2 67  1  0  0  0  0
  3  4  1  0  0  0  0
  3  9  2  0  0  0  0
  4 10  2  0  0  0  0
  5 12  2  0  0  0  0
  5 21  1  0  0  0  0
  6 13  1  0  0  0  0
  6 21  2  0  0  0  0
  7 14  2  0  0  0  0
  7 22  1  0  0  0  0
  8 15  1  0  0  0  0
  8 22  2  0  0  0  0
  9 24  1  0  0  0  0
 10 26  1  0  0  0  0
 11 16  2  0  0  0  0
 11 25  1  0  0  0  0
 12 28  1  0  0  0  0
 13 28  2  0  0  0  0
 14 29  1  0  0  0  0
 15 29  2  0  0  0  0
 16 30  1  0  0  0  0
 17 18  2  0  0  0  0
 17 31  1  0  0  0  0
 18 32  1  0  0  0  0
 19 27  1  0  0  0  0
 19 30  2  0  0  0  0
 20 32  2  0  0  0  0
 20 33  1  0  0  0  0
 22 34  1  0  0  0  0
 23 34  1  0  0  0  0
 23 35  2  0  0  0  0
 23 36  1  0  0  0  0
 24 26  2  0  0  0  0
 24 41  1  0  0  0  0
 25 27  2  0  0  0  0
 25 42  1  0  0  0  0
 26 58  1  0  0  0  0
 27 43  1  0  0  0  0
 28 80  1  0  0  0  0
 29 96  1  0  0  0  0
 30 97  1  0  0  0  0
 31 33  2  0  0  0  0
 31 96  1  0  0  0  0
 32 98  1  0  0  0  0
 33 99  1  0  0  0  0
 34 78  2  0  0  0  0
 35 79  1  0  0  0  0
 35 83  1  0  0  0  0
 36 84  1  0  0  0  0
 36 91  2  0  0  0  0
 37 59  1  0  0  0  0
 37 85  1  0  0  0  0
 37 92  2  0  0  0  0
 38 75  1  0  0  0  0
 38 81  1  0  0  0  0
 38 93  2  0  0  0  0
 39 76  1  0  0  0  0
 39 86  1  0  0  0  0
 39 94  2  0  0  0  0
 40 82  1  0  0  0  0
 40 87  1  0  0  0  0
 40 95  2  0  0  0  0
 41 44  1  0  0  0  0
 42 59  1  0  0  0  0
 43 81  1  0  0  0  0
 44 47  1  0  0  0  0
 45 48  1  0  0  0  0
 45 52  1  0  0  0  0
 46 49  1  0  0  0  0
 46 56  1  0  0  0  0
 47 58  1  0  0  0  0
 48 60  1  0  0  0  0
 49 61  1  0  0  0  0
 50 53  1  0  0  0  0
 50 61  1  0  0  0  0
 51 54  1  0  0  0  0
 51 61  1  0  0  0  0
 52 82  1  0  0  0  0
 53 80  1  0  0  0  0
 54 80  1  0  0  0  0
 55 60  1  0  0  0  0
 55 82  1  0  0  0  0
 56 88  1  0  0  0  0
 57 61  1  0  0  0  0
 57 88  1  0  0  0  0
 58 85  1  0  0  0  0
 59 81  1  0  0  0  0
 60 79  1  0  0  0  0
 62 76  1  0  0  0  0
 63 77  1  0  0  0  0
 64 77  1  0  0  0  0
 65 77  1  0  0  0  0
 66 89  1  0  0  0  0
 67 87  1  0  0  0  0
 68 69  1  0  0  0  0
 68 70  1  0  0  0  0
 69 71  1  0  0  0  0
 70 72  1  0  0  0  0
 71 88  1  0  0  0  0
 72 90  1  0  0  0  0
 73 74  1  0  0  0  0
 73 90  1  0  0  0  0
 74 97  1  0  0  0  0
 75 77  1  0  0  0  0
 75 86  1  0  0  0  0
 76 89  1  0  0  0  0
 78 79  1  0  0  0  0
M  CHG  3  88   1  89   1  90   1
M  ISO  4  40 100  74 101  87 100  97 101
M  END
> <Batch ID>
0004

> <Smiles>
CNC(C)C(=O)NC(C(=O)N1Cc2cc([101O:1][101CH2:1]CNCCCCCN3CCCC4(CCN(c5ccc(C#CC[100NH:0][100C:0](=O)N6CCCC(n7nc(-c8ccc(Oc9ccc(F)cc9F)cc8)c(C(N)=O)c7N)C6)cc5)CC4)C3)ccc2CC1C(=O)NC1CCCc2ccccc21)C(C)(C)C

> <Shape>
0.262

> <Color>
0.084

> <Negative vol penalty>
0.000

$$$$

  -OEChem-04042320233D

 86 95  0     1  0  0  0  0  0999 V2000
  -30.0857  -15.3775   26.5071 C   0  0  0  0  0  0  0  0  0  0  0  0
  -30.5391  -22.0462   15.1614 C   0  0  0  0  0  0  0  0  0  0  0  0
  -30.1253  -21.9282   16.4844 C   0  0  0  0  0  0  0  0  0  0  0  0
  -30.4214  -14.6733   25.3508 C   0  0  0  0  0  0  0  0  0  0  0  0
  -22.9330  -13.0379   21.6669 C   0  0  0  0  0  0  0  0  0  0  0  0
  -23.0913  -13.2832   19.2686 C   0  0  0  0  0  0  0  0  0  0  0  0
  -29.9734  -16.7674   26.4693 C   0  0  0  0  0  0  0  0  0  0  0  0
  -30.7883  -23.3066   14.6200 C   0  0  0  0  0  0  0  0  0  0  0  0
  -29.9614  -23.0706   17.2670 C   0  0  0  0  0  0  0  0  0  0  0  0
  -25.6781  -22.9777   19.9671 C   0  0  0  0  0  0  0  0  0  0  0  0
  -30.6451  -15.3589   24.1568 C   0  0  0  0  0  0  0  0  0  0  0  0
  -22.5296  -11.7126   21.5047 C   0  0  0  0  0  0  0  0  0  0  0  0
  -22.6879  -11.9578   19.1064 C   0  0  0  0  0  0  0  0  0  0  0  0
  -25.6695  -22.1948   21.1207 C   0  0  0  0  0  0  0  0  0  0  0  0
  -21.8063   -8.1574   21.7344 C   0  0  0  0  0  0  0  0  0  0  0  0
  -22.3943   -7.1954   22.5556 C   0  0  0  0  0  0  0  0  0  0  0  0
  -26.0332  -24.1703   22.4566 C   0  0  0  0  0  0  0  0  0  0  0  0
  -24.5678   -7.7667   21.6684 C   0  0  0  0  0  0  0  0  0  0  0  0
  -23.2138  -13.8233   20.5488 C   0  0  0  0  0  0  0  0  0  0  0  0
  -30.1970  -17.4530   25.2754 C   0  0  0  0  0  0  0  0  0  0  0  0
  -22.9105  -16.2298   21.3388 C   0  0  0  0  0  0  0  0  0  0  0  0
  -30.6180  -24.4657   15.3935 C   0  0  0  0  0  0  0  0  0  0  0  0
  -25.8755  -24.3636   20.0488 C   0  0  0  0  0  0  0  0  0  0  0  0
  -30.2098  -24.3476   16.7358 C   0  0  0  0  0  0  0  0  0  0  0  0
  -26.0413  -24.9688   21.3027 C   0  0  0  0  0  0  0  0  0  0  0  0
  -30.5328  -16.7488   24.1191 C   0  0  0  0  0  0  0  0  0  0  0  0
  -22.4071  -11.1725   20.2245 C   0  0  0  0  0  0  0  0  0  0  0  0
  -25.8500  -22.7907   22.3655 C   0  0  0  0  0  0  0  0  0  0  0  0
  -22.5990   -8.9240   20.8801 C   0  0  0  0  0  0  0  0  0  0  0  0
  -23.7751   -7.0001   22.5227 C   0  0  0  0  0  0  0  0  0  0  0  0
  -23.9797   -8.7287   20.8472 C   0  0  0  0  0  0  0  0  0  0  0  0
  -23.6299  -15.1926   20.7156 C   0  0  0  0  0  0  0  0  0  0  0  0
  -23.7319  -17.3260   21.2381 C   0  0  0  0  0  0  0  0  0  0  0  0
  -28.3747  -20.7345   24.9107 C   0  0  0  0  0  0  0  0  0  0  0  0
  -30.0725  -18.9206   25.2640 C   0  0  0  0  0  0  0  0  0  0  0  0
  -21.6156  -16.2046   21.9538 C   0  0  0  0  0  0  0  0  0  0  0  0
  -28.0738  -26.3843   18.9589 C   0  0  0  0  0  0  0  0  0  0  0  0
  -26.0544  -28.6195   20.1623 C   0  0  0  0  0  0  0  0  0  0  0  0
  -23.5711  -29.3904   22.3727 C   0  0  0  0  0  0  0  0  0  0  0  0
  -29.6602  -17.9401   20.6649 C   0  0  0  0  0  0  0  0  0  0  0  0
  -30.9451  -25.8034   14.7785 C   0  0  0  0  0  0  0  0  0  0  0  0
  -25.8554  -25.1975   18.7971 C   0  0  0  0  0  0  0  0  0  0  0  0
  -26.2367  -26.4553   21.4462 C   0  0  0  0  0  0  0  0  0  0  0  0
  -30.3865  -26.9875   15.5634 C   0  0  0  0  0  0  0  0  0  0  0  0
  -27.1554  -19.1980   18.4694 C   0  0  0  0  0  0  0  0  0  0  0  0
  -30.6729  -26.8237   17.0527 C   0  0  0  0  0  0  0  0  0  0  0  0
  -25.9029  -18.4077   18.8523 C   0  0  0  0  0  0  0  0  0  0  0  0
  -28.4147  -18.3391   18.5611 C   0  0  0  0  0  0  0  0  0  0  0  0
  -27.5085  -18.8270   24.7484 C   0  0  0  0  0  0  0  0  0  0  0  0
  -27.3607  -16.8773   20.2421 C   0  0  0  0  0  0  0  0  0  0  0  0
  -29.9968  -25.5649   17.6093 C   0  0  1  0  0  0  0  0  0  0  0  0
  -26.9261  -20.2615   24.6839 C   0  0  2  0  0  0  0  0  0  0  0  0
  -26.5785  -26.5314   18.9562 C   0  0  1  0  0  0  0  0  0  0  0  0
  -26.0719  -17.7168   20.2188 C   0  0  2  0  0  0  0  0  0  0  0  0
  -22.1504  -31.3077   23.1494 C   0  0  0  0  0  0  0  0  0  0  0  0
  -28.4256  -29.7423   21.7201 C   0  0  0  0  0  0  0  0  0  0  0  0
  -26.8005  -30.9940   23.1556 C   0  0  0  0  0  0  0  0  0  0  0  0
  -26.9275  -31.4718   20.7105 C   0  0  0  0  0  0  0  0  0  0  0  0
  -21.0758  -28.0215   21.5613 C   0  0  0  0  0  0  0  0  0  0  0  0
  -30.7783  -17.4576   22.8274 C   0  0  0  0  0  0  0  0  0  0  0  0
  -26.2988  -20.6824   23.3701 C   0  0  0  0  0  0  0  0  0  1  0  0
  -25.8908  -29.3044   21.4977 C   0  0  1  0  0  0  0  0  0  0  0  0
  -22.2571  -30.1293   22.1940 C   0  0  2  0  0  0  0  0  0  0  0  0
  -27.0094  -30.3498   21.7684 C   0  0  0  0  0  0  0  0  0  0  0  0
  -24.8169  -15.5940   20.2531 N   0  0  0  0  0  0  0  0  0  0  0  0
  -24.8497  -16.8956   20.5858 N   0  0  0  0  0  0  0  0  0  0  0  0
  -28.8185  -19.4358   24.9744 N   0  0  0  0  0  0  0  0  0  0  0  0
  -26.2156  -27.2271   20.1926 N   0  0  0  0  0  0  0  0  0  0  0  0
  -28.5163  -17.7137   19.8819 N   0  0  0  0  0  0  0  0  0  0  0  0
  -23.5998  -18.6065   21.6447 N   0  0  0  0  0  0  0  0  0  0  0  0
  -20.4938  -16.4820   21.1608 N   0  0  0  0  0  0  0  0  0  0  0  0
  -28.5837  -25.7994   17.8155 N   0  0  0  0  0  0  0  0  0  0  0  0
  -24.5407  -29.8569   21.5105 N   0  0  0  0  0  0  0  0  0  0  0  0
  -29.6731  -17.3152   21.9059 N   0  0  0  0  0  0  0  0  0  0  0  0
  -21.1091  -29.2134   22.4475 N   0  3  0  0  0  0  0  0  0  0  0  0
  -28.9410  -21.8004   24.9964 O   0  0  0  0  0  0  0  0  0  0  0  0
  -31.0647  -19.5936   25.5307 O   0  0  0  0  0  0  0  0  0  0  0  0
  -21.4594  -15.9600   23.1742 O   0  0  0  0  0  0  0  0  0  0  0  0
  -28.7175  -26.7741   19.9261 O   0  0  0  0  0  0  0  0  0  0  0  0
  -26.0324  -29.2943   19.1299 O   0  0  0  0  0  0  0  0  0  0  0  0
  -23.7233  -28.4920   23.1975 O   0  0  0  0  0  0  0  0  0  0  0  0
  -30.5981  -18.6511   20.2883 O   0  0  0  0  0  0  0  0  0  0  0  0
  -22.0137   -9.8791   20.0660 O   0  0  0  0  0  0  0  0  0  0  0  0
  -25.8427  -22.0289   23.4930 O   0  0  0  0  0  0  0  0  0  1  0  0
  -24.3398   -6.0774   23.3125 F   0  0  0  0  0  0  0  0  0  0  0  0
  -24.7465   -9.4629   20.0294 F   0  0  0  0  0  0  0  0  0  0  0  0
  1  4  1  0  0  0  0
  1  7  2  0  0  0  0
  2  3  1  0  0  0  0
  2  8  2  0  0  0  0
  3  9  2  0  0  0  0
  4 11  2  0  0  0  0
  5 12  2  0  0  0  0
  5 19  1  0  0  0  0
  6 13  1  0  0  0  0
  6 19  2  0  0  0  0
  7 20  1  0  0  0  0
  8 22  1  0  0  0  0
  9 24  1  0  0  0  0
 10 14  2  0  0  0  0
 10 23  1  0  0  0  0
 11 26  1  0  0  0  0
 12 27  1  0  0  0  0
 13 27  2  0  0  0  0
 14 28  1  0  0  0  0
 15 16  2  0  0  0  0
 15 29  1  0  0  0  0
 16 30  1  0  0  0  0
 17 25  1  0  0  0  0
 17 28  2  0  0  0  0
 18 30  2  0  0  0  0
 18 31  1  0  0  0  0
 19 32  1  0  0  0  0
 20 26  2  0  0  0  0
 20 35  1  0  0  0  0
 21 32  1  0  0  0  0
 21 33  2  0  0  0  0
 21 36  1  0  0  0  0
 22 24  2  0  0  0  0
 22 41  1  0  0  0  0
 23 25  2  0  0  0  0
 23 42  1  0  0  0  0
 24 51  1  0  0  0  0
 25 43  1  0  0  0  0
 26 60  1  0  0  0  0
 27 83  1  0  0  0  0
 28 84  1  0  0  0  0
 29 31  2  0  0  0  0
 29 83  1  0  0  0  0
 30 85  1  0  0  0  0
 31 86  1  0  0  0  0
 32 65  2  0  0  0  0
 33 66  1  0  0  0  0
 33 70  1  0  0  0  0
 34 52  1  0  0  0  0
 34 67  1  0  0  0  0
 34 76  2  0  0  0  0
 35 67  1  0  0  0  0
 35 77  2  0  0  0  0
 36 71  1  0  0  0  0
 36 78  2  0  0  0  0
 37 53  1  0  0  0  0
 37 72  1  0  0  0  0
 37 79  2  0  0  0  0
 38 62  1  0  0  0  0
 38 68  1  0  0  0  0
 38 80  2  0  0  0  0
 39 63  1  0  0  0  0
 39 73  1  0  0  0  0
 39 81  2  0  0  0  0
 40 69  1  0  0  0  0
 40 74  1  0  0  0  0
 40 82  2  0  0  0  0
 41 44  1  0  0  0  0
 42 53  1  0  0  0  0
 43 68  1  0  0  0  0
 44 46  1  0  0  0  0
 45 47  1  0  0  0  0
 45 48  1  0  0  0  0
 46 51  1  0  0  0  0
 47 54  1  0  0  0  0
 48 69  1  0  0  0  0
 49 52  1  0  0  0  0
 49 67  1  0  0  0  0
 50 54  1  0  0  0  0
 50 69  1  0  0  0  0
 51 72  1  0  0  0  0
 52 61  1  0  0  0  0
 53 68  1  0  0  0  0
 54 66  1  0  0  0  0
 55 63  1  0  0  0  0
 56 64  1  0  0  0  0
 57 64  1  0  0  0  0
 58 64  1  0  0  0  0
 59 75  1  0  0  0  0
 60 74  1  0  0  0  0
 61 84  1  0  0  0  0
 62 64  1  0  0  0  0
 62 73  1  0  0  0  0
 63 75  1  0  0  0  0
 65 66  1  0  0  0  0
M  CHG  1  75   1
M  ISO  4  40 100  61 101  74 100  84 101
M  END
> <Batch ID>
0004

> <Smiles>
CNC(C)C(=O)NC(C(=O)N1Cc2cc([101O:1][101CH2:1]C3CN(C(=O)c4ccccc4C[100NH:0][100C:0](=O)N4CCCC(n5nc(-c6ccc(Oc7ccc(F)cc7F)cc6)c(C(N)=O)c5N)C4)C3=O)ccc2CC1C(=O)NC1CCCc2ccccc21)C(C)(C)C

> <Shape>
0.220

> <Color>
0.069

> <Negative vol penalty>
0.000

$$$$

  -OEChem-04042320233D

 87 96  0     1  0  0  0  0  0999 V2000
  -33.3534  -24.3538   28.2088 C   0  0  0  0  0  0  0  0  0  0  0  0
  -32.4020  -24.1350   27.2175 C   0  0  0  0  0  0  0  0  0  0  0  0
  -23.0736   -9.8697   19.9417 C   0  0  0  0  0  0  0  0  0  0  0  0
  -23.8313   -9.8782   22.2358 C   0  0  0  0  0  0  0  0  0  0  0  0
  -33.2181  -23.7365   29.4516 C   0  0  0  0  0  0  0  0  0  0  0  0
  -31.3154  -23.2979   27.4682 C   0  0  0  0  0  0  0  0  0  0  0  0
  -25.6153  -23.9206   25.3173 C   0  0  0  0  0  0  0  0  0  0  0  0
  -32.4779  -18.2929   22.5733 C   0  0  0  0  0  0  0  0  0  0  0  0
  -31.9612  -17.0775   22.1245 C   0  0  0  0  0  0  0  0  0  0  0  0
  -22.3284   -8.7175   20.1921 C   0  0  0  0  0  0  0  0  0  0  0  0
  -23.0860   -8.7260   22.4862 C   0  0  0  0  0  0  0  0  0  0  0  0
  -24.9456  -23.3255   24.2490 C   0  0  0  0  0  0  0  0  0  0  0  0
  -19.3780   -7.9250   21.6413 C   0  0  0  0  0  0  0  0  0  0  0  0
  -18.0716   -7.8795   21.1548 C   0  0  0  0  0  0  0  0  0  0  0  0
  -30.2472  -19.2187   22.6345 C   0  0  0  0  0  0  0  0  0  0  0  0
  -24.0042  -21.6939   25.7558 C   0  0  0  0  0  0  0  0  0  0  0  0
  -18.6308   -5.9347   19.8350 C   0  0  0  0  0  0  0  0  0  0  0  0
  -23.8251  -10.4501   20.9636 C   0  0  0  0  0  0  0  0  0  0  0  0
  -24.1694  -12.9748   20.8414 C   0  0  0  0  0  0  0  0  0  0  0  0
  -32.1241  -22.8991   29.7209 C   0  0  0  0  0  0  0  0  0  0  0  0
  -25.4928  -23.3993   26.6133 C   0  0  0  0  0  0  0  0  0  0  0  0
  -31.1661  -22.6678   28.7154 C   0  0  0  0  0  0  0  0  0  0  0  0
  -29.7305  -18.0033   22.1857 C   0  0  0  0  0  0  0  0  0  0  0  0
  -24.6713  -22.2857   26.8392 C   0  0  0  0  0  0  0  0  0  0  0  0
  -31.6209  -19.3635   22.8283 C   0  0  0  0  0  0  0  0  0  0  0  0
  -30.5875  -16.9327   21.9307 C   0  0  0  0  0  0  0  0  0  0  0  0
  -22.3346   -8.1456   21.4643 C   0  0  0  0  0  0  0  0  0  0  0  0
  -24.1422  -22.2103   24.4676 C   0  0  0  0  0  0  0  0  0  0  0  0
  -20.3109   -6.9754   21.2246 C   0  0  0  0  0  0  0  0  0  0  0  0
  -17.6979   -6.8844   20.2517 C   0  0  0  0  0  0  0  0  0  0  0  0
  -19.9373   -5.9802   20.3215 C   0  0  0  0  0  0  0  0  0  0  0  0
  -24.5955  -11.6400   20.7054 C   0  0  0  0  0  0  0  0  0  0  0  0
  -25.2625  -13.7229   20.4785 C   0  0  0  0  0  0  0  0  0  0  0  0
  -22.8989  -13.4922   21.2586 C   0  0  0  0  0  0  0  0  0  0  0  0
  -27.5087  -22.1423   28.7252 C   0  0  0  0  0  0  0  0  0  0  0  0
  -24.9023  -22.1877   30.6557 C   0  0  0  0  0  0  0  0  0  0  0  0
  -21.5007  -22.2148   30.9308 C   0  0  0  0  0  0  0  0  0  0  0  0
  -30.7295  -14.7636   20.6574 C   0  0  0  0  0  0  0  0  0  0  0  0
  -32.0457  -22.2164   31.0635 C   0  0  0  0  0  0  0  0  0  0  0  0
  -26.2005  -24.0688   27.7593 C   0  0  0  0  0  0  0  0  0  0  0  0
  -24.4904  -21.6997   28.2149 C   0  0  0  0  0  0  0  0  0  0  0  0
  -30.6665  -21.6407   31.3744 C   0  0  0  0  0  0  0  0  0  0  0  0
  -29.6152  -12.3485   18.2904 C   0  0  0  0  0  0  0  0  0  0  0  0
  -30.1275  -20.8683   30.1745 C   0  0  0  0  0  0  0  0  0  0  0  0
  -28.1748  -12.0587   18.7189 C   0  0  0  0  0  0  0  0  0  0  0  0
  -27.5165  -18.1038   23.3152 C   0  0  0  0  0  0  0  0  0  0  0  0
  -27.7739  -18.8780   20.9233 C   0  0  0  0  0  0  0  0  0  0  0  0
  -30.5293  -12.5776   19.4927 C   0  0  0  0  0  0  0  0  0  0  0  0
  -28.6217  -13.3052   20.8715 C   0  0  0  0  0  0  0  0  0  0  0  0
  -26.0051  -18.0634   23.1292 C   0  0  0  0  0  0  0  0  0  0  0  0
  -26.2606  -18.8313   20.7556 C   0  0  0  0  0  0  0  0  0  0  0  0
  -28.2546  -17.8767   21.9860 C   0  0  0  0  0  0  0  0  0  0  0  0
  -29.9602  -21.7861   28.9575 C   0  0  1  0  0  0  0  0  0  0  0  0
  -26.4119  -23.1435   28.9536 C   0  0  1  0  0  0  0  0  0  0  0  0
  -27.6499  -13.1317   19.6929 C   0  0  2  0  0  0  0  0  0  0  0  0
  -32.1739  -20.6630   23.3076 C   0  0  0  0  0  0  0  0  0  0  0  0
  -19.6625  -22.2125   32.6390 C   0  0  0  0  0  0  0  0  0  0  0  0
  -25.3843  -19.2185   31.1670 C   0  0  0  0  0  0  0  0  0  0  0  0
  -23.0530  -19.0663   32.0671 C   0  0  0  0  0  0  0  0  0  0  0  0
  -24.7289  -20.5327   33.1913 C   0  0  0  0  0  0  0  0  0  0  0  0
  -20.4608  -24.8192   29.9850 C   0  0  0  0  0  0  0  0  0  0  0  0
  -23.7015  -20.4944   21.3231 C   0  0  0  0  0  0  0  0  0  0  0  0
  -24.1038  -19.1720   21.9585 C   0  0  0  0  0  0  0  0  0  0  0  0
  -24.1029  -21.7152   22.1419 C   0  0  0  0  0  0  0  0  0  1  0  0
  -23.7765  -21.2274   30.9547 C   0  0  1  0  0  0  0  0  0  0  0  0
  -20.5644  -23.0701   31.7651 C   0  0  2  0  0  0  0  0  0  0  0  0
  -24.2404  -20.0209   31.8187 C   0  0  0  0  0  0  0  0  0  0  0  0
  -25.8607  -11.5426   20.2885 N   0  0  0  0  0  0  0  0  0  0  0  0
  -26.2389  -12.8257   20.1592 N   0  0  0  0  0  0  0  0  0  0  0  0
  -25.2080  -22.3861   29.3018 N   0  0  0  0  0  0  0  0  0  0  0  0
  -29.9705  -13.6098   20.3686 N   0  0  0  0  0  0  0  0  0  0  0  0
  -25.4743  -15.0541   20.4044 N   0  0  0  0  0  0  0  0  0  0  0  0
  -21.8859  -12.5843   21.5958 N   0  0  0  0  0  0  0  0  0  0  0  0
  -30.0822  -15.6900   21.4743 N   0  0  0  0  0  0  0  0  0  0  0  0
  -28.7639  -22.5895   29.0910 N   0  0  0  0  0  0  0  0  0  0  0  0
  -22.7125  -22.0214   31.5597 N   0  0  0  0  0  0  0  0  0  0  0  0
  -25.5771  -19.0820   22.0880 N   0  3  0  0  0  0  0  0  0  0  0  0
  -19.7046  -23.9088   30.8828 N   0  3  0  0  0  0  0  0  0  0  0  0
  -22.6638  -14.7231   21.3145 O   0  0  0  0  0  0  0  0  0  0  0  0
  -27.2361  -21.0446   28.2533 O   0  0  0  0  0  0  0  0  0  0  0  0
  -25.4841  -22.7468   31.5887 O   0  0  0  0  0  0  0  0  0  0  0  0
  -21.1871  -21.7603   29.8328 O   0  0  0  0  0  0  0  0  0  0  0  0
  -31.8592  -14.9308   20.1907 O   0  0  0  0  0  0  0  0  0  0  0  0
  -21.6074   -7.0215   21.7091 O   0  0  0  0  0  0  0  0  0  0  0  0
  -23.4880  -21.6271   23.4266 O   0  0  0  0  0  0  0  0  0  1  0  0
  -16.4429   -6.8399   19.7858 F   0  0  0  0  0  0  0  0  0  0  0  0
  -20.8287   -5.0644   19.9184 F   0  0  0  0  0  0  0  0  0  0  0  0
  1  2  1  0  0  0  0
  1  5  2  0  0  0  0
  2  6  2  0  0  0  0
  3 10  2  0  0  0  0
  3 18  1  0  0  0  0
  4 11  1  0  0  0  0
  4 18  2  0  0  0  0
  5 20  1  0  0  0  0
  6 22  1  0  0  0  0
  7 12  2  0  0  0  0
  7 21  1  0  0  0  0
  8  9  2  0  0  0  0
  8 25  1  0  0  0  0
  9 26  1  0  0  0  0
 10 27  1  0  0  0  0
 11 27  2  0  0  0  0
 12 28  1  0  0  0  0
 13 14  2  0  0  0  0
 13 29  1  0  0  0  0
 14 30  1  0  0  0  0
 15 23  1  0  0  0  0
 15 25  2  0  0  0  0
 16 24  1  0  0  0  0
 16 28  2  0  0  0  0
 17 30  2  0  0  0  0
 17 31  1  0  0  0  0
 18 32  1  0  0  0  0
 19 32  1  0  0  0  0
 19 33  2  0  0  0  0
 19 34  1  0  0  0  0
 20 22  2  0  0  0  0
 20 39  1  0  0  0  0
 21 24  2  0  0  0  0
 21 40  1  0  0  0  0
 22 53  1  0  0  0  0
 23 26  2  0  0  0  0
 23 52  1  0  0  0  0
 24 41  1  0  0  0  0
 25 56  1  0  0  0  0
 26 74  1  0  0  0  0
 27 84  1  0  0  0  0
 28 85  1  0  0  0  0
 29 31  2  0  0  0  0
 29 84  1  0  0  0  0
 30 86  1  0  0  0  0
 31 87  1  0  0  0  0
 32 68  2  0  0  0  0
 33 69  1  0  0  0  0
 33 72  1  0  0  0  0
 34 73  1  0  0  0  0
 34 79  2  0  0  0  0
 35 54  1  0  0  0  0
 35 75  1  0  0  0  0
 35 80  2  0  0  0  0
 36 65  1  0  0  0  0
 36 70  1  0  0  0  0
 36 81  2  0  0  0  0
 37 66  1  0  0  0  0
 37 76  1  0  0  0  0
 37 82  2  0  0  0  0
 38 71  1  0  0  0  0
 38 74  1  0  0  0  0
 38 83  2  0  0  0  0
 39 42  1  0  0  0  0
 40 54  1  0  0  0  0
 41 70  1  0  0  0  0
 42 44  1  0  0  0  0
 43 45  1  0  0  0  0
 43 48  1  0  0  0  0
 44 53  1  0  0  0  0
 45 55  1  0  0  0  0
 46 50  1  0  0  0  0
 46 52  1  0  0  0  0
 47 51  1  0  0  0  0
 47 52  1  0  0  0  0
 48 71  1  0  0  0  0
 49 55  1  0  0  0  0
 49 71  1  0  0  0  0
 50 77  1  0  0  0  0
 51 77  1  0  0  0  0
 53 75  1  0  0  0  0
 54 70  1  0  0  0  0
 55 69  1  0  0  0  0
 57 66  1  0  0  0  0
 58 67  1  0  0  0  0
 59 67  1  0  0  0  0
 60 67  1  0  0  0  0
 61 78  1  0  0  0  0
 62 63  1  0  0  0  0
 62 64  1  0  0  0  0
 63 77  1  0  0  0  0
 64 85  1  0  0  0  0
 65 67  1  0  0  0  0
 65 76  1  0  0  0  0
 66 78  1  0  0  0  0
 68 69  1  0  0  0  0
M  CHG  2  77   1  78   1
M  ISO  4  38 100  64 101  74 100  85 101
M  END
> <Batch ID>
0004

> <Smiles>
CNC(C)C(=O)NC(C(=O)N1Cc2cc([101O:1][101CH2:1]CCN3CCC(c4cc(C)ccc4[100NH:0][100C:0](=O)N4CCCC(n5nc(-c6ccc(Oc7ccc(F)cc7F)cc6)c(C(N)=O)c5N)C4)CC3)ccc2CC1C(=O)NC1CCCc2ccccc21)C(C)(C)C

> <Shape>
0.158

> <Color>
0.187

> <Negative vol penalty>
0.000

$$$$

  -OEChem-04042320233D

 84 92  0     1  0  0  0  0  0999 V2000
  -30.3006  -36.0735   20.0706 C   0  0  0  0  0  0  0  0  0  0  0  0
  -30.2656  -34.6979   20.2757 C   0  0  0  0  0  0  0  0  0  0  0  0
  -20.3743   -8.2788   19.4865 C   0  0  0  0  0  0  0  0  0  0  0  0
  -21.8502   -6.3675   19.4099 C   0  0  0  0  0  0  0  0  0  0  0  0
  -29.4598  -18.4755   18.4244 C   0  0  0  0  0  0  0  0  0  0  0  0
  -27.0658  -18.5879   18.7303 C   0  0  0  0  0  0  0  0  0  0  0  0
  -29.3502  -36.8922   20.6789 C   0  0  0  0  0  0  0  0  0  0  0  0
  -29.2807  -34.1405   21.0902 C   0  0  0  0  0  0  0  0  0  0  0  0
  -27.1950  -29.9972   19.0585 C   0  0  0  0  0  0  0  0  0  0  0  0
  -19.4605   -7.6056   18.6757 C   0  0  0  0  0  0  0  0  0  0  0  0
  -20.9364   -5.6943   18.5991 C   0  0  0  0  0  0  0  0  0  0  0  0
  -29.5046  -19.8606   18.2659 C   0  0  0  0  0  0  0  0  0  0  0  0
  -27.1107  -19.9731   18.5719 C   0  0  0  0  0  0  0  0  0  0  0  0
  -27.9239  -28.8116   19.1409 C   0  0  0  0  0  0  0  0  0  0  0  0
  -18.0368   -4.0030   18.9892 C   0  0  0  0  0  0  0  0  0  0  0  0
  -17.7579   -2.6714   19.2969 C   0  0  0  0  0  0  0  0  0  0  0  0
  -26.5753  -28.1199   21.0176 C   0  0  0  0  0  0  0  0  0  0  0  0
  -18.5512   -2.0013   17.1154 C   0  0  0  0  0  0  0  0  0  0  0  0
  -21.5692   -7.6597   19.8536 C   0  0  0  0  0  0  0  0  0  0  0  0
  -28.2404  -17.8391   18.6565 C   0  0  0  0  0  0  0  0  0  0  0  0
  -22.5725   -8.3435   22.0971 C   0  0  0  0  0  0  0  0  0  0  0  0
  -28.3473  -36.3435   21.4936 C   0  0  0  0  0  0  0  0  0  0  0  0
  -26.1561  -30.2583   19.9634 C   0  0  0  0  0  0  0  0  0  0  0  0
  -28.3167  -34.9528   21.7112 C   0  0  0  0  0  0  0  0  0  0  0  0
  -25.8330  -29.3084   20.9429 C   0  0  0  0  0  0  0  0  0  0  0  0
  -19.7415   -6.3134   18.2320 C   0  0  0  0  0  0  0  0  0  0  0  0
  -28.3301  -20.6094   18.3397 C   0  0  0  0  0  0  0  0  0  0  0  0
  -27.6161  -27.8740   20.1223 C   0  0  0  0  0  0  0  0  0  0  0  0
  -18.5728   -4.3338   17.7447 C   0  0  0  0  0  0  0  0  0  0  0  0
  -18.0151   -1.6705   18.3600 C   0  0  0  0  0  0  0  0  0  0  0  0
  -18.8301   -3.3329   16.8078 C   0  0  0  0  0  0  0  0  0  0  0  0
  -22.5138   -8.3548   20.6906 C   0  0  0  0  0  0  0  0  0  0  0  0
  -23.6387   -9.1536   22.4028 C   0  0  0  0  0  0  0  0  0  0  0  0
  -28.1928  -16.3759   18.8241 C   0  0  0  0  0  0  0  0  0  0  0  0
  -21.7379   -7.6617   23.0427 C   0  0  0  0  0  0  0  0  0  0  0  0
  -25.6057  -32.4836   22.1654 C   0  0  0  0  0  0  0  0  0  0  0  0
  -22.7209  -31.0142   22.3689 C   0  0  0  0  0  0  0  0  0  0  0  0
  -20.8714  -28.1846   21.9006 C   0  0  0  0  0  0  0  0  0  0  0  0
  -26.0899  -13.6434   19.4044 C   0  0  0  0  0  0  0  0  0  0  0  0
  -27.3701  -37.2736   22.1680 C   0  0  0  0  0  0  0  0  0  0  0  0
  -25.3618  -31.5301   19.8444 C   0  0  0  0  0  0  0  0  0  0  0  0
  -24.7137  -29.5318   21.9257 C   0  0  0  0  0  0  0  0  0  0  0  0
  -26.1335  -36.5654   22.7152 C   0  0  0  0  0  0  0  0  0  0  0  0
  -27.8169  -10.6720   20.6586 C   0  0  0  0  0  0  0  0  0  0  0  0
  -26.5336  -35.3094   23.4829 C   0  0  0  0  0  0  0  0  0  0  0  0
  -26.6427   -9.7284   20.9105 C   0  0  0  0  0  0  0  0  0  0  0  0
  -27.5823  -11.5534   19.4332 C   0  0  0  0  0  0  0  0  0  0  0  0
  -25.1347  -11.3822   19.7327 C   0  0  0  0  0  0  0  0  0  0  0  0
  -27.2489  -34.3080   22.5681 C   0  0  1  0  0  0  0  0  0  0  0  0
  -24.6608  -31.9204   21.1419 C   0  0  1  0  0  0  0  0  0  0  0  0
  -25.3184  -10.5067   20.9832 C   0  0  1  0  0  0  0  0  0  0  0  0
  -18.5500  -27.2776   22.1939 C   0  0  0  0  0  0  0  0  0  0  0  0
  -23.2018  -30.7612   25.3714 C   0  0  0  0  0  0  0  0  0  0  0  0
  -21.3688  -29.0576   25.4508 C   0  0  0  0  0  0  0  0  0  0  0  0
  -20.8667  -31.3950   24.7386 C   0  0  0  0  0  0  0  0  0  0  0  0
  -20.5804  -27.6718   19.0004 C   0  0  0  0  0  0  0  0  0  0  0  0
  -29.5197  -24.0601   17.8253 C   0  0  0  0  0  0  0  0  0  0  0  0
  -28.9604  -24.6830   19.0996 C   0  0  0  0  0  0  0  0  0  0  0  0
  -29.6513  -22.5480   17.9501 C   0  0  0  0  0  0  0  0  0  0  0  0
  -28.8688  -26.1985   18.9912 C   0  0  0  0  0  0  0  0  0  1  0  0
  -22.1564  -29.8753   23.1832 C   0  0  1  0  0  0  0  0  0  0  0  0
  -19.5211  -27.9610   21.2438 C   0  0  2  0  0  0  0  0  0  0  0  0
  -21.9208  -30.2686   24.6688 C   0  0  0  0  0  0  0  0  0  0  0  0
  -23.4668   -9.1121   20.1408 N   0  0  0  0  0  0  0  0  0  0  0  0
  -27.0830  -15.7479   19.0409 N   0  0  0  0  0  0  0  0  0  0  0  0
  -24.1344   -9.5843   21.2074 N   0  0  0  0  0  0  0  0  0  0  0  0
  -23.9705  -30.7934   21.7726 N   0  0  0  0  0  0  0  0  0  0  0  0
  -26.2947  -12.2580   19.5273 N   0  0  0  0  0  0  0  0  0  0  0  0
  -24.1912   -9.5323   23.5748 N   0  0  0  0  0  0  0  0  0  0  0  0
  -20.6872   -6.8707   22.5581 N   0  0  0  0  0  0  0  0  0  0  0  0
  -26.2913  -33.6057   21.7409 N   0  0  0  0  0  0  0  0  0  0  0  0
  -20.9549  -29.4307   22.4851 N   0  0  0  0  0  0  0  0  0  0  0  0
  -27.2241  -14.4049   19.1697 N   0  0  0  0  0  0  0  0  0  0  0  0
  -19.6701  -27.1086   20.0305 N   0  3  0  0  0  0  0  0  0  0  0  0
  -21.9083   -7.7643   24.2812 O   0  0  0  0  0  0  0  0  0  0  0  0
  -25.7043  -31.9412   23.2599 O   0  0  0  0  0  0  0  0  0  0  0  0
  -22.0737  -32.0587   22.2599 O   0  0  0  0  0  0  0  0  0  0  0  0
  -21.7615  -27.3372   21.8988 O   0  0  0  0  0  0  0  0  0  0  0  0
  -24.9719  -14.1634   19.4961 O   0  0  0  0  0  0  0  0  0  0  0  0
  -18.8499   -5.6561   17.4410 O   0  0  0  0  0  0  0  0  0  0  0  0
  -28.3738  -21.9703   18.1838 O   0  0  0  0  0  0  0  0  0  0  0  0
  -28.3264  -26.7163   20.2054 O   0  0  0  0  0  0  0  0  0  1  0  0
  -17.7487   -0.3917   18.6561 F   0  0  0  0  0  0  0  0  0  0  0  0
  -19.3461   -3.6444   15.6109 F   0  0  0  0  0  0  0  0  0  0  0  0
  1  2  1  0  0  0  0
  1  7  2  0  0  0  0
  2  8  2  0  0  0  0
  3 10  2  0  0  0  0
  3 19  1  0  0  0  0
  4 11  1  0  0  0  0
  4 19  2  0  0  0  0
  5 12  2  0  0  0  0
  5 20  1  0  0  0  0
  6 13  1  0  0  0  0
  6 20  2  0  0  0  0
  7 22  1  0  0  0  0
  8 24  1  0  0  0  0
  9 14  2  0  0  0  0
  9 23  1  0  0  0  0
 10 26  1  0  0  0  0
 11 26  2  0  0  0  0
 12 27  1  0  0  0  0
 13 27  2  0  0  0  0
 14 28  1  0  0  0  0
 15 16  2  0  0  0  0
 15 29  1  0  0  0  0
 16 30  1  0  0  0  0
 17 25  1  0  0  0  0
 17 28  2  0  0  0  0
 18 30  2  0  0  0  0
 18 31  1  0  0  0  0
 19 32  1  0  0  0  0
 20 34  1  0  0  0  0
 21 32  1  0  0  0  0
 21 33  2  0  0  0  0
 21 35  1  0  0  0  0
 22 24  2  0  0  0  0
 22 40  1  0  0  0  0
 23 25  2  0  0  0  0
 23 41  1  0  0  0  0
 24 49  1  0  0  0  0
 25 42  1  0  0  0  0
 26 80  1  0  0  0  0
 27 81  1  0  0  0  0
 28 82  1  0  0  0  0
 29 31  2  0  0  0  0
 29 80  1  0  0  0  0
 30 83  1  0  0  0  0
 31 84  1  0  0  0  0
 32 64  2  0  0  0  0
 33 66  1  0  0  0  0
 33 69  1  0  0  0  0
 34 65  2  0  0  0  0
 35 70  1  0  0  0  0
 35 75  2  0  0  0  0
 36 50  1  0  0  0  0
 36 71  1  0  0  0  0
 36 76  2  0  0  0  0
 37 61  1  0  0  0  0
 37 67  1  0  0  0  0
 37 77  2  0  0  0  0
 38 62  1  0  0  0  0
 38 72  1  0  0  0  0
 38 78  2  0  0  0  0
 39 68  1  0  0  0  0
 39 73  1  0  0  0  0
 39 79  2  0  0  0  0
 40 43  1  0  0  0  0
 41 50  1  0  0  0  0
 42 67  1  0  0  0  0
 43 45  1  0  0  0  0
 44 46  1  0  0  0  0
 44 47  1  0  0  0  0
 45 49  1  0  0  0  0
 46 51  1  0  0  0  0
 47 68  1  0  0  0  0
 48 51  1  0  0  0  0
 48 68  1  0  0  0  0
 49 71  1  0  0  0  0
 50 67  1  0  0  0  0
 51 66  1  0  0  0  0
 52 62  1  0  0  0  0
 53 63  1  0  0  0  0
 54 63  1  0  0  0  0
 55 63  1  0  0  0  0
 56 74  1  0  0  0  0
 57 58  1  0  0  0  0
 57 59  1  0  0  0  0
 58 60  1  0  0  0  0
 59 81  1  0  0  0  0
 60 82  1  0  0  0  0
 61 63  1  0  0  0  0
 61 72  1  0  0  0  0
 62 74  1  0  0  0  0
 64 66  1  0  0  0  0
 65 73  1  0  0  0  0
M  CHG  1  74   1
M  ISO  4  39 100  60 101  73 100  82 101
M  END
> <Batch ID>
0004

> <Smiles>
CNC(C)C(=O)NC(C(=O)N1Cc2cc([101O:1][101CH2:1]CCCOc3ccc(C=N[100NH:0][100C:0](=O)N4CCCC(n5nc(-c6ccc(Oc7ccc(F)cc7F)cc6)c(C(N)=O)c5N)C4)cc3)ccc2CC1C(=O)NC1CCCc2ccccc21)C(C)(C)C

> <Shape>
0.254

> <Color>
0.075

> <Negative vol penalty>
0.000

$$$$

  -OEChem-04042320233D

 84 92  0     1  0  0  0  0  0999 V2000
  -29.6286  -18.3874   15.7574 C   0  0  0  0  0  0  0  0  0  0  0  0
  -29.8949  -17.4279   16.7290 C   0  0  0  0  0  0  0  0  0  0  0  0
  -26.0461  -28.1459   19.0276 C   0  0  0  0  0  0  0  0  0  0  0  0
  -27.0167  -28.5168   21.2088 C   0  0  0  0  0  0  0  0  0  0  0  0
  -33.0455  -16.3269   21.1976 C   0  0  0  0  0  0  0  0  0  0  0  0
  -31.3102  -15.6927   22.7544 C   0  0  0  0  0  0  0  0  0  0  0  0
  -28.4656  -19.1525   15.8353 C   0  0  0  0  0  0  0  0  0  0  0  0
  -28.9989  -17.2337   17.7796 C   0  0  0  0  0  0  0  0  0  0  0  0
  -28.1114  -12.3328   18.6953 C   0  0  0  0  0  0  0  0  0  0  0  0
  -32.8005  -17.6723   21.4725 C   0  0  0  0  0  0  0  0  0  0  0  0
  -31.0652  -17.0380   23.0294 C   0  0  0  0  0  0  0  0  0  0  0  0
  -24.9197  -28.8772   19.4045 C   0  0  0  0  0  0  0  0  0  0  0  0
  -25.8904  -29.2482   21.5857 C   0  0  0  0  0  0  0  0  0  0  0  0
  -29.0848  -11.6313   19.4053 C   0  0  0  0  0  0  0  0  0  0  0  0
  -24.6695  -32.3626   21.1056 C   0  0  0  0  0  0  0  0  0  0  0  0
  -24.8760  -33.5682   21.7761 C   0  0  0  0  0  0  0  0  0  0  0  0
  -27.7755  -11.8637   21.4180 C   0  0  0  0  0  0  0  0  0  0  0  0
  -23.6365  -32.7265   23.6714 C   0  0  0  0  0  0  0  0  0  0  0  0
  -27.0946  -27.9656   19.9298 C   0  0  0  0  0  0  0  0  0  0  0  0
  -32.3003  -15.3371   21.8384 C   0  0  0  0  0  0  0  0  0  0  0  0
  -29.4295  -27.7034   18.9363 C   0  0  0  0  0  0  0  0  0  0  0  0
  -27.5501  -18.9609   16.8821 C   0  0  0  0  0  0  0  0  0  0  0  0
  -26.9660  -12.8153   19.3446 C   0  0  0  0  0  0  0  0  0  0  0  0
  -27.8232  -17.9979   17.8723 C   0  0  0  0  0  0  0  0  0  0  0  0
  -26.7879  -12.5689   20.7134 C   0  0  0  0  0  0  0  0  0  0  0  0
  -31.8104  -18.0278   22.3885 C   0  0  0  0  0  0  0  0  0  0  0  0
  -24.8418  -29.4284   20.6835 C   0  0  0  0  0  0  0  0  0  0  0  0
  -28.9184  -11.3992   20.7675 C   0  0  0  0  0  0  0  0  0  0  0  0
  -23.9464  -31.3389   21.7181 C   0  0  0  0  0  0  0  0  0  0  0  0
  -24.3595  -33.7502   23.0589 C   0  0  0  0  0  0  0  0  0  0  0  0
  -23.4300  -31.5209   23.0010 C   0  0  0  0  0  0  0  0  0  0  0  0
  -28.2581  -27.2098   19.5413 C   0  0  0  0  0  0  0  0  0  0  0  0
  -30.2242  -26.5953   18.7720 C   0  0  0  0  0  0  0  0  0  0  0  0
  -32.5607  -13.9039   21.5467 C   0  0  0  0  0  0  0  0  0  0  0  0
  -29.7689  -29.0438   18.5568 C   0  0  0  0  0  0  0  0  0  0  0  0
  -25.7277  -15.6965   19.8636 C   0  0  0  0  0  0  0  0  0  0  0  0
  -23.2544  -13.9860   21.0798 C   0  0  0  0  0  0  0  0  0  0  0  0
  -22.1568  -11.0725   22.4773 C   0  0  0  0  0  0  0  0  0  0  0  0
  -30.4710  -21.4652   21.6833 C   0  0  0  0  0  0  0  0  0  0  0  0
  -26.3298  -19.8446   16.9501 C   0  0  0  0  0  0  0  0  0  0  0  0
  -25.9126  -13.5471   18.5590 C   0  0  0  0  0  0  0  0  0  0  0  0
  -25.5666  -13.0481   21.4531 C   0  0  0  0  0  0  0  0  0  0  0  0
  -25.2479  -19.3178   17.8894 C   0  0  0  0  0  0  0  0  0  0  0  0
  -29.9605  -21.8608   18.1224 C   0  0  0  0  0  0  0  0  0  0  0  0
  -25.8596  -18.8819   19.2170 C   0  0  0  0  0  0  0  0  0  0  0  0
  -29.5750  -23.3384   18.0327 C   0  0  0  0  0  0  0  0  0  0  0  0
  -29.3770  -21.2122   19.3742 C   0  0  0  0  0  0  0  0  0  0  0  0
  -29.3551  -23.3722   20.5606 C   0  0  0  0  0  0  0  0  0  0  0  0
  -26.8634  -17.7407   19.0136 C   0  0  1  0  0  0  0  0  0  0  0  0
  -25.0308  -14.4387   19.4278 C   0  0  1  0  0  0  0  0  0  0  0  0
  -29.9335  -24.0907   19.3280 C   0  0  2  0  0  0  0  0  0  0  0  0
  -20.0916   -9.9857   23.4000 C   0  0  0  0  0  0  0  0  0  0  0  0
  -23.5191  -15.6489   23.6243 C   0  0  0  0  0  0  0  0  0  0  0  0
  -22.1298  -13.9340   24.8063 C   0  0  0  0  0  0  0  0  0  0  0  0
  -21.1645  -15.2195   22.8989 C   0  0  0  0  0  0  0  0  0  0  0  0
  -22.2442   -8.9181   20.4500 C   0  0  0  0  0  0  0  0  0  0  0  0
  -31.5495  -19.4665   22.6830 C   0  0  0  0  0  0  0  0  0  0  0  0
  -31.4674  -10.7787   23.2502 C   0  0  0  0  0  0  0  0  0  0  0  0
  -32.4687  -11.5910   22.4401 C   0  0  0  0  0  0  0  0  0  0  0  0
  -30.0227  -11.0424   22.8433 C   0  0  0  0  0  0  0  0  0  1  0  0
  -22.9002  -13.4390   22.4415 C   0  0  1  0  0  0  0  0  0  0  0  0
  -20.9568  -10.1959   22.1672 C   0  0  2  0  0  0  0  0  0  0  0  0
  -22.4524  -14.5529   23.4295 C   0  0  0  0  0  0  0  0  0  0  0  0
  -28.3006  -25.8908   19.7472 N   0  0  0  0  0  0  0  0  0  0  0  0
  -29.5083  -25.5461   19.2689 N   0  0  0  0  0  0  0  0  0  0  0  0
  -24.5679  -13.7643   20.6424 N   0  0  0  0  0  0  0  0  0  0  0  0
  -29.7709  -21.9657   20.5731 N   0  0  0  0  0  0  0  0  0  0  0  0
  -31.4586  -26.4258   18.2523 N   0  0  0  0  0  0  0  0  0  0  0  0
  -28.8369  -30.0625   18.7975 N   0  0  0  0  0  0  0  0  0  0  0  0
  -32.2509  -13.0059   22.5620 N   0  0  0  0  0  0  0  0  0  0  0  0
  -26.1694  -16.4857   18.8188 N   0  0  0  0  0  0  0  0  0  0  0  0
  -21.8991  -12.4018   22.2169 N   0  0  0  0  0  0  0  0  0  0  0  0
  -30.8217  -20.1222   21.6193 N   0  0  0  0  0  0  0  0  0  0  0  0
  -21.4032   -8.8625   21.6734 N   0  3  0  0  0  0  0  0  0  0  0  0
  -33.0429  -13.5904   20.4614 O   0  0  0  0  0  0  0  0  0  0  0  0
  -30.8593  -29.3270   18.0053 O   0  0  0  0  0  0  0  0  0  0  0  0
  -25.8540  -15.9341   21.0591 O   0  0  0  0  0  0  0  0  0  0  0  0
  -22.3951  -14.5817   20.4251 O   0  0  0  0  0  0  0  0  0  0  0  0
  -23.2154  -10.6234   22.9110 O   0  0  0  0  0  0  0  0  0  0  0  0
  -30.7667  -22.1650   22.6580 O   0  0  0  0  0  0  0  0  0  0  0  0
  -23.7430  -30.1423   21.0515 O   0  0  0  0  0  0  0  0  0  0  0  0
  -29.8672  -10.7153   21.4630 O   0  0  0  0  0  0  0  0  0  1  0  0
  -24.5592  -34.9074   23.7032 F   0  0  0  0  0  0  0  0  0  0  0  0
  -22.7356  -30.5407   23.5949 F   0  0  0  0  0  0  0  0  0  0  0  0
  1  2  1  0  0  0  0
  1  7  2  0  0  0  0
  2  8  2  0  0  0  0
  3 12  2  0  0  0  0
  3 19  1  0  0  0  0
  4 13  1  0  0  0  0
  4 19  2  0  0  0  0
  5 10  2  0  0  0  0
  5 20  1  0  0  0  0
  6 11  1  0  0  0  0
  6 20  2  0  0  0  0
  7 22  1  0  0  0  0
  8 24  1  0  0  0  0
  9 14  2  0  0  0  0
  9 23  1  0  0  0  0
 10 26  1  0  0  0  0
 11 26  2  0  0  0  0
 12 27  1  0  0  0  0
 13 27  2  0  0  0  0
 14 28  1  0  0  0  0
 15 16  2  0  0  0  0
 15 29  1  0  0  0  0
 16 30  1  0  0  0  0
 17 25  1  0  0  0  0
 17 28  2  0  0  0  0
 18 30  2  0  0  0  0
 18 31  1  0  0  0  0
 19 32  1  0  0  0  0
 20 34  1  0  0  0  0
 21 32  1  0  0  0  0
 21 33  2  0  0  0  0
 21 35  1  0  0  0  0
 22 24  2  0  0  0  0
 22 40  1  0  0  0  0
 23 25  2  0  0  0  0
 23 41  1  0  0  0  0
 24 49  1  0  0  0  0
 25 42  1  0  0  0  0
 26 57  1  0  0  0  0
 27 81  1  0  0  0  0
 28 82  1  0  0  0  0
 29 31  2  0  0  0  0
 29 81  1  0  0  0  0
 30 83  1  0  0  0  0
 31 84  1  0  0  0  0
 32 64  2  0  0  0  0
 33 65  1  0  0  0  0
 33 68  1  0  0  0  0
 34 70  1  0  0  0  0
 34 75  2  0  0  0  0
 35 69  1  0  0  0  0
 35 76  2  0  0  0  0
 36 50  1  0  0  0  0
 36 71  1  0  0  0  0
 36 77  2  0  0  0  0
 37 61  1  0  0  0  0
 37 66  1  0  0  0  0
 37 78  2  0  0  0  0
 38 62  1  0  0  0  0
 38 72  1  0  0  0  0
 38 79  2  0  0  0  0
 39 67  1  0  0  0  0
 39 73  1  0  0  0  0
 39 80  2  0  0  0  0
 40 43  1  0  0  0  0
 41 50  1  0  0  0  0
 42 66  1  0  0  0  0
 43 45  1  0  0  0  0
 44 46  1  0  0  0  0
 44 47  1  0  0  0  0
 45 49  1  0  0  0  0
 46 51  1  0  0  0  0
 47 67  1  0  0  0  0
 48 51  1  0  0  0  0
 48 67  1  0  0  0  0
 49 71  1  0  0  0  0
 50 66  1  0  0  0  0
 51 65  1  0  0  0  0
 52 62  1  0  0  0  0
 53 63  1  0  0  0  0
 54 63  1  0  0  0  0
 55 63  1  0  0  0  0
 56 74  1  0  0  0  0
 57 73  1  0  0  0  0
 58 59  1  0  0  0  0
 58 60  1  0  0  0  0
 59 70  1  0  0  0  0
 60 82  1  0  0  0  0
 61 63  1  0  0  0  0
 61 72  1  0  0  0  0
 62 74  1  0  0  0  0
 64 65  1  0  0  0  0
M  CHG  1  74   1
M  ISO  4  39 100  60 101  73 100  82 101
M  END
> <Batch ID>
0004

> <Smiles>
CNC(C)C(=O)NC(C(=O)N1Cc2cc([101O:1][101CH2:1]CCNC(=O)c3ccc(C[100NH:0][100C:0](=O)N4CCCC(n5nc(-c6ccc(Oc7ccc(F)cc7F)cc6)c(C(N)=O)c5N)C4)cc3)ccc2CC1C(=O)NC1CCCc2ccccc21)C(C)(C)C

> <Shape>
0.259

> <Color>
0.074

> <Negative vol penalty>
0.000

$$$$

  -OEChem-04042320233D

 82 90  0     1  0  0  0  0  0999 V2000
  -18.1133  -25.5315   23.0315 C   0  0  0  0  0  0  0  0  0  0  0  0
  -19.2196  -25.4769   22.1897 C   0  0  0  0  0  0  0  0  0  0  0  0
  -26.0370  -16.2643   20.4737 C   0  0  0  0  0  0  0  0  0  0  0  0
  -25.9626  -16.6509   18.0900 C   0  0  0  0  0  0  0  0  0  0  0  0
  -17.6105  -26.7658   23.4408 C   0  0  0  0  0  0  0  0  0  0  0  0
  -19.8231  -26.6568   21.7559 C   0  0  0  0  0  0  0  0  0  0  0  0
  -25.7893  -27.5768   20.7242 C   0  0  0  0  0  0  0  0  0  0  0  0
  -24.0518  -24.9853   15.2817 C   0  0  0  0  0  0  0  0  0  0  0  0
  -22.5176  -26.5401   16.3141 C   0  0  0  0  0  0  0  0  0  0  0  0
  -25.8837  -14.8951   20.2565 C   0  0  0  0  0  0  0  0  0  0  0  0
  -25.8094  -15.2816   17.8727 C   0  0  0  0  0  0  0  0  0  0  0  0
  -26.5513  -27.5697   19.5568 C   0  0  0  0  0  0  0  0  0  0  0  0
  -24.9193  -26.0371   14.9868 C   0  0  0  0  0  0  0  0  0  0  0  0
  -23.3851  -27.5919   16.0193 C   0  0  0  0  0  0  0  0  0  0  0  0
  -27.8238  -12.2892   19.3193 C   0  0  0  0  0  0  0  0  0  0  0  0
  -28.6485  -11.4227   20.0367 C   0  0  0  0  0  0  0  0  0  0  0  0
  -26.3425  -29.9687   19.4131 C   0  0  0  0  0  0  0  0  0  0  0  0
  -26.7020  -10.3921   21.0297 C   0  0  0  0  0  0  0  0  0  0  0  0
  -26.0763  -17.1423   19.3904 C   0  0  0  0  0  0  0  0  0  0  0  0
  -27.4419  -19.2757   19.6929 C   0  0  0  0  0  0  0  0  0  0  0  0
  -18.2141  -27.9612   23.0196 C   0  0  0  0  0  0  0  0  0  0  0  0
  -25.2881  -28.7807   21.2398 C   0  0  0  0  0  0  0  0  0  0  0  0
  -19.3271  -27.9083   22.1590 C   0  0  0  0  0  0  0  0  0  0  0  0
  -25.5765  -29.9886   20.5886 C   0  0  0  0  0  0  0  0  0  0  0  0
  -22.8509  -25.2369   15.9452 C   0  0  0  0  0  0  0  0  0  0  0  0
  -25.7700  -14.4037   18.9560 C   0  0  0  0  0  0  0  0  0  0  0  0
  -24.5860  -27.3403   15.3557 C   0  0  0  0  0  0  0  0  0  0  0  0
  -26.8256  -28.7654   18.8994 C   0  0  0  0  0  0  0  0  0  0  0  0
  -26.4381  -12.2072   19.4572 C   0  0  0  0  0  0  0  0  0  0  0  0
  -28.0877  -10.4742   20.8919 C   0  0  0  0  0  0  0  0  0  0  0  0
  -25.8773  -11.2586   20.3123 C   0  0  0  0  0  0  0  0  0  0  0  0
  -26.2341  -18.5569   19.6142 C   0  0  0  0  0  0  0  0  0  0  0  0
  -27.0547  -20.5746   19.9148 C   0  0  0  0  0  0  0  0  0  0  0  0
  -28.7932  -18.8107   19.5758 C   0  0  0  0  0  0  0  0  0  0  0  0
  -22.3833  -29.9508   21.7848 C   0  0  0  0  0  0  0  0  0  0  0  0
  -24.0432  -32.3816   23.1481 C   0  0  0  0  0  0  0  0  0  0  0  0
  -26.9620  -34.1375   23.3571 C   0  0  0  0  0  0  0  0  0  0  0  0
  -22.0354  -23.5994   18.6866 C   0  0  0  0  0  0  0  0  0  0  0  0
  -17.6060  -29.2724   23.4504 C   0  0  0  0  0  0  0  0  0  0  0  0
  -24.4902  -28.7743   22.5148 C   0  0  0  0  0  0  0  0  0  0  0  0
  -25.0789  -31.3103   21.1122 C   0  0  0  0  0  0  0  0  0  0  0  0
  -18.5319  -30.4690   23.2475 C   0  0  0  0  0  0  0  0  0  0  0  0
  -23.5349  -23.1482   21.8842 C   0  0  0  0  0  0  0  0  0  0  0  0
  -19.1659  -30.4244   21.8608 C   0  0  0  0  0  0  0  0  0  0  0  0
  -24.5057  -21.9852   21.6721 C   0  0  0  0  0  0  0  0  0  0  0  0
  -22.2539  -22.9693   21.0723 C   0  0  0  0  0  0  0  0  0  0  0  0
  -23.4326  -21.5726   19.4189 C   0  0  0  0  0  0  0  0  0  0  0  0
  -20.0244  -29.1657   21.6870 C   0  0  1  0  0  0  0  0  0  0  0  0
  -23.5981  -30.0024   22.6676 C   0  0  1  0  0  0  0  0  0  0  0  0
  -24.7629  -21.7356   20.1738 C   0  0  2  0  0  0  0  0  0  0  0  0
  -28.0037  -36.0946   24.5328 C   0  0  0  0  0  0  0  0  0  0  0  0
  -22.4831  -34.2895   21.3492 C   0  0  0  0  0  0  0  0  0  0  0  0
  -24.1864  -36.0521   21.8592 C   0  0  0  0  0  0  0  0  0  0  0  0
  -22.7987  -35.0924   23.6966 C   0  0  0  0  0  0  0  0  0  0  0  0
  -29.0444  -32.4354   24.5922 C   0  0  0  0  0  0  0  0  0  0  0  0
  -21.9236  -24.1125   16.2610 C   0  0  0  0  0  0  0  0  0  0  0  0
  -27.6395  -29.2913   15.4065 C   0  0  0  0  0  0  0  0  0  0  0  0
  -26.8259  -28.0659   15.0210 C   0  0  0  0  0  0  0  0  0  0  0  0
  -27.2969  -29.7853   16.8033 C   0  0  0  0  0  0  0  0  0  1  0  0
  -24.6249  -33.6857   22.6584 C   0  0  1  0  0  0  0  0  0  0  0  0
  -27.7819  -34.5902   24.5519 C   0  0  2  0  0  0  0  0  0  0  0  0
  -23.5312  -34.7550   22.3797 C   0  0  0  0  0  0  0  0  0  0  0  0
  -25.1599  -19.3347   19.7733 N   0  0  0  0  0  0  0  0  0  0  0  0
  -25.6915  -20.5556   19.9543 N   0  0  0  0  0  0  0  0  0  0  0  0
  -24.2977  -31.2512   22.3587 N   0  0  0  0  0  0  0  0  0  0  0  0
  -22.5675  -22.7380   19.6602 N   0  0  0  0  0  0  0  0  0  0  0  0
  -27.7507  -21.7198   20.0780 N   0  0  0  0  0  0  0  0  0  0  0  0
  -29.0126  -17.4453   19.3483 N   0  0  0  0  0  0  0  0  0  0  0  0
  -21.2952  -29.3236   22.3610 N   0  0  0  0  0  0  0  0  0  0  0  0
  -25.6156  -34.0889   23.6506 N   0  0  0  0  0  0  0  0  0  0  0  0
  -22.3873  -23.3132   17.3732 N   0  0  0  0  0  0  0  0  0  0  0  0
  -29.1124  -33.9189   24.5514 N   0  3  0  0  0  0  0  0  0  0  0  0
  -29.7773  -19.5806   19.6865 O   0  0  0  0  0  0  0  0  0  0  0  0
  -22.4294  -30.4449   20.6643 O   0  0  0  0  0  0  0  0  0  0  0  0
  -23.3931  -32.3652   24.1963 O   0  0  0  0  0  0  0  0  0  0  0  0
  -27.4653  -33.8588   22.2710 O   0  0  0  0  0  0  0  0  0  0  0  0
  -21.3055  -24.5561   18.9675 O   0  0  0  0  0  0  0  0  0  0  0  0
  -25.6207  -13.0676   18.7436 O   0  0  0  0  0  0  0  0  0  0  0  0
  -25.4391  -28.3735   15.0671 O   0  0  0  0  0  0  0  0  0  0  0  0
  -27.5686  -28.7613   17.7593 O   0  0  0  0  0  0  0  0  0  1  0  0
  -28.8797   -9.6412   21.5795 F   0  0  0  0  0  0  0  0  0  0  0  0
  -24.5467  -11.1742   20.4480 F   0  0  0  0  0  0  0  0  0  0  0  0
  1  2  1  0  0  0  0
  1  5  2  0  0  0  0
  2  6  2  0  0  0  0
  3 10  2  0  0  0  0
  3 19  1  0  0  0  0
  4 11  1  0  0  0  0
  4 19  2  0  0  0  0
  5 21  1  0  0  0  0
  6 23  1  0  0  0  0
  7 12  2  0  0  0  0
  7 22  1  0  0  0  0
  8 13  2  0  0  0  0
  8 25  1  0  0  0  0
  9 14  1  0  0  0  0
  9 25  2  0  0  0  0
 10 26  1  0  0  0  0
 11 26  2  0  0  0  0
 12 28  1  0  0  0  0
 13 27  1  0  0  0  0
 14 27  2  0  0  0  0
 15 16  2  0  0  0  0
 15 29  1  0  0  0  0
 16 30  1  0  0  0  0
 17 24  1  0  0  0  0
 17 28  2  0  0  0  0
 18 30  2  0  0  0  0
 18 31  1  0  0  0  0
 19 32  1  0  0  0  0
 20 32  1  0  0  0  0
 20 33  2  0  0  0  0
 20 34  1  0  0  0  0
 21 23  2  0  0  0  0
 21 39  1  0  0  0  0
 22 24  2  0  0  0  0
 22 40  1  0  0  0  0
 23 48  1  0  0  0  0
 24 41  1  0  0  0  0
 25 56  1  0  0  0  0
 26 78  1  0  0  0  0
 27 79  1  0  0  0  0
 28 80  1  0  0  0  0
 29 31  2  0  0  0  0
 29 78  1  0  0  0  0
 30 81  1  0  0  0  0
 31 82  1  0  0  0  0
 32 63  2  0  0  0  0
 33 64  1  0  0  0  0
 33 67  1  0  0  0  0
 34 68  1  0  0  0  0
 34 73  2  0  0  0  0
 35 49  1  0  0  0  0
 35 69  1  0  0  0  0
 35 74  2  0  0  0  0
 36 60  1  0  0  0  0
 36 65  1  0  0  0  0
 36 75  2  0  0  0  0
 37 61  1  0  0  0  0
 37 70  1  0  0  0  0
 37 76  2  0  0  0  0
 38 66  1  0  0  0  0
 38 71  1  0  0  0  0
 38 77  2  0  0  0  0
 39 42  1  0  0  0  0
 40 49  1  0  0  0  0
 41 65  1  0  0  0  0
 42 44  1  0  0  0  0
 43 45  1  0  0  0  0
 43 46  1  0  0  0  0
 44 48  1  0  0  0  0
 45 50  1  0  0  0  0
 46 66  1  0  0  0  0
 47 50  1  0  0  0  0
 47 66  1  0  0  0  0
 48 69  1  0  0  0  0
 49 65  1  0  0  0  0
 50 64  1  0  0  0  0
 51 61  1  0  0  0  0
 52 62  1  0  0  0  0
 53 62  1  0  0  0  0
 54 62  1  0  0  0  0
 55 72  1  0  0  0  0
 56 71  1  0  0  0  0
 57 58  1  0  0  0  0
 57 59  1  0  0  0  0
 58 79  1  0  0  0  0
 59 80  1  0  0  0  0
 60 62  1  0  0  0  0
 60 70  1  0  0  0  0
 61 72  1  0  0  0  0
 63 64  1  0  0  0  0
M  CHG  1  72   1
M  ISO  4  38 100  59 101  71 100  80 101
M  END
> <Batch ID>
0004

> <Smiles>
CNC(C)C(=O)NC(C(=O)N1Cc2cc([101O:1][101CH2:1]CCOc3ccc(C[100NH:0][100C:0](=O)N4CCCC(n5nc(-c6ccc(Oc7ccc(F)cc7F)cc6)c(C(N)=O)c5N)C4)cc3)ccc2CC1C(=O)NC1CCCc2ccccc21)C(C)(C)C

> <Shape>
0.230

> <Color>
0.098

> <Negative vol penalty>
0.000

$$$$

  -OEChem-04042320233D

 82 90  0     1  0  0  0  0  0999 V2000
  -32.2863  -21.7237   22.3400 C   0  0  0  0  0  0  0  0  0  0  0  0
  -31.1143  -22.1578   22.9510 C   0  0  0  0  0  0  0  0  0  0  0  0
  -29.8275  -27.6994   20.2072 C   0  0  0  0  0  0  0  0  0  0  0  0
  -28.7228  -26.3480   21.8777 C   0  0  0  0  0  0  0  0  0  0  0  0
  -32.2250  -21.0183   21.1389 C   0  0  0  0  0  0  0  0  0  0  0  0
  -29.8802  -21.8876   22.3606 C   0  0  0  0  0  0  0  0  0  0  0  0
  -23.0656  -20.4807   24.0631 C   0  0  0  0  0  0  0  0  0  0  0  0
  -19.1345  -27.2321   23.5484 C   0  0  0  0  0  0  0  0  0  0  0  0
  -19.4897  -28.0188   21.2918 C   0  0  0  0  0  0  0  0  0  0  0  0
  -18.6299  -26.0309   23.0502 C   0  0  0  0  0  0  0  0  0  0  0  0
  -18.9851  -26.8176   20.7936 C   0  0  0  0  0  0  0  0  0  0  0  0
  -31.0674  -27.2649   20.6757 C   0  0  0  0  0  0  0  0  0  0  0  0
  -29.9627  -25.9135   22.3461 C   0  0  0  0  0  0  0  0  0  0  0  0
  -21.7725  -20.9188   23.7809 C   0  0  0  0  0  0  0  0  0  0  0  0
  -33.0152  -24.5161   20.3879 C   0  0  0  0  0  0  0  0  0  0  0  0
  -33.9660  -24.1298   19.4433 C   0  0  0  0  0  0  0  0  0  0  0  0
  -21.7841  -19.6232   21.7460 C   0  0  0  0  0  0  0  0  0  0  0  0
  -35.4654  -25.8429   20.2520 C   0  0  0  0  0  0  0  0  0  0  0  0
  -28.6552  -27.2409   20.8082 C   0  0  0  0  0  0  0  0  0  0  0  0
  -26.5871  -27.0929   19.3221 C   0  0  0  0  0  0  0  0  0  0  0  0
  -30.9890  -20.7310   20.5385 C   0  0  0  0  0  0  0  0  0  0  0  0
  -23.7330  -19.6178   23.1819 C   0  0  0  0  0  0  0  0  0  0  0  0
  -29.8024  -21.1789   21.1497 C   0  0  0  0  0  0  0  0  0  0  0  0
  -23.0847  -19.1736   22.0206 C   0  0  0  0  0  0  0  0  0  0  0  0
  -19.5644  -28.2260   22.6692 C   0  0  0  0  0  0  0  0  0  0  0  0
  -18.5552  -25.8237   21.6729 C   0  0  0  0  0  0  0  0  0  0  0  0
  -31.1350  -26.3720   21.7451 C   0  0  0  0  0  0  0  0  0  0  0  0
  -21.1326  -20.4924   22.6208 C   0  0  0  0  0  0  0  0  0  0  0  0
  -33.2894  -25.5658   21.2646 C   0  0  0  0  0  0  0  0  0  0  0  0
  -35.1911  -24.7932   19.3753 C   0  0  0  0  0  0  0  0  0  0  0  0
  -34.5146  -26.2292   21.1966 C   0  0  0  0  0  0  0  0  0  0  0  0
  -27.3741  -27.6898   20.3251 C   0  0  0  0  0  0  0  0  0  0  0  0
  -25.4748  -27.8942   19.2360 C   0  0  0  0  0  0  0  0  0  0  0  0
  -26.8388  -25.9190   18.5383 C   0  0  0  0  0  0  0  0  0  0  0  0
  -26.3857  -19.8024   21.4404 C   0  0  0  0  0  0  0  0  0  0  0  0
  -25.7311  -16.6862   20.8217 C   0  0  0  0  0  0  0  0  0  0  0  0
  -23.4055  -14.1952   20.6386 C   0  0  0  0  0  0  0  0  0  0  0  0
  -21.9620  -31.0400   22.5943 C   0  0  0  0  0  0  0  0  0  0  0  0
  -30.9755  -20.0065   19.2158 C   0  0  0  0  0  0  0  0  0  0  0  0
  -25.1176  -19.1332   23.5141 C   0  0  0  0  0  0  0  0  0  0  0  0
  -23.7500  -18.2312   21.0522 C   0  0  0  0  0  0  0  0  0  0  0  0
  -29.6084  -19.4357   18.8478 C   0  0  0  0  0  0  0  0  0  0  0  0
  -24.4288  -32.5525   20.5197 C   0  0  0  0  0  0  0  0  0  0  0  0
  -28.5165  -20.4760   19.0765 C   0  0  0  0  0  0  0  0  0  0  0  0
  -25.3666  -31.3973   20.1648 C   0  0  0  0  0  0  0  0  0  0  0  0
  -23.9047  -32.4351   21.9492 C   0  0  0  0  0  0  0  0  0  0  0  0
  -24.2054  -29.9893   21.9163 C   0  0  0  0  0  0  0  0  0  0  0  0
  -28.4434  -20.8837   20.5530 C   0  0  1  0  0  0  0  0  0  0  0  0
  -25.8961  -18.6633   22.2891 C   0  0  1  0  0  0  0  0  0  0  0  0
  -24.7156  -30.0339   20.4658 C   0  0  2  0  0  0  0  0  0  0  0  0
  -23.1645  -11.7633   20.0682 C   0  0  0  0  0  0  0  0  0  0  0  0
  -25.9152  -17.3667   17.8530 C   0  0  0  0  0  0  0  0  0  0  0  0
  -24.7570  -15.2033   17.3566 C   0  0  0  0  0  0  0  0  0  0  0  0
  -26.9775  -15.1950   18.4933 C   0  0  0  0  0  0  0  0  0  0  0  0
  -22.4639  -13.5300   23.3643 C   0  0  0  0  0  0  0  0  0  0  0  0
  -20.1040  -29.5105   23.2009 C   0  0  0  0  0  0  0  0  0  0  0  0
  -18.0139  -24.5307   21.1379 C   0  0  0  0  0  0  0  0  0  0  0  0
  -18.4401  -22.0920   20.8064 C   0  0  0  0  0  0  0  0  0  0  0  0
  -19.5119  -21.0319   20.9661 C   0  0  0  0  0  0  0  0  0  1  0  0
  -24.9322  -15.9491   19.7741 C   0  0  1  0  0  0  0  0  0  0  0  0
  -23.4052  -12.7759   21.1771 C   0  0  2  0  0  0  0  0  0  0  0  0
  -25.6334  -15.9478   18.3863 C   0  0  0  0  0  0  0  0  0  0  0  0
  -26.8098  -28.7858   20.8393 N   0  0  0  0  0  0  0  0  0  0  0  0
  -25.6564  -28.8839   20.1566 N   0  0  0  0  0  0  0  0  0  0  0  0
  -25.1062  -17.7906   21.4181 N   0  0  0  0  0  0  0  0  0  0  0  0
  -23.2983  -31.1198   22.1688 N   0  0  0  0  0  0  0  0  0  0  0  0
  -24.3691  -27.8416   18.4633 N   0  0  0  0  0  0  0  0  0  0  0  0
  -28.0306  -25.2139   18.7549 N   0  0  0  0  0  0  0  0  0  0  0  0
  -27.7611  -19.8672   21.3248 N   0  0  0  0  0  0  0  0  0  0  0  0
  -24.6775  -14.6188   20.3161 N   0  0  0  0  0  0  0  0  0  0  0  0
  -21.4631  -29.7554   22.7723 N   0  0  0  0  0  0  0  0  0  0  0  0
  -22.3373  -12.6116   22.2035 N   0  3  0  0  0  0  0  0  0  0  0  0
  -18.9696  -23.3983   21.2726 N   0  3  0  0  0  0  0  0  0  0  0  0
  -26.0385  -25.5168   17.6601 O   0  0  0  0  0  0  0  0  0  0  0  0
  -25.5755  -20.5652   20.9272 O   0  0  0  0  0  0  0  0  0  0  0  0
  -26.8650  -16.2921   21.1057 O   0  0  0  0  0  0  0  0  0  0  0  0
  -22.3796  -14.8602   20.5128 O   0  0  0  0  0  0  0  0  0  0  0  0
  -21.2635  -32.0393   22.7950 O   0  0  0  0  0  0  0  0  0  0  0  0
  -32.3448  -25.9477   22.2024 O   0  0  0  0  0  0  0  0  0  0  0  0
  -19.8706  -20.9189   22.3426 O   0  0  0  0  0  0  0  0  0  1  0  0
  -36.1046  -24.4211   18.4692 F   0  0  0  0  0  0  0  0  0  0  0  0
  -34.7843  -27.2377   22.0369 F   0  0  0  0  0  0  0  0  0  0  0  0
  1  2  1  0  0  0  0
  1  5  2  0  0  0  0
  2  6  2  0  0  0  0
  3 12  2  0  0  0  0
  3 19  1  0  0  0  0
  4 13  1  0  0  0  0
  4 19  2  0  0  0  0
  5 21  1  0  0  0  0
  6 23  1  0  0  0  0
  7 14  2  0  0  0  0
  7 22  1  0  0  0  0
  8 10  2  0  0  0  0
  8 25  1  0  0  0  0
  9 11  1  0  0  0  0
  9 25  2  0  0  0  0
 10 26  1  0  0  0  0
 11 26  2  0  0  0  0
 12 27  1  0  0  0  0
 13 27  2  0  0  0  0
 14 28  1  0  0  0  0
 15 16  2  0  0  0  0
 15 29  1  0  0  0  0
 16 30  1  0  0  0  0
 17 24  1  0  0  0  0
 17 28  2  0  0  0  0
 18 30  2  0  0  0  0
 18 31  1  0  0  0  0
 19 32  1  0  0  0  0
 20 32  1  0  0  0  0
 20 33  2  0  0  0  0
 20 34  1  0  0  0  0
 21 23  2  0  0  0  0
 21 39  1  0  0  0  0
 22 24  2  0  0  0  0
 22 40  1  0  0  0  0
 23 48  1  0  0  0  0
 24 41  1  0  0  0  0
 25 56  1  0  0  0  0
 26 57  1  0  0  0  0
 27 79  1  0  0  0  0
 28 80  1  0  0  0  0
 29 31  2  0  0  0  0
 29 79  1  0  0  0  0
 30 81  1  0  0  0  0
 31 82  1  0  0  0  0
 32 63  2  0  0  0  0
 33 64  1  0  0  0  0
 33 67  1  0  0  0  0
 34 68  1  0  0  0  0
 34 74  2  0  0  0  0
 35 49  1  0  0  0  0
 35 69  1  0  0  0  0
 35 75  2  0  0  0  0
 36 60  1  0  0  0  0
 36 65  1  0  0  0  0
 36 76  2  0  0  0  0
 37 61  1  0  0  0  0
 37 70  1  0  0  0  0
 37 77  2  0  0  0  0
 38 66  1  0  0  0  0
 38 71  1  0  0  0  0
 38 78  2  0  0  0  0
 39 42  1  0  0  0  0
 40 49  1  0  0  0  0
 41 65  1  0  0  0  0
 42 44  1  0  0  0  0
 43 45  1  0  0  0  0
 43 46  1  0  0  0  0
 44 48  1  0  0  0  0
 45 50  1  0  0  0  0
 46 66  1  0  0  0  0
 47 50  1  0  0  0  0
 47 66  1  0  0  0  0
 48 69  1  0  0  0  0
 49 65  1  0  0  0  0
 50 64  1  0  0  0  0
 51 61  1  0  0  0  0
 52 62  1  0  0  0  0
 53 62  1  0  0  0  0
 54 62  1  0  0  0  0
 55 72  1  0  0  0  0
 56 71  1  0  0  0  0
 57 73  1  0  0  0  0
 58 59  1  0  0  0  0
 58 73  1  0  0  0  0
 59 80  1  0  0  0  0
 60 62  1  0  0  0  0
 60 70  1  0  0  0  0
 61 72  1  0  0  0  0
 63 64  1  0  0  0  0
M  CHG  2  72   1  73   1
M  ISO  4  38 100  59 101  71 100  80 101
M  END
> <Batch ID>
0004

> <Smiles>
CNC(C)C(=O)NC(C(=O)N1Cc2cc([101O:1][101CH2:1]CNCc3ccc(C[100NH:0][100C:0](=O)N4CCCC(n5nc(-c6ccc(Oc7ccc(F)cc7F)cc6)c(C(N)=O)c5N)C4)cc3)ccc2CC1C(=O)NC1CCCc2ccccc21)C(C)(C)C

> <Shape>
0.208

> <Color>
0.088

> <Negative vol penalty>
0.000

$$$$

  -OEChem-04042320233D

 93102  0     1  0  0  0  0  0999 V2000
  -28.7614  -21.0169   22.9505 C   0  0  0  0  0  0  0  0  0  0  0  0
  -28.7553  -33.5951   15.5328 C   0  0  0  0  0  0  0  0  0  0  0  0
  -28.3754  -32.8236   16.6264 C   0  0  0  0  0  0  0  0  0  0  0  0
  -23.3121   -9.8096   19.8978 C   0  0  0  0  0  0  0  0  0  0  0  0
  -23.7695   -9.9345   22.2668 C   0  0  0  0  0  0  0  0  0  0  0  0
  -31.1238  -23.0028   25.8312 C   0  0  0  0  0  0  0  0  0  0  0  0
  -28.7366  -33.0440   14.2522 C   0  0  0  0  0  0  0  0  0  0  0  0
  -27.9756  -31.5008   16.4398 C   0  0  0  0  0  0  0  0  0  0  0  0
  -30.0333  -28.3526   19.8309 C   0  0  0  0  0  0  0  0  0  0  0  0
  -30.5738  -16.5182   25.2941 C   0  0  0  0  0  0  0  0  0  0  0  0
  -32.6667  -16.8631   24.1374 C   0  0  0  0  0  0  0  0  0  0  0  0
  -30.5879  -15.1748   24.9191 C   0  0  0  0  0  0  0  0  0  0  0  0
  -32.6808  -15.5197   23.7624 C   0  0  0  0  0  0  0  0  0  0  0  0
  -31.2709  -21.6276   25.6497 C   0  0  0  0  0  0  0  0  0  0  0  0
  -22.6046   -8.6241   20.0969 C   0  0  0  0  0  0  0  0  0  0  0  0
  -23.0620   -8.7490   22.4659 C   0  0  0  0  0  0  0  0  0  0  0  0
  -29.4711  -28.3351   21.1066 C   0  0  0  0  0  0  0  0  0  0  0  0
  -19.8302   -7.7860   22.6863 C   0  0  0  0  0  0  0  0  0  0  0  0
  -18.9323   -7.7403   23.7527 C   0  0  0  0  0  0  0  0  0  0  0  0
  -29.4253  -23.0478   24.1136 C   0  0  0  0  0  0  0  0  0  0  0  0
  -28.2539  -26.3321   20.5360 C   0  0  0  0  0  0  0  0  0  0  0  0
  -20.1700   -5.9026   24.7160 C   0  0  0  0  0  0  0  0  0  0  0  0
  -29.5724  -21.6727   23.9320 C   0  0  0  0  0  0  0  0  0  0  0  0
  -23.8946  -10.4648   20.9827 C   0  0  0  0  0  0  0  0  0  0  0  0
  -30.2009  -23.7129   25.0632 C   0  0  0  0  0  0  0  0  0  0  0  0
  -24.1143  -13.0003   20.8075 C   0  0  0  0  0  0  0  0  0  0  0  0
  -28.3456  -31.7109   14.0510 C   0  0  0  0  0  0  0  0  0  0  0  0
  -29.7011  -27.3645   18.8930 C   0  0  0  0  0  0  0  0  0  0  0  0
  -27.9504  -30.9318   15.1551 C   0  0  0  0  0  0  0  0  0  0  0  0
  -28.8152  -26.3379   19.2499 C   0  0  0  0  0  0  0  0  0  0  0  0
  -31.6132  -17.3624   24.9033 C   0  0  0  0  0  0  0  0  0  0  0  0
  -31.6414  -14.6755   24.1532 C   0  0  0  0  0  0  0  0  0  0  0  0
  -30.4952  -20.9626   24.7001 C   0  0  0  0  0  0  0  0  0  0  0  0
  -22.4795   -8.0938   21.3810 C   0  0  0  0  0  0  0  0  0  0  0  0
  -28.5790  -27.3264   21.4584 C   0  0  0  0  0  0  0  0  0  0  0  0
  -20.8980   -6.8900   22.6347 C   0  0  0  0  0  0  0  0  0  0  0  0
  -19.1022   -6.7986   24.7676 C   0  0  0  0  0  0  0  0  0  0  0  0
  -21.0679   -5.9483   23.6496 C   0  0  0  0  0  0  0  0  0  0  0  0
  -24.6260  -11.6892   20.7776 C   0  0  0  0  0  0  0  0  0  0  0  0
  -25.2027  -13.7994   20.5560 C   0  0  0  0  0  0  0  0  0  0  0  0
  -30.0441  -25.1773   25.2580 C   0  0  0  0  0  0  0  0  0  0  0  0
  -22.7749  -13.4551   21.0417 C   0  0  0  0  0  0  0  0  0  0  0  0
  -28.3051  -27.3612   16.0373 C   0  0  0  0  0  0  0  0  0  0  0  0
  -29.1107  -24.2193   16.0794 C   0  0  0  0  0  0  0  0  0  0  0  0
  -29.8728  -21.4482   17.9197 C   0  0  0  0  0  0  0  0  0  0  0  0
  -31.0890  -13.0392   21.3463 C   0  0  0  0  0  0  0  0  0  0  0  0
  -28.2963  -31.1735   12.6426 C   0  0  0  0  0  0  0  0  0  0  0  0
  -30.3368  -27.3825   17.5299 C   0  0  0  0  0  0  0  0  0  0  0  0
  -28.4414  -25.2424   18.2864 C   0  0  0  0  0  0  0  0  0  0  0  0
  -28.2182  -29.6505   12.5742 C   0  0  0  0  0  0  0  0  0  0  0  0
  -29.4174  -13.7824   18.2918 C   0  0  0  0  0  0  0  0  0  0  0  0
  -27.1707  -29.1253   13.5507 C   0  0  0  0  0  0  0  0  0  0  0  0
  -27.9537  -13.4485   18.5852 C   0  0  0  0  0  0  0  0  0  0  0  0
  -30.3683  -12.8107   18.9873 C   0  0  0  0  0  0  0  0  0  0  0  0
  -28.6950  -12.3388   20.7341 C   0  0  0  0  0  0  0  0  0  0  0  0
  -27.5342  -29.4855   14.9962 C   0  0  1  0  0  0  0  0  0  0  0  0
  -29.5312  -26.6168   16.4848 C   0  0  1  0  0  0  0  0  0  0  0  0
  -27.6995  -13.3250   20.0996 C   0  0  2  0  0  0  0  0  0  0  0  0
  -30.4474  -19.0177   17.6750 C   0  0  0  0  0  0  0  0  0  0  0  0
  -26.1848  -23.5899   15.4850 C   0  0  0  0  0  0  0  0  0  0  0  0
  -26.6230  -21.2268   16.1866 C   0  0  0  0  0  0  0  0  0  0  0  0
  -27.8299  -22.1883   14.2265 C   0  0  0  0  0  0  0  0  0  0  0  0
  -32.5098  -21.8223   19.2101 C   0  0  0  0  0  0  0  0  0  0  0  0
  -31.5988  -18.8085   25.3066 C   0  0  0  0  0  0  0  0  0  0  0  0
  -31.6566  -13.2386   23.7540 C   0  0  0  0  0  0  0  0  0  0  0  0
  -28.5002  -27.1086   25.0518 C   0  0  0  0  0  0  0  0  0  0  0  0
  -28.8064  -27.8554   23.7658 C   0  0  0  0  0  0  0  0  0  1  0  0
  -28.4451  -22.9513   16.5571 C   0  0  1  0  0  0  0  0  0  0  0  0
  -30.9935  -20.4321   17.7935 C   0  0  2  0  0  0  0  0  0  0  0  0
  -27.2761  -22.5107   15.6315 C   0  0  0  0  0  0  0  0  0  0  0  0
  -28.1041  -20.4855   22.1552 N   0  0  0  0  0  0  0  0  0  0  0  0
  -25.9374  -11.6531   20.5268 N   0  0  0  0  0  0  0  0  0  0  0  0
  -26.2590  -12.9514   20.3967 N   0  0  0  0  0  0  0  0  0  0  0  0
  -29.0845  -25.3071   16.9636 N   0  0  0  0  0  0  0  0  0  0  0  0
  -30.0752  -12.7410   20.4209 N   0  0  0  0  0  0  0  0  0  0  0  0
  -25.3497  -15.1378   20.4578 N   0  0  0  0  0  0  0  0  0  0  0  0
  -21.7778  -12.5004   21.2838 N   0  0  0  0  0  0  0  0  0  0  0  0
  -30.6649  -19.5685   24.5380 N   0  0  0  0  0  0  0  0  0  0  0  0
  -28.7993  -25.7056   24.9397 N   0  0  0  0  0  0  0  0  0  0  0  0
  -28.5687  -28.6033   15.4921 N   0  0  0  0  0  0  0  0  0  0  0  0
  -29.5063  -21.9594   16.6927 N   0  0  0  0  0  0  0  0  0  0  0  0
  -30.7254  -12.9552   22.6847 N   0  0  0  0  0  0  0  0  0  0  0  0
  -31.8849  -20.4933   18.9862 N   0  3  0  0  0  0  0  0  0  0  0  0
  -31.0004  -25.8350   25.6597 O   0  0  0  0  0  0  0  0  0  0  0  0
  -22.4682  -14.6713   21.0201 O   0  0  0  0  0  0  0  0  0  0  0  0
  -27.2017  -26.8462   16.1751 O   0  0  0  0  0  0  0  0  0  0  0  0
  -29.6406  -24.2415   14.9657 O   0  0  0  0  0  0  0  0  0  0  0  0
  -29.3700  -21.7548   18.9985 O   0  0  0  0  0  0  0  0  0  0  0  0
  -32.2319  -13.3619   21.0049 O   0  0  0  0  0  0  0  0  0  0  0  0
  -21.7890   -6.9372   21.5757 O   0  0  0  0  0  0  0  0  0  0  0  0
  -28.0283  -27.3072   22.7026 O   0  0  0  0  0  0  0  0  0  1  0  0
  -18.2407   -6.7558   25.7924 F   0  0  0  0  0  0  0  0  0  0  0  0
  -22.0925   -5.0857   23.6061 F   0  0  0  0  0  0  0  0  0  0  0  0
  1 23  1  0  0  0  0
  1 71  3  0  0  0  0
  2  3  1  0  0  0  0
  2  7  2  0  0  0  0
  3  8  2  0  0  0  0
  4 15  2  0  0  0  0
  4 24  1  0  0  0  0
  5 16  1  0  0  0  0
  5 24  2  0  0  0  0
  6 14  2  0  0  0  0
  6 25  1  0  0  0  0
  7 27  1  0  0  0  0
  8 29  1  0  0  0  0
  9 17  2  0  0  0  0
  9 28  1  0  0  0  0
 10 12  2  0  0  0  0
 10 31  1  0  0  0  0
 11 13  1  0  0  0  0
 11 31  2  0  0  0  0
 12 32  1  0  0  0  0
 13 32  2  0  0  0  0
 14 33  1  0  0  0  0
 15 34  1  0  0  0  0
 16 34  2  0  0  0  0
 17 35  1  0  0  0  0
 18 19  2  0  0  0  0
 18 36  1  0  0  0  0
 19 37  1  0  0  0  0
 20 23  1  0  0  0  0
 20 25  2  0  0  0  0
 21 30  1  0  0  0  0
 21 35  2  0  0  0  0
 22 37  2  0  0  0  0
 22 38  1  0  0  0  0
 23 33  2  0  0  0  0
 24 39  1  0  0  0  0
 25 41  1  0  0  0  0
 26 39  1  0  0  0  0
 26 40  2  0  0  0  0
 26 42  1  0  0  0  0
 27 29  2  0  0  0  0
 27 47  1  0  0  0  0
 28 30  2  0  0  0  0
 28 48  1  0  0  0  0
 29 56  1  0  0  0  0
 30 49  1  0  0  0  0
 31 64  1  0  0  0  0
 32 65  1  0  0  0  0
 33 78  1  0  0  0  0
 34 90  1  0  0  0  0
 35 91  1  0  0  0  0
 36 38  2  0  0  0  0
 36 90  1  0  0  0  0
 37 92  1  0  0  0  0
 38 93  1  0  0  0  0
 39 72  2  0  0  0  0
 40 73  1  0  0  0  0
 40 76  1  0  0  0  0
 41 79  1  0  0  0  0
 41 84  2  0  0  0  0
 42 77  1  0  0  0  0
 42 85  2  0  0  0  0
 43 57  1  0  0  0  0
 43 80  1  0  0  0  0
 43 86  2  0  0  0  0
 44 68  1  0  0  0  0
 44 74  1  0  0  0  0
 44 87  2  0  0  0  0
 45 69  1  0  0  0  0
 45 81  1  0  0  0  0
 45 88  2  0  0  0  0
 46 75  1  0  0  0  0
 46 82  1  0  0  0  0
 46 89  2  0  0  0  0
 47 50  1  0  0  0  0
 48 57  1  0  0  0  0
 49 74  1  0  0  0  0
 50 52  1  0  0  0  0
 51 53  1  0  0  0  0
 51 54  1  0  0  0  0
 52 56  1  0  0  0  0
 53 58  1  0  0  0  0
 54 75  1  0  0  0  0
 55 58  1  0  0  0  0
 55 75  1  0  0  0  0
 56 80  1  0  0  0  0
 57 74  1  0  0  0  0
 58 73  1  0  0  0  0
 59 69  1  0  0  0  0
 60 70  1  0  0  0  0
 61 70  1  0  0  0  0
 62 70  1  0  0  0  0
 63 83  1  0  0  0  0
 64 78  1  0  0  0  0
 65 82  1  0  0  0  0
 66 67  1  0  0  0  0
 66 79  1  0  0  0  0
 67 91  1  0  0  0  0
 68 70  1  0  0  0  0
 68 81  1  0  0  0  0
 69 83  1  0  0  0  0
 72 73  1  0  0  0  0
M  CHG  1  83   1
M  ISO  4  46 100  67 101  82 100  91 101
M  END
> <Batch ID>
0004

> <Smiles>
CNC(C)C(=O)NC(C(=O)N1Cc2cc([101O:1][101CH2:1]CNC(=O)c3ccc(NCc4ccc(C[100NH:0][100C:0](=O)N5CCCC(n6nc(-c7ccc(Oc8ccc(F)cc8F)cc7)c(C(N)=O)c6N)C5)cc4)c(C#N)c3)ccc2CC1C(=O)NC1CCCc2ccccc21)C(C)(C)C

> <Shape>
0.191

> <Color>
0.169

> <Negative vol penalty>
0.000

$$$$

  -OEChem-04042320233D

 82 90  0     1  0  0  0  0  0999 V2000
  -29.6435  -17.0968   19.7957 C   0  0  0  0  0  0  0  0  0  0  0  0
  -30.1628  -16.0168   19.7267 C   0  0  0  0  0  0  0  0  0  0  0  0
  -29.4835  -35.2613   21.6776 C   0  0  0  0  0  0  0  0  0  0  0  0
  -29.8639  -34.2121   20.8469 C   0  0  0  0  0  0  0  0  0  0  0  0
  -22.8934  -11.5399   18.8686 C   0  0  0  0  0  0  0  0  0  0  0  0
  -22.9932  -10.1776   20.8614 C   0  0  0  0  0  0  0  0  0  0  0  0
  -28.7528  -35.0018   22.8362 C   0  0  0  0  0  0  0  0  0  0  0  0
  -29.5146  -32.9026   21.1750 C   0  0  0  0  0  0  0  0  0  0  0  0
  -27.7664  -26.6602   18.1268 C   0  0  0  0  0  0  0  0  0  0  0  0
  -21.8682  -10.7359   18.3704 C   0  0  0  0  0  0  0  0  0  0  0  0
  -21.9680   -9.3736   20.3632 C   0  0  0  0  0  0  0  0  0  0  0  0
  -28.1268  -25.3135   18.1467 C   0  0  0  0  0  0  0  0  0  0  0  0
  -19.6240   -6.7474   19.4584 C   0  0  0  0  0  0  0  0  0  0  0  0
  -19.7738   -5.3648   19.5662 C   0  0  0  0  0  0  0  0  0  0  0  0
  -26.7949  -24.9927   20.1322 C   0  0  0  0  0  0  0  0  0  0  0  0
  -21.7847   -5.4786   18.2319 C   0  0  0  0  0  0  0  0  0  0  0  0
  -23.4559  -11.2607   20.1141 C   0  0  0  0  0  0  0  0  0  0  0  0
  -24.3812  -13.2441   21.4247 C   0  0  0  0  0  0  0  0  0  0  0  0
  -28.3860  -33.6894   23.1737 C   0  0  0  0  0  0  0  0  0  0  0  0
  -26.9249  -27.1865   19.1173 C   0  0  0  0  0  0  0  0  0  0  0  0
  -28.7794  -32.6252   22.3400 C   0  0  0  0  0  0  0  0  0  0  0  0
  -26.4232  -26.3458   20.1211 C   0  0  0  0  0  0  0  0  0  0  0  0
  -21.4055   -9.6528   19.1176 C   0  0  0  0  0  0  0  0  0  0  0  0
  -27.6434  -24.4802   19.1512 C   0  0  0  0  0  0  0  0  0  0  0  0
  -20.5546   -7.4956   18.7373 C   0  0  0  0  0  0  0  0  0  0  0  0
  -20.8541   -4.7304   18.9530 C   0  0  0  0  0  0  0  0  0  0  0  0
  -21.6349   -6.8612   18.1241 C   0  0  0  0  0  0  0  0  0  0  0  0
  -24.5154  -12.0904   20.6291 C   0  0  0  0  0  0  0  0  0  0  0  0
  -25.6713  -13.6606   21.6458 C   0  0  0  0  0  0  0  0  0  0  0  0
  -29.0270  -18.3795   19.8774 C   0  0  0  0  0  0  0  0  0  0  0  0
  -27.7360  -18.5856   19.5291 C   0  0  0  0  0  0  0  0  0  0  0  0
  -27.1642  -19.9341   19.6382 C   0  0  0  0  0  0  0  0  0  0  0  0
  -27.9109  -20.9614   20.0798 C   0  0  0  0  0  0  0  0  0  0  0  0
  -29.8589  -19.5286   20.3703 C   0  0  0  0  0  0  0  0  0  0  0  0
  -30.7884  -14.7157   19.6433 C   0  0  0  0  0  0  0  0  0  0  0  0
  -23.1965  -13.8821   21.9197 C   0  0  0  0  0  0  0  0  0  0  0  0
  -27.2221  -29.4216   21.3578 C   0  0  0  0  0  0  0  0  0  0  0  0
  -24.0631  -28.8383   21.8080 C   0  0  0  0  0  0  0  0  0  0  0  0
  -21.4444  -26.6716   21.5005 C   0  0  0  0  0  0  0  0  0  0  0  0
  -27.6365  -33.4534   24.4611 C   0  0  0  0  0  0  0  0  0  0  0  0
  -26.5240  -28.6353   19.0664 C   0  0  0  0  0  0  0  0  0  0  0  0
  -25.5005  -26.8572   21.1960 C   0  0  0  0  0  0  0  0  0  0  0  0
  -26.9841  -32.0757   24.5422 C   0  0  0  0  0  0  0  0  0  0  0  0
  -30.0817  -11.3682   20.7548 C   0  0  0  0  0  0  0  0  0  0  0  0
  -27.9667  -30.9932   24.1069 C   0  0  0  0  0  0  0  0  0  0  0  0
  -28.5565  -11.3432   20.8483 C   0  0  0  0  0  0  0  0  0  0  0  0
  -30.5566  -12.2504   19.6047 C   0  0  0  0  0  0  0  0  0  0  0  0
  -28.5005  -13.6289   19.7542 C   0  0  0  0  0  0  0  0  0  0  0  0
  -28.3981  -31.1937   22.6491 C   0  0  1  0  0  0  0  0  0  0  0  0
  -26.0743  -29.1787   20.4191 C   0  0  1  0  0  0  0  0  0  0  0  0
  -27.9844  -12.7701   20.9220 C   0  0  1  0  0  0  0  0  0  0  0  0
  -26.8162  -17.5004   19.0226 C   0  0  0  0  0  0  0  0  0  0  0  0
  -18.9924  -26.4627   21.9918 C   0  0  0  0  0  0  0  0  0  0  0  0
  -24.6953  -28.3845   24.7583 C   0  0  0  0  0  0  0  0  0  0  0  0
  -22.4620  -27.2779   24.9949 C   0  0  0  0  0  0  0  0  0  0  0  0
  -22.5985  -29.6776   24.3276 C   0  0  0  0  0  0  0  0  0  0  0  0
  -20.7809  -26.3350   18.6360 C   0  0  0  0  0  0  0  0  0  0  0  0
  -27.4623  -22.3692   20.2313 C   0  0  0  0  0  0  0  0  0  1  0  0
  -23.2630  -27.8900   22.6679 C   0  0  1  0  0  0  0  0  0  0  0  0
  -20.0379  -26.8614   20.9619 C   0  0  2  0  0  0  0  0  0  0  0  0
  -23.2736  -28.2980   24.1682 C   0  0  0  0  0  0  0  0  0  0  0  0
  -25.7900  -11.7932   20.3627 N   0  0  0  0  0  0  0  0  0  0  0  0
  -26.4686  -12.7661   20.9943 N   0  0  0  0  0  0  0  0  0  0  0  0
  -29.2230  -20.7507   20.4336 N   0  0  0  0  0  0  0  0  0  0  0  0
  -29.9675  -13.5869   19.6855 N   0  0  0  0  0  0  0  0  0  0  0  0
  -25.1426  -28.2825   21.1068 N   0  0  0  0  0  0  0  0  0  0  0  0
  -26.1900  -14.7010   22.3319 N   0  0  0  0  0  0  0  0  0  0  0  0
  -21.9523  -13.3224   21.5985 N   0  0  0  0  0  0  0  0  0  0  0  0
  -27.3605  -30.7399   21.7480 N   0  0  0  0  0  0  0  0  0  0  0  0
  -21.9313  -27.8265   22.0754 N   0  0  0  0  0  0  0  0  0  0  0  0
  -19.8346  -26.0320   19.7405 N   0  3  0  0  0  0  0  0  0  0  0  0
  -31.0348  -19.3691   20.6934 O   0  0  0  0  0  0  0  0  0  0  0  0
  -32.0111  -14.6960   19.5403 O   0  0  0  0  0  0  0  0  0  0  0  0
  -23.2392  -14.9272   22.6121 O   0  0  0  0  0  0  0  0  0  0  0  0
  -27.9289  -28.4822   21.7036 O   0  0  0  0  0  0  0  0  0  0  0  0
  -23.7378  -30.0270   21.7545 O   0  0  0  0  0  0  0  0  0  0  0  0
  -22.0491  -25.6045   21.4227 O   0  0  0  0  0  0  0  0  0  0  0  0
  -25.8414  -20.0306   19.2639 O   0  0  0  0  0  0  0  0  0  0  0  0
  -20.4050   -8.8682   18.6319 O   0  0  0  0  0  0  0  0  0  0  0  0
  -27.9941  -23.1655   19.1734 O   0  0  0  0  0  0  0  0  0  1  0  0
  -20.9986   -3.4029   19.0579 F   0  0  0  0  0  0  0  0  0  0  0  0
  -22.5328   -7.5748   17.4310 F   0  0  0  0  0  0  0  0  0  0  0  0
  1  2  3  0  0  0  0
  1 30  1  0  0  0  0
  2 35  1  0  0  0  0
  3  4  1  0  0  0  0
  3  7  2  0  0  0  0
  4  8  2  0  0  0  0
  5 10  2  0  0  0  0
  5 17  1  0  0  0  0
  6 11  1  0  0  0  0
  6 17  2  0  0  0  0
  7 19  1  0  0  0  0
  8 21  1  0  0  0  0
  9 12  2  0  0  0  0
  9 20  1  0  0  0  0
 10 23  1  0  0  0  0
 11 23  2  0  0  0  0
 12 24  1  0  0  0  0
 13 14  2  0  0  0  0
 13 25  1  0  0  0  0
 14 26  1  0  0  0  0
 15 22  1  0  0  0  0
 15 24  2  0  0  0  0
 16 26  2  0  0  0  0
 16 27  1  0  0  0  0
 17 28  1  0  0  0  0
 18 28  1  0  0  0  0
 18 29  2  0  0  0  0
 18 36  1  0  0  0  0
 19 21  2  0  0  0  0
 19 40  1  0  0  0  0
 20 22  2  0  0  0  0
 20 41  1  0  0  0  0
 21 49  1  0  0  0  0
 22 42  1  0  0  0  0
 23 79  1  0  0  0  0
 24 80  1  0  0  0  0
 25 27  2  0  0  0  0
 25 79  1  0  0  0  0
 26 81  1  0  0  0  0
 27 82  1  0  0  0  0
 28 62  2  0  0  0  0
 29 63  1  0  0  0  0
 29 67  1  0  0  0  0
 30 31  2  0  0  0  0
 30 34  1  0  0  0  0
 31 32  1  0  0  0  0
 31 52  1  0  0  0  0
 32 33  2  0  0  0  0
 32 78  1  0  0  0  0
 33 58  1  0  0  0  0
 33 64  1  0  0  0  0
 34 64  1  0  0  0  0
 34 72  2  0  0  0  0
 35 65  1  0  0  0  0
 35 73  2  0  0  0  0
 36 68  1  0  0  0  0
 36 74  2  0  0  0  0
 37 50  1  0  0  0  0
 37 69  1  0  0  0  0
 37 75  2  0  0  0  0
 38 59  1  0  0  0  0
 38 66  1  0  0  0  0
 38 76  2  0  0  0  0
 39 60  1  0  0  0  0
 39 70  1  0  0  0  0
 39 77  2  0  0  0  0
 40 43  1  0  0  0  0
 41 50  1  0  0  0  0
 42 66  1  0  0  0  0
 43 45  1  0  0  0  0
 44 46  1  0  0  0  0
 44 47  1  0  0  0  0
 45 49  1  0  0  0  0
 46 51  1  0  0  0  0
 47 65  1  0  0  0  0
 48 51  1  0  0  0  0
 48 65  1  0  0  0  0
 49 69  1  0  0  0  0
 50 66  1  0  0  0  0
 51 63  1  0  0  0  0
 53 60  1  0  0  0  0
 54 61  1  0  0  0  0
 55 61  1  0  0  0  0
 56 61  1  0  0  0  0
 57 71  1  0  0  0  0
 58 80  1  0  0  0  0
 59 61  1  0  0  0  0
 59 70  1  0  0  0  0
 60 71  1  0  0  0  0
 62 63  1  0  0  0  0
M  CHG  1  71   1
M  ISO  4   2 100  35 100  58 101  80 101
M  END
> <Batch ID>
0004

> <Smiles>
CNC(C)C(=O)NC(C(=O)N1Cc2cc([101O:1][101CH2:1]C3NC(=O)C(C#[100C:0][100C:0](=O)N4CCCC(n5nc(-c6ccc(Oc7ccc(F)cc7F)cc6)c(C(N)=O)c5N)C4)=C(C)C3=O)ccc2CC1C(=O)NC1CCCc2ccccc21)C(C)(C)C

> <Shape>
0.272

> <Color>
0.096

> <Negative vol penalty>
0.000

$$$$

  -OEChem-04042320233D

 88 97  0     1  0  0  0  0  0999 V2000
  -27.0834  -35.3682   24.2444 C   0  0  0  0  0  0  0  0  0  0  0  0
  -27.9562  -34.4488   23.6712 C   0  0  0  0  0  0  0  0  0  0  0  0
  -30.3744  -21.2648   25.2388 C   0  0  0  0  0  0  0  0  0  0  0  0
  -22.6145  -13.6360   22.1536 C   0  0  0  0  0  0  0  0  0  0  0  0
  -21.9229  -14.2387   19.9186 C   0  0  0  0  0  0  0  0  0  0  0  0
  -30.5810  -21.3366   23.8612 C   0  0  0  0  0  0  0  0  0  0  0  0
  -25.8563  -34.9411   24.7501 C   0  0  0  0  0  0  0  0  0  0  0  0
  -27.6027  -33.1016   23.6044 C   0  0  0  0  0  0  0  0  0  0  0  0
  -29.0778  -21.2975   25.7522 C   0  0  0  0  0  0  0  0  0  0  0  0
  -29.0061  -29.1441   19.1463 C   0  0  0  0  0  0  0  0  0  0  0  0
  -22.2171  -12.3193   21.9216 C   0  0  0  0  0  0  0  0  0  0  0  0
  -21.5256  -12.9219   19.6864 C   0  0  0  0  0  0  0  0  0  0  0  0
  -30.0037  -28.1770   19.0303 C   0  0  0  0  0  0  0  0  0  0  0  0
  -23.4304   -9.5954   20.3274 C   0  0  0  0  0  0  0  0  0  0  0  0
  -24.2955   -8.5771   20.7275 C   0  0  0  0  0  0  0  0  0  0  0  0
  -28.1946  -21.4741   23.5104 C   0  0  0  0  0  0  0  0  0  0  0  0
  -28.4511  -26.4932   19.7875 C   0  0  0  0  0  0  0  0  0  0  0  0
  -22.5861   -7.7003   22.1925 C   0  0  0  0  0  0  0  0  0  0  0  0
  -22.4673  -14.5958   21.1521 C   0  0  0  0  0  0  0  0  0  0  0  0
  -29.4911  -21.4413   22.9970 C   0  0  0  0  0  0  0  0  0  0  0  0
  -24.1456  -16.5170   21.1500 C   0  0  0  0  0  0  0  0  0  0  0  0
  -27.9879  -21.4022   24.8881 C   0  0  0  0  0  0  0  0  0  0  0  0
  -25.4835  -33.5895   24.6808 C   0  0  0  0  0  0  0  0  0  0  0  0
  -27.7244  -28.7942   19.5950 C   0  0  0  0  0  0  0  0  0  0  0  0
  -26.3700  -32.6559   24.1109 C   0  0  0  0  0  0  0  0  0  0  0  0
  -27.4383  -27.4572   19.9059 C   0  0  0  0  0  0  0  0  0  0  0  0
  -21.6727  -11.9622   20.6880 C   0  0  0  0  0  0  0  0  0  0  0  0
  -29.7271  -26.8519   19.3537 C   0  0  0  0  0  0  0  0  0  0  0  0
  -22.1431   -9.6662   20.8599 C   0  0  0  0  0  0  0  0  0  0  0  0
  -23.8734   -7.6295   21.6601 C   0  0  0  0  0  0  0  0  0  0  0  0
  -21.7209   -8.7187   21.7924 C   0  0  0  0  0  0  0  0  0  0  0  0
  -22.8771  -15.9562   21.3915 C   0  0  0  0  0  0  0  0  0  0  0  0
  -24.0216  -17.8278   21.5409 C   0  0  0  0  0  0  0  0  0  0  0  0
  -29.7069  -21.5155   21.5608 C   0  0  0  0  0  0  0  0  0  0  0  0
  -25.3301  -15.9075   20.6196 C   0  0  0  0  0  0  0  0  0  0  0  0
  -25.9253  -29.5944   22.0903 C   0  0  0  0  0  0  0  0  0  0  0  0
  -23.6860  -27.8251   20.5485 C   0  0  0  0  0  0  0  0  0  0  0  0
  -22.9902  -25.3405   18.3149 C   0  0  0  0  0  0  0  0  0  0  0  0
  -22.3101  -21.7340   24.9654 C   0  0  0  0  0  0  0  0  0  0  0  0
  -24.1669  -33.1678   25.2835 C   0  0  0  0  0  0  0  0  0  0  0  0
  -26.6519  -29.8445   19.6892 C   0  0  0  0  0  0  0  0  0  0  0  0
  -26.0727  -27.0264   20.3728 C   0  0  0  0  0  0  0  0  0  0  0  0
  -23.7080  -31.7824   24.8359 C   0  0  0  0  0  0  0  0  0  0  0  0
  -19.9394  -20.5479   22.7463 C   0  0  0  0  0  0  0  0  0  0  0  0
  -24.8587  -30.7848   24.9236 C   0  0  0  0  0  0  0  0  0  0  0  0
  -20.5847  -19.2893   22.1662 C   0  0  0  0  0  0  0  0  0  0  0  0
  -25.8621  -22.7606   25.1216 C   0  0  0  0  0  0  0  0  0  0  0  0
  -25.7395  -20.2381   24.9709 C   0  0  0  0  0  0  0  0  0  0  0  0
  -20.2003  -20.6549   24.2446 C   0  0  0  0  0  0  0  0  0  0  0  0
  -24.4358  -22.7744   25.6662 C   0  0  0  0  0  0  0  0  0  0  0  0
  -24.3177  -20.3085   25.5202 C   0  0  0  0  0  0  0  0  0  0  0  0
  -22.3066  -19.3767   24.0347 C   0  0  0  0  0  0  0  0  0  0  0  0
  -26.5776  -21.4380   25.4464 C   0  0  0  0  0  0  0  0  0  0  0  0
  -26.0119  -31.1899   23.9976 C   0  0  1  0  0  0  0  0  0  0  0  0
  -25.5269  -29.4655   20.6473 C   0  0  1  0  0  0  0  0  0  0  0  0
  -22.0816  -19.2246   22.5171 C   0  0  1  0  0  0  0  0  0  0  0  0
  -21.0682  -24.0935   17.2909 C   0  0  0  0  0  0  0  0  0  0  0  0
  -23.3450  -26.2352   23.1304 C   0  0  0  0  0  0  0  0  0  0  0  0
  -22.1687  -24.4672   21.8043 C   0  0  0  0  0  0  0  0  0  0  0  0
  -21.2093  -26.7658   21.9422 C   0  0  0  0  0  0  0  0  0  0  0  0
  -23.7058  -26.2434   15.5888 C   0  0  0  0  0  0  0  0  0  0  0  0
  -31.5550  -23.6634   19.3723 C   0  0  0  0  0  0  0  0  0  0  0  0
  -31.2790  -22.2107   19.7359 C   0  0  0  0  0  0  0  0  0  0  0  0
  -30.3483  -24.5684   19.5893 C   0  0  0  0  0  0  0  0  0  1  0  0
  -23.2841  -26.3699   20.5528 C   0  0  1  0  0  0  0  0  0  0  0  0
  -22.0160  -25.2747   17.1524 C   0  0  2  0  0  0  0  0  0  0  0  0
  -22.5282  -25.9677   21.8505 C   0  0  0  0  0  0  0  0  0  0  0  0
  -22.0110  -16.8386   21.8968 N   0  0  0  0  0  0  0  0  0  0  0  0
  -22.7366  -17.9670   21.9761 N   0  0  0  0  0  0  0  0  0  0  0  0
  -25.0593  -28.0912   20.4546 N   0  0  0  0  0  0  0  0  0  0  0  0
  -21.6317  -20.5829   24.5366 N   0  0  0  0  0  0  0  0  0  0  0  0
  -23.6844  -21.6006   25.2233 N   0  0  0  0  0  0  0  0  0  0  0  0
  -24.8876  -18.8634   21.5514 N   0  0  0  0  0  0  0  0  0  0  0  0
  -25.2839  -14.5513   20.2690 N   0  0  0  0  0  0  0  0  0  0  0  0
  -30.9263  -22.0496   21.1282 N   0  0  0  0  0  0  0  0  0  0  0  0
  -25.7023  -30.8486   22.6257 N   0  0  0  0  0  0  0  0  0  0  0  0
  -22.5238  -26.1529   19.3267 N   0  0  0  0  0  0  0  0  0  0  0  0
  -22.7542  -25.1366   15.8652 N   0  3  0  0  0  0  0  0  0  0  0  0
  -28.8258  -21.1354   20.7695 O   0  0  0  0  0  0  0  0  0  0  0  0
  -26.4024  -16.5424   20.4767 O   0  0  0  0  0  0  0  0  0  0  0  0
  -26.3987  -28.6271   22.6752 O   0  0  0  0  0  0  0  0  0  0  0  0
  -22.8129  -28.6938   20.6185 O   0  0  0  0  0  0  0  0  0  0  0  0
  -24.0563  -24.7291   18.3259 O   0  0  0  0  0  0  0  0  0  0  0  0
  -21.7276  -22.8166   25.1045 O   0  0  0  0  0  0  0  0  0  0  0  0
  -21.2850  -10.6774   20.4611 O   0  0  0  0  0  0  0  0  0  0  0  0
  -30.7061  -25.8994   19.2411 O   0  0  0  0  0  0  0  0  0  1  0  0
  -24.7038   -6.6508   22.0430 F   0  0  0  0  0  0  0  0  0  0  0  0
  -20.4850   -8.7809   22.3066 F   0  0  0  0  0  0  0  0  0  0  0  0
  1  2  1  0  0  0  0
  1  7  2  0  0  0  0
  2  8  2  0  0  0  0
  3  6  2  0  0  0  0
  3  9  1  0  0  0  0
  4 11  2  0  0  0  0
  4 19  1  0  0  0  0
  5 12  1  0  0  0  0
  5 19  2  0  0  0  0
  6 20  1  0  0  0  0
  7 23  1  0  0  0  0
  8 25  1  0  0  0  0
  9 22  2  0  0  0  0
 10 13  2  0  0  0  0
 10 24  1  0  0  0  0
 11 27  1  0  0  0  0
 12 27  2  0  0  0  0
 13 28  1  0  0  0  0
 14 15  2  0  0  0  0
 14 29  1  0  0  0  0
 15 30  1  0  0  0  0
 16 20  2  0  0  0  0
 16 22  1  0  0  0  0
 17 26  1  0  0  0  0
 17 28  2  0  0  0  0
 18 30  2  0  0  0  0
 18 31  1  0  0  0  0
 19 32  1  0  0  0  0
 20 34  1  0  0  0  0
 21 32  1  0  0  0  0
 21 33  2  0  0  0  0
 21 35  1  0  0  0  0
 22 53  1  0  0  0  0
 23 25  2  0  0  0  0
 23 40  1  0  0  0  0
 24 26  2  0  0  0  0
 24 41  1  0  0  0  0
 25 54  1  0  0  0  0
 26 42  1  0  0  0  0
 27 85  1  0  0  0  0
 28 86  1  0  0  0  0
 29 31  2  0  0  0  0
 29 85  1  0  0  0  0
 30 87  1  0  0  0  0
 31 88  1  0  0  0  0
 32 68  2  0  0  0  0
 33 69  1  0  0  0  0
 33 73  1  0  0  0  0
 34 75  1  0  0  0  0
 34 79  2  0  0  0  0
 35 74  1  0  0  0  0
 35 80  2  0  0  0  0
 36 55  1  0  0  0  0
 36 76  1  0  0  0  0
 36 81  2  0  0  0  0
 37 65  1  0  0  0  0
 37 70  1  0  0  0  0
 37 82  2  0  0  0  0
 38 66  1  0  0  0  0
 38 77  1  0  0  0  0
 38 83  2  0  0  0  0
 39 71  1  0  0  0  0
 39 72  1  0  0  0  0
 39 84  2  0  0  0  0
 40 43  1  0  0  0  0
 41 55  1  0  0  0  0
 42 70  1  0  0  0  0
 43 45  1  0  0  0  0
 44 46  1  0  0  0  0
 44 49  1  0  0  0  0
 45 54  1  0  0  0  0
 46 56  1  0  0  0  0
 47 50  1  0  0  0  0
 47 53  1  0  0  0  0
 48 51  1  0  0  0  0
 48 53  1  0  0  0  0
 49 71  1  0  0  0  0
 50 72  1  0  0  0  0
 51 72  1  0  0  0  0
 52 56  1  0  0  0  0
 52 71  1  0  0  0  0
 54 76  1  0  0  0  0
 55 70  1  0  0  0  0
 56 69  1  0  0  0  0
 57 66  1  0  0  0  0
 58 67  1  0  0  0  0
 59 67  1  0  0  0  0
 60 67  1  0  0  0  0
 61 78  1  0  0  0  0
 62 63  1  0  0  0  0
 62 64  1  0  0  0  0
 63 75  1  0  0  0  0
 64 86  1  0  0  0  0
 65 67  1  0  0  0  0
 65 77  1  0  0  0  0
 66 78  1  0  0  0  0
 68 69  1  0  0  0  0
M  CHG  1  78   1
M  ISO  4  39 100  64 101  72 100  86 101
M  END
> <Batch ID>
0004

> <Smiles>
CNC(C)C(=O)NC(C(=O)N1Cc2cc([101O:1][101CH2:1]CCNC(=O)c3cccc(C4CC[100N:0]([100C:0](=O)N5CCCC(n6nc(-c7ccc(Oc8ccc(F)cc8F)cc7)c(C(N)=O)c6N)C5)CC4)c3)ccc2CC1C(=O)NC1CCCc2ccccc21)C(C)(C)C

> <Shape>
0.216

> <Color>
0.060

> <Negative vol penalty>
0.000

$$$$

  -OEChem-04042320233D

 88 96  0     1  0  0  0  0  0999 V2000
  -25.3796   -6.9047   30.4324 C   0  0  0  0  0  0  0  0  0  0  0  0
  -25.9688   -7.9600   31.1212 C   0  0  0  0  0  0  0  0  0  0  0  0
  -33.3862  -11.7990   25.1120 C   0  0  0  0  0  0  0  0  0  0  0  0
  -23.1914   -9.8189   19.9320 C   0  0  0  0  0  0  0  0  0  0  0  0
  -23.5704   -9.9995   22.3112 C   0  0  0  0  0  0  0  0  0  0  0  0
  -32.7695  -11.8484   26.3621 C   0  0  0  0  0  0  0  0  0  0  0  0
  -24.8050   -7.1247   29.1812 C   0  0  0  0  0  0  0  0  0  0  0  0
  -25.9849   -9.2358   30.5587 C   0  0  0  0  0  0  0  0  0  0  0  0
  -25.5436  -14.5740   33.5277 C   0  0  0  0  0  0  0  0  0  0  0  0
  -32.6591  -12.1094   23.9628 C   0  0  0  0  0  0  0  0  0  0  0  0
  -22.4257   -8.6719   20.1410 C   0  0  0  0  0  0  0  0  0  0  0  0
  -22.8047   -8.8525   22.5203 C   0  0  0  0  0  0  0  0  0  0  0  0
  -26.5014  -15.4970   33.9454 C   0  0  0  0  0  0  0  0  0  0  0  0
  -23.2073   -5.5060   22.2561 C   0  0  0  0  0  0  0  0  0  0  0  0
  -23.7065   -4.5450   23.1352 C   0  0  0  0  0  0  0  0  0  0  0  0
  -30.6984  -12.5184   25.3139 C   0  0  0  0  0  0  0  0  0  0  0  0
  -26.1226  -16.7873   31.9428 C   0  0  0  0  0  0  0  0  0  0  0  0
  -21.7502   -4.8040   24.5291 C   0  0  0  0  0  0  0  0  0  0  0  0
  -23.7637  -10.4828   21.0171 C   0  0  0  0  0  0  0  0  0  0  0  0
  -31.4255  -12.2080   26.4631 C   0  0  0  0  0  0  0  0  0  0  0  0
  -24.1011  -12.9996   20.7732 C   0  0  0  0  0  0  0  0  0  0  0  0
  -24.8055   -8.4059   28.6074 C   0  0  0  0  0  0  0  0  0  0  0  0
  -24.8748  -14.7453   32.3072 C   0  0  0  0  0  0  0  0  0  0  0  0
  -25.4110   -9.4730   29.2981 C   0  0  0  0  0  0  0  0  0  0  0  0
  -25.1549  -15.8665   31.5131 C   0  0  0  0  0  0  0  0  0  0  0  0
  -31.3152  -12.4690   24.0638 C   0  0  0  0  0  0  0  0  0  0  0  0
  -22.2323   -8.1887   21.4351 C   0  0  0  0  0  0  0  0  0  0  0  0
  -26.7932  -16.6023   33.1516 C   0  0  0  0  0  0  0  0  0  0  0  0
  -21.9796   -6.1162   22.5136 C   0  0  0  0  0  0  0  0  0  0  0  0
  -22.9779   -4.1939   24.2717 C   0  0  0  0  0  0  0  0  0  0  0  0
  -21.2511   -5.7651   23.6501 C   0  0  0  0  0  0  0  0  0  0  0  0
  -24.5552  -11.6674   20.8018 C   0  0  0  0  0  0  0  0  0  0  0  0
  -25.2319  -13.7428   20.5375 C   0  0  0  0  0  0  0  0  0  0  0  0
  -30.7700  -12.2602   27.7952 C   0  0  0  0  0  0  0  0  0  0  0  0
  -22.7757  -13.5188   20.9445 C   0  0  0  0  0  0  0  0  0  0  0  0
  -24.6728  -13.0802   29.6071 C   0  0  0  0  0  0  0  0  0  0  0  0
  -22.4744  -15.3376   28.8365 C   0  0  0  0  0  0  0  0  0  0  0  0
  -21.2760  -18.4970   29.3149 C   0  0  0  0  0  0  0  0  0  0  0  0
  -31.0371  -12.7850   21.5800 C   0  0  0  0  0  0  0  0  0  0  0  0
  -24.2140   -8.5853   27.2317 C   0  0  0  0  0  0  0  0  0  0  0  0
  -23.8251  -13.7549   31.8835 C   0  0  0  0  0  0  0  0  0  0  0  0
  -24.4503  -16.1069   30.2038 C   0  0  0  0  0  0  0  0  0  0  0  0
  -23.9412  -10.0434   26.8714 C   0  0  0  0  0  0  0  0  0  0  0  0
  -29.5233  -13.4658   18.4301 C   0  0  0  0  0  0  0  0  0  0  0  0
  -25.1422  -10.9145   27.2256 C   0  0  0  0  0  0  0  0  0  0  0  0
  -28.0354  -13.2090   18.6798 C   0  0  0  0  0  0  0  0  0  0  0  0
  -30.4052  -12.4813   19.1960 C   0  0  0  0  0  0  0  0  0  0  0  0
  -28.6461  -12.1390   20.8865 C   0  0  0  0  0  0  0  0  0  0  0  0
  -25.4263  -10.8763   28.7320 C   0  0  1  0  0  0  0  0  0  0  0  0
  -23.5749  -13.7563   30.3786 C   0  0  1  0  0  0  0  0  0  0  0  0
  -27.7195  -13.1470   20.1871 C   0  0  2  0  0  0  0  0  0  0  0  0
  -19.4915  -20.0692   28.5141 C   0  0  0  0  0  0  0  0  0  0  0  0
  -24.0581  -15.8263   26.2747 C   0  0  0  0  0  0  0  0  0  0  0  0
  -22.8180  -17.9841   26.0024 C   0  0  0  0  0  0  0  0  0  0  0  0
  -21.5745  -15.8217   25.9810 C   0  0  0  0  0  0  0  0  0  0  0  0
  -20.0750  -18.6925   32.0127 C   0  0  0  0  0  0  0  0  0  0  0  0
  -30.6878  -13.9805   30.6350 C   0  0  0  0  0  0  0  0  0  0  0  0
  -31.8245  -15.0024   30.5137 C   0  0  0  0  0  0  0  0  0  0  0  0
  -30.0314  -17.8705   34.1170 C   0  0  0  0  0  0  0  0  0  0  0  0
  -31.1223  -12.5745   30.2310 C   0  0  0  0  0  0  0  0  0  0  0  0
  -31.3939  -16.4268   30.8433 C   0  0  0  0  0  0  0  0  0  0  0  0
  -30.4908  -17.8753   32.6667 C   0  0  0  0  0  0  0  0  0  0  0  0
  -28.7961  -17.0138   34.3659 C   0  0  0  0  0  0  0  0  0  1  0  0
  -22.5192  -16.6868   28.1608 C   0  0  1  0  0  0  0  0  0  0  0  0
  -19.8681  -19.0162   29.5447 C   0  0  2  0  0  0  0  0  0  0  0  0
  -22.7573  -16.5745   26.6284 C   0  0  0  0  0  0  0  0  0  0  0  0
  -25.8718  -11.5669   20.6002 N   0  0  0  0  0  0  0  0  0  0  0  0
  -26.2546  -12.8455   20.4426 N   0  0  0  0  0  0  0  0  0  0  0  0
  -23.4366  -15.1069   29.8299 N   0  0  0  0  0  0  0  0  0  0  0  0
  -30.0519  -12.4796   20.6173 N   0  0  0  0  0  0  0  0  0  0  0  0
  -25.4411  -15.0697   20.4042 N   0  0  0  0  0  0  0  0  0  0  0  0
  -21.7296  -12.6161   21.1789 N   0  0  0  0  0  0  0  0  0  0  0  0
  -30.5768  -12.7846   22.8963 N   0  0  0  0  0  0  0  0  0  0  0  0
  -31.6031  -12.5172   28.8783 N   0  0  0  0  0  0  0  0  0  0  0  0
  -24.4909  -11.7201   29.4443 N   0  0  0  0  0  0  0  0  0  0  0  0
  -21.2809  -17.3669   28.5248 N   0  0  0  0  0  0  0  0  0  0  0  0
  -19.7551  -19.6242   30.9006 N   0  3  0  0  0  0  0  0  0  0  0  0
  -30.8751  -16.5105   32.2366 N   0  3  0  0  0  0  0  0  0  0  0  0
  -29.5611  -12.0591   27.8773 O   0  0  0  0  0  0  0  0  0  0  0  0
  -22.5239  -14.7457   20.8749 O   0  0  0  0  0  0  0  0  0  0  0  0
  -25.6145  -13.7437   29.1891 O   0  0  0  0  0  0  0  0  0  0  0  0
  -21.6129  -14.5213   28.5006 O   0  0  0  0  0  0  0  0  0  0  0  0
  -22.2720  -19.0417   29.7858 O   0  0  0  0  0  0  0  0  0  0  0  0
  -32.1970  -13.0557   21.2582 O   0  0  0  0  0  0  0  0  0  0  0  0
  -21.4851   -7.0696   21.6395 O   0  0  0  0  0  0  0  0  0  0  0  0
  -27.7281  -17.5044   33.5566 O   0  0  0  0  0  0  0  0  0  1  0  0
  -23.4566   -3.2699   25.1149 F   0  0  0  0  0  0  0  0  0  0  0  0
  -20.0705   -6.3470   23.9021 F   0  0  0  0  0  0  0  0  0  0  0  0
  1  2  1  0  0  0  0
  1  7  2  0  0  0  0
  2  8  2  0  0  0  0
  3  6  2  0  0  0  0
  3 10  1  0  0  0  0
  4 11  2  0  0  0  0
  4 19  1  0  0  0  0
  5 12  1  0  0  0  0
  5 19  2  0  0  0  0
  6 20  1  0  0  0  0
  7 22  1  0  0  0  0
  8 24  1  0  0  0  0
  9 13  2  0  0  0  0
  9 23  1  0  0  0  0
 10 26  2  0  0  0  0
 11 27  1  0  0  0  0
 12 27  2  0  0  0  0
 13 28  1  0  0  0  0
 14 15  2  0  0  0  0
 14 29  1  0  0  0  0
 15 30  1  0  0  0  0
 16 20  2  0  0  0  0
 16 26  1  0  0  0  0
 17 25  1  0  0  0  0
 17 28  2  0  0  0  0
 18 30  2  0  0  0  0
 18 31  1  0  0  0  0
 19 32  1  0  0  0  0
 20 34  1  0  0  0  0
 21 32  1  0  0  0  0
 21 33  2  0  0  0  0
 21 35  1  0  0  0  0
 22 24  2  0  0  0  0
 22 40  1  0  0  0  0
 23 25  2  0  0  0  0
 23 41  1  0  0  0  0
 24 49  1  0  0  0  0
 25 42  1  0  0  0  0
 26 73  1  0  0  0  0
 27 85  1  0  0  0  0
 28 86  1  0  0  0  0
 29 31  2  0  0  0  0
 29 85  1  0  0  0  0
 30 87  1  0  0  0  0
 31 88  1  0  0  0  0
 32 67  2  0  0  0  0
 33 68  1  0  0  0  0
 33 71  1  0  0  0  0
 34 74  1  0  0  0  0
 34 79  2  0  0  0  0
 35 72  1  0  0  0  0
 35 80  2  0  0  0  0
 36 50  1  0  0  0  0
 36 75  1  0  0  0  0
 36 81  2  0  0  0  0
 37 64  1  0  0  0  0
 37 69  1  0  0  0  0
 37 82  2  0  0  0  0
 38 65  1  0  0  0  0
 38 76  1  0  0  0  0
 38 83  2  0  0  0  0
 39 70  1  0  0  0  0
 39 73  1  0  0  0  0
 39 84  2  0  0  0  0
 40 43  1  0  0  0  0
 41 50  1  0  0  0  0
 42 69  1  0  0  0  0
 43 45  1  0  0  0  0
 44 46  1  0  0  0  0
 44 47  1  0  0  0  0
 45 49  1  0  0  0  0
 46 51  1  0  0  0  0
 47 70  1  0  0  0  0
 48 51  1  0  0  0  0
 48 70  1  0  0  0  0
 49 75  1  0  0  0  0
 50 69  1  0  0  0  0
 51 68  1  0  0  0  0
 52 65  1  0  0  0  0
 53 66  1  0  0  0  0
 54 66  1  0  0  0  0
 55 66  1  0  0  0  0
 56 77  1  0  0  0  0
 57 58  1  0  0  0  0
 57 60  1  0  0  0  0
 58 61  1  0  0  0  0
 59 62  1  0  0  0  0
 59 63  1  0  0  0  0
 60 74  1  0  0  0  0
 61 78  1  0  0  0  0
 62 78  1  0  0  0  0
 63 86  1  0  0  0  0
 64 66  1  0  0  0  0
 64 76  1  0  0  0  0
 65 77  1  0  0  0  0
 67 68  1  0  0  0  0
M  CHG  2  77   1  78   1
M  ISO  4  39 100  63 101  73 100  86 101
M  END
> <Batch ID>
0004

> <Smiles>
CNC(C)C(=O)NC(C(=O)N1Cc2cc([101O:1][101CH2:1]CCNCCCCNC(=O)c3cccc([100NH:0][100C:0](=O)N4CCCC(n5nc(-c6ccc(Oc7ccc(F)cc7F)cc6)c(C(N)=O)c5N)C4)c3)ccc2CC1C(=O)NC1CCCc2ccccc21)C(C)(C)C

> <Shape>
0.138

> <Color>
0.175

> <Negative vol penalty>
0.000

$$$$

  -OEChem-04042320233D

 87 95  0     1  0  0  0  0  0999 V2000
  -30.6227  -26.8309   16.6068 C   0  0  0  0  0  0  0  0  0  0  0  0
  -29.2405  -26.7206   16.7192 C   0  0  0  0  0  0  0  0  0  0  0  0
  -24.9957  -13.0791   23.2971 C   0  0  0  0  0  0  0  0  0  0  0  0
  -25.8531  -14.5358   21.5709 C   0  0  0  0  0  0  0  0  0  0  0  0
  -31.3807  -27.2316   17.7062 C   0  0  0  0  0  0  0  0  0  0  0  0
  -28.6155  -27.0100   17.9317 C   0  0  0  0  0  0  0  0  0  0  0  0
  -23.1079  -29.5711   18.7153 C   0  0  0  0  0  0  0  0  0  0  0  0
  -25.1954  -11.9768   22.4661 C   0  0  0  0  0  0  0  0  0  0  0  0
  -26.0528  -13.4335   20.7399 C   0  0  0  0  0  0  0  0  0  0  0  0
  -21.8521  -29.0302   18.9871 C   0  0  0  0  0  0  0  0  0  0  0  0
  -28.3223  -10.9530   20.3976 C   0  0  0  0  0  0  0  0  0  0  0  0
  -29.5329  -10.8732   19.7093 C   0  0  0  0  0  0  0  0  0  0  0  0
  -22.1836  -29.4570   21.3380 C   0  0  0  0  0  0  0  0  0  0  0  0
  -21.2912  -23.2775   18.8856 C   0  0  0  0  0  0  0  0  0  0  0  0
  -22.7235  -21.9342   20.2931 C   0  0  0  0  0  0  0  0  0  0  0  0
  -20.4046  -22.2580   20.8885 C   0  0  0  0  0  0  0  0  0  0  0  0
  -28.3391  -10.8843   17.6088 C   0  0  0  0  0  0  0  0  0  0  0  0
  -25.3245  -14.3586   22.8495 C   0  0  0  0  0  0  0  0  0  0  0  0
  -26.0326  -16.0477   24.6253 C   0  0  0  0  0  0  0  0  0  0  0  0
  -30.7637  -27.5353   18.9300 C   0  0  0  0  0  0  0  0  0  0  0  0
  -23.9170  -30.0499   19.7557 C   0  0  0  0  0  0  0  0  0  0  0  0
  -29.3660  -27.4139   19.0489 C   0  0  0  0  0  0  0  0  0  0  0  0
  -23.4483  -30.0059   21.0765 C   0  0  0  0  0  0  0  0  0  0  0  0
  -22.5416  -22.7218   19.1563 C   0  0  0  0  0  0  0  0  0  0  0  0
  -20.2227  -23.0456   19.7518 C   0  0  0  0  0  0  0  0  0  0  0  0
  -21.6550  -21.7023   21.1592 C   0  0  0  0  0  0  0  0  0  0  0  0
  -25.7240  -12.1539   21.1875 C   0  0  0  0  0  0  0  0  0  0  0  0
  -21.3909  -28.9704   20.2989 C   0  0  0  0  0  0  0  0  0  0  0  0
  -27.1202  -10.9984   19.6916 C   0  0  0  0  0  0  0  0  0  0  0  0
  -29.5413  -10.8389   18.3149 C   0  0  0  0  0  0  0  0  0  0  0  0
  -27.1286  -10.9641   18.2972 C   0  0  0  0  0  0  0  0  0  0  0  0
  -25.1179  -15.4978   23.7072 C   0  0  0  0  0  0  0  0  0  0  0  0
  -25.3619  -17.1074   25.1853 C   0  0  0  0  0  0  0  0  0  0  0  0
  -27.3690  -15.6373   24.9434 C   0  0  0  0  0  0  0  0  0  0  0  0
  -26.7756  -29.2775   20.9116 C   0  0  0  0  0  0  0  0  0  0  0  0
  -26.3127  -31.9109   22.7482 C   0  0  0  0  0  0  0  0  0  0  0  0
  -24.1157  -34.0940   24.1814 C   0  0  0  0  0  0  0  0  0  0  0  0
  -20.8849  -20.5738   23.2758 C   0  0  0  0  0  0  0  0  0  0  0  0
  -31.6294  -27.9188   20.1040 C   0  0  0  0  0  0  0  0  0  0  0  0
  -25.2582  -30.6549   19.4431 C   0  0  0  0  0  0  0  0  0  0  0  0
  -24.2698  -30.5252   22.2272 C   0  0  0  0  0  0  0  0  0  0  0  0
  -30.8531  -28.5685   21.2467 C   0  0  0  0  0  0  0  0  0  0  0  0
  -20.9362  -18.6024   26.2403 C   0  0  0  0  0  0  0  0  0  0  0  0
  -29.5878  -27.7733   21.5524 C   0  0  0  0  0  0  0  0  0  0  0  0
  -22.1015  -17.6366   26.0133 C   0  0  0  0  0  0  0  0  0  0  0  0
  -20.1702  -18.8805   24.9482 C   0  0  0  0  0  0  0  0  0  0  0  0
  -22.1621  -18.3640   23.5937 C   0  0  0  0  0  0  0  0  0  0  0  0
  -28.6490  -27.7430   20.3403 C   0  0  1  0  0  0  0  0  0  0  0  0
  -26.2116  -30.6423   20.6340 C   0  0  1  0  0  0  0  0  0  0  0  0
  -23.0033  -18.1041   24.8541 C   0  0  2  0  0  0  0  0  0  0  0  0
  -17.8146  -22.5552   19.2091 C   0  0  0  0  0  0  0  0  0  0  0  0
  -24.0335  -36.1218   25.6574 C   0  0  0  0  0  0  0  0  0  0  0  0
  -26.8789  -30.1596   25.1818 C   0  0  0  0  0  0  0  0  0  0  0  0
  -25.8699  -31.9468   26.6157 C   0  0  0  0  0  0  0  0  0  0  0  0
  -27.9132  -32.4348   25.2706 C   0  0  0  0  0  0  0  0  0  0  0  0
  -22.8323  -35.7223   22.0694 C   0  0  0  0  0  0  0  0  0  0  0  0
  -25.8234  -24.1748   17.8139 C   0  0  0  0  0  0  0  0  0  0  0  0
  -24.0348  -25.2472   19.1746 C   0  0  0  0  0  0  0  0  0  0  0  0
  -23.6841  -22.9700   18.2303 C   0  0  0  0  0  0  0  0  0  0  0  0
  -18.9215  -26.7428   21.7272 C   0  0  0  0  0  0  0  0  0  0  0  0
  -18.3754  -24.6032   20.5598 C   0  0  0  0  0  0  0  0  0  0  0  0
  -19.9951  -27.8078   21.8338 C   0  0  0  0  0  0  0  0  0  1  0  0
  -18.8564  -23.6527   19.4558 C   0  0  1  0  0  0  0  0  0  0  0  0
  -25.6888  -32.1776   24.0968 C   0  0  1  0  0  0  0  0  0  0  0  0
  -24.0876  -35.6111   24.2260 C   0  0  2  0  0  0  0  0  0  0  0  0
  -26.5728  -31.6680   25.2700 C   0  0  0  0  0  0  0  0  0  0  0  0
  -23.9547  -16.1539   23.6825 N   0  0  0  0  0  0  0  0  0  0  0  0
  -24.1340  -17.1269   24.5920 N   0  0  0  0  0  0  0  0  0  0  0  0
  -25.5768  -31.1016   21.8711 N   0  0  0  0  0  0  0  0  0  0  0  0
  -21.0883  -19.3231   23.8965 N   0  0  0  0  0  0  0  0  0  0  0  0
  -25.7086  -18.0151   26.1225 N   0  0  0  0  0  0  0  0  0  0  0  0
  -27.9044  -14.5282   24.2744 N   0  0  0  0  0  0  0  0  0  0  0  0
  -21.8397  -20.9021   22.3139 N   0  0  0  0  0  0  0  0  0  0  0  0
  -27.9386  -28.9981   20.2197 N   0  0  0  0  0  0  0  0  0  0  0  0
  -25.4054  -33.6081   24.1397 N   0  0  0  0  0  0  0  0  0  0  0  0
  -22.8953  -36.1287   23.4970 N   0  3  0  0  0  0  0  0  0  0  0  0
  -19.3399  -25.7230   20.7326 N   0  3  0  0  0  0  0  0  0  0  0  0
  -24.6745  -23.9465   18.7620 N   0  3  0  0  0  0  0  0  0  0  0  0
  -28.0618  -16.2263   25.8074 O   0  0  0  0  0  0  0  0  0  0  0  0
  -26.1991  -28.5337   21.6965 O   0  0  0  0  0  0  0  0  0  0  0  0
  -27.4093  -32.4084   22.4802 O   0  0  0  0  0  0  0  0  0  0  0  0
  -23.0956  -33.4084   24.1871 O   0  0  0  0  0  0  0  0  0  0  0  0
  -19.9494  -21.3121   23.5947 O   0  0  0  0  0  0  0  0  0  0  0  0
  -25.9192  -11.0785   20.3764 O   0  0  0  0  0  0  0  0  0  0  0  0
  -20.1657  -28.4423   20.5670 O   0  0  0  0  0  0  0  0  0  1  0  0
  -30.7039  -10.7637   17.6539 F   0  0  0  0  0  0  0  0  0  0  0  0
  -25.9770  -11.0087   17.6134 F   0  0  0  0  0  0  0  0  0  0  0  0
  1  2  1  0  0  0  0
  1  5  2  0  0  0  0
  2  6  2  0  0  0  0
  3  8  2  0  0  0  0
  3 18  1  0  0  0  0
  4  9  1  0  0  0  0
  4 18  2  0  0  0  0
  5 20  1  0  0  0  0
  6 22  1  0  0  0  0
  7 10  2  0  0  0  0
  7 21  1  0  0  0  0
  8 27  1  0  0  0  0
  9 27  2  0  0  0  0
 10 28  1  0  0  0  0
 11 12  2  0  0  0  0
 11 29  1  0  0  0  0
 12 30  1  0  0  0  0
 13 23  1  0  0  0  0
 13 28  2  0  0  0  0
 14 24  2  0  0  0  0
 14 25  1  0  0  0  0
 15 24  1  0  0  0  0
 15 26  2  0  0  0  0
 16 25  2  0  0  0  0
 16 26  1  0  0  0  0
 17 30  2  0  0  0  0
 17 31  1  0  0  0  0
 18 32  1  0  0  0  0
 19 32  1  0  0  0  0
 19 33  2  0  0  0  0
 19 34  1  0  0  0  0
 20 22  2  0  0  0  0
 20 39  1  0  0  0  0
 21 23  2  0  0  0  0
 21 40  1  0  0  0  0
 22 48  1  0  0  0  0
 23 41  1  0  0  0  0
 24 59  1  0  0  0  0
 25 63  1  0  0  0  0
 26 73  1  0  0  0  0
 27 84  1  0  0  0  0
 28 85  1  0  0  0  0
 29 31  2  0  0  0  0
 29 84  1  0  0  0  0
 30 86  1  0  0  0  0
 31 87  1  0  0  0  0
 32 67  2  0  0  0  0
 33 68  1  0  0  0  0
 33 71  1  0  0  0  0
 34 72  1  0  0  0  0
 34 79  2  0  0  0  0
 35 49  1  0  0  0  0
 35 74  1  0  0  0  0
 35 80  2  0  0  0  0
 36 64  1  0  0  0  0
 36 69  1  0  0  0  0
 36 81  2  0  0  0  0
 37 65  1  0  0  0  0
 37 75  1  0  0  0  0
 37 82  2  0  0  0  0
 38 70  1  0  0  0  0
 38 73  1  0  0  0  0
 38 83  2  0  0  0  0
 39 42  1  0  0  0  0
 40 49  1  0  0  0  0
 41 69  1  0  0  0  0
 42 44  1  0  0  0  0
 43 45  1  0  0  0  0
 43 46  1  0  0  0  0
 44 48  1  0  0  0  0
 45 50  1  0  0  0  0
 46 70  1  0  0  0  0
 47 50  1  0  0  0  0
 47 70  1  0  0  0  0
 48 74  1  0  0  0  0
 49 69  1  0  0  0  0
 50 68  1  0  0  0  0
 51 63  1  0  0  0  0
 52 65  1  0  0  0  0
 53 66  1  0  0  0  0
 54 66  1  0  0  0  0
 55 66  1  0  0  0  0
 56 76  1  0  0  0  0
 57 78  1  0  0  0  0
 58 78  1  0  0  0  0
 59 78  1  0  0  0  0
 60 62  1  0  0  0  0
 60 77  1  0  0  0  0
 61 63  1  0  0  0  0
 61 77  1  0  0  0  0
 62 85  1  0  0  0  0
 64 66  1  0  0  0  0
 64 75  1  0  0  0  0
 65 76  1  0  0  0  0
 67 68  1  0  0  0  0
M  CHG  3  76   1  77   1  78   1
M  ISO  4  38 100  62 101  73 100  85 101
M  END
> <Batch ID>
0004

> <Smiles>
CNC(C)C(=O)NC(C(=O)N1Cc2cc([101O:1][101CH2:1]CNCC(C)c3cc(CN(C)C)cc([100NH:0][100C:0](=O)N4CCCC(n5nc(-c6ccc(Oc7ccc(F)cc7F)cc6)c(C(N)=O)c5N)C4)c3)ccc2CC1C(=O)NC1CCCc2ccccc21)C(C)(C)C

> <Shape>
0.219

> <Color>
0.065

> <Negative vol penalty>
0.000

$$$$
