
  -OEChem-04042320263D

 86 95  0     1  0  0  0  0  0999 V2000
  -29.9676  -11.3379   18.9895 C   0  0  0  0  0  0  0  0  0  0  0  0
  -29.8701  -12.7162   18.8282 C   0  0  0  0  0  0  0  0  0  0  0  0
  -32.1323  -29.3229   20.9819 C   0  0  0  0  0  0  0  0  0  0  0  0
  -19.9820  -28.1594   23.6883 C   0  0  0  0  0  0  0  0  0  0  0  0
  -20.9445  -26.8140   21.9274 C   0  0  0  0  0  0  0  0  0  0  0  0
  -32.1124  -27.9566   21.2724 C   0  0  0  0  0  0  0  0  0  0  0  0
  -28.8761  -10.6143   19.4681 C   0  0  0  0  0  0  0  0  0  0  0  0
  -28.6806  -13.3717   19.1444 C   0  0  0  0  0  0  0  0  0  0  0  0
  -29.4479  -17.6210   21.7901 C   0  0  0  0  0  0  0  0  0  0  0  0
  -31.0168  -29.9357   20.4185 C   0  0  0  0  0  0  0  0  0  0  0  0
  -18.7115  -27.9549   23.1502 C   0  0  0  0  0  0  0  0  0  0  0  0
  -19.6739  -26.6095   21.3893 C   0  0  0  0  0  0  0  0  0  0  0  0
  -29.8703  -18.7448   21.0813 C   0  0  0  0  0  0  0  0  0  0  0  0
  -16.9871  -24.6598   22.0219 C   0  0  0  0  0  0  0  0  0  0  0  0
  -16.6516  -23.3636   21.6307 C   0  0  0  0  0  0  0  0  0  0  0  0
  -27.6107  -19.5893   21.0854 C   0  0  0  0  0  0  0  0  0  0  0  0
  -16.3096  -24.1355   19.3669 C   0  0  0  0  0  0  0  0  0  0  0  0
  -21.0985  -27.5890   23.0768 C   0  0  0  0  0  0  0  0  0  0  0  0
  -30.9749  -27.1822   21.0023 C   0  0  0  0  0  0  0  0  0  0  0  0
  -23.0650  -27.0078   24.5944 C   0  0  0  0  0  0  0  0  0  0  0  0
  -27.6758  -11.2624   19.7995 C   0  0  0  0  0  0  0  0  0  0  0  0
  -28.0995  -17.4674   22.1430 C   0  0  0  0  0  0  0  0  0  0  0  0
  -27.5716  -12.6559   19.6266 C   0  0  0  0  0  0  0  0  0  0  0  0
  -27.1742  -18.4639   21.8009 C   0  0  0  0  0  0  0  0  0  0  0  0
  -29.8631  -27.8080   20.4073 C   0  0  0  0  0  0  0  0  0  0  0  0
  -29.8817  -29.1813   20.1332 C   0  0  0  0  0  0  0  0  0  0  0  0
  -18.5575  -27.1799   22.0007 C   0  0  0  0  0  0  0  0  0  0  0  0
  -28.9511  -19.7278   20.7263 C   0  0  0  0  0  0  0  0  0  0  0  0
  -16.9838  -25.6938   21.0857 C   0  0  0  0  0  0  0  0  0  0  0  0
  -16.3129  -23.1015   20.3032 C   0  0  0  0  0  0  0  0  0  0  0  0
  -16.6451  -25.4316   19.7582 C   0  0  0  0  0  0  0  0  0  0  0  0
  -22.4113  -27.8003   23.6319 C   0  0  0  0  0  0  0  0  0  0  0  0
  -24.2767  -27.6264   24.7829 C   0  0  0  0  0  0  0  0  0  0  0  0
  -30.8958  -25.7325   21.3142 C   0  0  0  0  0  0  0  0  0  0  0  0
  -22.6170  -25.8188   25.2586 C   0  0  0  0  0  0  0  0  0  0  0  0
  -25.8301  -15.3482   21.4627 C   0  0  0  0  0  0  0  0  0  0  0  0
  -24.1306  -17.0524   23.6375 C   0  0  0  0  0  0  0  0  0  0  0  0
  -23.6583  -20.0113   25.2711 C   0  0  0  0  0  0  0  0  0  0  0  0
  -27.6077  -31.2076   21.3289 C   0  0  0  0  0  0  0  0  0  0  0  0
  -26.5077  -10.4317   20.2685 C   0  0  0  0  0  0  0  0  0  0  0  0
  -27.6646  -16.2622   22.9308 C   0  0  0  0  0  0  0  0  0  0  0  0
  -28.6417  -26.9831   20.1127 C   0  0  0  0  0  0  0  0  0  0  0  0
  -25.7188  -18.3563   22.1736 C   0  0  0  0  0  0  0  0  0  0  0  0
  -25.4060  -11.2514   20.9352 C   0  0  0  0  0  0  0  0  0  0  0  0
  -26.3547  -31.9313   24.5821 C   0  0  0  0  0  0  0  0  0  0  0  0
  -25.0835  -12.4887   20.1033 C   0  0  0  0  0  0  0  0  0  0  0  0
  -25.2610  -30.8832   24.7943 C   0  0  0  0  0  0  0  0  0  0  0  0
  -29.0572  -25.5870   19.6743 C   0  0  0  0  0  0  0  0  0  0  0  0
  -26.4060  -32.4079   23.1321 C   0  0  0  0  0  0  0  0  0  0  0  0
  -25.4362  -30.2841   22.3429 C   0  0  0  0  0  0  0  0  0  0  0  0
  -26.3064  -13.4061   19.9822 C   0  0  1  0  0  0  0  0  0  0  0  0
  -26.1755  -15.9618   22.7901 C   0  0  1  0  0  0  0  0  0  0  0  0
  -25.3826  -29.7320   23.7777 C   0  0  2  0  0  0  0  0  0  0  0  0
  -22.1660  -21.1115   26.9622 C   0  0  0  0  0  0  0  0  0  0  0  0
  -21.9492  -17.3378   21.5232 C   0  0  0  0  0  0  0  0  0  0  0  0
  -20.9613  -19.1866   22.8922 C   0  0  0  0  0  0  0  0  0  0  0  0
  -21.1089  -16.8815   23.8341 C   0  0  0  0  0  0  0  0  0  0  0  0
  -25.9135  -20.4761   27.1305 C   0  0  0  0  0  0  0  0  0  0  0  0
  -28.7038  -29.8835   19.5388 C   0  0  0  0  0  0  0  0  0  0  0  0
  -30.7619  -22.7734   20.0260 C   0  0  0  0  0  0  0  0  0  0  0  0
  -29.8362  -23.5427   20.9542 C   0  0  0  0  0  0  0  0  0  0  0  0
  -30.6999  -21.2678   20.2507 C   0  0  0  0  0  0  0  0  0  1  0  0
  -23.2173  -18.2530   23.5776 C   0  0  1  0  0  0  0  0  0  0  0  0
  -23.4507  -20.3284   26.7411 C   0  0  2  0  0  0  0  0  0  0  0  0
  -21.8362  -17.9161   22.9479 C   0  0  0  0  0  0  0  0  0  0  0  0
  -23.1468  -28.8429   23.2367 N   0  0  0  0  0  0  0  0  0  0  0  0
  -24.2751  -28.7098   23.9544 N   0  0  0  0  0  0  0  0  0  0  0  0
  -29.9594  -24.9876   20.6863 N   0  0  0  0  0  0  0  0  0  0  0  0
  -25.3415  -17.1562   22.9384 N   0  0  0  0  0  0  0  0  0  0  0  0
  -26.5231  -31.2681   22.2194 N   0  0  0  0  0  0  0  0  0  0  0  0
  -25.3328  -27.3438   25.5750 N   0  0  0  0  0  0  0  0  0  0  0  0
  -21.3455  -25.3182   24.9471 N   0  0  0  0  0  0  0  0  0  0  0  0
  -26.4923  -14.1640   21.2009 N   0  0  0  0  0  0  0  0  0  0  0  0
  -23.1423  -18.7771   24.9370 N   0  0  0  0  0  0  0  0  0  0  0  0
  -27.6466  -30.0907   20.5033 N   0  0  0  0  0  0  0  0  0  0  0  0
  -31.7366  -25.2250   22.2187 N   0  3  0  0  0  0  0  0  0  0  0  0
  -24.5892  -21.1363   27.2626 N   0  3  0  0  0  0  0  0  0  0  0  0
  -23.3167  -25.2272   26.1153 O   0  0  0  0  0  0  0  0  0  0  0  0
  -25.0215  -15.9070   20.7309 O   0  0  0  0  0  0  0  0  0  0  0  0
  -23.7856  -16.0619   24.2867 O   0  0  0  0  0  0  0  0  0  0  0  0
  -24.2187  -20.7831   24.4959 O   0  0  0  0  0  0  0  0  0  0  0  0
  -28.4799  -32.0815   21.2774 O   0  0  0  0  0  0  0  0  0  0  0  0
  -17.3178  -26.9799   21.4755 O   0  0  0  0  0  0  0  0  0  0  0  0
  -29.3607  -20.8254   20.0339 O   0  0  0  0  0  0  0  0  0  1  0  0
  -15.9923  -21.8564   19.9273 F   0  0  0  0  0  0  0  0  0  0  0  0
  -16.6413  -26.4207   18.8540 F   0  0  0  0  0  0  0  0  0  0  0  0
  1  2  1  0  0  0  0
  1  7  2  0  0  0  0
  2  8  2  0  0  0  0
  3  6  2  0  0  0  0
  3 10  1  0  0  0  0
  4 11  2  0  0  0  0
  4 18  1  0  0  0  0
  5 12  1  0  0  0  0
  5 18  2  0  0  0  0
  6 19  1  0  0  0  0
  7 21  1  0  0  0  0
  8 23  1  0  0  0  0
  9 13  2  0  0  0  0
  9 22  1  0  0  0  0
 10 26  2  0  0  0  0
 11 27  1  0  0  0  0
 12 27  2  0  0  0  0
 13 28  1  0  0  0  0
 14 15  2  0  0  0  0
 14 29  1  0  0  0  0
 15 30  1  0  0  0  0
 16 24  1  0  0  0  0
 16 28  2  0  0  0  0
 17 30  2  0  0  0  0
 17 31  1  0  0  0  0
 18 32  1  0  0  0  0
 19 25  2  0  0  0  0
 19 34  1  0  0  0  0
 20 32  1  0  0  0  0
 20 33  2  0  0  0  0
 20 35  1  0  0  0  0
 21 23  2  0  0  0  0
 21 40  1  0  0  0  0
 22 24  2  0  0  0  0
 22 41  1  0  0  0  0
 23 51  1  0  0  0  0
 24 43  1  0  0  0  0
 25 26  1  0  0  0  0
 25 42  1  0  0  0  0
 26 59  1  0  0  0  0
 27 83  1  0  0  0  0
 28 84  1  0  0  0  0
 29 31  2  0  0  0  0
 29 83  1  0  0  0  0
 30 85  1  0  0  0  0
 31 86  1  0  0  0  0
 32 66  2  0  0  0  0
 33 67  1  0  0  0  0
 33 71  1  0  0  0  0
 34 68  1  0  0  0  0
 34 76  2  0  0  0  0
 35 72  1  0  0  0  0
 35 78  2  0  0  0  0
 36 52  1  0  0  0  0
 36 73  1  0  0  0  0
 36 79  2  0  0  0  0
 37 63  1  0  0  0  0
 37 69  1  0  0  0  0
 37 80  2  0  0  0  0
 38 64  1  0  0  0  0
 38 74  1  0  0  0  0
 38 81  2  0  0  0  0
 39 70  1  0  0  0  0
 39 75  1  0  0  0  0
 39 82  2  0  0  0  0
 40 44  1  0  0  0  0
 41 52  1  0  0  0  0
 42 48  1  0  0  0  0
 43 69  1  0  0  0  0
 44 46  1  0  0  0  0
 45 47  1  0  0  0  0
 45 49  1  0  0  0  0
 46 51  1  0  0  0  0
 47 53  1  0  0  0  0
 48 68  1  0  0  0  0
 49 70  1  0  0  0  0
 50 53  1  0  0  0  0
 50 70  1  0  0  0  0
 51 73  1  0  0  0  0
 52 69  1  0  0  0  0
 53 67  1  0  0  0  0
 54 64  1  0  0  0  0
 55 65  1  0  0  0  0
 56 65  1  0  0  0  0
 57 65  1  0  0  0  0
 58 77  1  0  0  0  0
 59 75  1  0  0  0  0
 60 61  1  0  0  0  0
 60 62  1  0  0  0  0
 61 68  1  0  0  0  0
 62 84  1  0  0  0  0
 63 65  1  0  0  0  0
 63 74  1  0  0  0  0
 64 77  1  0  0  0  0
 66 67  1  0  0  0  0
M  CHG  2  76   1  77   1
M  ISO  4  39 100  62 101  75 100  84 101
M  END
> <Batch ID>
0005

> <Smiles>
CNC(C)C(=O)NC(C(=O)N1Cc2cc([101O:1][101CH2:1]CCN3CCc4c(C[100NH:0][100C:0](=O)N5CCCC(n6nc(-c7ccc(Oc8ccc(F)cc8F)cc7)c(C(N)=O)c6N)C5)cccc4C3=N)ccc2CC1C(=O)NC1CCCc2ccccc21)C(C)(C)C

> <Shape>
0.235

> <Color>
0.068

> <Negative vol penalty>
0.000

$$$$

  -OEChem-04042320263D

102112  0     1  0  0  0  0  0999 V2000
  -27.2152  -37.6056   19.4854 C   0  0  0  0  0  0  0  0  0  0  0  0
  -27.6867  -36.3217   19.2310 C   0  0  0  0  0  0  0  0  0  0  0  0
  -23.2608  -16.0952   21.9136 C   0  0  0  0  0  0  0  0  0  0  0  0
  -22.5964  -15.5309   19.6604 C   0  0  0  0  0  0  0  0  0  0  0  0
  -26.4786  -37.8601   20.6416 C   0  0  0  0  0  0  0  0  0  0  0  0
  -27.4229  -35.2918   20.1332 C   0  0  0  0  0  0  0  0  0  0  0  0
  -26.4009  -29.4023   18.8009 C   0  0  0  0  0  0  0  0  0  0  0  0
  -26.5772  -15.8761   15.1631 C   0  0  0  0  0  0  0  0  0  0  0  0
  -26.7593  -16.8775   16.1226 C   0  0  0  0  0  0  0  0  0  0  0  0
  -22.2884  -17.0945   21.9502 C   0  0  0  0  0  0  0  0  0  0  0  0
  -21.6239  -16.5302   19.6969 C   0  0  0  0  0  0  0  0  0  0  0  0
  -27.2265  -28.2789   18.8217 C   0  0  0  0  0  0  0  0  0  0  0  0
  -21.9130  -20.2477   20.7924 C   0  0  0  0  0  0  0  0  0  0  0  0
  -22.2806  -21.4902   21.3088 C   0  0  0  0  0  0  0  0  0  0  0  0
  -27.7168  -18.3626   14.4578 C   0  0  0  0  0  0  0  0  0  0  0  0
  -26.4167  -27.7322   21.0273 C   0  0  0  0  0  0  0  0  0  0  0  0
  -33.0093  -20.7602   18.8866 C   0  0  0  0  0  0  0  0  0  0  0  0
  -30.6635  -20.2962   18.5420 C   0  0  0  0  0  0  0  0  0  0  0  0
  -31.4988  -22.5492   18.2906 C   0  0  0  0  0  0  0  0  0  0  0  0
  -20.5902  -21.2782   23.0219 C   0  0  0  0  0  0  0  0  0  0  0  0
  -23.4149  -15.3134   20.7687 C   0  0  0  0  0  0  0  0  0  0  0  0
  -24.2700  -12.9346   21.1114 C   0  0  0  0  0  0  0  0  0  0  0  0
  -26.1974  -36.8307   21.5536 C   0  0  0  0  0  0  0  0  0  0  0  0
  -25.5838  -29.7055   19.8994 C   0  0  0  0  0  0  0  0  0  0  0  0
  -26.6830  -35.5330   21.3033 C   0  0  0  0  0  0  0  0  0  0  0  0
  -27.5215  -17.3642   13.5186 C   0  0  0  0  0  0  0  0  0  0  0  0
  -25.5798  -28.8585   21.0169 C   0  0  0  0  0  0  0  0  0  0  0  0
  -31.9489  -19.8546   18.8555 C   0  0  0  0  0  0  0  0  0  0  0  0
  -32.7842  -22.1075   18.6042 C   0  0  0  0  0  0  0  0  0  0  0  0
  -26.9603  -16.1253   13.8543 C   0  0  0  0  0  0  0  0  0  0  0  0
  -27.3255  -18.1119   15.7723 C   0  0  0  0  0  0  0  0  0  0  0  0
  -30.4384  -21.6435   18.2595 C   0  0  0  0  0  0  0  0  0  0  0  0
  -21.4699  -17.3120   20.8418 C   0  0  0  0  0  0  0  0  0  0  0  0
  -27.2366  -27.4453   19.9362 C   0  0  0  0  0  0  0  0  0  0  0  0
  -20.8839  -19.5205   21.3906 C   0  0  0  0  0  0  0  0  0  0  0  0
  -21.6192  -22.0054   22.4236 C   0  0  0  0  0  0  0  0  0  0  0  0
  -20.2226  -20.0358   22.5054 C   0  0  0  0  0  0  0  0  0  0  0  0
  -24.4197  -14.2814   20.7302 C   0  0  0  0  0  0  0  0  0  0  0  0
  -25.5040  -12.3749   20.8868 C   0  0  0  0  0  0  0  0  0  0  0  0
  -23.1183  -12.2505   21.6228 C   0  0  0  0  0  0  0  0  0  0  0  0
  -25.3768  -32.1354   21.9381 C   0  0  0  0  0  0  0  0  0  0  0  0
  -22.7539  -30.5335   22.9758 C   0  0  0  0  0  0  0  0  0  0  0  0
  -28.0353  -20.3844   16.5948 C   0  0  0  0  0  0  0  0  0  0  0  0
  -21.0920  -27.5653   23.2496 C   0  0  0  0  0  0  0  0  0  0  0  0
  -29.9395  -12.6749   17.1785 C   0  0  0  0  0  0  0  0  0  0  0  0
  -25.4377  -37.1642   22.8131 C   0  0  0  0  0  0  0  0  0  0  0  0
  -24.6792  -30.9062   19.8504 C   0  0  0  0  0  0  0  0  0  0  0  0
  -27.8799  -17.3711   12.0675 C   0  0  0  0  0  0  0  0  0  0  0  0
  -24.7061  -29.1287   22.2136 C   0  0  0  0  0  0  0  0  0  0  0  0
  -24.8819  -35.9376   23.5320 C   0  0  0  0  0  0  0  0  0  0  0  0
  -30.0978  -14.1413   20.4191 C   0  0  0  0  0  0  0  0  0  0  0  0
  -25.9475  -34.8511   23.6357 C   0  0  0  0  0  0  0  0  0  0  0  0
  -28.6358  -14.2017   20.8651 C   0  0  0  0  0  0  0  0  0  0  0  0
  -27.1485  -16.1073   11.5715 C   0  0  0  0  0  0  0  0  0  0  0  0
  -30.2428  -14.4079   18.9224 C   0  0  0  0  0  0  0  0  0  0  0  0
  -27.9484  -13.6115   18.5033 C   0  0  0  0  0  0  0  0  0  0  0  0
  -26.3963  -34.3841   22.2457 C   0  0  1  0  0  0  0  0  0  0  0  0
  -24.2700  -31.4029   21.2337 C   0  0  1  0  0  0  0  0  0  0  0  0
  -27.7461  -13.2938   19.9948 C   0  0  2  0  0  0  0  0  0  0  0  0
  -32.1895  -18.4140   19.1576 C   0  0  0  0  0  0  0  0  0  0  0  0
  -33.9181  -23.0758   18.6374 C   0  0  0  0  0  0  0  0  0  0  0  0
  -18.9884  -26.5643   24.1825 C   0  0  0  0  0  0  0  0  0  0  0  0
  -23.9420  -30.6594   25.7834 C   0  0  0  0  0  0  0  0  0  0  0  0
  -22.3289  -28.8723   26.4707 C   0  0  0  0  0  0  0  0  0  0  0  0
  -21.4788  -31.0778   25.6732 C   0  0  0  0  0  0  0  0  0  0  0  0
  -20.1764  -26.7030   20.5707 C   0  0  0  0  0  0  0  0  0  0  0  0
  -28.0339  -21.1359   17.9120 C   0  0  0  0  0  0  0  0  0  0  0  0
  -28.1205  -12.6335   12.2394 C   0  0  0  0  0  0  0  0  0  0  0  0
  -28.0809  -12.0096   13.6367 C   0  0  0  0  0  0  0  0  0  0  0  0
  -26.7208  -13.0522   11.7785 C   0  0  0  0  0  0  0  0  0  0  0  0
  -29.4744  -11.5532   14.0797 C   0  0  0  0  0  0  0  0  0  0  0  0
  -28.5772  -24.2410   18.9440 C   0  0  0  0  0  0  0  0  0  0  0  0
  -26.0841  -14.0898   12.6992 C   0  0  0  0  0  0  0  0  0  0  0  0
  -29.4777  -10.9319   15.4732 C   0  0  0  0  0  0  0  0  0  0  0  0
  -28.8755  -23.4761   17.6602 C   0  0  0  0  0  0  0  0  0  0  0  0
  -28.3275  -25.7259   18.7076 C   0  0  0  0  0  0  0  0  0  1  0  0
  -22.4933  -29.4657   24.0107 C   0  0  1  0  0  0  0  0  0  0  0  0
  -19.6496  -27.1884   22.9635 C   0  0  2  0  0  0  0  0  0  0  0  0
  -22.5788  -30.0145   25.4629 C   0  0  0  0  0  0  0  0  0  0  0  0
  -25.6517  -14.5606   20.2964 N   0  0  0  0  0  0  0  0  0  0  0  0
  -26.2874  -13.3815   20.4038 N   0  0  0  0  0  0  0  0  0  0  0  0
  -26.8850  -15.2864   12.7515 N   0  0  2  0  0  0  0  0  0  0  0  0
  -23.8438  -30.3183   22.1204 N   0  0  0  0  0  0  0  0  0  0  0  0
  -29.3742  -13.5131   18.1537 N   0  0  0  0  0  0  0  0  0  0  0  0
  -25.9846  -11.1250   21.0573 N   0  0  0  0  0  0  0  0  0  0  0  0
  -21.9310  -12.9755   21.7921 N   0  0  0  0  0  0  0  0  0  0  0  0
  -27.4962  -19.1112   16.7598 N   0  0  0  0  0  0  0  0  0  0  0  0
  -25.4136  -33.4907   21.6709 N   0  0  0  0  0  0  0  0  0  0  0  0
  -21.2041  -28.8736   23.6706 N   0  0  0  0  0  0  0  0  0  0  0  0
  -29.0468  -11.8540   16.5003 N   0  0  0  0  0  0  0  0  0  0  0  0
  -29.1462  -22.0875   17.9443 N   0  0  3  0  0  0  0  0  0  0  0  0
  -19.5827  -26.2110   21.8405 N   0  3  0  0  0  0  0  0  0  0  0  0
  -23.1462  -11.0362   21.9362 O   0  0  0  0  0  0  0  0  0  0  0  0
  -26.1398  -31.5172   22.6710 O   0  0  0  0  0  0  0  0  0  0  0  0
  -22.0133  -31.5185   22.9235 O   0  0  0  0  0  0  0  0  0  0  0  0
  -28.4562  -20.8851   15.5568 O   0  0  0  0  0  0  0  0  0  0  0  0
  -22.0254  -26.7769   23.1169 O   0  0  0  0  0  0  0  0  0  0  0  0
  -31.1506  -12.6555   16.9343 O   0  0  0  0  0  0  0  0  0  0  0  0
  -20.5206  -18.2868   20.8772 O   0  0  0  0  0  0  0  0  0  0  0  0
  -28.0419  -26.3486   19.9594 O   0  0  0  0  0  0  0  0  0  1  0  0
  -21.9734  -23.1979   22.9203 F   0  0  0  0  0  0  0  0  0  0  0  0
  -19.2340  -19.3412   23.0852 F   0  0  0  0  0  0  0  0  0  0  0  0
  1  2  1  0  0  0  0
  1  5  2  0  0  0  0
  2  6  2  0  0  0  0
  3 10  2  0  0  0  0
  3 21  1  0  0  0  0
  4 11  1  0  0  0  0
  4 21  2  0  0  0  0
  5 23  1  0  0  0  0
  6 25  1  0  0  0  0
  7 12  2  0  0  0  0
  7 24  1  0  0  0  0
  8  9  2  0  0  0  0
  8 30  1  0  0  0  0
  9 31  1  0  0  0  0
 10 33  1  0  0  0  0
 11 33  2  0  0  0  0
 12 34  1  0  0  0  0
 13 14  2  0  0  0  0
 13 35  1  0  0  0  0
 14 36  1  0  0  0  0
 15 26  1  0  0  0  0
 15 31  2  0  0  0  0
 16 27  1  0  0  0  0
 16 34  2  0  0  0  0
 17 28  1  0  0  0  0
 17 29  2  0  0  0  0
 18 28  2  0  0  0  0
 18 32  1  0  0  0  0
 19 29  1  0  0  0  0
 19 32  2  0  0  0  0
 20 36  2  0  0  0  0
 20 37  1  0  0  0  0
 21 38  1  0  0  0  0
 22 38  1  0  0  0  0
 22 39  2  0  0  0  0
 22 40  1  0  0  0  0
 23 25  2  0  0  0  0
 23 46  1  0  0  0  0
 24 27  2  0  0  0  0
 24 47  1  0  0  0  0
 25 57  1  0  0  0  0
 26 30  2  0  0  0  0
 26 48  1  0  0  0  0
 27 49  1  0  0  0  0
 28 60  1  0  0  0  0
 29 61  1  0  0  0  0
 30 82  1  0  0  0  0
 31 87  1  0  0  0  0
 32 91  1  0  0  0  0
 33 99  1  0  0  0  0
 34100  1  0  0  0  0
 35 37  2  0  0  0  0
 35 99  1  0  0  0  0
 36101  1  0  0  0  0
 37102  1  0  0  0  0
 38 80  2  0  0  0  0
 39 81  1  0  0  0  0
 39 85  1  0  0  0  0
 40 86  1  0  0  0  0
 40 93  2  0  0  0  0
 41 58  1  0  0  0  0
 41 88  1  0  0  0  0
 41 94  2  0  0  0  0
 42 77  1  0  0  0  0
 42 83  1  0  0  0  0
 42 95  2  0  0  0  0
 43 67  1  0  0  0  0
 43 87  1  0  0  0  0
 43 96  2  0  0  0  0
 44 78  1  0  0  0  0
 44 89  1  0  0  0  0
 44 97  2  0  0  0  0
 45 84  1  0  0  0  0
 45 90  1  0  0  0  0
 45 98  2  0  0  0  0
 46 50  1  0  0  0  0
 47 58  1  0  0  0  0
 48 54  1  0  0  0  0
 49 83  1  0  0  0  0
 50 52  1  0  0  0  0
 51 53  1  0  0  0  0
 51 55  1  0  0  0  0
 52 57  1  0  0  0  0
 53 59  1  0  0  0  0
 54 82  1  0  0  0  0
 55 84  1  0  0  0  0
 56 59  1  0  0  0  0
 56 84  1  0  0  0  0
 57 88  1  0  0  0  0
 58 83  1  0  0  0  0
 59 81  1  0  0  0  0
 62 78  1  0  0  0  0
 63 79  1  0  0  0  0
 64 79  1  0  0  0  0
 65 79  1  0  0  0  0
 66 92  1  0  0  0  0
 67 91  1  0  0  0  0
 68 69  1  0  0  0  0
 68 70  1  0  0  0  0
 69 71  1  0  0  0  0
 70 73  1  0  0  0  0
 71 74  1  0  0  0  0
 72 75  1  0  0  0  0
 72 76  1  0  0  0  0
 73 82  1  0  0  0  0
 74 90  1  0  0  0  0
 75 91  1  0  0  0  0
 76100  1  0  0  0  0
 77 79  1  0  0  0  0
 77 89  1  0  0  0  0
 78 92  1  0  0  0  0
 80 81  1  0  0  0  0
M  CHG  1  92   1
M  ISO  4  45 100  76 101  90 100 100 101
M  END
> <Batch ID>
0005

> <Smiles>
CNC(C)C(=O)NC(C(=O)N1Cc2cc([101O:1][101CH2:1]CCN(CC(=O)Nc3ccc4c(c3)CCN4CCCCCC[100NH:0][100C:0](=O)N3CCCC(n4nc(-c5ccc(Oc6ccc(F)cc6F)cc5)c(C(N)=O)c4N)C3)c3cc(C)cc(C)c3)ccc2CC1C(=O)NC1CCCc2ccccc21)C(C)(C)C

> <Shape>
0.242

> <Color>
0.104

> <Negative vol penalty>
0.000

$$$$

  -OEChem-04042320263D

 85 94  0     1  0  0  0  0  0999 V2000
  -25.5850  -31.4076   23.2289 C   0  0  0  0  0  0  0  0  0  0  0  0
  -25.5806  -30.1889   23.8999 C   0  0  0  0  0  0  0  0  0  0  0  0
  -32.5998  -16.8830   23.4537 C   0  0  0  0  0  0  0  0  0  0  0  0
  -23.5695   -9.5766   20.8622 C   0  0  0  0  0  0  0  0  0  0  0  0
  -24.1163  -10.3158   23.0964 C   0  0  0  0  0  0  0  0  0  0  0  0
  -25.8078  -31.4438   21.8531 C   0  0  0  0  0  0  0  0  0  0  0  0
  -25.7979  -29.0055   23.1950 C   0  0  0  0  0  0  0  0  0  0  0  0
  -28.7209  -24.0108   25.1988 C   0  0  0  0  0  0  0  0  0  0  0  0
  -32.1607  -17.0007   24.7724 C   0  0  0  0  0  0  0  0  0  0  0  0
  -32.1246  -15.8464   22.6503 C   0  0  0  0  0  0  0  0  0  0  0  0
  -22.9741   -8.4298   21.3873 C   0  0  0  0  0  0  0  0  0  0  0  0
  -23.5209   -9.1690   23.6216 C   0  0  0  0  0  0  0  0  0  0  0  0
  -28.2629  -22.8038   25.7251 C   0  0  0  0  0  0  0  0  0  0  0  0
  -22.4638   -6.2629   25.5313 C   0  0  0  0  0  0  0  0  0  0  0  0
  -23.1483   -5.5790   26.5359 C   0  0  0  0  0  0  0  0  0  0  0  0
  -28.4213  -21.7972   23.5385 C   0  0  0  0  0  0  0  0  0  0  0  0
  -25.0037   -5.2236   25.0297 C   0  0  0  0  0  0  0  0  0  0  0  0
  -24.1407  -10.5197   21.7167 C   0  0  0  0  0  0  0  0  0  0  0  0
  -24.1374  -12.9421   20.9170 C   0  0  0  0  0  0  0  0  0  0  0  0
  -26.0375  -30.2611   21.1326 C   0  0  0  0  0  0  0  0  0  0  0  0
  -29.0228  -24.1233   23.8340 C   0  0  0  0  0  0  0  0  0  0  0  0
  -26.0226  -29.0258   21.8080 C   0  0  0  0  0  0  0  0  0  0  0  0
  -28.8855  -23.0061   22.9979 C   0  0  0  0  0  0  0  0  0  0  0  0
  -31.2466  -16.0818   25.2878 C   0  0  0  0  0  0  0  0  0  0  0  0
  -30.7714  -15.0452   24.4844 C   0  0  0  0  0  0  0  0  0  0  0  0
  -31.2105  -14.9275   23.1656 C   0  0  0  0  0  0  0  0  0  0  0  0
  -22.9497   -8.2260   22.7670 C   0  0  0  0  0  0  0  0  0  0  0  0
  -28.1102  -21.6975   24.8944 C   0  0  0  0  0  0  0  0  0  0  0  0
  -23.0491   -6.4272   24.2759 C   0  0  0  0  0  0  0  0  0  0  0  0
  -24.4183   -5.0594   26.2851 C   0  0  0  0  0  0  0  0  0  0  0  0
  -24.3191   -5.9076   24.0251 C   0  0  0  0  0  0  0  0  0  0  0  0
  -24.7564  -11.7043   21.1748 C   0  0  0  0  0  0  0  0  0  0  0  0
  -25.1424  -13.7299   20.4113 C   0  0  0  0  0  0  0  0  0  0  0  0
  -22.7757  -13.3439   21.1169 C   0  0  0  0  0  0  0  0  0  0  0  0
  -27.9003  -25.8666   21.4247 C   0  0  0  0  0  0  0  0  0  0  0  0
  -30.3648  -24.5117   19.8083 C   0  0  0  0  0  0  0  0  0  0  0  0
  -32.5694  -21.9218   19.5264 C   0  0  0  0  0  0  0  0  0  0  0  0
  -31.0878  -13.6417   21.0028 C   0  0  0  0  0  0  0  0  0  0  0  0
  -26.2266  -30.3462   19.6387 C   0  0  0  0  0  0  0  0  0  0  0  0
  -29.5413  -25.4250   23.2870 C   0  0  0  0  0  0  0  0  0  0  0  0
  -29.2153  -23.0691   21.5297 C   0  0  0  0  0  0  0  0  0  0  0  0
  -26.8208  -29.0802   19.0269 C   0  0  0  0  0  0  0  0  0  0  0  0
  -29.2474  -13.4487   17.9609 C   0  0  0  0  0  0  0  0  0  0  0  0
  -26.1081  -27.8428   19.5633 C   0  0  0  0  0  0  0  0  0  0  0  0
  -27.8292  -13.0981   18.4169 C   0  0  0  0  0  0  0  0  0  0  0  0
  -28.4257  -18.3350   28.3813 C   0  0  0  0  0  0  0  0  0  0  0  0
  -30.3060  -12.7554   18.8169 C   0  0  0  0  0  0  0  0  0  0  0  0
  -28.7484  -12.6108   20.7201 C   0  0  0  0  0  0  0  0  0  0  0  0
  -28.8950  -16.8952   28.2504 C   0  0  0  0  0  0  0  0  0  0  0  0
  -29.2162  -18.1210   26.1604 C   0  0  0  0  0  0  0  0  0  0  0  0
  -26.2790  -27.7228   21.0824 C   0  0  1  0  0  0  0  0  0  0  0  0
  -29.3286  -25.5682   21.7831 C   0  0  1  0  0  0  0  0  0  0  0  0
  -28.0803  -18.7415   26.9555 C   0  0  2  0  0  0  0  0  0  0  0  0
  -27.6482  -13.3367   19.9288 C   0  0  2  0  0  0  0  0  0  0  0  0
  -29.7905  -14.0618   25.0417 C   0  0  0  0  0  0  0  0  0  0  0  0
  -34.4379  -21.0739   18.0818 C   0  0  0  0  0  0  0  0  0  0  0  0
  -28.3359  -23.6229   17.7099 C   0  0  0  0  0  0  0  0  0  0  0  0
  -30.0480  -22.0197   16.8344 C   0  0  0  0  0  0  0  0  0  0  0  0
  -30.4955  -24.4732   16.7785 C   0  0  0  0  0  0  0  0  0  0  0  0
  -34.5042  -22.0327   21.7631 C   0  0  0  0  0  0  0  0  0  0  0  0
  -30.7908  -16.2316   26.7093 C   0  0  0  0  0  0  0  0  0  0  0  0
  -27.9778  -20.2402   26.7691 C   0  0  0  0  0  0  0  0  0  1  0  0
  -30.5458  -23.2542   18.9929 C   0  0  1  0  0  0  0  0  0  0  0  0
  -34.0713  -21.8968   19.3069 C   0  0  2  0  0  0  0  0  0  0  0  0
  -29.8481  -23.3415   17.6062 C   0  0  0  0  0  0  0  0  0  0  0  0
  -26.0542  -11.7010   20.8588 N   0  0  0  0  0  0  0  0  0  0  0  0
  -26.2588  -12.9464   20.3971 N   0  0  0  0  0  0  0  0  0  0  0  0
  -29.7128  -24.3657   21.0410 N   0  0  0  0  0  0  0  0  0  0  0  0
  -30.0733  -13.0298   20.2365 N   0  0  0  0  0  0  0  0  0  0  0  0
  -25.1713  -15.0093   19.9817 N   0  0  0  0  0  0  0  0  0  0  0  0
  -21.8743  -12.4100   21.6457 N   0  0  0  0  0  0  0  0  0  0  0  0
  -30.7406  -13.8829   22.3316 N   0  0  0  0  0  0  0  0  0  0  0  0
  -27.5952  -27.2142   21.4043 N   0  0  0  0  0  0  0  0  0  0  0  0
  -31.9834  -23.0154   18.9246 N   0  0  0  0  0  0  0  0  0  0  0  0
  -29.4029  -16.7743   26.8254 N   0  3  1  0  0  0  0  0  0  0  0  0
  -34.7581  -21.3081   20.4913 N   0  3  0  0  0  0  0  0  0  0  0  0
  -22.3665  -14.4918   20.8196 O   0  0  0  0  0  0  0  0  0  0  0  0
  -27.1323  -24.9428   21.1830 O   0  0  0  0  0  0  0  0  0  0  0  0
  -30.7928  -25.5828   19.3711 O   0  0  0  0  0  0  0  0  0  0  0  0
  -31.9749  -21.0558   20.1644 O   0  0  0  0  0  0  0  0  0  0  0  0
  -32.1741  -13.9554   20.5091 O   0  0  0  0  0  0  0  0  0  0  0  0
  -22.3686   -7.1071   23.2798 O   0  0  0  0  0  0  0  0  0  0  0  0
  -27.6627  -20.5184   25.4054 O   0  0  0  0  0  0  0  0  0  1  0  0
  -25.0762   -4.4039   27.2504 F   0  0  0  0  0  0  0  0  0  0  0  0
  -24.8871   -6.0632   22.8214 F   0  0  0  0  0  0  0  0  0  0  0  0
  1  2  1  0  0  0  0
  1  6  2  0  0  0  0
  2  7  2  0  0  0  0
  3  9  2  0  0  0  0
  3 10  1  0  0  0  0
  4 11  2  0  0  0  0
  4 18  1  0  0  0  0
  5 12  1  0  0  0  0
  5 18  2  0  0  0  0
  6 20  1  0  0  0  0
  7 22  1  0  0  0  0
  8 13  2  0  0  0  0
  8 21  1  0  0  0  0
  9 24  1  0  0  0  0
 10 26  2  0  0  0  0
 11 27  1  0  0  0  0
 12 27  2  0  0  0  0
 13 28  1  0  0  0  0
 14 15  2  0  0  0  0
 14 29  1  0  0  0  0
 15 30  1  0  0  0  0
 16 23  1  0  0  0  0
 16 28  2  0  0  0  0
 17 30  2  0  0  0  0
 17 31  1  0  0  0  0
 18 32  1  0  0  0  0
 19 32  1  0  0  0  0
 19 33  2  0  0  0  0
 19 34  1  0  0  0  0
 20 22  2  0  0  0  0
 20 39  1  0  0  0  0
 21 23  2  0  0  0  0
 21 40  1  0  0  0  0
 22 51  1  0  0  0  0
 23 41  1  0  0  0  0
 24 25  2  0  0  0  0
 24 61  1  0  0  0  0
 25 26  1  0  0  0  0
 25 55  1  0  0  0  0
 26 72  1  0  0  0  0
 27 82  1  0  0  0  0
 28 83  1  0  0  0  0
 29 31  2  0  0  0  0
 29 82  1  0  0  0  0
 30 84  1  0  0  0  0
 31 85  1  0  0  0  0
 32 66  2  0  0  0  0
 33 67  1  0  0  0  0
 33 70  1  0  0  0  0
 34 71  1  0  0  0  0
 34 77  2  0  0  0  0
 35 52  1  0  0  0  0
 35 73  1  0  0  0  0
 35 78  2  0  0  0  0
 36 63  1  0  0  0  0
 36 68  1  0  0  0  0
 36 79  2  0  0  0  0
 37 64  1  0  0  0  0
 37 74  1  0  0  0  0
 37 80  2  0  0  0  0
 38 69  1  0  0  0  0
 38 72  1  0  0  0  0
 38 81  2  0  0  0  0
 39 42  1  0  0  0  0
 40 52  1  0  0  0  0
 41 68  1  0  0  0  0
 42 44  1  0  0  0  0
 43 45  1  0  0  0  0
 43 47  1  0  0  0  0
 44 51  1  0  0  0  0
 45 54  1  0  0  0  0
 46 49  1  0  0  0  0
 46 53  1  0  0  0  0
 47 69  1  0  0  0  0
 48 54  1  0  0  0  0
 48 69  1  0  0  0  0
 49 75  1  0  0  0  0
 50 53  1  0  0  0  0
 50 75  1  0  0  0  0
 51 73  1  0  0  0  0
 52 68  1  0  0  0  0
 53 62  1  0  0  0  0
 54 67  1  0  0  0  0
 56 64  1  0  0  0  0
 57 65  1  0  0  0  0
 58 65  1  0  0  0  0
 59 65  1  0  0  0  0
 60 76  1  0  0  0  0
 61 75  1  0  0  0  0
 62 83  1  0  0  0  0
 63 65  1  0  0  0  0
 63 74  1  0  0  0  0
 64 76  1  0  0  0  0
 66 67  1  0  0  0  0
M  CHG  2  75   1  76   1
M  ISO  4  38 100  62 101  72 100  83 101
M  END
> <Batch ID>
0005

> <Smiles>
CNC(C)C(=O)NC(C(=O)N1Cc2cc([101O:1][101CH2:1]C3CCN(Cc4cccc([100NH:0][100C:0](=O)N5CCCC(n6nc(-c7ccc(Oc8ccc(F)cc8F)cc7)c(C(N)=O)c6N)C5)c4C)C3)ccc2CC1C(=O)NC1CCCc2ccccc21)C(C)(C)C

> <Shape>
0.236

> <Color>
0.167

> <Negative vol penalty>
0.000

$$$$

  -OEChem-04042320263D

115126  0     1  0  0  0  0  0999 V2000
  -29.7966  -17.9175   19.2445 C   0  0  0  0  0  0  0  0  0  0  0  0
  -28.9587  -18.7538   19.9752 C   0  0  0  0  0  0  0  0  0  0  0  0
  -23.0378   -9.9781   19.8954 C   0  0  0  0  0  0  0  0  0  0  0  0
  -23.8767   -9.8292   22.1562 C   0  0  0  0  0  0  0  0  0  0  0  0
  -32.6803  -33.5289   22.2140 C   0  0  0  0  0  0  0  0  0  0  0  0
  -30.7967  -18.4637   18.4411 C   0  0  0  0  0  0  0  0  0  0  0  0
  -29.1212  -20.1369   19.9038 C   0  0  0  0  0  0  0  0  0  0  0  0
  -25.3459  -26.2207   20.1300 C   0  0  0  0  0  0  0  0  0  0  0  0
  -32.4785  -18.5014   22.1682 C   0  0  0  0  0  0  0  0  0  0  0  0
  -31.3848  -33.0596   22.4310 C   0  0  0  0  0  0  0  0  0  0  0  0
  -31.9538  -17.2790   21.6954 C   0  0  0  0  0  0  0  0  0  0  0  0
  -22.2915   -8.8169   20.0958 C   0  0  0  0  0  0  0  0  0  0  0  0
  -23.1303   -8.6680   22.3566 C   0  0  0  0  0  0  0  0  0  0  0  0
  -25.3179  -27.4468   20.7929 C   0  0  0  0  0  0  0  0  0  0  0  0
  -19.9171   -7.8575   23.0191 C   0  0  0  0  0  0  0  0  0  0  0  0
  -19.2008   -7.7470   24.2109 C   0  0  0  0  0  0  0  0  0  0  0  0
  -33.4317  -31.2684   21.8110 C   0  0  0  0  0  0  0  0  0  0  0  0
  -27.0284  -28.2806   19.3103 C   0  0  0  0  0  0  0  0  0  0  0  0
  -20.4474   -5.7560   24.7755 C   0  0  0  0  0  0  0  0  0  0  0  0
  -23.8305  -10.4842   20.9255 C   0  0  0  0  0  0  0  0  0  0  0  0
  -33.7038  -32.6333   21.9040 C   0  0  0  0  0  0  0  0  0  0  0  0
  -24.1933  -13.0091   20.9581 C   0  0  0  0  0  0  0  0  0  0  0  0
  -30.9653  -19.8545   18.3524 C   0  0  0  0  0  0  0  0  0  0  0  0
  -26.2246  -26.0113   19.0574 C   0  0  0  0  0  0  0  0  0  0  0  0
  -30.1254  -20.7022   19.0996 C   0  0  0  0  0  0  0  0  0  0  0  0
  -27.0638  -27.0517   18.6338 C   0  0  0  0  0  0  0  0  0  0  0  0
  -30.5338  -18.8006   23.4641 C   0  0  0  0  0  0  0  0  0  0  0  0
  -29.9670  -17.6308   22.9496 C   0  0  0  0  0  0  0  0  0  0  0  0
  -32.1362  -30.7991   22.0280 C   0  0  0  0  0  0  0  0  0  0  0  0
  -31.7601  -19.3148   23.0556 C   0  0  0  0  0  0  0  0  0  0  0  0
  -30.6821  -16.8424   22.0743 C   0  0  0  0  0  0  0  0  0  0  0  0
  -31.1128  -31.6947   22.3380 C   0  0  0  0  0  0  0  0  0  0  0  0
  -22.3378   -8.1618   21.3264 C   0  0  0  0  0  0  0  0  0  0  0  0
  -26.1613  -28.4761   20.3849 C   0  0  0  0  0  0  0  0  0  0  0  0
  -20.8986   -6.9172   22.7055 C   0  0  0  0  0  0  0  0  0  0  0  0
  -19.4660   -6.6962   25.0891 C   0  0  0  0  0  0  0  0  0  0  0  0
  -21.1638   -5.8665   23.5837 C   0  0  0  0  0  0  0  0  0  0  0  0
  -24.6021  -11.6834   20.7189 C   0  0  0  0  0  0  0  0  0  0  0  0
  -25.2797  -13.7722   20.6062 C   0  0  0  0  0  0  0  0  0  0  0  0
  -35.0834  -33.1337   21.6729 C   0  0  0  0  0  0  0  0  0  0  0  0
  -22.9433  -13.5063   21.4542 C   0  0  0  0  0  0  0  0  0  0  0  0
  -28.6530  -24.0376   18.4995 C   0  0  0  0  0  0  0  0  0  0  0  0
  -28.5354  -25.3554   15.5378 C   0  0  0  0  0  0  0  0  0  0  0  0
  -27.6357  -27.9997   13.5769 C   0  0  0  0  0  0  0  0  0  0  0  0
  -30.7589  -14.7617   20.6561 C   0  0  0  0  0  0  0  0  0  0  0  0
  -32.0908  -20.3968   17.5074 C   0  0  0  0  0  0  0  0  0  0  0  0
  -26.2237  -24.6916   18.3357 C   0  0  0  0  0  0  0  0  0  0  0  0
  -28.5740  -17.4552   23.4698 C   0  0  0  0  0  0  0  0  0  0  0  0
  -28.0112  -26.8844   17.4749 C   0  0  0  0  0  0  0  0  0  0  0  0
  -31.9556  -21.8850   17.1954 C   0  0  0  0  0  0  0  0  0  0  0  0
  -28.2626  -18.8891   23.9669 C   0  0  0  0  0  0  0  0  0  0  0  0
  -29.5390  -12.5167   18.1765 C   0  0  0  0  0  0  0  0  0  0  0  0
  -31.6020  -22.6651   18.4576 C   0  0  0  0  0  0  0  0  0  0  0  0
  -28.1122  -12.2088   18.6366 C   0  0  0  0  0  0  0  0  0  0  0  0
  -29.7859  -20.9824   24.2456 C   0  0  0  0  0  0  0  0  0  0  0  0
  -30.4974  -12.6593   19.3575 C   0  0  0  0  0  0  0  0  0  0  0  0
  -31.2705  -21.3864   24.3380 C   0  0  0  0  0  0  0  0  0  0  0  0
  -28.6467  -13.3067   20.8493 C   0  0  0  0  0  0  0  0  0  0  0  0
  -30.2543  -22.2083   19.0291 C   0  0  1  0  0  0  0  0  0  0  0  0
  -27.5238  -24.4202   17.5851 C   0  0  1  0  0  0  0  0  0  0  0  0
  -27.6320  -13.2184   19.6976 C   0  0  2  0  0  0  0  0  0  0  0  0
  -29.6123  -19.4744   24.4421 C   0  0  2  0  0  0  0  0  0  0  0  0
  -31.8727  -29.3321   21.9220 C   0  0  0  0  0  0  0  0  0  0  0  0
  -29.0044  -19.7078   26.8555 C   0  0  0  0  0  0  0  0  0  0  0  0
  -27.7032  -28.8027   11.2004 C   0  0  0  0  0  0  0  0  0  0  0  0
  -31.5041  -25.9921   15.8398 C   0  0  0  0  0  0  0  0  0  0  0  0
  -31.2859  -27.5867   13.9220 C   0  0  0  0  0  0  0  0  0  0  0  0
  -30.8413  -25.1564   13.5778 C   0  0  0  0  0  0  0  0  0  0  0  0
  -24.6839  -28.1451   13.4202 C   0  0  0  0  0  0  0  0  0  0  0  0
  -40.3650  -25.9123   18.8674 C   0  0  0  0  0  0  0  0  0  0  0  0
  -29.9170  -19.0407   25.8852 C   0  0  0  0  0  0  0  0  0  0  0  0
  -34.8842  -22.9237   20.0498 C   0  0  0  0  0  0  0  0  0  0  0  0
  -36.2391  -23.5540   19.7196 C   0  0  0  0  0  0  0  0  0  0  0  0
  -34.8945  -22.2763   21.4363 C   0  0  0  0  0  0  0  0  0  0  0  0
  -37.8893  -30.7960   20.0251 C   0  0  0  0  0  0  0  0  0  0  0  0
  -36.2141  -24.2335   18.3486 C   0  0  0  0  0  0  0  0  0  0  0  0
  -38.3711  -30.5373   18.5957 C   0  0  0  0  0  0  0  0  0  0  0  0
  -33.5258  -21.6811   21.7812 C   0  0  0  0  0  0  0  0  0  0  0  0
  -38.0259  -32.2769   20.3945 C   0  0  0  0  0  0  0  0  0  0  0  0
  -37.5260  -24.9408   17.9980 C   0  0  0  0  0  0  0  0  0  0  0  0
  -38.3425  -29.0565   18.2005 C   0  0  0  0  0  0  0  0  0  0  0  0
  -27.3762  -31.2712   22.3298 C   0  0  0  0  0  0  0  0  0  0  0  0
  -33.4807  -21.0834   23.1848 C   0  0  0  0  0  0  0  0  0  0  0  0
  -37.4996  -32.5831   21.7929 C   0  0  0  0  0  0  0  0  0  0  0  0
  -28.6529  -32.0916   22.4692 C   0  0  0  0  0  0  0  0  0  0  0  0
  -37.8812  -26.0553   18.9721 C   0  0  0  0  0  0  0  0  0  0  0  0
  -39.2504  -28.1349   19.0061 C   0  0  0  0  0  0  0  0  0  0  0  0
  -27.3516  -30.4189   21.0664 C   0  0  0  0  0  0  0  0  0  1  0  0
  -29.1760  -26.5498   14.8729 C   0  0  1  0  0  0  0  0  0  0  0  0
  -26.8919  -28.0666   12.2553 C   0  0  2  0  0  0  0  0  0  0  0  0
  -30.6855  -26.3241   14.5762 C   0  0  0  0  0  0  0  0  0  0  0  0
  -25.8507  -11.6053   20.2511 N   0  0  0  0  0  0  0  0  0  0  0  0
  -26.2358  -12.8916   20.1934 N   0  0  0  0  0  0  0  0  0  0  0  0
  -32.1535  -20.5717   23.4851 N   0  0  3  0  0  0  0  0  0  0  0  0
  -27.9777  -25.5736   16.8055 N   0  0  0  0  0  0  0  0  0  0  0  0
  -29.9795  -13.6349   20.3193 N   0  0  0  0  0  0  0  0  0  0  0  0
  -25.5008  -15.1040   20.6126 N   0  0  0  0  0  0  0  0  0  0  0  0
  -21.9346  -12.5849   21.7670 N   0  0  0  0  0  0  0  0  0  0  0  0
  -30.1495  -15.6363   21.5553 N   0  0  0  0  0  0  0  0  0  0  0  0
  -29.7953  -31.2377   22.5609 N   0  0  0  0  0  0  0  0  0  0  0  0
  -36.1129  -32.2392   21.9437 N   0  0  0  0  0  0  0  0  0  0  0  0
  -29.1633  -22.7749   18.2654 N   0  0  0  0  0  0  0  0  0  0  0  0
  -28.3715  -26.8391   13.6908 N   0  0  0  0  0  0  0  0  0  0  0  0
  -25.5921  -28.7750   12.4276 N   0  3  0  0  0  0  0  0  0  0  0  0
  -39.1331  -26.7113   18.5197 N   0  3  1  0  0  0  0  0  0  0  0  0
  -35.2459  -34.2875   21.2844 O   0  0  0  0  0  0  0  0  0  0  0  0
  -22.7215  -14.7323   21.5998 O   0  0  0  0  0  0  0  0  0  0  0  0
  -29.0340  -24.8298   19.3532 O   0  0  0  0  0  0  0  0  0  0  0  0
  -28.5238  -24.2705   14.9508 O   0  0  0  0  0  0  0  0  0  0  0  0
  -27.5733  -28.8898   14.4221 O   0  0  0  0  0  0  0  0  0  0  0  0
  -31.8727  -14.9519   20.1610 O   0  0  0  0  0  0  0  0  0  0  0  0
  -21.6094   -7.0288   21.5224 O   0  0  0  0  0  0  0  0  0  0  0  0
  -26.1362  -29.6823   21.0352 O   0  0  0  0  0  0  0  0  0  1  0  0
  -18.7790   -6.5911   26.2342 F   0  0  0  0  0  0  0  0  0  0  0  0
  -22.1063   -4.9608   23.2885 F   0  0  0  0  0  0  0  0  0  0  0  0
  1  2  1  0  0  0  0
  1  6  2  0  0  0  0
  2  7  2  0  0  0  0
  3 12  2  0  0  0  0
  3 20  1  0  0  0  0
  4 13  1  0  0  0  0
  4 20  2  0  0  0  0
  5 10  2  0  0  0  0
  5 21  1  0  0  0  0
  6 23  1  0  0  0  0
  7 25  1  0  0  0  0
  8 14  2  0  0  0  0
  8 24  1  0  0  0  0
  9 11  1  0  0  0  0
  9 30  2  0  0  0  0
 10 32  1  0  0  0  0
 11 31  2  0  0  0  0
 12 33  1  0  0  0  0
 13 33  2  0  0  0  0
 14 34  1  0  0  0  0
 15 16  2  0  0  0  0
 15 35  1  0  0  0  0
 16 36  1  0  0  0  0
 17 21  2  0  0  0  0
 17 29  1  0  0  0  0
 18 26  1  0  0  0  0
 18 34  2  0  0  0  0
 19 36  2  0  0  0  0
 19 37  1  0  0  0  0
 20 38  1  0  0  0  0
 21 40  1  0  0  0  0
 22 38  1  0  0  0  0
 22 39  2  0  0  0  0
 22 41  1  0  0  0  0
 23 25  2  0  0  0  0
 23 46  1  0  0  0  0
 24 26  2  0  0  0  0
 24 47  1  0  0  0  0
 25 59  1  0  0  0  0
 26 49  1  0  0  0  0
 27 28  2  0  0  0  0
 27 30  1  0  0  0  0
 27 62  1  0  0  0  0
 28 31  1  0  0  0  0
 28 48  1  0  0  0  0
 29 32  2  0  0  0  0
 29 63  1  0  0  0  0
 30 94  1  0  0  0  0
 31 99  1  0  0  0  0
 32100  1  0  0  0  0
 33112  1  0  0  0  0
 34113  1  0  0  0  0
 35 37  2  0  0  0  0
 35112  1  0  0  0  0
 36114  1  0  0  0  0
 37115  1  0  0  0  0
 38 92  2  0  0  0  0
 39 93  1  0  0  0  0
 39 97  1  0  0  0  0
 40101  1  0  0  0  0
 40106  2  0  0  0  0
 41 98  1  0  0  0  0
 41107  2  0  0  0  0
 42 60  1  0  0  0  0
 42102  1  0  0  0  0
 42108  2  0  0  0  0
 43 89  1  0  0  0  0
 43 95  1  0  0  0  0
 43109  2  0  0  0  0
 44 90  1  0  0  0  0
 44103  1  0  0  0  0
 44110  2  0  0  0  0
 45 96  1  0  0  0  0
 45 99  1  0  0  0  0
 45111  2  0  0  0  0
 46 50  1  0  0  0  0
 47 60  1  0  0  0  0
 48 51  1  0  0  0  0
 49 95  1  0  0  0  0
 50 53  1  0  0  0  0
 51 62  1  0  0  0  0
 52 54  1  0  0  0  0
 52 56  1  0  0  0  0
 53 59  1  0  0  0  0
 54 61  1  0  0  0  0
 55 57  1  0  0  0  0
 55 62  1  0  0  0  0
 56 96  1  0  0  0  0
 57 94  1  0  0  0  0
 58 61  1  0  0  0  0
 58 96  1  0  0  0  0
 59102  1  0  0  0  0
 60 95  1  0  0  0  0
 61 93  1  0  0  0  0
 62 71  1  0  0  0  0
 64 71  1  0  0  0  0
 65 90  1  0  0  0  0
 66 91  1  0  0  0  0
 67 91  1  0  0  0  0
 68 91  1  0  0  0  0
 69104  1  0  0  0  0
 70105  1  0  0  0  0
 72 73  1  0  0  0  0
 72 74  1  0  0  0  0
 73 76  1  0  0  0  0
 74 78  1  0  0  0  0
 75 77  1  0  0  0  0
 75 79  1  0  0  0  0
 76 80  1  0  0  0  0
 77 81  1  0  0  0  0
 78 83  1  0  0  0  0
 79 84  1  0  0  0  0
 80 86  1  0  0  0  0
 81 87  1  0  0  0  0
 82 85  1  0  0  0  0
 82 88  1  0  0  0  0
 83 94  1  0  0  0  0
 84101  1  0  0  0  0
 85100  1  0  0  0  0
 86105  1  0  0  0  0
 87105  1  0  0  0  0
 88113  1  0  0  0  0
 89 91  1  0  0  0  0
 89103  1  0  0  0  0
 90104  1  0  0  0  0
 92 93  1  0  0  0  0
M  CHG  2 104   1 105   1
M  ISO  4  45 100  88 101  99 100 113 101
M  END
> <Batch ID>
0005

> <Smiles>
CCC12CCc3c([100NH:0][100C:0](=O)N4CCCC(n5nc(-c6ccc(Oc7ccc(F)cc7F)cc6)c(C(N)=O)c5N)C4)ccc(c31)N(CCCCCCCCN(C)CCCCCCNC(=O)c1ccc(NCC[101CH2:1][101O:1]c3ccc4c(c3)CN(C(=O)C(NC(=O)C(C)NC)C(C)(C)C)C(C(=O)NC3CCCc5ccccc53)C4)c(C)c1)CC2

> <Shape>
0.250

> <Color>
0.162

> <Negative vol penalty>
0.000

$$$$

  -OEChem-04042320263D

 90100  0     1  0  0  0  0  0999 V2000
  -31.8007  -32.6666   19.5065 C   0  0  0  0  0  0  0  0  0  0  0  0
  -31.2248  -31.4834   19.9579 C   0  0  0  0  0  0  0  0  0  0  0  0
  -24.6490   -8.9697   21.4300 C   0  0  0  0  0  0  0  0  0  0  0  0
  -22.8408  -10.4266   20.7630 C   0  0  0  0  0  0  0  0  0  0  0  0
  -31.2527  -33.8935   19.8784 C   0  0  0  0  0  0  0  0  0  0  0  0
  -30.1012  -31.5264   20.7825 C   0  0  0  0  0  0  0  0  0  0  0  0
  -26.5432  -28.2015   19.3928 C   0  0  0  0  0  0  0  0  0  0  0  0
  -23.7467   -7.9159   21.5743 C   0  0  0  0  0  0  0  0  0  0  0  0
  -21.9384   -9.3727   20.9073 C   0  0  0  0  0  0  0  0  0  0  0  0
  -26.7440  -26.8684   19.7481 C   0  0  0  0  0  0  0  0  0  0  0  0
  -21.4738   -6.8775   23.8503 C   0  0  0  0  0  0  0  0  0  0  0  0
  -21.5806   -6.0859   24.9938 C   0  0  0  0  0  0  0  0  0  0  0  0
  -24.6595  -19.3315   19.8706 C   0  0  0  0  0  0  0  0  0  0  0  0
  -25.2351  -27.1437   21.6100 C   0  0  0  0  0  0  0  0  0  0  0  0
  -23.0181  -20.8571   18.9202 C   0  0  0  0  0  0  0  0  0  0  0  0
  -21.9722   -4.1430   23.6122 C   0  0  0  0  0  0  0  0  0  0  0  0
  -24.1960  -10.2251   21.0244 C   0  0  0  0  0  0  0  0  0  0  0  0
  -25.9547  -11.8674   21.8714 C   0  0  0  0  0  0  0  0  0  0  0  0
  -30.1160  -33.9514   20.7001 C   0  0  0  0  0  0  0  0  0  0  0  0
  -25.6939  -29.0201   20.1511 C   0  0  0  0  0  0  0  0  0  0  0  0
  -29.5382  -32.7552   21.1669 C   0  0  0  0  0  0  0  0  0  0  0  0
  -24.4909  -18.5209   18.7618 C   0  0  0  0  0  0  0  0  0  0  0  0
  -25.0233  -28.4861   21.2608 C   0  0  0  0  0  0  0  0  0  0  0  0
  -23.5982  -18.8656   17.7422 C   0  0  0  0  0  0  0  0  0  0  0  0
  -23.9147  -20.5106   19.9444 C   0  0  0  0  0  0  0  0  0  0  0  0
  -22.3914   -8.1174   21.3129 C   0  0  0  0  0  0  0  0  0  0  0  0
  -26.0921  -26.3401   20.8585 C   0  0  0  0  0  0  0  0  0  0  0  0
  -21.6162   -6.3018   22.5877 C   0  0  0  0  0  0  0  0  0  0  0  0
  -21.8298   -4.7186   24.8747 C   0  0  0  0  0  0  0  0  0  0  0  0
  -21.8654   -4.9346   22.4687 C   0  0  0  0  0  0  0  0  0  0  0  0
  -22.8539  -20.0301   17.8067 C   0  0  0  0  0  0  0  0  0  0  0  0
  -25.1275  -11.3143   20.8756 C   0  0  0  0  0  0  0  0  0  0  0  0
  -26.6432  -12.8675   21.2294 C   0  0  0  0  0  0  0  0  0  0  0  0
  -26.0889  -11.5091   23.2532 C   0  0  0  0  0  0  0  0  0  0  0  0
  -26.0725  -31.6755   21.8568 C   0  0  0  0  0  0  0  0  0  0  0  0
  -22.8422  -31.5129   22.1034 C   0  0  0  0  0  0  0  0  0  0  0  0
  -20.3688  -28.9431   22.6477 C   0  0  0  0  0  0  0  0  0  0  0  0
  -25.1911  -15.9605   16.2145 C   0  0  0  0  0  0  0  0  0  0  0  0
  -29.5875  -35.3019   21.1142 C   0  0  0  0  0  0  0  0  0  0  0  0
  -25.4672  -30.4488   19.7390 C   0  0  0  0  0  0  0  0  0  0  0  0
  -25.1454  -17.2122   18.4590 C   0  0  0  0  0  0  0  0  0  0  0  0
  -24.0854  -29.3175   22.0960 C   0  0  0  0  0  0  0  0  0  0  0  0
  -23.6124  -17.8295   16.6695 C   0  0  0  0  0  0  0  0  0  0  0  0
  -28.1726  -35.2535   21.6851 C   0  0  0  0  0  0  0  0  0  0  0  0
  -21.8851  -18.9370   24.1663 C   0  0  0  0  0  0  0  0  0  0  0  0
  -20.5193  -19.3350   23.6151 C   0  0  0  0  0  0  0  0  0  0  0  0
  -28.2853  -14.1156   16.9057 C   0  0  0  0  0  0  0  0  0  0  0  0
  -28.0447  -34.1214   22.6994 C   0  0  0  0  0  0  0  0  0  0  0  0
  -27.8787  -13.2054   18.0668 C   0  0  0  0  0  0  0  0  0  0  0  0
  -27.1101  -14.4242   15.9802 C   0  0  0  0  0  0  0  0  0  0  0  0
  -22.8607  -19.9468   23.5796 C   0  0  0  0  0  0  0  0  0  0  0  0
  -20.7815  -20.5554   22.7452 C   0  0  0  0  0  0  0  0  0  0  0  0
  -25.5115  -14.0316   17.8122 C   0  0  0  0  0  0  0  0  0  0  0  0
  -28.3040  -32.7602   22.0426 C   0  0  1  0  0  0  0  0  0  0  0  0
  -24.9800  -31.3309   20.8844 C   0  0  1  0  0  0  0  0  0  0  0  0
  -26.6475  -13.7617   18.8078 C   0  0  1  0  0  0  0  0  0  0  0  0
  -17.9576  -28.8280   21.9620 C   0  0  0  0  0  0  0  0  0  0  0  0
  -22.2988  -32.6605   24.8779 C   0  0  0  0  0  0  0  0  0  0  0  0
  -20.2887  -31.1750   25.0223 C   0  0  0  0  0  0  0  0  0  0  0  0
  -20.4176  -32.9274   23.2518 C   0  0  0  0  0  0  0  0  0  0  0  0
  -20.7664  -26.3593   21.2604 C   0  0  0  0  0  0  0  0  0  0  0  0
  -22.7473  -21.6510   21.8754 C   0  0  0  0  0  0  0  0  0  0  0  0
  -26.1085  -22.7312   20.5436 C   0  0  0  0  0  0  0  0  0  0  0  0
  -26.5779  -24.1200   20.1575 C   0  0  0  0  0  0  0  0  0  1  0  0
  -24.0699  -21.4104   21.1250 C   0  0  2  0  0  0  0  0  0  0  0  0
  -21.8746  -30.8695   23.0672 C   0  0  1  0  0  0  0  0  0  0  0  0
  -19.3798  -28.4036   21.6303 C   0  0  2  0  0  0  0  0  0  0  0  0
  -21.2457  -31.8971   24.0501 C   0  0  0  0  0  0  0  0  0  0  0  0
  -25.2753  -11.9134   19.6911 N   0  0  0  0  0  0  0  0  0  0  0  0
  -26.2034  -12.8535   19.9384 N   0  0  0  0  0  0  0  0  0  0  0  0
  -23.9014  -30.7104   21.6564 N   0  0  0  0  0  0  0  0  0  0  0  0
  -24.6256  -16.8611   17.1207 N   0  0  0  0  0  0  0  0  0  0  0  0
  -25.9668  -14.9238   16.7423 N   0  0  0  0  0  0  0  0  0  0  0  0
  -22.1830  -20.3855   22.3587 N   0  0  0  0  0  0  0  0  0  0  0  0
  -27.5758  -13.7489   21.6488 N   0  0  0  0  0  0  0  0  0  0  0  0
  -25.3063  -10.4577   23.7498 N   0  0  0  0  0  0  0  0  0  0  0  0
  -27.1453  -32.3346   21.2873 N   0  0  0  0  0  0  0  0  0  0  0  0
  -20.9021  -30.1511   22.2508 N   0  0  0  0  0  0  0  0  0  0  0  0
  -19.4305  -26.9145   21.5978 N   0  3  0  0  0  0  0  0  0  0  0  0
  -24.6462  -22.7544   20.7664 N   0  3  0  0  0  0  0  0  0  0  0  0
  -26.8673  -12.1144   24.0286 O   0  0  0  0  0  0  0  0  0  0  0  0
  -25.9505  -31.3676   23.0366 O   0  0  0  0  0  0  0  0  0  0  0  0
  -22.6606  -32.6820   21.7544 O   0  0  0  0  0  0  0  0  0  0  0  0
  -20.6383  -28.3538   23.6921 O   0  0  0  0  0  0  0  0  0  0  0  0
  -25.0570  -16.1064   14.9928 O   0  0  0  0  0  0  0  0  0  0  0  0
  -21.5107   -7.0892   21.4534 O   0  0  0  0  0  0  0  0  0  0  0  0
  -26.2882  -25.0300   21.2104 O   0  0  0  0  0  0  0  0  0  1  0  0
  -21.9339   -3.9589   25.9730 F   0  0  0  0  0  0  0  0  0  0  0  0
  -22.0043   -4.3761   21.2585 F   0  0  0  0  0  0  0  0  0  0  0  0
  -21.7531  -20.4684   16.5625 Cl  0  0  0  0  0  0  0  0  0  0  0  0
  1  2  1  0  0  0  0
  1  5  2  0  0  0  0
  2  6  2  0  0  0  0
  3  8  2  0  0  0  0
  3 17  1  0  0  0  0
  4  9  1  0  0  0  0
  4 17  2  0  0  0  0
  5 19  1  0  0  0  0
  6 21  1  0  0  0  0
  7 10  2  0  0  0  0
  7 20  1  0  0  0  0
  8 26  1  0  0  0  0
  9 26  2  0  0  0  0
 10 27  1  0  0  0  0
 11 12  2  0  0  0  0
 11 28  1  0  0  0  0
 12 29  1  0  0  0  0
 13 22  1  0  0  0  0
 13 25  2  0  0  0  0
 14 23  1  0  0  0  0
 14 27  2  0  0  0  0
 15 25  1  0  0  0  0
 15 31  2  0  0  0  0
 16 29  2  0  0  0  0
 16 30  1  0  0  0  0
 17 32  1  0  0  0  0
 18 32  1  0  0  0  0
 18 33  2  0  0  0  0
 18 34  1  0  0  0  0
 19 21  2  0  0  0  0
 19 39  1  0  0  0  0
 20 23  2  0  0  0  0
 20 40  1  0  0  0  0
 21 54  1  0  0  0  0
 22 24  2  0  0  0  0
 22 41  1  0  0  0  0
 23 42  1  0  0  0  0
 24 31  1  0  0  0  0
 24 43  1  0  0  0  0
 25 65  1  0  0  0  0
 26 86  1  0  0  0  0
 27 87  1  0  0  0  0
 28 30  2  0  0  0  0
 28 86  1  0  0  0  0
 29 88  1  0  0  0  0
 30 89  1  0  0  0  0
 31 90  1  0  0  0  0
 32 69  2  0  0  0  0
 33 70  1  0  0  0  0
 33 75  1  0  0  0  0
 34 76  1  0  0  0  0
 34 81  2  0  0  0  0
 35 55  1  0  0  0  0
 35 77  1  0  0  0  0
 35 82  2  0  0  0  0
 36 66  1  0  0  0  0
 36 71  1  0  0  0  0
 36 83  2  0  0  0  0
 37 67  1  0  0  0  0
 37 78  1  0  0  0  0
 37 84  2  0  0  0  0
 38 72  1  0  0  0  0
 38 73  1  0  0  0  0
 38 85  2  0  0  0  0
 39 44  1  0  0  0  0
 40 55  1  0  0  0  0
 41 72  1  0  0  0  0
 42 71  1  0  0  0  0
 43 72  1  0  0  0  0
 44 48  1  0  0  0  0
 45 46  1  0  0  0  0
 45 51  1  0  0  0  0
 46 52  1  0  0  0  0
 47 49  1  0  0  0  0
 47 50  1  0  0  0  0
 48 54  1  0  0  0  0
 49 56  1  0  0  0  0
 50 73  1  0  0  0  0
 51 74  1  0  0  0  0
 52 74  1  0  0  0  0
 53 56  1  0  0  0  0
 53 73  1  0  0  0  0
 54 77  1  0  0  0  0
 55 71  1  0  0  0  0
 56 70  1  0  0  0  0
 57 67  1  0  0  0  0
 58 68  1  0  0  0  0
 59 68  1  0  0  0  0
 60 68  1  0  0  0  0
 61 79  1  0  0  0  0
 62 65  1  0  0  0  0
 62 74  1  0  0  0  0
 63 64  1  0  0  0  0
 63 80  1  0  0  0  0
 64 87  1  0  0  0  0
 65 80  1  0  0  0  0
 66 68  1  0  0  0  0
 66 78  1  0  0  0  0
 67 79  1  0  0  0  0
 69 70  1  0  0  0  0
M  CHG  2  79   1  80   1
M  ISO  4  38 100  64 101  72 100  87 101
M  END
> <Batch ID>
0005

> <Smiles>
CNC(C)C(=O)NC(C(=O)N1Cc2cc([101O:1][101CH2:1]CNC(CN3CCCC3)c3cc(Cl)c4c(c3)C[100N:0]([100C:0](=O)N3CCCC(n5nc(-c6ccc(Oc7ccc(F)cc7F)cc6)c(C(N)=O)c5N)C3)C4)ccc2CC1C(=O)NC1CCCc2ccccc21)C(C)(C)C

> <Shape>
0.223

> <Color>
0.107

> <Negative vol penalty>
0.000

$$$$

  -OEChem-04042320263D

 86 95  0     1  0  0  0  0  0999 V2000
  -23.2176  -19.0666   17.0908 C   0  0  0  0  0  0  0  0  0  0  0  0
  -23.7714  -19.4717   18.3010 C   0  0  0  0  0  0  0  0  0  0  0  0
  -23.3063  -10.2181   22.2387 C   0  0  0  0  0  0  0  0  0  0  0  0
  -23.6001   -9.5295   19.9417 C   0  0  0  0  0  0  0  0  0  0  0  0
  -22.5234  -19.9828   16.3018 C   0  0  0  0  0  0  0  0  0  0  0  0
  -23.6323  -20.7936   18.7224 C   0  0  0  0  0  0  0  0  0  0  0  0
  -22.3591  -21.1507   23.6108 C   0  0  0  0  0  0  0  0  0  0  0  0
  -32.3643  -18.5690   22.0080 C   0  0  0  0  0  0  0  0  0  0  0  0
  -31.8667  -17.3455   21.5596 C   0  0  0  0  0  0  0  0  0  0  0  0
  -22.5606   -9.0662   22.4887 C   0  0  0  0  0  0  0  0  0  0  0  0
  -22.8544   -8.3775   20.1916 C   0  0  0  0  0  0  0  0  0  0  0  0
  -23.3744  -20.9664   24.5483 C   0  0  0  0  0  0  0  0  0  0  0  0
  -19.4091   -7.9726   21.9437 C   0  0  0  0  0  0  0  0  0  0  0  0
  -18.2257   -8.1122   22.6686 C   0  0  0  0  0  0  0  0  0  0  0  0
  -23.5636  -23.3575   24.8046 C   0  0  0  0  0  0  0  0  0  0  0  0
  -29.8014  -17.7506   22.7459 C   0  0  0  0  0  0  0  0  0  0  0  0
  -19.0890   -6.6238   24.3647 C   0  0  0  0  0  0  0  0  0  0  0  0
  -23.8261  -10.4498   20.9652 C   0  0  0  0  0  0  0  0  0  0  0  0
  -24.1692  -12.9746   20.8410 C   0  0  0  0  0  0  0  0  0  0  0  0
  -22.3674  -21.3143   16.7182 C   0  0  0  0  0  0  0  0  0  0  0  0
  -21.9452  -22.4423   23.2545 C   0  0  0  0  0  0  0  0  0  0  0  0
  -22.9365  -21.7288   17.9375 C   0  0  0  0  0  0  0  0  0  0  0  0
  -22.5411  -23.5555   23.8642 C   0  0  0  0  0  0  0  0  0  0  0  0
  -31.5804  -19.3833   22.8254 C   0  0  0  0  0  0  0  0  0  0  0  0
  -30.2990  -18.9741   23.1944 C   0  0  0  0  0  0  0  0  0  0  0  0
  -30.5853  -16.9363   21.9285 C   0  0  0  0  0  0  0  0  0  0  0  0
  -22.3346   -8.1458   21.4652 C   0  0  0  0  0  0  0  0  0  0  0  0
  -23.9788  -22.0699   25.1432 C   0  0  0  0  0  0  0  0  0  0  0  0
  -20.4325   -7.1585   22.4292 C   0  0  0  0  0  0  0  0  0  0  0  0
  -18.0656   -7.4378   23.8791 C   0  0  0  0  0  0  0  0  0  0  0  0
  -20.2724   -6.4841   23.6397 C   0  0  0  0  0  0  0  0  0  0  0  0
  -24.5960  -11.6399   20.7062 C   0  0  0  0  0  0  0  0  0  0  0  0
  -25.2621  -13.7229   20.4777 C   0  0  0  0  0  0  0  0  0  0  0  0
  -22.8985  -13.4917   21.2575 C   0  0  0  0  0  0  0  0  0  0  0  0
  -21.9247  -24.1277   20.5595 C   0  0  0  0  0  0  0  0  0  0  0  0
  -20.3021  -26.2736   22.3718 C   0  0  0  0  0  0  0  0  0  0  0  0
  -20.5189  -27.5856   25.7257 C   0  0  0  0  0  0  0  0  0  0  0  0
  -30.7286  -14.7663   20.6570 C   0  0  0  0  0  0  0  0  0  0  0  0
  -21.6494  -22.2799   15.8090 C   0  0  0  0  0  0  0  0  0  0  0  0
  -20.8303  -22.6236   22.2613 C   0  0  0  0  0  0  0  0  0  0  0  0
  -22.1192  -24.9625   23.5313 C   0  0  0  0  0  0  0  0  0  0  0  0
  -21.2250  -23.5707   16.5046 C   0  0  0  0  0  0  0  0  0  0  0  0
  -29.6159  -12.3487   18.2918 C   0  0  0  0  0  0  0  0  0  0  0  0
  -22.3736  -24.1307   17.3376 C   0  0  0  0  0  0  0  0  0  0  0  0
  -28.1756  -12.0586   18.7202 C   0  0  0  0  0  0  0  0  0  0  0  0
  -30.5297  -12.5792   19.4941 C   0  0  0  0  0  0  0  0  0  0  0  0
  -29.0619  -19.2174   25.2997 C   0  0  0  0  0  0  0  0  0  0  0  0
  -28.6038  -20.7679   23.4073 C   0  0  0  0  0  0  0  0  0  0  0  0
  -28.6214  -13.3071   20.8718 C   0  0  0  0  0  0  0  0  0  0  0  0
  -28.7349  -20.3291   26.2875 C   0  0  0  0  0  0  0  0  0  0  0  0
  -28.2726  -21.8752   24.3998 C   0  0  0  0  0  0  0  0  0  0  0  0
  -22.7856  -23.1481   18.4405 C   0  0  1  0  0  0  0  0  0  0  0  0
  -20.8424  -23.9951   21.5932 C   0  0  1  0  0  0  0  0  0  0  0  0
  -27.6499  -13.1322   19.6931 C   0  0  2  0  0  0  0  0  0  0  0  0
  -32.1383  -20.6888   23.2910 C   0  0  0  0  0  0  0  0  0  0  0  0
  -18.7449  -28.5399   27.2222 C   0  0  0  0  0  0  0  0  0  0  0  0
  -21.1963  -28.9601   21.2347 C   0  0  0  0  0  0  0  0  0  0  0  0
  -20.8774  -29.9511   23.5116 C   0  0  0  0  0  0  0  0  0  0  0  0
  -18.9306  -28.9775   22.2933 C   0  0  0  0  0  0  0  0  0  0  0  0
  -21.1559  -25.6742   27.8936 C   0  0  0  0  0  0  0  0  0  0  0  0
  -27.2658  -22.3136   26.6389 C   0  0  0  0  0  0  0  0  0  0  0  0
  -25.9642  -22.9134   26.1447 C   0  0  0  0  0  0  0  0  0  1  0  0
  -20.6879  -27.4353   23.2553 C   0  0  1  0  0  0  0  0  0  0  0  0
  -19.5653  -27.3078   26.8737 C   0  0  2  0  0  0  0  0  0  0  0  0
  -20.4405  -28.8088   22.5699 C   0  0  0  0  0  0  0  0  0  0  0  0
  -25.8613  -11.5427   20.2896 N   0  0  0  0  0  0  0  0  0  0  0  0
  -26.2390  -12.8258   20.1594 N   0  0  0  0  0  0  0  0  0  0  0  0
  -29.4995  -19.7785   24.0147 N   0  0  0  0  0  0  0  0  0  0  0  0
  -21.0292  -25.0881   22.5497 N   0  0  0  0  0  0  0  0  0  0  0  0
  -29.9701  -13.6119   20.3690 N   0  0  0  0  0  0  0  0  0  0  0  0
  -25.4732  -15.0541   20.4025 N   0  0  0  0  0  0  0  0  0  0  0  0
  -21.8857  -12.5836   21.5952 N   0  0  0  0  0  0  0  0  0  0  0  0
  -30.0807  -15.6931   21.4730 N   0  0  0  0  0  0  0  0  0  0  0  0
  -21.8454  -23.1988   19.5395 N   0  0  0  0  0  0  0  0  0  0  0  0
  -19.9632  -27.2536   24.5083 N   0  0  0  0  0  0  0  0  0  0  0  0
  -27.7298  -21.2657   25.6668 N   0  3  0  0  0  0  0  0  0  0  0  0
  -20.3230  -26.8891   28.0868 N   0  3  0  0  0  0  0  0  0  0  0  0
  -22.6627  -14.7226   21.3123 O   0  0  0  0  0  0  0  0  0  0  0  0
  -22.7685  -25.0085   20.6777 O   0  0  0  0  0  0  0  0  0  0  0  0
  -19.3844  -26.4107   21.5590 O   0  0  0  0  0  0  0  0  0  0  0  0
  -21.6429  -28.0541   25.8920 O   0  0  0  0  0  0  0  0  0  0  0  0
  -31.8583  -14.9336   20.1905 O   0  0  0  0  0  0  0  0  0  0  0  0
  -21.6072   -7.0215   21.7088 O   0  0  0  0  0  0  0  0  0  0  0  0
  -24.9705  -21.8928   26.0581 O   0  0  0  0  0  0  0  0  0  1  0  0
  -16.9297   -7.5732   24.5759 F   0  0  0  0  0  0  0  0  0  0  0  0
  -21.2525   -5.7016   24.1118 F   0  0  0  0  0  0  0  0  0  0  0  0
  1  2  1  0  0  0  0
  1  5  2  0  0  0  0
  2  6  2  0  0  0  0
  3 10  2  0  0  0  0
  3 18  1  0  0  0  0
  4 11  1  0  0  0  0
  4 18  2  0  0  0  0
  5 20  1  0  0  0  0
  6 22  1  0  0  0  0
  7 12  2  0  0  0  0
  7 21  1  0  0  0  0
  8  9  2  0  0  0  0
  8 24  1  0  0  0  0
  9 26  1  0  0  0  0
 10 27  1  0  0  0  0
 11 27  2  0  0  0  0
 12 28  1  0  0  0  0
 13 14  2  0  0  0  0
 13 29  1  0  0  0  0
 14 30  1  0  0  0  0
 15 23  1  0  0  0  0
 15 28  2  0  0  0  0
 16 25  1  0  0  0  0
 16 26  2  0  0  0  0
 17 30  2  0  0  0  0
 17 31  1  0  0  0  0
 18 32  1  0  0  0  0
 19 32  1  0  0  0  0
 19 33  2  0  0  0  0
 19 34  1  0  0  0  0
 20 22  2  0  0  0  0
 20 39  1  0  0  0  0
 21 23  2  0  0  0  0
 21 40  1  0  0  0  0
 22 52  1  0  0  0  0
 23 41  1  0  0  0  0
 24 25  2  0  0  0  0
 24 55  1  0  0  0  0
 25 68  1  0  0  0  0
 26 73  1  0  0  0  0
 27 83  1  0  0  0  0
 28 84  1  0  0  0  0
 29 31  2  0  0  0  0
 29 83  1  0  0  0  0
 30 85  1  0  0  0  0
 31 86  1  0  0  0  0
 32 66  2  0  0  0  0
 33 67  1  0  0  0  0
 33 71  1  0  0  0  0
 34 72  1  0  0  0  0
 34 78  2  0  0  0  0
 35 53  1  0  0  0  0
 35 74  1  0  0  0  0
 35 79  2  0  0  0  0
 36 63  1  0  0  0  0
 36 69  1  0  0  0  0
 36 80  2  0  0  0  0
 37 64  1  0  0  0  0
 37 75  1  0  0  0  0
 37 81  2  0  0  0  0
 38 70  1  0  0  0  0
 38 73  1  0  0  0  0
 38 82  2  0  0  0  0
 39 42  1  0  0  0  0
 40 53  1  0  0  0  0
 41 69  1  0  0  0  0
 42 44  1  0  0  0  0
 43 45  1  0  0  0  0
 43 46  1  0  0  0  0
 44 52  1  0  0  0  0
 45 54  1  0  0  0  0
 46 70  1  0  0  0  0
 47 50  1  0  0  0  0
 47 68  1  0  0  0  0
 48 51  1  0  0  0  0
 48 68  1  0  0  0  0
 49 54  1  0  0  0  0
 49 70  1  0  0  0  0
 50 76  1  0  0  0  0
 51 76  1  0  0  0  0
 52 74  1  0  0  0  0
 53 69  1  0  0  0  0
 54 67  1  0  0  0  0
 56 64  1  0  0  0  0
 57 65  1  0  0  0  0
 58 65  1  0  0  0  0
 59 65  1  0  0  0  0
 60 77  1  0  0  0  0
 61 62  1  0  0  0  0
 61 76  1  0  0  0  0
 62 84  1  0  0  0  0
 63 65  1  0  0  0  0
 63 75  1  0  0  0  0
 64 77  1  0  0  0  0
 66 67  1  0  0  0  0
M  CHG  2  76   1  77   1
M  ISO  4  38 100  62 101  73 100  84 101
M  END
> <Batch ID>
0005

> <Smiles>
CNC(C)C(=O)NC(C(=O)N1Cc2cc([101O:1][101CH2:1]CN3CCN(c4cc([100NH:0][100C:0](=O)N5CCCC(n6nc(-c7ccc(Oc8ccc(F)cc8F)cc7)c(C(N)=O)c6N)C5)ccc4C)CC3)ccc2CC1C(=O)NC1CCCc2ccccc21)C(C)(C)C

> <Shape>
0.208

> <Color>
0.187

> <Negative vol penalty>
0.000

$$$$

  -OEChem-04042320263D

 96105  0     1  0  0  0  0  0999 V2000
  -19.2685  -24.2264   23.1162 C   0  0  0  0  0  0  0  0  0  0  0  0
  -20.5081  -24.4125   22.5128 C   0  0  0  0  0  0  0  0  0  0  0  0
  -25.9576  -21.0455   16.6944 C   0  0  0  0  0  0  0  0  0  0  0  0
  -21.7853  -19.6913   23.5290 C   0  0  0  0  0  0  0  0  0  0  0  0
  -24.0195  -20.1884   22.7554 C   0  0  0  0  0  0  0  0  0  0  0  0
  -18.4221  -25.3158   23.3182 C   0  0  0  0  0  0  0  0  0  0  0  0
  -20.9016  -25.6882   22.1099 C   0  0  0  0  0  0  0  0  0  0  0  0
  -25.6871  -26.7397   23.3898 C   0  0  0  0  0  0  0  0  0  0  0  0
  -25.9628  -20.1916   17.7973 C   0  0  0  0  0  0  0  0  0  0  0  0
  -26.8059  -22.1524   16.6653 C   0  0  0  0  0  0  0  0  0  0  0  0
  -29.6194  -11.5942   19.1478 C   0  0  0  0  0  0  0  0  0  0  0  0
  -28.3595  -11.9054   19.6590 C   0  0  0  0  0  0  0  0  0  0  0  0
  -21.9185  -20.6522   24.5312 C   0  0  0  0  0  0  0  0  0  0  0  0
  -24.1527  -21.1494   23.7576 C   0  0  0  0  0  0  0  0  0  0  0  0
  -26.6938  -26.1873   22.5991 C   0  0  0  0  0  0  0  0  0  0  0  0
  -23.3950  -20.9023   27.5614 C   0  0  0  0  0  0  0  0  0  0  0  0
  -22.9717  -20.5610   28.8458 C   0  0  0  0  0  0  0  0  0  0  0  0
  -26.9309  -28.2906   21.4421 C   0  0  0  0  0  0  0  0  0  0  0  0
  -27.6644  -21.5517   18.8422 C   0  0  0  0  0  0  0  0  0  0  0  0
  -30.1394  -13.9487   18.9958 C   0  0  0  0  0  0  0  0  0  0  0  0
  -21.3814  -22.3794   28.8050 C   0  0  0  0  0  0  0  0  0  0  0  0
  -22.8358  -19.4593   22.6412 C   0  0  0  0  0  0  0  0  0  0  0  0
  -22.2048  -18.6600   20.3022 C   0  0  0  0  0  0  0  0  0  0  0  0
  -18.8095  -26.6069   22.9263 C   0  0  0  0  0  0  0  0  0  0  0  0
  -25.2866  -28.0708   23.2049 C   0  0  0  0  0  0  0  0  0  0  0  0
  -20.0591  -26.7957   22.3056 C   0  0  0  0  0  0  0  0  0  0  0  0
  -25.9207  -28.8584   22.2335 C   0  0  0  0  0  0  0  0  0  0  0  0
  -26.8162  -20.4447   18.8713 C   0  0  0  0  0  0  0  0  0  0  0  0
  -27.6592  -22.4055   17.7392 C   0  0  0  0  0  0  0  0  0  0  0  0
  -30.5094  -12.6159   18.8162 C   0  0  0  0  0  0  0  0  0  0  0  0
  -27.9895  -13.2383   19.8386 C   0  0  0  0  0  0  0  0  0  0  0  0
  -23.1021  -21.3813   24.6455 C   0  0  0  0  0  0  0  0  0  0  0  0
  -27.3138  -26.9619   21.6231 C   0  0  0  0  0  0  0  0  0  0  0  0
  -22.8115  -21.9822   26.8987 C   0  0  0  0  0  0  0  0  0  0  0  0
  -28.8794  -14.2599   19.5070 C   0  0  0  0  0  0  0  0  0  0  0  0
  -21.9649  -21.2995   29.4677 C   0  0  0  0  0  0  0  0  0  0  0  0
  -21.8047  -22.7207   27.5205 C   0  0  0  0  0  0  0  0  0  0  0  0
  -22.6991  -18.4663   21.6061 C   0  0  0  0  0  0  0  0  0  0  0  0
  -22.2798  -17.4189   19.7187 C   0  0  0  0  0  0  0  0  0  0  0  0
  -21.7211  -19.8549   19.6747 C   0  0  0  0  0  0  0  0  0  0  0  0
  -22.5746  -29.5015   22.3672 C   0  0  0  0  0  0  0  0  0  0  0  0
  -24.2441  -32.1993   23.0430 C   0  0  0  0  0  0  0  0  0  0  0  0
  -27.2805  -33.7261   23.3532 C   0  0  0  0  0  0  0  0  0  0  0  0
  -25.7122  -12.6334   20.7299 C   0  0  0  0  0  0  0  0  0  0  0  0
  -17.8410  -27.7463   23.1224 C   0  0  0  0  0  0  0  0  0  0  0  0
  -24.2177  -28.6597   24.0841 C   0  0  0  0  0  0  0  0  0  0  0  0
  -25.5415  -30.2986   22.0089 C   0  0  0  0  0  0  0  0  0  0  0  0
  -18.4892  -29.1235   23.0065 C   0  0  0  0  0  0  0  0  0  0  0  0
  -22.1546  -12.7564   20.8050 C   0  0  0  0  0  0  0  0  0  0  0  0
  -19.3909  -29.1875   21.7778 C   0  0  0  0  0  0  0  0  0  0  0  0
  -21.8454  -14.2526   20.8942 C   0  0  0  0  0  0  0  0  0  0  0  0
  -23.4006  -12.3860   21.6076 C   0  0  0  0  0  0  0  0  0  0  0  0
  -24.2887  -14.6731   21.3847 C   0  0  0  0  0  0  0  0  0  0  0  0
  -20.5320  -28.1679   21.8772 C   0  0  1  0  0  0  0  0  0  0  0  0
  -23.5340  -29.8735   23.4621 C   0  0  1  0  0  0  0  0  0  0  0  0
  -23.0794  -15.1052   20.5394 C   0  0  2  0  0  0  0  0  0  0  0  0
  -28.3242  -35.9466   23.8801 C   0  0  0  0  0  0  0  0  0  0  0  0
  -23.5021  -33.2058   20.2598 C   0  0  0  0  0  0  0  0  0  0  0  0
  -25.3051  -34.9291   20.4784 C   0  0  0  0  0  0  0  0  0  0  0  0
  -23.3777  -34.9352   22.0620 C   0  0  0  0  0  0  0  0  0  0  0  0
  -28.6913  -32.6334   25.7142 C   0  0  0  0  0  0  0  0  0  0  0  0
  -26.8222  -19.5305   20.0496 C   0  0  0  0  0  0  0  0  0  0  0  0
  -28.5711  -23.5965   17.7081 C   0  0  0  0  0  0  0  0  0  0  0  0
  -27.8332  -18.3848   19.8916 C   0  0  0  0  0  0  0  0  0  0  0  0
  -27.5059  -17.5007   18.6901 C   0  0  0  0  0  0  0  0  0  0  0  0
  -29.0260  -25.8748   18.6252 C   0  0  0  0  0  0  0  0  0  0  0  0
  -28.5334  -16.3920   18.5119 C   0  0  0  0  0  0  0  0  0  0  0  0
  -28.4367  -26.9417   19.5267 C   0  0  0  0  0  0  0  0  0  1  0  0
  -25.1364  -33.1294   22.2571 C   0  0  1  0  0  0  0  0  0  0  0  0
  -27.8550  -34.6138   24.4424 C   0  0  2  0  0  0  0  0  0  0  0  0
  -31.8563  -12.2827   18.2696 C   0  0  0  0  0  0  0  0  0  0  0  0
  -24.3364  -34.0222   21.2670 C   0  0  0  0  0  0  0  0  0  0  0  0
  -23.0612  -17.2017   21.8377 N   0  0  0  0  0  0  0  0  0  0  0  0
  -22.7941  -16.5895   20.6715 N   0  0  0  0  0  0  0  0  0  0  0  0
  -24.4865  -30.8269   22.8895 N   0  0  0  0  0  0  0  0  0  0  0  0
  -24.5299  -13.2316   21.2148 N   0  0  0  0  0  0  0  0  0  0  0  0
  -21.9552  -16.9670   18.4888 N   0  0  0  0  0  0  0  0  0  0  0  0
  -21.7131  -21.0434   20.4175 N   0  0  0  0  0  0  0  0  0  0  0  0
  -26.7053  -13.5384   20.3568 N   0  0  0  0  0  0  0  0  0  0  0  0
  -21.5639  -28.6497   22.7702 N   0  0  0  0  0  0  0  0  0  0  0  0
  -25.9145  -33.8759   23.2398 N   0  0  0  0  0  0  0  0  0  0  0  0
  -29.0150  -33.9454   25.0971 N   0  3  0  0  0  0  0  0  0  0  0  0
  -28.1127  -24.7049   18.5885 N   0  3  0  0  0  0  0  0  0  0  0  0
  -21.2930  -19.8649   18.4956 O   0  0  0  0  0  0  0  0  0  0  0  0
  -22.7382  -29.9549   21.2406 O   0  0  0  0  0  0  0  0  0  0  0  0
  -23.3691  -32.6732   23.7720 O   0  0  0  0  0  0  0  0  0  0  0  0
  -27.9746  -32.9777   22.6686 O   0  0  0  0  0  0  0  0  0  0  0  0
  -25.8245  -11.4092   20.6258 O   0  0  0  0  0  0  0  0  0  0  0  0
  -23.2323  -22.3193   25.6231 O   0  0  0  0  0  0  0  0  0  0  0  0
  -28.2962  -26.4249   20.8495 O   0  0  0  0  0  0  0  0  0  1  0  0
  -28.5353  -15.5761   19.6752 O   0  0  0  0  0  0  0  0  0  0  0  0
  -21.5574  -20.9707   30.7005 F   0  0  0  0  0  0  0  0  0  0  0  0
  -21.2396  -23.7585   26.8884 F   0  0  0  0  0  0  0  0  0  0  0  0
  -32.0812  -10.9408   18.1477 F   0  0  0  0  0  0  0  0  0  0  0  0
  -32.0834  -12.7961   17.0244 F   0  0  0  0  0  0  0  0  0  0  0  0
  -32.8714  -12.7543   19.0507 F   0  0  0  0  0  0  0  0  0  0  0  0
  1  2  1  0  0  0  0
  1  6  2  0  0  0  0
  2  7  2  0  0  0  0
  3  9  1  0  0  0  0
  3 10  2  0  0  0  0
  4 13  2  0  0  0  0
  4 22  1  0  0  0  0
  5 14  1  0  0  0  0
  5 22  2  0  0  0  0
  6 24  1  0  0  0  0
  7 26  1  0  0  0  0
  8 15  2  0  0  0  0
  8 25  1  0  0  0  0
  9 28  2  0  0  0  0
 10 29  1  0  0  0  0
 11 12  2  0  0  0  0
 11 30  1  0  0  0  0
 12 31  1  0  0  0  0
 13 32  1  0  0  0  0
 14 32  2  0  0  0  0
 15 33  1  0  0  0  0
 16 17  2  0  0  0  0
 16 34  1  0  0  0  0
 17 36  1  0  0  0  0
 18 27  1  0  0  0  0
 18 33  2  0  0  0  0
 19 28  1  0  0  0  0
 19 29  2  0  0  0  0
 20 30  2  0  0  0  0
 20 35  1  0  0  0  0
 21 36  2  0  0  0  0
 21 37  1  0  0  0  0
 22 38  1  0  0  0  0
 23 38  1  0  0  0  0
 23 39  2  0  0  0  0
 23 40  1  0  0  0  0
 24 26  2  0  0  0  0
 24 45  1  0  0  0  0
 25 27  2  0  0  0  0
 25 46  1  0  0  0  0
 26 54  1  0  0  0  0
 27 47  1  0  0  0  0
 28 62  1  0  0  0  0
 29 63  1  0  0  0  0
 30 71  1  0  0  0  0
 31 35  2  0  0  0  0
 31 79  1  0  0  0  0
 32 89  1  0  0  0  0
 33 90  1  0  0  0  0
 34 37  2  0  0  0  0
 34 89  1  0  0  0  0
 35 91  1  0  0  0  0
 36 92  1  0  0  0  0
 37 93  1  0  0  0  0
 38 73  2  0  0  0  0
 39 74  1  0  0  0  0
 39 77  1  0  0  0  0
 40 78  1  0  0  0  0
 40 84  2  0  0  0  0
 41 55  1  0  0  0  0
 41 80  1  0  0  0  0
 41 85  2  0  0  0  0
 42 69  1  0  0  0  0
 42 75  1  0  0  0  0
 42 86  2  0  0  0  0
 43 70  1  0  0  0  0
 43 81  1  0  0  0  0
 43 87  2  0  0  0  0
 44 76  1  0  0  0  0
 44 79  1  0  0  0  0
 44 88  2  0  0  0  0
 45 48  1  0  0  0  0
 46 55  1  0  0  0  0
 47 75  1  0  0  0  0
 48 50  1  0  0  0  0
 49 51  1  0  0  0  0
 49 52  1  0  0  0  0
 50 54  1  0  0  0  0
 51 56  1  0  0  0  0
 52 76  1  0  0  0  0
 53 56  1  0  0  0  0
 53 76  1  0  0  0  0
 54 80  1  0  0  0  0
 55 75  1  0  0  0  0
 56 74  1  0  0  0  0
 57 70  1  0  0  0  0
 58 72  1  0  0  0  0
 59 72  1  0  0  0  0
 60 72  1  0  0  0  0
 61 82  1  0  0  0  0
 62 64  1  0  0  0  0
 63 83  1  0  0  0  0
 64 65  1  0  0  0  0
 65 67  1  0  0  0  0
 66 68  1  0  0  0  0
 66 83  1  0  0  0  0
 67 91  1  0  0  0  0
 68 90  1  0  0  0  0
 69 72  1  0  0  0  0
 69 81  1  0  0  0  0
 70 82  1  0  0  0  0
 71 94  1  0  0  0  0
 71 95  1  0  0  0  0
 71 96  1  0  0  0  0
 73 74  1  0  0  0  0
M  CHG  2  82   1  83   1
M  ISO  4  44 100  68 101  79 100  90 101
M  END
> <Batch ID>
0005

> <Smiles>
CNC(C)C(=O)NC(C(=O)N1Cc2cc([101O:1][101CH2:1]CNCc3cccc(CCCCOc4cc(C(F)(F)F)ccc4[100NH:0][100C:0](=O)N4CCCC(n5nc(-c6ccc(Oc7ccc(F)cc7F)cc6)c(C(N)=O)c5N)C4)c3)ccc2CC1C(=O)NC1CCCc2ccccc21)C(C)(C)C

> <Shape>
0.241

> <Color>
0.089

> <Negative vol penalty>
0.000

$$$$

  -OEChem-04042320263D

 86 94  0     1  0  0  0  0  0999 V2000
  -38.6616  -30.0376   17.9852 C   0  0  0  0  0  0  0  0  0  0  0  0
  -38.4992  -28.8496   18.6907 C   0  0  0  0  0  0  0  0  0  0  0  0
  -23.0979   -9.8970   19.9543 C   0  0  0  0  0  0  0  0  0  0  0  0
  -23.4917  -10.0519   22.3330 C   0  0  0  0  0  0  0  0  0  0  0  0
  -37.5757  -30.8929   17.8031 C   0  0  0  0  0  0  0  0  0  0  0  0
  -37.2509  -28.5168   19.2154 C   0  0  0  0  0  0  0  0  0  0  0  0
  -34.8508  -22.9060   19.7301 C   0  0  0  0  0  0  0  0  0  0  0  0
  -30.9432  -15.5268   24.1963 C   0  0  0  0  0  0  0  0  0  0  0  0
  -22.2671   -8.7963   20.1635 C   0  0  0  0  0  0  0  0  0  0  0  0
  -22.6608   -8.9512   22.5422 C   0  0  0  0  0  0  0  0  0  0  0  0
  -34.7704  -22.0146   20.7991 C   0  0  0  0  0  0  0  0  0  0  0  0
  -31.4966  -16.8018   24.0805 C   0  0  0  0  0  0  0  0  0  0  0  0
  -22.8672   -5.5873   22.2730 C   0  0  0  0  0  0  0  0  0  0  0  0
  -23.3113   -4.5976   23.1498 C   0  0  0  0  0  0  0  0  0  0  0  0
  -32.5475  -22.8128   21.2896 C   0  0  0  0  0  0  0  0  0  0  0  0
  -30.8050  -15.3680   21.7894 C   0  0  0  0  0  0  0  0  0  0  0  0
  -21.3763   -4.9683   24.5483 C   0  0  0  0  0  0  0  0  0  0  0  0
  -23.7102  -10.5248   21.0390 C   0  0  0  0  0  0  0  0  0  0  0  0
  -24.1932  -13.0180   20.7976 C   0  0  0  0  0  0  0  0  0  0  0  0
  -36.3112  -30.5658   18.3175 C   0  0  0  0  0  0  0  0  0  0  0  0
  -33.7826  -23.7666   19.4390 C   0  0  0  0  0  0  0  0  0  0  0  0
  -36.1473  -29.3692   19.0411 C   0  0  0  0  0  0  0  0  0  0  0  0
  -32.6158  -23.7124   20.2148 C   0  0  0  0  0  0  0  0  0  0  0  0
  -30.5974  -14.8098   23.0507 C   0  0  0  0  0  0  0  0  0  0  0  0
  -31.3585  -16.6432   21.6736 C   0  0  0  0  0  0  0  0  0  0  0  0
  -22.0486   -8.3234   21.4574 C   0  0  0  0  0  0  0  0  0  0  0  0
  -33.6198  -21.9699   21.5808 C   0  0  0  0  0  0  0  0  0  0  0  0
  -31.7043  -17.3601   22.8191 C   0  0  0  0  0  0  0  0  0  0  0  0
  -21.6777   -6.2676   22.5339 C   0  0  0  0  0  0  0  0  0  0  0  0
  -22.5658   -4.2880   24.2874 C   0  0  0  0  0  0  0  0  0  0  0  0
  -20.9323   -5.9581   23.6715 C   0  0  0  0  0  0  0  0  0  0  0  0
  -24.5690  -11.6616   20.8235 C   0  0  0  0  0  0  0  0  0  0  0  0
  -25.3649  -13.6944   20.5604 C   0  0  0  0  0  0  0  0  0  0  0  0
  -22.9007  -13.6134   20.9723 C   0  0  0  0  0  0  0  0  0  0  0  0
  -33.3989  -26.9211   19.3670 C   0  0  0  0  0  0  0  0  0  0  0  0
  -30.4804  -26.1479   18.1809 C   0  0  0  0  0  0  0  0  0  0  0  0
  -27.9834  -23.8377   17.9076 C   0  0  0  0  0  0  0  0  0  0  0  0
  -31.1114  -11.8270   21.5746 C   0  0  0  0  0  0  0  0  0  0  0  0
  -35.1782  -31.5445   18.1359 C   0  0  0  0  0  0  0  0  0  0  0  0
  -33.8745  -24.7036   18.2660 C   0  0  0  0  0  0  0  0  0  0  0  0
  -31.4332  -24.6009   19.9315 C   0  0  0  0  0  0  0  0  0  0  0  0
  -33.8022  -30.9395   18.4015 C   0  0  0  0  0  0  0  0  0  0  0  0
  -29.6328  -13.1959   18.4696 C   0  0  0  0  0  0  0  0  0  0  0  0
  -33.8153  -30.1307   19.6948 C   0  0  0  0  0  0  0  0  0  0  0  0
  -28.1351  -13.0018   18.7001 C   0  0  0  0  0  0  0  0  0  0  0  0
  -30.4612  -12.1549   19.2164 C   0  0  0  0  0  0  0  0  0  0  0  0
  -28.6741  -11.8939   20.9053 C   0  0  0  0  0  0  0  0  0  0  0  0
  -34.8032  -28.9614   19.6042 C   0  0  1  0  0  0  0  0  0  0  0  0
  -32.9272  -25.8943   18.3767 C   0  0  1  0  0  0  0  0  0  0  0  0
  -27.8130  -12.9551   20.2039 C   0  0  2  0  0  0  0  0  0  0  0  0
  -25.7060  -23.5077   16.9068 C   0  0  0  0  0  0  0  0  0  0  0  0
  -29.2665  -27.8838   20.3770 C   0  0  0  0  0  0  0  0  0  0  0  0
  -27.0634  -26.7793   19.9359 C   0  0  0  0  0  0  0  0  0  0  0  0
  -28.1700  -28.1122   18.1410 C   0  0  0  0  0  0  0  0  0  0  0  0
  -31.9908  -12.1470   23.8558 C   0  0  0  0  0  0  0  0  0  0  0  0
  -28.9163  -21.5776   16.2401 C   0  0  0  0  0  0  0  0  0  0  0  0
  -30.0071  -13.4460   23.1752 C   0  0  0  0  0  0  0  0  0  0  0  0
  -34.2685  -19.8801   22.5122 C   0  0  0  0  0  0  0  0  0  1  0  0
  -33.5420  -18.7960   23.2846 C   0  0  0  0  0  0  0  0  0  0  0  0
  -29.1250  -25.8601   18.7800 C   0  0  1  0  0  0  0  0  0  0  0  0
  -27.2035  -23.3348   16.7063 C   0  0  2  0  0  0  0  0  0  0  0  0
  -31.5751  -17.2250   20.3156 C   0  0  0  0  0  0  0  0  0  0  0  0
  -28.4291  -27.1433   19.3152 C   0  0  0  0  0  0  0  0  0  0  0  0
  -25.8770  -11.4848   20.6190 N   0  0  0  0  0  0  0  0  0  0  0  0
  -26.3334  -12.7391   20.4622 N   0  0  0  0  0  0  0  0  0  0  0  0
  -31.5739  -25.5044   18.7777 N   0  0  0  0  0  0  0  0  0  0  0  0
  -30.1046  -12.1015   20.6346 N   0  0  0  0  0  0  0  0  0  0  0  0
  -25.6509  -15.0071   20.4283 N   0  0  0  0  0  0  0  0  0  0  0  0
  -21.8042  -12.7729   21.2078 N   0  0  0  0  0  0  0  0  0  0  0  0
  -34.2360  -27.8795   18.8282 N   0  0  0  0  0  0  0  0  0  0  0  0
  -28.3667  -25.1532   17.7534 N   0  0  0  0  0  0  0  0  0  0  0  0
  -30.9670  -12.3932   22.8503 N   0  0  0  0  0  0  0  0  0  0  0  0
  -27.4830  -21.8892   16.4754 N   0  3  0  0  0  0  0  0  0  0  0  0
  -22.7207  -14.8530   20.9048 O   0  0  0  0  0  0  0  0  0  0  0  0
  -33.0295  -26.8501   20.5333 O   0  0  0  0  0  0  0  0  0  0  0  0
  -30.5651  -26.9097   17.2144 O   0  0  0  0  0  0  0  0  0  0  0  0
  -28.2250  -23.1350   18.8866 O   0  0  0  0  0  0  0  0  0  0  0  0
  -32.0888  -11.1241   21.2871 O   0  0  0  0  0  0  0  0  0  0  0  0
  -21.2378   -7.2494   21.6620 O   0  0  0  0  0  0  0  0  0  0  0  0
  -33.5390  -21.1013   22.6252 O   0  0  0  0  0  0  0  0  0  1  0  0
  -32.2474  -18.6143   22.7240 O   0  0  0  0  0  0  0  0  0  0  0  0
  -22.9916   -3.3365   25.1285 F   0  0  0  0  0  0  0  0  0  0  0  0
  -19.7882   -6.6074   23.9267 F   0  0  0  0  0  0  0  0  0  0  0  0
  -31.1867  -16.3994   19.2999 F   0  0  0  0  0  0  0  0  0  0  0  0
  -30.8964  -18.3911   20.1077 F   0  0  0  0  0  0  0  0  0  0  0  0
  -32.8860  -17.5143   20.0732 F   0  0  0  0  0  0  0  0  0  0  0  0
  1  2  1  0  0  0  0
  1  5  2  0  0  0  0
  2  6  2  0  0  0  0
  3  9  2  0  0  0  0
  3 18  1  0  0  0  0
  4 10  1  0  0  0  0
  4 18  2  0  0  0  0
  5 20  1  0  0  0  0
  6 22  1  0  0  0  0
  7 11  2  0  0  0  0
  7 21  1  0  0  0  0
  8 12  2  0  0  0  0
  8 24  1  0  0  0  0
  9 26  1  0  0  0  0
 10 26  2  0  0  0  0
 11 27  1  0  0  0  0
 12 28  1  0  0  0  0
 13 14  2  0  0  0  0
 13 29  1  0  0  0  0
 14 30  1  0  0  0  0
 15 23  1  0  0  0  0
 15 27  2  0  0  0  0
 16 24  2  0  0  0  0
 16 25  1  0  0  0  0
 17 30  2  0  0  0  0
 17 31  1  0  0  0  0
 18 32  1  0  0  0  0
 19 32  1  0  0  0  0
 19 33  2  0  0  0  0
 19 34  1  0  0  0  0
 20 22  2  0  0  0  0
 20 39  1  0  0  0  0
 21 23  2  0  0  0  0
 21 40  1  0  0  0  0
 22 48  1  0  0  0  0
 23 41  1  0  0  0  0
 24 57  1  0  0  0  0
 25 28  2  0  0  0  0
 25 62  1  0  0  0  0
 26 79  1  0  0  0  0
 27 80  1  0  0  0  0
 28 81  1  0  0  0  0
 29 31  2  0  0  0  0
 29 79  1  0  0  0  0
 30 82  1  0  0  0  0
 31 83  1  0  0  0  0
 32 64  2  0  0  0  0
 33 65  1  0  0  0  0
 33 68  1  0  0  0  0
 34 69  1  0  0  0  0
 34 74  2  0  0  0  0
 35 49  1  0  0  0  0
 35 70  1  0  0  0  0
 35 75  2  0  0  0  0
 36 60  1  0  0  0  0
 36 66  1  0  0  0  0
 36 76  2  0  0  0  0
 37 61  1  0  0  0  0
 37 71  1  0  0  0  0
 37 77  2  0  0  0  0
 38 67  1  0  0  0  0
 38 72  1  0  0  0  0
 38 78  2  0  0  0  0
 39 42  1  0  0  0  0
 40 49  1  0  0  0  0
 41 66  1  0  0  0  0
 42 44  1  0  0  0  0
 43 45  1  0  0  0  0
 43 46  1  0  0  0  0
 44 48  1  0  0  0  0
 45 50  1  0  0  0  0
 46 67  1  0  0  0  0
 47 50  1  0  0  0  0
 47 67  1  0  0  0  0
 48 70  1  0  0  0  0
 49 66  1  0  0  0  0
 50 65  1  0  0  0  0
 51 61  1  0  0  0  0
 52 63  1  0  0  0  0
 53 63  1  0  0  0  0
 54 63  1  0  0  0  0
 55 72  1  0  0  0  0
 56 73  1  0  0  0  0
 57 72  1  0  0  0  0
 58 59  1  0  0  0  0
 58 80  1  0  0  0  0
 59 81  1  0  0  0  0
 60 63  1  0  0  0  0
 60 71  1  0  0  0  0
 61 73  1  0  0  0  0
 62 84  1  0  0  0  0
 62 85  1  0  0  0  0
 62 86  1  0  0  0  0
 64 65  1  0  0  0  0
M  CHG  1  73   1
M  ISO  4  38 100  58 101  72 100  80 101
M  END
> <Batch ID>
0005

> <Smiles>
CNC(C)C(=O)NC(C(=O)N1Cc2cc([101O:1][101CH2:1]COc3ccc(C[100N:0](C)[100C:0](=O)N4CCCC(n5nc(-c6ccc(Oc7ccc(F)cc7F)cc6)c(C(N)=O)c5N)C4)cc3C(F)(F)F)ccc2CC1C(=O)NC1CCCc2ccccc21)C(C)(C)C

> <Shape>
0.226

> <Color>
0.197

> <Negative vol penalty>
0.000

$$$$

  -OEChem-04042320263D

 97106  0     1  0  0  0  0  0999 V2000
  -19.3205  -31.2285   24.0311 C   0  0  0  0  0  0  0  0  0  0  0  0
  -20.6184  -30.8144   24.3130 C   0  0  0  0  0  0  0  0  0  0  0  0
  -23.9201  -14.1880   21.0229 C   0  0  0  0  0  0  0  0  0  0  0  0
  -26.2504  -14.2199   20.3860 C   0  0  0  0  0  0  0  0  0  0  0  0
  -18.4440  -30.3694   23.3696 C   0  0  0  0  0  0  0  0  0  0  0  0
  -21.0401  -29.5403   23.9346 C   0  0  0  0  0  0  0  0  0  0  0  0
  -26.8767  -26.0142   21.7397 C   0  0  0  0  0  0  0  0  0  0  0  0
  -23.8188  -12.8672   20.5864 C   0  0  0  0  0  0  0  0  0  0  0  0
  -26.1491  -12.8990   19.9494 C   0  0  0  0  0  0  0  0  0  0  0  0
  -27.6302  -24.8821   22.0467 C   0  0  0  0  0  0  0  0  0  0  0  0
  -23.0391   -9.3700   19.9723 C   0  0  0  0  0  0  0  0  0  0  0  0
  -22.3701   -8.4644   20.7956 C   0  0  0  0  0  0  0  0  0  0  0  0
  -26.0538  -23.5127   20.8388 C   0  0  0  0  0  0  0  0  0  0  0  0
  -23.9670   -8.8873   22.5585 C   0  0  0  0  0  0  0  0  0  0  0  0
  -25.1359  -14.8645   20.9227 C   0  0  0  0  0  0  0  0  0  0  0  0
  -25.5876  -16.6745   22.6626 C   0  0  0  0  0  0  0  0  0  0  0  0
  -18.8582  -29.0876   22.9744 C   0  0  0  0  0  0  0  0  0  0  0  0
  -25.6983  -25.9025   20.9878 C   0  0  0  0  0  0  0  0  0  0  0  0
  -20.1679  -28.6626   23.2685 C   0  0  0  0  0  0  0  0  0  0  0  0
  -25.2885  -24.6453   20.5214 C   0  0  0  0  0  0  0  0  0  0  0  0
  -24.9333  -12.2226   20.0496 C   0  0  0  0  0  0  0  0  0  0  0  0
  -27.2172  -23.6307   21.5988 C   0  0  0  0  0  0  0  0  0  0  0  0
  -24.1722  -10.0342   20.4421 C   0  0  0  0  0  0  0  0  0  0  0  0
  -22.8340   -8.2231   22.0887 C   0  0  0  0  0  0  0  0  0  0  0  0
  -24.6361   -9.7929   21.7352 C   0  0  0  0  0  0  0  0  0  0  0  0
  -25.2410  -16.2291   21.3729 C   0  0  0  0  0  0  0  0  0  0  0  0
  -25.5459  -18.0446   22.5755 C   0  0  0  0  0  0  0  0  0  0  0  0
  -25.9178  -15.9174   23.8346 C   0  0  0  0  0  0  0  0  0  0  0  0
  -22.6283  -26.5290   21.5229 C   0  0  0  0  0  0  0  0  0  0  0  0
  -29.7897  -21.0416   20.2809 C   0  0  0  0  0  0  0  0  0  0  0  0
  -22.3302  -25.7821   18.3803 C   0  0  0  0  0  0  0  0  0  0  0  0
  -33.2445  -27.8933   14.4236 C   0  0  0  0  0  0  0  0  0  0  0  0
  -23.5760  -24.1360   15.6628 C   0  0  0  0  0  0  0  0  0  0  0  0
  -26.1619  -21.8600   18.0024 C   0  0  0  0  0  0  0  0  0  0  0  0
  -17.8605  -28.1769   22.3038 C   0  0  0  0  0  0  0  0  0  0  0  0
  -24.9111  -27.1368   20.6424 C   0  0  0  0  0  0  0  0  0  0  0  0
  -24.0419  -24.4742   19.6936 C   0  0  0  0  0  0  0  0  0  0  0  0
  -18.5014  -26.9812   21.6040 C   0  0  0  0  0  0  0  0  0  0  0  0
  -23.3719  -21.5809   20.1966 C   0  0  0  0  0  0  0  0  0  0  0  0
  -19.5360  -26.3231   22.5115 C   0  0  0  0  0  0  0  0  0  0  0  0
  -30.1429  -22.0782   15.5097 C   0  0  0  0  0  0  0  0  0  0  0  0
  -31.3230  -23.6053   17.1472 C   0  0  0  0  0  0  0  0  0  0  0  0
  -23.5659  -20.2178   20.8633 C   0  0  0  0  0  0  0  0  0  0  0  0
  -28.6900  -21.7296   15.8472 C   0  0  0  0  0  0  0  0  0  0  0  0
  -31.8078  -23.7226   18.5822 C   0  0  0  0  0  0  0  0  0  0  0  0
  -23.8144  -21.5624   18.7352 C   0  0  0  0  0  0  0  0  0  0  0  0
  -25.3824  -19.7131   19.1769 C   0  0  0  0  0  0  0  0  0  0  0  0
  -20.6703  -27.2972   22.8521 C   0  0  1  0  0  0  0  0  0  0  0  0
  -23.4528  -26.8407   20.3060 C   0  0  1  0  0  0  0  0  0  0  0  0
  -30.8972  -22.1690   16.8493 C   0  0  1  0  0  0  0  0  0  0  0  0
  -25.0024  -19.6971   20.6674 C   0  0  2  0  0  0  0  0  0  0  0  0
  -29.9194  -21.5971   17.8873 C   0  0  2  0  0  0  0  0  0  0  0  0
  -28.5487  -22.0158   17.3403 C   0  0  2  0  0  0  0  0  0  0  0  0
  -30.7413  -23.2954   19.5966 C   0  0  1  0  0  0  0  0  0  0  0  0
  -34.3415  -26.9016   14.4491 C   0  0  0  0  0  0  0  0  0  0  0  0
  -23.0924  -23.6812   13.2427 C   0  0  0  0  0  0  0  0  0  0  0  0
  -20.1780  -23.7764   19.1898 C   0  0  0  0  0  0  0  0  0  0  0  0
  -20.4177  -22.7148   16.9351 C   0  0  0  0  0  0  0  0  0  0  0  0
  -19.6604  -25.0842   17.1219 C   0  0  0  0  0  0  0  0  0  0  0  0
  -26.0900  -25.4354   14.7964 C   0  0  0  0  0  0  0  0  0  0  0  0
  -30.0773  -21.4134   21.7154 C   0  0  0  0  0  0  0  0  0  0  0  0
  -29.6469  -24.3552   19.7607 C   0  0  0  0  0  0  0  0  0  0  0  0
  -31.2925  -29.5545   16.4762 C   0  0  0  0  0  0  0  0  0  0  0  0
  -30.0571  -27.9666   20.9645 C   0  0  0  0  0  0  0  0  0  0  0  0
  -32.3627  -29.9661   15.4756 C   0  0  0  0  0  0  0  0  0  0  0  0
  -31.8767  -29.2712   17.8538 C   0  0  0  0  0  0  0  0  0  0  0  0
  -29.3258  -26.7406   20.4280 C   0  0  0  0  0  0  0  0  0  0  0  0
  -31.2318  -28.4601   20.1264 C   0  0  0  0  0  0  0  0  0  0  0  0
  -29.3571  -22.6995   22.0567 C   0  0  0  0  0  0  0  0  0  1  0  0
  -22.0761  -24.5136   17.6024 C   0  0  1  0  0  0  0  0  0  0  0  0
  -23.8097  -24.5865   14.2321 C   0  0  2  0  0  0  0  0  0  0  0  0
  -20.6055  -24.0249   17.7295 C   0  0  0  0  0  0  0  0  0  0  0  0
  -24.9969  -17.2348   20.5284 N   0  0  0  0  0  0  0  0  0  0  0  0
  -25.1904  -18.3256   21.2891 N   0  0  0  0  0  0  0  0  0  0  0  0
  -23.3029  -25.7102   19.3875 N   0  0  0  0  0  0  0  0  0  0  0  0
  -30.1735  -21.9616   19.2897 N   0  0  0  0  0  0  0  0  0  0  0  0
  -25.1856  -21.0601   18.6187 N   0  0  0  0  0  0  0  0  0  0  0  0
  -25.7790  -19.0242   23.4746 N   0  0  0  0  0  0  0  0  0  0  0  0
  -25.9129  -14.5184   23.7496 N   0  0  0  0  0  0  0  0  0  0  0  0
  -32.2929  -27.7052   13.5165 N   0  0  0  0  0  0  0  0  0  0  0  0
  -21.5884  -27.4128   21.7394 N   0  0  0  0  0  0  0  0  0  0  0  0
  -22.4999  -24.7829   16.2326 N   0  0  0  0  0  0  0  0  0  0  0  0
  -27.4369  -21.3113   17.9391 N   0  0  0  0  0  0  0  0  0  0  0  0
  -33.3288  -28.8783   15.3194 N   0  3  0  0  0  0  0  0  0  0  0  0
  -25.2657  -24.5691   13.9148 N   0  3  0  0  0  0  0  0  0  0  0  0
  -30.2662  -25.5933   20.2706 N   0  3  0  0  0  0  0  0  0  0  0  0
  -30.7835  -28.8303   18.7639 N   0  3  0  0  0  0  0  0  0  0  0  0
  -26.1926  -16.4650   24.9292 O   0  0  0  0  0  0  0  0  0  0  0  0
  -22.9135  -25.5576   22.2133 O   0  0  0  0  0  0  0  0  0  0  0  0
  -29.2558  -19.9536   20.0450 O   0  0  0  0  0  0  0  0  0  0  0  0
  -21.6943  -26.8012   18.0997 O   0  0  0  0  0  0  0  0  0  0  0  0
  -24.2757  -23.2918   16.2180 O   0  0  0  0  0  0  0  0  0  0  0  0
  -25.9168  -22.9825   17.5473 O   0  0  0  0  0  0  0  0  0  0  0  0
  -24.8349  -10.9336   19.6238 O   0  0  0  0  0  0  0  0  0  0  0  0
  -27.9555  -22.5163   21.8997 O   0  0  0  0  0  0  0  0  0  1  0  0
  -22.1905   -7.3545   22.8797 F   0  0  0  0  0  0  0  0  0  0  0  0
  -25.7234  -10.4289   22.1925 F   0  0  0  0  0  0  0  0  0  0  0  0
  1  2  1  0  0  0  0
  1  5  2  0  0  0  0
  2  6  2  0  0  0  0
  3  8  2  0  0  0  0
  3 15  1  0  0  0  0
  4  9  1  0  0  0  0
  4 15  2  0  0  0  0
  5 17  1  0  0  0  0
  6 19  1  0  0  0  0
  7 10  2  0  0  0  0
  7 18  1  0  0  0  0
  8 21  1  0  0  0  0
  9 21  2  0  0  0  0
 10 22  1  0  0  0  0
 11 12  2  0  0  0  0
 11 23  1  0  0  0  0
 12 24  1  0  0  0  0
 13 20  1  0  0  0  0
 13 22  2  0  0  0  0
 14 24  2  0  0  0  0
 14 25  1  0  0  0  0
 15 26  1  0  0  0  0
 16 26  1  0  0  0  0
 16 27  2  0  0  0  0
 16 28  1  0  0  0  0
 17 19  2  0  0  0  0
 17 35  1  0  0  0  0
 18 20  2  0  0  0  0
 18 36  1  0  0  0  0
 19 48  1  0  0  0  0
 20 37  1  0  0  0  0
 21 94  1  0  0  0  0
 22 95  1  0  0  0  0
 23 25  2  0  0  0  0
 23 94  1  0  0  0  0
 24 96  1  0  0  0  0
 25 97  1  0  0  0  0
 26 73  2  0  0  0  0
 27 74  1  0  0  0  0
 27 78  1  0  0  0  0
 28 79  1  0  0  0  0
 28 88  2  0  0  0  0
 29 49  1  0  0  0  0
 29 81  1  0  0  0  0
 29 89  2  0  0  0  0
 30 61  1  0  0  0  0
 30 76  1  0  0  0  0
 30 90  2  0  0  0  0
 31 70  1  0  0  0  0
 31 75  1  0  0  0  0
 31 91  2  0  0  0  0
 32 55  1  0  0  0  0
 32 80  1  0  0  0  0
 32 84  2  0  0  0  0
 33 71  1  0  0  0  0
 33 82  1  0  0  0  0
 33 92  2  0  0  0  0
 34 77  1  0  0  0  0
 34 83  1  0  0  0  0
 34 93  2  0  0  0  0
 35 38  1  0  0  0  0
 36 49  1  0  0  0  0
 37 75  1  0  0  0  0
 38 40  1  0  0  0  0
 39 43  1  0  0  0  0
 39 46  1  0  0  0  0
 40 48  1  0  0  0  0
 41 44  1  0  0  0  0
 41 50  1  0  0  0  0
 42 45  1  0  0  0  0
 42 50  1  0  0  0  0
 43 51  1  0  0  0  0
 44 53  1  0  0  0  0
 45 54  1  0  0  0  0
 46 77  1  0  0  0  0
 47 51  1  0  0  0  0
 47 77  1  0  0  0  0
 48 81  1  0  0  0  0
 49 75  1  0  0  0  0
 50 52  1  0  0  0  0
 51 74  1  0  0  0  0
 52 53  1  0  0  0  0
 52 76  1  0  0  0  0
 53 83  1  0  0  0  0
 54 62  1  0  0  0  0
 54 76  1  0  0  0  0
 56 71  1  0  0  0  0
 57 72  1  0  0  0  0
 58 72  1  0  0  0  0
 59 72  1  0  0  0  0
 60 85  1  0  0  0  0
 61 69  1  0  0  0  0
 62 86  1  0  0  0  0
 63 65  1  0  0  0  0
 63 66  1  0  0  0  0
 64 67  1  0  0  0  0
 64 68  1  0  0  0  0
 65 84  1  0  0  0  0
 66 87  1  0  0  0  0
 67 86  1  0  0  0  0
 68 87  1  0  0  0  0
 69 95  1  0  0  0  0
 70 72  1  0  0  0  0
 70 82  1  0  0  0  0
 71 85  1  0  0  0  0
 73 74  1  0  0  0  0
M  CHG  4  84   1  85   1  86   1  87   1
M  ISO  4  34 100  69 101  83 100  95 101
M  END
> <Batch ID>
0005

> <Smiles>
CNC(C)C(=O)NC(C(=O)N1Cc2cc([101O:1][101CH2:1]CC(=O)N3C(CNCCCNCCCNC(C)=N)CCC4CCC([100NH:0][100C:0](=O)N5CCCC(n6nc(-c7ccc(Oc8ccc(F)cc8F)cc7)c(C(N)=O)c6N)C5)C43)ccc2CC1C(=O)NC1CCCc2ccccc21)C(C)(C)C

> <Shape>
0.204

> <Color>
0.053

> <Negative vol penalty>
0.000

$$$$

  -OEChem-04042320263D

 83 91  0     1  0  0  0  0  0999 V2000
  -25.5239  -22.2643   25.6222 C   0  0  0  0  0  0  0  0  0  0  0  0
  -25.0416  -23.4122   25.0016 C   0  0  0  0  0  0  0  0  0  0  0  0
  -29.3729  -17.7762   20.3915 C   0  0  0  0  0  0  0  0  0  0  0  0
  -27.1676  -18.3322   19.5764 C   0  0  0  0  0  0  0  0  0  0  0  0
  -25.4510  -21.0359   24.9668 C   0  0  0  0  0  0  0  0  0  0  0  0
  -24.4870  -23.3325   23.7247 C   0  0  0  0  0  0  0  0  0  0  0  0
  -20.1803  -25.9639   23.3093 C   0  0  0  0  0  0  0  0  0  0  0  0
  -25.6964  -29.9180   22.4005 C   0  0  0  0  0  0  0  0  0  0  0  0
  -24.3758  -30.3499   22.2780 C   0  0  0  0  0  0  0  0  0  0  0  0
  -28.9707  -16.4536   20.5778 C   0  0  0  0  0  0  0  0  0  0  0  0
  -26.7653  -17.0096   19.7627 C   0  0  0  0  0  0  0  0  0  0  0  0
  -20.2901  -27.3465   23.1674 C   0  0  0  0  0  0  0  0  0  0  0  0
  -28.4916  -13.7035   18.6699 C   0  0  0  0  0  0  0  0  0  0  0  0
  -29.3534  -12.6965   18.2353 C   0  0  0  0  0  0  0  0  0  0  0  0
  -19.9499  -27.1234   20.7897 C   0  0  0  0  0  0  0  0  0  0  0  0
  -24.5226  -30.1183   19.8776 C   0  0  0  0  0  0  0  0  0  0  0  0
  -29.4927  -11.8423   20.4910 C   0  0  0  0  0  0  0  0  0  0  0  0
  -28.4714  -18.7155   19.8909 C   0  0  0  0  0  0  0  0  0  0  0  0
  -29.4556  -20.6425   18.5398 C   0  0  0  0  0  0  0  0  0  0  0  0
  -24.8864  -20.9394   23.6851 C   0  0  0  0  0  0  0  0  0  0  0  0
  -19.9650  -25.1483   22.1891 C   0  0  0  0  0  0  0  0  0  0  0  0
  -24.4077  -22.1018   23.0510 C   0  0  0  0  0  0  0  0  0  0  0  0
  -19.8352  -25.7310   20.9204 C   0  0  0  0  0  0  0  0  0  0  0  0
  -26.4302  -29.5863   21.2615 C   0  0  0  0  0  0  0  0  0  0  0  0
  -23.7889  -30.4501   21.0166 C   0  0  0  0  0  0  0  0  0  0  0  0
  -27.6669  -16.0703   20.2633 C   0  0  0  0  0  0  0  0  0  0  0  0
  -20.1777  -27.9262   21.9071 C   0  0  0  0  0  0  0  0  0  0  0  0
  -28.1304  -13.7800   20.0150 C   0  0  0  0  0  0  0  0  0  0  0  0
  -29.8539  -11.7659   19.1458 C   0  0  0  0  0  0  0  0  0  0  0  0
  -25.8433  -29.6865   20.0001 C   0  0  0  0  0  0  0  0  0  0  0  0
  -28.6309  -12.8494   20.9255 C   0  0  0  0  0  0  0  0  0  0  0  0
  -28.8861  -20.0819   19.6988 C   0  0  0  0  0  0  0  0  0  0  0  0
  -29.6670  -21.9603   18.8641 C   0  0  0  0  0  0  0  0  0  0  0  0
  -29.7656  -20.0271   17.2825 C   0  0  0  0  0  0  0  0  0  0  0  0
  -21.5842  -22.8074   20.7743 C   0  0  0  0  0  0  0  0  0  0  0  0
  -18.9087  -22.5841   18.9538 C   0  0  0  0  0  0  0  0  0  0  0  0
  -16.1170  -24.1013   17.7084 C   0  0  0  0  0  0  0  0  0  0  0  0
  -27.8971  -26.6751   21.0053 C   0  0  0  0  0  0  0  0  0  0  0  0
  -24.8725  -19.5974   22.9971 C   0  0  0  0  0  0  0  0  0  0  0  0
  -19.8222  -23.6610   22.3625 C   0  0  0  0  0  0  0  0  0  0  0  0
  -19.5835  -24.9015   19.6887 C   0  0  0  0  0  0  0  0  0  0  0  0
  -23.9292  -19.5372   21.7984 C   0  0  0  0  0  0  0  0  0  0  0  0
  -29.4064  -24.3392   23.3211 C   0  0  0  0  0  0  0  0  0  0  0  0
  -24.1127  -20.7654   20.9126 C   0  0  0  0  0  0  0  0  0  0  0  0
  -29.4511  -23.0625   22.4795 C   0  0  0  0  0  0  0  0  0  0  0  0
  -28.1350  -25.1373   23.0477 C   0  0  0  0  0  0  0  0  0  0  0  0
  -27.9653  -24.2088   20.7711 C   0  0  0  0  0  0  0  0  0  0  0  0
  -23.7765  -22.0518   21.6765 C   0  0  1  0  0  0  0  0  0  0  0  0
  -20.1161  -22.8797   21.0856 C   0  0  1  0  0  0  0  0  0  0  0  0
  -29.2375  -23.3687   20.9852 C   0  0  2  0  0  0  0  0  0  0  0  0
  -14.1426  -23.6766   16.2188 C   0  0  0  0  0  0  0  0  0  0  0  0
  -20.7069  -22.8391   16.5019 C   0  0  0  0  0  0  0  0  0  0  0  0
  -18.6674  -23.3611   15.1469 C   0  0  0  0  0  0  0  0  0  0  0  0
  -18.8762  -21.1496   16.2819 C   0  0  0  0  0  0  0  0  0  0  0  0
  -21.8439  -30.9896   19.5722 C   0  0  0  0  0  0  0  0  0  0  0  0
  -14.2024  -24.5929   19.9110 C   0  0  0  0  0  0  0  0  0  0  0  0
  -27.8421  -29.1249   21.3959 C   0  0  0  0  0  0  0  0  0  0  0  0
  -21.6707  -31.2214   22.0551 C   0  0  0  0  0  0  0  0  0  0  0  0
  -21.1164  -29.9623   22.7004 C   0  0  0  0  0  0  0  0  0  1  0  0
  -18.4346  -23.2173   17.6680 C   0  0  1  0  0  0  0  0  0  0  0  0
  -14.6688  -23.6505   17.6454 C   0  0  2  0  0  0  0  0  0  0  0  0
  -19.1779  -22.6575   16.4224 C   0  0  0  0  0  0  0  0  0  0  0  0
  -28.7449  -20.9708   20.6857 N   0  0  0  0  0  0  0  0  0  0  0  0
  -29.2288  -22.1033   20.1477 N   0  0  0  0  0  0  0  0  0  0  0  0
  -19.4578  -23.4512   19.9091 N   0  0  0  0  0  0  0  0  0  0  0  0
  -28.0009  -25.4114   21.6100 N   0  0  0  0  0  0  0  0  0  0  0  0
  -30.1833  -22.9992   18.1737 N   0  0  0  0  0  0  0  0  0  0  0  0
  -29.4835  -18.6641   17.1182 N   0  0  0  0  0  0  0  0  0  0  0  0
  -22.3426  -22.2234   21.7709 N   0  0  0  0  0  0  0  0  0  0  0  0
  -16.9876  -23.0348   17.6324 N   0  0  0  0  0  0  0  0  0  0  0  0
  -27.9322  -27.7619   21.8704 N   0  0  0  0  0  0  0  0  0  0  0  0
  -22.4620  -30.8836   20.8942 N   0  0  3  0  0  0  0  0  0  0  0  0
  -13.8123  -24.5412   18.4785 N   0  3  0  0  0  0  0  0  0  0  0  0
  -30.2927  -20.6631   16.3385 O   0  0  0  0  0  0  0  0  0  0  0  0
  -21.9982  -23.2474   19.7081 O   0  0  0  0  0  0  0  0  0  0  0  0
  -18.7896  -21.3661   19.1079 O   0  0  0  0  0  0  0  0  0  0  0  0
  -16.4433  -25.2818   17.8107 O   0  0  0  0  0  0  0  0  0  0  0  0
  -27.7866  -26.8244   19.7836 O   0  0  0  0  0  0  0  0  0  0  0  0
  -27.2741  -14.7799   20.4447 O   0  0  0  0  0  0  0  0  0  0  0  0
  -20.2851  -29.2754   21.7657 O   0  0  0  0  0  0  0  0  0  1  0  0
  -30.6803  -10.7980   18.7281 F   0  0  0  0  0  0  0  0  0  0  0  0
  -26.5408  -29.3711   18.8998 F   0  0  0  0  0  0  0  0  0  0  0  0
  -28.2866  -12.9170   22.2189 F   0  0  0  0  0  0  0  0  0  0  0  0
  1  2  1  0  0  0  0
  1  5  2  0  0  0  0
  2  6  2  0  0  0  0
  3 10  2  0  0  0  0
  3 18  1  0  0  0  0
  4 11  1  0  0  0  0
  4 18  2  0  0  0  0
  5 20  1  0  0  0  0
  6 22  1  0  0  0  0
  7 12  2  0  0  0  0
  7 21  1  0  0  0  0
  8  9  2  0  0  0  0
  8 24  1  0  0  0  0
  9 25  1  0  0  0  0
 10 26  1  0  0  0  0
 11 26  2  0  0  0  0
 12 27  1  0  0  0  0
 13 14  2  0  0  0  0
 13 28  1  0  0  0  0
 14 29  1  0  0  0  0
 15 23  1  0  0  0  0
 15 27  2  0  0  0  0
 16 25  2  0  0  0  0
 16 30  1  0  0  0  0
 17 29  2  0  0  0  0
 17 31  1  0  0  0  0
 18 32  1  0  0  0  0
 19 32  1  0  0  0  0
 19 33  2  0  0  0  0
 19 34  1  0  0  0  0
 20 22  2  0  0  0  0
 20 39  1  0  0  0  0
 21 23  2  0  0  0  0
 21 40  1  0  0  0  0
 22 48  1  0  0  0  0
 23 41  1  0  0  0  0
 24 30  2  0  0  0  0
 24 57  1  0  0  0  0
 25 72  1  0  0  0  0
 26 79  1  0  0  0  0
 27 80  1  0  0  0  0
 28 31  2  0  0  0  0
 28 79  1  0  0  0  0
 29 81  1  0  0  0  0
 30 82  1  0  0  0  0
 31 83  1  0  0  0  0
 32 63  2  0  0  0  0
 33 64  1  0  0  0  0
 33 67  1  0  0  0  0
 34 68  1  0  0  0  0
 34 74  2  0  0  0  0
 35 49  1  0  0  0  0
 35 69  1  0  0  0  0
 35 75  2  0  0  0  0
 36 60  1  0  0  0  0
 36 65  1  0  0  0  0
 36 76  2  0  0  0  0
 37 61  1  0  0  0  0
 37 70  1  0  0  0  0
 37 77  2  0  0  0  0
 38 66  1  0  0  0  0
 38 71  1  0  0  0  0
 38 78  2  0  0  0  0
 39 42  1  0  0  0  0
 40 49  1  0  0  0  0
 41 65  1  0  0  0  0
 42 44  1  0  0  0  0
 43 45  1  0  0  0  0
 43 46  1  0  0  0  0
 44 48  1  0  0  0  0
 45 50  1  0  0  0  0
 46 66  1  0  0  0  0
 47 50  1  0  0  0  0
 47 66  1  0  0  0  0
 48 69  1  0  0  0  0
 49 65  1  0  0  0  0
 50 64  1  0  0  0  0
 51 61  1  0  0  0  0
 52 62  1  0  0  0  0
 53 62  1  0  0  0  0
 54 62  1  0  0  0  0
 55 72  1  0  0  0  0
 56 73  1  0  0  0  0
 57 71  1  0  0  0  0
 58 59  1  0  0  0  0
 58 72  1  0  0  0  0
 59 80  1  0  0  0  0
 60 62  1  0  0  0  0
 60 70  1  0  0  0  0
 61 73  1  0  0  0  0
 63 64  1  0  0  0  0
M  CHG  1  73   1
M  ISO  4  38 100  59 101  71 100  80 101
M  END
> <Batch ID>
0005

> <Smiles>
CNC(C)C(=O)NC(C(=O)N1Cc2cc([101O:1][101CH2:1]CN(C)c3ccc(C[100NH:0][100C:0](=O)N4CCCC(n5nc(-c6ccc(Oc7ccc(F)cc7F)cc6)c(C(N)=O)c5N)C4)c(F)c3)ccc2CC1C(=O)NC1CCCc2ccccc21)C(C)(C)C

> <Shape>
0.221

> <Color>
0.061

> <Negative vol penalty>
0.000

$$$$

  -OEChem-04042320263D

 82 91  0     1  0  0  0  0  0999 V2000
  -25.0298  -26.0749   15.0305 C   0  0  0  0  0  0  0  0  0  0  0  0
  -25.8500  -25.0437   15.4770 C   0  0  0  0  0  0  0  0  0  0  0  0
  -32.6427  -17.1351   24.1706 C   0  0  0  0  0  0  0  0  0  0  0  0
  -23.2914   -9.7942   19.9477 C   0  0  0  0  0  0  0  0  0  0  0  0
  -23.7503   -9.9705   22.3132 C   0  0  0  0  0  0  0  0  0  0  0  0
  -24.2114  -26.7533   15.9327 C   0  0  0  0  0  0  0  0  0  0  0  0
  -25.8532  -24.6912   16.8261 C   0  0  0  0  0  0  0  0  0  0  0  0
  -32.6884  -15.7414   24.1380 C   0  0  0  0  0  0  0  0  0  0  0  0
  -26.5661  -19.0751   19.1621 C   0  0  0  0  0  0  0  0  0  0  0  0
  -31.4739  -17.8033   23.8057 C   0  0  0  0  0  0  0  0  0  0  0  0
  -22.5683   -8.6233   20.1752 C   0  0  0  0  0  0  0  0  0  0  0  0
  -23.0272   -8.7996   22.5407 C   0  0  0  0  0  0  0  0  0  0  0  0
  -27.6715  -18.4151   19.6971 C   0  0  0  0  0  0  0  0  0  0  0  0
  -23.2309   -5.3584   20.7462 C   0  0  0  0  0  0  0  0  0  0  0  0
  -23.4586   -4.2805   19.8908 C   0  0  0  0  0  0  0  0  0  0  0  0
  -30.3966  -15.6841   23.3753 C   0  0  0  0  0  0  0  0  0  0  0  0
  -26.9700  -19.0513   21.9157 C   0  0  0  0  0  0  0  0  0  0  0  0
  -21.1341   -4.3115   19.2329 C   0  0  0  0  0  0  0  0  0  0  0  0
  -23.8824  -10.4678   21.0167 C   0  0  0  0  0  0  0  0  0  0  0  0
  -24.1356  -12.9952   20.7801 C   0  0  0  0  0  0  0  0  0  0  0  0
  -31.5654  -15.0159   23.7403 C   0  0  0  0  0  0  0  0  0  0  0  0
  -24.1974  -26.4026   17.2918 C   0  0  0  0  0  0  0  0  0  0  0  0
  -25.6587  -19.7385   20.0005 C   0  0  0  0  0  0  0  0  0  0  0  0
  -25.0349  -25.3665   17.7475 C   0  0  0  0  0  0  0  0  0  0  0  0
  -25.8525  -19.7168   21.3890 C   0  0  0  0  0  0  0  0  0  0  0  0
  -30.3509  -17.0778   23.4080 C   0  0  0  0  0  0  0  0  0  0  0  0
  -22.4362   -8.1260   21.4717 C   0  0  0  0  0  0  0  0  0  0  0  0
  -27.8752  -18.4056   21.0738 C   0  0  0  0  0  0  0  0  0  0  0  0
  -21.9548   -5.9129   20.8450 C   0  0  0  0  0  0  0  0  0  0  0  0
  -22.4102   -3.7570   19.1341 C   0  0  0  0  0  0  0  0  0  0  0  0
  -20.9064   -5.3895   20.0883 C   0  0  0  0  0  0  0  0  0  0  0  0
  -24.6299  -11.6771   20.7822 C   0  0  0  0  0  0  0  0  0  0  0  0
  -25.2344  -13.7736   20.5098 C   0  0  0  0  0  0  0  0  0  0  0  0
  -22.8023  -13.4732   21.0026 C   0  0  0  0  0  0  0  0  0  0  0  0
  -24.7092  -22.7531   20.3391 C   0  0  0  0  0  0  0  0  0  0  0  0
  -22.6041  -21.4455   22.4323 C   0  0  0  0  0  0  0  0  0  0  0  0
  -21.8298  -18.8720   24.5358 C   0  0  0  0  0  0  0  0  0  0  0  0
  -31.0558  -13.0339   21.3161 C   0  0  0  0  0  0  0  0  0  0  0  0
  -23.3310  -27.1962   18.2375 C   0  0  0  0  0  0  0  0  0  0  0  0
  -24.4568  -20.4232   19.4097 C   0  0  0  0  0  0  0  0  0  0  0  0
  -24.8967  -20.3967   22.3338 C   0  0  0  0  0  0  0  0  0  0  0  0
  -23.1154  -26.5125   19.5852 C   0  0  0  0  0  0  0  0  0  0  0  0
  -30.5508  -11.5427   24.5826 C   0  0  0  0  0  0  0  0  0  0  0  0
  -29.4519  -13.6777   18.2759 C   0  0  0  0  0  0  0  0  0  0  0  0
  -31.1468  -12.8734   25.0241 C   0  0  0  0  0  0  0  0  0  0  0  0
  -24.4380  -25.9884   20.1356 C   0  0  0  0  0  0  0  0  0  0  0  0
  -27.9863  -13.3493   18.5535 C   0  0  0  0  0  0  0  0  0  0  0  0
  -30.3720  -12.6783   18.9658 C   0  0  0  0  0  0  0  0  0  0  0  0
  -29.8775  -11.8950   23.2654 C   0  0  0  0  0  0  0  0  0  0  0  0
  -28.7011  -12.2756   20.7488 C   0  0  0  0  0  0  0  0  0  0  0  0
  -31.6153  -13.5052   23.7067 C   0  0  1  0  0  0  0  0  0  0  0  0
  -25.0479  -24.9385   19.1989 C   0  0  1  0  0  0  0  0  0  0  0  0
  -23.8768  -21.5023   20.3189 C   0  0  1  0  0  0  0  0  0  0  0  0
  -27.7249  -13.2553   20.0659 C   0  0  2  0  0  0  0  0  0  0  0  0
  -20.4525  -17.4848   26.1093 C   0  0  0  0  0  0  0  0  0  0  0  0
  -23.6104  -23.4485   24.5024 C   0  0  0  0  0  0  0  0  0  0  0  0
  -22.5382  -22.0464   26.2780 C   0  0  0  0  0  0  0  0  0  0  0  0
  -21.1339  -23.1000   24.5058 C   0  0  0  0  0  0  0  0  0  0  0  0
  -20.6188  -17.3416   22.3109 C   0  0  0  0  0  0  0  0  0  0  0  0
  -29.1014  -17.7925   23.0172 C   0  0  0  0  0  0  0  0  0  1  0  0
  -22.6163  -21.1403   23.9107 C   0  0  1  0  0  0  0  0  0  0  0  0
  -20.5612  -18.0553   24.7038 C   0  0  2  0  0  0  0  0  0  0  0  0
  -22.4940  -22.4225   24.7815 C   0  0  0  0  0  0  0  0  0  0  0  0
  -25.9408  -11.6176   20.5329 N   0  0  0  0  0  0  0  0  0  0  0  0
  -26.2794  -12.9081   20.3714 N   0  0  0  0  0  0  0  0  0  0  0  0
  -23.7400  -21.0579   21.7074 N   0  0  0  0  0  0  0  0  0  0  0  0
  -30.0922  -12.5940   20.3997 N   0  0  0  0  0  0  0  0  0  0  0  0
  -30.7518  -12.9102   22.6749 N   0  0  0  0  0  0  0  0  0  0  0  0
  -25.3990  -15.1071   20.3791 N   0  0  0  0  0  0  0  0  0  0  0  0
  -21.7926  -12.5378   21.2675 N   0  0  0  0  0  0  0  0  0  0  0  0
  -24.3750  -23.6672   19.3582 N   0  0  0  0  0  0  0  0  0  0  0  0
  -21.5568  -20.1627   24.1345 N   0  0  0  0  0  0  0  0  0  0  0  0
  -20.5416  -16.9236   23.7344 N   0  3  0  0  0  0  0  0  0  0  0  0
  -22.5116  -14.6924   20.9515 O   0  0  0  0  0  0  0  0  0  0  0  0
  -25.5885  -22.8801   21.1832 O   0  0  0  0  0  0  0  0  0  0  0  0
  -21.6199  -22.0006   21.9375 O   0  0  0  0  0  0  0  0  0  0  0  0
  -22.9505  -18.4123   24.7436 O   0  0  0  0  0  0  0  0  0  0  0  0
  -32.1420  -13.4938   20.9412 O   0  0  0  0  0  0  0  0  0  0  0  0
  -21.7305   -6.9836   21.6941 O   0  0  0  0  0  0  0  0  0  0  0  0
  -28.9611  -17.7582   21.6022 O   0  0  0  0  0  0  0  0  0  1  0  0
  -22.6293   -2.7229   18.3115 F   0  0  0  0  0  0  0  0  0  0  0  0
  -19.6785   -5.9188   20.1782 F   0  0  0  0  0  0  0  0  0  0  0  0
  1  2  1  0  0  0  0
  1  6  2  0  0  0  0
  2  7  2  0  0  0  0
  3  8  1  0  0  0  0
  3 10  2  0  0  0  0
  4 11  2  0  0  0  0
  4 19  1  0  0  0  0
  5 12  1  0  0  0  0
  5 19  2  0  0  0  0
  6 22  1  0  0  0  0
  7 24  1  0  0  0  0
  8 21  2  0  0  0  0
  9 13  2  0  0  0  0
  9 23  1  0  0  0  0
 10 26  1  0  0  0  0
 11 27  1  0  0  0  0
 12 27  2  0  0  0  0
 13 28  1  0  0  0  0
 14 15  2  0  0  0  0
 14 29  1  0  0  0  0
 15 30  1  0  0  0  0
 16 21  1  0  0  0  0
 16 26  2  0  0  0  0
 17 25  1  0  0  0  0
 17 28  2  0  0  0  0
 18 30  2  0  0  0  0
 18 31  1  0  0  0  0
 19 32  1  0  0  0  0
 20 32  1  0  0  0  0
 20 33  2  0  0  0  0
 20 34  1  0  0  0  0
 21 51  1  0  0  0  0
 22 24  2  0  0  0  0
 22 39  1  0  0  0  0
 23 25  2  0  0  0  0
 23 40  1  0  0  0  0
 24 52  1  0  0  0  0
 25 41  1  0  0  0  0
 26 60  1  0  0  0  0
 27 79  1  0  0  0  0
 28 80  1  0  0  0  0
 29 31  2  0  0  0  0
 29 79  1  0  0  0  0
 30 81  1  0  0  0  0
 31 82  1  0  0  0  0
 32 64  2  0  0  0  0
 33 65  1  0  0  0  0
 33 69  1  0  0  0  0
 34 70  1  0  0  0  0
 34 74  2  0  0  0  0
 35 53  1  0  0  0  0
 35 71  1  0  0  0  0
 35 75  2  0  0  0  0
 36 61  1  0  0  0  0
 36 66  1  0  0  0  0
 36 76  2  0  0  0  0
 37 62  1  0  0  0  0
 37 72  1  0  0  0  0
 37 77  2  0  0  0  0
 38 67  1  0  0  0  0
 38 68  1  0  0  0  0
 38 78  2  0  0  0  0
 39 42  1  0  0  0  0
 40 53  1  0  0  0  0
 41 66  1  0  0  0  0
 42 46  1  0  0  0  0
 43 45  1  0  0  0  0
 43 49  1  0  0  0  0
 44 47  1  0  0  0  0
 44 48  1  0  0  0  0
 45 51  1  0  0  0  0
 46 52  1  0  0  0  0
 47 54  1  0  0  0  0
 48 67  1  0  0  0  0
 49 68  1  0  0  0  0
 50 54  1  0  0  0  0
 50 67  1  0  0  0  0
 51 68  1  0  0  0  0
 52 71  1  0  0  0  0
 53 66  1  0  0  0  0
 54 65  1  0  0  0  0
 55 62  1  0  0  0  0
 56 63  1  0  0  0  0
 57 63  1  0  0  0  0
 58 63  1  0  0  0  0
 59 73  1  0  0  0  0
 60 80  1  0  0  0  0
 61 63  1  0  0  0  0
 61 72  1  0  0  0  0
 62 73  1  0  0  0  0
 64 65  1  0  0  0  0
M  CHG  1  73   1
M  ISO  4  38 100  60 101  68 100  80 101
M  END
> <Batch ID>
0005

> <Smiles>
CNC(C)C(=O)NC(C(=O)N1Cc2cc([101O:1][101CH2:1]c3cccc(C4CCC[100N:0]4[100C:0](=O)N4CCCC(n5nc(-c6ccc(Oc7ccc(F)cc7F)cc6)c(C(N)=O)c5N)C4)c3)ccc2CC1C(=O)NC1CCCc2ccccc21)C(C)(C)C

> <Shape>
0.161

> <Color>
0.183

> <Negative vol penalty>
0.000

$$$$

  -OEChem-04042320263D

 85 93  0     1  0  0  0  0  0999 V2000
  -28.9952  -32.9177   14.2008 C   0  0  0  0  0  0  0  0  0  0  0  0
  -29.1765  -31.9345   15.1682 C   0  0  0  0  0  0  0  0  0  0  0  0
  -22.9525  -10.1341   22.4144 C   0  0  0  0  0  0  0  0  0  0  0  0
  -23.7734   -9.7538   20.1742 C   0  0  0  0  0  0  0  0  0  0  0  0
  -28.1499  -33.9969   14.4552 C   0  0  0  0  0  0  0  0  0  0  0  0
  -28.5134  -32.0305   16.3911 C   0  0  0  0  0  0  0  0  0  0  0  0
  -26.4649  -27.6320   17.8408 C   0  0  0  0  0  0  0  0  0  0  0  0
  -29.5957  -19.5342   21.1367 C   0  0  0  0  0  0  0  0  0  0  0  0
  -29.2187  -20.8660   21.3090 C   0  0  0  0  0  0  0  0  0  0  0  0
  -22.2946   -8.9046   22.3820 C   0  0  0  0  0  0  0  0  0  0  0  0
  -23.1155   -8.5243   20.1418 C   0  0  0  0  0  0  0  0  0  0  0  0
  -27.3231  -26.6800   18.3892 C   0  0  0  0  0  0  0  0  0  0  0  0
  -23.0962   -5.6401   22.7468 C   0  0  0  0  0  0  0  0  0  0  0  0
  -23.2061   -4.8164   23.8671 C   0  0  0  0  0  0  0  0  0  0  0  0
  -26.6076  -27.3186   20.6026 C   0  0  0  0  0  0  0  0  0  0  0  0
  -27.8109  -20.7209   19.3509 C   0  0  0  0  0  0  0  0  0  0  0  0
  -20.8071   -4.8778   24.1474 C   0  0  0  0  0  0  0  0  0  0  0  0
  -23.6919  -10.5587   21.3104 C   0  0  0  0  0  0  0  0  0  0  0  0
  -25.6853  -12.0792   21.7818 C   0  0  0  0  0  0  0  0  0  0  0  0
  -27.4685  -34.1011   15.6781 C   0  0  0  0  0  0  0  0  0  0  0  0
  -25.6782  -28.4434   18.6711 C   0  0  0  0  0  0  0  0  0  0  0  0
  -27.6592  -33.1128   16.6626 C   0  0  0  0  0  0  0  0  0  0  0  0
  -25.7382  -28.2785   20.0622 C   0  0  0  0  0  0  0  0  0  0  0  0
  -29.0803  -18.7957   20.0715 C   0  0  0  0  0  0  0  0  0  0  0  0
  -28.1879  -19.3890   19.1786 C   0  0  0  0  0  0  0  0  0  0  0  0
  -28.3263  -21.4594   20.4161 C   0  0  0  0  0  0  0  0  0  0  0  0
  -22.3760   -8.0997   21.2458 C   0  0  0  0  0  0  0  0  0  0  0  0
  -27.3968  -26.5251   19.7704 C   0  0  0  0  0  0  0  0  0  0  0  0
  -21.8418   -6.0827   22.3268 C   0  0  0  0  0  0  0  0  0  0  0  0
  -22.0615   -4.4352   24.5674 C   0  0  0  0  0  0  0  0  0  0  0  0
  -20.6973   -5.7016   23.0271 C   0  0  0  0  0  0  0  0  0  0  0  0
  -24.3713  -11.8290   21.3430 C   0  0  0  0  0  0  0  0  0  0  0  0
  -25.8522  -13.4319   21.6124 C   0  0  0  0  0  0  0  0  0  0  0  0
  -26.6673  -11.1700   22.2965 C   0  0  0  0  0  0  0  0  0  0  0  0
  -25.4718  -31.5693   19.2093 C   0  0  0  0  0  0  0  0  0  0  0  0
  -22.9351  -30.6933   21.0314 C   0  0  0  0  0  0  0  0  0  0  0  0
  -21.3714  -28.2596   22.8421 C   0  0  0  0  0  0  0  0  0  0  0  0
  -25.2631  -18.0629   18.5543 C   0  0  0  0  0  0  0  0  0  0  0  0
  -26.6020  -35.3105   15.9255 C   0  0  0  0  0  0  0  0  0  0  0  0
  -24.7377  -29.4474   18.0629 C   0  0  0  0  0  0  0  0  0  0  0  0
  -24.8996  -29.1106   20.9964 C   0  0  0  0  0  0  0  0  0  0  0  0
  -25.6451  -35.1436   17.1031 C   0  0  0  0  0  0  0  0  0  0  0  0
  -22.4885  -17.0559   20.5453 C   0  0  0  0  0  0  0  0  0  0  0  0
  -26.3774  -34.5608   18.3076 C   0  0  0  0  0  0  0  0  0  0  0  0
  -22.8365  -15.6255   20.9609 C   0  0  0  0  0  0  0  0  0  0  0  0
  -22.9569  -17.3604   19.1241 C   0  0  0  0  0  0  0  0  0  0  0  0
  -24.7326  -15.6591   19.2868 C   0  0  0  0  0  0  0  0  0  0  0  0
  -26.9381  -33.1689   17.9919 C   0  0  1  0  0  0  0  0  0  0  0  0
  -24.3630  -30.5727   19.0224 C   0  0  1  0  0  0  0  0  0  0  0  0
  -24.3297  -15.3229   20.7328 C   0  0  2  0  0  0  0  0  0  0  0  0
  -19.3320  -27.8527   24.2467 C   0  0  0  0  0  0  0  0  0  0  0  0
  -24.2168  -32.2318   23.3336 C   0  0  0  0  0  0  0  0  0  0  0  0
  -22.6818  -31.0263   24.9017 C   0  0  0  0  0  0  0  0  0  0  0  0
  -21.7401  -32.5184   23.1383 C   0  0  0  0  0  0  0  0  0  0  0  0
  -20.3879  -26.1532   21.0105 C   0  0  0  0  0  0  0  0  0  0  0  0
  -27.6243  -18.6185   18.0299 C   0  0  0  0  0  0  0  0  0  0  0  0
  -28.4353  -23.6182   21.6625 C   0  0  0  0  0  0  0  0  0  0  0  0
  -27.8450  -25.0139   21.5512 C   0  0  0  0  0  0  0  0  0  1  0  0
  -22.7423  -30.2942   22.4745 C   0  0  1  0  0  0  0  0  0  0  0  0
  -19.9315  -27.7789   22.8510 C   0  0  2  0  0  0  0  0  0  0  0  0
  -29.4995  -17.3718   19.9069 C   0  0  0  0  0  0  0  0  0  0  0  0
  -22.8626  -31.5032   23.4448 C   0  0  0  0  0  0  0  0  0  0  0  0
  -23.7476  -12.9341   20.9263 N   0  0  0  0  0  0  0  0  0  0  0  0
  -24.6737  -13.8919   21.1026 N   0  0  0  0  0  0  0  0  0  0  0  0
  -24.0001  -30.0830   20.3538 N   0  0  0  0  0  0  0  0  0  0  0  0
  -24.3815  -17.0534   18.9747 N   0  0  0  0  0  0  0  0  0  0  0  0
  -26.8904  -14.2609   21.8514 N   0  0  0  0  0  0  0  0  0  0  0  0
  -26.3308   -9.8138   22.4042 N   0  0  0  0  0  0  0  0  0  0  0  0
  -27.9516  -22.7816   20.5881 N   0  0  0  0  0  0  0  0  0  0  0  0
  -25.8852  -32.1772   18.0392 N   0  0  0  0  0  0  0  0  0  0  0  0
  -21.4599  -29.6018   22.5387 N   0  0  0  0  0  0  0  0  0  0  0  0
  -26.5970  -17.6894   18.4448 N   0  0  0  0  0  0  0  0  0  0  0  0
  -19.8538  -26.3671   22.3802 N   0  3  0  0  0  0  0  0  0  0  0  0
  -27.8038  -11.5518   22.6657 O   0  0  0  0  0  0  0  0  0  0  0  0
  -25.9183  -31.7729   20.3323 O   0  0  0  0  0  0  0  0  0  0  0  0
  -22.1646  -31.5108   20.5219 O   0  0  0  0  0  0  0  0  0  0  0  0
  -22.3222  -27.5194   23.0840 O   0  0  0  0  0  0  0  0  0  0  0  0
  -24.8900  -19.2134   18.3008 O   0  0  0  0  0  0  0  0  0  0  0  0
  -21.7343   -6.8998   21.2140 O   0  0  0  0  0  0  0  0  0  0  0  0
  -28.2342  -25.5971   20.3083 O   0  0  0  0  0  0  0  0  0  1  0  0
  -22.1671   -3.6430   25.6423 F   0  0  0  0  0  0  0  0  0  0  0  0
  -19.4894   -6.1226   22.6278 F   0  0  0  0  0  0  0  0  0  0  0  0
  -30.3764  -16.9473   20.8633 F   0  0  0  0  0  0  0  0  0  0  0  0
  -28.4599  -16.4885   19.9574 F   0  0  0  0  0  0  0  0  0  0  0  0
  -30.1186  -17.1434   18.7131 F   0  0  0  0  0  0  0  0  0  0  0  0
  1  2  1  0  0  0  0
  1  5  2  0  0  0  0
  2  6  2  0  0  0  0
  3 10  2  0  0  0  0
  3 18  1  0  0  0  0
  4 11  1  0  0  0  0
  4 18  2  0  0  0  0
  5 20  1  0  0  0  0
  6 22  1  0  0  0  0
  7 12  2  0  0  0  0
  7 21  1  0  0  0  0
  8  9  2  0  0  0  0
  8 24  1  0  0  0  0
  9 26  1  0  0  0  0
 10 27  1  0  0  0  0
 11 27  2  0  0  0  0
 12 28  1  0  0  0  0
 13 14  2  0  0  0  0
 13 29  1  0  0  0  0
 14 30  1  0  0  0  0
 15 23  1  0  0  0  0
 15 28  2  0  0  0  0
 16 25  1  0  0  0  0
 16 26  2  0  0  0  0
 17 30  2  0  0  0  0
 17 31  1  0  0  0  0
 18 32  1  0  0  0  0
 19 32  1  0  0  0  0
 19 33  2  0  0  0  0
 19 34  1  0  0  0  0
 20 22  2  0  0  0  0
 20 39  1  0  0  0  0
 21 23  2  0  0  0  0
 21 40  1  0  0  0  0
 22 48  1  0  0  0  0
 23 41  1  0  0  0  0
 24 25  2  0  0  0  0
 24 61  1  0  0  0  0
 25 56  1  0  0  0  0
 26 69  1  0  0  0  0
 27 79  1  0  0  0  0
 28 80  1  0  0  0  0
 29 31  2  0  0  0  0
 29 79  1  0  0  0  0
 30 81  1  0  0  0  0
 31 82  1  0  0  0  0
 32 63  2  0  0  0  0
 33 64  1  0  0  0  0
 33 67  1  0  0  0  0
 34 68  1  0  0  0  0
 34 74  2  0  0  0  0
 35 49  1  0  0  0  0
 35 70  1  0  0  0  0
 35 75  2  0  0  0  0
 36 59  1  0  0  0  0
 36 65  1  0  0  0  0
 36 76  2  0  0  0  0
 37 60  1  0  0  0  0
 37 71  1  0  0  0  0
 37 77  2  0  0  0  0
 38 66  1  0  0  0  0
 38 72  1  0  0  0  0
 38 78  2  0  0  0  0
 39 42  1  0  0  0  0
 40 49  1  0  0  0  0
 41 65  1  0  0  0  0
 42 44  1  0  0  0  0
 43 45  1  0  0  0  0
 43 46  1  0  0  0  0
 44 48  1  0  0  0  0
 45 50  1  0  0  0  0
 46 66  1  0  0  0  0
 47 50  1  0  0  0  0
 47 66  1  0  0  0  0
 48 70  1  0  0  0  0
 49 65  1  0  0  0  0
 50 64  1  0  0  0  0
 51 60  1  0  0  0  0
 52 62  1  0  0  0  0
 53 62  1  0  0  0  0
 54 62  1  0  0  0  0
 55 73  1  0  0  0  0
 56 72  1  0  0  0  0
 57 58  1  0  0  0  0
 57 69  1  0  0  0  0
 58 80  1  0  0  0  0
 59 62  1  0  0  0  0
 59 71  1  0  0  0  0
 60 73  1  0  0  0  0
 61 83  1  0  0  0  0
 61 84  1  0  0  0  0
 61 85  1  0  0  0  0
 63 64  1  0  0  0  0
M  CHG  1  73   1
M  ISO  4  38 100  58 101  72 100  80 101
M  END
> <Batch ID>
0005

> <Smiles>
CNC(C)C(=O)NC(C(=O)N1Cc2cc([101O:1][101CH2:1]CNc3ccc(C(F)(F)F)c(C[100NH:0][100C:0](=O)N4CCCC(n5nc(-c6ccc(Oc7ccc(F)cc7F)cc6)c(C(N)=O)c5N)C4)c3)ccc2CC1C(=O)NC1CCCc2ccccc21)C(C)(C)C

> <Shape>
0.284

> <Color>
0.096

> <Negative vol penalty>
0.000

$$$$

  -OEChem-04042320263D

100110  0     1  0  0  0  0  0999 V2000
  -31.2488  -24.3692   17.1683 C   0  0  0  0  0  0  0  0  0  0  0  0
  -29.9048  -24.3756   17.5274 C   0  0  0  0  0  0  0  0  0  0  0  0
  -27.2460  -11.8862   18.7264 C   0  0  0  0  0  0  0  0  0  0  0  0
  -27.4370  -11.0507   20.9853 C   0  0  0  0  0  0  0  0  0  0  0  0
  -26.0030  -21.3317   20.0257 C   0  0  0  0  0  0  0  0  0  0  0  0
  -32.1856  -25.0241   17.9668 C   0  0  0  0  0  0  0  0  0  0  0  0
  -29.4969  -25.0360   18.6858 C   0  0  0  0  0  0  0  0  0  0  0  0
  -25.5983  -22.2098   21.0310 C   0  0  0  0  0  0  0  0  0  0  0  0
  -25.3334  -27.8277   17.9669 C   0  0  0  0  0  0  0  0  0  0  0  0
  -26.2250  -10.9700   18.4739 C   0  0  0  0  0  0  0  0  0  0  0  0
  -26.4161  -10.1345   20.7328 C   0  0  0  0  0  0  0  0  0  0  0  0
  -24.1134  -27.1538   17.9301 C   0  0  0  0  0  0  0  0  0  0  0  0
  -23.0417  -10.1557   20.5493 C   0  0  0  0  0  0  0  0  0  0  0  0
  -22.0456  -10.0150   21.5155 C   0  0  0  0  0  0  0  0  0  0  0  0
  -26.9588  -21.0100   22.6269 C   0  0  0  0  0  0  0  0  0  0  0  0
  -23.6984  -27.7927   20.2190 C   0  0  0  0  0  0  0  0  0  0  0  0
  -22.6155   -7.6802   21.7631 C   0  0  0  0  0  0  0  0  0  0  0  0
  -27.8520  -11.9266   19.9821 C   0  0  0  0  0  0  0  0  0  0  0  0
  -26.8855  -20.2926   20.3210 C   0  0  0  0  0  0  0  0  0  0  0  0
  -30.1428  -12.9732   19.5767 C   0  0  0  0  0  0  0  0  0  0  0  0
  -26.0762  -22.0490   22.3316 C   0  0  0  0  0  0  0  0  0  0  0  0
  -31.7876  -25.7010   19.1304 C   0  0  0  0  0  0  0  0  0  0  0  0
  -25.7507  -28.4810   19.1353 C   0  0  0  0  0  0  0  0  0  0  0  0
  -30.4294  -25.6994   19.5013 C   0  0  0  0  0  0  0  0  0  0  0  0
  -24.9229  -28.4763   20.2671 C   0  0  0  0  0  0  0  0  0  0  0  0
  -27.3634  -20.1317   21.6215 C   0  0  0  0  0  0  0  0  0  0  0  0
  -25.8101  -10.0941   19.4770 C   0  0  0  0  0  0  0  0  0  0  0  0
  -23.2971  -27.1337   19.0572 C   0  0  0  0  0  0  0  0  0  0  0  0
  -23.8247   -9.0586   20.1899 C   0  0  0  0  0  0  0  0  0  0  0  0
  -21.8325   -8.7773   22.1225 C   0  0  0  0  0  0  0  0  0  0  0  0
  -23.6116   -7.8209   20.7968 C   0  0  0  0  0  0  0  0  0  0  0  0
  -28.9071  -12.8724   20.2435 C   0  0  0  0  0  0  0  0  0  0  0  0
  -30.7815  -14.0210   20.1938 C   0  0  0  0  0  0  0  0  0  0  0  0
  -27.2901  -19.3861   19.2406 C   0  0  0  0  0  0  0  0  0  0  0  0
  -30.6666  -12.1897   18.4962 C   0  0  0  0  0  0  0  0  0  0  0  0
  -28.2082  -28.1648   21.1264 C   0  0  0  0  0  0  0  0  0  0  0  0
  -24.1551  -18.4824   18.7749 C   0  0  0  0  0  0  0  0  0  0  0  0
  -26.9680  -30.8475   22.4633 C   0  0  0  0  0  0  0  0  0  0  0  0
  -23.6877  -32.1077   23.2811 C   0  0  0  0  0  0  0  0  0  0  0  0
  -28.8188  -18.8032   23.1910 C   0  0  0  0  0  0  0  0  0  0  0  0
  -32.8431  -26.3546   19.9869 C   0  0  0  0  0  0  0  0  0  0  0  0
  -27.0573  -29.2261   19.1503 C   0  0  0  0  0  0  0  0  0  0  0  0
  -25.3158  -29.1794   21.5398 C   0  0  0  0  0  0  0  0  0  0  0  0
  -32.2774  -27.3482   20.9984 C   0  0  0  0  0  0  0  0  0  0  0  0
  -31.0387  -16.2958   24.4001 C   0  0  0  0  0  0  0  0  0  0  0  0
  -25.8423  -24.4665   23.2120 C   0  0  0  0  0  0  0  0  0  0  0  0
  -26.6855  -23.7251   24.2018 C   0  0  0  0  0  0  0  0  0  0  0  0
  -31.0756  -26.7483   21.7212 C   0  0  0  0  0  0  0  0  0  0  0  0
  -30.8610  -15.1448   23.4072 C   0  0  0  0  0  0  0  0  0  0  0  0
  -26.8488  -15.8696   18.3674 C   0  0  0  0  0  0  0  0  0  0  0  0
  -25.0350  -16.4724   20.0098 C   0  0  0  0  0  0  0  0  0  0  0  0
  -29.7215  -17.0213   24.6691 C   0  0  0  0  0  0  0  0  0  0  0  0
  -26.9236  -17.3290   17.9382 C   0  0  0  0  0  0  0  0  0  0  0  0
  -28.8333  -16.3323   22.4770 C   0  0  0  0  0  0  0  0  0  0  0  0
  -25.6413  -22.9859   23.4059 C   0  0  0  0  0  0  0  0  0  0  0  0
  -29.9445  -26.4257   20.7372 C   0  0  1  0  0  0  0  0  0  0  0  0
  -27.6169  -29.4228   20.5558 C   0  0  1  0  0  0  0  0  0  0  0  0
  -25.2328  -17.9537   19.6764 C   0  0  1  0  0  0  0  0  0  0  0  0
  -30.1453  -15.6124   22.1248 C   0  0  2  0  0  0  0  0  0  0  0  0
  -25.4682  -15.5231   18.8988 C   0  0  1  0  0  0  0  0  0  0  0  0
  -22.8504  -34.4641   23.4893 C   0  0  0  0  0  0  0  0  0  0  0  0
  -27.6040  -30.5041   25.4277 C   0  0  0  0  0  0  0  0  0  0  0  0
  -25.5327  -31.8092   25.9518 C   0  0  0  0  0  0  0  0  0  0  0  0
  -27.3894  -32.8794   24.6752 C   0  0  0  0  0  0  0  0  0  0  0  0
  -21.5229  -31.6350   21.3191 C   0  0  0  0  0  0  0  0  0  0  0  0
  -18.4346  -22.5652   18.3460 C   0  0  0  0  0  0  0  0  0  0  0  0
  -21.3568  -20.2314   18.9380 C   0  0  0  0  0  0  0  0  0  0  0  0
  -21.0041  -24.3635   18.7491 C   0  0  0  0  0  0  0  0  0  0  0  0
  -21.6949  -18.7863   18.5809 C   0  0  0  0  0  0  0  0  0  0  0  0
  -20.1119  -20.7294   18.2145 C   0  0  0  0  0  0  0  0  0  0  0  0
  -20.8312  -23.0959   17.9260 C   0  0  0  0  0  0  0  0  0  0  0  0
  -22.0138  -25.3425   18.1625 C   0  0  0  0  0  0  0  0  0  1  0  0
  -25.9536  -31.1325   23.5443 C   0  0  1  0  0  0  0  0  0  0  0  0
  -22.9516  -33.2416   22.5905 C   0  0  2  0  0  0  0  0  0  0  0  0
  -26.6185  -31.5577   24.8839 C   0  0  0  0  0  0  0  0  0  0  0  0
  -28.7670  -13.7834   21.2102 N   0  0  0  0  0  0  0  0  0  0  0  0
  -29.9230  -14.4665   21.1554 N   0  0  0  0  0  0  0  0  0  0  0  0
  -26.5166  -18.2384   19.0134 N   0  0  0  0  0  0  0  0  0  0  0  0
  -26.6055  -29.8887   21.5068 N   0  0  0  0  0  0  0  0  0  0  0  0
  -29.1028  -17.4384   23.4090 N   0  0  0  0  0  0  0  0  0  0  0  0
  -31.9880  -14.5954   20.0023 N   0  0  0  0  0  0  0  0  0  0  0  0
  -29.8788  -11.1516   17.9805 N   0  0  0  0  0  0  0  0  0  0  0  0
  -28.2613  -19.0841   21.9440 N   0  0  0  0  0  0  0  0  0  0  0  0
  -29.2347  -27.6322   20.3700 N   0  0  0  0  0  0  0  0  0  0  0  0
  -22.8764  -18.3439   19.2826 N   0  0  0  0  0  0  0  0  0  0  0  0
  -25.0358  -32.1230   22.9920 N   0  0  0  0  0  0  0  0  0  0  0  0
  -21.5725  -32.8146   22.2207 N   0  3  0  0  0  0  0  0  0  0  0  0
  -19.8738  -22.1745   18.5817 N   0  3  1  0  0  0  0  0  0  0  0  0
  -28.2972  -19.7115   18.6135 O   0  0  0  0  0  0  0  0  0  0  0  0
  -31.8064  -12.3935   18.0135 O   0  0  0  0  0  0  0  0  0  0  0  0
  -27.7669  -27.7118   22.1760 O   0  0  0  0  0  0  0  0  0  0  0  0
  -24.4592  -18.9813   17.6977 O   0  0  0  0  0  0  0  0  0  0  0  0
  -28.0396  -31.4585   22.4634 O   0  0  0  0  0  0  0  0  0  0  0  0
  -23.1238  -31.2922   24.0075 O   0  0  0  0  0  0  0  0  0  0  0  0
  -29.0780  -19.6631   24.0368 O   0  0  0  0  0  0  0  0  0  0  0  0
  -24.8137   -9.2001   19.2310 O   0  0  0  0  0  0  0  0  0  0  0  0
  -22.1061  -26.4761   19.0242 O   0  0  0  0  0  0  0  0  0  1  0  0
  -20.8770   -8.6427   23.0514 F   0  0  0  0  0  0  0  0  0  0  0  0
  -24.3614   -6.7637   20.4565 F   0  0  0  0  0  0  0  0  0  0  0  0
  -24.5760  -15.6060   17.8734 F   0  0  0  0  0  0  0  0  0  0  0  0
  1  2  1  0  0  0  0
  1  6  2  0  0  0  0
  2  7  2  0  0  0  0
  3 10  2  0  0  0  0
  3 18  1  0  0  0  0
  4 11  1  0  0  0  0
  4 18  2  0  0  0  0
  5  8  2  0  0  0  0
  5 19  1  0  0  0  0
  6 22  1  0  0  0  0
  7 24  1  0  0  0  0
  8 21  1  0  0  0  0
  9 12  2  0  0  0  0
  9 23  1  0  0  0  0
 10 27  1  0  0  0  0
 11 27  2  0  0  0  0
 12 28  1  0  0  0  0
 13 14  2  0  0  0  0
 13 29  1  0  0  0  0
 14 30  1  0  0  0  0
 15 21  2  0  0  0  0
 15 26  1  0  0  0  0
 16 25  1  0  0  0  0
 16 28  2  0  0  0  0
 17 30  2  0  0  0  0
 17 31  1  0  0  0  0
 18 32  1  0  0  0  0
 19 26  2  0  0  0  0
 19 34  1  0  0  0  0
 20 32  1  0  0  0  0
 20 33  2  0  0  0  0
 20 35  1  0  0  0  0
 21 55  1  0  0  0  0
 22 24  2  0  0  0  0
 22 41  1  0  0  0  0
 23 25  2  0  0  0  0
 23 42  1  0  0  0  0
 24 56  1  0  0  0  0
 25 43  1  0  0  0  0
 26 83  1  0  0  0  0
 27 96  1  0  0  0  0
 28 97  1  0  0  0  0
 29 31  2  0  0  0  0
 29 96  1  0  0  0  0
 30 98  1  0  0  0  0
 31 99  1  0  0  0  0
 32 76  2  0  0  0  0
 33 77  1  0  0  0  0
 33 81  1  0  0  0  0
 34 78  1  0  0  0  0
 34 89  2  0  0  0  0
 35 82  1  0  0  0  0
 35 90  2  0  0  0  0
 36 57  1  0  0  0  0
 36 84  1  0  0  0  0
 36 91  2  0  0  0  0
 37 58  1  0  0  0  0
 37 85  1  0  0  0  0
 37 92  2  0  0  0  0
 38 73  1  0  0  0  0
 38 79  1  0  0  0  0
 38 93  2  0  0  0  0
 39 74  1  0  0  0  0
 39 86  1  0  0  0  0
 39 94  2  0  0  0  0
 40 80  1  0  0  0  0
 40 83  1  0  0  0  0
 40 95  2  0  0  0  0
 41 44  1  0  0  0  0
 42 57  1  0  0  0  0
 43 79  1  0  0  0  0
 44 48  1  0  0  0  0
 45 49  1  0  0  0  0
 45 52  1  0  0  0  0
 46 47  1  0  0  0  0
 46 55  1  0  0  0  0
 47 55  1  0  0  0  0
 48 56  1  0  0  0  0
 49 59  1  0  0  0  0
 50 53  1  0  0  0  0
 50 60  1  0  0  0  0
 51 58  1  0  0  0  0
 51 60  1  0  0  0  0
 52 80  1  0  0  0  0
 53 78  1  0  0  0  0
 54 59  1  0  0  0  0
 54 80  1  0  0  0  0
 56 84  1  0  0  0  0
 57 79  1  0  0  0  0
 58 78  1  0  0  0  0
 59 77  1  0  0  0  0
 60100  1  0  0  0  0
 61 74  1  0  0  0  0
 62 75  1  0  0  0  0
 63 75  1  0  0  0  0
 64 75  1  0  0  0  0
 65 87  1  0  0  0  0
 66 88  1  0  0  0  0
 67 69  1  0  0  0  0
 67 70  1  0  0  0  0
 68 71  1  0  0  0  0
 68 72  1  0  0  0  0
 69 85  1  0  0  0  0
 70 88  1  0  0  0  0
 71 88  1  0  0  0  0
 72 97  1  0  0  0  0
 73 75  1  0  0  0  0
 73 86  1  0  0  0  0
 74 87  1  0  0  0  0
 76 77  1  0  0  0  0
M  CHG  2  87   1  88   1
M  ISO  4  40 100  72 101  83 100  97 101
M  END
> <Batch ID>
0005

> <Smiles>
CNC(C)C(=O)NC(C(=O)N1Cc2cc([101O:1][101CH2:1]CCN(C)CCCNC(=O)C3CC(F)CCN3C(=O)c3ccc(C4CC4)cc3[100NH:0][100C:0](=O)N3CCCC(n4nc(-c5ccc(Oc6ccc(F)cc6F)cc5)c(C(N)=O)c4N)C3)ccc2CC1C(=O)NC1CCCc2ccccc21)C(C)(C)C

> <Shape>
0.281

> <Color>
0.066

> <Negative vol penalty>
0.000

$$$$

  -OEChem-04042320263D

 82 90  0     1  0  0  0  0  0999 V2000
  -28.4353  -32.7061   28.2182 C   0  0  0  0  0  0  0  0  0  0  0  0
  -28.3458  -31.6820   27.2809 C   0  0  0  0  0  0  0  0  0  0  0  0
  -24.6068   -8.6828   21.4336 C   0  0  0  0  0  0  0  0  0  0  0  0
  -23.1647  -10.6099   21.2236 C   0  0  0  0  0  0  0  0  0  0  0  0
  -27.3849  -33.6115   28.3622 C   0  0  0  0  0  0  0  0  0  0  0  0
  -27.2053  -31.5621   26.4876 C   0  0  0  0  0  0  0  0  0  0  0  0
  -28.3058  -30.6897   21.6222 C   0  0  0  0  0  0  0  0  0  0  0  0
  -26.1556  -18.0367   19.7879 C   0  0  0  0  0  0  0  0  0  0  0  0
  -28.3999  -18.4803   20.5646 C   0  0  0  0  0  0  0  0  0  0  0  0
  -23.7770   -8.1705   22.4309 C   0  0  0  0  0  0  0  0  0  0  0  0
  -22.3349  -10.0975   22.2208 C   0  0  0  0  0  0  0  0  0  0  0  0
  -28.6745  -29.3905   21.2758 C   0  0  0  0  0  0  0  0  0  0  0  0
  -25.7701  -19.3223   20.1677 C   0  0  0  0  0  0  0  0  0  0  0  0
  -28.0144  -19.7659   20.9444 C   0  0  0  0  0  0  0  0  0  0  0  0
  -20.8206   -6.5402   22.6173 C   0  0  0  0  0  0  0  0  0  0  0  0
  -20.4844   -5.1882   22.5496 C   0  0  0  0  0  0  0  0  0  0  0  0
  -26.4414  -28.9805   20.4607 C   0  0  0  0  0  0  0  0  0  0  0  0
  -21.5037   -4.8265   24.7100 C   0  0  0  0  0  0  0  0  0  0  0  0
  -24.3007   -9.9026   20.8300 C   0  0  0  0  0  0  0  0  0  0  0  0
  -25.0599  -10.2084   18.4139 C   0  0  0  0  0  0  0  0  0  0  0  0
  -26.2350  -33.5084   27.5636 C   0  0  0  0  0  0  0  0  0  0  0  0
  -26.9969  -31.1413   21.4000 C   0  0  0  0  0  0  0  0  0  0  0  0
  -26.1379  -32.4662   26.6220 C   0  0  0  0  0  0  0  0  0  0  0  0
  -26.0593  -30.2867   20.8028 C   0  0  0  0  0  0  0  0  0  0  0  0
  -27.4705  -17.6157   19.9865 C   0  0  0  0  0  0  0  0  0  0  0  0
  -22.6410   -8.8778   22.8245 C   0  0  0  0  0  0  0  0  0  0  0  0
  -26.6994  -20.1869   20.7459 C   0  0  0  0  0  0  0  0  0  0  0  0
  -27.7415  -28.5347   20.6976 C   0  0  0  0  0  0  0  0  0  0  0  0
  -21.4985   -7.0354   23.7313 C   0  0  0  0  0  0  0  0  0  0  0  0
  -20.8259   -4.3313   23.5960 C   0  0  0  0  0  0  0  0  0  0  0  0
  -21.8400   -6.1786   24.7777 C   0  0  0  0  0  0  0  0  0  0  0  0
  -25.1578  -10.4326   19.8002 C   0  0  0  0  0  0  0  0  0  0  0  0
  -26.0985  -10.9280   17.8755 C   0  0  0  0  0  0  0  0  0  0  0  0
  -24.1145   -9.4203   17.6785 C   0  0  0  0  0  0  0  0  0  0  0  0
  -24.6350  -32.1752   23.2590 C   0  0  0  0  0  0  0  0  0  0  0  0
  -23.1907  -32.7871   20.4197 C   0  0  0  0  0  0  0  0  0  0  0  0
  -22.9348  -32.0878   17.0892 C   0  0  0  0  0  0  0  0  0  0  0  0
  -29.1265  -15.7349   19.7276 C   0  0  0  0  0  0  0  0  0  0  0  0
  -25.1055  -34.4823   27.7882 C   0  0  0  0  0  0  0  0  0  0  0  0
  -26.6224  -32.5541   21.7548 C   0  0  0  0  0  0  0  0  0  0  0  0
  -24.6469  -30.7295   20.5247 C   0  0  0  0  0  0  0  0  0  0  0  0
  -24.0901  -34.5107   26.6487 C   0  0  0  0  0  0  0  0  0  0  0  0
  -30.4822  -12.5399   18.9334 C   0  0  0  0  0  0  0  0  0  0  0  0
  -23.7074  -33.0920   26.2391 C   0  0  0  0  0  0  0  0  0  0  0  0
  -29.2609  -11.6176   18.9334 C   0  0  0  0  0  0  0  0  0  0  0  0
  -30.3839  -13.6113   20.0179 C   0  0  0  0  0  0  0  0  0  0  0  0
  -27.9240  -13.4777   20.0009 C   0  0  0  0  0  0  0  0  0  0  0  0
  -24.9276  -32.3180   25.7258 C   0  0  1  0  0  0  0  0  0  0  0  0
  -25.1217  -32.7420   21.9554 C   0  0  1  0  0  0  0  0  0  0  0  0
  -27.9472  -12.4222   18.8833 C   0  0  2  0  0  0  0  0  0  0  0  0
  -21.6379  -32.7230   15.0369 C   0  0  0  0  0  0  0  0  0  0  0  0
  -20.8142  -31.1552   21.4192 C   0  0  0  0  0  0  0  0  0  0  0  0
  -19.9998  -31.0231   19.0554 C   0  0  0  0  0  0  0  0  0  0  0  0
  -20.2013  -33.2399   20.1813 C   0  0  0  0  0  0  0  0  0  0  0  0
  -25.3721  -33.0292   15.6991 C   0  0  0  0  0  0  0  0  0  0  0  0
  -26.6764  -23.8123   20.7993 C   0  0  0  0  0  0  0  0  0  0  0  0
  -27.7164  -24.9244   20.7195 C   0  0  0  0  0  0  0  0  0  0  0  0
  -27.3204  -22.4594   21.0714 C   0  0  0  0  0  0  0  0  0  0  0  0
  -27.0778  -26.2698   20.4050 C   0  0  0  0  0  0  0  0  0  1  0  0
  -22.2967  -32.0084   19.4852 C   0  0  1  0  0  0  0  0  0  0  0  0
  -22.8805  -32.9923   15.8712 C   0  0  2  0  0  0  0  0  0  0  0  0
  -20.8540  -31.8474   20.0422 C   0  0  0  0  0  0  0  0  0  0  0  0
  -26.1782  -11.2319   20.1225 N   0  0  0  0  0  0  0  0  0  0  0  0
  -26.7310  -11.5163   18.9310 N   0  0  0  0  0  0  0  0  0  0  0  0
  -24.3273  -32.1181   20.8953 N   0  0  0  0  0  0  0  0  0  0  0  0
  -29.1157  -14.3353   19.9056 N   0  0  0  0  0  0  0  0  0  0  0  0
  -26.5234  -11.1086   16.6069 N   0  0  0  0  0  0  0  0  0  0  0  0
  -23.1114   -8.7460   18.3881 N   0  0  0  0  0  0  0  0  0  0  0  0
  -27.8623  -16.3097   19.6008 N   0  0  0  0  0  0  0  0  0  0  0  0
  -25.2473  -32.7184   24.3723 N   0  0  0  0  0  0  0  0  0  0  0  0
  -22.3669  -32.6850   18.1946 N   0  0  0  0  0  0  0  0  0  0  0  0
  -24.0791  -32.7769   15.0123 N   0  3  0  0  0  0  0  0  0  0  0  0
  -24.1679   -9.3037   16.4307 O   0  0  0  0  0  0  0  0  0  0  0  0
  -23.7670  -31.3102   23.2552 O   0  0  0  0  0  0  0  0  0  0  0  0
  -22.8953  -33.9488   20.7110 O   0  0  0  0  0  0  0  0  0  0  0  0
  -23.4280  -30.9624   17.0617 O   0  0  0  0  0  0  0  0  0  0  0  0
  -30.1805  -16.3728   19.6632 O   0  0  0  0  0  0  0  0  0  0  0  0
  -21.8309   -8.3781   23.7974 O   0  0  0  0  0  0  0  0  0  0  0  0
  -26.3207  -21.4501   21.1190 O   0  0  0  0  0  0  0  0  0  0  0  0
  -28.0986  -27.2660   20.3592 O   0  0  0  0  0  0  0  0  0  1  0  0
  -20.5016   -3.0333   23.5315 F   0  0  0  0  0  0  0  0  0  0  0  0
  -22.4902   -6.6487   25.8510 F   0  0  0  0  0  0  0  0  0  0  0  0
  1  2  1  0  0  0  0
  1  5  2  0  0  0  0
  2  6  2  0  0  0  0
  3 10  2  0  0  0  0
  3 19  1  0  0  0  0
  4 11  1  0  0  0  0
  4 19  2  0  0  0  0
  5 21  1  0  0  0  0
  6 23  1  0  0  0  0
  7 12  2  0  0  0  0
  7 22  1  0  0  0  0
  8 13  2  0  0  0  0
  8 25  1  0  0  0  0
  9 14  1  0  0  0  0
  9 25  2  0  0  0  0
 10 26  1  0  0  0  0
 11 26  2  0  0  0  0
 12 28  1  0  0  0  0
 13 27  1  0  0  0  0
 14 27  2  0  0  0  0
 15 16  2  0  0  0  0
 15 29  1  0  0  0  0
 16 30  1  0  0  0  0
 17 24  1  0  0  0  0
 17 28  2  0  0  0  0
 18 30  2  0  0  0  0
 18 31  1  0  0  0  0
 19 32  1  0  0  0  0
 20 32  1  0  0  0  0
 20 33  2  0  0  0  0
 20 34  1  0  0  0  0
 21 23  2  0  0  0  0
 21 39  1  0  0  0  0
 22 24  2  0  0  0  0
 22 40  1  0  0  0  0
 23 48  1  0  0  0  0
 24 41  1  0  0  0  0
 25 69  1  0  0  0  0
 26 78  1  0  0  0  0
 27 79  1  0  0  0  0
 28 80  1  0  0  0  0
 29 31  2  0  0  0  0
 29 78  1  0  0  0  0
 30 81  1  0  0  0  0
 31 82  1  0  0  0  0
 32 63  2  0  0  0  0
 33 64  1  0  0  0  0
 33 67  1  0  0  0  0
 34 68  1  0  0  0  0
 34 73  2  0  0  0  0
 35 49  1  0  0  0  0
 35 70  1  0  0  0  0
 35 74  2  0  0  0  0
 36 60  1  0  0  0  0
 36 65  1  0  0  0  0
 36 75  2  0  0  0  0
 37 61  1  0  0  0  0
 37 71  1  0  0  0  0
 37 76  2  0  0  0  0
 38 66  1  0  0  0  0
 38 69  1  0  0  0  0
 38 77  2  0  0  0  0
 39 42  1  0  0  0  0
 40 49  1  0  0  0  0
 41 65  1  0  0  0  0
 42 44  1  0  0  0  0
 43 45  1  0  0  0  0
 43 46  1  0  0  0  0
 44 48  1  0  0  0  0
 45 50  1  0  0  0  0
 46 66  1  0  0  0  0
 47 50  1  0  0  0  0
 47 66  1  0  0  0  0
 48 70  1  0  0  0  0
 49 65  1  0  0  0  0
 50 64  1  0  0  0  0
 51 61  1  0  0  0  0
 52 62  1  0  0  0  0
 53 62  1  0  0  0  0
 54 62  1  0  0  0  0
 55 72  1  0  0  0  0
 56 57  1  0  0  0  0
 56 58  1  0  0  0  0
 57 59  1  0  0  0  0
 58 79  1  0  0  0  0
 59 80  1  0  0  0  0
 60 62  1  0  0  0  0
 60 71  1  0  0  0  0
 61 72  1  0  0  0  0
 63 64  1  0  0  0  0
M  CHG  1  72   1
M  ISO  4  38 100  59 101  69 100  80 101
M  END
> <Batch ID>
0005

> <Smiles>
CNC(C)C(=O)NC(C(=O)N1Cc2cc([101O:1][101CH2:1]CCCOc3ccc([100NH:0][100C:0](=O)N4CCCC(n5nc(-c6ccc(Oc7ccc(F)cc7F)cc6)c(C(N)=O)c5N)C4)cc3)ccc2CC1C(=O)NC1CCCc2ccccc21)C(C)(C)C

> <Shape>
0.243

> <Color>
0.082

> <Negative vol penalty>
0.000

$$$$

  -OEChem-04042320263D

 87 96  0     1  0  0  0  0  0999 V2000
  -24.7080  -38.2866   20.2302 C   0  0  0  0  0  0  0  0  0  0  0  0
  -25.6086  -37.3722   20.7672 C   0  0  0  0  0  0  0  0  0  0  0  0
  -25.9591  -11.3009   19.6148 C   0  0  0  0  0  0  0  0  0  0  0  0
  -27.2349  -10.5107   21.5082 C   0  0  0  0  0  0  0  0  0  0  0  0
  -23.3377  -38.0994   20.4064 C   0  0  0  0  0  0  0  0  0  0  0  0
  -25.1393  -36.2706   21.4817 C   0  0  0  0  0  0  0  0  0  0  0  0
  -26.7225  -29.5565   19.4068 C   0  0  0  0  0  0  0  0  0  0  0  0
  -30.0389  -20.6287   20.8022 C   0  0  0  0  0  0  0  0  0  0  0  0
  -24.8419  -10.6054   20.0772 C   0  0  0  0  0  0  0  0  0  0  0  0
  -26.1177   -9.8152   21.9707 C   0  0  0  0  0  0  0  0  0  0  0  0
  -27.1561  -28.2474   19.1958 C   0  0  0  0  0  0  0  0  0  0  0  0
  -29.6637  -21.9206   20.4339 C   0  0  0  0  0  0  0  0  0  0  0  0
  -23.7159   -7.4185   20.0757 C   0  0  0  0  0  0  0  0  0  0  0  0
  -22.9833   -6.6794   19.1470 C   0  0  0  0  0  0  0  0  0  0  0  0
  -25.7592  -27.4803   21.0146 C   0  0  0  0  0  0  0  0  0  0  0  0
  -27.7723  -21.0267   19.2254 C   0  0  0  0  0  0  0  0  0  0  0  0
  -21.0237   -8.0045   19.6380 C   0  0  0  0  0  0  0  0  0  0  0  0
  -27.1556  -11.2535   20.3302 C   0  0  0  0  0  0  0  0  0  0  0  0
  -28.9694  -11.7979   18.6210 C   0  0  0  0  0  0  0  0  0  0  0  0
  -22.8510  -36.9897   21.1152 C   0  0  0  0  0  0  0  0  0  0  0  0
  -25.7928  -29.8304   20.4137 C   0  0  0  0  0  0  0  0  0  0  0  0
  -23.7612  -36.0691   21.6687 C   0  0  0  0  0  0  0  0  0  0  0  0
  -25.3118  -28.7877   21.2225 C   0  0  0  0  0  0  0  0  0  0  0  0
  -28.1475  -19.7348   19.5937 C   0  0  0  0  0  0  0  0  0  0  0  0
  -29.2809  -19.5357   20.3821 C   0  0  0  0  0  0  0  0  0  0  0  0
  -24.9212   -9.8626   21.2552 C   0  0  0  0  0  0  0  0  0  0  0  0
  -26.6758  -27.2120   19.9979 C   0  0  0  0  0  0  0  0  0  0  0  0
  -28.5304  -22.1197   19.6455 C   0  0  0  0  0  0  0  0  0  0  0  0
  -23.1024   -8.4506   20.7857 C   0  0  0  0  0  0  0  0  0  0  0  0
  -21.6373   -6.9723   18.9281 C   0  0  0  0  0  0  0  0  0  0  0  0
  -21.7563   -8.7436   20.5668 C   0  0  0  0  0  0  0  0  0  0  0  0
  -28.3101  -11.9712   19.8527 C   0  0  0  0  0  0  0  0  0  0  0  0
  -29.9951  -12.7108   18.6491 C   0  0  0  0  0  0  0  0  0  0  0  0
  -28.6803  -10.8926   17.5474 C   0  0  0  0  0  0  0  0  0  0  0  0
  -23.7205  -32.4101   22.1820 C   0  0  0  0  0  0  0  0  0  0  0  0
  -21.9621  -29.9160   21.8692 C   0  0  0  0  0  0  0  0  0  0  0  0
  -20.2242  -27.1272   20.9529 C   0  0  0  0  0  0  0  0  0  0  0  0
  -30.7819  -17.8790   21.5433 C   0  0  0  0  0  0  0  0  0  0  0  0
  -21.3629  -36.8549   21.3201 C   0  0  0  0  0  0  0  0  0  0  0  0
  -25.3445  -31.2344   20.7168 C   0  0  0  0  0  0  0  0  0  0  0  0
  -24.3390  -29.1344   22.3163 C   0  0  0  0  0  0  0  0  0  0  0  0
  -20.9337  -35.4606   21.7695 C   0  0  0  0  0  0  0  0  0  0  0  0
  -24.3101  -17.3529   18.8066 C   0  0  0  0  0  0  0  0  0  0  0  0
  -24.7624  -17.1847   17.3599 C   0  0  0  0  0  0  0  0  0  0  0  0
  -25.3608  -17.0096   19.8570 C   0  0  0  0  0  0  0  0  0  0  0  0
  -26.1973  -17.5821   17.0287 C   0  0  0  0  0  0  0  0  0  0  0  0
  -32.8813  -15.0077   21.7034 C   0  0  0  0  0  0  0  0  0  0  0  0
  -26.2651  -18.1949   20.1977 C   0  0  0  0  0  0  0  0  0  0  0  0
  -26.7003  -18.8438   17.7275 C   0  0  0  0  0  0  0  0  0  0  0  0
  -21.8337  -34.9621   22.8957 C   0  0  0  0  0  0  0  0  0  0  0  0
  -32.0094  -13.8887   21.1292 C   0  0  0  0  0  0  0  0  0  0  0  0
  -32.0631  -15.9945   22.5344 C   0  0  0  0  0  0  0  0  0  0  0  0
  -30.0179  -15.4373   21.2791 C   0  0  0  0  0  0  0  0  0  0  0  0
  -27.2998  -18.5598   19.1195 C   0  0  0  0  0  0  0  0  0  0  0  0
  -23.2899  -34.8483   22.4288 C   0  0  1  0  0  0  0  0  0  0  0  0
  -23.8753  -31.3144   21.1687 C   0  0  1  0  0  0  0  0  0  0  0  0
  -30.7867  -14.4546   20.3808 C   0  0  2  0  0  0  0  0  0  0  0  0
  -17.9526  -26.0755   21.1288 C   0  0  0  0  0  0  0  0  0  0  0  0
  -22.5340  -29.1750   24.7723 C   0  0  0  0  0  0  0  0  0  0  0  0
  -20.7786  -27.3991   24.5905 C   0  0  0  0  0  0  0  0  0  0  0  0
  -20.1579  -29.7980   24.3030 C   0  0  0  0  0  0  0  0  0  0  0  0
  -19.8780  -27.1076   18.0137 C   0  0  0  0  0  0  0  0  0  0  0  0
  -28.4161  -25.7692   19.2580 C   0  0  0  0  0  0  0  0  0  1  0  0
  -28.9832  -24.4520   19.7509 C   0  0  0  0  0  0  0  0  0  0  0  0
  -21.4694  -28.6305   22.4840 C   0  0  1  0  0  0  0  0  0  0  0  0
  -18.8678  -26.9569   20.2931 C   0  0  2  0  0  0  0  0  0  0  0  0
  -21.2571  -28.7511   24.0195 C   0  0  0  0  0  0  0  0  0  0  0  0
  -28.8701  -12.9196   20.6083 N   0  0  0  0  0  0  0  0  0  0  0  0
  -29.8922  -13.3504   19.8494 N   0  0  0  0  0  0  0  0  0  0  0  0
  -23.3488  -30.1027   21.8196 N   0  0  0  0  0  0  0  0  0  0  0  0
  -30.9243  -16.4920   21.7594 N   0  0  0  0  0  0  0  0  0  0  0  0
  -30.9662  -13.0209   17.7641 N   0  0  0  0  0  0  0  0  0  0  0  0
  -27.5899  -10.0225   17.6824 N   0  0  0  0  0  0  0  0  0  0  0  0
  -29.6797  -18.2311   20.7651 N   0  0  0  0  0  0  0  0  0  0  0  0
  -23.4735  -33.6538   21.6326 N   0  0  0  0  0  0  0  0  0  0  0  0
  -20.2699  -28.2567   21.7424 N   0  0  0  0  0  0  0  0  0  0  0  0
  -19.0206  -26.3336   18.9480 N   0  3  0  0  0  0  0  0  0  0  0  0
  -29.3785  -10.8450   16.5064 O   0  0  0  0  0  0  0  0  0  0  0  0
  -23.8164  -32.1476   23.3752 O   0  0  0  0  0  0  0  0  0  0  0  0
  -21.1417  -30.7367   21.4488 O   0  0  0  0  0  0  0  0  0  0  0  0
  -21.1495  -26.3353   20.7877 O   0  0  0  0  0  0  0  0  0  0  0  0
  -31.5943  -18.6923   21.9911 O   0  0  0  0  0  0  0  0  0  0  0  0
  -23.8312   -9.1840   21.7069 O   0  0  0  0  0  0  0  0  0  0  0  0
  -27.0998  -25.9356   19.7836 O   0  0  0  0  0  0  0  0  0  1  0  0
  -28.1615  -23.3887   19.2843 O   0  0  0  0  0  0  0  0  0  0  0  0
  -20.9343   -6.2635   18.0351 F   0  0  0  0  0  0  0  0  0  0  0  0
  -21.1617   -9.7347   21.2450 F   0  0  0  0  0  0  0  0  0  0  0  0
  1  2  1  0  0  0  0
  1  5  2  0  0  0  0
  2  6  2  0  0  0  0
  3  9  2  0  0  0  0
  3 18  1  0  0  0  0
  4 10  1  0  0  0  0
  4 18  2  0  0  0  0
  5 20  1  0  0  0  0
  6 22  1  0  0  0  0
  7 11  2  0  0  0  0
  7 21  1  0  0  0  0
  8 12  2  0  0  0  0
  8 25  1  0  0  0  0
  9 26  1  0  0  0  0
 10 26  2  0  0  0  0
 11 27  1  0  0  0  0
 12 28  1  0  0  0  0
 13 14  2  0  0  0  0
 13 29  1  0  0  0  0
 14 30  1  0  0  0  0
 15 23  1  0  0  0  0
 15 27  2  0  0  0  0
 16 24  1  0  0  0  0
 16 28  2  0  0  0  0
 17 30  2  0  0  0  0
 17 31  1  0  0  0  0
 18 32  1  0  0  0  0
 19 32  1  0  0  0  0
 19 33  2  0  0  0  0
 19 34  1  0  0  0  0
 20 22  2  0  0  0  0
 20 39  1  0  0  0  0
 21 23  2  0  0  0  0
 21 40  1  0  0  0  0
 22 55  1  0  0  0  0
 23 41  1  0  0  0  0
 24 25  2  0  0  0  0
 24 54  1  0  0  0  0
 25 74  1  0  0  0  0
 26 83  1  0  0  0  0
 27 84  1  0  0  0  0
 28 85  1  0  0  0  0
 29 31  2  0  0  0  0
 29 83  1  0  0  0  0
 30 86  1  0  0  0  0
 31 87  1  0  0  0  0
 32 68  2  0  0  0  0
 33 69  1  0  0  0  0
 33 72  1  0  0  0  0
 34 73  1  0  0  0  0
 34 78  2  0  0  0  0
 35 56  1  0  0  0  0
 35 75  1  0  0  0  0
 35 79  2  0  0  0  0
 36 65  1  0  0  0  0
 36 70  1  0  0  0  0
 36 80  2  0  0  0  0
 37 66  1  0  0  0  0
 37 76  1  0  0  0  0
 37 81  2  0  0  0  0
 38 71  1  0  0  0  0
 38 74  1  0  0  0  0
 38 82  2  0  0  0  0
 39 42  1  0  0  0  0
 40 56  1  0  0  0  0
 41 70  1  0  0  0  0
 42 50  1  0  0  0  0
 43 44  1  0  0  0  0
 43 45  1  0  0  0  0
 44 46  1  0  0  0  0
 45 48  1  0  0  0  0
 46 49  1  0  0  0  0
 47 51  1  0  0  0  0
 47 52  1  0  0  0  0
 48 54  1  0  0  0  0
 49 54  1  0  0  0  0
 50 55  1  0  0  0  0
 51 57  1  0  0  0  0
 52 71  1  0  0  0  0
 53 57  1  0  0  0  0
 53 71  1  0  0  0  0
 55 75  1  0  0  0  0
 56 70  1  0  0  0  0
 57 69  1  0  0  0  0
 58 66  1  0  0  0  0
 59 67  1  0  0  0  0
 60 67  1  0  0  0  0
 61 67  1  0  0  0  0
 62 77  1  0  0  0  0
 63 64  1  0  0  0  0
 63 84  1  0  0  0  0
 64 85  1  0  0  0  0
 65 67  1  0  0  0  0
 65 76  1  0  0  0  0
 66 77  1  0  0  0  0
 68 69  1  0  0  0  0
M  CHG  1  77   1
M  ISO  4  38 100  63 101  74 100  84 101
M  END
> <Batch ID>
0005

> <Smiles>
CNC(C)C(=O)NC(C(=O)N1Cc2cc([101O:1][101CH2:1]COc3ccc([100NH:0][100C:0](=O)N4CCCC(n5nc(-c6ccc(Oc7ccc(F)cc7F)cc6)c(C(N)=O)c5N)C4)c(C4CCCCCC4)c3)ccc2CC1C(=O)NC1CCCc2ccccc21)C(C)(C)C

> <Shape>
0.306

> <Color>
0.078

> <Negative vol penalty>
0.000

$$$$

  -OEChem-04042320263D

 87 96  0     1  0  0  0  0  0999 V2000
  -31.1540  -12.5858   22.9721 C   0  0  0  0  0  0  0  0  0  0  0  0
  -30.3488  -13.6508   23.3630 C   0  0  0  0  0  0  0  0  0  0  0  0
  -27.0142  -19.0196   18.0375 C   0  0  0  0  0  0  0  0  0  0  0  0
  -25.0268  -30.7380   21.1092 C   0  0  0  0  0  0  0  0  0  0  0  0
  -24.7907  -29.1020   22.8712 C   0  0  0  0  0  0  0  0  0  0  0  0
  -30.9612  -11.9876   21.7276 C   0  0  0  0  0  0  0  0  0  0  0  0
  -29.3509  -14.1190   22.5089 C   0  0  0  0  0  0  0  0  0  0  0  0
  -27.6905  -18.6909   19.2121 C   0  0  0  0  0  0  0  0  0  0  0  0
  -24.9723  -14.9553   24.9117 C   0  0  0  0  0  0  0  0  0  0  0  0
  -26.1654  -20.1231   18.0081 C   0  0  0  0  0  0  0  0  0  0  0  0
  -24.4199  -31.6979   21.9190 C   0  0  0  0  0  0  0  0  0  0  0  0
  -24.1838  -30.0619   23.6811 C   0  0  0  0  0  0  0  0  0  0  0  0
  -24.8707  -16.1267   25.6608 C   0  0  0  0  0  0  0  0  0  0  0  0
  -25.2992  -33.6930   24.5035 C   0  0  0  0  0  0  0  0  0  0  0  0
  -25.8854  -34.9573   24.5607 C   0  0  0  0  0  0  0  0  0  0  0  0
  -23.6535  -17.1676   23.8569 C   0  0  0  0  0  0  0  0  0  0  0  0
  -23.8477  -35.9404   23.7130 C   0  0  0  0  0  0  0  0  0  0  0  0
  -25.2122  -29.4401   21.5852 C   0  0  0  0  0  0  0  0  0  0  0  0
  -27.2126  -28.1548   20.6612 C   0  0  0  0  0  0  0  0  0  0  0  0
  -29.9541  -12.4424   20.8619 C   0  0  0  0  0  0  0  0  0  0  0  0
  -27.5289  -19.4684   20.3675 C   0  0  0  0  0  0  0  0  0  0  0  0
  -24.4237  -14.8847   23.6231 C   0  0  0  0  0  0  0  0  0  0  0  0
  -29.1452  -13.5272   21.2511 C   0  0  0  0  0  0  0  0  0  0  0  0
  -23.7472  -15.9933   23.0945 C   0  0  0  0  0  0  0  0  0  0  0  0
  -26.6559  -20.5700   20.3427 C   0  0  0  0  0  0  0  0  0  0  0  0
  -25.9880  -20.8968   19.1546 C   0  0  0  0  0  0  0  0  0  0  0  0
  -23.9985  -31.3599   23.2050 C   0  0  0  0  0  0  0  0  0  0  0  0
  -24.2137  -17.2341   25.1323 C   0  0  0  0  0  0  0  0  0  0  0  0
  -23.9872  -33.5522   24.0511 C   0  0  0  0  0  0  0  0  0  0  0  0
  -25.1596  -36.0811   24.1655 C   0  0  0  0  0  0  0  0  0  0  0  0
  -23.2615  -34.6759   23.6558 C   0  0  0  0  0  0  0  0  0  0  0  0
  -25.8385  -28.4479   20.7489 C   0  0  0  0  0  0  0  0  0  0  0  0
  -27.2896  -27.1441   19.7343 C   0  0  0  0  0  0  0  0  0  0  0  0
  -28.3204  -28.7434   21.3555 C   0  0  0  0  0  0  0  0  0  0  0  0
  -25.5989  -14.4110   20.7079 C   0  0  0  0  0  0  0  0  0  0  0  0
  -22.4645  -14.3795   19.8729 C   0  0  0  0  0  0  0  0  0  0  0  0
  -26.8956  -21.0560   25.3169 C   0  0  0  0  0  0  0  0  0  0  0  0
  -19.2644  -15.3204   20.5945 C   0  0  0  0  0  0  0  0  0  0  0  0
  -24.4071  -22.4602   17.9702 C   0  0  0  0  0  0  0  0  0  0  0  0
  -29.8144  -11.7948   19.5070 C   0  0  0  0  0  0  0  0  0  0  0  0
  -28.2412  -19.0738   21.6363 C   0  0  0  0  0  0  0  0  0  0  0  0
  -24.5186  -13.6050   22.8384 C   0  0  0  0  0  0  0  0  0  0  0  0
  -23.1234  -15.9621   21.7240 C   0  0  0  0  0  0  0  0  0  0  0  0
  -26.4705  -21.4359   21.5588 C   0  0  0  0  0  0  0  0  0  0  0  0
  -28.4897  -12.1076   18.8160 C   0  0  0  0  0  0  0  0  0  0  0  0
  -24.3397  -25.5001   16.1178 C   0  0  0  0  0  0  0  0  0  0  0  0
  -28.1809  -13.5988   18.9036 C   0  0  0  0  0  0  0  0  0  0  0  0
  -24.8535  -26.5428   17.1133 C   0  0  0  0  0  0  0  0  0  0  0  0
  -23.4728  -24.4434   16.8002 C   0  0  0  0  0  0  0  0  0  0  0  0
  -24.6056  -24.8285   18.9537 C   0  0  0  0  0  0  0  0  0  0  0  0
  -28.3470  -20.2107   22.6467 C   0  0  0  0  0  0  0  0  0  0  0  0
  -28.0360  -14.0474   20.3628 C   0  0  1  0  0  0  0  0  0  0  0  0
  -24.3707  -13.8139   21.3344 C   0  0  1  0  0  0  0  0  0  0  0  0
  -25.5369  -25.8772   18.3240 C   0  0  2  0  0  0  0  0  0  0  0  0
  -16.9219  -15.1797   19.7057 C   0  0  0  0  0  0  0  0  0  0  0  0
  -23.1227  -16.5250   17.8056 C   0  0  0  0  0  0  0  0  0  0  0  0
  -20.6729  -17.0118   17.6333 C   0  0  0  0  0  0  0  0  0  0  0  0
  -21.5419  -14.7585   17.0087 C   0  0  0  0  0  0  0  0  0  0  0  0
  -18.3233  -13.8461   22.9820 C   0  0  0  0  0  0  0  0  0  0  0  0
  -26.9369  -21.7763   23.9927 C   0  0  0  0  0  0  0  0  0  0  0  0
  -25.2888  -20.1567   26.9744 C   0  0  0  0  0  0  0  0  0  0  0  0
  -25.1664  -18.6554   26.7840 C   0  0  0  0  0  0  0  0  0  1  0  0
  -21.4612  -15.4238   19.4465 C   0  0  1  0  0  0  0  0  0  0  0  0
  -17.9635  -14.5381   20.6091 C   0  0  2  0  0  0  0  0  0  0  0  0
  -21.7130  -15.9313   17.9986 C   0  0  0  0  0  0  0  0  0  0  0  0
  -25.0960  -27.6853   19.9420 N   0  0  0  0  0  0  0  0  0  0  0  0
  -26.0069  -26.9030   19.3384 N   0  0  0  0  0  0  0  0  0  0  0  0
  -23.2482  -14.6902   20.9932 N   0  0  0  0  0  0  0  0  0  0  0  0
  -24.1868  -23.8534   17.9346 N   0  0  0  0  0  0  0  0  0  0  0  0
  -28.3287  -26.4472   19.2274 N   0  0  0  0  0  0  0  0  0  0  0  0
  -28.0638  -29.7706   22.2738 N   0  0  0  0  0  0  0  0  0  0  0  0
  -25.1250  -22.0182   19.0810 N   0  0  0  0  0  0  0  0  0  0  0  0
  -26.7438  -13.6580   20.8853 N   0  0  0  0  0  0  0  0  0  0  0  0
  -25.5915  -20.8296   25.7391 N   0  0  0  0  0  0  0  0  0  0  0  0
  -20.1437  -14.8317   19.6515 N   0  0  0  0  0  0  0  0  0  0  0  0
  -26.9778  -20.8110   22.8425 N   0  3  1  0  0  0  0  0  0  0  0  0
  -17.4119  -14.4760   21.9922 N   0  3  0  0  0  0  0  0  0  0  0  0
  -29.5044  -28.3807   21.1551 O   0  0  0  0  0  0  0  0  0  0  0  0
  -25.5138  -15.4754   20.1066 O   0  0  0  0  0  0  0  0  0  0  0  0
  -22.5449  -13.3240   19.2396 O   0  0  0  0  0  0  0  0  0  0  0  0
  -27.9033  -20.7175   25.9319 O   0  0  0  0  0  0  0  0  0  0  0  0
  -19.4777  -16.2722   21.3422 O   0  0  0  0  0  0  0  0  0  0  0  0
  -24.0132  -21.7176   17.0672 O   0  0  0  0  0  0  0  0  0  0  0  0
  -23.4064  -32.2964   23.9957 O   0  0  0  0  0  0  0  0  0  0  0  0
  -24.1137  -18.3790   25.8611 O   0  0  0  0  0  0  0  0  0  1  0  0
  -25.7222  -37.2954   24.2219 F   0  0  0  0  0  0  0  0  0  0  0  0
  -22.0004  -34.5472   23.2214 F   0  0  0  0  0  0  0  0  0  0  0  0
  1  2  1  0  0  0  0
  1  6  2  0  0  0  0
  2  7  2  0  0  0  0
  3  8  2  0  0  0  0
  3 10  1  0  0  0  0
  4 11  2  0  0  0  0
  4 18  1  0  0  0  0
  5 12  1  0  0  0  0
  5 18  2  0  0  0  0
  6 20  1  0  0  0  0
  7 23  1  0  0  0  0
  8 21  1  0  0  0  0
  9 13  2  0  0  0  0
  9 22  1  0  0  0  0
 10 26  2  0  0  0  0
 11 27  1  0  0  0  0
 12 27  2  0  0  0  0
 13 28  1  0  0  0  0
 14 15  2  0  0  0  0
 14 29  1  0  0  0  0
 15 30  1  0  0  0  0
 16 24  1  0  0  0  0
 16 28  2  0  0  0  0
 17 30  2  0  0  0  0
 17 31  1  0  0  0  0
 18 32  1  0  0  0  0
 19 32  1  0  0  0  0
 19 33  2  0  0  0  0
 19 34  1  0  0  0  0
 20 23  2  0  0  0  0
 20 40  1  0  0  0  0
 21 25  2  0  0  0  0
 21 41  1  0  0  0  0
 22 24  2  0  0  0  0
 22 42  1  0  0  0  0
 23 52  1  0  0  0  0
 24 43  1  0  0  0  0
 25 26  1  0  0  0  0
 25 44  1  0  0  0  0
 26 72  1  0  0  0  0
 27 84  1  0  0  0  0
 28 85  1  0  0  0  0
 29 31  2  0  0  0  0
 29 84  1  0  0  0  0
 30 86  1  0  0  0  0
 31 87  1  0  0  0  0
 32 66  2  0  0  0  0
 33 67  1  0  0  0  0
 33 70  1  0  0  0  0
 34 71  1  0  0  0  0
 34 78  2  0  0  0  0
 35 53  1  0  0  0  0
 35 73  1  0  0  0  0
 35 79  2  0  0  0  0
 36 63  1  0  0  0  0
 36 68  1  0  0  0  0
 36 80  2  0  0  0  0
 37 60  1  0  0  0  0
 37 74  1  0  0  0  0
 37 81  2  0  0  0  0
 38 64  1  0  0  0  0
 38 75  1  0  0  0  0
 38 82  2  0  0  0  0
 39 69  1  0  0  0  0
 39 72  1  0  0  0  0
 39 83  2  0  0  0  0
 40 45  1  0  0  0  0
 41 51  1  0  0  0  0
 42 53  1  0  0  0  0
 43 68  1  0  0  0  0
 44 76  1  0  0  0  0
 45 47  1  0  0  0  0
 46 48  1  0  0  0  0
 46 49  1  0  0  0  0
 47 52  1  0  0  0  0
 48 54  1  0  0  0  0
 49 69  1  0  0  0  0
 50 54  1  0  0  0  0
 50 69  1  0  0  0  0
 51 76  1  0  0  0  0
 52 73  1  0  0  0  0
 53 68  1  0  0  0  0
 54 67  1  0  0  0  0
 55 64  1  0  0  0  0
 56 65  1  0  0  0  0
 57 65  1  0  0  0  0
 58 65  1  0  0  0  0
 59 77  1  0  0  0  0
 60 76  1  0  0  0  0
 61 62  1  0  0  0  0
 61 74  1  0  0  0  0
 62 85  1  0  0  0  0
 63 65  1  0  0  0  0
 63 75  1  0  0  0  0
 64 77  1  0  0  0  0
 66 67  1  0  0  0  0
M  CHG  2  76   1  77   1
M  ISO  4  39 100  62 101  72 100  85 101
M  END
> <Batch ID>
0005

> <Smiles>
CNC(C)C(=O)NC(C(=O)N1Cc2cc([101O:1][101CH2:1]CNC(=O)CN3CCc4cccc([100NH:0][100C:0](=O)N5CCCC(n6nc(-c7ccc(Oc8ccc(F)cc8F)cc7)c(C(N)=O)c6N)C5)c4C3)ccc2CC1C(=O)NC1CCCc2ccccc21)C(C)(C)C

> <Shape>
0.202

> <Color>
0.072

> <Negative vol penalty>
0.000

$$$$

  -OEChem-04042320263D

 91101  0     1  0  0  0  0  0999 V2000
  -21.7166  -29.7969   19.6807 C   0  0  0  0  0  0  0  0  0  0  0  0
  -22.4262  -29.0182   18.7721 C   0  0  0  0  0  0  0  0  0  0  0  0
  -19.5871  -21.9028   22.0466 C   0  0  0  0  0  0  0  0  0  0  0  0
  -21.5111  -21.6009   20.6168 C   0  0  0  0  0  0  0  0  0  0  0  0
  -22.3547  -30.2993   20.8140 C   0  0  0  0  0  0  0  0  0  0  0  0
  -23.7746  -28.7423   18.9958 C   0  0  0  0  0  0  0  0  0  0  0  0
  -26.1291  -21.9570   19.5503 C   0  0  0  0  0  0  0  0  0  0  0  0
  -25.7011  -15.3813   15.7280 C   0  0  0  0  0  0  0  0  0  0  0  0
  -24.5979  -15.5186   16.5705 C   0  0  0  0  0  0  0  0  0  0  0  0
  -20.0474  -23.1717   22.3980 C   0  0  0  0  0  0  0  0  0  0  0  0
  -21.9714  -22.8699   20.9682 C   0  0  0  0  0  0  0  0  0  0  0  0
  -26.6905  -20.6832   19.4581 C   0  0  0  0  0  0  0  0  0  0  0  0
  -20.0896  -26.2696   21.0437 C   0  0  0  0  0  0  0  0  0  0  0  0
  -19.1658  -27.3146   21.0531 C   0  0  0  0  0  0  0  0  0  0  0  0
  -25.4677  -13.7711   17.9942 C   0  0  0  0  0  0  0  0  0  0  0  0
  -28.8795  -21.6033   19.9164 C   0  0  0  0  0  0  0  0  0  0  0  0
  -19.6055  -27.6822   23.4001 C   0  0  0  0  0  0  0  0  0  0  0  0
  -20.3190  -21.1173   21.1560 C   0  0  0  0  0  0  0  0  0  0  0  0
  -26.5709  -13.6338   17.1516 C   0  0  0  0  0  0  0  0  0  0  0  0
  -18.6247  -19.4869   20.1668 C   0  0  0  0  0  0  0  0  0  0  0  0
  -23.7091  -30.0214   21.0567 C   0  0  0  0  0  0  0  0  0  0  0  0
  -26.9393  -23.0579   19.8416 C   0  0  0  0  0  0  0  0  0  0  0  0
  -24.4317  -29.2425   20.1327 C   0  0  0  0  0  0  0  0  0  0  0  0
  -28.3208  -22.8798   20.0224 C   0  0  0  0  0  0  0  0  0  0  0  0
  -26.6875  -14.4388   16.0185 C   0  0  0  0  0  0  0  0  0  0  0  0
  -24.4813  -14.7135   17.7036 C   0  0  0  0  0  0  0  0  0  0  0  0
  -21.2395  -23.6553   21.8588 C   0  0  0  0  0  0  0  0  0  0  0  0
  -28.0624  -20.5069   19.6404 C   0  0  0  0  0  0  0  0  0  0  0  0
  -20.7713  -25.9308   22.2125 C   0  0  0  0  0  0  0  0  0  0  0  0
  -18.9238  -28.0209   22.2313 C   0  0  0  0  0  0  0  0  0  0  0  0
  -20.5293  -26.6372   23.3907 C   0  0  0  0  0  0  0  0  0  0  0  0
  -19.8444  -19.8062   20.7930 C   0  0  0  0  0  0  0  0  0  0  0  0
  -18.6506  -18.1193   20.0417 C   0  0  0  0  0  0  0  0  0  0  0  0
  -27.5977  -12.6318   17.4821 C   0  0  0  0  0  0  0  0  0  0  0  0
  -17.5632  -20.3493   19.7365 C   0  0  0  0  0  0  0  0  0  0  0  0
  -27.1475  -26.7559   20.4396 C   0  0  0  0  0  0  0  0  0  0  0  0
  -29.0214  -25.4185   22.4670 C   0  0  0  0  0  0  0  0  0  0  0  0
  -30.6468  -23.5393   24.8044 C   0  0  0  0  0  0  0  0  0  0  0  0
  -23.0902  -14.1328   19.7220 C   0  0  0  0  0  0  0  0  0  0  0  0
  -24.3679  -30.6258   22.2713 C   0  0  0  0  0  0  0  0  0  0  0  0
  -26.3872  -24.4567   19.8896 C   0  0  0  0  0  0  0  0  0  0  0  0
  -29.1589  -24.0978   20.2997 C   0  0  0  0  0  0  0  0  0  0  0  0
  -25.7025  -29.9759   22.6272 C   0  0  0  0  0  0  0  0  0  0  0  0
  -20.4596  -14.2025   22.1203 C   0  0  0  0  0  0  0  0  0  0  0  0
  -26.5672  -29.8152   21.3808 C   0  0  0  0  0  0  0  0  0  0  0  0
  -19.8883  -15.6164   21.9908 C   0  0  0  0  0  0  0  0  0  0  0  0
  -28.8041  -11.7490   20.6678 C   0  0  0  0  0  0  0  0  0  0  0  0
  -28.1168  -13.1087   20.9542 C   0  0  0  0  0  0  0  0  0  0  0  0
  -21.9768  -14.1854   21.9429 C   0  0  0  0  0  0  0  0  0  0  0  0
  -21.8943  -16.2397   20.5857 C   0  0  0  0  0  0  0  0  0  0  0  0
  -30.4709  -12.8718   19.1845 C   0  0  0  0  0  0  0  0  0  0  0  0
  -25.8893  -28.9007   20.3533 C   0  0  1  0  0  0  0  0  0  0  0  0
  -27.0796  -25.3431   20.9404 C   0  0  1  0  0  0  0  0  0  0  0  0
  -20.3618  -16.2988   20.6924 C   0  0  2  0  0  0  0  0  0  0  0  0
  -29.2782  -11.9083   19.2117 C   0  0  2  0  0  0  0  0  0  0  0  0
  -28.3059  -13.8577   19.6301 C   0  0  2  0  0  0  0  0  0  0  0  0
  -27.8586  -14.3125   15.0994 C   0  0  0  0  0  0  0  0  0  0  0  0
  -32.0952  -23.7516   26.8427 C   0  0  0  0  0  0  0  0  0  0  0  0
  -31.4036  -26.1214   20.6965 C   0  0  0  0  0  0  0  0  0  0  0  0
  -32.9114  -25.3936   22.5579 C   0  0  0  0  0  0  0  0  0  0  0  0
  -31.3513  -27.3105   22.8960 C   0  0  0  0  0  0  0  0  0  0  0  0
  -28.6601  -22.1513   26.5031 C   0  0  0  0  0  0  0  0  0  0  0  0
  -29.8781  -16.6577   19.3294 C   0  0  0  0  0  0  0  0  0  0  0  0
  -30.1427  -17.8328   18.3911 C   0  0  0  0  0  0  0  0  0  0  0  0
  -30.1148  -15.3309   18.6237 C   0  0  0  0  0  0  0  0  0  0  0  0
  -29.9516  -19.1686   19.0953 C   0  0  0  0  0  0  0  0  0  1  0  0
  -30.4228  -24.9616   22.7842 C   0  0  1  0  0  0  0  0  0  0  0  0
  -30.6732  -23.6185   26.3202 C   0  0  2  0  0  0  0  0  0  0  0  0
  -31.5029  -25.9290   22.2229 C   0  0  0  0  0  0  0  0  0  0  0  0
  -20.5907  -18.7282   21.0481 N   0  0  0  0  0  0  0  0  0  0  0  0
  -19.8378  -17.7182   20.5800 N   0  0  0  0  0  0  0  0  0  0  0  0
  -28.2415  -12.7678   18.6866 N   0  0  0  0  0  0  0  0  0  0  0  0
  -28.4693  -24.9743   21.2594 N   0  0  0  0  0  0  0  0  0  0  0  0
  -22.3509  -14.8450   20.6900 N   0  0  0  0  0  0  0  0  0  0  0  0
  -17.7733  -17.2328   19.5251 N   0  0  0  0  0  0  0  0  0  0  0  0
  -17.6988  -21.7292   19.9413 N   0  0  0  0  0  0  0  0  0  0  0  0
  -23.3594  -14.8520   18.5580 N   0  0  0  0  0  0  0  0  0  0  0  0
  -26.0315  -27.5134   20.7399 N   0  0  0  0  0  0  0  0  0  0  0  0
  -30.4757  -24.7815   24.2310 N   0  0  0  0  0  0  0  0  0  0  0  0
  -29.8000  -14.2118   19.5656 N   0  3  2  0  0  0  0  0  0  0  0  0
  -30.0672  -22.3931   26.9135 N   0  3  0  0  0  0  0  0  0  0  0  0
  -27.8151  -11.7426   16.6624 O   0  0  0  0  0  0  0  0  0  0  0  0
  -16.5180  -19.9079   19.2015 O   0  0  0  0  0  0  0  0  0  0  0  0
  -28.1396  -27.1328   19.8269 O   0  0  0  0  0  0  0  0  0  0  0  0
  -28.4319  -26.1541   23.2638 O   0  0  0  0  0  0  0  0  0  0  0  0
  -30.7696  -22.4817   24.1905 O   0  0  0  0  0  0  0  0  0  0  0  0
  -23.4339  -12.9614   19.9004 O   0  0  0  0  0  0  0  0  0  0  0  0
  -21.6888  -24.8936   22.2014 O   0  0  0  0  0  0  0  0  0  0  0  0
  -28.6033  -19.2601   19.5534 O   0  0  0  0  0  0  0  0  0  1  0  0
  -18.0377  -29.0254   22.2398 F   0  0  0  0  0  0  0  0  0  0  0  0
  -21.1821  -26.3171   24.5164 F   0  0  0  0  0  0  0  0  0  0  0  0
  1  2  1  0  0  0  0
  1  5  2  0  0  0  0
  2  6  2  0  0  0  0
  3 10  2  0  0  0  0
  3 18  1  0  0  0  0
  4 11  1  0  0  0  0
  4 18  2  0  0  0  0
  5 21  1  0  0  0  0
  6 23  1  0  0  0  0
  7 12  2  0  0  0  0
  7 22  1  0  0  0  0
  8  9  2  0  0  0  0
  8 25  1  0  0  0  0
  9 26  1  0  0  0  0
 10 27  1  0  0  0  0
 11 27  2  0  0  0  0
 12 28  1  0  0  0  0
 13 14  2  0  0  0  0
 13 29  1  0  0  0  0
 14 30  1  0  0  0  0
 15 19  1  0  0  0  0
 15 26  2  0  0  0  0
 16 24  1  0  0  0  0
 16 28  2  0  0  0  0
 17 30  2  0  0  0  0
 17 31  1  0  0  0  0
 18 32  1  0  0  0  0
 19 25  2  0  0  0  0
 19 34  1  0  0  0  0
 20 32  1  0  0  0  0
 20 33  2  0  0  0  0
 20 35  1  0  0  0  0
 21 23  2  0  0  0  0
 21 40  1  0  0  0  0
 22 24  2  0  0  0  0
 22 41  1  0  0  0  0
 23 52  1  0  0  0  0
 24 42  1  0  0  0  0
 25 57  1  0  0  0  0
 26 77  1  0  0  0  0
 27 88  1  0  0  0  0
 28 89  1  0  0  0  0
 29 31  2  0  0  0  0
 29 88  1  0  0  0  0
 30 90  1  0  0  0  0
 31 91  1  0  0  0  0
 32 70  2  0  0  0  0
 33 71  1  0  0  0  0
 33 75  1  0  0  0  0
 34 72  1  0  0  0  0
 34 82  2  0  0  0  0
 35 76  1  0  0  0  0
 35 83  2  0  0  0  0
 36 53  1  0  0  0  0
 36 78  1  0  0  0  0
 36 84  2  0  0  0  0
 37 67  1  0  0  0  0
 37 73  1  0  0  0  0
 37 85  2  0  0  0  0
 38 68  1  0  0  0  0
 38 79  1  0  0  0  0
 38 86  2  0  0  0  0
 39 74  1  0  0  0  0
 39 77  1  0  0  0  0
 39 87  2  0  0  0  0
 40 43  1  0  0  0  0
 41 53  1  0  0  0  0
 42 73  1  0  0  0  0
 43 45  1  0  0  0  0
 44 46  1  0  0  0  0
 44 49  1  0  0  0  0
 45 52  1  0  0  0  0
 46 54  1  0  0  0  0
 47 48  1  0  0  0  0
 47 55  1  0  0  0  0
 48 56  1  0  0  0  0
 49 74  1  0  0  0  0
 50 54  1  0  0  0  0
 50 74  1  0  0  0  0
 51 55  1  0  0  0  0
 51 80  1  0  0  0  0
 52 78  1  0  0  0  0
 53 73  1  0  0  0  0
 54 71  1  0  0  0  0
 55 72  1  0  0  0  0
 56 72  1  0  0  0  0
 56 80  1  0  0  0  0
 58 68  1  0  0  0  0
 59 69  1  0  0  0  0
 60 69  1  0  0  0  0
 61 69  1  0  0  0  0
 62 81  1  0  0  0  0
 63 64  1  0  0  0  0
 63 65  1  0  0  0  0
 64 66  1  0  0  0  0
 65 80  1  0  0  0  0
 66 89  1  0  0  0  0
 67 69  1  0  0  0  0
 67 79  1  0  0  0  0
 68 81  1  0  0  0  0
 70 71  1  0  0  0  0
M  CHG  2  80   1  81   1
M  ISO  4  39 100  66 101  77 100  89 101
M  END
> <Batch ID>
0005

> <Smiles>
CNC(C)C(=O)NC(C(=O)N1Cc2cc([101O:1][101CH2:1]CCCN3CC4CCC3N4C(=O)c3cc([100NH:0][100C:0](=O)N4CCCC(n5nc(-c6ccc(Oc7ccc(F)cc7F)cc6)c(C(N)=O)c5N)C4)ccc3C)ccc2CC1C(=O)NC1CCCc2ccccc21)C(C)(C)C

> <Shape>
0.223

> <Color>
0.076

> <Negative vol penalty>
0.000

$$$$

  -OEChem-04042320263D

 89 98  0     1  0  0  0  0  0999 V2000
  -35.0586  -21.8485   24.5911 C   0  0  0  0  0  0  0  0  0  0  0  0
  -33.9884  -22.4964   23.9825 C   0  0  0  0  0  0  0  0  0  0  0  0
  -23.0627   -9.8777   19.9587 C   0  0  0  0  0  0  0  0  0  0  0  0
  -23.8732   -9.8818   22.2348 C   0  0  0  0  0  0  0  0  0  0  0  0
  -34.8231  -20.8949   25.5806 C   0  0  0  0  0  0  0  0  0  0  0  0
  -32.6821  -22.1903   24.3623 C   0  0  0  0  0  0  0  0  0  0  0  0
  -29.8224  -26.3223   24.9897 C   0  0  0  0  0  0  0  0  0  0  0  0
  -29.4057  -22.6552   17.9935 C   0  0  0  0  0  0  0  0  0  0  0  0
  -22.3297   -8.7206   20.2218 C   0  0  0  0  0  0  0  0  0  0  0  0
  -23.1401   -8.7246   22.4978 C   0  0  0  0  0  0  0  0  0  0  0  0
  -29.3353  -26.9403   23.8388 C   0  0  0  0  0  0  0  0  0  0  0  0
  -19.4178   -7.9068   21.7357 C   0  0  0  0  0  0  0  0  0  0  0  0
  -18.1007   -7.8561   21.2793 C   0  0  0  0  0  0  0  0  0  0  0  0
  -30.3816  -21.6655   17.8766 C   0  0  0  0  0  0  0  0  0  0  0  0
  -27.2019  -25.8648   24.1715 C   0  0  0  0  0  0  0  0  0  0  0  0
  -28.8128  -21.8127   20.1788 C   0  0  0  0  0  0  0  0  0  0  0  0
  -18.6396   -5.9192   19.9395 C   0  0  0  0  0  0  0  0  0  0  0  0
  -23.8345  -10.4583   20.9652 C   0  0  0  0  0  0  0  0  0  0  0  0
  -24.1625  -12.9853   20.8449 C   0  0  0  0  0  0  0  0  0  0  0  0
  -33.5136  -20.5839   25.9795 C   0  0  0  0  0  0  0  0  0  0  0  0
  -29.0049  -25.4609   25.7354 C   0  0  0  0  0  0  0  0  0  0  0  0
  -32.4289  -21.2307   25.3571 C   0  0  0  0  0  0  0  0  0  0  0  0
  -27.6802  -25.2391   25.3329 C   0  0  0  0  0  0  0  0  0  0  0  0
  -28.6213  -22.7289   19.1446 C   0  0  0  0  0  0  0  0  0  0  0  0
  -29.7887  -20.8230   20.0620 C   0  0  0  0  0  0  0  0  0  0  0  0
  -22.3683   -8.1440   21.4913 C   0  0  0  0  0  0  0  0  0  0  0  0
  -28.0258  -26.7093   23.4279 C   0  0  0  0  0  0  0  0  0  0  0  0
  -20.3459   -6.9638   21.2939 C   0  0  0  0  0  0  0  0  0  0  0  0
  -17.7116   -6.8622   20.3813 C   0  0  0  0  0  0  0  0  0  0  0  0
  -19.9567   -5.9699   20.3958 C   0  0  0  0  0  0  0  0  0  0  0  0
  -30.5731  -20.7494   18.9109 C   0  0  0  0  0  0  0  0  0  0  0  0
  -24.5925  -11.6533   20.6939 C   0  0  0  0  0  0  0  0  0  0  0  0
  -25.2430  -13.7406   20.4597 C   0  0  0  0  0  0  0  0  0  0  0  0
  -22.8993  -13.4942   21.2933 C   0  0  0  0  0  0  0  0  0  0  0  0
  -29.1157  -22.3823   26.5187 C   0  0  0  0  0  0  0  0  0  0  0  0
  -26.5316  -23.1493   28.3232 C   0  0  0  0  0  0  0  0  0  0  0  0
  -23.8864  -25.2391   28.8551 C   0  0  0  0  0  0  0  0  0  0  0  0
  -30.7516  -14.7189   20.6854 C   0  0  0  0  0  0  0  0  0  0  0  0
  -33.3070  -19.5119   27.0201 C   0  0  0  0  0  0  0  0  0  0  0  0
  -29.5370  -24.8230   26.9893 C   0  0  0  0  0  0  0  0  0  0  0  0
  -26.7555  -24.3390   26.1097 C   0  0  0  0  0  0  0  0  0  0  0  0
  -31.9073  -19.5160   27.6292 C   0  0  0  0  0  0  0  0  0  0  0  0
  -29.5577  -12.4158   18.1743 C   0  0  0  0  0  0  0  0  0  0  0  0
  -30.8497  -19.6300   26.5359 C   0  0  0  0  0  0  0  0  0  0  0  0
  -28.1312  -12.1019   18.6294 C   0  0  0  0  0  0  0  0  0  0  0  0
  -30.4957  -12.6515   19.3570 C   0  0  0  0  0  0  0  0  0  0  0  0
  -28.6067  -13.3385   20.7761 C   0  0  0  0  0  0  0  0  0  0  0  0
  -28.8483  -16.1940   21.7002 C   0  0  0  0  0  0  0  0  0  0  0  0
  -30.9985  -20.9438   25.7592 C   0  0  1  0  0  0  0  0  0  0  0  0
  -28.7771  -23.5612   27.3866 C   0  0  1  0  0  0  0  0  0  0  0  0
  -27.6143  -13.1652   19.6170 C   0  0  2  0  0  0  0  0  0  0  0  0
  -29.4903  -17.5489   22.0248 C   0  0  1  0  0  0  0  0  0  0  0  0
  -30.8551  -16.8418   22.1007 C   0  0  1  0  0  0  0  0  0  0  0  0
  -31.3927  -16.5313   23.4850 C   0  0  0  0  0  0  0  0  0  0  0  0
  -21.9294  -25.5892   30.3863 C   0  0  0  0  0  0  0  0  0  0  0  0
  -25.0482  -20.8666   26.9452 C   0  0  0  0  0  0  0  0  0  0  0  0
  -22.9025  -21.8490   27.7813 C   0  0  0  0  0  0  0  0  0  0  0  0
  -24.6233  -21.0537   29.4027 C   0  0  0  0  0  0  0  0  0  0  0  0
  -24.8867  -27.8876   29.7175 C   0  0  0  0  0  0  0  0  0  0  0  0
  -27.5776  -23.7873   19.2691 C   0  0  0  0  0  0  0  0  0  0  0  0
  -29.9638  -19.8574   21.1969 C   0  0  0  0  0  0  0  0  0  0  0  0
  -27.7727  -27.5553   19.9252 C   0  0  0  0  0  0  0  0  0  0  0  0
  -27.1169  -26.2168   19.6211 C   0  0  0  0  0  0  0  0  0  0  0  0
  -28.4876  -27.5964   21.2702 C   0  0  0  0  0  0  0  0  0  1  0  0
  -25.0394  -23.1778   28.0961 C   0  0  1  0  0  0  0  0  0  0  0  0
  -23.3854  -25.9305   30.1102 C   0  0  2  0  0  0  0  0  0  0  0  0
  -24.4211  -21.7523   28.0404 C   0  0  0  0  0  0  0  0  0  0  0  0
  -25.8482  -11.5643   20.2475 N   0  0  0  0  0  0  0  0  0  0  0  0
  -26.2165  -12.8499   20.1145 N   0  0  0  0  0  0  0  0  0  0  0  0
  -27.3243  -23.7334   27.3251 N   0  0  0  0  0  0  0  0  0  0  0  0
  -29.9429  -13.6608   20.2633 N   0  0  0  0  0  0  0  0  0  0  0  0
  -30.1957  -15.6738   21.5085 N   0  0  0  0  0  0  0  0  0  0  0  0
  -25.4459  -15.0732   20.3858 N   0  0  0  0  0  0  0  0  0  0  0  0
  -21.8991  -12.5796   21.6502 N   0  0  0  0  0  0  0  0  0  0  0  0
  -30.4562  -22.0468   26.5233 N   0  0  0  0  0  0  0  0  0  0  0  0
  -24.4835  -24.0298   29.1418 N   0  0  0  0  0  0  0  0  0  0  0  0
  -29.4023  -18.5057   20.9065 N   0  3  0  0  0  0  0  0  0  0  0  0
  -23.5029  -27.4094   29.9690 N   0  3  0  0  0  0  0  0  0  0  0  0
  -28.1369  -25.1383   19.5500 N   0  3  0  0  0  0  0  0  0  0  0  0
  -22.6590  -14.7236   21.3593 O   0  0  0  0  0  0  0  0  0  0  0  0
  -28.2264  -21.8178   25.8925 O   0  0  0  0  0  0  0  0  0  0  0  0
  -26.9770  -22.6344   29.3519 O   0  0  0  0  0  0  0  0  0  0  0  0
  -23.7575  -25.7217   27.7321 O   0  0  0  0  0  0  0  0  0  0  0  0
  -31.9277  -14.8293   20.3141 O   0  0  0  0  0  0  0  0  0  0  0  0
  -21.6529   -7.0150   21.7485 O   0  0  0  0  0  0  0  0  0  0  0  0
  -27.5447  -27.3149   22.2967 O   0  0  0  0  0  0  0  0  0  1  0  0
  -16.4464   -6.8127   19.9443 F   0  0  0  0  0  0  0  0  0  0  0  0
  -20.8435   -5.0605   19.9687 F   0  0  0  0  0  0  0  0  0  0  0  0
  -31.7900  -19.5386   18.7315 Cl  0  0  0  0  0  0  0  0  0  0  0  0
  1  2  1  0  0  0  0
  1  5  2  0  0  0  0
  2  6  2  0  0  0  0
  3  9  2  0  0  0  0
  3 18  1  0  0  0  0
  4 10  1  0  0  0  0
  4 18  2  0  0  0  0
  5 20  1  0  0  0  0
  6 22  1  0  0  0  0
  7 11  2  0  0  0  0
  7 21  1  0  0  0  0
  8 14  2  0  0  0  0
  8 24  1  0  0  0  0
  9 26  1  0  0  0  0
 10 26  2  0  0  0  0
 11 27  1  0  0  0  0
 12 13  2  0  0  0  0
 12 28  1  0  0  0  0
 13 29  1  0  0  0  0
 14 31  1  0  0  0  0
 15 23  1  0  0  0  0
 15 27  2  0  0  0  0
 16 24  2  0  0  0  0
 16 25  1  0  0  0  0
 17 29  2  0  0  0  0
 17 30  1  0  0  0  0
 18 32  1  0  0  0  0
 19 32  1  0  0  0  0
 19 33  2  0  0  0  0
 19 34  1  0  0  0  0
 20 22  2  0  0  0  0
 20 39  1  0  0  0  0
 21 23  2  0  0  0  0
 21 40  1  0  0  0  0
 22 49  1  0  0  0  0
 23 41  1  0  0  0  0
 24 60  1  0  0  0  0
 25 31  2  0  0  0  0
 25 61  1  0  0  0  0
 26 85  1  0  0  0  0
 27 86  1  0  0  0  0
 28 30  2  0  0  0  0
 28 85  1  0  0  0  0
 29 87  1  0  0  0  0
 30 88  1  0  0  0  0
 31 89  1  0  0  0  0
 32 68  2  0  0  0  0
 33 69  1  0  0  0  0
 33 73  1  0  0  0  0
 34 74  1  0  0  0  0
 34 80  2  0  0  0  0
 35 50  1  0  0  0  0
 35 75  1  0  0  0  0
 35 81  2  0  0  0  0
 36 65  1  0  0  0  0
 36 70  1  0  0  0  0
 36 82  2  0  0  0  0
 37 66  1  0  0  0  0
 37 76  1  0  0  0  0
 37 83  2  0  0  0  0
 38 71  1  0  0  0  0
 38 72  1  0  0  0  0
 38 84  2  0  0  0  0
 39 42  1  0  0  0  0
 40 50  1  0  0  0  0
 41 70  1  0  0  0  0
 42 44  1  0  0  0  0
 43 45  1  0  0  0  0
 43 46  1  0  0  0  0
 44 49  1  0  0  0  0
 45 51  1  0  0  0  0
 46 71  1  0  0  0  0
 47 51  1  0  0  0  0
 47 71  1  0  0  0  0
 48 52  1  0  0  0  0
 48 72  1  0  0  0  0
 49 75  1  0  0  0  0
 50 70  1  0  0  0  0
 51 69  1  0  0  0  0
 52 53  1  0  0  0  0
 52 77  1  0  0  0  0
 53 54  1  0  0  0  0
 53 72  1  0  0  0  0
 55 66  1  0  0  0  0
 56 67  1  0  0  0  0
 57 67  1  0  0  0  0
 58 67  1  0  0  0  0
 59 78  1  0  0  0  0
 60 79  1  0  0  0  0
 61 77  1  0  0  0  0
 62 63  1  0  0  0  0
 62 64  1  0  0  0  0
 63 79  1  0  0  0  0
 64 86  1  0  0  0  0
 65 67  1  0  0  0  0
 65 76  1  0  0  0  0
 66 78  1  0  0  0  0
 68 69  1  0  0  0  0
M  CHG  3  77   1  78   1  79   1
M  ISO  4  38 100  64 101  72 100  86 101
M  END
> <Batch ID>
0005

> <Smiles>
CNC(C)C(=O)NC(C(=O)N1Cc2cc([101O:1][101CH2:1]CCNCc3ccc(Cl)c(CNC4C[100N:0]([100C:0](=O)N5CCCC(n6nc(-c7ccc(Oc8ccc(F)cc8F)cc7)c(C(N)=O)c6N)C5)C4C)c3)ccc2CC1C(=O)NC1CCCc2ccccc21)C(C)(C)C

> <Shape>
0.210

> <Color>
0.182

> <Negative vol penalty>
0.000

$$$$

  -OEChem-04042320263D

 82 90  0     1  0  0  0  0  0999 V2000
  -17.9958  -28.2474   23.1680 C   0  0  0  0  0  0  0  0  0  0  0  0
  -18.6602  -27.0256   23.2035 C   0  0  0  0  0  0  0  0  0  0  0  0
  -22.9849  -10.0077   20.5204 C   0  0  0  0  0  0  0  0  0  0  0  0
  -24.4640   -8.9928   22.1388 C   0  0  0  0  0  0  0  0  0  0  0  0
  -18.5853  -29.3420   22.5370 C   0  0  0  0  0  0  0  0  0  0  0  0
  -19.9141  -26.8975   22.6070 C   0  0  0  0  0  0  0  0  0  0  0  0
  -24.5675  -23.4118   24.5312 C   0  0  0  0  0  0  0  0  0  0  0  0
  -31.9434  -17.9579   21.4815 C   0  0  0  0  0  0  0  0  0  0  0  0
  -31.5351  -19.2821   21.3224 C   0  0  0  0  0  0  0  0  0  0  0  0
  -22.2340   -8.8334   20.4702 C   0  0  0  0  0  0  0  0  0  0  0  0
  -23.7130   -7.8184   22.0886 C   0  0  0  0  0  0  0  0  0  0  0  0
  -25.0179  -22.1508   24.1430 C   0  0  0  0  0  0  0  0  0  0  0  0
  -20.8017   -6.6691   23.3631 C   0  0  0  0  0  0  0  0  0  0  0  0
  -20.4818   -6.0541   24.5735 C   0  0  0  0  0  0  0  0  0  0  0  0
  -26.6351  -23.1850   22.6820 C   0  0  0  0  0  0  0  0  0  0  0  0
  -30.2182  -17.6252   23.1399 C   0  0  0  0  0  0  0  0  0  0  0  0
  -21.6539   -4.0617   23.8709 C   0  0  0  0  0  0  0  0  0  0  0  0
  -24.1000  -10.0874   21.3547 C   0  0  0  0  0  0  0  0  0  0  0  0
  -24.6849  -12.3959   22.2692 C   0  0  0  0  0  0  0  0  0  0  0  0
  -19.8513  -29.2298   21.9409 C   0  0  0  0  0  0  0  0  0  0  0  0
  -25.1410  -24.5707   23.9887 C   0  0  0  0  0  0  0  0  0  0  0  0
  -20.5205  -27.9913   21.9663 C   0  0  0  0  0  0  0  0  0  0  0  0
  -26.1918  -24.4596   23.0669 C   0  0  0  0  0  0  0  0  0  0  0  0
  -31.2849  -17.1294   22.3902 C   0  0  0  0  0  0  0  0  0  0  0  0
  -30.4685  -19.7780   22.0721 C   0  0  0  0  0  0  0  0  0  0  0  0
  -22.5979   -7.7387   21.2543 C   0  0  0  0  0  0  0  0  0  0  0  0
  -26.0499  -22.0372   23.2161 C   0  0  0  0  0  0  0  0  0  0  0  0
  -21.5477   -5.9804   22.4066 C   0  0  0  0  0  0  0  0  0  0  0  0
  -29.8100  -18.9495   22.9808 C   0  0  0  0  0  0  0  0  0  0  0  0
  -20.9079   -4.7504   24.8274 C   0  0  0  0  0  0  0  0  0  0  0  0
  -21.9738   -4.6768   22.6605 C   0  0  0  0  0  0  0  0  0  0  0  0
  -24.8765  -11.3001   21.4065 C   0  0  0  0  0  0  0  0  0  0  0  0
  -25.6745  -13.2830   21.9224 C   0  0  0  0  0  0  0  0  0  0  0  0
  -23.7005  -12.5943   23.2926 C   0  0  0  0  0  0  0  0  0  0  0  0
  -24.0684  -26.9943   22.2339 C   0  0  0  0  0  0  0  0  0  0  0  0
  -27.0466  -28.1736   22.7454 C   0  0  0  0  0  0  0  0  0  0  0  0
  -30.3202  -27.5547   23.4853 C   0  0  0  0  0  0  0  0  0  0  0  0
  -30.9851  -14.3776   20.6015 C   0  0  0  0  0  0  0  0  0  0  0  0
  -20.4274  -30.4283   21.2294 C   0  0  0  0  0  0  0  0  0  0  0  0
  -24.6619  -25.9239   24.4379 C   0  0  0  0  0  0  0  0  0  0  0  0
  -26.8549  -25.6731   22.4701 C   0  0  0  0  0  0  0  0  0  0  0  0
  -21.9230  -30.3087   20.9477 C   0  0  0  0  0  0  0  0  0  0  0  0
  -28.8340  -13.3115   17.9723 C   0  0  0  0  0  0  0  0  0  0  0  0
  -22.2483  -28.9372   20.3645 C   0  0  0  0  0  0  0  0  0  0  0  0
  -27.6003  -12.7782   18.7026 C   0  0  0  0  0  0  0  0  0  0  0  0
  -30.1200  -12.9988   18.7342 C   0  0  0  0  0  0  0  0  0  0  0  0
  -28.8959  -12.9083   20.8713 C   0  0  0  0  0  0  0  0  0  0  0  0
  -21.8928  -27.8193   21.3522 C   0  0  1  0  0  0  0  0  0  0  0  0
  -24.9710  -27.0307   23.4346 C   0  0  1  0  0  0  0  0  0  0  0  0
  -27.5700  -13.2484   20.1693 C   0  0  2  0  0  0  0  0  0  0  0  0
  -30.0462  -21.1982   21.8897 C   0  0  0  0  0  0  0  0  0  0  0  0
  -32.5230  -28.7157   23.7965 C   0  0  0  0  0  0  0  0  0  0  0  0
  -27.3066  -28.4856   19.7213 C   0  0  0  0  0  0  0  0  0  0  0  0
  -29.7796  -28.7271   20.0289 C   0  0  0  0  0  0  0  0  0  0  0  0
  -28.2290  -30.3931   21.0500 C   0  0  0  0  0  0  0  0  0  0  0  0
  -30.5359  -26.6428   26.2926 C   0  0  0  0  0  0  0  0  0  0  0  0
  -31.7213  -15.7133   22.5594 C   0  0  0  0  0  0  0  0  0  0  0  0
  -26.3902  -19.7554   23.7936 C   0  0  0  0  0  0  0  0  0  1  0  0
  -27.5104  -18.7610   23.5571 C   0  0  0  0  0  0  0  0  0  0  0  0
  -28.3745  -28.0691   22.0348 C   0  0  1  0  0  0  0  0  0  0  0  0
  -31.2671  -28.1995   24.4813 C   0  0  2  0  0  0  0  0  0  0  0  0
  -28.4088  -28.8956   20.7183 C   0  0  0  0  0  0  0  0  0  0  0  0
  -25.9067  -11.4730   20.5742 N   0  0  0  0  0  0  0  0  0  0  0  0
  -26.3713  -12.6879   20.9122 N   0  0  0  0  0  0  0  0  0  0  0  0
  -26.3468  -26.9738   22.9363 N   0  0  0  0  0  0  0  0  0  0  0  0
  -30.0268  -13.4719   20.1175 N   0  0  0  0  0  0  0  0  0  0  0  0
  -26.0078  -14.5063   22.3860 N   0  0  0  0  0  0  0  0  0  0  0  0
  -22.7578  -11.5819   23.5181 N   0  0  0  0  0  0  0  0  0  0  0  0
  -22.9012  -27.7183   22.3854 N   0  0  0  0  0  0  0  0  0  0  0  0
  -29.3901  -28.4541   23.0088 N   0  0  0  0  0  0  0  0  0  0  0  0
  -30.8197  -14.7802   21.9211 N   0  0  0  0  0  0  0  0  0  0  0  0
  -31.6714  -27.2145   25.5241 N   0  3  0  0  0  0  0  0  0  0  0  0
  -23.6479  -13.6452   23.9754 O   0  0  0  0  0  0  0  0  0  0  0  0
  -24.4065  -26.3579   21.2428 O   0  0  0  0  0  0  0  0  0  0  0  0
  -26.6484  -29.2782   23.1236 O   0  0  0  0  0  0  0  0  0  0  0  0
  -30.4001  -26.3723   23.1596 O   0  0  0  0  0  0  0  0  0  0  0  0
  -31.9159  -14.8004   19.9074 O   0  0  0  0  0  0  0  0  0  0  0  0
  -21.8652   -6.5927   21.2058 O   0  0  0  0  0  0  0  0  0  0  0  0
  -26.4910  -20.8076   22.8349 O   0  0  0  0  0  0  0  0  0  1  0  0
  -28.7598  -19.4201   23.7242 O   0  0  0  0  0  0  0  0  0  0  0  0
  -20.6019   -4.1604   25.9903 F   0  0  0  0  0  0  0  0  0  0  0  0
  -22.6918   -4.0105   21.7459 F   0  0  0  0  0  0  0  0  0  0  0  0
  1  2  1  0  0  0  0
  1  5  2  0  0  0  0
  2  6  2  0  0  0  0
  3 10  2  0  0  0  0
  3 18  1  0  0  0  0
  4 11  1  0  0  0  0
  4 18  2  0  0  0  0
  5 20  1  0  0  0  0
  6 22  1  0  0  0  0
  7 12  2  0  0  0  0
  7 21  1  0  0  0  0
  8  9  2  0  0  0  0
  8 24  1  0  0  0  0
  9 25  1  0  0  0  0
 10 26  1  0  0  0  0
 11 26  2  0  0  0  0
 12 27  1  0  0  0  0
 13 14  2  0  0  0  0
 13 28  1  0  0  0  0
 14 30  1  0  0  0  0
 15 23  1  0  0  0  0
 15 27  2  0  0  0  0
 16 24  2  0  0  0  0
 16 29  1  0  0  0  0
 17 30  2  0  0  0  0
 17 31  1  0  0  0  0
 18 32  1  0  0  0  0
 19 32  1  0  0  0  0
 19 33  2  0  0  0  0
 19 34  1  0  0  0  0
 20 22  2  0  0  0  0
 20 39  1  0  0  0  0
 21 23  2  0  0  0  0
 21 40  1  0  0  0  0
 22 48  1  0  0  0  0
 23 41  1  0  0  0  0
 24 57  1  0  0  0  0
 25 29  2  0  0  0  0
 25 51  1  0  0  0  0
 26 78  1  0  0  0  0
 27 79  1  0  0  0  0
 28 31  2  0  0  0  0
 28 78  1  0  0  0  0
 29 80  1  0  0  0  0
 30 81  1  0  0  0  0
 31 82  1  0  0  0  0
 32 63  2  0  0  0  0
 33 64  1  0  0  0  0
 33 67  1  0  0  0  0
 34 68  1  0  0  0  0
 34 73  2  0  0  0  0
 35 49  1  0  0  0  0
 35 69  1  0  0  0  0
 35 74  2  0  0  0  0
 36 60  1  0  0  0  0
 36 65  1  0  0  0  0
 36 75  2  0  0  0  0
 37 61  1  0  0  0  0
 37 70  1  0  0  0  0
 37 76  2  0  0  0  0
 38 66  1  0  0  0  0
 38 71  1  0  0  0  0
 38 77  2  0  0  0  0
 39 42  1  0  0  0  0
 40 49  1  0  0  0  0
 41 65  1  0  0  0  0
 42 44  1  0  0  0  0
 43 45  1  0  0  0  0
 43 46  1  0  0  0  0
 44 48  1  0  0  0  0
 45 50  1  0  0  0  0
 46 66  1  0  0  0  0
 47 50  1  0  0  0  0
 47 66  1  0  0  0  0
 48 69  1  0  0  0  0
 49 65  1  0  0  0  0
 50 64  1  0  0  0  0
 52 61  1  0  0  0  0
 53 62  1  0  0  0  0
 54 62  1  0  0  0  0
 55 62  1  0  0  0  0
 56 72  1  0  0  0  0
 57 71  1  0  0  0  0
 58 59  1  0  0  0  0
 58 79  1  0  0  0  0
 59 80  1  0  0  0  0
 60 62  1  0  0  0  0
 60 70  1  0  0  0  0
 61 72  1  0  0  0  0
 63 64  1  0  0  0  0
M  CHG  1  72   1
M  ISO  4  38 100  58 101  71 100  79 101
M  END
> <Batch ID>
0005

> <Smiles>
CNC(C)C(=O)NC(C(=O)N1Cc2cc([101O:1][101CH2:1]COc3cc(C[100NH:0][100C:0](=O)N4CCCC(n5nc(-c6ccc(Oc7ccc(F)cc7F)cc6)c(C(N)=O)c5N)C4)ccc3C)ccc2CC1C(=O)NC1CCCc2ccccc21)C(C)(C)C

> <Shape>
0.258

> <Color>
0.135

> <Negative vol penalty>
0.000

$$$$

  -OEChem-04042320263D

 84 93  0     1  0  0  0  0  0999 V2000
  -31.5843  -30.6209   12.7391 C   0  0  0  0  0  0  0  0  0  0  0  0
  -30.8679  -29.4284   12.7282 C   0  0  0  0  0  0  0  0  0  0  0  0
  -31.8159  -19.1220   23.1336 C   0  0  0  0  0  0  0  0  0  0  0  0
  -32.6426  -18.0403   22.8300 C   0  0  0  0  0  0  0  0  0  0  0  0
  -23.0016   -9.9810   19.9284 C   0  0  0  0  0  0  0  0  0  0  0  0
  -23.7729   -9.8770   22.2156 C   0  0  0  0  0  0  0  0  0  0  0  0
  -32.5559  -30.8403   13.7147 C   0  0  0  0  0  0  0  0  0  0  0  0
  -31.1235  -28.4541   13.6925 C   0  0  0  0  0  0  0  0  0  0  0  0
  -30.4377  -19.0214   22.9439 C   0  0  0  0  0  0  0  0  0  0  0  0
  -27.8246  -23.3436   17.4763 C   0  0  0  0  0  0  0  0  0  0  0  0
  -32.0910  -16.8580   22.3365 C   0  0  0  0  0  0  0  0  0  0  0  0
  -22.2275   -8.8397   20.1375 C   0  0  0  0  0  0  0  0  0  0  0  0
  -22.9988   -8.7356   22.4247 C   0  0  0  0  0  0  0  0  0  0  0  0
  -27.9363  -21.9879   17.7817 C   0  0  0  0  0  0  0  0  0  0  0  0
  -23.1953   -5.4314   21.7358 C   0  0  0  0  0  0  0  0  0  0  0  0
  -23.7859   -4.3622   22.4093 C   0  0  0  0  0  0  0  0  0  0  0  0
  -29.5824  -22.5093   19.4663 C   0  0  0  0  0  0  0  0  0  0  0  0
  -22.0985   -4.5150   24.1317 C   0  0  0  0  0  0  0  0  0  0  0  0
  -23.7744  -10.4996   20.9674 C   0  0  0  0  0  0  0  0  0  0  0  0
  -24.1851  -13.0173   20.9444 C   0  0  0  0  0  0  0  0  0  0  0  0
  -32.8168  -29.8721   14.6972 C   0  0  0  0  0  0  0  0  0  0  0  0
  -28.6002  -24.2929   18.1572 C   0  0  0  0  0  0  0  0  0  0  0  0
  -32.1004  -28.6601   14.6813 C   0  0  0  0  0  0  0  0  0  0  0  0
  -29.8861  -17.8391   22.4504 C   0  0  0  0  0  0  0  0  0  0  0  0
  -29.4768  -23.8767   19.1693 C   0  0  0  0  0  0  0  0  0  0  0  0
  -30.7127  -16.7573   22.1467 C   0  0  0  0  0  0  0  0  0  0  0  0
  -22.2261   -8.2170   21.3857 C   0  0  0  0  0  0  0  0  0  0  0  0
  -28.8174  -21.5703   18.7749 C   0  0  0  0  0  0  0  0  0  0  0  0
  -22.0563   -6.0425   22.2603 C   0  0  0  0  0  0  0  0  0  0  0  0
  -23.2375   -3.9040   23.6072 C   0  0  0  0  0  0  0  0  0  0  0  0
  -21.5079   -5.5843   23.4582 C   0  0  0  0  0  0  0  0  0  0  0  0
  -24.5747  -11.6783   20.7519 C   0  0  0  0  0  0  0  0  0  0  0  0
  -25.2956  -13.7503   20.6041 C   0  0  0  0  0  0  0  0  0  0  0  0
  -22.9314  -13.5507   21.3910 C   0  0  0  0  0  0  0  0  0  0  0  0
  -30.8297  -26.3936   17.3083 C   0  0  0  0  0  0  0  0  0  0  0  0
  -30.5782  -27.3245   20.4055 C   0  0  0  0  0  0  0  0  0  0  0  0
  -29.7219  -26.5246   23.6108 C   0  0  0  0  0  0  0  0  0  0  0  0
  -30.7893  -14.6384   20.7863 C   0  0  0  0  0  0  0  0  0  0  0  0
  -33.9095  -30.1347   15.7030 C   0  0  0  0  0  0  0  0  0  0  0  0
  -28.4484  -25.7541   17.8343 C   0  0  0  0  0  0  0  0  0  0  0  0
  -30.3170  -24.8579   19.9437 C   0  0  0  0  0  0  0  0  0  0  0  0
  -33.8580  -29.2071   16.9144 C   0  0  0  0  0  0  0  0  0  0  0  0
  -29.5969  -12.3510   18.3321 C   0  0  0  0  0  0  0  0  0  0  0  0
  -26.1914  -18.3132   22.9606 C   0  0  0  0  0  0  0  0  0  0  0  0
  -33.6602  -27.7609   16.4713 C   0  0  0  0  0  0  0  0  0  0  0  0
  -27.5739  -18.0337   23.5162 C   0  0  0  0  0  0  0  0  0  0  0  0
  -28.1520  -12.0822   18.7587 C   0  0  0  0  0  0  0  0  0  0  0  0
  -30.5240  -12.5073   19.5362 C   0  0  0  0  0  0  0  0  0  0  0  0
  -28.6447  -13.2287   20.9564 C   0  0  0  0  0  0  0  0  0  0  0  0
  -26.4578  -19.1957   21.7563 C   0  0  0  0  0  0  0  0  0  0  0  0
  -32.3315  -27.5892   15.7254 C   0  0  1  0  0  0  0  0  0  0  0  0
  -28.3929  -17.7590   22.2553 C   0  0  1  0  0  0  0  0  0  0  0  0
  -29.6636  -26.5843   18.2364 C   0  0  1  0  0  0  0  0  0  0  0  0
  -27.6616  -13.1286   19.7786 C   0  0  2  0  0  0  0  0  0  0  0  0
  -29.6627  -27.4796   25.9307 C   0  0  0  0  0  0  0  0  0  0  0  0
  -33.5995  -26.9616   20.6293 C   0  0  0  0  0  0  0  0  0  0  0  0
  -33.3487  -26.9932   23.1202 C   0  0  0  0  0  0  0  0  0  0  0  0
  -32.7051  -28.9950   21.7781 C   0  0  0  0  0  0  0  0  0  0  0  0
  -26.7850  -26.2075   23.7914 C   0  0  0  0  0  0  0  0  0  0  0  0
  -27.8106  -18.2598   19.8367 C   0  0  0  0  0  0  0  0  0  0  0  0
  -27.7689  -19.4385   18.8843 C   0  0  0  0  0  0  0  0  0  1  0  0
  -31.2497  -26.9292   21.6985 C   0  0  1  0  0  0  0  0  0  0  0  0
  -28.8848  -27.2585   24.6428 C   0  0  2  0  0  0  0  0  0  0  0  0
  -32.7115  -27.4508   21.7908 C   0  0  0  0  0  0  0  0  0  0  0  0
  -25.8343  -11.5644   20.3225 N   0  0  0  0  0  0  0  0  0  0  0  0
  -26.2458  -12.8413   20.2422 N   0  0  0  0  0  0  0  0  0  0  0  0
  -30.1376  -26.2749   19.5869 N   0  0  0  0  0  0  0  0  0  0  0  0
  -29.9981  -13.5177   20.4567 N   0  0  0  0  0  0  0  0  0  0  0  0
  -25.5422  -15.0774   20.5821 N   0  0  0  0  0  0  0  0  0  0  0  0
  -21.8965  -12.6570   21.6985 N   0  0  0  0  0  0  0  0  0  0  0  0
  -30.1718  -15.5479   21.6443 N   0  0  0  0  0  0  0  0  0  0  0  0
  -31.2283  -27.5475   16.6611 N   0  0  0  0  0  0  0  0  0  0  0  0
  -30.3789  -27.3987   22.7708 N   0  0  0  0  0  0  0  0  0  0  0  0
  -27.8227  -18.7641   21.2475 N   0  3  1  0  0  0  0  0  0  0  0  0
  -27.6566  -26.4778   24.9637 N   0  3  0  0  0  0  0  0  0  0  0  0
  -22.7294  -14.7841   21.4979 O   0  0  0  0  0  0  0  0  0  0  0  0
  -31.3318  -25.2820   17.1894 O   0  0  0  0  0  0  0  0  0  0  0  0
  -30.4431  -28.5204   20.1352 O   0  0  0  0  0  0  0  0  0  0  0  0
  -29.7895  -25.2986   23.5576 O   0  0  0  0  0  0  0  0  0  0  0  0
  -31.9203  -14.7945   20.3188 O   0  0  0  0  0  0  0  0  0  0  0  0
  -21.4706   -7.1034   21.5901 O   0  0  0  0  0  0  0  0  0  0  0  0
  -28.9289  -20.2475   19.0746 O   0  0  0  0  0  0  0  0  0  1  0  0
  -23.8038   -2.8762   24.2530 F   0  0  0  0  0  0  0  0  0  0  0  0
  -20.4131   -6.1666   23.9664 F   0  0  0  0  0  0  0  0  0  0  0  0
  1  2  1  0  0  0  0
  1  7  2  0  0  0  0
  2  8  2  0  0  0  0
  3  4  1  0  0  0  0
  3  9  2  0  0  0  0
  4 11  2  0  0  0  0
  5 12  2  0  0  0  0
  5 19  1  0  0  0  0
  6 13  1  0  0  0  0
  6 19  2  0  0  0  0
  7 21  1  0  0  0  0
  8 23  1  0  0  0  0
  9 24  1  0  0  0  0
 10 14  2  0  0  0  0
 10 22  1  0  0  0  0
 11 26  1  0  0  0  0
 12 27  1  0  0  0  0
 13 27  2  0  0  0  0
 14 28  1  0  0  0  0
 15 16  2  0  0  0  0
 15 29  1  0  0  0  0
 16 30  1  0  0  0  0
 17 25  1  0  0  0  0
 17 28  2  0  0  0  0
 18 30  2  0  0  0  0
 18 31  1  0  0  0  0
 19 32  1  0  0  0  0
 20 32  1  0  0  0  0
 20 33  2  0  0  0  0
 20 34  1  0  0  0  0
 21 23  2  0  0  0  0
 21 39  1  0  0  0  0
 22 25  2  0  0  0  0
 22 40  1  0  0  0  0
 23 51  1  0  0  0  0
 24 26  2  0  0  0  0
 24 52  1  0  0  0  0
 25 41  1  0  0  0  0
 26 71  1  0  0  0  0
 27 81  1  0  0  0  0
 28 82  1  0  0  0  0
 29 31  2  0  0  0  0
 29 81  1  0  0  0  0
 30 83  1  0  0  0  0
 31 84  1  0  0  0  0
 32 65  2  0  0  0  0
 33 66  1  0  0  0  0
 33 69  1  0  0  0  0
 34 70  1  0  0  0  0
 34 76  2  0  0  0  0
 35 53  1  0  0  0  0
 35 72  1  0  0  0  0
 35 77  2  0  0  0  0
 36 62  1  0  0  0  0
 36 67  1  0  0  0  0
 36 78  2  0  0  0  0
 37 63  1  0  0  0  0
 37 73  1  0  0  0  0
 37 79  2  0  0  0  0
 38 68  1  0  0  0  0
 38 71  1  0  0  0  0
 38 80  2  0  0  0  0
 39 42  1  0  0  0  0
 40 53  1  0  0  0  0
 41 67  1  0  0  0  0
 42 45  1  0  0  0  0
 43 47  1  0  0  0  0
 43 48  1  0  0  0  0
 44 46  1  0  0  0  0
 44 50  1  0  0  0  0
 45 51  1  0  0  0  0
 46 52  1  0  0  0  0
 47 54  1  0  0  0  0
 48 68  1  0  0  0  0
 49 54  1  0  0  0  0
 49 68  1  0  0  0  0
 50 74  1  0  0  0  0
 51 72  1  0  0  0  0
 52 74  1  0  0  0  0
 53 67  1  0  0  0  0
 54 66  1  0  0  0  0
 55 63  1  0  0  0  0
 56 64  1  0  0  0  0
 57 64  1  0  0  0  0
 58 64  1  0  0  0  0
 59 75  1  0  0  0  0
 60 61  1  0  0  0  0
 60 74  1  0  0  0  0
 61 82  1  0  0  0  0
 62 64  1  0  0  0  0
 62 73  1  0  0  0  0
 63 75  1  0  0  0  0
 65 66  1  0  0  0  0
M  CHG  2  74   1  75   1
M  ISO  4  38 100  61 101  71 100  82 101
M  END
> <Batch ID>
0005

> <Smiles>
CNC(C)C(=O)NC(C(=O)N1Cc2cc([101O:1][101CH2:1]CN3CCCC3c3ccccc3[100NH:0][100C:0](=O)N3CCCC(n4nc(-c5ccc(Oc6ccc(F)cc6F)cc5)c(C(N)=O)c4N)C3)ccc2CC1C(=O)NC1CCCc2ccccc21)C(C)(C)C

> <Shape>
0.278

> <Color>
0.198

> <Negative vol penalty>
0.000

$$$$

  -OEChem-04042320263D

103114  0     1  0  0  0  0  0999 V2000
  -25.3459  -27.8322   26.2600 C   0  0  0  0  0  0  0  0  0  0  0  0
  -25.7407  -26.7355   25.5005 C   0  0  0  0  0  0  0  0  0  0  0  0
  -22.4623   -8.7724   22.1168 C   0  0  0  0  0  0  0  0  0  0  0  0
  -22.5467   -8.1958   20.8496 C   0  0  0  0  0  0  0  0  0  0  0  0
  -27.3036  -25.7089   20.3279 C   0  0  0  0  0  0  0  0  0  0  0  0
  -26.2652  -25.1269   18.2255 C   0  0  0  0  0  0  0  0  0  0  0  0
  -24.0011  -28.0061   26.5844 C   0  0  0  0  0  0  0  0  0  0  0  0
  -24.7911  -25.8116   25.0658 C   0  0  0  0  0  0  0  0  0  0  0  0
  -23.3728  -21.4219   19.5854 C   0  0  0  0  0  0  0  0  0  0  0  0
  -23.4046   -9.7203   22.5160 C   0  0  0  0  0  0  0  0  0  0  0  0
  -23.5734   -8.5670   19.9814 C   0  0  0  0  0  0  0  0  0  0  0  0
  -29.8677  -13.0022   20.1834 C   0  0  0  0  0  0  0  0  0  0  0  0
  -26.2951  -26.6422   20.5676 C   0  0  0  0  0  0  0  0  0  0  0  0
  -25.2567  -26.0601   18.4653 C   0  0  0  0  0  0  0  0  0  0  0  0
  -23.0568  -20.0887   19.3271 C   0  0  0  0  0  0  0  0  0  0  0  0
  -25.5147  -29.7766   19.5722 C   0  0  0  0  0  0  0  0  0  0  0  0
  -25.8948  -31.0347   20.0393 C   0  0  0  0  0  0  0  0  0  0  0  0
  -29.9033  -11.7223   19.6300 C   0  0  0  0  0  0  0  0  0  0  0  0
  -20.7516  -20.5341   19.8810 C   0  0  0  0  0  0  0  0  0  0  0  0
  -27.6508  -13.3307   19.2809 C   0  0  0  0  0  0  0  0  0  0  0  0
  -24.5716  -30.6945   22.0320 C   0  0  0  0  0  0  0  0  0  0  0  0
  -27.2887  -24.9512   19.1567 C   0  0  0  0  0  0  0  0  0  0  0  0
  -29.7118  -24.2372   18.8009 C   0  0  0  0  0  0  0  0  0  0  0  0
  -23.0332  -27.0891   26.1454 C   0  0  0  0  0  0  0  0  0  0  0  0
  -22.3809  -22.3201   20.0046 C   0  0  0  0  0  0  0  0  0  0  0  0
  -23.4323  -25.9727   25.3858 C   0  0  0  0  0  0  0  0  0  0  0  0
  -21.0571  -21.8787   20.1414 C   0  0  0  0  0  0  0  0  0  0  0  0
  -28.7414  -13.8064   20.0089 C   0  0  0  0  0  0  0  0  0  0  0  0
  -24.4314  -10.0915   21.6478 C   0  0  0  0  0  0  0  0  0  0  0  0
  -24.5158   -9.5148   20.3806 C   0  0  0  0  0  0  0  0  0  0  0  0
  -27.6864  -12.0508   18.7274 C   0  0  0  0  0  0  0  0  0  0  0  0
  -25.2716  -26.8178   19.6364 C   0  0  0  0  0  0  0  0  0  0  0  0
  -21.7466  -19.6440   19.4777 C   0  0  0  0  0  0  0  0  0  0  0  0
  -24.6630  -28.9774   20.3349 C   0  0  0  0  0  0  0  0  0  0  0  0
  -25.4232  -31.4937   21.2692 C   0  0  0  0  0  0  0  0  0  0  0  0
  -24.1915  -29.4364   21.5648 C   0  0  0  0  0  0  0  0  0  0  0  0
  -28.8127  -11.2466   18.9020 C   0  0  0  0  0  0  0  0  0  0  0  0
  -28.3305  -23.9874   18.9082 C   0  0  0  0  0  0  0  0  0  0  0  0
  -30.2665  -23.0033   18.5639 C   0  0  0  0  0  0  0  0  0  0  0  0
  -30.4292  -25.4741   18.9062 C   0  0  0  0  0  0  0  0  0  0  0  0
  -23.1879  -13.2245   19.2509 C   0  0  0  0  0  0  0  0  0  0  0  0
  -21.8992  -24.0730   22.6121 C   0  0  0  0  0  0  0  0  0  0  0  0
  -19.4185  -25.2533   20.8870 C   0  0  0  0  0  0  0  0  0  0  0  0
  -16.8551  -25.8557   18.7161 C   0  0  0  0  0  0  0  0  0  0  0  0
  -28.4593  -17.5508   19.9275 C   0  0  0  0  0  0  0  0  0  0  0  0
  -21.5979  -27.2937   26.5610 C   0  0  0  0  0  0  0  0  0  0  0  0
  -22.7330  -23.7612   20.2534 C   0  0  0  0  0  0  0  0  0  0  0  0
  -19.9516  -22.8078   20.5694 C   0  0  0  0  0  0  0  0  0  0  0  0
  -20.6043  -26.4708   25.7451 C   0  0  0  0  0  0  0  0  0  0  0  0
  -29.2518  -18.7546   16.6078 C   0  0  0  0  0  0  0  0  0  0  0  0
  -21.0861  -25.0295   25.6131 C   0  0  0  0  0  0  0  0  0  0  0  0
  -29.2349  -20.2693   16.8215 C   0  0  0  0  0  0  0  0  0  0  0  0
  -22.7761  -16.6754   18.1411 C   0  0  0  0  0  0  0  0  0  0  0  0
  -21.9874  -16.3741   20.5119 C   0  0  0  0  0  0  0  0  0  0  0  0
  -22.3562  -12.6861   17.0062 C   0  0  0  0  0  0  0  0  0  0  0  0
  -28.1649  -18.0682   17.4298 C   0  0  0  0  0  0  0  0  0  0  0  0
  -23.7616  -15.5285   18.3426 C   0  0  0  0  0  0  0  0  0  0  0  0
  -22.9864  -15.2345   20.6764 C   0  0  0  0  0  0  0  0  0  0  0  0
  -28.2020  -19.8748   19.1057 C   0  0  0  0  0  0  0  0  0  0  0  0
  -22.6227  -12.0144   15.6697 C   0  0  0  0  0  0  0  0  0  0  0  0
  -24.3623  -10.5569   16.7220 C   0  0  0  0  0  0  0  0  0  0  0  0
  -22.4285  -24.9620   24.8749 C   0  0  1  0  0  0  0  0  0  0  0  0
  -23.5848  -12.6471   17.9231 C   0  0  2  0  0  0  0  0  0  0  0  0
  -21.7409  -24.4687   21.1712 C   0  0  1  0  0  0  0  0  0  0  0  0
  -29.2925  -20.6246   18.3190 C   0  0  2  0  0  0  0  0  0  0  0  0
  -24.1205  -11.2127   18.0807 C   0  0  2  0  0  0  0  0  0  0  0  0
  -22.4543  -17.3776   19.4585 C   0  0  0  0  0  0  0  0  0  1  0  0
  -25.4283  -11.1092   22.0962 C   0  0  0  0  0  0  0  0  0  0  0  0
  -14.7553  -27.2083   18.4742 C   0  0  0  0  0  0  0  0  0  0  0  0
  -17.9773  -23.3516   22.7887 C   0  0  0  0  0  0  0  0  0  0  0  0
  -15.8089  -24.1130   21.7954 C   0  0  0  0  0  0  0  0  0  0  0  0
  -17.2782  -25.7452   22.9787 C   0  0  0  0  0  0  0  0  0  0  0  0
  -17.8993  -27.2647   16.3321 C   0  0  0  0  0  0  0  0  0  0  0  0
  -28.7038  -15.1751   20.6007 C   0  0  0  0  0  0  0  0  0  0  0  0
  -25.6123   -9.8978   19.4291 C   0  0  0  0  0  0  0  0  0  0  0  0
  -26.4920  -11.5759   17.9516 C   0  0  0  0  0  0  0  0  0  0  0  0
  -17.9676  -24.8777   20.7062 C   0  0  1  0  0  0  0  0  0  0  0  0
  -16.2511  -27.1514   18.2054 C   0  0  2  0  0  0  0  0  0  0  0  0
  -17.2784  -24.5109   22.0508 C   0  0  0  0  0  0  0  0  0  0  0  0
  -28.0264  -22.6962   18.7520 N   0  0  0  0  0  0  0  0  0  0  0  0
  -29.2243  -22.1237   18.5441 N   0  0  0  0  0  0  0  0  0  0  0  0
  -23.2937  -14.6090   19.3880 N   0  0  0  0  0  0  0  0  0  0  0  0
  -20.3472  -24.2059   20.8069 N   0  0  0  0  0  0  0  0  0  0  0  0
  -28.2872  -18.4333   18.8482 N   0  0  0  0  0  0  0  0  0  0  0  0
  -31.5391  -22.5957   18.3725 N   0  0  0  0  0  0  0  0  0  0  0  0
  -30.6375  -26.2268   17.7424 N   0  0  0  0  0  0  0  0  0  0  0  0
  -22.2303  -25.1207   23.4501 N   0  0  0  0  0  0  0  0  0  0  0  0
  -17.3431  -25.9903   19.9987 N   0  0  0  0  0  0  0  0  0  0  0  0
  -28.5232  -16.2022   19.5990 N   0  0  0  0  0  0  0  0  0  0  0  0
  -25.3811  -11.2096   18.8278 N   0  0  1  0  0  0  0  0  0  0  0  0
  -23.1112  -10.6257   15.9097 N   0  3  0  0  0  0  0  0  0  0  0  0
  -16.4701  -27.2816   16.7371 N   0  3  0  0  0  0  0  0  0  0  0  0
  -30.8868  -25.8911   19.9971 O   0  0  0  0  0  0  0  0  0  0  0  0
  -22.7922  -12.4686   20.1420 O   0  0  0  0  0  0  0  0  0  0  0  0
  -21.7318  -22.9041   22.9395 O   0  0  0  0  0  0  0  0  0  0  0  0
  -19.7176  -26.4336   21.0847 O   0  0  0  0  0  0  0  0  0  0  0  0
  -16.8873  -24.8260   18.0458 O   0  0  0  0  0  0  0  0  0  0  0  0
  -28.5544  -17.9365   21.0976 O   0  0  0  0  0  0  0  0  0  0  0  0
  -24.2872  -27.7282   19.8701 O   0  0  0  0  0  0  0  0  0  0  0  0
  -21.4356  -18.3431   19.2269 O   0  0  0  0  0  0  0  0  0  1  0  0
  -25.7895  -32.7012   21.7184 F   0  0  0  0  0  0  0  0  0  0  0  0
  -23.3740  -28.6726   22.3026 F   0  0  0  0  0  0  0  0  0  0  0  0
  -28.8921   -9.6580   18.2319 Cl  0  0  0  0  0  0  0  0  0  0  0  0
  1  2  1  0  0  0  0
  1  7  2  0  0  0  0
  2  8  2  0  0  0  0
  3  4  1  0  0  0  0
  3 10  2  0  0  0  0
  4 11  2  0  0  0  0
  5 13  2  0  0  0  0
  5 22  1  0  0  0  0
  6 14  1  0  0  0  0
  6 22  2  0  0  0  0
  7 24  1  0  0  0  0
  8 26  1  0  0  0  0
  9 15  2  0  0  0  0
  9 25  1  0  0  0  0
 10 29  1  0  0  0  0
 11 30  1  0  0  0  0
 12 18  2  0  0  0  0
 12 28  1  0  0  0  0
 13 32  1  0  0  0  0
 14 32  2  0  0  0  0
 15 33  1  0  0  0  0
 16 17  2  0  0  0  0
 16 34  1  0  0  0  0
 17 35  1  0  0  0  0
 18 37  1  0  0  0  0
 19 27  1  0  0  0  0
 19 33  2  0  0  0  0
 20 28  2  0  0  0  0
 20 31  1  0  0  0  0
 21 35  2  0  0  0  0
 21 36  1  0  0  0  0
 22 38  1  0  0  0  0
 23 38  1  0  0  0  0
 23 39  2  0  0  0  0
 23 40  1  0  0  0  0
 24 26  2  0  0  0  0
 24 46  1  0  0  0  0
 25 27  2  0  0  0  0
 25 47  1  0  0  0  0
 26 62  1  0  0  0  0
 27 48  1  0  0  0  0
 28 74  1  0  0  0  0
 29 30  2  0  0  0  0
 29 68  1  0  0  0  0
 30 75  1  0  0  0  0
 31 37  2  0  0  0  0
 31 76  1  0  0  0  0
 32 99  1  0  0  0  0
 33100  1  0  0  0  0
 34 36  2  0  0  0  0
 34 99  1  0  0  0  0
 35101  1  0  0  0  0
 36102  1  0  0  0  0
 37103  1  0  0  0  0
 38 80  2  0  0  0  0
 39 81  1  0  0  0  0
 39 85  1  0  0  0  0
 40 86  1  0  0  0  0
 40 93  2  0  0  0  0
 41 63  1  0  0  0  0
 41 82  1  0  0  0  0
 41 94  2  0  0  0  0
 42 64  1  0  0  0  0
 42 87  1  0  0  0  0
 42 95  2  0  0  0  0
 43 77  1  0  0  0  0
 43 83  1  0  0  0  0
 43 96  2  0  0  0  0
 44 78  1  0  0  0  0
 44 88  1  0  0  0  0
 44 97  2  0  0  0  0
 45 84  1  0  0  0  0
 45 89  1  0  0  0  0
 45 98  2  0  0  0  0
 46 49  1  0  0  0  0
 47 64  1  0  0  0  0
 48 83  1  0  0  0  0
 49 51  1  0  0  0  0
 50 52  1  0  0  0  0
 50 56  1  0  0  0  0
 51 62  1  0  0  0  0
 52 65  1  0  0  0  0
 53 57  1  0  0  0  0
 53 67  1  0  0  0  0
 54 58  1  0  0  0  0
 54 67  1  0  0  0  0
 55 60  1  0  0  0  0
 55 63  1  0  0  0  0
 56 84  1  0  0  0  0
 57 82  1  0  0  0  0
 58 82  1  0  0  0  0
 59 65  1  0  0  0  0
 59 84  1  0  0  0  0
 60 91  1  0  0  0  0
 61 66  1  0  0  0  0
 61 91  1  0  0  0  0
 62 87  1  0  0  0  0
 63 66  1  0  0  0  0
 64 83  1  0  0  0  0
 65 81  1  0  0  0  0
 66 90  1  0  0  0  0
 67100  1  0  0  0  0
 69 78  1  0  0  0  0
 70 79  1  0  0  0  0
 71 79  1  0  0  0  0
 72 79  1  0  0  0  0
 73 92  1  0  0  0  0
 74 89  1  0  0  0  0
 75 90  1  0  0  0  0
 76 90  1  0  0  0  0
 77 79  1  0  0  0  0
 77 88  1  0  0  0  0
 78 92  1  0  0  0  0
 80 81  1  0  0  0  0
M  CHG  2  91   1  92   1
M  ISO  4  45 100  67 101  89 100 100 101
M  END
> <Batch ID>
0005

> <Smiles>
CNC(C)C(=O)NC(C(=O)N1Cc2cc([101O:1][101CH:1]3CCN(C(=O)C4CCNCC4N(Cc4ccccc4C)Cc4cc(C[100NH:0][100C:0](=O)N5CCCC(n6nc(-c7ccc(Oc8ccc(F)cc8F)cc7)c(C(N)=O)c6N)C5)ccc4Cl)CC3)ccc2CC1C(=O)NC1CCCc2ccccc21)C(C)(C)C

> <Shape>
0.223

> <Color>
0.062

> <Negative vol penalty>
0.000

$$$$

  -OEChem-04042320263D

 97107  0     1  0  0  0  0  0999 V2000
  -27.2834  -37.9303   20.5171 C   0  0  0  0  0  0  0  0  0  0  0  0
  -27.8244  -36.6825   20.2244 C   0  0  0  0  0  0  0  0  0  0  0  0
  -29.2551  -10.2386   16.7098 C   0  0  0  0  0  0  0  0  0  0  0  0
  -28.0208  -10.5876   20.1933 C   0  0  0  0  0  0  0  0  0  0  0  0
  -22.8193   -8.2905   19.7824 C   0  0  0  0  0  0  0  0  0  0  0  0
  -23.7121  -10.1364   21.0602 C   0  0  0  0  0  0  0  0  0  0  0  0
  -26.3579  -38.0624   21.5515 C   0  0  0  0  0  0  0  0  0  0  0  0
  -27.4410  -35.5661   20.9667 C   0  0  0  0  0  0  0  0  0  0  0  0
  -26.8111  -29.8267   18.9249 C   0  0  0  0  0  0  0  0  0  0  0  0
  -29.9052  -11.4595   16.5277 C   0  0  0  0  0  0  0  0  0  0  0  0
  -29.8166  -16.2148   20.0706 C   0  0  0  0  0  0  0  0  0  0  0  0
  -30.4020  -15.1536   19.3802 C   0  0  0  0  0  0  0  0  0  0  0  0
  -27.3707   -9.3667   20.3754 C   0  0  0  0  0  0  0  0  0  0  0  0
  -22.9571   -7.4560   20.8916 C   0  0  0  0  0  0  0  0  0  0  0  0
  -23.8498   -9.3019   22.1694 C   0  0  0  0  0  0  0  0  0  0  0  0
  -27.6509  -28.7151   18.9773 C   0  0  0  0  0  0  0  0  0  0  0  0
  -21.2969   -6.8499   23.7742 C   0  0  0  0  0  0  0  0  0  0  0  0
  -20.2305   -6.0073   24.0879 C   0  0  0  0  0  0  0  0  0  0  0  0
  -29.3112  -12.1124   18.7746 C   0  0  0  0  0  0  0  0  0  0  0  0
  -27.9646   -8.7139   18.1285 C   0  0  0  0  0  0  0  0  0  0  0  0
  -26.4992  -27.9456   20.9522 C   0  0  0  0  0  0  0  0  0  0  0  0
  -28.4200  -16.6895   18.1571 C   0  0  0  0  0  0  0  0  0  0  0  0
  -21.6674   -4.0850   23.8100 C   0  0  0  0  0  0  0  0  0  0  0  0
  -28.6522  -10.8886   18.9755 C   0  0  0  0  0  0  0  0  0  0  0  0
  -28.6237   -9.9377   17.9276 C   0  0  0  0  0  0  0  0  0  0  0  0
  -23.1969   -9.6307   19.8667 C   0  0  0  0  0  0  0  0  0  0  0  0
  -21.9350  -11.2731   18.3775 C   0  0  0  0  0  0  0  0  0  0  0  0
  -25.9556  -36.9453   22.3005 C   0  0  0  0  0  0  0  0  0  0  0  0
  -25.8145  -30.0121   19.8937 C   0  0  0  0  0  0  0  0  0  0  0  0
  -26.5102  -35.6835   22.0129 C   0  0  0  0  0  0  0  0  0  0  0  0
  -25.6464  -29.0591   20.9085 C   0  0  0  0  0  0  0  0  0  0  0  0
  -29.9332  -12.3946   17.5581 C   0  0  0  0  0  0  0  0  0  0  0  0
  -28.8255  -16.9827   19.4591 C   0  0  0  0  0  0  0  0  0  0  0  0
  -29.9964  -14.8604   18.0782 C   0  0  0  0  0  0  0  0  0  0  0  0
  -29.0055  -15.6283   17.4666 C   0  0  0  0  0  0  0  0  0  0  0  0
  -27.3427   -8.4316   19.3450 C   0  0  0  0  0  0  0  0  0  0  0  0
  -23.4723   -7.9617   22.0851 C   0  0  0  0  0  0  0  0  0  0  0  0
  -27.4969  -27.7758   19.9927 C   0  0  0  0  0  0  0  0  0  0  0  0
  -22.5486   -6.3100   23.4782 C   0  0  0  0  0  0  0  0  0  0  0  0
  -20.4157   -4.6249   24.1059 C   0  0  0  0  0  0  0  0  0  0  0  0
  -22.7339   -4.9276   23.4962 C   0  0  0  0  0  0  0  0  0  0  0  0
  -23.0554  -10.4931   18.7211 C   0  0  0  0  0  0  0  0  0  0  0  0
  -22.2997  -11.9038   17.2131 C   0  0  0  0  0  0  0  0  0  0  0  0
  -20.6770  -11.4149   19.0506 C   0  0  0  0  0  0  0  0  0  0  0  0
  -25.2063  -32.2271   22.0909 C   0  0  0  0  0  0  0  0  0  0  0  0
  -22.4902  -30.5048   22.5137 C   0  0  0  0  0  0  0  0  0  0  0  0
  -20.8846  -27.5078   22.2187 C   0  0  0  0  0  0  0  0  0  0  0  0
  -27.6062  -13.3831   14.8670 C   0  0  0  0  0  0  0  0  0  0  0  0
  -24.9879  -37.1455   23.4398 C   0  0  0  0  0  0  0  0  0  0  0  0
  -24.8994  -31.2028   19.8078 C   0  0  0  0  0  0  0  0  0  0  0  0
  -24.5785  -29.2014   21.9610 C   0  0  0  0  0  0  0  0  0  0  0  0
  -24.3524  -35.8486   23.9342 C   0  0  0  0  0  0  0  0  0  0  0  0
  -25.0966  -11.3481   13.3713 C   0  0  0  0  0  0  0  0  0  0  0  0
  -25.4141  -34.7678   24.1118 C   0  0  0  0  0  0  0  0  0  0  0  0
  -24.1878  -10.9686   14.5417 C   0  0  0  0  0  0  0  0  0  0  0  0
  -26.5631  -11.4099   13.7924 C   0  0  0  0  0  0  0  0  0  0  0  0
  -25.9294  -11.8979   16.1235 C   0  0  0  0  0  0  0  0  0  0  0  0
  -26.1006  -34.4446   22.7793 C   0  0  1  0  0  0  0  0  0  0  0  0
  -24.2523  -31.5566   21.1433 C   0  0  1  0  0  0  0  0  0  0  0  0
  -24.4346  -11.8775   15.7609 C   0  0  2  0  0  0  0  0  0  0  0  0
  -18.6820  -26.3989   22.6836 C   0  0  0  0  0  0  0  0  0  0  0  0
  -23.1894  -30.3651   25.4804 C   0  0  0  0  0  0  0  0  0  0  0  0
  -21.5319  -28.5031   25.7121 C   0  0  0  0  0  0  0  0  0  0  0  0
  -20.7690  -30.7679   24.9970 C   0  0  0  0  0  0  0  0  0  0  0  0
  -20.4518  -26.9047   19.3537 C   0  0  0  0  0  0  0  0  0  0  0  0
  -30.6385  -13.7200   17.3584 C   0  0  0  0  0  0  0  0  0  0  0  0
  -28.5555  -15.3332   16.0734 C   0  0  0  0  0  0  0  0  0  0  0  0
  -28.1964  -18.1244   20.2019 C   0  0  0  0  0  0  0  0  0  0  0  0
  -28.5958  -21.9049   19.8716 C   0  0  0  0  0  0  0  0  0  0  0  0
  -28.4287  -24.2982   19.9404 C   0  0  0  0  0  0  0  0  0  0  0  0
  -28.0233  -20.6074   20.4103 C   0  0  0  0  0  0  0  0  0  0  0  0
  -27.7752  -25.4965   20.6117 C   0  0  0  0  0  0  0  0  0  1  0  0
  -22.0888  -29.3377   23.3831 C   0  0  1  0  0  0  0  0  0  0  0  0
  -19.5206  -27.1467   21.6587 C   0  0  2  0  0  0  0  0  0  0  0  0
  -21.9162  -29.7415   24.8746 C   0  0  0  0  0  0  0  0  0  0  0  0
  -24.0568  -10.6153   17.8458 N   0  0  0  0  0  0  0  0  0  0  0  0
  -23.5670  -11.4795   16.9406 N   0  0  0  0  0  0  0  0  0  0  0  0
  -23.7128  -30.3858   21.8378 N   0  0  0  0  0  0  0  0  0  0  0  0
  -26.7291  -12.2893   14.9522 N   0  0  0  0  0  0  0  0  0  0  0  0
  -26.6845   -7.1978   19.5303 N   0  0  0  0  0  0  0  0  0  0  0  0
  -21.6569  -12.7743   16.4061 N   0  0  0  0  0  0  0  0  0  0  0  0
  -20.4680  -10.6951   20.2349 N   0  0  0  0  0  0  0  0  0  0  0  0
  -25.2515  -33.6024   21.9644 N   0  0  0  0  0  0  0  0  0  0  0  0
  -20.8904  -28.7693   22.7754 N   0  0  0  0  0  0  0  0  0  0  0  0
  -27.6998  -14.1694   16.0089 N   0  0  0  0  0  0  0  0  0  0  0  0
  -27.9297  -23.0446   20.4878 N   0  0  0  0  0  0  0  0  0  0  0  0
  -19.6677  -26.2841   20.4524 N   0  3  0  0  0  0  0  0  0  0  0  0
  -28.6723  -19.4556   19.7367 N   0  3  0  0  0  0  0  0  0  0  0  0
  -19.7591  -12.1452   18.6060 O   0  0  0  0  0  0  0  0  0  0  0  0
  -25.8524  -31.5472   22.8795 O   0  0  0  0  0  0  0  0  0  0  0  0
  -21.7430  -31.4829   22.4316 O   0  0  0  0  0  0  0  0  0  0  0  0
  -21.8475  -26.7456   22.1705 O   0  0  0  0  0  0  0  0  0  0  0  0
  -28.2535  -13.6431   13.8471 O   0  0  0  0  0  0  0  0  0  0  0  0
  -23.6066   -7.1478   23.1677 O   0  0  0  0  0  0  0  0  0  0  0  0
  -28.3156  -26.6901   20.0465 O   0  0  0  0  0  0  0  0  0  1  0  0
  -19.3919   -3.8161   24.4087 F   0  0  0  0  0  0  0  0  0  0  0  0
  -23.9343   -4.4032   23.2140 F   0  0  0  0  0  0  0  0  0  0  0  0
  1  2  1  0  0  0  0
  1  7  2  0  0  0  0
  2  8  2  0  0  0  0
  3 10  2  0  0  0  0
  3 25  1  0  0  0  0
  4 13  2  0  0  0  0
  4 24  1  0  0  0  0
  5 14  2  0  0  0  0
  5 26  1  0  0  0  0
  6 15  1  0  0  0  0
  6 26  2  0  0  0  0
  7 28  1  0  0  0  0
  8 30  1  0  0  0  0
  9 16  2  0  0  0  0
  9 29  1  0  0  0  0
 10 32  1  0  0  0  0
 11 12  2  0  0  0  0
 11 33  1  0  0  0  0
 12 34  1  0  0  0  0
 13 36  1  0  0  0  0
 14 37  1  0  0  0  0
 15 37  2  0  0  0  0
 16 38  1  0  0  0  0
 17 18  2  0  0  0  0
 17 39  1  0  0  0  0
 18 40  1  0  0  0  0
 19 24  1  0  0  0  0
 19 32  2  0  0  0  0
 20 25  1  0  0  0  0
 20 36  2  0  0  0  0
 21 31  1  0  0  0  0
 21 38  2  0  0  0  0
 22 33  2  0  0  0  0
 22 35  1  0  0  0  0
 23 40  2  0  0  0  0
 23 41  1  0  0  0  0
 24 25  2  0  0  0  0
 26 42  1  0  0  0  0
 27 42  1  0  0  0  0
 27 43  2  0  0  0  0
 27 44  1  0  0  0  0
 28 30  2  0  0  0  0
 28 49  1  0  0  0  0
 29 31  2  0  0  0  0
 29 50  1  0  0  0  0
 30 58  1  0  0  0  0
 31 51  1  0  0  0  0
 32 66  1  0  0  0  0
 33 68  1  0  0  0  0
 34 35  2  0  0  0  0
 34 66  1  0  0  0  0
 35 67  1  0  0  0  0
 36 80  1  0  0  0  0
 37 94  1  0  0  0  0
 38 95  1  0  0  0  0
 39 41  2  0  0  0  0
 39 94  1  0  0  0  0
 40 96  1  0  0  0  0
 41 97  1  0  0  0  0
 42 76  2  0  0  0  0
 43 77  1  0  0  0  0
 43 81  1  0  0  0  0
 44 82  1  0  0  0  0
 44 89  2  0  0  0  0
 45 59  1  0  0  0  0
 45 83  1  0  0  0  0
 45 90  2  0  0  0  0
 46 73  1  0  0  0  0
 46 78  1  0  0  0  0
 46 91  2  0  0  0  0
 47 74  1  0  0  0  0
 47 84  1  0  0  0  0
 47 92  2  0  0  0  0
 48 79  1  0  0  0  0
 48 85  1  0  0  0  0
 48 93  2  0  0  0  0
 49 52  1  0  0  0  0
 50 59  1  0  0  0  0
 51 78  1  0  0  0  0
 52 54  1  0  0  0  0
 53 55  1  0  0  0  0
 53 56  1  0  0  0  0
 54 58  1  0  0  0  0
 55 60  1  0  0  0  0
 56 79  1  0  0  0  0
 57 60  1  0  0  0  0
 57 79  1  0  0  0  0
 58 83  1  0  0  0  0
 59 78  1  0  0  0  0
 60 77  1  0  0  0  0
 61 74  1  0  0  0  0
 62 75  1  0  0  0  0
 63 75  1  0  0  0  0
 64 75  1  0  0  0  0
 65 87  1  0  0  0  0
 67 85  1  0  0  0  0
 68 88  1  0  0  0  0
 69 71  1  0  0  0  0
 69 86  1  0  0  0  0
 70 72  1  0  0  0  0
 70 86  1  0  0  0  0
 71 88  1  0  0  0  0
 72 95  1  0  0  0  0
 73 75  1  0  0  0  0
 73 84  1  0  0  0  0
 74 87  1  0  0  0  0
 76 77  1  0  0  0  0
M  CHG  2  87   1  88   1
M  ISO  4  48 100  72 101  85 100  95 101
M  END
> <Batch ID>
0005

> <Smiles>
CNC(C)C(=O)NC(C(=O)N1Cc2cc([101O:1][101CH2:1]CNCCNCc3ccc(Cc4ccc5cc(N)ccc5c4)c(C[100NH:0][100C:0](=O)N4CCCC(n5nc(-c6ccc(Oc7ccc(F)cc7F)cc6)c(C(N)=O)c5N)C4)c3)ccc2CC1C(=O)NC1CCCc2ccccc21)C(C)(C)C

> <Shape>
0.286

> <Color>
0.079

> <Negative vol penalty>
0.000

$$$$

  -OEChem-04042320263D

 95103  0     1  0  0  0  0  0999 V2000
  -37.1976  -12.3212   19.8365 C   0  0  0  0  0  0  0  0  0  0  0  0
  -36.6709  -13.6079   19.8857 C   0  0  0  0  0  0  0  0  0  0  0  0
  -22.8001  -23.6181   20.6531 C   0  0  0  0  0  0  0  0  0  0  0  0
  -23.9742  -23.7645   22.7596 C   0  0  0  0  0  0  0  0  0  0  0  0
  -36.4588  -11.2884   19.2608 C   0  0  0  0  0  0  0  0  0  0  0  0
  -35.4055  -13.8627   19.3583 C   0  0  0  0  0  0  0  0  0  0  0  0
  -31.2711  -17.8551   21.4734 C   0  0  0  0  0  0  0  0  0  0  0  0
  -23.0679  -22.2503   20.5988 C   0  0  0  0  0  0  0  0  0  0  0  0
  -24.2419  -22.3966   22.7053 C   0  0  0  0  0  0  0  0  0  0  0  0
  -30.9364  -19.1521   21.0869 C   0  0  0  0  0  0  0  0  0  0  0  0
  -21.8520  -19.4171   21.9871 C   0  0  0  0  0  0  0  0  0  0  0  0
  -23.0061  -32.7387   27.4092 C   0  0  0  0  0  0  0  0  0  0  0  0
  -20.8069  -18.5657   21.6289 C   0  0  0  0  0  0  0  0  0  0  0  0
  -21.7075  -33.2324   27.2845 C   0  0  0  0  0  0  0  0  0  0  0  0
  -29.1359  -18.2794   19.7393 C   0  0  0  0  0  0  0  0  0  0  0  0
  -22.1944  -33.9427   25.0272 C   0  0  0  0  0  0  0  0  0  0  0  0
  -22.0836  -17.7990   19.7265 C   0  0  0  0  0  0  0  0  0  0  0  0
  -23.2533  -24.3752   21.7334 C   0  0  0  0  0  0  0  0  0  0  0  0
  -21.8579  -26.4135   22.3705 C   0  0  0  0  0  0  0  0  0  0  0  0
  -35.1797  -11.5287   18.7348 C   0  0  0  0  0  0  0  0  0  0  0  0
  -30.5464  -16.7578   20.9864 C   0  0  0  0  0  0  0  0  0  0  0  0
  -34.6495  -12.8324   18.7738 C   0  0  0  0  0  0  0  0  0  0  0  0
  -29.4618  -16.9696   20.1232 C   0  0  0  0  0  0  0  0  0  0  0  0
  -23.4930  -33.4491   25.1519 C   0  0  0  0  0  0  0  0  0  0  0  0
  -23.7887  -21.6395   21.6250 C   0  0  0  0  0  0  0  0  0  0  0  0
  -29.8705  -19.3642   20.2174 C   0  0  0  0  0  0  0  0  0  0  0  0
  -23.8989  -32.8471   26.3429 C   0  0  0  0  0  0  0  0  0  0  0  0
  -23.0130  -19.4595   21.2150 C   0  0  0  0  0  0  0  0  0  0  0  0
  -20.9227  -17.7566   20.4986 C   0  0  0  0  0  0  0  0  0  0  0  0
  -23.1288  -18.6504   20.0847 C   0  0  0  0  0  0  0  0  0  0  0  0
  -21.3016  -33.8344   26.0935 C   0  0  0  0  0  0  0  0  0  0  0  0
  -22.9775  -25.7883   21.7897 C   0  0  0  0  0  0  0  0  0  0  0  0
  -22.0668  -27.7548   22.1619 C   0  0  0  0  0  0  0  0  0  0  0  0
  -20.7298  -25.8335   23.0390 C   0  0  0  0  0  0  0  0  0  0  0  0
  -31.2501  -14.2098   19.2212 C   0  0  0  0  0  0  0  0  0  0  0  0
  -28.1975  -13.3656   19.9219 C   0  0  0  0  0  0  0  0  0  0  0  0
  -29.8230  -23.0319   19.8814 C   0  0  0  0  0  0  0  0  0  0  0  0
  -25.0573  -14.3438   20.8326 C   0  0  0  0  0  0  0  0  0  0  0  0
  -25.4180  -32.2174   22.1708 C   0  0  0  0  0  0  0  0  0  0  0  0
  -34.4384  -10.3901   18.0800 C   0  0  0  0  0  0  0  0  0  0  0  0
  -30.9033  -15.3669   21.4341 C   0  0  0  0  0  0  0  0  0  0  0  0
  -28.6393  -15.8270   19.5881 C   0  0  0  0  0  0  0  0  0  0  0  0
  -32.9505  -10.6667   17.8805 C   0  0  0  0  0  0  0  0  0  0  0  0
  -25.4608  -30.1479   19.2739 C   0  0  0  0  0  0  0  0  0  0  0  0
  -32.7405  -12.0575   17.2902 C   0  0  0  0  0  0  0  0  0  0  0  0
  -24.7321  -28.8791   19.7200 C   0  0  0  0  0  0  0  0  0  0  0  0
  -26.3111  -30.7353   20.3982 C   0  0  0  0  0  0  0  0  0  0  0  0
  -24.8578  -29.7118   22.1053 C   0  0  0  0  0  0  0  0  0  0  0  0
  -33.2701  -13.1434   18.2346 C   0  0  1  0  0  0  0  0  0  0  0  0
  -30.4199  -14.2868   20.4712 C   0  0  1  0  0  0  0  0  0  0  0  0
  -23.9434  -29.1140   21.0223 C   0  0  2  0  0  0  0  0  0  0  0  0
  -22.7647  -13.4315   21.2895 C   0  0  0  0  0  0  0  0  0  0  0  0
  -28.9643  -26.9857   27.4258 C   0  0  0  0  0  0  0  0  0  0  0  0
  -27.7307  -13.0438   16.9238 C   0  0  0  0  0  0  0  0  0  0  0  0
  -25.2682  -13.0747   17.3745 C   0  0  0  0  0  0  0  0  0  0  0  0
  -26.6882  -11.2646   18.3388 C   0  0  0  0  0  0  0  0  0  0  0  0
  -25.1036  -15.3104   23.6295 C   0  0  0  0  0  0  0  0  0  0  0  0
  -24.4360  -33.5755   24.0012 C   0  0  0  0  0  0  0  0  0  0  0  0
  -30.3321  -21.6923   20.3690 C   0  0  0  0  0  0  0  0  0  1  0  0
  -29.8086  -26.0496   22.5343 C   0  0  0  0  0  0  0  0  0  0  0  0
  -28.8065  -26.6287   23.5369 C   0  0  0  0  0  0  0  0  0  0  0  0
  -29.3029  -26.0702   21.0898 C   0  0  0  0  0  0  0  0  0  0  0  0
  -29.3734  -26.6012   24.9613 C   0  0  0  0  0  0  0  0  0  0  0  0
  -26.5960  -30.4607   26.1510 C   0  0  0  0  0  0  0  0  0  0  0  0
  -30.2873  -25.4660   20.0947 C   0  0  0  0  0  0  0  0  0  0  0  0
  -26.7953  -28.9805   26.4285 C   0  0  0  0  0  0  0  0  0  0  0  0
  -25.2973  -30.9692   26.7600 C   0  0  0  0  0  0  0  0  0  0  0  0
  -26.8495  -13.6034   19.2852 C   0  0  1  0  0  0  0  0  0  0  0  0
  -24.1062  -13.8181   21.8925 C   0  0  2  0  0  0  0  0  0  0  0  0
  -28.3841  -27.0966   26.0219 C   0  0  2  0  0  0  0  0  0  0  0  0
  -26.6506  -12.7682   17.9889 C   0  0  0  0  0  0  0  0  0  0  0  0
  -23.8342  -26.6609   21.2522 N   0  0  0  0  0  0  0  0  0  0  0  0
  -23.2526  -27.8480   21.4944 N   0  0  0  0  0  0  0  0  0  0  0  0
  -29.0315  -14.4853   20.0501 N   0  0  0  0  0  0  0  0  0  0  0  0
  -25.5034  -30.9351   21.6038 N   0  0  0  0  0  0  0  0  0  0  0  0
  -21.3501  -28.8520   22.4859 N   0  0  0  0  0  0  0  0  0  0  0  0
  -20.6732  -24.4389   23.1666 N   0  0  0  0  0  0  0  0  0  0  0  0
  -32.3400  -13.3661   19.3208 N   0  0  0  0  0  0  0  0  0  0  0  0
  -30.5649  -24.0816   20.4003 N   0  0  0  0  0  0  0  0  0  0  0  0
  -25.8567  -13.3430   20.3220 N   0  0  0  0  0  0  0  0  0  0  0  0
  -24.6267  -32.3208   23.3083 N   0  0  0  0  0  0  0  0  0  0  0  0
  -23.8707  -14.8545   22.9372 N   0  3  0  0  0  0  0  0  0  0  0  0
  -28.0507  -28.5275   25.7755 N   0  3  0  0  0  0  0  0  0  0  0  0
  -19.7916  -26.5303   23.4948 O   0  0  0  0  0  0  0  0  0  0  0  0
  -30.9251  -14.8660   18.2386 O   0  0  0  0  0  0  0  0  0  0  0  0
  -28.4964  -12.2296   20.2984 O   0  0  0  0  0  0  0  0  0  0  0  0
  -28.8658  -23.1419   19.1201 O   0  0  0  0  0  0  0  0  0  0  0  0
  -25.0856  -15.5236   20.4892 O   0  0  0  0  0  0  0  0  0  0  0  0
  -25.9993  -33.1987   21.6951 O   0  0  0  0  0  0  0  0  0  0  0  0
  -24.0500  -20.3048   21.5725 O   0  0  0  0  0  0  0  0  0  0  0  0
  -29.5421  -20.6292   19.8380 O   0  0  0  0  0  0  0  0  0  1  0  0
  -25.1714  -32.3570   26.4821 O   0  0  0  0  0  0  0  0  0  0  0  0
  -19.9196  -16.9379   20.1555 F   0  0  0  0  0  0  0  0  0  0  0  0
  -24.2421  -18.6859   19.3398 F   0  0  0  0  0  0  0  0  0  0  0  0
  -19.6998  -34.4436   25.9390 Cl  0  0  0  0  0  0  0  0  0  0  0  0
  1  2  1  0  0  0  0
  1  5  2  0  0  0  0
  2  6  2  0  0  0  0
  3  8  2  0  0  0  0
  3 18  1  0  0  0  0
  4  9  1  0  0  0  0
  4 18  2  0  0  0  0
  5 20  1  0  0  0  0
  6 22  1  0  0  0  0
  7 10  2  0  0  0  0
  7 21  1  0  0  0  0
  8 25  1  0  0  0  0
  9 25  2  0  0  0  0
 10 26  1  0  0  0  0
 11 13  2  0  0  0  0
 11 28  1  0  0  0  0
 12 14  2  0  0  0  0
 12 27  1  0  0  0  0
 13 29  1  0  0  0  0
 14 31  1  0  0  0  0
 15 23  1  0  0  0  0
 15 26  2  0  0  0  0
 16 24  1  0  0  0  0
 16 31  2  0  0  0  0
 17 29  2  0  0  0  0
 17 30  1  0  0  0  0
 18 32  1  0  0  0  0
 19 32  1  0  0  0  0
 19 33  2  0  0  0  0
 19 34  1  0  0  0  0
 20 22  2  0  0  0  0
 20 40  1  0  0  0  0
 21 23  2  0  0  0  0
 21 41  1  0  0  0  0
 22 49  1  0  0  0  0
 23 42  1  0  0  0  0
 24 27  2  0  0  0  0
 24 58  1  0  0  0  0
 25 90  1  0  0  0  0
 26 91  1  0  0  0  0
 27 92  1  0  0  0  0
 28 30  2  0  0  0  0
 28 90  1  0  0  0  0
 29 93  1  0  0  0  0
 30 94  1  0  0  0  0
 31 95  1  0  0  0  0
 32 72  2  0  0  0  0
 33 73  1  0  0  0  0
 33 76  1  0  0  0  0
 34 77  1  0  0  0  0
 34 84  2  0  0  0  0
 35 50  1  0  0  0  0
 35 78  1  0  0  0  0
 35 85  2  0  0  0  0
 36 68  1  0  0  0  0
 36 74  1  0  0  0  0
 36 86  2  0  0  0  0
 37 59  1  0  0  0  0
 37 79  1  0  0  0  0
 37 87  2  0  0  0  0
 38 69  1  0  0  0  0
 38 80  1  0  0  0  0
 38 88  2  0  0  0  0
 39 75  1  0  0  0  0
 39 81  1  0  0  0  0
 39 89  2  0  0  0  0
 40 43  1  0  0  0  0
 41 50  1  0  0  0  0
 42 74  1  0  0  0  0
 43 45  1  0  0  0  0
 44 46  1  0  0  0  0
 44 47  1  0  0  0  0
 45 49  1  0  0  0  0
 46 51  1  0  0  0  0
 47 75  1  0  0  0  0
 48 51  1  0  0  0  0
 48 75  1  0  0  0  0
 49 78  1  0  0  0  0
 50 74  1  0  0  0  0
 51 73  1  0  0  0  0
 52 69  1  0  0  0  0
 53 70  1  0  0  0  0
 54 71  1  0  0  0  0
 55 71  1  0  0  0  0
 56 71  1  0  0  0  0
 57 82  1  0  0  0  0
 58 81  1  0  0  0  0
 59 91  1  0  0  0  0
 60 61  1  0  0  0  0
 60 62  1  0  0  0  0
 61 63  1  0  0  0  0
 62 65  1  0  0  0  0
 63 70  1  0  0  0  0
 64 66  1  0  0  0  0
 64 67  1  0  0  0  0
 65 79  1  0  0  0  0
 66 83  1  0  0  0  0
 67 92  1  0  0  0  0
 68 71  1  0  0  0  0
 68 80  1  0  0  0  0
 69 82  1  0  0  0  0
 70 83  1  0  0  0  0
 72 73  1  0  0  0  0
M  CHG  2  82   1  83   1
M  ISO  4  39 100  59 101  81 100  91 101
M  END
> <Batch ID>
0005

> <Smiles>
CNC(C)C(=O)NC(C(=O)N1Cc2cc([101O:1][101CH2:1]C(=O)NCCCCCC(C)NCCCOc3ccc(Cl)cc3C[100NH:0][100C:0](=O)N3CCCC(n4nc(-c5ccc(Oc6ccc(F)cc6F)cc5)c(C(N)=O)c4N)C3)ccc2CC1C(=O)NC1CCCc2ccccc21)C(C)(C)C

> <Shape>
0.243

> <Color>
0.076

> <Negative vol penalty>
0.000

$$$$

  -OEChem-04042320263D

 91100  0     1  0  0  0  0  0999 V2000
  -28.0801  -21.8625   18.7089 C   0  0  0  0  0  0  0  0  0  0  0  0
  -29.3283  -22.0273   18.1192 C   0  0  0  0  0  0  0  0  0  0  0  0
  -23.0754   -9.8702   19.9389 C   0  0  0  0  0  0  0  0  0  0  0  0
  -23.8356   -9.8728   22.2321 C   0  0  0  0  0  0  0  0  0  0  0  0
  -27.4784  -20.6059   18.7184 C   0  0  0  0  0  0  0  0  0  0  0  0
  -29.9698  -20.9382   17.5282 C   0  0  0  0  0  0  0  0  0  0  0  0
  -34.1192  -21.8627   15.0521 C   0  0  0  0  0  0  0  0  0  0  0  0
  -22.3310   -8.7170   20.1869 C   0  0  0  0  0  0  0  0  0  0  0  0
  -23.0912   -8.7196   22.4802 C   0  0  0  0  0  0  0  0  0  0  0  0
  -35.3156  -22.1982   15.6846 C   0  0  0  0  0  0  0  0  0  0  0  0
  -19.8627   -7.9223   23.0818 C   0  0  0  0  0  0  0  0  0  0  0  0
  -19.1060   -7.8807   24.2528 C   0  0  0  0  0  0  0  0  0  0  0  0
  -29.7260  -19.2888   22.3547 C   0  0  0  0  0  0  0  0  0  0  0  0
  -36.1377  -19.9628   15.3020 C   0  0  0  0  0  0  0  0  0  0  0  0
  -31.1613  -17.6668   20.5965 C   0  0  0  0  0  0  0  0  0  0  0  0
  -20.3465   -5.9414   24.9856 C   0  0  0  0  0  0  0  0  0  0  0  0
  -23.8278  -10.4481   20.9615 C   0  0  0  0  0  0  0  0  0  0  0  0
  -29.5368  -17.9069   22.3686 C   0  0  0  0  0  0  0  0  0  0  0  0
  -24.1708  -12.9733   20.8458 C   0  0  0  0  0  0  0  0  0  0  0  0
  -28.1191  -19.4988   18.1380 C   0  0  0  0  0  0  0  0  0  0  0  0
  -33.9186  -20.5694   14.5486 C   0  0  0  0  0  0  0  0  0  0  0  0
  -29.3682  -19.6670   17.5064 C   0  0  0  0  0  0  0  0  0  0  0  0
  -34.9389  -19.6142   14.6613 C   0  0  0  0  0  0  0  0  0  0  0  0
  -31.3504  -19.0487   20.5826 C   0  0  0  0  0  0  0  0  0  0  0  0
  -30.2545  -17.0959   21.4896 C   0  0  0  0  0  0  0  0  0  0  0  0
  -22.3388   -8.1417   21.4576 C   0  0  0  0  0  0  0  0  0  0  0  0
  -36.3239  -21.2473   15.8122 C   0  0  0  0  0  0  0  0  0  0  0  0
  -20.8614   -6.9734   22.8627 C   0  0  0  0  0  0  0  0  0  0  0  0
  -19.3478   -6.8903   25.2047 C   0  0  0  0  0  0  0  0  0  0  0  0
  -30.6328  -19.8597   21.4617 C   0  0  0  0  0  0  0  0  0  0  0  0
  -21.1033   -5.9830   23.8146 C   0  0  0  0  0  0  0  0  0  0  0  0
  -24.5974  -11.6390   20.7057 C   0  0  0  0  0  0  0  0  0  0  0  0
  -25.2633  -13.7229   20.4837 C   0  0  0  0  0  0  0  0  0  0  0  0
  -27.2886  -17.6365   23.3106 C   0  0  0  0  0  0  0  0  0  0  0  0
  -28.5805  -17.3474   23.3167 C   0  0  0  0  0  0  0  0  0  0  0  0
  -22.9007  -13.4890   21.2658 C   0  0  0  0  0  0  0  0  0  0  0  0
  -31.8672  -18.2188   15.1568 C   0  0  0  0  0  0  0  0  0  0  0  0
  -33.3162  -16.8211   12.6133 C   0  0  0  0  0  0  0  0  0  0  0  0
  -36.0797  -16.5795   10.6256 C   0  0  0  0  0  0  0  0  0  0  0  0
  -30.7300  -14.7654   20.6594 C   0  0  0  0  0  0  0  0  0  0  0  0
  -27.4190  -18.1632   18.1696 C   0  0  0  0  0  0  0  0  0  0  0  0
  -32.6328  -20.2312   13.8453 C   0  0  0  0  0  0  0  0  0  0  0  0
  -34.7811  -18.2177   14.1197 C   0  0  0  0  0  0  0  0  0  0  0  0
  -28.3622  -16.9914   17.9176 C   0  0  0  0  0  0  0  0  0  0  0  0
  -29.6141  -12.3563   18.2870 C   0  0  0  0  0  0  0  0  0  0  0  0
  -29.2057  -17.2599   16.6803 C   0  0  0  0  0  0  0  0  0  0  0  0
  -28.1744  -12.0647   18.7163 C   0  0  0  0  0  0  0  0  0  0  0  0
  -35.0601  -22.2790   20.1680 C   0  0  0  0  0  0  0  0  0  0  0  0
  -35.4906  -20.2922   21.6744 C   0  0  0  0  0  0  0  0  0  0  0  0
  -30.5295  -12.5826   19.4890 C   0  0  0  0  0  0  0  0  0  0  0  0
  -28.6231  -13.3055   20.8718 C   0  0  0  0  0  0  0  0  0  0  0  0
  -34.0396  -21.4557   19.3905 C   0  0  0  0  0  0  0  0  0  0  0  0
  -34.4667  -19.4846   20.8852 C   0  0  0  0  0  0  0  0  0  0  0  0
  -30.0985  -18.4905   16.8845 C   0  0  1  0  0  0  0  0  0  0  0  0
  -32.3378  -18.7345   13.8263 C   0  0  1  0  0  0  0  0  0  0  0  0
  -27.6500  -13.1348   19.6938 C   0  0  2  0  0  0  0  0  0  0  0  0
  -36.1182  -21.4247   20.8638 C   0  0  0  0  0  0  0  0  0  0  0  0
  -36.9814  -15.3219    8.6500 C   0  0  0  0  0  0  0  0  0  0  0  0
  -33.8094  -14.3896   14.3894 C   0  0  0  0  0  0  0  0  0  0  0  0
  -35.4937  -13.5959   12.7157 C   0  0  0  0  0  0  0  0  0  0  0  0
  -33.1023  -13.8483   12.0525 C   0  0  0  0  0  0  0  0  0  0  0  0
  -36.3600  -19.0563    9.0300 C   0  0  0  0  0  0  0  0  0  0  0  0
  -32.3256  -19.6598   19.6200 C   0  0  0  0  0  0  0  0  0  0  0  0
  -38.9385  -21.1200   18.2891 C   0  0  0  0  0  0  0  0  0  0  0  0
  -38.0412  -21.8004   19.3118 C   0  0  0  0  0  0  0  0  0  0  0  0
  -38.1809  -20.5231   17.1095 C   0  0  0  0  0  0  0  0  0  1  0  0
  -34.5093  -15.9151   12.4274 C   0  0  1  0  0  0  0  0  0  0  0  0
  -36.2362  -16.5631    9.1157 C   0  0  2  0  0  0  0  0  0  0  0  0
  -34.2312  -14.4629   12.9083 C   0  0  0  0  0  0  0  0  0  0  0  0
  -25.8622  -11.5433   20.2870 N   0  0  0  0  0  0  0  0  0  0  0  0
  -26.2397  -12.8269   20.1609 N   0  0  0  0  0  0  0  0  0  0  0  0
  -33.5032  -17.9336   13.4459 N   0  0  0  0  0  0  0  0  0  0  0  0
  -29.9712  -13.6121   20.3682 N   0  0  0  0  0  0  0  0  0  0  0  0
  -25.4744  -15.0543   20.4130 N   0  0  0  0  0  0  0  0  0  0  0  0
  -21.8884  -12.5797   21.6017 N   0  0  0  0  0  0  0  0  0  0  0  0
  -30.0833  -15.6894   21.4795 N   0  0  0  0  0  0  0  0  0  0  0  0
  -30.7228  -18.8349   15.6261 N   0  0  0  0  0  0  0  0  0  0  0  0
  -34.8844  -16.0174   11.0213 N   0  0  0  0  0  0  0  0  0  0  0  0
  -33.4315  -20.4171   20.3026 N   0  3  0  0  0  0  0  0  0  0  0  0
  -37.0368  -20.8479   19.8405 N   0  3  0  0  0  0  0  0  0  0  0  0
  -36.9923  -17.7638    8.6602 N   0  3  0  0  0  0  0  0  0  0  0  0
  -22.6651  -14.7196   21.3254 O   0  0  0  0  0  0  0  0  0  0  0  0
  -32.4949  -17.3269   15.7155 O   0  0  0  0  0  0  0  0  0  0  0  0
  -32.2593  -16.5557   12.0352 O   0  0  0  0  0  0  0  0  0  0  0  0
  -36.9342  -17.0411   11.3788 O   0  0  0  0  0  0  0  0  0  0  0  0
  -31.8592  -14.9344   20.1919 O   0  0  0  0  0  0  0  0  0  0  0  0
  -21.6124   -7.0165   21.7000 O   0  0  0  0  0  0  0  0  0  0  0  0
  -37.4923  -21.5719   16.4297 O   0  0  0  0  0  0  0  0  0  1  0  0
  -18.6221   -6.8514   26.3298 F   0  0  0  0  0  0  0  0  0  0  0  0
  -30.8083  -21.1885   21.4562 F   0  0  0  0  0  0  0  0  0  0  0  0
  -22.0621   -5.0693   23.6103 F   0  0  0  0  0  0  0  0  0  0  0  0
  1  2  1  0  0  0  0
  1  5  2  0  0  0  0
  2  6  2  0  0  0  0
  3  8  2  0  0  0  0
  3 17  1  0  0  0  0
  4  9  1  0  0  0  0
  4 17  2  0  0  0  0
  5 20  1  0  0  0  0
  6 22  1  0  0  0  0
  7 10  2  0  0  0  0
  7 21  1  0  0  0  0
  8 26  1  0  0  0  0
  9 26  2  0  0  0  0
 10 27  1  0  0  0  0
 11 12  2  0  0  0  0
 11 28  1  0  0  0  0
 12 29  1  0  0  0  0
 13 18  1  0  0  0  0
 13 30  2  0  0  0  0
 14 23  1  0  0  0  0
 14 27  2  0  0  0  0
 15 24  2  0  0  0  0
 15 25  1  0  0  0  0
 16 29  2  0  0  0  0
 16 31  1  0  0  0  0
 17 32  1  0  0  0  0
 18 25  2  0  0  0  0
 18 35  1  0  0  0  0
 19 32  1  0  0  0  0
 19 33  2  0  0  0  0
 19 36  1  0  0  0  0
 20 22  2  0  0  0  0
 20 41  1  0  0  0  0
 21 23  2  0  0  0  0
 21 42  1  0  0  0  0
 22 54  1  0  0  0  0
 23 43  1  0  0  0  0
 24 30  1  0  0  0  0
 24 63  1  0  0  0  0
 25 76  1  0  0  0  0
 26 87  1  0  0  0  0
 27 88  1  0  0  0  0
 28 31  2  0  0  0  0
 28 87  1  0  0  0  0
 29 89  1  0  0  0  0
 30 90  1  0  0  0  0
 31 91  1  0  0  0  0
 32 70  2  0  0  0  0
 33 71  1  0  0  0  0
 33 74  1  0  0  0  0
 34 35  2  0  0  0  0
 36 75  1  0  0  0  0
 36 82  2  0  0  0  0
 37 55  1  0  0  0  0
 37 77  1  0  0  0  0
 37 83  2  0  0  0  0
 38 67  1  0  0  0  0
 38 72  1  0  0  0  0
 38 84  2  0  0  0  0
 39 68  1  0  0  0  0
 39 78  1  0  0  0  0
 39 85  2  0  0  0  0
 40 73  1  0  0  0  0
 40 76  1  0  0  0  0
 40 86  2  0  0  0  0
 41 44  1  0  0  0  0
 42 55  1  0  0  0  0
 43 72  1  0  0  0  0
 44 46  1  0  0  0  0
 45 47  1  0  0  0  0
 45 50  1  0  0  0  0
 46 54  1  0  0  0  0
 47 56  1  0  0  0  0
 48 52  1  0  0  0  0
 48 57  1  0  0  0  0
 49 53  1  0  0  0  0
 49 57  1  0  0  0  0
 50 73  1  0  0  0  0
 51 56  1  0  0  0  0
 51 73  1  0  0  0  0
 52 79  1  0  0  0  0
 53 79  1  0  0  0  0
 54 77  1  0  0  0  0
 55 72  1  0  0  0  0
 56 71  1  0  0  0  0
 57 80  1  0  0  0  0
 58 68  1  0  0  0  0
 59 69  1  0  0  0  0
 60 69  1  0  0  0  0
 61 69  1  0  0  0  0
 62 81  1  0  0  0  0
 63 79  1  0  0  0  0
 64 65  1  0  0  0  0
 64 66  1  0  0  0  0
 65 80  1  0  0  0  0
 66 88  1  0  0  0  0
 67 69  1  0  0  0  0
 67 78  1  0  0  0  0
 68 81  1  0  0  0  0
 70 71  1  0  0  0  0
M  CHG  3  79   1  80   1  81   1
M  ISO  4  40 100  66 101  76 100  88 101
M  END
> <Batch ID>
0005

> <Smiles>
C=Cc1cc(F)c(CN2CCC(NCC[101CH2:1][101O:1]c3ccc4c(c3)CN(C(=O)C(NC(=O)C(C)NC)C(C)(C)C)C(C(=O)NC3CCCc5ccccc53)C4)CC2)cc1[100NH:0][100C:0](=O)N1CCCC(n2nc(-c3ccc(Oc4ccc(F)cc4F)cc3)c(C(N)=O)c2N)C1

> <Shape>
0.197

> <Color>
0.176

> <Negative vol penalty>
0.000

$$$$

  -OEChem-04042320263D

 97107  0     1  0  0  0  0  0999 V2000
  -22.5939  -21.1997   13.7480 C   0  0  0  0  0  0  0  0  0  0  0  0
  -22.7898  -22.1939   14.7012 C   0  0  0  0  0  0  0  0  0  0  0  0
  -23.0882   -9.8482   19.9750 C   0  0  0  0  0  0  0  0  0  0  0  0
  -23.7823   -9.9583   22.2865 C   0  0  0  0  0  0  0  0  0  0  0  0
  -23.6890  -20.6396   13.0915 C   0  0  0  0  0  0  0  0  0  0  0  0
  -24.0810  -22.6280   14.9991 C   0  0  0  0  0  0  0  0  0  0  0  0
  -25.8000  -28.3108   16.5010 C   0  0  0  0  0  0  0  0  0  0  0  0
  -31.1570  -19.2255   20.5035 C   0  0  0  0  0  0  0  0  0  0  0  0
  -31.0105  -17.8390   20.5451 C   0  0  0  0  0  0  0  0  0  0  0  0
  -22.3567   -8.6928   20.2496 C   0  0  0  0  0  0  0  0  0  0  0  0
  -23.0508   -8.8028   22.5612 C   0  0  0  0  0  0  0  0  0  0  0  0
  -26.0537  -28.9204   17.7289 C   0  0  0  0  0  0  0  0  0  0  0  0
  -23.4123   -5.4672   22.1441 C   0  0  0  0  0  0  0  0  0  0  0  0
  -24.0240   -4.4818   22.9189 C   0  0  0  0  0  0  0  0  0  0  0  0
  -29.3283  -18.0683   22.2640 C   0  0  0  0  0  0  0  0  0  0  0  0
  -28.4088  -28.4752   17.4566 C   0  0  0  0  0  0  0  0  0  0  0  0
  -22.2721   -4.6920   24.5693 C   0  0  0  0  0  0  0  0  0  0  0  0
  -23.8010  -10.4810   20.9934 C   0  0  0  0  0  0  0  0  0  0  0  0
  -29.4748  -19.4548   22.2224 C   0  0  0  0  0  0  0  0  0  0  0  0
  -24.1043  -13.0051   20.7831 C   0  0  0  0  0  0  0  0  0  0  0  0
  -24.9936  -21.0738   13.3745 C   0  0  0  0  0  0  0  0  0  0  0  0
  -26.8493  -27.7683   15.7454 C   0  0  0  0  0  0  0  0  0  0  0  0
  -25.1946  -22.0722   14.3467 C   0  0  0  0  0  0  0  0  0  0  0  0
  -28.1661  -27.8616   16.2182 C   0  0  0  0  0  0  0  0  0  0  0  0
  -30.3892  -20.0334   21.3422 C   0  0  0  0  0  0  0  0  0  0  0  0
  -30.0962  -17.2604   21.4253 C   0  0  0  0  0  0  0  0  0  0  0  0
  -22.3379   -8.1701   21.5427 C   0  0  0  0  0  0  0  0  0  0  0  0
  -27.3579  -29.0001   18.2083 C   0  0  0  0  0  0  0  0  0  0  0  0
  -22.2306   -6.0651   22.5819 C   0  0  0  0  0  0  0  0  0  0  0  0
  -23.4539   -4.0942   24.1315 C   0  0  0  0  0  0  0  0  0  0  0  0
  -21.6604   -5.6775   23.7945 C   0  0  0  0  0  0  0  0  0  0  0  0
  -24.5573  -11.6742   20.7102 C   0  0  0  0  0  0  0  0  0  0  0  0
  -25.1938  -13.7590   20.4209 C   0  0  0  0  0  0  0  0  0  0  0  0
  -28.7323  -23.1567   21.2671 C   0  0  0  0  0  0  0  0  0  0  0  0
  -28.6601  -20.2753   23.1085 C   0  0  0  0  0  0  0  0  0  0  0  0
  -22.8141  -13.5144   21.1458 C   0  0  0  0  0  0  0  0  0  0  0  0
  -27.5954  -24.8576   14.7087 C   0  0  0  0  0  0  0  0  0  0  0  0
  -27.7518  -26.0802   20.9248 C   0  0  0  0  0  0  0  0  0  0  0  0
  -29.9606  -26.4417   13.1534 C   0  0  0  0  0  0  0  0  0  0  0  0
  -31.9764  -29.1897   12.9754 C   0  0  0  0  0  0  0  0  0  0  0  0
  -30.6348  -14.9070   20.7058 C   0  0  0  0  0  0  0  0  0  0  0  0
  -26.1493  -20.4052   12.6732 C   0  0  0  0  0  0  0  0  0  0  0  0
  -26.5622  -27.1378   14.4103 C   0  0  0  0  0  0  0  0  0  0  0  0
  -29.3303  -27.3127   15.4359 C   0  0  0  0  0  0  0  0  0  0  0  0
  -27.4578  -21.1848   12.7765 C   0  0  0  0  0  0  0  0  0  0  0  0
  -29.6283  -12.3831   18.4049 C   0  0  0  0  0  0  0  0  0  0  0  0
  -27.6935  -21.6442   14.2118 C   0  0  0  0  0  0  0  0  0  0  0  0
  -25.7435  -24.9402   19.9835 C   0  0  0  0  0  0  0  0  0  0  0  0
  -28.1820  -12.0832   18.8056 C   0  0  0  0  0  0  0  0  0  0  0  0
  -26.3256  -24.3052   18.7154 C   0  0  0  0  0  0  0  0  0  0  0  0
  -28.3716  -22.7772   18.4075 C   0  0  0  0  0  0  0  0  0  0  0  0
  -30.5049  -12.6748   19.6215 C   0  0  0  0  0  0  0  0  0  0  0  0
  -29.1919  -21.7626   19.1929 C   0  0  0  0  0  0  0  0  0  0  0  0
  -28.5477  -13.4190   20.9195 C   0  0  0  0  0  0  0  0  0  0  0  0
  -26.5782  -22.5870   14.6795 C   0  0  1  0  0  0  0  0  0  0  0  0
  -27.6469  -26.1620   13.9647 C   0  0  1  0  0  0  0  0  0  0  0  0
  -26.8928  -24.8611   20.9902 C   0  0  1  0  0  0  0  0  0  0  0  0
  -27.6118  -13.1826   19.7229 C   0  0  2  0  0  0  0  0  0  0  0  0
  -27.2119  -23.2018   19.2762 C   0  0  1  0  0  0  0  0  0  0  0  0
  -33.8363  -30.1837   11.6151 C   0  0  0  0  0  0  0  0  0  0  0  0
  -31.9342  -24.5025   14.4395 C   0  0  0  0  0  0  0  0  0  0  0  0
  -33.7768  -26.0859   13.8348 C   0  0  0  0  0  0  0  0  0  0  0  0
  -32.4031  -25.0299   12.0403 C   0  0  0  0  0  0  0  0  0  0  0  0
  -30.3479  -31.5566   12.2648 C   0  0  0  0  0  0  0  0  0  0  0  0
  -30.5668  -21.5228   21.2769 C   0  0  0  0  0  0  0  0  0  0  0  0
  -27.2263  -29.4983   21.7740 C   0  0  0  0  0  0  0  0  0  0  0  0
  -28.1414  -28.2985   21.9782 C   0  0  0  0  0  0  0  0  0  0  0  0
  -26.5802  -29.5231   20.3940 C   0  0  0  0  0  0  0  0  0  1  0  0
  -31.3799  -26.8360   13.4837 C   0  0  1  0  0  0  0  0  0  0  0  0
  -32.3311  -30.1055   11.8178 C   0  0  2  0  0  0  0  0  0  0  0  0
  -32.3516  -25.6223   13.4654 C   0  0  0  0  0  0  0  0  0  0  0  0
  -25.8350  -11.5845   20.3313 N   0  0  0  0  0  0  0  0  0  0  0  0
  -26.1941  -12.8685   20.1628 N   0  0  0  0  0  0  0  0  0  0  0  0
  -29.4676  -22.1726   20.5768 N   0  0  0  0  0  0  0  0  0  0  0  0
  -27.7059  -23.7419   20.5307 N   0  0  0  0  0  0  0  0  0  0  0  0
  -28.9975  -26.7000   14.1392 N   0  0  0  0  0  0  0  0  0  0  0  0
  -29.9042  -13.7291   20.4416 N   0  0  0  0  0  0  0  0  0  0  0  0
  -25.3842  -15.0901   20.3011 N   0  0  0  0  0  0  0  0  0  0  0  0
  -29.1737  -20.5723   24.3664 N   0  0  0  0  0  0  0  0  0  0  0  0
  -21.8082  -12.6014   21.4906 N   0  0  0  0  0  0  0  0  0  0  0  0
  -29.9492  -15.8517   21.4687 N   0  0  0  0  0  0  0  0  0  0  0  0
  -26.7720  -23.9113   14.1290 N   0  0  0  0  0  0  0  0  0  0  0  0
  -27.4395  -27.0500   21.8652 N   0  0  0  0  0  0  0  0  0  0  0  0
  -31.7355  -27.9001   12.5511 N   0  0  0  0  0  0  0  0  0  0  0  0
  -31.8188  -31.4819   12.0704 N   0  3  0  0  0  0  0  0  0  0  0  0
  -28.9925  -23.5089   22.4213 O   0  0  0  0  0  0  0  0  0  0  0  0
  -27.5388  -20.6827   22.7621 O   0  0  0  0  0  0  0  0  0  0  0  0
  -22.5560  -14.7420   21.1478 O   0  0  0  0  0  0  0  0  0  0  0  0
  -28.2551  -24.7193   15.7321 O   0  0  0  0  0  0  0  0  0  0  0  0
  -28.6413  -26.1481   20.0846 O   0  0  0  0  0  0  0  0  0  0  0  0
  -29.7142  -25.9302   12.0583 O   0  0  0  0  0  0  0  0  0  0  0  0
  -31.9224  -29.5787   14.1400 O   0  0  0  0  0  0  0  0  0  0  0  0
  -31.7738  -15.0772   20.2635 O   0  0  0  0  0  0  0  0  0  0  0  0
  -21.6240   -7.0428   21.8111 O   0  0  0  0  0  0  0  0  0  0  0  0
  -27.6082  -29.5940   19.4068 O   0  0  0  0  0  0  0  0  0  1  0  0
  -24.0406   -3.1467   24.8747 F   0  0  0  0  0  0  0  0  0  0  0  0
  -20.5246   -6.2474   24.2197 F   0  0  0  0  0  0  0  0  0  0  0  0
  1  2  1  0  0  0  0
  1  5  2  0  0  0  0
  2  6  2  0  0  0  0
  3 10  2  0  0  0  0
  3 18  1  0  0  0  0
  4 11  1  0  0  0  0
  4 18  2  0  0  0  0
  5 21  1  0  0  0  0
  6 23  1  0  0  0  0
  7 12  2  0  0  0  0
  7 22  1  0  0  0  0
  8  9  2  0  0  0  0
  8 25  1  0  0  0  0
  9 26  1  0  0  0  0
 10 27  1  0  0  0  0
 11 27  2  0  0  0  0
 12 28  1  0  0  0  0
 13 14  2  0  0  0  0
 13 29  1  0  0  0  0
 14 30  1  0  0  0  0
 15 19  1  0  0  0  0
 15 26  2  0  0  0  0
 16 24  1  0  0  0  0
 16 28  2  0  0  0  0
 17 30  2  0  0  0  0
 17 31  1  0  0  0  0
 18 32  1  0  0  0  0
 19 25  2  0  0  0  0
 19 35  1  0  0  0  0
 20 32  1  0  0  0  0
 20 33  2  0  0  0  0
 20 36  1  0  0  0  0
 21 23  2  0  0  0  0
 21 42  1  0  0  0  0
 22 24  2  0  0  0  0
 22 43  1  0  0  0  0
 23 55  1  0  0  0  0
 24 44  1  0  0  0  0
 25 65  1  0  0  0  0
 26 81  1  0  0  0  0
 27 94  1  0  0  0  0
 28 95  1  0  0  0  0
 29 31  2  0  0  0  0
 29 94  1  0  0  0  0
 30 96  1  0  0  0  0
 31 97  1  0  0  0  0
 32 72  2  0  0  0  0
 33 73  1  0  0  0  0
 33 78  1  0  0  0  0
 34 74  1  0  0  0  0
 34 75  1  0  0  0  0
 34 86  2  0  0  0  0
 35 79  1  0  0  0  0
 35 87  2  0  0  0  0
 36 80  1  0  0  0  0
 36 88  2  0  0  0  0
 37 56  1  0  0  0  0
 37 82  1  0  0  0  0
 37 89  2  0  0  0  0
 38 57  1  0  0  0  0
 38 83  1  0  0  0  0
 38 90  2  0  0  0  0
 39 69  1  0  0  0  0
 39 76  1  0  0  0  0
 39 91  2  0  0  0  0
 40 70  1  0  0  0  0
 40 84  1  0  0  0  0
 40 92  2  0  0  0  0
 41 77  1  0  0  0  0
 41 81  1  0  0  0  0
 41 93  2  0  0  0  0
 42 45  1  0  0  0  0
 43 56  1  0  0  0  0
 44 76  1  0  0  0  0
 45 47  1  0  0  0  0
 46 49  1  0  0  0  0
 46 52  1  0  0  0  0
 47 55  1  0  0  0  0
 48 50  1  0  0  0  0
 48 57  1  0  0  0  0
 49 58  1  0  0  0  0
 50 59  1  0  0  0  0
 51 53  1  0  0  0  0
 51 59  1  0  0  0  0
 52 77  1  0  0  0  0
 53 74  1  0  0  0  0
 54 58  1  0  0  0  0
 54 77  1  0  0  0  0
 55 82  1  0  0  0  0
 56 76  1  0  0  0  0
 57 75  1  0  0  0  0
 58 73  1  0  0  0  0
 59 75  1  0  0  0  0
 60 70  1  0  0  0  0
 61 71  1  0  0  0  0
 62 71  1  0  0  0  0
 63 71  1  0  0  0  0
 64 85  1  0  0  0  0
 65 74  1  0  0  0  0
 66 67  1  0  0  0  0
 66 68  1  0  0  0  0
 67 83  1  0  0  0  0
 68 95  1  0  0  0  0
 69 71  1  0  0  0  0
 69 84  1  0  0  0  0
 70 85  1  0  0  0  0
 72 73  1  0  0  0  0
M  CHG  1  85   1
M  ISO  4  41 100  68 101  81 100  95 101
M  END
> <Batch ID>
0005

> <Smiles>
CNC(C)C(=O)NC(C(=O)N1Cc2cc([101O:1][101CH2:1]CCNC(=O)C3CCC4CCN(Cc5ccc([100NH:0][100C:0](=O)N6CCCC(n7nc(-c8ccc(Oc9ccc(F)cc9F)cc8)c(C(N)=O)c7N)C6)cc5C(N)=O)C(=O)N43)ccc2CC1C(=O)NC1CCCc2ccccc21)C(C)(C)C

> <Shape>
0.233

> <Color>
0.191

> <Negative vol penalty>
0.000

$$$$

  -OEChem-04042320263D

 92101  0     1  0  0  0  0  0999 V2000
  -20.6804  -37.3775   19.6705 C   0  0  0  0  0  0  0  0  0  0  0  0
  -21.5779  -36.7072   18.8456 C   0  0  0  0  0  0  0  0  0  0  0  0
  -24.9615  -16.2059   28.3861 C   0  0  0  0  0  0  0  0  0  0  0  0
  -28.6460  -12.6913   21.0145 C   0  0  0  0  0  0  0  0  0  0  0  0
  -28.0625  -13.6933   18.8950 C   0  0  0  0  0  0  0  0  0  0  0  0
  -20.8876  -37.4029   21.0491 C   0  0  0  0  0  0  0  0  0  0  0  0
  -22.6839  -36.0628   19.3988 C   0  0  0  0  0  0  0  0  0  0  0  0
  -24.9444  -28.6087   18.8035 C   0  0  0  0  0  0  0  0  0  0  0  0
  -23.6642  -15.7047   28.2804 C   0  0  0  0  0  0  0  0  0  0  0  0
  -25.4109  -17.1734   27.4873 C   0  0  0  0  0  0  0  0  0  0  0  0
  -29.9995  -12.8211   20.7033 C   0  0  0  0  0  0  0  0  0  0  0  0
  -29.4160  -13.8232   18.5838 C   0  0  0  0  0  0  0  0  0  0  0  0
  -25.3594  -27.2805   18.9021 C   0  0  0  0  0  0  0  0  0  0  0  0
  -32.3328  -15.2682   20.7072 C   0  0  0  0  0  0  0  0  0  0  0  0
  -33.1819  -15.7588   21.6991 C   0  0  0  0  0  0  0  0  0  0  0  0
  -26.3908  -27.7502   21.0384 C   0  0  0  0  0  0  0  0  0  0  0  0
  -34.4626  -13.7119   21.6152 C   0  0  0  0  0  0  0  0  0  0  0  0
  -27.6775  -13.1274   20.1104 C   0  0  0  0  0  0  0  0  0  0  0  0
  -25.5793  -11.8014   20.6993 C   0  0  0  0  0  0  0  0  0  0  0  0
  -21.9914  -36.7503   21.6203 C   0  0  0  0  0  0  0  0  0  0  0  0
  -25.2380  -29.5102   19.8305 C   0  0  0  0  0  0  0  0  0  0  0  0
  -22.9068  -36.0806   20.7861 C   0  0  0  0  0  0  0  0  0  0  0  0
  -25.9668  -29.0789   20.9510 C   0  0  0  0  0  0  0  0  0  0  0  0
  -22.8161  -16.1709   27.2758 C   0  0  0  0  0  0  0  0  0  0  0  0
  -23.2654  -17.1384   26.3770 C   0  0  0  0  0  0  0  0  0  0  0  0
  -24.5628  -17.6396   26.4828 C   0  0  0  0  0  0  0  0  0  0  0  0
  -30.3845  -13.3870   19.4880 C   0  0  0  0  0  0  0  0  0  0  0  0
  -26.0810  -26.8524   20.0167 C   0  0  0  0  0  0  0  0  0  0  0  0
  -32.5485  -13.9994   20.1693 C   0  0  0  0  0  0  0  0  0  0  0  0
  -34.2468  -14.9807   22.1531 C   0  0  0  0  0  0  0  0  0  0  0  0
  -33.6134  -13.2213   20.6233 C   0  0  0  0  0  0  0  0  0  0  0  0
  -26.2792  -12.9930   20.4310 C   0  0  0  0  0  0  0  0  0  0  0  0
  -24.2904  -12.2080   20.9442 C   0  0  0  0  0  0  0  0  0  0  0  0
  -26.0518  -10.4480   20.7248 C   0  0  0  0  0  0  0  0  0  0  0  0
  -24.9353  -33.0126   21.1408 C   0  0  0  0  0  0  0  0  0  0  0  0
  -24.5314  -31.1299   23.5288 C   0  0  0  0  0  0  0  0  0  0  0  0
  -23.7259  -28.7202   25.8051 C   0  0  0  0  0  0  0  0  0  0  0  0
  -21.9385  -17.3673   22.8684 C   0  0  0  0  0  0  0  0  0  0  0  0
  -22.1993  -36.8454   23.1111 C   0  0  0  0  0  0  0  0  0  0  0  0
  -24.8642  -30.9646   19.7381 C   0  0  0  0  0  0  0  0  0  0  0  0
  -26.2898  -30.0918   22.0152 C   0  0  0  0  0  0  0  0  0  0  0  0
  -23.1919  -35.8207   23.6542 C   0  0  0  0  0  0  0  0  0  0  0  0
  -21.1808  -15.6698   19.8317 C   0  0  0  0  0  0  0  0  0  0  0  0
  -24.4439  -35.7769   22.7838 C   0  0  0  0  0  0  0  0  0  0  0  0
  -22.3384  -14.6838   19.6652 C   0  0  0  0  0  0  0  0  0  0  0  0
  -24.8827  -20.8805   24.6412 C   0  0  0  0  0  0  0  0  0  0  0  0
  -26.2308  -19.1066   23.4940 C   0  0  0  0  0  0  0  0  0  0  0  0
  -21.6481  -16.9916   20.4371 C   0  0  0  0  0  0  0  0  0  0  0  0
  -24.8544  -20.0325   25.9133 C   0  0  0  0  0  0  0  0  0  0  0  0
  -26.2039  -18.2673   24.7708 C   0  0  0  0  0  0  0  0  0  0  0  0
  -23.5519  -15.8776   21.5363 C   0  0  0  0  0  0  0  0  0  0  0  0
  -24.1049  -35.3487   21.3509 C   0  0  1  0  0  0  0  0  0  0  0  0
  -24.4922  -31.5797   21.0992 C   0  0  1  0  0  0  0  0  0  0  0  0
  -23.1202  -14.5095   20.9811 C   0  0  2  0  0  0  0  0  0  0  0  0
  -26.1348  -20.5925   23.8210 C   0  0  0  0  0  0  0  0  0  0  0  0
  -23.0581  -28.4226   28.2057 C   0  0  0  0  0  0  0  0  0  0  0  0
  -27.4132  -31.6383   24.3895 C   0  0  0  0  0  0  0  0  0  0  0  0
  -26.9124  -30.4344   26.5268 C   0  0  0  0  0  0  0  0  0  0  0  0
  -25.6824  -32.5292   25.9596 C   0  0  0  0  0  0  0  0  0  0  0  0
  -21.1436  -27.4843   25.0545 C   0  0  0  0  0  0  0  0  0  0  0  0
  -22.3523  -17.6357   25.3006 C   0  0  0  0  0  0  0  0  0  0  0  0
  -26.3220  -23.5055   21.3475 C   0  0  0  0  0  0  0  0  0  0  0  0
  -26.3979  -22.8035   22.6950 C   0  0  0  0  0  0  0  0  0  0  0  0
  -26.5973  -25.0024   21.4197 C   0  0  0  0  0  0  0  0  0  1  0  0
  -25.1647  -30.4053   24.6895 C   0  0  1  0  0  0  0  0  0  0  0  0
  -22.5664  -28.6002   26.7776 C   0  0  2  0  0  0  0  0  0  0  0  0
  -21.4317  -15.6174   27.1850 C   0  0  0  0  0  0  0  0  0  0  0  0
  -26.2891  -31.2391   25.3663 C   0  0  0  0  0  0  0  0  0  0  0  0
  -25.4996  -14.0754   20.4989 N   0  0  0  0  0  0  0  0  0  0  0  0
  -24.2964  -13.5655   20.8125 N   0  0  0  0  0  0  0  0  0  0  0  0
  -25.0325  -18.6114   25.5907 N   0  0  0  0  0  0  0  0  0  0  0  0
  -25.1174  -30.9431   22.2709 N   0  0  0  0  0  0  0  0  0  0  0  0
  -22.3811  -16.7564   21.6834 N   0  0  0  0  0  0  0  0  0  0  0  0
  -23.1638  -11.5332   21.2571 N   0  0  0  0  0  0  0  0  0  0  0  0
  -27.4050  -10.2075   20.4500 N   0  0  0  0  0  0  0  0  0  0  0  0
  -23.9009  -33.9174   21.2860 N   0  0  0  0  0  0  0  0  0  0  0  0
  -24.0734  -30.0362   25.5847 N   0  0  0  0  0  0  0  0  0  0  0  0
  -22.6863  -17.0866   24.0054 N   0  0  0  0  0  0  0  0  0  0  0  0
  -26.0723  -21.3650   22.5531 N   0  3  0  0  0  0  0  0  0  0  0  0
  -21.7138  -27.4298   26.4252 N   0  3  0  0  0  0  0  0  0  0  0  0
  -25.2931   -9.4791   20.9676 O   0  0  0  0  0  0  0  0  0  0  0  0
  -26.1279  -33.2792   21.0494 O   0  0  0  0  0  0  0  0  0  0  0  0
  -23.5474  -31.8472   23.7299 O   0  0  0  0  0  0  0  0  0  0  0  0
  -24.2713  -27.7440   25.2951 O   0  0  0  0  0  0  0  0  0  0  0  0
  -20.9471  -18.1036   22.9110 O   0  0  0  0  0  0  0  0  0  0  0  0
  -31.7051  -13.5141   19.1840 O   0  0  0  0  0  0  0  0  0  0  0  0
  -26.4793  -25.5533   20.1086 O   0  0  0  0  0  0  0  0  0  1  0  0
  -35.0630  -15.4526   23.1046 F   0  0  0  0  0  0  0  0  0  0  0  0
  -33.8264  -12.0021   20.1095 F   0  0  0  0  0  0  0  0  0  0  0  0
  -21.1551  -14.6814   28.1394 F   0  0  0  0  0  0  0  0  0  0  0  0
  -20.4571  -16.5637   27.3186 F   0  0  0  0  0  0  0  0  0  0  0  0
  -21.1903  -15.0064   25.9896 F   0  0  0  0  0  0  0  0  0  0  0  0
  1  2  1  0  0  0  0
  1  6  2  0  0  0  0
  2  7  2  0  0  0  0
  3  9  1  0  0  0  0
  3 10  2  0  0  0  0
  4 11  2  0  0  0  0
  4 18  1  0  0  0  0
  5 12  1  0  0  0  0
  5 18  2  0  0  0  0
  6 20  1  0  0  0  0
  7 22  1  0  0  0  0
  8 13  2  0  0  0  0
  8 21  1  0  0  0  0
  9 24  2  0  0  0  0
 10 26  1  0  0  0  0
 11 27  1  0  0  0  0
 12 27  2  0  0  0  0
 13 28  1  0  0  0  0
 14 15  2  0  0  0  0
 14 29  1  0  0  0  0
 15 30  1  0  0  0  0
 16 23  1  0  0  0  0
 16 28  2  0  0  0  0
 17 30  2  0  0  0  0
 17 31  1  0  0  0  0
 18 32  1  0  0  0  0
 19 32  1  0  0  0  0
 19 33  2  0  0  0  0
 19 34  1  0  0  0  0
 20 22  2  0  0  0  0
 20 39  1  0  0  0  0
 21 23  2  0  0  0  0
 21 40  1  0  0  0  0
 22 52  1  0  0  0  0
 23 41  1  0  0  0  0
 24 25  1  0  0  0  0
 24 67  1  0  0  0  0
 25 26  2  0  0  0  0
 25 61  1  0  0  0  0
 26 71  1  0  0  0  0
 27 86  1  0  0  0  0
 28 87  1  0  0  0  0
 29 31  2  0  0  0  0
 29 86  1  0  0  0  0
 30 88  1  0  0  0  0
 31 89  1  0  0  0  0
 32 69  2  0  0  0  0
 33 70  1  0  0  0  0
 33 74  1  0  0  0  0
 34 75  1  0  0  0  0
 34 81  2  0  0  0  0
 35 53  1  0  0  0  0
 35 76  1  0  0  0  0
 35 82  2  0  0  0  0
 36 65  1  0  0  0  0
 36 72  1  0  0  0  0
 36 83  2  0  0  0  0
 37 66  1  0  0  0  0
 37 77  1  0  0  0  0
 37 84  2  0  0  0  0
 38 73  1  0  0  0  0
 38 78  1  0  0  0  0
 38 85  2  0  0  0  0
 39 42  1  0  0  0  0
 40 53  1  0  0  0  0
 41 72  1  0  0  0  0
 42 44  1  0  0  0  0
 43 45  1  0  0  0  0
 43 48  1  0  0  0  0
 44 52  1  0  0  0  0
 45 54  1  0  0  0  0
 46 49  1  0  0  0  0
 46 55  1  0  0  0  0
 47 50  1  0  0  0  0
 47 55  1  0  0  0  0
 48 73  1  0  0  0  0
 49 71  1  0  0  0  0
 50 71  1  0  0  0  0
 51 54  1  0  0  0  0
 51 73  1  0  0  0  0
 52 76  1  0  0  0  0
 53 72  1  0  0  0  0
 54 70  1  0  0  0  0
 55 79  1  0  0  0  0
 56 66  1  0  0  0  0
 57 68  1  0  0  0  0
 58 68  1  0  0  0  0
 59 68  1  0  0  0  0
 60 80  1  0  0  0  0
 61 78  1  0  0  0  0
 62 63  1  0  0  0  0
 62 64  1  0  0  0  0
 63 79  1  0  0  0  0
 64 87  1  0  0  0  0
 65 68  1  0  0  0  0
 65 77  1  0  0  0  0
 66 80  1  0  0  0  0
 67 90  1  0  0  0  0
 67 91  1  0  0  0  0
 67 92  1  0  0  0  0
 69 70  1  0  0  0  0
M  CHG  2  79   1  80   1
M  ISO  4  38 100  64 101  78 100  87 101
M  END
> <Batch ID>
0005

> <Smiles>
CNC(C)C(=O)NC(C(=O)N1Cc2cc([101O:1][101CH2:1]CCNC3CCN(c4cccc(C(F)(F)F)c4C[100NH:0][100C:0](=O)N4CCCC(n5nc(-c6ccc(Oc7ccc(F)cc7F)cc6)c(C(N)=O)c5N)C4)CC3)ccc2CC1C(=O)NC1CCCc2ccccc21)C(C)(C)C

> <Shape>
0.198

> <Color>
0.107

> <Negative vol penalty>
0.000

$$$$

  -OEChem-04042320263D

 85 93  0     1  0  0  0  0  0999 V2000
  -27.8961  -37.4743   22.4921 C   0  0  0  0  0  0  0  0  0  0  0  0
  -28.3885  -36.2642   22.0141 C   0  0  0  0  0  0  0  0  0  0  0  0
  -28.8963   -9.9575   19.2022 C   0  0  0  0  0  0  0  0  0  0  0  0
  -28.3532  -11.1627   17.1798 C   0  0  0  0  0  0  0  0  0  0  0  0
  -26.8774  -37.4839   23.4439 C   0  0  0  0  0  0  0  0  0  0  0  0
  -27.8632  -35.0628   22.4886 C   0  0  0  0  0  0  0  0  0  0  0  0
  -27.1051  -29.8727   19.3273 C   0  0  0  0  0  0  0  0  0  0  0  0
  -28.7365   -8.7487   18.5248 C   0  0  0  0  0  0  0  0  0  0  0  0
  -28.1935   -9.9538   16.5024 C   0  0  0  0  0  0  0  0  0  0  0  0
  -27.8663  -28.7079   19.2399 C   0  0  0  0  0  0  0  0  0  0  0  0
  -25.8396   -7.5420   16.2315 C   0  0  0  0  0  0  0  0  0  0  0  0
  -24.7230   -7.4038   15.4071 C   0  0  0  0  0  0  0  0  0  0  0  0
  -26.4706  -27.6772   20.9159 C   0  0  0  0  0  0  0  0  0  0  0  0
  -28.6592  -21.9448   18.9329 C   0  0  0  0  0  0  0  0  0  0  0  0
  -26.3163  -21.1419   20.2169 C   0  0  0  0  0  0  0  0  0  0  0  0
  -26.1707   -7.0431   13.5068 C   0  0  0  0  0  0  0  0  0  0  0  0
  -28.7046  -11.1645   18.5297 C   0  0  0  0  0  0  0  0  0  0  0  0
  -30.0518  -13.1656   19.3593 C   0  0  0  0  0  0  0  0  0  0  0  0
  -26.3326  -36.2822   23.9232 C   0  0  0  0  0  0  0  0  0  0  0  0
  -26.0258  -29.9524   20.2190 C   0  0  0  0  0  0  0  0  0  0  0  0
  -26.8371  -35.0563   23.4488 C   0  0  0  0  0  0  0  0  0  0  0  0
  -25.6957  -28.8432   21.0108 C   0  0  0  0  0  0  0  0  0  0  0  0
  -28.5512  -20.6506   19.4416 C   0  0  0  0  0  0  0  0  0  0  0  0
  -27.3798  -20.2491   20.0836 C   0  0  0  0  0  0  0  0  0  0  0  0
  -28.3851   -8.7469   17.1749 C   0  0  0  0  0  0  0  0  0  0  0  0
  -27.5509  -27.6110   20.0364 C   0  0  0  0  0  0  0  0  0  0  0  0
  -27.1218   -7.4308   15.6936 C   0  0  0  0  0  0  0  0  0  0  0  0
  -27.5958  -22.8377   19.0662 C   0  0  0  0  0  0  0  0  0  0  0  0
  -24.8885   -7.1543   14.0447 C   0  0  0  0  0  0  0  0  0  0  0  0
  -26.4244  -22.4362   19.7081 C   0  0  0  0  0  0  0  0  0  0  0  0
  -27.2873   -7.1813   14.3312 C   0  0  0  0  0  0  0  0  0  0  0  0
  -28.8690  -12.4135   19.2290 C   0  0  0  0  0  0  0  0  0  0  0  0
  -29.6841  -14.2571   20.1075 C   0  0  0  0  0  0  0  0  0  0  0  0
  -31.3656  -12.9012   18.8495 C   0  0  0  0  0  0  0  0  0  0  0  0
  -25.3263  -31.7600   22.7383 C   0  0  0  0  0  0  0  0  0  0  0  0
  -22.4821  -30.2091   22.5716 C   0  0  0  0  0  0  0  0  0  0  0  0
  -20.7384  -27.4561   21.5581 C   0  0  0  0  0  0  0  0  0  0  0  0
  -26.1484  -18.3986   21.2693 C   0  0  0  0  0  0  0  0  0  0  0  0
  -25.2652  -36.3423   24.9870 C   0  0  0  0  0  0  0  0  0  0  0  0
  -25.1981  -31.2067   20.2820 C   0  0  0  0  0  0  0  0  0  0  0  0
  -24.5343  -28.8707   21.9695 C   0  0  0  0  0  0  0  0  0  0  0  0
  -24.5046  -35.0303   25.1615 C   0  0  0  0  0  0  0  0  0  0  0  0
  -25.4263  -15.2078   22.6745 C   0  0  0  0  0  0  0  0  0  0  0  0
  -25.4749  -33.8549   25.2226 C   0  0  0  0  0  0  0  0  0  0  0  0
  -26.3549  -14.2583   21.9141 C   0  0  0  0  0  0  0  0  0  0  0  0
  -24.8877  -16.3172   21.7729 C   0  0  0  0  0  0  0  0  0  0  0  0
  -26.8401  -16.1263   20.2825 C   0  0  0  0  0  0  0  0  0  0  0  0
  -26.2760  -33.7325   23.9208 C   0  0  1  0  0  0  0  0  0  0  0  0
  -24.4377  -31.3554   21.5962 C   0  0  1  0  0  0  0  0  0  0  0  0
  -27.4589  -15.0297   21.1647 C   0  0  2  0  0  0  0  0  0  0  0  0
  -18.4366  -26.4575   21.5977 C   0  0  0  0  0  0  0  0  0  0  0  0
  -22.8585  -29.4641   25.5064 C   0  0  0  0  0  0  0  0  0  0  0  0
  -21.0766  -27.7284   25.2221 C   0  0  0  0  0  0  0  0  0  0  0  0
  -20.5304  -30.1399   24.8919 C   0  0  0  0  0  0  0  0  0  0  0  0
  -20.5713  -27.4337   18.6034 C   0  0  0  0  0  0  0  0  0  0  0  0
  -28.8953  -26.1809   18.6935 C   0  0  0  0  0  0  0  0  0  1  0  0
  -29.0066  -24.6769   18.5346 C   0  0  0  0  0  0  0  0  0  0  0  0
  -21.9227  -28.9359   23.1588 C   0  0  1  0  0  0  0  0  0  0  0  0
  -19.4210  -27.3146   20.8173 C   0  0  2  0  0  0  0  0  0  0  0  0
  -29.7061  -19.7155   19.2847 C   0  0  0  0  0  0  0  0  0  0  0  0
  -21.6202  -29.0669   24.6783 C   0  0  0  0  0  0  0  0  0  0  0  0
  -27.8277  -12.9793   19.8452 N   0  0  0  0  0  0  0  0  0  0  0  0
  -28.3551  -14.0985   20.3700 N   0  0  0  0  0  0  0  0  0  0  0  0
  -23.7592  -30.1220   21.9994 N   0  0  0  0  0  0  0  0  0  0  0  0
  -25.9902  -17.0069   21.0993 N   0  0  0  0  0  0  0  0  0  0  0  0
  -30.3711  -15.3275   20.5600 N   0  0  0  0  0  0  0  0  0  0  0  0
  -31.5692  -11.7343   18.1004 N   0  0  0  0  0  0  0  0  0  0  0  0
  -27.2504  -18.9388   20.6072 N   0  0  0  0  0  0  0  0  0  0  0  0
  -25.4672  -33.1268   22.8847 N   0  0  0  0  0  0  0  0  0  0  0  0
  -20.7622  -28.5871   22.3464 N   0  0  0  0  0  0  0  0  0  0  0  0
  -19.6409  -26.6831   19.4854 N   0  3  0  0  0  0  0  0  0  0  0  0
  -32.3340  -13.6685   19.0662 O   0  0  0  0  0  0  0  0  0  0  0  0
  -25.8445  -30.8961   23.4361 O   0  0  0  0  0  0  0  0  0  0  0  0
  -21.8079  -31.2413   22.6125 O   0  0  0  0  0  0  0  0  0  0  0  0
  -21.6534  -26.6425   21.4513 O   0  0  0  0  0  0  0  0  0  0  0  0
  -25.3797  -19.0578   21.9740 O   0  0  0  0  0  0  0  0  0  0  0  0
  -28.2293   -7.5675   16.5135 O   0  0  0  0  0  0  0  0  0  0  0  0
  -28.2927  -26.4731   19.9535 O   0  0  0  0  0  0  0  0  0  1  0  0
  -27.7030  -24.1087   18.5660 O   0  0  0  0  0  0  0  0  0  0  0  0
  -23.8162   -7.0201   13.2534 F   0  0  0  0  0  0  0  0  0  0  0  0
  -25.3993  -23.2894   19.8392 F   0  0  0  0  0  0  0  0  0  0  0  0
  -28.5166   -7.0723   13.8089 F   0  0  0  0  0  0  0  0  0  0  0  0
  -30.7705  -20.2690   18.6340 F   0  0  0  0  0  0  0  0  0  0  0  0
  -30.2065  -19.2651   20.4719 F   0  0  0  0  0  0  0  0  0  0  0  0
  -29.3804  -18.5979   18.5742 F   0  0  0  0  0  0  0  0  0  0  0  0
  1  2  1  0  0  0  0
  1  5  2  0  0  0  0
  2  6  2  0  0  0  0
  3  8  2  0  0  0  0
  3 17  1  0  0  0  0
  4  9  1  0  0  0  0
  4 17  2  0  0  0  0
  5 19  1  0  0  0  0
  6 21  1  0  0  0  0
  7 10  2  0  0  0  0
  7 20  1  0  0  0  0
  8 25  1  0  0  0  0
  9 25  2  0  0  0  0
 10 26  1  0  0  0  0
 11 12  2  0  0  0  0
 11 27  1  0  0  0  0
 12 29  1  0  0  0  0
 13 22  1  0  0  0  0
 13 26  2  0  0  0  0
 14 23  2  0  0  0  0
 14 28  1  0  0  0  0
 15 24  2  0  0  0  0
 15 30  1  0  0  0  0
 16 29  2  0  0  0  0
 16 31  1  0  0  0  0
 17 32  1  0  0  0  0
 18 32  1  0  0  0  0
 18 33  2  0  0  0  0
 18 34  1  0  0  0  0
 19 21  2  0  0  0  0
 19 39  1  0  0  0  0
 20 22  2  0  0  0  0
 20 40  1  0  0  0  0
 21 48  1  0  0  0  0
 22 41  1  0  0  0  0
 23 24  1  0  0  0  0
 23 60  1  0  0  0  0
 24 68  1  0  0  0  0
 25 77  1  0  0  0  0
 26 78  1  0  0  0  0
 27 31  2  0  0  0  0
 27 77  1  0  0  0  0
 28 30  2  0  0  0  0
 28 79  1  0  0  0  0
 29 80  1  0  0  0  0
 30 81  1  0  0  0  0
 31 82  1  0  0  0  0
 32 62  2  0  0  0  0
 33 63  1  0  0  0  0
 33 66  1  0  0  0  0
 34 67  1  0  0  0  0
 34 72  2  0  0  0  0
 35 49  1  0  0  0  0
 35 69  1  0  0  0  0
 35 73  2  0  0  0  0
 36 58  1  0  0  0  0
 36 64  1  0  0  0  0
 36 74  2  0  0  0  0
 37 59  1  0  0  0  0
 37 70  1  0  0  0  0
 37 75  2  0  0  0  0
 38 65  1  0  0  0  0
 38 68  1  0  0  0  0
 38 76  2  0  0  0  0
 39 42  1  0  0  0  0
 40 49  1  0  0  0  0
 41 64  1  0  0  0  0
 42 44  1  0  0  0  0
 43 45  1  0  0  0  0
 43 46  1  0  0  0  0
 44 48  1  0  0  0  0
 45 50  1  0  0  0  0
 46 65  1  0  0  0  0
 47 50  1  0  0  0  0
 47 65  1  0  0  0  0
 48 69  1  0  0  0  0
 49 64  1  0  0  0  0
 50 63  1  0  0  0  0
 51 59  1  0  0  0  0
 52 61  1  0  0  0  0
 53 61  1  0  0  0  0
 54 61  1  0  0  0  0
 55 71  1  0  0  0  0
 56 57  1  0  0  0  0
 56 78  1  0  0  0  0
 57 79  1  0  0  0  0
 58 61  1  0  0  0  0
 58 70  1  0  0  0  0
 59 71  1  0  0  0  0
 60 83  1  0  0  0  0
 60 84  1  0  0  0  0
 60 85  1  0  0  0  0
 62 63  1  0  0  0  0
M  CHG  1  71   1
M  ISO  4  38 100  56 101  68 100  78 101
M  END
> <Batch ID>
0005

> <Smiles>
CNC(C)C(=O)NC(C(=O)N1Cc2cc([101O:1][101CH2:1]COc3cc(C(F)(F)F)c([100NH:0][100C:0](=O)N4CCCC(n5nc(-c6ccc(Oc7ccc(F)cc7F)cc6)c(C(N)=O)c5N)C4)cc3F)ccc2CC1C(=O)NC1CCCc2ccccc21)C(C)(C)C

> <Shape>
0.285

> <Color>
0.071

> <Negative vol penalty>
0.000

$$$$

  -OEChem-04042320263D

108118  0     1  0  0  0  0  0999 V2000
  -19.9029  -24.8264   23.0300 C   0  0  0  0  0  0  0  0  0  0  0  0
  -21.0072  -25.5066   23.5309 C   0  0  0  0  0  0  0  0  0  0  0  0
  -21.9296  -18.7872   19.3985 C   0  0  0  0  0  0  0  0  0  0  0  0
  -24.7290   -8.3065   20.8612 C   0  0  0  0  0  0  0  0  0  0  0  0
  -23.0100   -9.9786   20.5674 C   0  0  0  0  0  0  0  0  0  0  0  0
  -21.7945  -19.8595   20.2801 C   0  0  0  0  0  0  0  0  0  0  0  0
  -19.1399  -25.3970   22.0134 C   0  0  0  0  0  0  0  0  0  0  0  0
  -21.3419  -26.7626   23.0237 C   0  0  0  0  0  0  0  0  0  0  0  0
  -24.9582  -29.2008   25.2997 C   0  0  0  0  0  0  0  0  0  0  0  0
  -22.9436  -17.8489   19.5916 C   0  0  0  0  0  0  0  0  0  0  0  0
  -23.7524   -7.3531   21.1491 C   0  0  0  0  0  0  0  0  0  0  0  0
  -22.0334   -9.0252   20.8553 C   0  0  0  0  0  0  0  0  0  0  0  0
  -26.2977  -28.8268   25.2013 C   0  0  0  0  0  0  0  0  0  0  0  0
  -21.8248   -6.4800   23.7848 C   0  0  0  0  0  0  0  0  0  0  0  0
  -22.0449   -5.6363   24.8735 C   0  0  0  0  0  0  0  0  0  0  0  0
  -23.6875  -19.0557   21.5480 C   0  0  0  0  0  0  0  0  0  0  0  0
  -26.6836  -30.6377   23.6551 C   0  0  0  0  0  0  0  0  0  0  0  0
  -21.9534   -3.7191   23.4062 C   0  0  0  0  0  0  0  0  0  0  0  0
  -24.3578   -9.6193   20.5704 C   0  0  0  0  0  0  0  0  0  0  0  0
  -22.6735  -19.9938   21.3548 C   0  0  0  0  0  0  0  0  0  0  0  0
  -26.3029  -10.5726   19.2230 C   0  0  0  0  0  0  0  0  0  0  0  0
  -19.4734  -26.6552   21.4854 C   0  0  0  0  0  0  0  0  0  0  0  0
  -24.4681  -30.2913   24.5669 C   0  0  0  0  0  0  0  0  0  0  0  0
  -20.5702  -27.3658   22.0141 C   0  0  0  0  0  0  0  0  0  0  0  0
  -25.3381  -31.0252   23.7479 C   0  0  0  0  0  0  0  0  0  0  0  0
  -23.8226  -17.9832   20.6663 C   0  0  0  0  0  0  0  0  0  0  0  0
  -22.4046   -7.7125   21.1461 C   0  0  0  0  0  0  0  0  0  0  0  0
  -27.1600  -29.5435   24.3767 C   0  0  0  0  0  0  0  0  0  0  0  0
  -21.6690   -5.9433   22.5068 C   0  0  0  0  0  0  0  0  0  0  0  0
  -22.1092   -4.2559   24.6842 C   0  0  0  0  0  0  0  0  0  0  0  0
  -21.7333   -4.5629   22.3175 C   0  0  0  0  0  0  0  0  0  0  0  0
  -25.3662  -10.6047   20.2734 C   0  0  0  0  0  0  0  0  0  0  0  0
  -27.0285  -11.7289   19.3746 C   0  0  0  0  0  0  0  0  0  0  0  0
  -22.5284  -21.1365   22.2931 C   0  0  0  0  0  0  0  0  0  0  0  0
  -26.4994   -9.5860   18.2014 C   0  0  0  0  0  0  0  0  0  0  0  0
  -22.2722  -30.6650   22.2992 C   0  0  0  0  0  0  0  0  0  0  0  0
  -28.9428  -21.6486   23.0948 C   0  0  0  0  0  0  0  0  0  0  0  0
  -26.5386  -21.9106   19.7275 C   0  0  0  0  0  0  0  0  0  0  0  0
  -22.9260  -33.8130   22.7291 C   0  0  0  0  0  0  0  0  0  0  0  0
  -25.8625  -35.8477   23.2335 C   0  0  0  0  0  0  0  0  0  0  0  0
  -25.8082  -17.0157   21.8778 C   0  0  0  0  0  0  0  0  0  0  0  0
  -18.6085  -27.2294   20.3912 C   0  0  0  0  0  0  0  0  0  0  0  0
  -23.0267  -30.6984   24.7046 C   0  0  0  0  0  0  0  0  0  0  0  0
  -24.8661  -32.2162   22.9560 C   0  0  0  0  0  0  0  0  0  0  0  0
  -19.2948  -28.3505   19.6176 C   0  0  0  0  0  0  0  0  0  0  0  0
  -30.8975  -19.1918   20.9010 C   0  0  0  0  0  0  0  0  0  0  0  0
  -28.4833  -14.8246   22.7264 C   0  0  0  0  0  0  0  0  0  0  0  0
  -24.6152  -25.8388   20.1185 C   0  0  0  0  0  0  0  0  0  0  0  0
  -30.1942  -19.5001   19.5866 C   0  0  0  0  0  0  0  0  0  0  0  0
  -19.8854  -29.3643   20.5860 C   0  0  0  0  0  0  0  0  0  0  0  0
  -30.6236  -20.2788   21.9322 C   0  0  0  0  0  0  0  0  0  0  0  0
  -28.0757  -13.4925   22.0929 C   0  0  0  0  0  0  0  0  0  0  0  0
  -25.8589  -26.4798   20.7249 C   0  0  0  0  0  0  0  0  0  0  0  0
  -27.2774  -15.5825   23.2787 C   0  0  0  0  0  0  0  0  0  0  0  0
  -25.1125  -24.5767   19.4342 C   0  0  0  0  0  0  0  0  0  0  0  0
  -25.7720  -14.4507   21.6906 C   0  0  0  0  0  0  0  0  0  0  0  0
  -28.7027  -19.7108   19.7907 C   0  0  0  0  0  0  0  0  0  0  0  0
  -20.9712  -28.7196   21.4567 C   0  0  1  0  0  0  0  0  0  0  0  0
  -22.5189  -31.5101   23.5168 C   0  0  1  0  0  0  0  0  0  0  0  0
  -29.1269  -20.5111   22.1411 C   0  0  2  0  0  0  0  0  0  0  0  0
  -26.9453  -13.6810   21.0623 C   0  0  2  0  0  0  0  0  0  0  0  0
  -27.0116  -25.5350   20.3775 C   0  0  1  0  0  0  0  0  0  0  0  0
  -26.1362  -38.0599   24.3861 C   0  0  0  0  0  0  0  0  0  0  0  0
  -22.5607  -34.9860   19.9361 C   0  0  0  0  0  0  0  0  0  0  0  0
  -24.2962  -36.6987   20.5042 C   0  0  0  0  0  0  0  0  0  0  0  0
  -22.1700  -36.6011   21.8052 C   0  0  0  0  0  0  0  0  0  0  0  0
  -27.9604  -34.7835   25.0294 C   0  0  0  0  0  0  0  0  0  0  0  0
  -27.1423  -23.2672   19.4712 C   0  0  0  0  0  0  0  0  0  0  0  0
  -26.9982  -21.1154   20.9207 C   0  0  0  0  0  0  0  0  0  0  0  0
  -28.0639  -25.4986   21.4786 C   0  0  0  0  0  0  0  0  0  0  0  0
  -25.4171  -22.0627   24.9515 C   0  0  0  0  0  0  0  0  0  0  0  0
  -24.1265  -22.8343   24.6582 C   0  0  0  0  0  0  0  0  0  0  0  0
  -26.6178  -23.0095   25.0471 C   0  0  0  0  0  0  0  0  0  0  0  0
  -30.1948  -28.3851   22.8161 C   0  0  0  0  0  0  0  0  0  0  0  0
  -22.8995  -21.9293   24.6147 C   0  0  0  0  0  0  0  0  0  0  0  0
  -27.9309  -22.2693   25.2796 C   0  0  0  0  0  0  0  0  0  0  0  0
  -29.6451  -26.9689   22.7342 C   0  0  0  0  0  0  0  0  0  0  0  0
  -29.1243  -29.4462   23.0397 C   0  0  0  0  0  0  0  0  0  1  0  0
  -23.9066  -34.7926   22.1309 C   0  0  1  0  0  0  0  0  0  0  0  0
  -26.2718  -36.5507   24.5152 C   0  0  2  0  0  0  0  0  0  0  0  0
  -23.2393  -35.7418   21.0959 C   0  0  0  0  0  0  0  0  0  0  0  0
  -25.4839  -11.6948   21.0362 N   0  0  0  0  0  0  0  0  0  0  0  0
  -25.6459  -21.4446   18.9147 N   0  0  0  0  0  0  0  0  0  0  0  0
  -26.5031  -12.3585   20.4644 N   0  0  0  0  0  0  0  0  0  0  0  0
  -23.4466  -32.5711   23.1193 N   0  0  0  0  0  0  0  0  0  0  0  0
  -26.2494  -15.7269   22.2456 N   0  0  0  0  0  0  0  0  0  0  0  0
  -26.3297  -24.2482   20.1804 N   0  0  2  0  0  0  0  0  0  0  0  0
  -28.0585  -12.2582   18.6808 N   0  0  0  0  0  0  0  0  0  0  0  0
  -25.7949   -9.7214   16.9974 N   0  0  0  0  0  0  0  0  0  0  0  0
  -24.8524  -17.0299   20.8625 N   0  0  0  0  0  0  0  0  0  0  0  0
  -22.9920  -20.9291   23.5875 N   0  0  0  0  0  0  0  0  0  0  0  0
  -21.3566  -29.6488   22.4959 N   0  0  0  0  0  0  0  0  0  0  0  0
  -28.2231  -21.3216   24.2282 N   0  0  0  0  0  0  0  0  0  0  0  0
  -24.5337  -35.4800   23.2546 N   0  0  0  0  0  0  0  0  0  0  0  0
  -28.4728  -20.8155   20.8010 N   0  3  2  0  0  0  0  0  0  0  0  0
  -27.6887  -36.2330   24.8505 N   0  3  0  0  0  0  0  0  0  0  0  0
  -28.6482  -26.8583   21.6436 N   0  3  0  0  0  0  0  0  0  0  0  0
  -22.0021  -22.1737   21.8985 O   0  0  0  0  0  0  0  0  0  0  0  0
  -27.2642   -8.6041   18.3581 O   0  0  0  0  0  0  0  0  0  0  0  0
  -22.8672  -30.9171   21.2581 O   0  0  0  0  0  0  0  0  0  0  0  0
  -29.4192  -22.7453   22.8264 O   0  0  0  0  0  0  0  0  0  0  0  0
  -21.7431  -34.1404   22.8523 O   0  0  0  0  0  0  0  0  0  0  0  0
  -26.6425  -35.6482   22.3049 O   0  0  0  0  0  0  0  0  0  0  0  0
  -26.2659  -18.0332   22.4043 O   0  0  0  0  0  0  0  0  0  0  0  0
  -21.4513   -6.7824   21.4268 O   0  0  0  0  0  0  0  0  0  0  0  0
  -28.4677  -29.1801   24.2784 O   0  0  0  0  0  0  0  0  0  1  0  0
  -22.3221   -3.4459   25.7295 F   0  0  0  0  0  0  0  0  0  0  0  0
  -21.5855   -4.0415   21.0919 F   0  0  0  0  0  0  0  0  0  0  0  0
  1  2  1  0  0  0  0
  1  7  2  0  0  0  0
  2  8  2  0  0  0  0
  3  6  2  0  0  0  0
  3 10  1  0  0  0  0
  4 11  2  0  0  0  0
  4 19  1  0  0  0  0
  5 12  1  0  0  0  0
  5 19  2  0  0  0  0
  6 20  1  0  0  0  0
  7 22  1  0  0  0  0
  8 24  1  0  0  0  0
  9 13  2  0  0  0  0
  9 23  1  0  0  0  0
 10 26  2  0  0  0  0
 11 27  1  0  0  0  0
 12 27  2  0  0  0  0
 13 28  1  0  0  0  0
 14 15  2  0  0  0  0
 14 29  1  0  0  0  0
 15 30  1  0  0  0  0
 16 20  2  0  0  0  0
 16 26  1  0  0  0  0
 17 25  1  0  0  0  0
 17 28  2  0  0  0  0
 18 30  2  0  0  0  0
 18 31  1  0  0  0  0
 19 32  1  0  0  0  0
 20 34  1  0  0  0  0
 21 32  1  0  0  0  0
 21 33  2  0  0  0  0
 21 35  1  0  0  0  0
 22 24  2  0  0  0  0
 22 42  1  0  0  0  0
 23 25  2  0  0  0  0
 23 43  1  0  0  0  0
 24 58  1  0  0  0  0
 25 44  1  0  0  0  0
 26 90  1  0  0  0  0
 27105  1  0  0  0  0
 28106  1  0  0  0  0
 29 31  2  0  0  0  0
 29105  1  0  0  0  0
 30107  1  0  0  0  0
 31108  1  0  0  0  0
 32 82  2  0  0  0  0
 33 84  1  0  0  0  0
 33 88  1  0  0  0  0
 34 91  1  0  0  0  0
 34 98  2  0  0  0  0
 35 89  1  0  0  0  0
 35 99  2  0  0  0  0
 36 59  1  0  0  0  0
 36 92  1  0  0  0  0
 36100  2  0  0  0  0
 37 60  1  0  0  0  0
 37 93  1  0  0  0  0
 37101  2  0  0  0  0
 38 68  1  0  0  0  0
 38 69  1  0  0  0  0
 38 83  2  0  0  0  0
 39 79  1  0  0  0  0
 39 85  1  0  0  0  0
 39102  2  0  0  0  0
 40 80  1  0  0  0  0
 40 94  1  0  0  0  0
 40103  2  0  0  0  0
 41 86  1  0  0  0  0
 41 90  1  0  0  0  0
 41104  2  0  0  0  0
 42 45  1  0  0  0  0
 43 59  1  0  0  0  0
 44 85  1  0  0  0  0
 45 50  1  0  0  0  0
 46 49  1  0  0  0  0
 46 51  1  0  0  0  0
 47 52  1  0  0  0  0
 47 54  1  0  0  0  0
 48 53  1  0  0  0  0
 48 55  1  0  0  0  0
 49 57  1  0  0  0  0
 50 58  1  0  0  0  0
 51 60  1  0  0  0  0
 52 61  1  0  0  0  0
 53 62  1  0  0  0  0
 54 86  1  0  0  0  0
 55 87  1  0  0  0  0
 56 61  1  0  0  0  0
 56 86  1  0  0  0  0
 57 95  1  0  0  0  0
 58 92  1  0  0  0  0
 59 85  1  0  0  0  0
 60 95  1  0  0  0  0
 61 84  1  0  0  0  0
 62 70  1  0  0  0  0
 62 87  1  0  0  0  0
 63 80  1  0  0  0  0
 64 81  1  0  0  0  0
 65 81  1  0  0  0  0
 66 81  1  0  0  0  0
 67 96  1  0  0  0  0
 68 87  1  0  0  0  0
 69 95  1  0  0  0  0
 70 97  1  0  0  0  0
 71 72  1  0  0  0  0
 71 73  1  0  0  0  0
 72 75  1  0  0  0  0
 73 76  1  0  0  0  0
 74 77  1  0  0  0  0
 74 78  1  0  0  0  0
 75 91  1  0  0  0  0
 76 93  1  0  0  0  0
 77 97  1  0  0  0  0
 78106  1  0  0  0  0
 79 81  1  0  0  0  0
 79 94  1  0  0  0  0
 80 96  1  0  0  0  0
 82 84  1  0  0  0  0
M  CHG  3  95   1  96   1  97   1
M  ISO  4  41 100  78 101  90 100 106 101
M  END
> <Batch ID>
0005

> <Smiles>
CNC(C)C(=O)NC(C(=O)N1Cc2cc([101O:1][101CH2:1]CCNCC3CCCN3CC(=N)CN3CCCCC3C(=O)NCCCCCNC(=O)c3cccc([100NH:0][100C:0](=O)N4CCCC(n5nc(-c6ccc(Oc7ccc(F)cc7F)cc6)c(C(N)=O)c5N)C4)c3)ccc2CC1C(=O)NC1CCCc2ccccc21)C(C)(C)C

> <Shape>
0.290

> <Color>
0.078

> <Negative vol penalty>
0.000

$$$$

  -OEChem-04042320263D

 90 99  0     1  0  0  0  0  0999 V2000
  -15.1940  -32.7664   18.7510 C   0  0  0  0  0  0  0  0  0  0  0  0
  -16.1846  -32.0087   18.1345 C   0  0  0  0  0  0  0  0  0  0  0  0
  -22.9050  -10.3304   20.5465 C   0  0  0  0  0  0  0  0  0  0  0  0
  -24.6085   -8.8407   21.3926 C   0  0  0  0  0  0  0  0  0  0  0  0
  -15.5189  -33.9847   19.3461 C   0  0  0  0  0  0  0  0  0  0  0  0
  -17.5006  -32.4694   18.1119 C   0  0  0  0  0  0  0  0  0  0  0  0
  -22.8386  -28.5872   20.9973 C   0  0  0  0  0  0  0  0  0  0  0  0
  -29.6898  -19.3200   20.1224 C   0  0  0  0  0  0  0  0  0  0  0  0
  -29.7800  -17.9281   20.1254 C   0  0  0  0  0  0  0  0  0  0  0  0
  -21.9981   -9.8213   21.4760 C   0  0  0  0  0  0  0  0  0  0  0  0
  -23.7016   -8.3316   22.3221 C   0  0  0  0  0  0  0  0  0  0  0  0
  -23.9439  -27.8080   21.3398 C   0  0  0  0  0  0  0  0  0  0  0  0
  -21.1321   -6.1344   22.3501 C   0  0  0  0  0  0  0  0  0  0  0  0
  -21.0782   -4.7500   22.5117 C   0  0  0  0  0  0  0  0  0  0  0  0
  -25.4213  -29.6392   20.7811 C   0  0  0  0  0  0  0  0  0  0  0  0
  -27.3703  -17.7719   20.0484 C   0  0  0  0  0  0  0  0  0  0  0  0
  -21.6786   -4.9981   24.8387 C   0  0  0  0  0  0  0  0  0  0  0  0
  -24.2102   -9.8401   20.5048 C   0  0  0  0  0  0  0  0  0  0  0  0
  -25.0295  -10.3430   18.1418 C   0  0  0  0  0  0  0  0  0  0  0  0
  -16.8412  -34.4559   19.3393 C   0  0  0  0  0  0  0  0  0  0  0  0
  -23.0198  -29.9021   20.5594 C   0  0  0  0  0  0  0  0  0  0  0  0
  -17.8432  -33.6957   18.7064 C   0  0  0  0  0  0  0  0  0  0  0  0
  -24.3172  -30.4286   20.4485 C   0  0  0  0  0  0  0  0  0  0  0  0
  -27.2801  -19.1638   20.0454 C   0  0  0  0  0  0  0  0  0  0  0  0
  -28.4399  -19.9379   20.0824 C   0  0  0  0  0  0  0  0  0  0  0  0
  -28.6202  -17.1540   20.0884 C   0  0  0  0  0  0  0  0  0  0  0  0
  -22.3964   -8.8219   22.3638 C   0  0  0  0  0  0  0  0  0  0  0  0
  -25.2321  -28.3327   21.2317 C   0  0  0  0  0  0  0  0  0  0  0  0
  -21.4594   -6.9507   23.4329 C   0  0  0  0  0  0  0  0  0  0  0  0
  -21.3514   -4.1818   23.7559 C   0  0  0  0  0  0  0  0  0  0  0  0
  -21.7326   -6.3825   24.6771 C   0  0  0  0  0  0  0  0  0  0  0  0
  -25.1473  -10.3653   19.5445 C   0  0  0  0  0  0  0  0  0  0  0  0
  -26.1701  -10.9617   17.6916 C   0  0  0  0  0  0  0  0  0  0  0  0
  -23.9827   -9.8106   17.3194 C   0  0  0  0  0  0  0  0  0  0  0  0
  -21.4235  -33.0895   19.3897 C   0  0  0  0  0  0  0  0  0  0  0  0
  -23.7244  -33.8788   21.2586 C   0  0  0  0  0  0  0  0  0  0  0  0
  -25.2005  -35.3438   23.6204 C   0  0  0  0  0  0  0  0  0  0  0  0
  -29.8734  -14.9690   20.1273 C   0  0  0  0  0  0  0  0  0  0  0  0
  -17.1357  -35.8012   19.9543 C   0  0  0  0  0  0  0  0  0  0  0  0
  -21.8620  -30.7572   20.1212 C   0  0  0  0  0  0  0  0  0  0  0  0
  -24.4662  -31.8365   19.9399 C   0  0  0  0  0  0  0  0  0  0  0  0
  -18.6208  -36.0402   20.2142 C   0  0  0  0  0  0  0  0  0  0  0  0
  -30.7372  -11.7383   18.9052 C   0  0  0  0  0  0  0  0  0  0  0  0
  -19.4468  -35.6427   18.9949 C   0  0  0  0  0  0  0  0  0  0  0  0
  -29.3904  -11.0196   18.7970 C   0  0  0  0  0  0  0  0  0  0  0  0
  -28.2778  -23.4653   21.3187 C   0  0  0  0  0  0  0  0  0  0  0  0
  -27.7068  -23.3852   18.8799 C   0  0  0  0  0  0  0  0  0  0  0  0
  -30.7920  -12.6601   20.1222 C   0  0  0  0  0  0  0  0  0  0  0  0
  -28.9339  -22.0885   21.2076 C   0  0  0  0  0  0  0  0  0  0  0  0
  -28.3698  -22.0123   18.7748 C   0  0  0  0  0  0  0  0  0  0  0  0
  -28.3405  -12.9036   20.1142 C   0  0  0  0  0  0  0  0  0  0  0  0
  -19.2865  -34.1499   18.6828 C   0  0  1  0  0  0  0  0  0  0  0  0
  -22.0488  -32.2466   20.4621 C   0  0  1  0  0  0  0  0  0  0  0  0
  -28.2142  -12.0131   18.8674 C   0  0  2  0  0  0  0  0  0  0  0  0
  -28.3454  -24.2109   19.9910 C   0  0  0  0  0  0  0  0  0  0  0  0
  -24.0828  -37.5802   23.8365 C   0  0  0  0  0  0  0  0  0  0  0  0
  -25.7796  -33.2276   19.1008 C   0  0  0  0  0  0  0  0  0  0  0  0
  -27.3387  -34.8523   20.1953 C   0  0  0  0  0  0  0  0  0  0  0  0
  -25.1662  -35.6467   19.2616 C   0  0  0  0  0  0  0  0  0  0  0  0
  -27.7391  -36.6702   24.3655 C   0  0  0  0  0  0  0  0  0  0  0  0
  -28.3628  -26.5572   20.8426 C   0  0  0  0  0  0  0  0  0  0  0  0
  -27.5285  -27.8224   20.8805 C   0  0  0  0  0  0  0  0  0  1  0  0
  -25.1747  -34.2718   21.3833 C   0  0  1  0  0  0  0  0  0  0  0  0
  -25.2428  -36.7065   24.2880 C   0  0  2  0  0  0  0  0  0  0  0  0
  -25.9287  -19.7997   20.0037 C   0  0  0  0  0  0  0  0  0  0  0  0
  -25.8540  -34.4778   20.0000 C   0  0  0  0  0  0  0  0  0  0  0  0
  -26.2739  -10.9516   19.9581 N   0  0  0  0  0  0  0  0  0  0  0  0
  -26.8745  -11.3034   18.8085 N   0  0  0  0  0  0  0  0  0  0  0  0
  -28.3681  -21.3363   20.0809 N   0  0  0  0  0  0  0  0  0  0  0  0
  -23.4464  -32.7023   20.5523 N   0  0  0  0  0  0  0  0  0  0  0  0
  -29.6492  -13.5760   20.1197 N   0  0  0  0  0  0  0  0  0  0  0  0
  -26.6293  -11.2413   16.4533 N   0  0  0  0  0  0  0  0  0  0  0  0
  -22.8824   -9.2084   17.9449 N   0  0  0  0  0  0  0  0  0  0  0  0
  -28.7121  -15.7401   20.0908 N   0  0  0  0  0  0  0  0  0  0  0  0
  -20.0827  -33.3549   19.5931 N   0  0  0  0  0  0  0  0  0  0  0  0
  -25.2062  -35.4483   22.2455 N   0  0  0  0  0  0  0  0  0  0  0  0
  -27.6142  -25.4981   20.1199 N   0  3  0  0  0  0  0  0  0  0  0  0
  -26.5157  -37.4068   23.9558 N   0  3  0  0  0  0  0  0  0  0  0  0
  -24.0295   -9.8527   16.0666 O   0  0  0  0  0  0  0  0  0  0  0  0
  -22.1065  -33.4728   18.4473 O   0  0  0  0  0  0  0  0  0  0  0  0
  -22.8591  -34.5967   21.7678 O   0  0  0  0  0  0  0  0  0  0  0  0
  -25.1695  -34.2918   24.2551 O   0  0  0  0  0  0  0  0  0  0  0  0
  -31.0124  -15.4430   20.1360 O   0  0  0  0  0  0  0  0  0  0  0  0
  -21.5118   -8.3250   23.2711 O   0  0  0  0  0  0  0  0  0  0  0  0
  -26.3065  -27.5681   21.5721 O   0  0  0  0  0  0  0  0  0  1  0  0
  -21.2980   -2.8525   23.9113 F   0  0  0  0  0  0  0  0  0  0  0  0
  -22.0465   -7.1617   25.7213 F   0  0  0  0  0  0  0  0  0  0  0  0
  -24.9036  -18.8992   19.9721 F   0  0  0  0  0  0  0  0  0  0  0  0
  -25.6703  -20.5994   21.0790 F   0  0  0  0  0  0  0  0  0  0  0  0
  -25.7575  -20.5913   18.9062 F   0  0  0  0  0  0  0  0  0  0  0  0
  1  2  1  0  0  0  0
  1  5  2  0  0  0  0
  2  6  2  0  0  0  0
  3 10  2  0  0  0  0
  3 18  1  0  0  0  0
  4 11  1  0  0  0  0
  4 18  2  0  0  0  0
  5 20  1  0  0  0  0
  6 22  1  0  0  0  0
  7 12  2  0  0  0  0
  7 21  1  0  0  0  0
  8  9  2  0  0  0  0
  8 25  1  0  0  0  0
  9 26  1  0  0  0  0
 10 27  1  0  0  0  0
 11 27  2  0  0  0  0
 12 28  1  0  0  0  0
 13 14  2  0  0  0  0
 13 29  1  0  0  0  0
 14 30  1  0  0  0  0
 15 23  1  0  0  0  0
 15 28  2  0  0  0  0
 16 24  1  0  0  0  0
 16 26  2  0  0  0  0
 17 30  2  0  0  0  0
 17 31  1  0  0  0  0
 18 32  1  0  0  0  0
 19 32  1  0  0  0  0
 19 33  2  0  0  0  0
 19 34  1  0  0  0  0
 20 22  2  0  0  0  0
 20 39  1  0  0  0  0
 21 23  2  0  0  0  0
 21 40  1  0  0  0  0
 22 52  1  0  0  0  0
 23 41  1  0  0  0  0
 24 25  2  0  0  0  0
 24 65  1  0  0  0  0
 25 69  1  0  0  0  0
 26 74  1  0  0  0  0
 27 84  1  0  0  0  0
 28 85  1  0  0  0  0
 29 31  2  0  0  0  0
 29 84  1  0  0  0  0
 30 86  1  0  0  0  0
 31 87  1  0  0  0  0
 32 67  2  0  0  0  0
 33 68  1  0  0  0  0
 33 72  1  0  0  0  0
 34 73  1  0  0  0  0
 34 79  2  0  0  0  0
 35 53  1  0  0  0  0
 35 75  1  0  0  0  0
 35 80  2  0  0  0  0
 36 63  1  0  0  0  0
 36 70  1  0  0  0  0
 36 81  2  0  0  0  0
 37 64  1  0  0  0  0
 37 76  1  0  0  0  0
 37 82  2  0  0  0  0
 38 71  1  0  0  0  0
 38 74  1  0  0  0  0
 38 83  2  0  0  0  0
 39 42  1  0  0  0  0
 40 53  1  0  0  0  0
 41 70  1  0  0  0  0
 42 44  1  0  0  0  0
 43 45  1  0  0  0  0
 43 48  1  0  0  0  0
 44 52  1  0  0  0  0
 45 54  1  0  0  0  0
 46 49  1  0  0  0  0
 46 55  1  0  0  0  0
 47 50  1  0  0  0  0
 47 55  1  0  0  0  0
 48 71  1  0  0  0  0
 49 69  1  0  0  0  0
 50 69  1  0  0  0  0
 51 54  1  0  0  0  0
 51 71  1  0  0  0  0
 52 75  1  0  0  0  0
 53 70  1  0  0  0  0
 54 68  1  0  0  0  0
 55 77  1  0  0  0  0
 56 64  1  0  0  0  0
 57 66  1  0  0  0  0
 58 66  1  0  0  0  0
 59 66  1  0  0  0  0
 60 78  1  0  0  0  0
 61 62  1  0  0  0  0
 61 77  1  0  0  0  0
 62 85  1  0  0  0  0
 63 66  1  0  0  0  0
 63 76  1  0  0  0  0
 64 78  1  0  0  0  0
 65 88  1  0  0  0  0
 65 89  1  0  0  0  0
 65 90  1  0  0  0  0
 67 68  1  0  0  0  0
M  CHG  2  77   1  78   1
M  ISO  4  38 100  62 101  74 100  85 101
M  END
> <Batch ID>
0005

> <Smiles>
CNC(C)C(=O)NC(C(=O)N1Cc2cc([101O:1][101CH2:1]CNC3CCN(c4ccc([100NH:0][100C:0](=O)N5CCCC(n6nc(-c7ccc(Oc8ccc(F)cc8F)cc7)c(C(N)=O)c6N)C5)cc4C(F)(F)F)CC3)ccc2CC1C(=O)NC1CCCc2ccccc21)C(C)(C)C

> <Shape>
0.276

> <Color>
0.103

> <Negative vol penalty>
0.000

$$$$

  -OEChem-04042320263D

 92101  0     1  0  0  0  0  0999 V2000
  -21.4299  -28.3960   25.2375 C   0  0  0  0  0  0  0  0  0  0  0  0
  -22.1254  -27.2213   24.9695 C   0  0  0  0  0  0  0  0  0  0  0  0
  -26.6800  -28.8491   18.9532 C   0  0  0  0  0  0  0  0  0  0  0  0
  -26.4492  -27.8990   21.1625 C   0  0  0  0  0  0  0  0  0  0  0  0
  -20.2354  -28.6651   24.5708 C   0  0  0  0  0  0  0  0  0  0  0  0
  -21.6261  -26.3145   24.0352 C   0  0  0  0  0  0  0  0  0  0  0  0
  -24.8760  -22.7936   20.2211 C   0  0  0  0  0  0  0  0  0  0  0  0
  -27.2569  -12.1658   20.3295 C   0  0  0  0  0  0  0  0  0  0  0  0
  -25.6515  -29.7488   19.2326 C   0  0  0  0  0  0  0  0  0  0  0  0
  -25.4207  -28.7988   21.4420 C   0  0  0  0  0  0  0  0  0  0  0  0
  -25.2685  -21.4572   20.2831 C   0  0  0  0  0  0  0  0  0  0  0  0
  -25.1267  -32.0486   22.3213 C   0  0  0  0  0  0  0  0  0  0  0  0
  -25.1514  -32.6953   23.5569 C   0  0  0  0  0  0  0  0  0  0  0  0
  -28.5253  -11.6388   20.5722 C   0  0  0  0  0  0  0  0  0  0  0  0
  -23.3635  -20.8416   18.9374 C   0  0  0  0  0  0  0  0  0  0  0  0
  -28.2592  -14.0843   19.2564 C   0  0  0  0  0  0  0  0  0  0  0  0
  -23.0041  -31.7322   24.1037 C   0  0  0  0  0  0  0  0  0  0  0  0
  -27.0789  -27.9241   19.9181 C   0  0  0  0  0  0  0  0  0  0  0  0
  -29.5182  -27.1803   19.8541 C   0  0  0  0  0  0  0  0  0  0  0  0
  -19.7262  -27.7657   23.6208 C   0  0  0  0  0  0  0  0  0  0  0  0
  -23.7163  -23.1632   19.5248 C   0  0  0  0  0  0  0  0  0  0  0  0
  -20.4230  -26.5712   23.3561 C   0  0  0  0  0  0  0  0  0  0  0  0
  -22.9598  -22.1836   18.8659 C   0  0  0  0  0  0  0  0  0  0  0  0
  -27.1238  -13.3886   19.6715 C   0  0  0  0  0  0  0  0  0  0  0  0
  -29.5277  -13.5574   19.4991 C   0  0  0  0  0  0  0  0  0  0  0  0
  -25.0218  -29.7237   20.4770 C   0  0  0  0  0  0  0  0  0  0  0  0
  -24.5106  -20.4806   19.6436 C   0  0  0  0  0  0  0  0  0  0  0  0
  -24.0408  -31.2437   21.9768 C   0  0  0  0  0  0  0  0  0  0  0  0
  -24.0901  -32.5371   24.4481 C   0  0  0  0  0  0  0  0  0  0  0  0
  -22.9795  -31.0855   22.8681 C   0  0  0  0  0  0  0  0  0  0  0  0
  -29.6607  -12.3346   20.1570 C   0  0  0  0  0  0  0  0  0  0  0  0
  -28.1410  -26.9941   19.6299 C   0  0  0  0  0  0  0  0  0  0  0  0
  -30.0983  -26.0155   19.4147 C   0  0  0  0  0  0  0  0  0  0  0  0
  -31.2963  -16.9706   21.5536 C   0  0  0  0  0  0  0  0  0  0  0  0
  -30.9193  -18.1614   20.8407 C   0  0  0  0  0  0  0  0  0  0  0  0
  -31.2180  -15.7814   20.9480 C   0  0  0  0  0  0  0  0  0  0  0  0
  -30.4887  -18.1004   19.5733 C   0  0  0  0  0  0  0  0  0  0  0  0
  -30.3947  -16.7722   18.8768 C   0  0  0  0  0  0  0  0  0  0  0  0
  -30.2113  -28.3057   20.4099 C   0  0  0  0  0  0  0  0  0  0  0  0
  -20.9597  -24.5293   20.3237 C   0  0  0  0  0  0  0  0  0  0  0  0
  -20.4597  -24.4913   17.1188 C   0  0  0  0  0  0  0  0  0  0  0  0
  -25.7371  -16.3711   20.0227 C   0  0  0  0  0  0  0  0  0  0  0  0
  -21.1763  -23.0888   14.0912 C   0  0  0  0  0  0  0  0  0  0  0  0
  -30.1651  -20.5030   19.4026 C   0  0  0  0  0  0  0  0  0  0  0  0
  -18.4068  -28.0775   22.9601 C   0  0  0  0  0  0  0  0  0  0  0  0
  -23.3212  -24.6123   19.4449 C   0  0  0  0  0  0  0  0  0  0  0  0
  -21.7177  -22.5309   18.0881 C   0  0  0  0  0  0  0  0  0  0  0  0
  -18.1386  -27.2420   21.7110 C   0  0  0  0  0  0  0  0  0  0  0  0
  -28.2014  -22.1771   16.7568 C   0  0  0  0  0  0  0  0  0  0  0  0
  -18.4478  -25.7719   21.9756 C   0  0  0  0  0  0  0  0  0  0  0  0
  -28.0831  -23.5871   17.3276 C   0  0  0  0  0  0  0  0  0  0  0  0
  -28.2064  -21.1128   17.8535 C   0  0  0  0  0  0  0  0  0  0  0  0
  -29.1292  -22.7513   19.4680 C   0  0  0  0  0  0  0  0  0  0  0  0
  -19.9264  -25.5745   22.3313 C   0  0  1  0  0  0  0  0  0  0  0  0
  -21.8399  -24.8118   19.1392 C   0  0  1  0  0  0  0  0  0  0  0  0
  -29.1717  -23.8375   18.3821 C   0  0  2  0  0  0  0  0  0  0  0  0
  -20.5831  -23.2452   11.6579 C   0  0  0  0  0  0  0  0  0  0  0  0
  -17.8178  -23.0693   17.6740 C   0  0  0  0  0  0  0  0  0  0  0  0
  -17.7407  -22.4182   15.2577 C   0  0  0  0  0  0  0  0  0  0  0  0
  -17.7031  -24.8283   15.9000 C   0  0  0  0  0  0  0  0  0  0  0  0
  -23.9596  -23.7538   13.3363 C   0  0  0  0  0  0  0  0  0  0  0  0
  -30.7189  -14.3332   19.0378 C   0  0  0  0  0  0  0  0  0  0  0  0
  -25.7583  -13.9556   19.4107 C   0  0  0  0  0  0  0  0  0  0  0  0
  -25.2924  -17.2930   21.1474 C   0  0  0  0  0  0  0  0  0  0  0  0
  -25.5970  -18.7572   20.8707 C   0  0  0  0  0  0  0  0  0  1  0  0
  -19.8491  -23.5141   16.1436 C   0  0  1  0  0  0  0  0  0  0  0  0
  -21.5315  -23.7097   12.7523 C   0  0  2  0  0  0  0  0  0  0  0  0
  -18.3000  -23.4504   16.2600 C   0  0  0  0  0  0  0  0  0  0  0  0
  -27.8627  -25.8045   19.0899 N   0  0  0  0  0  0  0  0  0  0  0  0
  -29.0732  -25.2329   18.9710 N   0  0  0  0  0  0  0  0  0  0  0  0
  -30.7799  -15.6427   19.6331 N   0  0  0  0  0  0  0  0  0  0  0  0
  -21.3691  -23.9606   18.0447 N   0  0  0  0  0  0  0  0  0  0  0  0
  -29.2122  -21.4048   18.8876 N   0  0  0  0  0  0  0  0  0  0  0  0
  -31.3801  -25.5945   19.3684 N   0  0  0  0  0  0  0  0  0  0  0  0
  -29.4622  -29.4206   20.8102 N   0  0  0  0  0  0  0  0  0  0  0  0
  -30.1242  -19.2160   18.8731 N   0  0  0  0  0  0  0  0  0  0  0  0
  -20.7442  -25.6244   21.1384 N   0  0  0  0  0  0  0  0  0  0  0  0
  -25.4447  -15.0449   20.3072 N   0  0  0  0  0  0  0  0  0  0  0  0
  -20.3337  -23.8991   14.8225 N   0  0  0  0  0  0  0  0  0  0  0  0
  -22.9201  -23.3366   12.3604 N   0  3  0  0  0  0  0  0  0  0  0  0
  -29.9991  -16.7205   17.7125 O   0  0  0  0  0  0  0  0  0  0  0  0
  -31.4595  -28.3287   20.5323 O   0  0  0  0  0  0  0  0  0  0  0  0
  -20.5081  -23.4017   20.4856 O   0  0  0  0  0  0  0  0  0  0  0  0
  -20.1470  -25.6829   17.0567 O   0  0  0  0  0  0  0  0  0  0  0  0
  -26.2848  -16.7724   18.9995 O   0  0  0  0  0  0  0  0  0  0  0  0
  -21.6007  -21.9929   14.4508 O   0  0  0  0  0  0  0  0  0  0  0  0
  -30.9796  -20.8269   20.2746 O   0  0  0  0  0  0  0  0  0  0  0  0
  -24.0182  -30.6017   20.7501 O   0  0  0  0  0  0  0  0  0  0  0  0
  -24.8911  -19.1754   19.7031 O   0  0  0  0  0  0  0  0  0  1  0  0
  -24.1146  -33.1569   25.6353 F   0  0  0  0  0  0  0  0  0  0  0  0
  -21.9341  -30.3126   22.5432 F   0  0  0  0  0  0  0  0  0  0  0  0
  -31.2139  -11.6519   20.4742 Cl  0  0  0  0  0  0  0  0  0  0  0  0
  1  2  1  0  0  0  0
  1  5  2  0  0  0  0
  2  6  2  0  0  0  0
  3  9  2  0  0  0  0
  3 18  1  0  0  0  0
  4 10  1  0  0  0  0
  4 18  2  0  0  0  0
  5 20  1  0  0  0  0
  6 22  1  0  0  0  0
  7 11  2  0  0  0  0
  7 21  1  0  0  0  0
  8 14  2  0  0  0  0
  8 24  1  0  0  0  0
  9 26  1  0  0  0  0
 10 26  2  0  0  0  0
 11 27  1  0  0  0  0
 12 13  2  0  0  0  0
 12 28  1  0  0  0  0
 13 29  1  0  0  0  0
 14 31  1  0  0  0  0
 15 23  1  0  0  0  0
 15 27  2  0  0  0  0
 16 24  2  0  0  0  0
 16 25  1  0  0  0  0
 17 29  2  0  0  0  0
 17 30  1  0  0  0  0
 18 32  1  0  0  0  0
 19 32  1  0  0  0  0
 19 33  2  0  0  0  0
 19 39  1  0  0  0  0
 20 22  2  0  0  0  0
 20 45  1  0  0  0  0
 21 23  2  0  0  0  0
 21 46  1  0  0  0  0
 22 54  1  0  0  0  0
 23 47  1  0  0  0  0
 24 63  1  0  0  0  0
 25 31  2  0  0  0  0
 25 62  1  0  0  0  0
 26 88  1  0  0  0  0
 27 89  1  0  0  0  0
 28 30  2  0  0  0  0
 28 88  1  0  0  0  0
 29 90  1  0  0  0  0
 30 91  1  0  0  0  0
 31 92  1  0  0  0  0
 32 69  2  0  0  0  0
 33 70  1  0  0  0  0
 33 74  1  0  0  0  0
 34 35  1  0  0  0  0
 34 36  2  0  0  0  0
 35 37  2  0  0  0  0
 36 71  1  0  0  0  0
 37 38  1  0  0  0  0
 37 76  1  0  0  0  0
 38 71  1  0  0  0  0
 38 81  2  0  0  0  0
 39 75  1  0  0  0  0
 39 82  2  0  0  0  0
 40 55  1  0  0  0  0
 40 77  1  0  0  0  0
 40 83  2  0  0  0  0
 41 66  1  0  0  0  0
 41 72  1  0  0  0  0
 41 84  2  0  0  0  0
 42 64  1  0  0  0  0
 42 78  1  0  0  0  0
 42 85  2  0  0  0  0
 43 67  1  0  0  0  0
 43 79  1  0  0  0  0
 43 86  2  0  0  0  0
 44 73  1  0  0  0  0
 44 76  1  0  0  0  0
 44 87  2  0  0  0  0
 45 48  1  0  0  0  0
 46 55  1  0  0  0  0
 47 72  1  0  0  0  0
 48 50  1  0  0  0  0
 49 51  1  0  0  0  0
 49 52  1  0  0  0  0
 50 54  1  0  0  0  0
 51 56  1  0  0  0  0
 52 73  1  0  0  0  0
 53 56  1  0  0  0  0
 53 73  1  0  0  0  0
 54 77  1  0  0  0  0
 55 72  1  0  0  0  0
 56 70  1  0  0  0  0
 57 67  1  0  0  0  0
 58 68  1  0  0  0  0
 59 68  1  0  0  0  0
 60 68  1  0  0  0  0
 61 80  1  0  0  0  0
 62 71  1  0  0  0  0
 63 78  1  0  0  0  0
 64 65  1  0  0  0  0
 65 89  1  0  0  0  0
 66 68  1  0  0  0  0
 66 79  1  0  0  0  0
 67 80  1  0  0  0  0
 69 70  1  0  0  0  0
M  CHG  1  80   1
M  ISO  4  44 100  65 101  76 100  89 101
M  END
> <Batch ID>
0005

> <Smiles>
CNC(C)C(=O)NC(C(=O)N1Cc2cc([101O:1][101CH2:1]CC(=O)NCc3ccc(Cl)c(Cn4cccc([100NH:0][100C:0](=O)N5CCCC(n6nc(-c7ccc(Oc8ccc(F)cc8F)cc7)c(C(N)=O)c6N)C5)c4=O)c3)ccc2CC1C(=O)NC1CCCc2ccccc21)C(C)(C)C

> <Shape>
0.266

> <Color>
0.067

> <Negative vol penalty>
0.000

$$$$

  -OEChem-04042320263D

 80 87  0     1  0  0  0  0  0999 V2000
  -17.3318  -30.6747   23.0837 C   0  0  0  0  0  0  0  0  0  0  0  0
  -18.6888  -30.3681   23.0764 C   0  0  0  0  0  0  0  0  0  0  0  0
  -29.0779  -17.5648   19.5230 C   0  0  0  0  0  0  0  0  0  0  0  0
  -30.7457  -17.9495   21.2281 C   0  0  0  0  0  0  0  0  0  0  0  0
  -16.4022  -29.7092   23.4676 C   0  0  0  0  0  0  0  0  0  0  0  0
  -19.1170  -29.0959   23.4540 C   0  0  0  0  0  0  0  0  0  0  0  0
  -22.6218  -27.2156   20.3195 C   0  0  0  0  0  0  0  0  0  0  0  0
  -29.5771  -16.2775   19.3250 C   0  0  0  0  0  0  0  0  0  0  0  0
  -31.2450  -16.6621   21.0301 C   0  0  0  0  0  0  0  0  0  0  0  0
  -23.9251  -27.6893   20.4640 C   0  0  0  0  0  0  0  0  0  0  0  0
  -30.1832  -12.7624   18.6236 C   0  0  0  0  0  0  0  0  0  0  0  0
  -29.2634  -11.7190   18.5198 C   0  0  0  0  0  0  0  0  0  0  0  0
  -24.5027  -25.7035   21.7058 C   0  0  0  0  0  0  0  0  0  0  0  0
  -28.4465  -12.2185   20.7380 C   0  0  0  0  0  0  0  0  0  0  0  0
  -29.6622  -18.4008   20.4745 C   0  0  0  0  0  0  0  0  0  0  0  0
  -28.1376  -20.1226   21.5785 C   0  0  0  0  0  0  0  0  0  0  0  0
  -16.8185  -28.4216   23.8410 C   0  0  0  0  0  0  0  0  0  0  0  0
  -22.2457  -25.9853   20.8774 C   0  0  0  0  0  0  0  0  0  0  0  0
  -18.1921  -28.1126   23.8446 C   0  0  0  0  0  0  0  0  0  0  0  0
  -23.1947  -25.2152   21.5648 C   0  0  0  0  0  0  0  0  0  0  0  0
  -30.6606  -15.8262   20.0785 C   0  0  0  0  0  0  0  0  0  0  0  0
  -24.8650  -26.9345   21.1597 C   0  0  0  0  0  0  0  0  0  0  0  0
  -30.2347  -13.5339   19.7846 C   0  0  0  0  0  0  0  0  0  0  0  0
  -28.3951  -11.4470   19.5769 C   0  0  0  0  0  0  0  0  0  0  0  0
  -29.3664  -13.2619   20.8417 C   0  0  0  0  0  0  0  0  0  0  0  0
  -29.1473  -19.7309   20.6791 C   0  0  0  0  0  0  0  0  0  0  0  0
  -28.0178  -21.4780   21.3912 C   0  0  0  0  0  0  0  0  0  0  0  0
  -27.3763  -19.3320   22.5010 C   0  0  0  0  0  0  0  0  0  0  0  0
  -20.1419  -25.0692   23.0771 C   0  0  0  0  0  0  0  0  0  0  0  0
  -21.0600  -22.0974   22.1565 C   0  0  0  0  0  0  0  0  0  0  0  0
  -27.8166  -28.0784   22.9052 C   0  0  0  0  0  0  0  0  0  0  0  0
  -23.4486  -20.1102   20.7449 C   0  0  0  0  0  0  0  0  0  0  0  0
  -31.7934  -25.6650   19.3751 C   0  0  0  0  0  0  0  0  0  0  0  0
  -15.7802  -27.4257   24.2937 C   0  0  0  0  0  0  0  0  0  0  0  0
  -20.8429  -25.4760   20.6898 C   0  0  0  0  0  0  0  0  0  0  0  0
  -22.8469  -23.8785   22.1652 C   0  0  0  0  0  0  0  0  0  0  0  0
  -16.2876  -25.9863   24.3203 C   0  0  0  0  0  0  0  0  0  0  0  0
  -28.5852  -24.8617   18.0566 C   0  0  0  0  0  0  0  0  0  0  0  0
  -17.6538  -25.9142   24.9948 C   0  0  0  0  0  0  0  0  0  0  0  0
  -28.2743  -23.4910   18.6603 C   0  0  0  0  0  0  0  0  0  0  0  0
  -30.0682  -25.0083   17.7232 C   0  0  0  0  0  0  0  0  0  0  0  0
  -30.6748  -23.3542   19.4464 C   0  0  0  0  0  0  0  0  0  0  0  0
  -18.6938  -26.7362   24.2239 C   0  0  1  0  0  0  0  0  0  0  0  0
  -20.4349  -24.4481   21.7407 C   0  0  1  0  0  0  0  0  0  0  0  0
  -29.2010  -23.1795   19.8510 C   0  0  2  0  0  0  0  0  0  0  0  0
  -23.9282  -17.7166   20.1635 C   0  0  0  0  0  0  0  0  0  0  0  0
  -21.6395  -21.5030   25.0926 C   0  0  0  0  0  0  0  0  0  0  0  0
  -22.9727  -19.5163   24.3552 C   0  0  0  0  0  0  0  0  0  0  0  0
  -20.5330  -19.6365   23.8490 C   0  0  0  0  0  0  0  0  0  0  0  0
  -23.6626  -20.7327   17.8594 C   0  0  0  0  0  0  0  0  0  0  0  0
  -26.8424  -27.0009   22.4793 C   0  0  0  0  0  0  0  0  0  1  0  0
  -31.7584  -27.2428   22.6318 C   0  0  0  0  0  0  0  0  0  0  0  0
  -31.1076  -28.5619   23.0598 C   0  0  0  0  0  0  0  0  0  0  0  0
  -32.8645  -27.4808   21.5990 C   0  0  0  0  0  0  0  0  0  0  0  0
  -29.9911  -28.3587   24.0792 C   0  0  0  0  0  0  0  0  0  0  0  0
  -33.4943  -26.1814   21.1070 C   0  0  0  0  0  0  0  0  0  0  0  0
  -22.1358  -21.1296   22.5866 C   0  0  1  0  0  0  0  0  0  0  0  0
  -23.3631  -19.0400   19.6716 C   0  0  2  0  0  0  0  0  0  0  0  0
  -21.8266  -20.4724   23.9613 C   0  0  0  0  0  0  0  0  0  0  0  0
  -29.6341  -20.7546   19.9727 N   0  0  0  0  0  0  0  0  0  0  0  0
  -28.9273  -21.8030   20.4281 N   0  0  0  0  0  0  0  0  0  0  0  0
  -21.4608  -23.4265   21.9603 N   0  0  0  0  0  0  0  0  0  0  0  0
  -30.8921  -24.7007   18.8947 N   0  0  0  0  0  0  0  0  0  0  0  0
  -27.2242  -22.4115   21.9578 N   0  0  0  0  0  0  0  0  0  0  0  0
  -27.6268  -17.9545   22.5656 N   0  0  0  0  0  0  0  0  0  0  0  0
  -19.1365  -26.0168   23.0487 N   0  0  0  0  0  0  0  0  0  0  0  0
  -28.9125  -27.5462   23.5662 N   0  0  0  0  0  0  0  0  0  0  0  0
  -22.2911  -20.1787   21.4911 N   0  0  0  0  0  0  0  0  0  0  0  0
  -32.5310  -25.2949   20.4930 N   0  0  0  0  0  0  0  0  0  0  0  0
  -24.1277  -19.4570   18.4623 N   0  3  0  0  0  0  0  0  0  0  0  0
  -26.4883  -19.8296   23.2341 O   0  0  0  0  0  0  0  0  0  0  0  0
  -20.7796  -24.7140   24.0613 O   0  0  0  0  0  0  0  0  0  0  0  0
  -19.9080  -21.6876   21.9935 O   0  0  0  0  0  0  0  0  0  0  0  0
  -27.6292  -29.2707   22.6788 O   0  0  0  0  0  0  0  0  0  0  0  0
  -24.4440  -20.8125   20.9075 O   0  0  0  0  0  0  0  0  0  0  0  0
  -31.9269  -26.7756   18.8500 O   0  0  0  0  0  0  0  0  0  0  0  0
  -31.1479  -14.5700   19.8858 O   0  0  0  0  0  0  0  0  0  0  0  0
  -26.1376  -27.3948   21.3027 O   0  0  0  0  0  0  0  0  0  1  0  0
  -27.5108  -10.4459   19.4765 F   0  0  0  0  0  0  0  0  0  0  0  0
  -29.4103  -14.0004   21.9592 F   0  0  0  0  0  0  0  0  0  0  0  0
  1  2  1  0  0  0  0
  1  5  2  0  0  0  0
  2  6  2  0  0  0  0
  3  8  2  0  0  0  0
  3 15  1  0  0  0  0
  4  9  1  0  0  0  0
  4 15  2  0  0  0  0
  5 17  1  0  0  0  0
  6 19  1  0  0  0  0
  7 10  2  0  0  0  0
  7 18  1  0  0  0  0
  8 21  1  0  0  0  0
  9 21  2  0  0  0  0
 10 22  1  0  0  0  0
 11 12  2  0  0  0  0
 11 23  1  0  0  0  0
 12 24  1  0  0  0  0
 13 20  1  0  0  0  0
 13 22  2  0  0  0  0
 14 24  2  0  0  0  0
 14 25  1  0  0  0  0
 15 26  1  0  0  0  0
 16 26  1  0  0  0  0
 16 27  2  0  0  0  0
 16 28  1  0  0  0  0
 17 19  2  0  0  0  0
 17 34  1  0  0  0  0
 18 20  2  0  0  0  0
 18 35  1  0  0  0  0
 19 43  1  0  0  0  0
 20 36  1  0  0  0  0
 21 77  1  0  0  0  0
 22 78  1  0  0  0  0
 23 25  2  0  0  0  0
 23 77  1  0  0  0  0
 24 79  1  0  0  0  0
 25 80  1  0  0  0  0
 26 60  2  0  0  0  0
 27 61  1  0  0  0  0
 27 64  1  0  0  0  0
 28 65  1  0  0  0  0
 28 71  2  0  0  0  0
 29 44  1  0  0  0  0
 29 66  1  0  0  0  0
 29 72  2  0  0  0  0
 30 57  1  0  0  0  0
 30 62  1  0  0  0  0
 30 73  2  0  0  0  0
 31 51  1  0  0  0  0
 31 67  1  0  0  0  0
 31 74  2  0  0  0  0
 32 58  1  0  0  0  0
 32 68  1  0  0  0  0
 32 75  2  0  0  0  0
 33 63  1  0  0  0  0
 33 69  1  0  0  0  0
 33 76  2  0  0  0  0
 34 37  1  0  0  0  0
 35 44  1  0  0  0  0
 36 62  1  0  0  0  0
 37 39  1  0  0  0  0
 38 40  1  0  0  0  0
 38 41  1  0  0  0  0
 39 43  1  0  0  0  0
 40 45  1  0  0  0  0
 41 63  1  0  0  0  0
 42 45  1  0  0  0  0
 42 63  1  0  0  0  0
 43 66  1  0  0  0  0
 44 62  1  0  0  0  0
 45 61  1  0  0  0  0
 46 58  1  0  0  0  0
 47 59  1  0  0  0  0
 48 59  1  0  0  0  0
 49 59  1  0  0  0  0
 50 70  1  0  0  0  0
 51 78  1  0  0  0  0
 52 53  1  0  0  0  0
 52 54  1  0  0  0  0
 53 55  1  0  0  0  0
 54 56  1  0  0  0  0
 55 67  1  0  0  0  0
 56 69  1  0  0  0  0
 57 59  1  0  0  0  0
 57 68  1  0  0  0  0
 58 70  1  0  0  0  0
 60 61  1  0  0  0  0
M  CHG  1  70   1
M  ISO  4  33 100  51 101  69 100  78 101
M  END
> <Batch ID>
0005

> <Smiles>
CNC(C)C(=O)NC(C(=O)N1Cc2cc([101O:1][101CH2:1]C(=O)NCCCCC[100NH:0][100C:0](=O)N3CCCC(n4nc(-c5ccc(Oc6ccc(F)cc6F)cc5)c(C(N)=O)c4N)C3)ccc2CC1C(=O)NC1CCCc2ccccc21)C(C)(C)C

> <Shape>
0.209

> <Color>
0.065

> <Negative vol penalty>
0.000

$$$$

  -OEChem-04042320263D

 79 87  0     1  0  0  0  0  0999 V2000
  -23.3441   -6.3416   24.2992 C   0  0  0  0  0  0  0  0  0  0  0  0
  -24.5661   -7.0065   24.3070 C   0  0  0  0  0  0  0  0  0  0  0  0
  -26.1003  -30.7071   20.8867 C   0  0  0  0  0  0  0  0  0  0  0  0
  -23.9565  -29.6755   20.4660 C   0  0  0  0  0  0  0  0  0  0  0  0
  -22.4219   -6.5924   23.2841 C   0  0  0  0  0  0  0  0  0  0  0  0
  -24.8671   -7.9217   23.2989 C   0  0  0  0  0  0  0  0  0  0  0  0
  -28.4368  -14.0326   22.1904 C   0  0  0  0  0  0  0  0  0  0  0  0
  -25.5635  -31.3733   21.9884 C   0  0  0  0  0  0  0  0  0  0  0  0
  -23.4197  -30.3416   21.5677 C   0  0  0  0  0  0  0  0  0  0  0  0
  -29.3998  -14.5790   21.3430 C   0  0  0  0  0  0  0  0  0  0  0  0
  -23.6394  -34.0928   22.5597 C   0  0  0  0  0  0  0  0  0  0  0  0
  -23.9427  -35.4460   22.7088 C   0  0  0  0  0  0  0  0  0  0  0  0
  -27.6975  -14.9908   19.6840 C   0  0  0  0  0  0  0  0  0  0  0  0
  -24.9681  -34.9807   24.8464 C   0  0  0  0  0  0  0  0  0  0  0  0
  -25.2967  -29.8583   20.1254 C   0  0  0  0  0  0  0  0  0  0  0  0
  -26.4278  -29.7503   17.8414 C   0  0  0  0  0  0  0  0  0  0  0  0
  -22.7077   -7.5183   22.2684 C   0  0  0  0  0  0  0  0  0  0  0  0
  -27.0966  -13.9512   21.7859 C   0  0  0  0  0  0  0  0  0  0  0  0
  -23.9484   -8.1840   22.2685 C   0  0  0  0  0  0  0  0  0  0  0  0
  -26.7191  -14.4453   20.5292 C   0  0  0  0  0  0  0  0  0  0  0  0
  -24.2233  -31.1905   22.3289 C   0  0  0  0  0  0  0  0  0  0  0  0
  -29.0307  -15.0555   20.0885 C   0  0  0  0  0  0  0  0  0  0  0  0
  -24.0004  -33.1834   23.5540 C   0  0  0  0  0  0  0  0  0  0  0  0
  -24.6070  -35.8900   23.8521 C   0  0  0  0  0  0  0  0  0  0  0  0
  -24.6647  -33.6274   24.6973 C   0  0  0  0  0  0  0  0  0  0  0  0
  -25.8505  -29.1704   18.9869 C   0  0  0  0  0  0  0  0  0  0  0  0
  -26.7967  -28.6802   17.0635 C   0  0  0  0  0  0  0  0  0  0  0  0
  -26.6141  -31.1328   17.5102 C   0  0  0  0  0  0  0  0  0  0  0  0
  -25.0427  -11.5758   21.2932 C   0  0  0  0  0  0  0  0  0  0  0  0
  -22.9352  -14.0053   20.8708 C   0  0  0  0  0  0  0  0  0  0  0  0
  -22.9226  -17.2285   19.2497 C   0  0  0  0  0  0  0  0  0  0  0  0
  -28.1883  -23.1105   18.4410 C   0  0  0  0  0  0  0  0  0  0  0  0
  -21.6987   -7.7210   21.1659 C   0  0  0  0  0  0  0  0  0  0  0  0
  -26.0655  -13.3835   22.7223 C   0  0  0  0  0  0  0  0  0  0  0  0
  -25.2901  -14.3996   20.0557 C   0  0  0  0  0  0  0  0  0  0  0  0
  -21.9420   -8.9830   20.3421 C   0  0  0  0  0  0  0  0  0  0  0  0
  -25.6013  -24.1408   16.1295 C   0  0  0  0  0  0  0  0  0  0  0  0
  -23.4144   -9.0954   19.9598 C   0  0  0  0  0  0  0  0  0  0  0  0
  -25.4315  -25.6151   16.5005 C   0  0  0  0  0  0  0  0  0  0  0  0
  -29.2525  -20.2273   19.5815 C   0  0  0  0  0  0  0  0  0  0  0  0
  -29.5976  -19.9654   17.0972 C   0  0  0  0  0  0  0  0  0  0  0  0
  -25.8631  -23.2862   17.3661 C   0  0  0  0  0  0  0  0  0  0  0  0
  -26.8605  -25.2000   18.5561 C   0  0  0  0  0  0  0  0  0  0  0  0
  -30.4258  -19.2903   19.8368 C   0  0  0  0  0  0  0  0  0  0  0  0
  -30.7683  -19.0287   17.3651 C   0  0  0  0  0  0  0  0  0  0  0  0
  -24.3014   -9.2023   21.2061 C   0  0  1  0  0  0  0  0  0  0  0  0
  -24.8175  -12.8808   22.0031 C   0  0  1  0  0  0  0  0  0  0  0  0
  -26.6155  -26.1201   17.3463 C   0  0  2  0  0  0  0  0  0  0  0  0
  -29.3957  -20.9553   18.2445 C   0  0  0  0  0  0  0  0  0  0  0  0
  -21.5812  -19.2932   19.7343 C   0  0  0  0  0  0  0  0  0  0  0  0
  -21.0233  -12.9074   18.7614 C   0  0  0  0  0  0  0  0  0  0  0  0
  -20.6754  -15.2526   17.9567 C   0  0  0  0  0  0  0  0  0  0  0  0
  -20.0252  -14.6242   20.2816 C   0  0  0  0  0  0  0  0  0  0  0  0
  -25.3579  -18.8899   19.5108 C   0  0  0  0  0  0  0  0  0  0  0  0
  -31.6287  -17.2991   18.9408 C   0  0  0  0  0  0  0  0  0  0  0  0
  -31.0861  -16.2319   19.8707 C   0  0  0  0  0  0  0  0  0  1  0  0
  -22.4753  -14.8288   19.6922 C   0  0  1  0  0  0  0  0  0  0  0  0
  -22.9139  -18.5867   19.9277 C   0  0  2  0  0  0  0  0  0  0  0  0
  -21.0759  -14.3920   19.1740 C   0  0  0  0  0  0  0  0  0  0  0  0
  -25.8502  -27.8354   18.9445 N   0  0  0  0  0  0  0  0  0  0  0  0
  -26.4318  -27.5676   17.7629 N   0  0  0  0  0  0  0  0  0  0  0  0
  -24.3197  -13.8295   21.0049 N   0  0  0  0  0  0  0  0  0  0  0  0
  -27.0136  -23.8091   18.1165 N   0  0  0  0  0  0  0  0  0  0  0  0
  -27.3944  -28.5917   15.8563 N   0  0  0  0  0  0  0  0  0  0  0  0
  -25.5972  -31.7946   16.8084 N   0  0  0  0  0  0  0  0  0  0  0  0
  -24.2482  -10.5420   21.7509 N   0  0  0  0  0  0  0  0  0  0  0  0
  -22.5473  -16.2231   20.1154 N   0  0  0  0  0  0  0  0  0  0  0  0
  -28.2511  -21.7965   17.9937 N   0  0  0  0  0  0  0  0  0  0  0  0
  -30.5588  -18.3245   18.6840 N   0  3  0  0  0  0  0  0  0  0  0  0
  -23.9903  -19.4521   19.3677 N   0  3  0  0  0  0  0  0  0  0  0  0
  -27.6585  -31.7583   17.8127 O   0  0  0  0  0  0  0  0  0  0  0  0
  -25.8746  -11.5119   20.3957 O   0  0  0  0  0  0  0  0  0  0  0  0
  -22.0973  -13.5412   21.6481 O   0  0  0  0  0  0  0  0  0  0  0  0
  -23.2280  -17.0753   18.0691 O   0  0  0  0  0  0  0  0  0  0  0  0
  -29.1156  -23.6217   19.0781 O   0  0  0  0  0  0  0  0  0  0  0  0
  -23.6993  -31.8401   23.4041 O   0  0  0  0  0  0  0  0  0  0  0  0
  -29.9687  -15.5887   19.2591 O   0  0  0  0  0  0  0  0  0  1  0  0
  -24.8996  -37.1894   23.9945 F   0  0  0  0  0  0  0  0  0  0  0  0
  -25.0151  -32.7583   25.6553 F   0  0  0  0  0  0  0  0  0  0  0  0
  1  2  1  0  0  0  0
  1  5  2  0  0  0  0
  2  6  2  0  0  0  0
  3  8  2  0  0  0  0
  3 15  1  0  0  0  0
  4  9  1  0  0  0  0
  4 15  2  0  0  0  0
  5 17  1  0  0  0  0
  6 19  1  0  0  0  0
  7 10  2  0  0  0  0
  7 18  1  0  0  0  0
  8 21  1  0  0  0  0
  9 21  2  0  0  0  0
 10 22  1  0  0  0  0
 11 12  2  0  0  0  0
 11 23  1  0  0  0  0
 12 24  1  0  0  0  0
 13 20  1  0  0  0  0
 13 22  2  0  0  0  0
 14 24  2  0  0  0  0
 14 25  1  0  0  0  0
 15 26  1  0  0  0  0
 16 26  1  0  0  0  0
 16 27  2  0  0  0  0
 16 28  1  0  0  0  0
 17 19  2  0  0  0  0
 17 33  1  0  0  0  0
 18 20  2  0  0  0  0
 18 34  1  0  0  0  0
 19 46  1  0  0  0  0
 20 35  1  0  0  0  0
 21 76  1  0  0  0  0
 22 77  1  0  0  0  0
 23 25  2  0  0  0  0
 23 76  1  0  0  0  0
 24 78  1  0  0  0  0
 25 79  1  0  0  0  0
 26 60  2  0  0  0  0
 27 61  1  0  0  0  0
 27 64  1  0  0  0  0
 28 65  1  0  0  0  0
 28 71  2  0  0  0  0
 29 47  1  0  0  0  0
 29 66  1  0  0  0  0
 29 72  2  0  0  0  0
 30 57  1  0  0  0  0
 30 62  1  0  0  0  0
 30 73  2  0  0  0  0
 31 58  1  0  0  0  0
 31 67  1  0  0  0  0
 31 74  2  0  0  0  0
 32 63  1  0  0  0  0
 32 68  1  0  0  0  0
 32 75  2  0  0  0  0
 33 36  1  0  0  0  0
 34 47  1  0  0  0  0
 35 62  1  0  0  0  0
 36 38  1  0  0  0  0
 37 39  1  0  0  0  0
 37 42  1  0  0  0  0
 38 46  1  0  0  0  0
 39 48  1  0  0  0  0
 40 44  1  0  0  0  0
 40 49  1  0  0  0  0
 41 45  1  0  0  0  0
 41 49  1  0  0  0  0
 42 63  1  0  0  0  0
 43 48  1  0  0  0  0
 43 63  1  0  0  0  0
 44 69  1  0  0  0  0
 45 69  1  0  0  0  0
 46 66  1  0  0  0  0
 47 62  1  0  0  0  0
 48 61  1  0  0  0  0
 49 68  1  0  0  0  0
 50 58  1  0  0  0  0
 51 59  1  0  0  0  0
 52 59  1  0  0  0  0
 53 59  1  0  0  0  0
 54 70  1  0  0  0  0
 55 56  1  0  0  0  0
 55 69  1  0  0  0  0
 56 77  1  0  0  0  0
 57 59  1  0  0  0  0
 57 67  1  0  0  0  0
 58 70  1  0  0  0  0
 60 61  1  0  0  0  0
M  CHG  2  69   1  70   1
M  ISO  4  32 100  56 101  68 100  77 101
M  END
> <Batch ID>
0005

> <Smiles>
CNC(C)C(=O)NC(C(=O)N1Cc2cc([101O:1][101CH2:1]CN3CCC([100NH:0][100C:0](=O)N4CCCC(n5nc(-c6ccc(Oc7ccc(F)cc7F)cc6)c(C(N)=O)c5N)C4)CC3)ccc2CC1C(=O)NC1CCCc2ccccc21)C(C)(C)C

> <Shape>
0.238

> <Color>
0.076

> <Negative vol penalty>
0.000

$$$$

  -OEChem-04042320263D

 87 96  0     1  0  0  0  0  0999 V2000
  -16.9890  -31.1174   23.3490 C   0  0  0  0  0  0  0  0  0  0  0  0
  -18.2222  -31.5506   23.8255 C   0  0  0  0  0  0  0  0  0  0  0  0
  -32.5828  -30.2374   24.5568 C   0  0  0  0  0  0  0  0  0  0  0  0
  -24.8497  -13.7778   20.3714 C   0  0  0  0  0  0  0  0  0  0  0  0
  -26.9999  -13.3393   21.3821 C   0  0  0  0  0  0  0  0  0  0  0  0
  -16.8557  -29.8289   22.8333 C   0  0  0  0  0  0  0  0  0  0  0  0
  -19.3226  -30.6950   23.7877 C   0  0  0  0  0  0  0  0  0  0  0  0
  -25.1656  -32.2527   22.8190 C   0  0  0  0  0  0  0  0  0  0  0  0
  -31.5947  -30.8563   25.3224 C   0  0  0  0  0  0  0  0  0  0  0  0
  -29.9728  -24.9199   22.0755 C   0  0  0  0  0  0  0  0  0  0  0  0
  -30.0656  -23.6202   24.1100 C   0  0  0  0  0  0  0  0  0  0  0  0
  -32.4537  -28.8935   24.2059 C   0  0  0  0  0  0  0  0  0  0  0  0
  -30.0151  -23.7459   21.3236 C   0  0  0  0  0  0  0  0  0  0  0  0
  -30.1079  -22.4461   23.3581 C   0  0  0  0  0  0  0  0  0  0  0  0
  -24.6446  -12.4073   20.2130 C   0  0  0  0  0  0  0  0  0  0  0  0
  -26.7947  -11.9687   21.2238 C   0  0  0  0  0  0  0  0  0  0  0  0
  -26.2348  -32.4698   23.6871 C   0  0  0  0  0  0  0  0  0  0  0  0
  -23.7091   -9.7898   22.1381 C   0  0  0  0  0  0  0  0  0  0  0  0
  -22.4603   -9.2765   22.4882 C   0  0  0  0  0  0  0  0  0  0  0  0
  -26.9719  -30.1996   23.3373 C   0  0  0  0  0  0  0  0  0  0  0  0
  -30.3483  -28.7875   25.3862 C   0  0  0  0  0  0  0  0  0  0  0  0
  -22.1466   -8.4952   20.2236 C   0  0  0  0  0  0  0  0  0  0  0  0
  -26.0274  -14.2439   20.9559 C   0  0  0  0  0  0  0  0  0  0  0  0
  -25.8812  -16.4509   22.2268 C   0  0  0  0  0  0  0  0  0  0  0  0
  -17.9573  -28.9604   22.7803 C   0  0  0  0  0  0  0  0  0  0  0  0
  -24.9851  -31.0020   22.2110 C   0  0  0  0  0  0  0  0  0  0  0  0
  -19.2036  -29.3931   23.2721 C   0  0  0  0  0  0  0  0  0  0  0  0
  -25.9011  -29.9700   22.4599 C   0  0  0  0  0  0  0  0  0  0  0  0
  -29.9981  -24.8571   23.4688 C   0  0  0  0  0  0  0  0  0  0  0  0
  -30.4774  -30.1314   25.7371 C   0  0  0  0  0  0  0  0  0  0  0  0
  -30.0826  -22.5090   21.9648 C   0  0  0  0  0  0  0  0  0  0  0  0
  -31.3365  -28.1686   24.6206 C   0  0  0  0  0  0  0  0  0  0  0  0
  -25.6171  -11.5027   20.6392 C   0  0  0  0  0  0  0  0  0  0  0  0
  -27.1365  -31.4423   23.9486 C   0  0  0  0  0  0  0  0  0  0  0  0
  -24.1767   -9.6558   20.8308 C   0  0  0  0  0  0  0  0  0  0  0  0
  -21.6791   -8.6292   21.5309 C   0  0  0  0  0  0  0  0  0  0  0  0
  -23.3955   -9.0085   19.8735 C   0  0  0  0  0  0  0  0  0  0  0  0
  -26.2402  -15.6595   21.1192 C   0  0  0  0  0  0  0  0  0  0  0  0
  -26.2970  -17.7168   21.8935 C   0  0  0  0  0  0  0  0  0  0  0  0
  -25.2301  -16.0753   23.4477 C   0  0  0  0  0  0  0  0  0  0  0  0
  -22.7093  -28.7838   22.2763 C   0  0  0  0  0  0  0  0  0  0  0  0
  -24.5339  -27.4007   19.9785 C   0  0  0  0  0  0  0  0  0  0  0  0
  -27.6105  -27.0467   18.5446 C   0  0  0  0  0  0  0  0  0  0  0  0
  -30.1081  -21.2016   19.8115 C   0  0  0  0  0  0  0  0  0  0  0  0
  -17.7534  -27.5604   22.2577 C   0  0  0  0  0  0  0  0  0  0  0  0
  -23.8419  -30.7920   21.2563 C   0  0  0  0  0  0  0  0  0  0  0  0
  -25.7633  -28.6151   21.8167 C   0  0  0  0  0  0  0  0  0  0  0  0
  -19.0559  -26.8450   21.9083 C   0  0  0  0  0  0  0  0  0  0  0  0
  -27.9435  -19.5902   17.4888 C   0  0  0  0  0  0  0  0  0  0  0  0
  -20.0789  -27.0227   23.0257 C   0  0  0  0  0  0  0  0  0  0  0  0
  -27.2779  -18.4890   18.3174 C   0  0  0  0  0  0  0  0  0  0  0  0
  -29.4039  -19.7956   17.8875 C   0  0  0  0  0  0  0  0  0  0  0  0
  -28.9644  -18.9226   20.1489 C   0  0  0  0  0  0  0  0  0  0  0  0
  -20.4265  -28.5029   23.2253 C   0  0  1  0  0  0  0  0  0  0  0  0
  -23.4618  -29.3236   21.0930 C   0  0  1  0  0  0  0  0  0  0  0  0
  -27.4741  -18.7238   19.8280 C   0  0  2  0  0  0  0  0  0  0  0  0
  -28.7978  -25.8175   16.7070 C   0  0  0  0  0  0  0  0  0  0  0  0
  -24.5165  -24.8609   21.6694 C   0  0  0  0  0  0  0  0  0  0  0  0
  -26.4404  -24.0222   20.3044 C   0  0  0  0  0  0  0  0  0  0  0  0
  -24.2448  -24.4804   19.2126 C   0  0  0  0  0  0  0  0  0  0  0  0
  -28.3530  -29.5663   17.1810 C   0  0  0  0  0  0  0  0  0  0  0  0
  -29.9527  -26.1209   24.2781 C   0  0  0  0  0  0  0  0  0  0  0  0
  -29.4114  -30.7996   26.5641 C   0  0  0  0  0  0  0  0  0  0  0  0
  -25.6804  -26.4185   19.9708 C   0  0  1  0  0  0  0  0  0  0  0  0
  -28.0566  -27.0877   17.0941 C   0  0  2  0  0  0  0  0  0  0  0  0
  -25.2223  -24.9703   20.3031 C   0  0  0  0  0  0  0  0  0  0  0  0
  -26.8379  -16.3637   20.1544 N   0  0  0  0  0  0  0  0  0  0  0  0
  -26.8576  -17.6109   20.6547 N   0  0  0  0  0  0  0  0  0  0  0  0
  -24.6256  -28.4571   20.8957 N   0  0  0  0  0  0  0  0  0  0  0  0
  -29.5119  -20.0165   19.3312 N   0  0  0  0  0  0  0  0  0  0  0  0
  -26.2340  -18.8990   22.5421 N   0  0  0  0  0  0  0  0  0  0  0  0
  -24.8708  -14.7326   23.6277 N   0  0  0  0  0  0  0  0  0  0  0  0
  -30.1253  -21.3162   21.2012 N   0  0  0  0  0  0  0  0  0  0  0  0
  -31.2058  -26.8099   24.2653 N   0  0  0  0  0  0  0  0  0  0  0  0
  -21.3399  -28.9508   22.1960 N   0  0  0  0  0  0  0  0  0  0  0  0
  -26.3278  -26.5569   18.6708 N   0  0  0  0  0  0  0  0  0  0  0  0
  -28.1048  -30.7259   25.9261 N   0  0  0  0  0  0  0  0  0  1  0  0
  -28.9617  -28.2490   16.8632 N   0  3  0  0  0  0  0  0  0  0  0  0
  -24.9598  -16.9087   24.3454 O   0  0  0  0  0  0  0  0  0  0  0  0
  -23.3253  -28.2538   23.1935 O   0  0  0  0  0  0  0  0  0  0  0  0
  -23.5952  -27.2405   19.1944 O   0  0  0  0  0  0  0  0  0  0  0  0
  -28.3296  -27.4092   19.4731 O   0  0  0  0  0  0  0  0  0  0  0  0
  -30.5449  -22.0648   19.0459 O   0  0  0  0  0  0  0  0  0  0  0  0
  -25.4171  -10.1652   20.4850 O   0  0  0  0  0  0  0  0  0  0  0  0
  -28.1805  -31.6513   24.7960 O   0  0  0  0  0  0  0  0  0  1  0  0
  -20.4805   -8.1350   21.8676 F   0  0  0  0  0  0  0  0  0  0  0  0
  -23.8399   -8.8758   18.6163 F   0  0  0  0  0  0  0  0  0  0  0  0
  1  2  1  0  0  0  0
  1  6  2  0  0  0  0
  2  7  2  0  0  0  0
  3  9  2  0  0  0  0
  3 12  1  0  0  0  0
  4 15  2  0  0  0  0
  4 23  1  0  0  0  0
  5 16  1  0  0  0  0
  5 23  2  0  0  0  0
  6 25  1  0  0  0  0
  7 27  1  0  0  0  0
  8 17  2  0  0  0  0
  8 26  1  0  0  0  0
  9 30  1  0  0  0  0
 10 13  2  0  0  0  0
 10 29  1  0  0  0  0
 11 14  1  0  0  0  0
 11 29  2  0  0  0  0
 12 32  2  0  0  0  0
 13 31  1  0  0  0  0
 14 31  2  0  0  0  0
 15 33  1  0  0  0  0
 16 33  2  0  0  0  0
 17 34  1  0  0  0  0
 18 19  2  0  0  0  0
 18 35  1  0  0  0  0
 19 36  1  0  0  0  0
 20 28  1  0  0  0  0
 20 34  2  0  0  0  0
 21 30  2  0  0  0  0
 21 32  1  0  0  0  0
 22 36  2  0  0  0  0
 22 37  1  0  0  0  0
 23 38  1  0  0  0  0
 24 38  1  0  0  0  0
 24 39  2  0  0  0  0
 24 40  1  0  0  0  0
 25 27  2  0  0  0  0
 25 45  1  0  0  0  0
 26 28  2  0  0  0  0
 26 46  1  0  0  0  0
 27 54  1  0  0  0  0
 28 47  1  0  0  0  0
 29 62  1  0  0  0  0
 30 63  1  0  0  0  0
 31 73  1  0  0  0  0
 32 74  1  0  0  0  0
 33 84  1  0  0  0  0
 34 85  1  0  0  0  0
 35 37  2  0  0  0  0
 35 84  1  0  0  0  0
 36 86  1  0  0  0  0
 37 87  1  0  0  0  0
 38 67  2  0  0  0  0
 39 68  1  0  0  0  0
 39 71  1  0  0  0  0
 40 72  1  0  0  0  0
 40 79  2  0  0  0  0
 41 55  1  0  0  0  0
 41 75  1  0  0  0  0
 41 80  2  0  0  0  0
 42 64  1  0  0  0  0
 42 69  1  0  0  0  0
 42 81  2  0  0  0  0
 43 65  1  0  0  0  0
 43 76  1  0  0  0  0
 43 82  2  0  0  0  0
 44 70  1  0  0  0  0
 44 73  1  0  0  0  0
 44 83  2  0  0  0  0
 45 48  1  0  0  0  0
 46 55  1  0  0  0  0
 47 69  1  0  0  0  0
 48 50  1  0  0  0  0
 49 51  1  0  0  0  0
 49 52  1  0  0  0  0
 50 54  1  0  0  0  0
 51 56  1  0  0  0  0
 52 70  1  0  0  0  0
 53 56  1  0  0  0  0
 53 70  1  0  0  0  0
 54 75  1  0  0  0  0
 55 69  1  0  0  0  0
 56 68  1  0  0  0  0
 57 65  1  0  0  0  0
 58 66  1  0  0  0  0
 59 66  1  0  0  0  0
 60 66  1  0  0  0  0
 61 78  1  0  0  0  0
 62 74  1  0  0  0  0
 63 77  1  0  0  0  0
 64 66  1  0  0  0  0
 64 76  1  0  0  0  0
 65 78  1  0  0  0  0
 67 68  1  0  0  0  0
 77 85  1  0  0  0  0
M  CHG  1  78   1
M  ISO  4  44 100  73 100  77 101  85 101
M  END
> <Batch ID>
0005

> <Smiles>
CNC(C)C(=O)NC(C(=O)N1Cc2cc([101O:1][101NH:1]Cc3cccc(NCc4ccc([100NH:0][100C:0](=O)N5CCCC(n6nc(-c7ccc(Oc8ccc(F)cc8F)cc7)c(C(N)=O)c6N)C5)cc4)c3)ccc2CC1C(=O)NC1CCCc2ccccc21)C(C)(C)C

> <Shape>
0.283

> <Color>
0.112

> <Negative vol penalty>
0.000

$$$$

  -OEChem-04042320263D

 78 86  0     1  0  0  0  0  0999 V2000
  -18.7570  -27.7116   26.2306 C   0  0  0  0  0  0  0  0  0  0  0  0
  -20.1246  -27.4788   26.1271 C   0  0  0  0  0  0  0  0  0  0  0  0
  -25.9928  -13.4467   22.0115 C   0  0  0  0  0  0  0  0  0  0  0  0
  -24.6837  -13.1658   20.0004 C   0  0  0  0  0  0  0  0  0  0  0  0
  -18.0015  -27.9429   25.0818 C   0  0  0  0  0  0  0  0  0  0  0  0
  -20.7374  -27.4760   24.8746 C   0  0  0  0  0  0  0  0  0  0  0  0
  -26.3906  -29.4150   23.5376 C   0  0  0  0  0  0  0  0  0  0  0  0
  -25.2757  -12.4178   22.6220 C   0  0  0  0  0  0  0  0  0  0  0  0
  -23.9666  -12.1368   20.6109 C   0  0  0  0  0  0  0  0  0  0  0  0
  -27.5977  -28.7391   23.3649 C   0  0  0  0  0  0  0  0  0  0  0  0
  -22.0333   -9.1938   21.5157 C   0  0  0  0  0  0  0  0  0  0  0  0
  -21.8059   -8.0332   20.7761 C   0  0  0  0  0  0  0  0  0  0  0  0
  -27.2374  -28.7174   20.9798 C   0  0  0  0  0  0  0  0  0  0  0  0
  -24.1896   -7.6982   20.5691 C   0  0  0  0  0  0  0  0  0  0  0  0
  -25.6968  -13.8207   20.7007 C   0  0  0  0  0  0  0  0  0  0  0  0
  -27.6199  -14.7652   19.3159 C   0  0  0  0  0  0  0  0  0  0  0  0
  -18.6070  -27.9525   23.8154 C   0  0  0  0  0  0  0  0  0  0  0  0
  -25.5912  -29.7381   22.4317 C   0  0  0  0  0  0  0  0  0  0  0  0
  -19.9891  -27.7063   23.7077 C   0  0  0  0  0  0  0  0  0  0  0  0
  -26.0218  -29.3996   21.1409 C   0  0  0  0  0  0  0  0  0  0  0  0
  -24.2626  -11.7628   21.9217 C   0  0  0  0  0  0  0  0  0  0  0  0
  -28.0199  -28.3876   22.0861 C   0  0  0  0  0  0  0  0  0  0  0  0
  -23.3388   -9.6066   21.7819 C   0  0  0  0  0  0  0  0  0  0  0  0
  -22.8841   -7.2854   20.3028 C   0  0  0  0  0  0  0  0  0  0  0  0
  -24.4170   -8.8588   21.3087 C   0  0  0  0  0  0  0  0  0  0  0  0
  -26.4368  -14.8839   20.0697 C   0  0  0  0  0  0  0  0  0  0  0  0
  -27.9185  -16.0522   18.9407 C   0  0  0  0  0  0  0  0  0  0  0  0
  -28.3807  -13.5960   18.9845 C   0  0  0  0  0  0  0  0  0  0  0  0
  -22.6566  -28.9678   21.4838 C   0  0  0  0  0  0  0  0  0  0  0  0
  -23.2577  -31.1453   19.1557 C   0  0  0  0  0  0  0  0  0  0  0  0
  -25.5665  -32.8331   17.2936 C   0  0  0  0  0  0  0  0  0  0  0  0
  -28.4985  -21.3003   19.9110 C   0  0  0  0  0  0  0  0  0  0  0  0
  -17.7410  -28.1602   22.5982 C   0  0  0  0  0  0  0  0  0  0  0  0
  -24.3047  -30.4910   22.6327 C   0  0  0  0  0  0  0  0  0  0  0  0
  -25.2100  -29.7414   19.9191 C   0  0  0  0  0  0  0  0  0  0  0  0
  -18.5319  -28.5121   21.3408 C   0  0  0  0  0  0  0  0  0  0  0  0
  -25.1981  -20.2976   19.2436 C   0  0  0  0  0  0  0  0  0  0  0  0
  -19.7295  -27.5803   21.1853 C   0  0  0  0  0  0  0  0  0  0  0  0
  -25.3180  -18.7770   19.3394 C   0  0  0  0  0  0  0  0  0  0  0  0
  -26.0151  -21.0065   20.3253 C   0  0  0  0  0  0  0  0  0  0  0  0
  -27.6342  -23.3253   21.1668 C   0  0  0  0  0  0  0  0  0  0  0  0
  -29.3400  -23.5722   19.4012 C   0  0  0  0  0  0  0  0  0  0  0  0
  -27.5569  -19.0770   20.4634 C   0  0  0  0  0  0  0  0  0  0  0  0
  -28.5611  -24.0036   22.1704 C   0  0  0  0  0  0  0  0  0  0  0  0
  -30.2994  -24.2291   20.3802 C   0  0  0  0  0  0  0  0  0  0  0  0
  -20.6945  -27.7199   22.3689 C   0  0  1  0  0  0  0  0  0  0  0  0
  -23.3227  -30.3147   21.4785 C   0  0  1  0  0  0  0  0  0  0  0  0
  -26.7933  -18.3391   19.3529 C   0  0  1  0  0  0  0  0  0  0  0  0
  -25.7543  -34.5181   15.4435 C   0  0  0  0  0  0  0  0  0  0  0  0
  -22.5071  -28.9954   17.1248 C   0  0  0  0  0  0  0  0  0  0  0  0
  -23.6032  -30.3845   15.3536 C   0  0  0  0  0  0  0  0  0  0  0  0
  -21.6345  -31.2790   16.5973 C   0  0  0  0  0  0  0  0  0  0  0  0
  -27.0154  -34.7458   19.0259 C   0  0  0  0  0  0  0  0  0  0  0  0
  -30.3853  -25.6899   22.4015 C   0  0  0  0  0  0  0  0  0  0  0  0
  -29.6219  -26.8691   22.9714 C   0  0  0  0  0  0  0  0  0  1  0  0
  -23.8643  -31.0936   17.7743 C   0  0  1  0  0  0  0  0  0  0  0  0
  -25.7008  -34.3052   16.9484 C   0  0  2  0  0  0  0  0  0  0  0  0
  -22.9169  -30.4298   16.7355 C   0  0  0  0  0  0  0  0  0  0  0  0
  -26.0129  -16.1466   20.1685 N   0  0  0  0  0  0  0  0  0  0  0  0
  -26.9347  -16.8332   19.4721 N   0  0  0  0  0  0  0  0  0  0  0  0
  -23.9566  -30.4724   20.1680 N   0  0  0  0  0  0  0  0  0  0  0  0
  -27.4042  -20.5271   20.3267 N   0  0  0  0  0  0  0  0  0  0  0  0
  -28.4023  -22.6882   20.0903 N   0  0  0  0  0  0  0  0  0  0  0  0
  -28.9241  -16.5807   18.2115 N   0  0  0  0  0  0  0  0  0  0  0  0
  -27.9324  -12.3527   19.4509 N   0  0  0  0  0  0  0  0  0  0  0  0
  -21.4947  -28.9177   22.2300 N   0  0  0  0  0  0  0  0  0  0  0  0
  -24.2471  -32.4623   17.4451 N   0  0  0  0  0  0  0  0  0  0  0  0
  -29.4992  -24.9397   21.4469 N   0  3  0  0  0  0  0  0  0  0  0  0
  -26.9449  -34.8663   17.5469 N   0  3  0  0  0  0  0  0  0  0  0  0
  -29.4361  -13.6541   18.3091 O   0  0  0  0  0  0  0  0  0  0  0  0
  -23.1588  -28.0430   20.8559 O   0  0  0  0  0  0  0  0  0  0  0  0
  -22.2063  -31.7660   19.3317 O   0  0  0  0  0  0  0  0  0  0  0  0
  -26.5350  -32.0859   17.4130 O   0  0  0  0  0  0  0  0  0  0  0  0
  -29.5034  -20.7806   19.4095 O   0  0  0  0  0  0  0  0  0  0  0  0
  -23.5629  -10.7586   22.5170 O   0  0  0  0  0  0  0  0  0  0  0  0
  -29.2058  -27.7226   21.9135 O   0  0  0  0  0  0  0  0  0  1  0  0
  -22.6656   -6.1701   19.5939 F   0  0  0  0  0  0  0  0  0  0  0  0
  -25.6734   -9.2498   21.5623 F   0  0  0  0  0  0  0  0  0  0  0  0
  1  2  1  0  0  0  0
  1  5  2  0  0  0  0
  2  6  2  0  0  0  0
  3  8  2  0  0  0  0
  3 15  1  0  0  0  0
  4  9  1  0  0  0  0
  4 15  2  0  0  0  0
  5 17  1  0  0  0  0
  6 19  1  0  0  0  0
  7 10  2  0  0  0  0
  7 18  1  0  0  0  0
  8 21  1  0  0  0  0
  9 21  2  0  0  0  0
 10 22  1  0  0  0  0
 11 12  2  0  0  0  0
 11 23  1  0  0  0  0
 12 24  1  0  0  0  0
 13 20  1  0  0  0  0
 13 22  2  0  0  0  0
 14 24  2  0  0  0  0
 14 25  1  0  0  0  0
 15 26  1  0  0  0  0
 16 26  1  0  0  0  0
 16 27  2  0  0  0  0
 16 28  1  0  0  0  0
 17 19  2  0  0  0  0
 17 33  1  0  0  0  0
 18 20  2  0  0  0  0
 18 34  1  0  0  0  0
 19 46  1  0  0  0  0
 20 35  1  0  0  0  0
 21 75  1  0  0  0  0
 22 76  1  0  0  0  0
 23 25  2  0  0  0  0
 23 75  1  0  0  0  0
 24 77  1  0  0  0  0
 25 78  1  0  0  0  0
 26 59  2  0  0  0  0
 27 60  1  0  0  0  0
 27 64  1  0  0  0  0
 28 65  1  0  0  0  0
 28 70  2  0  0  0  0
 29 47  1  0  0  0  0
 29 66  1  0  0  0  0
 29 71  2  0  0  0  0
 30 56  1  0  0  0  0
 30 61  1  0  0  0  0
 30 72  2  0  0  0  0
 31 57  1  0  0  0  0
 31 67  1  0  0  0  0
 31 73  2  0  0  0  0
 32 62  1  0  0  0  0
 32 63  1  0  0  0  0
 32 74  2  0  0  0  0
 33 36  1  0  0  0  0
 34 47  1  0  0  0  0
 35 61  1  0  0  0  0
 36 38  1  0  0  0  0
 37 39  1  0  0  0  0
 37 40  1  0  0  0  0
 38 46  1  0  0  0  0
 39 48  1  0  0  0  0
 40 62  1  0  0  0  0
 41 44  1  0  0  0  0
 41 63  1  0  0  0  0
 42 45  1  0  0  0  0
 42 63  1  0  0  0  0
 43 48  1  0  0  0  0
 43 62  1  0  0  0  0
 44 68  1  0  0  0  0
 45 68  1  0  0  0  0
 46 66  1  0  0  0  0
 47 61  1  0  0  0  0
 48 60  1  0  0  0  0
 49 57  1  0  0  0  0
 50 58  1  0  0  0  0
 51 58  1  0  0  0  0
 52 58  1  0  0  0  0
 53 69  1  0  0  0  0
 54 55  1  0  0  0  0
 54 68  1  0  0  0  0
 55 76  1  0  0  0  0
 56 58  1  0  0  0  0
 56 67  1  0  0  0  0
 57 69  1  0  0  0  0
 59 60  1  0  0  0  0
M  CHG  2  68   1  69   1
M  ISO  4  32 100  55 101  63 100  76 101
M  END
> <Batch ID>
0005

> <Smiles>
CNC(C)C(=O)NC(C(=O)N1Cc2cc([101O:1][101CH2:1]CN3CC[100N:0]([100C:0](=O)N4CCCC(n5nc(-c6ccc(Oc7ccc(F)cc7F)cc6)c(C(N)=O)c5N)C4)CC3)ccc2CC1C(=O)NC1CCCc2ccccc21)C(C)(C)C

> <Shape>
0.253

> <Color>
0.093

> <Negative vol penalty>
0.000

$$$$

  -OEChem-04042320263D

 86 94  0     1  0  0  0  0  0999 V2000
  -31.4104  -31.0042   18.8337 C   0  0  0  0  0  0  0  0  0  0  0  0
  -31.0272  -29.9840   19.6985 C   0  0  0  0  0  0  0  0  0  0  0  0
  -23.1971   -9.8557   19.9467 C   0  0  0  0  0  0  0  0  0  0  0  0
  -23.9102   -9.9241   22.2540 C   0  0  0  0  0  0  0  0  0  0  0  0
  -30.6042  -17.3505   24.6387 C   0  0  0  0  0  0  0  0  0  0  0  0
  -30.9745  -30.9943   17.5094 C   0  0  0  0  0  0  0  0  0  0  0  0
  -30.2068  -28.9540   19.2398 C   0  0  0  0  0  0  0  0  0  0  0  0
  -31.7934  -24.3880   20.7495 C   0  0  0  0  0  0  0  0  0  0  0  0
  -30.2596  -16.1441   24.0293 C   0  0  0  0  0  0  0  0  0  0  0  0
  -22.5036   -8.6714   20.1961 C   0  0  0  0  0  0  0  0  0  0  0  0
  -23.2167   -8.7398   22.5034 C   0  0  0  0  0  0  0  0  0  0  0  0
  -31.5107  -24.0181   22.0637 C   0  0  0  0  0  0  0  0  0  0  0  0
  -20.0185   -7.7966   23.0532 C   0  0  0  0  0  0  0  0  0  0  0  0
  -19.2412   -7.7338   24.2096 C   0  0  0  0  0  0  0  0  0  0  0  0
  -29.6437  -22.7035   21.2857 C   0  0  0  0  0  0  0  0  0  0  0  0
  -31.7292  -16.6577   22.1816 C   0  0  0  0  0  0  0  0  0  0  0  0
  -20.5578   -5.8657   24.9931 C   0  0  0  0  0  0  0  0  0  0  0  0
  -23.9004  -10.4820   20.9756 C   0  0  0  0  0  0  0  0  0  0  0  0
  -31.5111  -18.2107   24.0195 C   0  0  0  0  0  0  0  0  0  0  0  0
  -24.1251  -13.0191   20.8319 C   0  0  0  0  0  0  0  0  0  0  0  0
  -30.1562  -29.9585   17.0316 C   0  0  0  0  0  0  0  0  0  0  0  0
  -30.9954  -23.9264   19.6929 C   0  0  0  0  0  0  0  0  0  0  0  0
  -29.7584  -28.9310   17.9082 C   0  0  0  0  0  0  0  0  0  0  0  0
  -29.9199  -23.0669   19.9588 C   0  0  0  0  0  0  0  0  0  0  0  0
  -32.0737  -17.8642   22.7910 C   0  0  0  0  0  0  0  0  0  0  0  0
  -30.8221  -15.7977   22.8008 C   0  0  0  0  0  0  0  0  0  0  0  0
  -22.5134   -8.1135   21.4744 C   0  0  0  0  0  0  0  0  0  0  0  0
  -30.4340  -23.1781   22.3322 C   0  0  0  0  0  0  0  0  0  0  0  0
  -21.0654   -6.8939   22.8666 C   0  0  0  0  0  0  0  0  0  0  0  0
  -19.5108   -6.7684   25.1796 C   0  0  0  0  0  0  0  0  0  0  0  0
  -21.3350   -5.9284   23.8365 C   0  0  0  0  0  0  0  0  0  0  0  0
  -24.6174  -11.7051   20.7185 C   0  0  0  0  0  0  0  0  0  0  0  0
  -25.1876  -13.8154   20.4808 C   0  0  0  0  0  0  0  0  0  0  0  0
  -31.8593  -19.4893   24.6910 C   0  0  0  0  0  0  0  0  0  0  0  0
  -22.8236  -13.4787   21.2200 C   0  0  0  0  0  0  0  0  0  0  0  0
  -29.1452  -25.3092   17.5092 C   0  0  0  0  0  0  0  0  0  0  0  0
  -28.9232  -22.2880   16.3493 C   0  0  0  0  0  0  0  0  0  0  0  0
  -29.1229  -18.9337   16.9456 C   0  0  0  0  0  0  0  0  0  0  0  0
  -30.9372  -14.0763   20.9651 C   0  0  0  0  0  0  0  0  0  0  0  0
  -29.6714  -30.0159   15.6047 C   0  0  0  0  0  0  0  0  0  0  0  0
  -31.3298  -24.3131   18.2782 C   0  0  0  0  0  0  0  0  0  0  0  0
  -29.0448  -22.5276   18.8579 C   0  0  0  0  0  0  0  0  0  0  0  0
  -29.1107  -28.6896   15.0981 C   0  0  0  0  0  0  0  0  0  0  0  0
  -29.3628  -13.1245   17.9167 C   0  0  0  0  0  0  0  0  0  0  0  0
  -28.1605  -28.0841   16.1263 C   0  0  0  0  0  0  0  0  0  0  0  0
  -27.9301  -12.7896   18.3378 C   0  0  0  0  0  0  0  0  0  0  0  0
  -30.3792  -12.6977   18.9743 C   0  0  0  0  0  0  0  0  0  0  0  0
  -28.6797  -12.8625   20.7502 C   0  0  0  0  0  0  0  0  0  0  0  0
  -28.8897  -27.7832   17.4414 C   0  0  1  0  0  0  0  0  0  0  0  0
  -30.1401  -24.1975   17.3302 C   0  0  1  0  0  0  0  0  0  0  0  0
  -27.6150  -13.3323   19.7456 C   0  0  2  0  0  0  0  0  0  0  0  0
  -28.8526  -16.7117   15.8111 C   0  0  0  0  0  0  0  0  0  0  0  0
  -25.8902  -22.5993   16.4676 C   0  0  0  0  0  0  0  0  0  0  0  0
  -25.6963  -20.1126   16.2512 C   0  0  0  0  0  0  0  0  0  0  0  0
  -26.7412  -21.4446   14.4190 C   0  0  0  0  0  0  0  0  0  0  0  0
  -31.9418  -18.1957   17.4638 C   0  0  0  0  0  0  0  0  0  0  0  0
  -30.9853  -21.6486   25.5452 C   0  0  0  0  0  0  0  0  0  0  0  0
  -31.2552  -22.7353   24.5198 C   0  0  0  0  0  0  0  0  0  1  0  0
  -28.0007  -21.1168   16.5866 C   0  0  1  0  0  0  0  0  0  0  0  0
  -29.8245  -17.8170   16.1938 C   0  0  2  0  0  0  0  0  0  0  0  0
  -33.0464  -18.7677   22.1059 C   0  0  0  0  0  0  0  0  0  0  0  0
  -26.5972  -21.3299   15.9523 C   0  0  0  0  0  0  0  0  0  0  0  0
  -25.8934  -11.6647   20.3258 N   0  0  0  0  0  0  0  0  0  0  0  0
  -26.2118  -12.9632   20.1894 N   0  0  0  0  0  0  0  0  0  0  0  0
  -29.4085  -22.9395   17.4921 N   0  0  0  0  0  0  0  0  0  0  0  0
  -30.0186  -13.2523   20.2809 N   0  0  0  0  0  0  0  0  0  0  0  0
  -25.3364  -15.1544   20.3959 N   0  0  0  0  0  0  0  0  0  0  0  0
  -21.8492  -12.5264   21.5486 N   0  0  0  0  0  0  0  0  0  0  0  0
  -30.4716  -14.5719   22.1825 N   0  0  0  0  0  0  0  0  0  0  0  0
  -30.8046  -20.3623   24.9263 N   0  0  0  0  0  0  0  0  0  0  0  0
  -29.6726  -26.5722   17.3195 N   0  0  0  0  0  0  0  0  0  0  0  0
  -28.7049  -19.9367   16.0968 N   0  0  0  0  0  0  0  0  0  0  0  0
  -30.9029  -17.2243   17.0346 N   0  3  0  0  0  0  0  0  0  0  0  0
  -33.0316  -19.7160   24.9790 O   0  0  0  0  0  0  0  0  0  0  0  0
  -22.5285  -14.6973   21.2580 O   0  0  0  0  0  0  0  0  0  0  0  0
  -27.9846  -25.0408   17.7966 O   0  0  0  0  0  0  0  0  0  0  0  0
  -29.2086  -22.6084   15.1928 O   0  0  0  0  0  0  0  0  0  0  0  0
  -28.9586  -18.9161   18.1635 O   0  0  0  0  0  0  0  0  0  0  0  0
  -32.0443  -14.3460   20.4921 O   0  0  0  0  0  0  0  0  0  0  0  0
  -21.8367   -6.9580   21.7182 O   0  0  0  0  0  0  0  0  0  0  0  0
  -30.1554  -22.8160   23.6141 O   0  0  0  0  0  0  0  0  0  1  0  0
  -18.7653   -6.7092   26.2908 F   0  0  0  0  0  0  0  0  0  0  0  0
  -22.3402   -5.0593   23.6634 F   0  0  0  0  0  0  0  0  0  0  0  0
  -33.4983  -18.2787   20.9144 F   0  0  0  0  0  0  0  0  0  0  0  0
  -32.5345  -19.9994   21.8166 F   0  0  0  0  0  0  0  0  0  0  0  0
  -34.1620  -18.9992   22.8557 F   0  0  0  0  0  0  0  0  0  0  0  0
  1  2  1  0  0  0  0
  1  6  2  0  0  0  0
  2  7  2  0  0  0  0
  3 10  2  0  0  0  0
  3 18  1  0  0  0  0
  4 11  1  0  0  0  0
  4 18  2  0  0  0  0
  5  9  2  0  0  0  0
  5 19  1  0  0  0  0
  6 21  1  0  0  0  0
  7 23  1  0  0  0  0
  8 12  2  0  0  0  0
  8 22  1  0  0  0  0
  9 26  1  0  0  0  0
 10 27  1  0  0  0  0
 11 27  2  0  0  0  0
 12 28  1  0  0  0  0
 13 14  2  0  0  0  0
 13 29  1  0  0  0  0
 14 30  1  0  0  0  0
 15 24  1  0  0  0  0
 15 28  2  0  0  0  0
 16 25  1  0  0  0  0
 16 26  2  0  0  0  0
 17 30  2  0  0  0  0
 17 31  1  0  0  0  0
 18 32  1  0  0  0  0
 19 25  2  0  0  0  0
 19 34  1  0  0  0  0
 20 32  1  0  0  0  0
 20 33  2  0  0  0  0
 20 35  1  0  0  0  0
 21 23  2  0  0  0  0
 21 40  1  0  0  0  0
 22 24  2  0  0  0  0
 22 41  1  0  0  0  0
 23 49  1  0  0  0  0
 24 42  1  0  0  0  0
 25 61  1  0  0  0  0
 26 69  1  0  0  0  0
 27 80  1  0  0  0  0
 28 81  1  0  0  0  0
 29 31  2  0  0  0  0
 29 80  1  0  0  0  0
 30 82  1  0  0  0  0
 31 83  1  0  0  0  0
 32 63  2  0  0  0  0
 33 64  1  0  0  0  0
 33 67  1  0  0  0  0
 34 70  1  0  0  0  0
 34 74  2  0  0  0  0
 35 68  1  0  0  0  0
 35 75  2  0  0  0  0
 36 50  1  0  0  0  0
 36 71  1  0  0  0  0
 36 76  2  0  0  0  0
 37 59  1  0  0  0  0
 37 65  1  0  0  0  0
 37 77  2  0  0  0  0
 38 60  1  0  0  0  0
 38 72  1  0  0  0  0
 38 78  2  0  0  0  0
 39 66  1  0  0  0  0
 39 69  1  0  0  0  0
 39 79  2  0  0  0  0
 40 43  1  0  0  0  0
 41 50  1  0  0  0  0
 42 65  1  0  0  0  0
 43 45  1  0  0  0  0
 44 46  1  0  0  0  0
 44 47  1  0  0  0  0
 45 49  1  0  0  0  0
 46 51  1  0  0  0  0
 47 66  1  0  0  0  0
 48 51  1  0  0  0  0
 48 66  1  0  0  0  0
 49 71  1  0  0  0  0
 50 65  1  0  0  0  0
 51 64  1  0  0  0  0
 52 60  1  0  0  0  0
 53 62  1  0  0  0  0
 54 62  1  0  0  0  0
 55 62  1  0  0  0  0
 56 73  1  0  0  0  0
 57 58  1  0  0  0  0
 57 70  1  0  0  0  0
 58 81  1  0  0  0  0
 59 62  1  0  0  0  0
 59 72  1  0  0  0  0
 60 73  1  0  0  0  0
 61 84  1  0  0  0  0
 61 85  1  0  0  0  0
 61 86  1  0  0  0  0
 63 64  1  0  0  0  0
M  CHG  1  73   1
M  ISO  4  39 100  58 101  69 100  81 101
M  END
> <Batch ID>
0005

> <Smiles>
CNC(C)C(=O)NC(C(=O)N1Cc2cc([101O:1][101CH2:1]CNC(=O)c3ccc([100NH:0][100C:0](=O)N4CCCC(n5nc(-c6ccc(Oc7ccc(F)cc7F)cc6)c(C(N)=O)c5N)C4)cc3C(F)(F)F)ccc2CC1C(=O)NC1CCCc2ccccc21)C(C)(C)C

> <Shape>
0.231

> <Color>
0.186

> <Negative vol penalty>
0.000

$$$$

  -OEChem-04042320263D

 93103  0     1  0  0  0  0  0999 V2000
  -27.2523  -35.6985   22.9752 C   0  0  0  0  0  0  0  0  0  0  0  0
  -27.5988  -34.3624   22.8012 C   0  0  0  0  0  0  0  0  0  0  0  0
  -28.4836   -9.2028   19.2690 C   0  0  0  0  0  0  0  0  0  0  0  0
  -28.9207  -11.5570   19.5916 C   0  0  0  0  0  0  0  0  0  0  0  0
  -25.9847  -36.0325   23.4500 C   0  0  0  0  0  0  0  0  0  0  0  0
  -26.6782  -33.3595   23.1030 C   0  0  0  0  0  0  0  0  0  0  0  0
  -25.4173  -18.8873   23.3093 C   0  0  0  0  0  0  0  0  0  0  0  0
  -26.4845  -29.7645   19.5416 C   0  0  0  0  0  0  0  0  0  0  0  0
  -25.0996  -17.5412   23.1113 C   0  0  0  0  0  0  0  0  0  0  0  0
  -29.5729   -9.1194   18.4017 C   0  0  0  0  0  0  0  0  0  0  0  0
  -30.0100  -11.4736   18.7243 C   0  0  0  0  0  0  0  0  0  0  0  0
  -27.5061  -28.8158   19.5384 C   0  0  0  0  0  0  0  0  0  0  0  0
  -30.5346  -11.3747   15.3858 C   0  0  0  0  0  0  0  0  0  0  0  0
  -30.6755  -12.3753   14.4243 C   0  0  0  0  0  0  0  0  0  0  0  0
  -23.0360  -18.1473   21.9808 C   0  0  0  0  0  0  0  0  0  0  0  0
  -26.0531  -27.2562   20.6678 C   0  0  0  0  0  0  0  0  0  0  0  0
  -32.8281  -12.9625   15.3510 C   0  0  0  0  0  0  0  0  0  0  0  0
  -28.1575  -10.4216   19.8639 C   0  0  0  0  0  0  0  0  0  0  0  0
  -26.8470   -9.8025   21.9631 C   0  0  0  0  0  0  0  0  0  0  0  0
  -25.0447  -35.0335   23.7485 C   0  0  0  0  0  0  0  0  0  0  0  0
  -25.2410  -29.4695   20.1187 C   0  0  0  0  0  0  0  0  0  0  0  0
  -25.3973  -33.6805   23.5835 C   0  0  0  0  0  0  0  0  0  0  0  0
  -24.5390  -19.8546   22.8427 C   0  0  0  0  0  0  0  0  0  0  0  0
  -23.3531  -19.4794   22.1922 C   0  0  0  0  0  0  0  0  0  0  0  0
  -25.0166  -28.2020   20.6748 C   0  0  0  0  0  0  0  0  0  0  0  0
  -23.9185  -17.1739   22.4503 C   0  0  0  0  0  0  0  0  0  0  0  0
  -30.3361  -10.2547   18.1294 C   0  0  0  0  0  0  0  0  0  0  0  0
  -27.2915  -27.5624   20.1041 C   0  0  0  0  0  0  0  0  0  0  0  0
  -31.5403  -11.1680   16.3299 C   0  0  0  0  0  0  0  0  0  0  0  0
  -31.8223  -13.1692   14.4069 C   0  0  0  0  0  0  0  0  0  0  0  0
  -32.6871  -11.9619   16.3125 C   0  0  0  0  0  0  0  0  0  0  0  0
  -27.0321  -10.5086   20.7594 C   0  0  0  0  0  0  0  0  0  0  0  0
  -25.6312  -10.2364   22.4323 C   0  0  0  0  0  0  0  0  0  0  0  0
  -27.6980   -8.8404   22.6002 C   0  0  0  0  0  0  0  0  0  0  0  0
  -23.5522  -30.6552   22.5364 C   0  0  0  0  0  0  0  0  0  0  0  0
  -21.2937  -28.5897   21.4614 C   0  0  0  0  0  0  0  0  0  0  0  0
  -28.6635  -24.3102   18.3260 C   0  0  0  0  0  0  0  0  0  0  0  0
  -21.1978  -25.1993   20.2314 C   0  0  0  0  0  0  0  0  0  0  0  0
  -22.5013  -15.2619   21.6243 C   0  0  0  0  0  0  0  0  0  0  0  0
  -23.7032  -35.4417   24.3040 C   0  0  0  0  0  0  0  0  0  0  0  0
  -24.1406  -30.4946   20.0902 C   0  0  0  0  0  0  0  0  0  0  0  0
  -22.5679  -20.6799   21.7662 C   0  0  0  0  0  0  0  0  0  0  0  0
  -23.6930  -27.8285   21.2888 C   0  0  0  0  0  0  0  0  0  0  0  0
  -22.6564  -34.3322   24.2449 C   0  0  0  0  0  0  0  0  0  0  0  0
  -23.1673  -21.7483   22.6904 C   0  0  0  0  0  0  0  0  0  0  0  0
  -21.4234  -11.9442   20.9117 C   0  0  0  0  0  0  0  0  0  0  0  0
  -25.6347  -23.3568   23.7868 C   0  0  0  0  0  0  0  0  0  0  0  0
  -23.2423  -33.0179   24.7509 C   0  0  0  0  0  0  0  0  0  0  0  0
  -22.7219  -11.1342   20.9073 C   0  0  0  0  0  0  0  0  0  0  0  0
  -25.2368  -21.9487   24.1882 C   0  0  0  0  0  0  0  0  0  0  0  0
  -21.6226  -13.3383   20.3196 C   0  0  0  0  0  0  0  0  0  0  0  0
  -24.0134  -13.3065   20.9132 C   0  0  0  0  0  0  0  0  0  0  0  0
  -26.2884  -23.1542   22.4367 C   0  0  0  0  0  0  0  0  0  0  0  0
  -24.4176  -32.5648   23.8763 C   0  0  1  0  0  0  0  0  0  0  0  0
  -23.0817  -30.2644   21.1640 C   0  0  1  0  0  0  0  0  0  0  0  0
  -23.8774  -11.9183   21.5597 C   0  0  2  0  0  0  0  0  0  0  0  0
  -24.6603  -21.3547   22.9016 C   0  0  1  0  0  0  0  0  0  0  0  0
  -19.5869  -24.0753   18.6697 C   0  0  0  0  0  0  0  0  0  0  0  0
  -19.8649  -27.7311   24.0170 C   0  0  0  0  0  0  0  0  0  0  0  0
  -19.4033  -25.5217   22.9337 C   0  0  0  0  0  0  0  0  0  0  0  0
  -18.4643  -27.6122   21.9484 C   0  0  0  0  0  0  0  0  0  0  0  0
  -23.3728  -24.3522   18.4119 C   0  0  0  0  0  0  0  0  0  0  0  0
  -29.7517  -25.2867   18.7441 C   0  0  0  0  0  0  0  0  0  0  0  0
  -27.8378  -21.1244   18.8484 C   0  0  0  0  0  0  0  0  0  0  0  0
  -26.9408  -21.9624   19.7671 C   0  0  0  0  0  0  0  0  0  0  0  0
  -28.3698  -21.9259   17.6637 C   0  0  0  0  0  0  0  0  0  0  0  0
  -26.3401  -21.1633   20.9176 C   0  0  0  0  0  0  0  0  0  0  0  0
  -29.2202  -26.6836   19.0254 C   0  0  0  0  0  0  0  0  0  1  0  0
  -20.9414  -27.1492   21.7435 C   0  0  1  0  0  0  0  0  0  0  0  0
  -20.9393  -24.7580   18.8021 C   0  0  2  0  0  0  0  0  0  0  0  0
  -19.6951  -27.0131   22.6632 C   0  0  0  0  0  0  0  0  0  0  0  0
  -26.0152  -11.3287   20.4811 N   0  0  0  0  0  0  0  0  0  0  0  0
  -25.1794  -11.1405   21.5165 N   0  0  0  0  0  0  0  0  0  0  0  0
  -22.6505  -28.8671   21.2423 N   0  0  0  0  0  0  0  0  0  0  0  0
  -22.7305  -14.0230   20.9893 N   0  0  0  0  0  0  0  0  0  0  0  0
  -24.9152   -9.9288   23.5346 N   0  0  0  0  0  0  0  0  0  0  0  0
  -28.9117   -8.5092   21.9826 N   0  0  0  0  0  0  0  0  0  0  0  0
  -23.6213  -15.8023   22.2554 N   0  0  0  0  0  0  0  0  0  0  0  0
  -23.9344  -31.9787   22.6444 N   0  0  0  0  0  0  0  0  0  0  0  0
  -29.1772  -23.0409   18.0751 N   0  0  0  0  0  0  0  0  0  0  0  0
  -20.7985  -26.5018   20.4440 N   0  0  0  0  0  0  0  0  0  0  0  0
  -25.4833  -22.0412   21.7825 N   0  3  2  0  0  0  0  0  0  0  0  0
  -21.9933  -23.8036   18.3560 N   0  3  0  0  0  0  0  0  0  0  0  0
  -27.3836   -8.2786   23.6768 O   0  0  0  0  0  0  0  0  0  0  0  0
  -23.5659  -29.8184   23.4315 O   0  0  0  0  0  0  0  0  0  0  0  0
  -20.3973  -29.4365   21.4293 O   0  0  0  0  0  0  0  0  0  0  0  0
  -27.4800  -24.6225   18.2273 O   0  0  0  0  0  0  0  0  0  0  0  0
  -21.6999  -24.4610   21.0760 O   0  0  0  0  0  0  0  0  0  0  0  0
  -21.3866  -15.7905   21.6326 O   0  0  0  0  0  0  0  0  0  0  0  0
  -31.3992  -10.1737   17.2834 O   0  0  0  0  0  0  0  0  0  0  0  0
  -28.2941  -26.6282   20.1029 O   0  0  0  0  0  0  0  0  0  1  0  0
  -31.9583  -14.1290   13.4825 F   0  0  0  0  0  0  0  0  0  0  0  0
  -33.6572  -11.7672   17.2163 F   0  0  0  0  0  0  0  0  0  0  0  0
  1  2  1  0  0  0  0
  1  5  2  0  0  0  0
  2  6  2  0  0  0  0
  3 10  2  0  0  0  0
  3 18  1  0  0  0  0
  4 11  1  0  0  0  0
  4 18  2  0  0  0  0
  5 20  1  0  0  0  0
  6 22  1  0  0  0  0
  7  9  2  0  0  0  0
  7 23  1  0  0  0  0
  8 12  2  0  0  0  0
  8 21  1  0  0  0  0
  9 26  1  0  0  0  0
 10 27  1  0  0  0  0
 11 27  2  0  0  0  0
 12 28  1  0  0  0  0
 13 14  2  0  0  0  0
 13 29  1  0  0  0  0
 14 30  1  0  0  0  0
 15 24  1  0  0  0  0
 15 26  2  0  0  0  0
 16 25  1  0  0  0  0
 16 28  2  0  0  0  0
 17 30  2  0  0  0  0
 17 31  1  0  0  0  0
 18 32  1  0  0  0  0
 19 32  1  0  0  0  0
 19 33  2  0  0  0  0
 19 34  1  0  0  0  0
 20 22  2  0  0  0  0
 20 40  1  0  0  0  0
 21 25  2  0  0  0  0
 21 41  1  0  0  0  0
 22 54  1  0  0  0  0
 23 24  2  0  0  0  0
 23 57  1  0  0  0  0
 24 42  1  0  0  0  0
 25 43  1  0  0  0  0
 26 78  1  0  0  0  0
 27 90  1  0  0  0  0
 28 91  1  0  0  0  0
 29 31  2  0  0  0  0
 29 90  1  0  0  0  0
 30 92  1  0  0  0  0
 31 93  1  0  0  0  0
 32 72  2  0  0  0  0
 33 73  1  0  0  0  0
 33 76  1  0  0  0  0
 34 77  1  0  0  0  0
 34 84  2  0  0  0  0
 35 55  1  0  0  0  0
 35 79  1  0  0  0  0
 35 85  2  0  0  0  0
 36 69  1  0  0  0  0
 36 74  1  0  0  0  0
 36 86  2  0  0  0  0
 37 63  1  0  0  0  0
 37 80  1  0  0  0  0
 37 87  2  0  0  0  0
 38 70  1  0  0  0  0
 38 81  1  0  0  0  0
 38 88  2  0  0  0  0
 39 75  1  0  0  0  0
 39 78  1  0  0  0  0
 39 89  2  0  0  0  0
 40 44  1  0  0  0  0
 41 55  1  0  0  0  0
 42 45  1  0  0  0  0
 43 74  1  0  0  0  0
 44 48  1  0  0  0  0
 45 57  1  0  0  0  0
 46 49  1  0  0  0  0
 46 51  1  0  0  0  0
 47 50  1  0  0  0  0
 47 53  1  0  0  0  0
 48 54  1  0  0  0  0
 49 56  1  0  0  0  0
 50 57  1  0  0  0  0
 51 75  1  0  0  0  0
 52 56  1  0  0  0  0
 52 75  1  0  0  0  0
 53 82  1  0  0  0  0
 54 79  1  0  0  0  0
 55 74  1  0  0  0  0
 56 73  1  0  0  0  0
 57 82  1  0  0  0  0
 58 70  1  0  0  0  0
 59 71  1  0  0  0  0
 60 71  1  0  0  0  0
 61 71  1  0  0  0  0
 62 83  1  0  0  0  0
 63 68  1  0  0  0  0
 64 65  1  0  0  0  0
 64 66  1  0  0  0  0
 65 67  1  0  0  0  0
 66 80  1  0  0  0  0
 67 82  1  0  0  0  0
 68 91  1  0  0  0  0
 69 71  1  0  0  0  0
 69 81  1  0  0  0  0
 70 83  1  0  0  0  0
 72 73  1  0  0  0  0
M  CHG  2  82   1  83   1
M  ISO  4  39 100  68 101  78 100  91 101
M  END
> <Batch ID>
0005

> <Smiles>
CNC(C)C(=O)NC(C(=O)N1Cc2cc([101O:1][101CH2:1]CC(=O)NCCCCN3CCCC34CCc3cc([100NH:0][100C:0](=O)N5CCCC(n6nc(-c7ccc(Oc8ccc(F)cc8F)cc7)c(C(N)=O)c6N)C5)ccc34)ccc2CC1C(=O)NC1CCCc2ccccc21)C(C)(C)C

> <Shape>
0.233

> <Color>
0.059

> <Negative vol penalty>
0.000

$$$$

  -OEChem-04042320263D

 88 97  0     1  0  0  0  0  0999 V2000
  -34.7248  -29.0329   13.4932 C   0  0  0  0  0  0  0  0  0  0  0  0
  -34.2469  -28.0498   14.3538 C   0  0  0  0  0  0  0  0  0  0  0  0
  -23.6555   -9.5951   20.6069 C   0  0  0  0  0  0  0  0  0  0  0  0
  -24.2667  -10.2013   22.8643 C   0  0  0  0  0  0  0  0  0  0  0  0
  -34.8110  -30.3553   13.9266 C   0  0  0  0  0  0  0  0  0  0  0  0
  -33.8559  -28.3884   15.6487 C   0  0  0  0  0  0  0  0  0  0  0  0
  -29.4684  -26.2375   16.9784 C   0  0  0  0  0  0  0  0  0  0  0  0
  -23.1299   -8.3900   21.0727 C   0  0  0  0  0  0  0  0  0  0  0  0
  -23.7410   -8.9962   23.3302 C   0  0  0  0  0  0  0  0  0  0  0  0
  -29.5044  -24.8937   17.3483 C   0  0  0  0  0  0  0  0  0  0  0  0
  -20.6926   -7.7125   24.0232 C   0  0  0  0  0  0  0  0  0  0  0  0
  -19.8906   -7.7548   25.1635 C   0  0  0  0  0  0  0  0  0  0  0  0
  -32.1483  -17.0924   24.6580 C   0  0  0  0  0  0  0  0  0  0  0  0
  -29.4672  -25.5389   19.6725 C   0  0  0  0  0  0  0  0  0  0  0  0
  -32.0170  -16.0811   22.4715 C   0  0  0  0  0  0  0  0  0  0  0  0
  -21.4313   -6.2826   26.3018 C   0  0  0  0  0  0  0  0  0  0  0  0
  -24.2239  -10.5007   21.5027 C   0  0  0  0  0  0  0  0  0  0  0  0
  -24.0885  -12.9702   20.8772 C   0  0  0  0  0  0  0  0  0  0  0  0
  -34.4118  -30.7119   15.2243 C   0  0  0  0  0  0  0  0  0  0  0  0
  -29.4425  -27.2440   17.9544 C   0  0  0  0  0  0  0  0  0  0  0  0
  -33.9381  -29.7166   16.1003 C   0  0  0  0  0  0  0  0  0  0  0  0
  -31.3000  -16.1056   25.1827 C   0  0  0  0  0  0  0  0  0  0  0  0
  -29.4283  -26.8945   19.3123 C   0  0  0  0  0  0  0  0  0  0  0  0
  -30.7883  -15.1099   24.3301 C   0  0  0  0  0  0  0  0  0  0  0  0
  -32.5066  -17.0779   23.3103 C   0  0  0  0  0  0  0  0  0  0  0  0
  -31.1647  -15.1005   22.9784 C   0  0  0  0  0  0  0  0  0  0  0  0
  -23.1727   -8.0905   22.4344 C   0  0  0  0  0  0  0  0  0  0  0  0
  -29.5067  -24.5443   18.6955 C   0  0  0  0  0  0  0  0  0  0  0  0
  -21.8640   -6.9551   24.0220 C   0  0  0  0  0  0  0  0  0  0  0  0
  -20.2599   -7.0399   26.3029 C   0  0  0  0  0  0  0  0  0  0  0  0
  -22.2333   -6.2402   25.1614 C   0  0  0  0  0  0  0  0  0  0  0  0
  -24.7676  -11.7455   21.0220 C   0  0  0  0  0  0  0  0  0  0  0  0
  -25.0384  -13.8339   20.3890 C   0  0  0  0  0  0  0  0  0  0  0  0
  -22.7214  -13.2978   21.1588 C   0  0  0  0  0  0  0  0  0  0  0  0
  -31.3685  -29.6428   18.7545 C   0  0  0  0  0  0  0  0  0  0  0  0
  -28.9510  -30.3927   20.7832 C   0  0  0  0  0  0  0  0  0  0  0  0
  -32.1033  -19.7415   21.4130 C   0  0  0  0  0  0  0  0  0  0  0  0
  -26.2362  -29.3467   22.5673 C   0  0  0  0  0  0  0  0  0  0  0  0
  -31.0022  -13.9630   20.7365 C   0  0  0  0  0  0  0  0  0  0  0  0
  -34.5677  -32.1463   15.6634 C   0  0  0  0  0  0  0  0  0  0  0  0
  -29.3769  -28.6881   17.5388 C   0  0  0  0  0  0  0  0  0  0  0  0
  -30.9089  -16.1745   26.6379 C   0  0  0  0  0  0  0  0  0  0  0  0
  -29.8919  -14.0130   24.8480 C   0  0  0  0  0  0  0  0  0  0  0  0
  -29.3808  -27.9365   20.3988 C   0  0  0  0  0  0  0  0  0  0  0  0
  -33.7810  -32.4855   16.9268 C   0  0  0  0  0  0  0  0  0  0  0  0
  -30.3134  -14.8703   27.1647 C   0  0  0  0  0  0  0  0  0  0  0  0
  -29.2610  -14.3378   26.2007 C   0  0  0  0  0  0  0  0  0  0  0  0
  -29.0433  -13.9008   17.7640 C   0  0  0  0  0  0  0  0  0  0  0  0
  -33.9894  -31.4115   17.9899 C   0  0  0  0  0  0  0  0  0  0  0  0
  -27.6611  -13.4584   18.2499 C   0  0  0  0  0  0  0  0  0  0  0  0
  -30.1645  -13.1967   18.5261 C   0  0  0  0  0  0  0  0  0  0  0  0
  -28.6966  -12.8536   20.4745 C   0  0  0  0  0  0  0  0  0  0  0  0
  -33.4810  -30.0487   17.5042 C   0  0  1  0  0  0  0  0  0  0  0  0
  -29.8720  -29.6440   18.6197 C   0  0  1  0  0  0  0  0  0  0  0  0
  -27.5351  -13.5840   19.7809 C   0  0  2  0  0  0  0  0  0  0  0  0
  -24.4867  -30.1799   24.1617 C   0  0  0  0  0  0  0  0  0  0  0  0
  -31.0099  -30.3996   23.0349 C   0  0  0  0  0  0  0  0  0  0  0  0
  -29.1182  -30.2859   24.6710 C   0  0  0  0  0  0  0  0  0  0  0  0
  -29.3325  -32.2510   23.1495 C   0  0  0  0  0  0  0  0  0  0  0  0
  -24.0433  -28.6579   20.7030 C   0  0  0  0  0  0  0  0  0  0  0  0
  -33.4224  -18.1353   22.7652 C   0  0  0  0  0  0  0  0  0  0  0  0
  -31.4747  -21.1209   21.4976 C   0  0  0  0  0  0  0  0  0  0  0  0
  -30.7620  -21.5169   20.2094 C   0  0  0  0  0  0  0  0  0  0  0  0
  -30.1799  -22.9202   20.2970 C   0  0  0  0  0  0  0  0  0  1  0  0
  -28.5944  -30.0256   22.2034 C   0  0  1  0  0  0  0  0  0  0  0  0
  -24.8384  -29.9227   22.7047 C   0  0  2  0  0  0  0  0  0  0  0  0
  -29.5166  -30.7207   23.2445 C   0  0  0  0  0  0  0  0  0  0  0  0
  -26.0497  -11.8204   20.6553 N   0  0  0  0  0  0  0  0  0  0  0  0
  -26.1839  -13.1024   20.2752 N   0  0  0  0  0  0  0  0  0  0  0  0
  -29.3239  -29.3349   19.9419 N   0  0  0  0  0  0  0  0  0  0  0  0
  -29.9816  -13.3621   19.9697 N   0  0  0  0  0  0  0  0  0  0  0  0
  -24.9971  -15.1400   20.0502 N   0  0  0  0  0  0  0  0  0  0  0  0
  -21.8819  -12.2914   21.6556 N   0  0  0  0  0  0  0  0  0  0  0  0
  -30.7024  -14.0965   22.0918 N   0  0  0  0  0  0  0  0  0  0  0  0
  -32.0381  -29.9857   17.5954 N   0  0  0  0  0  0  0  0  0  0  0  0
  -32.7464  -19.3994   22.5936 N   0  0  0  0  0  0  0  0  0  0  0  0
  -27.1771  -30.3334   22.3611 N   0  0  0  0  0  0  0  0  0  0  0  0
  -23.8321  -28.9810   22.1376 N   0  3  0  0  0  0  0  0  0  0  0  0
  -22.2538  -14.4446   20.9600 O   0  0  0  0  0  0  0  0  0  0  0  0
  -31.8779  -29.3536   19.8308 O   0  0  0  0  0  0  0  0  0  0  0  0
  -28.8936  -31.5735   20.4312 O   0  0  0  0  0  0  0  0  0  0  0  0
  -32.0387  -19.0307   20.4136 O   0  0  0  0  0  0  0  0  0  0  0  0
  -26.4705  -28.1424   22.6396 O   0  0  0  0  0  0  0  0  0  0  0  0
  -32.0529  -14.3568   20.2236 O   0  0  0  0  0  0  0  0  0  0  0  0
  -22.6597   -6.9148   22.8894 O   0  0  0  0  0  0  0  0  0  0  0  0
  -29.5424  -23.2335   19.0594 O   0  0  0  0  0  0  0  0  0  1  0  0
  -19.4903   -7.0819   27.3984 F   0  0  0  0  0  0  0  0  0  0  0  0
  -23.3581   -5.5118   25.1667 F   0  0  0  0  0  0  0  0  0  0  0  0
  1  2  1  0  0  0  0
  1  5  2  0  0  0  0
  2  6  2  0  0  0  0
  3  8  2  0  0  0  0
  3 17  1  0  0  0  0
  4  9  1  0  0  0  0
  4 17  2  0  0  0  0
  5 19  1  0  0  0  0
  6 21  1  0  0  0  0
  7 10  2  0  0  0  0
  7 20  1  0  0  0  0
  8 27  1  0  0  0  0
  9 27  2  0  0  0  0
 10 28  1  0  0  0  0
 11 12  2  0  0  0  0
 11 29  1  0  0  0  0
 12 30  1  0  0  0  0
 13 22  2  0  0  0  0
 13 25  1  0  0  0  0
 14 23  1  0  0  0  0
 14 28  2  0  0  0  0
 15 25  2  0  0  0  0
 15 26  1  0  0  0  0
 16 30  2  0  0  0  0
 16 31  1  0  0  0  0
 17 32  1  0  0  0  0
 18 32  1  0  0  0  0
 18 33  2  0  0  0  0
 18 34  1  0  0  0  0
 19 21  2  0  0  0  0
 19 40  1  0  0  0  0
 20 23  2  0  0  0  0
 20 41  1  0  0  0  0
 21 53  1  0  0  0  0
 22 24  1  0  0  0  0
 22 42  1  0  0  0  0
 23 44  1  0  0  0  0
 24 26  2  0  0  0  0
 24 43  1  0  0  0  0
 25 61  1  0  0  0  0
 26 74  1  0  0  0  0
 27 85  1  0  0  0  0
 28 86  1  0  0  0  0
 29 31  2  0  0  0  0
 29 85  1  0  0  0  0
 30 87  1  0  0  0  0
 31 88  1  0  0  0  0
 32 68  2  0  0  0  0
 33 69  1  0  0  0  0
 33 72  1  0  0  0  0
 34 73  1  0  0  0  0
 34 79  2  0  0  0  0
 35 54  1  0  0  0  0
 35 75  1  0  0  0  0
 35 80  2  0  0  0  0
 36 65  1  0  0  0  0
 36 70  1  0  0  0  0
 36 81  2  0  0  0  0
 37 62  1  0  0  0  0
 37 76  1  0  0  0  0
 37 82  2  0  0  0  0
 38 66  1  0  0  0  0
 38 77  1  0  0  0  0
 38 83  2  0  0  0  0
 39 71  1  0  0  0  0
 39 74  1  0  0  0  0
 39 84  2  0  0  0  0
 40 45  1  0  0  0  0
 41 54  1  0  0  0  0
 42 46  1  0  0  0  0
 43 47  1  0  0  0  0
 44 70  1  0  0  0  0
 45 49  1  0  0  0  0
 46 47  1  0  0  0  0
 48 50  1  0  0  0  0
 48 51  1  0  0  0  0
 49 53  1  0  0  0  0
 50 55  1  0  0  0  0
 51 71  1  0  0  0  0
 52 55  1  0  0  0  0
 52 71  1  0  0  0  0
 53 75  1  0  0  0  0
 54 70  1  0  0  0  0
 55 69  1  0  0  0  0
 56 66  1  0  0  0  0
 57 67  1  0  0  0  0
 58 67  1  0  0  0  0
 59 67  1  0  0  0  0
 60 78  1  0  0  0  0
 61 76  1  0  0  0  0
 62 63  1  0  0  0  0
 63 64  1  0  0  0  0
 64 86  1  0  0  0  0
 65 67  1  0  0  0  0
 65 77  1  0  0  0  0
 66 78  1  0  0  0  0
 68 69  1  0  0  0  0
M  CHG  1  78   1
M  ISO  4  39 100  64 101  74 100  86 101
M  END
> <Batch ID>
0005

> <Smiles>
CNC(C)C(=O)NC(C(=O)N1Cc2cc([101O:1][101CH2:1]CCC(=O)NCc3cc4c(c([100NH:0][100C:0](=O)N5CCCC(n6nc(-c7ccc(Oc8ccc(F)cc8F)cc7)c(C(N)=O)c6N)C5)c3)CCCC4)ccc2CC1C(=O)NC1CCCc2ccccc21)C(C)(C)C

> <Shape>
0.237

> <Color>
0.151

> <Negative vol penalty>
0.000

$$$$

  -OEChem-04042320263D

 82 91  0     1  0  0  0  0  0999 V2000
  -24.0042   -9.3424   23.7256 C   0  0  0  0  0  0  0  0  0  0  0  0
  -25.1980   -9.9868   23.4176 C   0  0  0  0  0  0  0  0  0  0  0  0
  -31.4064  -25.3873   17.7265 C   0  0  0  0  0  0  0  0  0  0  0  0
  -21.8309  -28.0215   21.3073 C   0  0  0  0  0  0  0  0  0  0  0  0
  -21.7258  -29.5324   23.1897 C   0  0  0  0  0  0  0  0  0  0  0  0
  -22.7990   -9.8336   23.2256 C   0  0  0  0  0  0  0  0  0  0  0  0
  -25.1874  -11.1223   22.6083 C   0  0  0  0  0  0  0  0  0  0  0  0
  -28.6410  -17.3240   21.6450 C   0  0  0  0  0  0  0  0  0  0  0  0
  -30.9192  -26.3057   18.6611 C   0  0  0  0  0  0  0  0  0  0  0  0
  -30.9982  -24.0460   17.7590 C   0  0  0  0  0  0  0  0  0  0  0  0
  -20.6991  -27.3561   21.7782 C   0  0  0  0  0  0  0  0  0  0  0  0
  -20.5939  -28.8670   23.6605 C   0  0  0  0  0  0  0  0  0  0  0  0
  -29.2676  -18.0635   20.6429 C   0  0  0  0  0  0  0  0  0  0  0  0
  -17.3516  -27.8325   21.7838 C   0  0  0  0  0  0  0  0  0  0  0  0
  -16.3537  -27.5183   20.8613 C   0  0  0  0  0  0  0  0  0  0  0  0
  -27.1179  -18.8679   19.9007 C   0  0  0  0  0  0  0  0  0  0  0  0
  -16.6244  -25.1715   21.3678 C   0  0  0  0  0  0  0  0  0  0  0  0
  -22.3443  -29.1097   22.0131 C   0  0  0  0  0  0  0  0  0  0  0  0
  -23.5502  -30.8957   20.6480 C   0  0  0  0  0  0  0  0  0  0  0  0
  -22.7725  -10.9813   22.4177 C   0  0  0  0  0  0  0  0  0  0  0  0
  -27.2449  -17.3423   21.7759 C   0  0  0  0  0  0  0  0  0  0  0  0
  -23.9808  -11.6285   22.0958 C   0  0  0  0  0  0  0  0  0  0  0  0
  -26.4762  -18.1298   20.9070 C   0  0  0  0  0  0  0  0  0  0  0  0
  -29.6128  -24.5223   19.6459 C   0  0  0  0  0  0  0  0  0  0  0  0
  -30.0201  -25.8573   19.6177 C   0  0  0  0  0  0  0  0  0  0  0  0
  -20.0806  -27.7788   22.9548 C   0  0  0  0  0  0  0  0  0  0  0  0
  -28.5058  -18.8333   19.7687 C   0  0  0  0  0  0  0  0  0  0  0  0
  -30.0965  -23.6038   18.7274 C   0  0  0  0  0  0  0  0  0  0  0  0
  -17.9860  -26.8162   22.4983 C   0  0  0  0  0  0  0  0  0  0  0  0
  -15.9901  -26.1878   20.6533 C   0  0  0  0  0  0  0  0  0  0  0  0
  -17.6223  -25.4858   22.2903 C   0  0  0  0  0  0  0  0  0  0  0  0
  -23.5138  -29.7971   21.5275 C   0  0  0  0  0  0  0  0  0  0  0  0
  -24.8872  -31.1735   20.5008 C   0  0  0  0  0  0  0  0  0  0  0  0
  -22.4718  -31.6020   20.0203 C   0  0  0  0  0  0  0  0  0  0  0  0
  -24.9445  -15.1578   21.5774 C   0  0  0  0  0  0  0  0  0  0  0  0
  -23.0648  -17.6131   22.5574 C   0  0  0  0  0  0  0  0  0  0  0  0
  -22.5866  -20.9847   22.7827 C   0  0  0  0  0  0  0  0  0  0  0  0
  -29.8033  -27.8346   21.1081 C   0  0  0  0  0  0  0  0  0  0  0  0
  -21.4503  -11.4473   21.8616 C   0  0  0  0  0  0  0  0  0  0  0  0
  -26.5863  -16.5601   22.8789 C   0  0  0  0  0  0  0  0  0  0  0  0
  -28.6990  -24.2557   20.7982 C   0  0  0  0  0  0  0  0  0  0  0  0
  -24.9758  -18.1996   21.0180 C   0  0  0  0  0  0  0  0  0  0  0  0
  -21.4866  -12.8735   21.3185 C   0  0  0  0  0  0  0  0  0  0  0  0
  -29.0655  -30.8609   22.7740 C   0  0  0  0  0  0  0  0  0  0  0  0
  -22.7163  -13.0788   20.4395 C   0  0  0  0  0  0  0  0  0  0  0  0
  -27.5584  -31.0255   22.5981 C   0  0  0  0  0  0  0  0  0  0  0  0
  -28.4005  -25.6770   21.2921 C   0  0  0  0  0  0  0  0  0  0  0  0
  -29.4272  -29.3978   22.9903 C   0  0  0  0  0  0  0  0  0  0  0  0
  -27.4674  -28.6585   21.6583 C   0  0  0  0  0  0  0  0  0  0  0  0
  -24.0076  -12.8774   21.2415 C   0  0  1  0  0  0  0  0  0  0  0  0
  -25.1200  -16.2478   22.5966 C   0  0  1  0  0  0  0  0  0  0  0  0
  -27.0451  -30.1289   21.4607 C   0  0  1  0  0  0  0  0  0  0  0  0
  -20.9378  -22.6900   23.6017 C   0  0  0  0  0  0  0  0  0  0  0  0
  -21.2897  -17.0545   20.1393 C   0  0  0  0  0  0  0  0  0  0  0  0
  -20.2531  -19.3098   20.4669 C   0  0  0  0  0  0  0  0  0  0  0  0
  -20.0481  -17.5744   22.2471 C   0  0  0  0  0  0  0  0  0  0  0  0
  -24.5398  -22.1271   24.6903 C   0  0  0  0  0  0  0  0  0  0  0  0
  -30.4334  -20.0305   19.0566 C   0  0  0  0  0  0  0  0  0  1  0  0
  -30.6597  -21.3312   18.3106 C   0  0  0  0  0  0  0  0  0  0  0  0
  -22.2792  -18.7005   21.8649 C   0  0  1  0  0  0  0  0  0  0  0  0
  -22.1699  -21.8674   23.9453 C   0  0  2  0  0  0  0  0  0  0  0  0
  -20.9956  -18.1572   21.1760 C   0  0  0  0  0  0  0  0  0  0  0  0
  -24.7310  -29.4038   21.9119 N   0  0  0  0  0  0  0  0  0  0  0  0
  -25.5448  -30.2598   21.2708 N   0  0  0  0  0  0  0  0  0  0  0  0
  -29.3841  -26.5838   20.6498 N   0  0  0  0  0  0  0  0  0  0  0  0
  -24.3778  -17.4120   22.1088 N   0  0  0  0  0  0  0  0  0  0  0  0
  -28.9072  -28.5450   21.9205 N   0  0  0  0  0  0  0  0  0  0  0  0
  -25.5528  -32.1078   19.7890 N   0  0  0  0  0  0  0  0  0  0  0  0
  -21.1592  -31.1853   20.2804 N   0  0  0  0  0  0  0  0  0  0  0  0
  -24.2842  -14.0419   22.0551 N   0  0  0  0  0  0  0  0  0  0  0  0
  -22.0286  -19.7268   22.8710 N   0  0  0  0  0  0  0  0  0  0  0  0
  -23.2729  -22.8019   24.3074 N   0  3  0  0  0  0  0  0  0  0  0  0
  -22.6673  -32.5634   19.2386 O   0  0  0  0  0  0  0  0  0  0  0  0
  -25.3750  -15.3179   20.4413 O   0  0  0  0  0  0  0  0  0  0  0  0
  -22.5353  -16.9708   23.4677 O   0  0  0  0  0  0  0  0  0  0  0  0
  -23.3296  -21.3733   21.8841 O   0  0  0  0  0  0  0  0  0  0  0  0
  -30.9346  -28.2790   20.8775 O   0  0  0  0  0  0  0  0  0  0  0  0
  -18.9759  -27.1299   23.4144 O   0  0  0  0  0  0  0  0  0  0  0  0
  -29.1190  -19.5605   18.7826 O   0  0  0  0  0  0  0  0  0  1  0  0
  -29.7158  -22.3011   18.7670 O   0  0  0  0  0  0  0  0  0  0  0  0
  -15.0307  -25.8863   19.7685 F   0  0  0  0  0  0  0  0  0  0  0  0
  -18.2273  -24.5052   22.9747 F   0  0  0  0  0  0  0  0  0  0  0  0
  1  2  1  0  0  0  0
  1  6  2  0  0  0  0
  2  7  2  0  0  0  0
  3  9  1  0  0  0  0
  3 10  2  0  0  0  0
  4 11  2  0  0  0  0
  4 18  1  0  0  0  0
  5 12  1  0  0  0  0
  5 18  2  0  0  0  0
  6 20  1  0  0  0  0
  7 22  1  0  0  0  0
  8 13  2  0  0  0  0
  8 21  1  0  0  0  0
  9 25  2  0  0  0  0
 10 28  1  0  0  0  0
 11 26  1  0  0  0  0
 12 26  2  0  0  0  0
 13 27  1  0  0  0  0
 14 15  2  0  0  0  0
 14 29  1  0  0  0  0
 15 30  1  0  0  0  0
 16 23  1  0  0  0  0
 16 27  2  0  0  0  0
 17 30  2  0  0  0  0
 17 31  1  0  0  0  0
 18 32  1  0  0  0  0
 19 32  1  0  0  0  0
 19 33  2  0  0  0  0
 19 34  1  0  0  0  0
 20 22  2  0  0  0  0
 20 39  1  0  0  0  0
 21 23  2  0  0  0  0
 21 40  1  0  0  0  0
 22 50  1  0  0  0  0
 23 42  1  0  0  0  0
 24 25  1  0  0  0  0
 24 28  2  0  0  0  0
 24 41  1  0  0  0  0
 25 65  1  0  0  0  0
 26 78  1  0  0  0  0
 27 79  1  0  0  0  0
 28 80  1  0  0  0  0
 29 31  2  0  0  0  0
 29 78  1  0  0  0  0
 30 81  1  0  0  0  0
 31 82  1  0  0  0  0
 32 63  2  0  0  0  0
 33 64  1  0  0  0  0
 33 68  1  0  0  0  0
 34 69  1  0  0  0  0
 34 73  2  0  0  0  0
 35 51  1  0  0  0  0
 35 70  1  0  0  0  0
 35 74  2  0  0  0  0
 36 60  1  0  0  0  0
 36 66  1  0  0  0  0
 36 75  2  0  0  0  0
 37 61  1  0  0  0  0
 37 71  1  0  0  0  0
 37 76  2  0  0  0  0
 38 65  1  0  0  0  0
 38 67  1  0  0  0  0
 38 77  2  0  0  0  0
 39 43  1  0  0  0  0
 40 51  1  0  0  0  0
 41 47  1  0  0  0  0
 42 66  1  0  0  0  0
 43 45  1  0  0  0  0
 44 46  1  0  0  0  0
 44 48  1  0  0  0  0
 45 50  1  0  0  0  0
 46 52  1  0  0  0  0
 47 65  1  0  0  0  0
 48 67  1  0  0  0  0
 49 52  1  0  0  0  0
 49 67  1  0  0  0  0
 50 70  1  0  0  0  0
 51 66  1  0  0  0  0
 52 64  1  0  0  0  0
 53 61  1  0  0  0  0
 54 62  1  0  0  0  0
 55 62  1  0  0  0  0
 56 62  1  0  0  0  0
 57 72  1  0  0  0  0
 58 59  1  0  0  0  0
 58 79  1  0  0  0  0
 59 80  1  0  0  0  0
 60 62  1  0  0  0  0
 60 71  1  0  0  0  0
 61 72  1  0  0  0  0
 63 64  1  0  0  0  0
M  CHG  1  72   1
M  ISO  4  38 100  58 101  65 100  79 101
M  END
> <Batch ID>
0005

> <Smiles>
CNC(C)C(=O)NC(C(=O)N1Cc2cc([101O:1][101CH2:1]COc3cccc4c3CC[100N:0]4[100C:0](=O)N3CCCC(n4nc(-c5ccc(Oc6ccc(F)cc6F)cc5)c(C(N)=O)c4N)C3)ccc2CC1C(=O)NC1CCCc2ccccc21)C(C)(C)C

> <Shape>
0.253

> <Color>
0.045

> <Negative vol penalty>
0.000

$$$$

  -OEChem-04042320263D

100109  0     1  0  0  0  0  0999 V2000
  -28.1341  -11.5476   19.2127 C   0  0  0  0  0  0  0  0  0  0  0  0
  -22.7429  -31.3119   24.2406 C   0  0  0  0  0  0  0  0  0  0  0  0
  -22.9473  -29.9887   24.6182 C   0  0  0  0  0  0  0  0  0  0  0  0
  -28.1421  -12.0507   20.5136 C   0  0  0  0  0  0  0  0  0  0  0  0
  -28.4422  -12.3839   18.1396 C   0  0  0  0  0  0  0  0  0  0  0  0
  -18.4702  -24.2309   22.5516 C   0  0  0  0  0  0  0  0  0  0  0  0
  -20.7688  -24.1623   21.8106 C   0  0  0  0  0  0  0  0  0  0  0  0
  -23.1171  -31.7379   22.9669 C   0  0  0  0  0  0  0  0  0  0  0  0
  -23.5251  -29.0903   23.7219 C   0  0  0  0  0  0  0  0  0  0  0  0
  -27.7951  -23.3410   23.5518 C   0  0  0  0  0  0  0  0  0  0  0  0
  -28.4580  -13.3900   20.7416 C   0  0  0  0  0  0  0  0  0  0  0  0
  -28.7582  -13.7233   18.3676 C   0  0  0  0  0  0  0  0  0  0  0  0
  -18.4079  -25.5874   22.2330 C   0  0  0  0  0  0  0  0  0  0  0  0
  -20.7065  -25.5189   21.4919 C   0  0  0  0  0  0  0  0  0  0  0  0
  -27.8345  -22.0433   23.0436 C   0  0  0  0  0  0  0  0  0  0  0  0
  -17.7554  -29.1536   21.9497 C   0  0  0  0  0  0  0  0  0  0  0  0
  -17.1611  -30.0119   22.8747 C   0  0  0  0  0  0  0  0  0  0  0  0
  -28.5139  -22.9107   20.8977 C   0  0  0  0  0  0  0  0  0  0  0  0
  -22.7491  -13.8589   22.9119 C   0  0  0  0  0  0  0  0  0  0  0  0
  -24.7050  -15.2642   22.7215 C   0  0  0  0  0  0  0  0  0  0  0  0
  -23.9464  -13.9854   20.8172 C   0  0  0  0  0  0  0  0  0  0  0  0
  -18.8086  -29.3758   24.5234 C   0  0  0  0  0  0  0  0  0  0  0  0
  -19.6507  -23.5183   22.3405 C   0  0  0  0  0  0  0  0  0  0  0  0
  -19.4121  -21.0308   21.8277 C   0  0  0  0  0  0  0  0  0  0  0  0
  -23.7086  -30.8467   22.0578 C   0  0  0  0  0  0  0  0  0  0  0  0
  -28.1047  -24.4360   22.7323 C   0  0  0  0  0  0  0  0  0  0  0  0
  -23.9064  -29.5044   22.4343 C   0  0  0  0  0  0  0  0  0  0  0  0
  -28.4802  -24.2211   21.3985 C   0  0  0  0  0  0  0  0  0  0  0  0
  -28.7661  -14.2263   19.6685 C   0  0  0  0  0  0  0  0  0  0  0  0
  -23.6540  -14.7536   23.4831 C   0  0  0  0  0  0  0  0  0  0  0  0
  -22.8954  -13.4747   21.5789 C   0  0  0  0  0  0  0  0  0  0  0  0
  -24.8513  -14.8802   21.3885 C   0  0  0  0  0  0  0  0  0  0  0  0
  -19.5260  -26.2314   21.7031 C   0  0  0  0  0  0  0  0  0  0  0  0
  -28.1911  -21.8282   21.7156 C   0  0  0  0  0  0  0  0  0  0  0  0
  -18.8762  -28.4062   22.3116 C   0  0  0  0  0  0  0  0  0  0  0  0
  -17.6877  -30.1231   24.1615 C   0  0  0  0  0  0  0  0  0  0  0  0
  -19.4028  -28.5174   23.5984 C   0  0  0  0  0  0  0  0  0  0  0  0
  -19.7158  -22.1171   22.6700 C   0  0  0  0  0  0  0  0  0  0  0  0
  -19.6310  -19.9208   22.6065 C   0  0  0  0  0  0  0  0  0  0  0  0
  -18.9716  -21.0255   20.4633 C   0  0  0  0  0  0  0  0  0  0  0  0
  -26.5158  -26.9913   21.7079 C   0  0  0  0  0  0  0  0  0  0  0  0
  -29.4075  -27.8197   20.4937 C   0  0  0  0  0  0  0  0  0  0  0  0
  -26.9135  -16.2778   21.0257 C   0  0  0  0  0  0  0  0  0  0  0  0
  -32.4835  -26.8248   19.4006 C   0  0  0  0  0  0  0  0  0  0  0  0
  -22.7343  -17.0873   26.2788 C   0  0  0  0  0  0  0  0  0  0  0  0
  -24.0532  -31.3418   20.6755 C   0  0  0  0  0  0  0  0  0  0  0  0
  -28.0834  -25.8275   23.3029 C   0  0  0  0  0  0  0  0  0  0  0  0
  -28.8414  -25.3611   20.4828 C   0  0  0  0  0  0  0  0  0  0  0  0
  -25.0025  -30.4181   19.9167 C   0  0  0  0  0  0  0  0  0  0  0  0
  -20.4605  -19.4992   27.5785 C   0  0  0  0  0  0  0  0  0  0  0  0
  -24.5455  -28.9678   20.0365 C   0  0  0  0  0  0  0  0  0  0  0  0
  -20.0443  -20.3090   26.3494 C   0  0  0  0  0  0  0  0  0  0  0  0
  -21.9275  -19.0807   27.5083 C   0  0  0  0  0  0  0  0  0  0  0  0
  -21.8935  -19.1776   25.0460 C   0  0  0  0  0  0  0  0  0  0  0  0
  -24.5530  -28.5060   21.4988 C   0  0  1  0  0  0  0  0  0  0  0  0
  -27.9192  -26.9075   22.2380 C   0  0  1  0  0  0  0  0  0  0  0  0
  -20.4074  -19.5747   25.0447 C   0  0  2  0  0  0  0  0  0  0  0  0
  -34.6162  -27.7254   18.4321 C   0  0  0  0  0  0  0  0  0  0  0  0
  -28.0377  -28.1461   17.7869 C   0  0  0  0  0  0  0  0  0  0  0  0
  -30.2998  -28.1028   16.7151 C   0  0  0  0  0  0  0  0  0  0  0  0
  -29.7192  -29.9172   18.3254 C   0  0  0  0  0  0  0  0  0  0  0  0
  -34.0741  -25.8521   21.6990 C   0  0  0  0  0  0  0  0  0  0  0  0
  -24.2037   -7.5001   19.0069 C   0  0  0  0  0  0  0  0  0  0  0  0
  -21.7244   -7.3578   18.8230 C   0  0  0  0  0  0  0  0  0  0  0  0
  -29.1080  -15.6765   19.9146 C   0  0  0  0  0  0  0  0  0  0  0  0
  -23.4976  -15.1641   24.9084 C   0  0  0  0  0  0  0  0  0  0  0  0
  -21.9278  -12.5181   20.9682 C   0  0  0  0  0  0  0  0  0  0  0  0
  -21.4266   -8.7364   21.3491 C   0  0  0  0  0  0  0  0  0  0  0  0
  -21.1409  -10.1503   20.8543 C   0  0  0  0  0  0  0  0  0  0  0  0
  -22.7724   -8.1474   20.9394 C   0  0  0  0  0  0  0  0  0  0  0  0
  -27.3733  -19.0212   19.5820 C   0  0  0  0  0  0  0  0  0  0  0  0
  -27.9462  -20.4031   19.8275 C   0  0  0  0  0  0  0  0  0  1  0  0
  -30.1289  -27.5770   19.1900 C   0  0  1  0  0  0  0  0  0  0  0  0
  -27.8799  -16.5946   19.8880 C   0  0  2  0  0  0  0  0  0  0  0  0
  -33.8772  -27.3437   19.7053 C   0  0  2  0  0  0  0  0  0  0  0  0
  -29.5378  -28.4142   18.0208 C   0  0  0  0  0  0  0  0  0  0  0  0
  -20.0983  -21.7322   23.8904 N   0  0  0  0  0  0  0  0  0  0  0  0
  -20.0363  -20.3915   23.8208 N   0  0  0  0  0  0  0  0  0  0  0  0
  -28.7995  -26.7036   21.0857 N   0  0  0  0  0  0  0  0  0  0  0  0
  -22.2055  -18.3882   26.2477 N   0  0  0  0  0  0  0  0  0  0  0  0
  -19.5142  -18.5979   22.3644 N   0  0  0  0  0  0  0  0  0  0  0  0
  -18.7977  -22.2546   19.8126 N   0  0  0  0  0  0  0  0  0  0  0  0
  -25.9171  -15.3981   20.6160 N   0  0  0  0  0  0  0  0  0  0  0  0
  -25.9029  -28.2099   21.9284 N   0  0  0  0  0  0  0  0  0  0  0  0
  -31.5416  -27.8304   19.4519 N   0  0  0  0  0  0  0  0  0  0  0  0
  -22.9623  -16.5009   25.0399 N   0  0  0  0  0  0  0  0  0  0  0  0
  -34.6730  -26.3038   20.4168 N   0  3  0  0  0  0  0  0  0  0  0  0
  -22.1312  -11.1102   21.4079 N   0  3  0  0  0  0  0  0  0  0  0  0
  -28.3534  -17.9983   20.0262 N   0  3  0  0  0  0  0  0  0  0  0  0
  -22.8860   -8.0789   19.4639 N   0  3  0  0  0  0  0  0  0  0  0  0
  -18.7233  -19.9628   19.8448 O   0  0  0  0  0  0  0  0  0  0  0  0
  -26.0259  -26.0225   21.1394 O   0  0  0  0  0  0  0  0  0  0  0  0
  -29.3904  -28.9562   20.9729 O   0  0  0  0  0  0  0  0  0  0  0  0
  -27.0678  -16.7585   22.1450 O   0  0  0  0  0  0  0  0  0  0  0  0
  -32.2540  -25.6460   19.1392 O   0  0  0  0  0  0  0  0  0  0  0  0
  -22.9797  -16.4904   27.3326 O   0  0  0  0  0  0  0  0  0  0  0  0
  -19.4655  -27.5550   21.3919 O   0  0  0  0  0  0  0  0  0  0  0  0
  -28.2298  -20.5626   21.2169 O   0  0  0  0  0  0  0  0  0  1  0  0
  -17.1179  -30.9486   25.0492 F   0  0  0  0  0  0  0  0  0  0  0  0
  -20.4801  -27.8029   23.9515 F   0  0  0  0  0  0  0  0  0  0  0  0
  1  4  1  0  0  0  0
  1  5  2  0  0  0  0
  2  3  1  0  0  0  0
  2  8  2  0  0  0  0
  3  9  2  0  0  0  0
  4 11  2  0  0  0  0
  5 12  1  0  0  0  0
  6 13  2  0  0  0  0
  6 23  1  0  0  0  0
  7 14  1  0  0  0  0
  7 23  2  0  0  0  0
  8 25  1  0  0  0  0
  9 27  1  0  0  0  0
 10 15  2  0  0  0  0
 10 26  1  0  0  0  0
 11 29  1  0  0  0  0
 12 29  2  0  0  0  0
 13 33  1  0  0  0  0
 14 33  2  0  0  0  0
 15 34  1  0  0  0  0
 16 17  2  0  0  0  0
 16 35  1  0  0  0  0
 17 36  1  0  0  0  0
 18 28  1  0  0  0  0
 18 34  2  0  0  0  0
 19 30  2  0  0  0  0
 19 31  1  0  0  0  0
 20 30  1  0  0  0  0
 20 32  2  0  0  0  0
 21 31  2  0  0  0  0
 21 32  1  0  0  0  0
 22 36  2  0  0  0  0
 22 37  1  0  0  0  0
 23 38  1  0  0  0  0
 24 38  1  0  0  0  0
 24 39  2  0  0  0  0
 24 40  1  0  0  0  0
 25 27  2  0  0  0  0
 25 46  1  0  0  0  0
 26 28  2  0  0  0  0
 26 47  1  0  0  0  0
 27 55  1  0  0  0  0
 28 48  1  0  0  0  0
 29 65  1  0  0  0  0
 30 66  1  0  0  0  0
 31 67  1  0  0  0  0
 32 83  1  0  0  0  0
 33 97  1  0  0  0  0
 34 98  1  0  0  0  0
 35 37  2  0  0  0  0
 35 97  1  0  0  0  0
 36 99  1  0  0  0  0
 37100  1  0  0  0  0
 38 77  2  0  0  0  0
 39 78  1  0  0  0  0
 39 81  1  0  0  0  0
 40 82  1  0  0  0  0
 40 91  2  0  0  0  0
 41 56  1  0  0  0  0
 41 84  1  0  0  0  0
 41 92  2  0  0  0  0
 42 73  1  0  0  0  0
 42 79  1  0  0  0  0
 42 93  2  0  0  0  0
 43 74  1  0  0  0  0
 43 83  1  0  0  0  0
 43 94  2  0  0  0  0
 44 75  1  0  0  0  0
 44 85  1  0  0  0  0
 44 95  2  0  0  0  0
 45 80  1  0  0  0  0
 45 86  1  0  0  0  0
 45 96  2  0  0  0  0
 46 49  1  0  0  0  0
 47 56  1  0  0  0  0
 48 79  1  0  0  0  0
 49 51  1  0  0  0  0
 50 52  1  0  0  0  0
 50 53  1  0  0  0  0
 51 55  1  0  0  0  0
 52 57  1  0  0  0  0
 53 80  1  0  0  0  0
 54 57  1  0  0  0  0
 54 80  1  0  0  0  0
 55 84  1  0  0  0  0
 56 79  1  0  0  0  0
 57 78  1  0  0  0  0
 58 75  1  0  0  0  0
 59 76  1  0  0  0  0
 60 76  1  0  0  0  0
 61 76  1  0  0  0  0
 62 87  1  0  0  0  0
 63 90  1  0  0  0  0
 64 90  1  0  0  0  0
 65 74  1  0  0  0  0
 66 86  1  0  0  0  0
 67 88  1  0  0  0  0
 68 69  1  0  0  0  0
 68 70  1  0  0  0  0
 69 88  1  0  0  0  0
 70 90  1  0  0  0  0
 71 72  1  0  0  0  0
 71 89  1  0  0  0  0
 72 98  1  0  0  0  0
 73 76  1  0  0  0  0
 73 85  1  0  0  0  0
 74 89  1  0  0  0  0
 75 87  1  0  0  0  0
 77 78  1  0  0  0  0
M  CHG  4  87   1  88   1  89   1  90   1
M  ISO  4  45 100  72 101  86 100  98 101
M  END
> <Batch ID>
0005

> <Smiles>
CNC(C)C(=O)NC(C(=O)N1Cc2cc([101O:1][101CH2:1]CNC(Cc3ccccc3)C(=O)Nc3cc(CNCCCN(C)C)cc(C[100NH:0][100C:0](=O)N4CCCC(n5nc(-c6ccc(Oc7ccc(F)cc7F)cc6)c(C(N)=O)c5N)C4)c3)ccc2CC1C(=O)NC1CCCc2ccccc21)C(C)(C)C

> <Shape>
0.257

> <Color>
0.052

> <Negative vol penalty>
0.000

$$$$

  -OEChem-04042320263D

 87 96  0     1  0  0  0  0  0999 V2000
  -32.2050  -13.9605   21.1720 C   0  0  0  0  0  0  0  0  0  0  0  0
  -31.3255  -14.8882   21.7209 C   0  0  0  0  0  0  0  0  0  0  0  0
  -23.8226  -29.0631   23.3156 C   0  0  0  0  0  0  0  0  0  0  0  0
  -22.6275  -30.0331   21.4534 C   0  0  0  0  0  0  0  0  0  0  0  0
  -31.7481  -13.0431   20.2267 C   0  0  0  0  0  0  0  0  0  0  0  0
  -29.9888  -14.8997   21.3241 C   0  0  0  0  0  0  0  0  0  0  0  0
  -26.8042  -15.3382   25.2370 C   0  0  0  0  0  0  0  0  0  0  0  0
  -22.6914  -29.2102   24.1183 C   0  0  0  0  0  0  0  0  0  0  0  0
  -21.4962  -30.1802   22.2560 C   0  0  0  0  0  0  0  0  0  0  0  0
  -26.6440  -16.6087   25.7883 C   0  0  0  0  0  0  0  0  0  0  0  0
  -18.9977  -28.2242   23.4188 C   0  0  0  0  0  0  0  0  0  0  0  0
  -17.7682  -27.8473   22.8786 C   0  0  0  0  0  0  0  0  0  0  0  0
  -24.5852  -16.8756   24.5597 C   0  0  0  0  0  0  0  0  0  0  0  0
  -16.9483  -30.1009   23.1724 C   0  0  0  0  0  0  0  0  0  0  0  0
  -23.7907  -29.4746   21.9832 C   0  0  0  0  0  0  0  0  0  0  0  0
  -26.2294  -29.8933   21.3625 C   0  0  0  0  0  0  0  0  0  0  0  0
  -30.4030  -13.0371   19.8252 C   0  0  0  0  0  0  0  0  0  0  0  0
  -25.8602  -14.8303   24.3330 C   0  0  0  0  0  0  0  0  0  0  0  0
  -29.5138  -13.9823   20.3715 C   0  0  0  0  0  0  0  0  0  0  0  0
  -24.7345  -15.5973   24.0003 C   0  0  0  0  0  0  0  0  0  0  0  0
  -21.5282  -29.7688   23.5885 C   0  0  0  0  0  0  0  0  0  0  0  0
  -25.5359  -17.3788   25.4474 C   0  0  0  0  0  0  0  0  0  0  0  0
  -19.2026  -29.5394   23.8359 C   0  0  0  0  0  0  0  0  0  0  0  0
  -16.7436  -28.7856   22.7553 C   0  0  0  0  0  0  0  0  0  0  0  0
  -18.1779  -30.4778   23.7127 C   0  0  0  0  0  0  0  0  0  0  0  0
  -24.9591  -29.3235   21.1537 C   0  0  0  0  0  0  0  0  0  0  0  0
  -26.9831  -29.4493   20.3036 C   0  0  0  0  0  0  0  0  0  0  0  0
  -26.6871  -30.7475   22.4191 C   0  0  0  0  0  0  0  0  0  0  0  0
  -25.9359  -13.9100   21.2914 C   0  0  0  0  0  0  0  0  0  0  0  0
  -22.8851  -12.9907   21.8994 C   0  0  0  0  0  0  0  0  0  0  0  0
  -20.0379  -14.3201   23.6724 C   0  0  0  0  0  0  0  0  0  0  0  0
  -27.7975  -24.9559   16.9417 C   0  0  0  0  0  0  0  0  0  0  0  0
  -29.9661  -12.0571   18.7653 C   0  0  0  0  0  0  0  0  0  0  0  0
  -26.0337  -13.4473   23.7678 C   0  0  0  0  0  0  0  0  0  0  0  0
  -23.6817  -15.0898   23.0502 C   0  0  0  0  0  0  0  0  0  0  0  0
  -28.4512  -11.8917   18.6759 C   0  0  0  0  0  0  0  0  0  0  0  0
  -25.9897  -27.6749   15.8047 C   0  0  0  0  0  0  0  0  0  0  0  0
  -29.8513  -19.0534   23.1040 C   0  0  0  0  0  0  0  0  0  0  0  0
  -27.7643  -13.2536   18.6822 C   0  0  0  0  0  0  0  0  0  0  0  0
  -25.6572  -28.4486   17.0803 C   0  0  0  0  0  0  0  0  0  0  0  0
  -28.6506  -19.3726   23.9709 C   0  0  0  0  0  0  0  0  0  0  0  0
  -29.8913  -23.4614   19.6080 C   0  0  0  0  0  0  0  0  0  0  0  0
  -27.4913  -22.7906   19.9807 C   0  0  0  0  0  0  0  0  0  0  0  0
  -25.8458  -26.1731   16.0238 C   0  0  0  0  0  0  0  0  0  0  0  0
  -29.5699  -23.7262   18.1398 C   0  0  0  0  0  0  0  0  0  0  0  0
  -27.2166  -23.0625   18.5053 C   0  0  0  0  0  0  0  0  0  0  0  0
  -26.3524  -26.4099   18.4328 C   0  0  0  0  0  0  0  0  0  0  0  0
  -29.5127  -19.7028   21.7758 C   0  0  0  0  0  0  0  0  0  0  0  0
  -28.0510  -14.0101   19.9848 C   0  0  1  0  0  0  0  0  0  0  0  0
  -25.2754  -13.2364   22.4609 C   0  0  1  0  0  0  0  0  0  0  0  0
  -28.9583  -22.4035   20.2114 C   0  0  0  0  0  0  0  0  0  0  0  0
  -26.4894  -27.9371   18.2696 C   0  0  2  0  0  0  0  0  0  0  0  0
  -28.3737  -20.8301   23.6320 C   0  0  2  0  0  0  0  0  0  0  0  0
  -18.1038  -13.1509   24.7632 C   0  0  0  0  0  0  0  0  0  0  0  0
  -21.4753  -13.4553   19.2336 C   0  0  0  0  0  0  0  0  0  0  0  0
  -19.3701  -13.9188   20.5071 C   0  0  0  0  0  0  0  0  0  0  0  0
  -20.4498  -11.6752   20.6597 C   0  0  0  0  0  0  0  0  0  0  0  0
  -27.1907  -22.1930   26.1228 C   0  0  0  0  0  0  0  0  0  0  0  0
  -20.5517  -15.6444   26.2688 C   0  0  0  0  0  0  0  0  0  0  0  0
  -29.2423  -22.2127   21.6994 C   0  0  0  0  0  0  0  0  0  0  0  0
  -26.9478  -21.2615   23.9215 C   0  0  0  0  0  0  0  0  0  0  0  0
  -25.2022  -20.9736   25.5472 C   0  0  0  0  0  0  0  0  0  0  0  0
  -24.6884  -19.5863   25.1938 C   0  0  0  0  0  0  0  0  0  1  0  0
  -21.5309  -13.6515   21.8074 C   0  0  1  0  0  0  0  0  0  0  0  0
  -19.4594  -13.8058   24.9783 C   0  0  2  0  0  0  0  0  0  0  0  0
  -20.7301  -13.1903   20.5570 C   0  0  0  0  0  0  0  0  0  0  0  0
  -24.9051  -28.5748   20.0489 N   0  0  0  0  0  0  0  0  0  0  0  0
  -26.1508  -28.6711   19.5540 N   0  0  0  0  0  0  0  0  0  0  0  0
  -23.8995  -13.7341   22.5191 N   0  0  0  0  0  0  0  0  0  0  0  0
  -26.6472  -25.7278   17.1637 N   0  0  0  0  0  0  0  0  0  0  0  0
  -28.1558  -24.0466   17.9508 N   0  0  0  0  0  0  0  0  0  0  0  0
  -28.2699  -29.6526   19.9499 N   0  0  0  0  0  0  0  0  0  0  0  0
  -26.5642  -32.1343   22.2578 N   0  0  0  0  0  0  0  0  0  0  0  0
  -27.2327  -13.4925   21.0605 N   0  0  0  0  0  0  0  0  0  0  0  0
  -20.8611  -13.3882   23.0764 N   0  0  0  0  0  0  0  0  0  0  0  0
  -26.6532  -21.0877   25.3073 N   0  0  2  0  0  0  0  0  0  0  0  0
  -28.6560  -20.9053   22.1370 N   0  3  1  0  0  0  0  0  0  0  0  0
  -19.2919  -14.9257   25.9472 N   0  3  0  0  0  0  0  0  0  0  0  0
  -27.2051  -30.2949   23.4681 O   0  0  0  0  0  0  0  0  0  0  0  0
  -25.3144  -14.7456   20.6455 O   0  0  0  0  0  0  0  0  0  0  0  0
  -23.0354  -11.8539   21.4447 O   0  0  0  0  0  0  0  0  0  0  0  0
  -19.7819  -15.4354   23.2239 O   0  0  0  0  0  0  0  0  0  0  0  0
  -28.4680  -25.0729   15.9084 O   0  0  0  0  0  0  0  0  0  0  0  0
  -20.4240  -29.9122   24.3714 O   0  0  0  0  0  0  0  0  0  0  0  0
  -25.3762  -18.6284   25.9874 O   0  0  0  0  0  0  0  0  0  1  0  0
  -15.5634  -28.4239   22.2351 F   0  0  0  0  0  0  0  0  0  0  0  0
  -18.3691  -31.7430   24.1105 F   0  0  0  0  0  0  0  0  0  0  0  0
  1  2  1  0  0  0  0
  1  5  2  0  0  0  0
  2  6  2  0  0  0  0
  3  8  2  0  0  0  0
  3 15  1  0  0  0  0
  4  9  1  0  0  0  0
  4 15  2  0  0  0  0
  5 17  1  0  0  0  0
  6 19  1  0  0  0  0
  7 10  2  0  0  0  0
  7 18  1  0  0  0  0
  8 21  1  0  0  0  0
  9 21  2  0  0  0  0
 10 22  1  0  0  0  0
 11 12  2  0  0  0  0
 11 23  1  0  0  0  0
 12 24  1  0  0  0  0
 13 20  1  0  0  0  0
 13 22  2  0  0  0  0
 14 24  2  0  0  0  0
 14 25  1  0  0  0  0
 15 26  1  0  0  0  0
 16 26  1  0  0  0  0
 16 27  2  0  0  0  0
 16 28  1  0  0  0  0
 17 19  2  0  0  0  0
 17 33  1  0  0  0  0
 18 20  2  0  0  0  0
 18 34  1  0  0  0  0
 19 49  1  0  0  0  0
 20 35  1  0  0  0  0
 21 84  1  0  0  0  0
 22 85  1  0  0  0  0
 23 25  2  0  0  0  0
 23 84  1  0  0  0  0
 24 86  1  0  0  0  0
 25 87  1  0  0  0  0
 26 67  2  0  0  0  0
 27 68  1  0  0  0  0
 27 72  1  0  0  0  0
 28 73  1  0  0  0  0
 28 79  2  0  0  0  0
 29 50  1  0  0  0  0
 29 74  1  0  0  0  0
 29 80  2  0  0  0  0
 30 64  1  0  0  0  0
 30 69  1  0  0  0  0
 30 81  2  0  0  0  0
 31 65  1  0  0  0  0
 31 75  1  0  0  0  0
 31 82  2  0  0  0  0
 32 70  1  0  0  0  0
 32 71  1  0  0  0  0
 32 83  2  0  0  0  0
 33 36  1  0  0  0  0
 34 50  1  0  0  0  0
 35 69  1  0  0  0  0
 36 39  1  0  0  0  0
 37 40  1  0  0  0  0
 37 44  1  0  0  0  0
 38 41  1  0  0  0  0
 38 48  1  0  0  0  0
 39 49  1  0  0  0  0
 40 52  1  0  0  0  0
 41 53  1  0  0  0  0
 42 45  1  0  0  0  0
 42 51  1  0  0  0  0
 43 46  1  0  0  0  0
 43 51  1  0  0  0  0
 44 70  1  0  0  0  0
 45 71  1  0  0  0  0
 46 71  1  0  0  0  0
 47 52  1  0  0  0  0
 47 70  1  0  0  0  0
 48 77  1  0  0  0  0
 49 74  1  0  0  0  0
 50 69  1  0  0  0  0
 51 60  1  0  0  0  0
 52 68  1  0  0  0  0
 53 61  1  0  0  0  0
 53 77  1  0  0  0  0
 54 65  1  0  0  0  0
 55 66  1  0  0  0  0
 56 66  1  0  0  0  0
 57 66  1  0  0  0  0
 58 76  1  0  0  0  0
 59 78  1  0  0  0  0
 60 77  1  0  0  0  0
 61 76  1  0  0  0  0
 62 63  1  0  0  0  0
 62 76  1  0  0  0  0
 63 85  1  0  0  0  0
 64 66  1  0  0  0  0
 64 75  1  0  0  0  0
 65 78  1  0  0  0  0
 67 68  1  0  0  0  0
M  CHG  2  77   1  78   1
M  ISO  4  32 100  63 101  71 100  85 101
M  END
> <Batch ID>
0005

> <Smiles>
CNC(C)C(=O)NC(C(=O)N1Cc2cc([101O:1][101CH2:1]CN(C)CC3CCCN3CC3CC[100N:0]([100C:0](=O)N4CCCC(n5nc(-c6ccc(Oc7ccc(F)cc7F)cc6)c(C(N)=O)c5N)C4)CC3)ccc2CC1C(=O)NC1CCCc2ccccc21)C(C)(C)C

> <Shape>
0.262

> <Color>
0.057

> <Negative vol penalty>
0.000

$$$$

  -OEChem-04042320263D

 94103  0     1  0  0  0  0  0999 V2000
  -17.0956  -28.6983   24.2148 C   0  0  0  0  0  0  0  0  0  0  0  0
  -17.9006  -27.8754   23.4337 C   0  0  0  0  0  0  0  0  0  0  0  0
  -24.8175  -16.4445   22.8306 C   0  0  0  0  0  0  0  0  0  0  0  0
  -25.7603  -16.2340   20.6161 C   0  0  0  0  0  0  0  0  0  0  0  0
  -17.3543  -30.0668   24.2791 C   0  0  0  0  0  0  0  0  0  0  0  0
  -18.9641  -28.4207   22.7154 C   0  0  0  0  0  0  0  0  0  0  0  0
  -24.4516  -25.7668   21.6019 C   0  0  0  0  0  0  0  0  0  0  0  0
  -31.6501  -24.5460   16.4141 C   0  0  0  0  0  0  0  0  0  0  0  0
  -31.1715  -24.8479   15.1392 C   0  0  0  0  0  0  0  0  0  0  0  0
  -23.6604  -15.7955   22.3997 C   0  0  0  0  0  0  0  0  0  0  0  0
  -24.6032  -15.5849   20.1852 C   0  0  0  0  0  0  0  0  0  0  0  0
  -24.9803  -25.0849   20.5068 C   0  0  0  0  0  0  0  0  0  0  0  0
  -21.4666  -16.4392   19.2565 C   0  0  0  0  0  0  0  0  0  0  0  0
  -20.9199  -16.8320   18.0349 C   0  0  0  0  0  0  0  0  0  0  0  0
  -25.9557  -27.1402   19.7054 C   0  0  0  0  0  0  0  0  0  0  0  0
  -32.0566  -22.2672   15.7221 C   0  0  0  0  0  0  0  0  0  0  0  0
  -21.2052  -14.5883   17.1856 C   0  0  0  0  0  0  0  0  0  0  0  0
  -25.8674  -16.6638   21.9388 C   0  0  0  0  0  0  0  0  0  0  0  0
  -27.9376  -16.9237   23.4066 C   0  0  0  0  0  0  0  0  0  0  0  0
  -18.4274  -30.6278   23.5688 C   0  0  0  0  0  0  0  0  0  0  0  0
  -24.6625  -27.1451   21.7522 C   0  0  0  0  0  0  0  0  0  0  0  0
  -19.2366  -29.7983   22.7691 C   0  0  0  0  0  0  0  0  0  0  0  0
  -25.4327  -27.8363   20.8058 C   0  0  0  0  0  0  0  0  0  0  0  0
  -32.0927  -23.2557   16.7056 C   0  0  0  0  0  0  0  0  0  0  0  0
  -31.1354  -23.8594   14.1557 C   0  0  0  0  0  0  0  0  0  0  0  0
  -31.5780  -22.5690   14.4471 C   0  0  0  0  0  0  0  0  0  0  0  0
  -23.5533  -15.3657   21.0771 C   0  0  0  0  0  0  0  0  0  0  0  0
  -25.7305  -25.7720   19.5572 C   0  0  0  0  0  0  0  0  0  0  0  0
  -21.8827  -15.1209   19.4427 C   0  0  0  0  0  0  0  0  0  0  0  0
  -20.7891  -15.9066   16.9994 C   0  0  0  0  0  0  0  0  0  0  0  0
  -21.7519  -14.1954   18.4073 C   0  0  0  0  0  0  0  0  0  0  0  0
  -27.0626  -17.3346   22.3831 C   0  0  0  0  0  0  0  0  0  0  0  0
  -28.9089  -17.8943   23.4382 C   0  0  0  0  0  0  0  0  0  0  0  0
  -27.8777  -15.7680   24.2530 C   0  0  0  0  0  0  0  0  0  0  0  0
  -22.8325  -29.7659   21.9199 C   0  0  0  0  0  0  0  0  0  0  0  0
  -29.6549  -19.9590   13.9121 C   0  0  0  0  0  0  0  0  0  0  0  0
  -26.8794  -19.6226   15.6613 C   0  0  0  0  0  0  0  0  0  0  0  0
  -25.7870  -31.1560   22.5457 C   0  0  0  0  0  0  0  0  0  0  0  0
  -24.1821  -33.9911   23.5587 C   0  0  0  0  0  0  0  0  0  0  0  0
  -30.9160  -21.5868   19.2918 C   0  0  0  0  0  0  0  0  0  0  0  0
  -18.6389  -32.1197   23.6319 C   0  0  0  0  0  0  0  0  0  0  0  0
  -24.1088  -27.8564   22.9572 C   0  0  0  0  0  0  0  0  0  0  0  0
  -25.6906  -29.3142   20.9238 C   0  0  0  0  0  0  0  0  0  0  0  0
  -20.0137  -32.5615   23.1370 C   0  0  0  0  0  0  0  0  0  0  0  0
  -28.2806  -17.2233   13.2383 C   0  0  0  0  0  0  0  0  0  0  0  0
  -29.5898  -22.5421   22.5207 C   0  0  0  0  0  0  0  0  0  0  0  0
  -20.3543  -31.8709   21.8202 C   0  0  0  0  0  0  0  0  0  0  0  0
  -28.3251  -18.5196   12.4337 C   0  0  0  0  0  0  0  0  0  0  0  0
  -28.8706  -21.2605   22.9454 C   0  0  0  0  0  0  0  0  0  0  0  0
  -27.3187  -17.5533   14.3675 C   0  0  0  0  0  0  0  0  0  0  0  0
  -29.4454  -22.7861   21.0215 C   0  0  0  0  0  0  0  0  0  0  0  0
  -29.1873  -20.3737   20.5889 C   0  0  0  0  0  0  0  0  0  0  0  0
  -20.4147  -30.3487   21.9951 C   0  0  1  0  0  0  0  0  0  0  0  0
  -24.0011  -29.3692   22.7768 C   0  0  1  0  0  0  0  0  0  0  0  0
  -28.2374  -19.6048   13.5037 C   0  0  1  0  0  0  0  0  0  0  0  0
  -29.3151  -20.0590   22.0905 C   0  0  2  0  0  0  0  0  0  0  0  0
  -30.6178  -24.2059   12.7983 C   0  0  0  0  0  0  0  0  0  0  0  0
  -24.6020  -36.2036   24.6660 C   0  0  0  0  0  0  0  0  0  0  0  0
  -26.0100  -29.7576   25.2476 C   0  0  0  0  0  0  0  0  0  0  0  0
  -25.4719  -31.9433   26.3438 C   0  0  0  0  0  0  0  0  0  0  0  0
  -27.5344  -31.7190   24.9588 C   0  0  0  0  0  0  0  0  0  0  0  0
  -23.2423  -35.4885   21.1852 C   0  0  0  0  0  0  0  0  0  0  0  0
  -32.6038  -22.9332   18.0689 C   0  0  0  0  0  0  0  0  0  0  0  0
  -31.5483  -21.4888   13.4049 C   0  0  0  0  0  0  0  0  0  0  0  0
  -27.1220  -21.1071   15.7649 C   0  0  0  0  0  0  0  0  0  0  0  0
  -26.4052  -21.6607   16.9904 C   0  0  0  0  0  0  0  0  0  0  0  0
  -26.6610  -23.1563   17.1552 C   0  0  0  0  0  0  0  0  0  0  0  0
  -25.9834  -23.7091   18.4011 C   0  0  0  0  0  0  0  0  0  1  0  0
  -25.2778  -31.7808   23.8205 C   0  0  1  0  0  0  0  0  0  0  0  0
  -24.4993  -35.4600   23.3434 C   0  0  2  0  0  0  0  0  0  0  0  0
  -26.0558  -31.2888   25.0735 C   0  0  0  0  0  0  0  0  0  0  0  0
  -27.4443  -18.4773   21.8064 N   0  0  0  0  0  0  0  0  0  0  0  0
  -28.5697  -18.7928   22.4697 N   0  0  0  0  0  0  0  0  0  0  0  0
  -25.2021  -29.9439   22.1575 N   0  0  0  0  0  0  0  0  0  0  0  0
  -27.4756  -18.9846   14.5869 N   0  0  0  0  0  0  0  0  0  0  0  0
  -29.9028  -21.6123   20.2646 N   0  0  0  0  0  0  0  0  0  0  0  0
  -30.0114  -18.0584   24.1997 N   0  0  0  0  0  0  0  0  0  0  0  0
  -28.5121  -14.5935   23.8258 N   0  0  0  0  0  0  0  0  0  0  0  0
  -21.6594  -29.9611   22.6236 N   0  0  0  0  0  0  0  0  0  0  0  0
  -30.2102  -20.9909   13.1799 N   0  0  0  0  0  0  0  0  0  0  0  0
  -25.3268  -33.2244   23.6155 N   0  0  0  0  0  0  0  0  0  0  0  0
  -31.5392  -22.8027   19.0387 N   0  0  0  0  0  0  0  0  0  0  0  0
  -23.4353  -36.1048   22.5231 N   0  3  0  0  0  0  0  0  0  0  0  0
  -27.2654  -15.7717   25.3478 O   0  0  0  0  0  0  0  0  0  0  0  0
  -22.9842  -29.8876   20.7099 O   0  0  0  0  0  0  0  0  0  0  0  0
  -30.1939  -19.3402   14.8222 O   0  0  0  0  0  0  0  0  0  0  0  0
  -26.1836  -19.0479   16.5011 O   0  0  0  0  0  0  0  0  0  0  0  0
  -26.6839  -31.7211   21.9136 O   0  0  0  0  0  0  0  0  0  0  0  0
  -23.0340  -33.5669   23.6695 O   0  0  0  0  0  0  0  0  0  0  0  0
  -31.2449  -20.5552   18.6963 O   0  0  0  0  0  0  0  0  0  0  0  0
  -22.4245  -14.7322   20.6563 O   0  0  0  0  0  0  0  0  0  0  0  0
  -26.2481  -25.1086   18.4876 O   0  0  0  0  0  0  0  0  0  1  0  0
  -20.2627  -16.2836   15.8269 F   0  0  0  0  0  0  0  0  0  0  0  0
  -22.1488  -12.9272   18.5806 F   0  0  0  0  0  0  0  0  0  0  0  0
  1  2  1  0  0  0  0
  1  5  2  0  0  0  0
  2  6  2  0  0  0  0
  3 10  2  0  0  0  0
  3 18  1  0  0  0  0
  4 11  1  0  0  0  0
  4 18  2  0  0  0  0
  5 20  1  0  0  0  0
  6 22  1  0  0  0  0
  7 12  2  0  0  0  0
  7 21  1  0  0  0  0
  8  9  2  0  0  0  0
  8 24  1  0  0  0  0
  9 25  1  0  0  0  0
 10 27  1  0  0  0  0
 11 27  2  0  0  0  0
 12 28  1  0  0  0  0
 13 14  2  0  0  0  0
 13 29  1  0  0  0  0
 14 30  1  0  0  0  0
 15 23  1  0  0  0  0
 15 28  2  0  0  0  0
 16 24  2  0  0  0  0
 16 26  1  0  0  0  0
 17 30  2  0  0  0  0
 17 31  1  0  0  0  0
 18 32  1  0  0  0  0
 19 32  1  0  0  0  0
 19 33  2  0  0  0  0
 19 34  1  0  0  0  0
 20 22  2  0  0  0  0
 20 41  1  0  0  0  0
 21 23  2  0  0  0  0
 21 42  1  0  0  0  0
 22 53  1  0  0  0  0
 23 43  1  0  0  0  0
 24 63  1  0  0  0  0
 25 26  2  0  0  0  0
 25 57  1  0  0  0  0
 26 64  1  0  0  0  0
 27 91  1  0  0  0  0
 28 92  1  0  0  0  0
 29 31  2  0  0  0  0
 29 91  1  0  0  0  0
 30 93  1  0  0  0  0
 31 94  1  0  0  0  0
 32 72  2  0  0  0  0
 33 73  1  0  0  0  0
 33 77  1  0  0  0  0
 34 78  1  0  0  0  0
 34 84  2  0  0  0  0
 35 54  1  0  0  0  0
 35 79  1  0  0  0  0
 35 85  2  0  0  0  0
 36 55  1  0  0  0  0
 36 80  1  0  0  0  0
 36 86  2  0  0  0  0
 37 65  1  0  0  0  0
 37 75  1  0  0  0  0
 37 87  2  0  0  0  0
 38 69  1  0  0  0  0
 38 74  1  0  0  0  0
 38 88  2  0  0  0  0
 39 70  1  0  0  0  0
 39 81  1  0  0  0  0
 39 89  2  0  0  0  0
 40 76  1  0  0  0  0
 40 82  1  0  0  0  0
 40 90  2  0  0  0  0
 41 44  1  0  0  0  0
 42 54  1  0  0  0  0
 43 74  1  0  0  0  0
 44 47  1  0  0  0  0
 45 48  1  0  0  0  0
 45 50  1  0  0  0  0
 46 49  1  0  0  0  0
 46 51  1  0  0  0  0
 47 53  1  0  0  0  0
 48 55  1  0  0  0  0
 49 56  1  0  0  0  0
 50 75  1  0  0  0  0
 51 76  1  0  0  0  0
 52 56  1  0  0  0  0
 52 76  1  0  0  0  0
 53 79  1  0  0  0  0
 54 74  1  0  0  0  0
 55 75  1  0  0  0  0
 56 73  1  0  0  0  0
 58 70  1  0  0  0  0
 59 71  1  0  0  0  0
 60 71  1  0  0  0  0
 61 71  1  0  0  0  0
 62 83  1  0  0  0  0
 63 82  1  0  0  0  0
 64 80  1  0  0  0  0
 65 66  1  0  0  0  0
 66 67  1  0  0  0  0
 67 68  1  0  0  0  0
 68 92  1  0  0  0  0
 69 71  1  0  0  0  0
 69 81  1  0  0  0  0
 70 83  1  0  0  0  0
 72 73  1  0  0  0  0
M  CHG  1  83   1
M  ISO  4  40 100  68 101  82 100  92 101
M  END
> <Batch ID>
0005

> <Smiles>
CNC(C)C(=O)NC(C(=O)N1Cc2cc([101O:1][101CH2:1]CCCC(=O)N3CCCC3C(=O)NCc3cc(C[100NH:0][100C:0](=O)N4CCCC(n5nc(-c6ccc(Oc7ccc(F)cc7F)cc6)c(C(N)=O)c5N)C4)ccc3C)ccc2CC1C(=O)NC1CCCc2ccccc21)C(C)(C)C

> <Shape>
0.205

> <Color>
0.072

> <Negative vol penalty>
0.000

$$$$

  -OEChem-04042320263D

 90 99  0     1  0  0  0  0  0999 V2000
  -19.4801  -28.0881   21.4401 C   0  0  0  0  0  0  0  0  0  0  0  0
  -20.7117  -27.7852   22.0118 C   0  0  0  0  0  0  0  0  0  0  0  0
  -23.1533   -9.7765   19.9853 C   0  0  0  0  0  0  0  0  0  0  0  0
  -23.7866   -9.9661   22.3091 C   0  0  0  0  0  0  0  0  0  0  0  0
  -18.3022  -27.7623   22.1112 C   0  0  0  0  0  0  0  0  0  0  0  0
  -20.7661  -27.1572   23.2556 C   0  0  0  0  0  0  0  0  0  0  0  0
  -24.1606  -23.2899   23.3713 C   0  0  0  0  0  0  0  0  0  0  0  0
  -32.3399  -17.8918   23.4399 C   0  0  0  0  0  0  0  0  0  0  0  0
  -31.8240  -16.9287   22.5727 C   0  0  0  0  0  0  0  0  0  0  0  0
  -22.4242   -8.6240   20.2780 C   0  0  0  0  0  0  0  0  0  0  0  0
  -23.0574   -8.8136   22.6018 C   0  0  0  0  0  0  0  0  0  0  0  0
  -25.5145  -23.6002   23.4923 C   0  0  0  0  0  0  0  0  0  0  0  0
  -19.8209   -7.9724   23.0891 C   0  0  0  0  0  0  0  0  0  0  0  0
  -19.0023   -7.9946   24.2183 C   0  0  0  0  0  0  0  0  0  0  0  0
  -29.5914  -17.7570   22.9811 C   0  0  0  0  0  0  0  0  0  0  0  0
  -25.3965  -23.1640   25.8617 C   0  0  0  0  0  0  0  0  0  0  0  0
  -20.2469   -6.1485   25.1566 C   0  0  0  0  0  0  0  0  0  0  0  0
  -23.8346  -10.4475   21.0008 C   0  0  0  0  0  0  0  0  0  0  0  0
  -24.1231  -12.9663   20.7176 C   0  0  0  0  0  0  0  0  0  0  0  0
  -18.3422  -27.1213   23.3595 C   0  0  0  0  0  0  0  0  0  0  0  0
  -23.4103  -22.9237   24.4981 C   0  0  0  0  0  0  0  0  0  0  0  0
  -19.5877  -26.8237   23.9447 C   0  0  0  0  0  0  0  0  0  0  0  0
  -30.1073  -18.7201   23.8483 C   0  0  0  0  0  0  0  0  0  0  0  0
  -24.0345  -22.8449   25.7514 C   0  0  0  0  0  0  0  0  0  0  0  0
  -31.4815  -18.7874   24.0777 C   0  0  0  0  0  0  0  0  0  0  0  0
  -30.4497  -16.8614   22.3433 C   0  0  0  0  0  0  0  0  0  0  0  0
  -22.3762   -8.1425   21.5862 C   0  0  0  0  0  0  0  0  0  0  0  0
  -26.1320  -23.5394   24.7380 C   0  0  0  0  0  0  0  0  0  0  0  0
  -20.8524   -7.0383   22.9936 C   0  0  0  0  0  0  0  0  0  0  0  0
  -19.2153   -7.0827   25.2521 C   0  0  0  0  0  0  0  0  0  0  0  0
  -21.0654   -6.1264   24.0274 C   0  0  0  0  0  0  0  0  0  0  0  0
  -24.5884  -11.6378   20.6990 C   0  0  0  0  0  0  0  0  0  0  0  0
  -25.2155  -13.7178   20.3595 C   0  0  0  0  0  0  0  0  0  0  0  0
  -22.8199  -13.4755   21.0308 C   0  0  0  0  0  0  0  0  0  0  0  0
  -20.8434  -24.0525   26.0416 C   0  0  0  0  0  0  0  0  0  0  0  0
  -21.2825  -21.2379   27.7557 C   0  0  0  0  0  0  0  0  0  0  0  0
  -18.1897  -21.6542   29.1344 C   0  0  0  0  0  0  0  0  0  0  0  0
  -30.6380  -14.9220   20.7464 C   0  0  0  0  0  0  0  0  0  0  0  0
  -17.0430  -26.8314   24.0686 C   0  0  0  0  0  0  0  0  0  0  0  0
  -21.9578  -22.5634   24.3410 C   0  0  0  0  0  0  0  0  0  0  0  0
  -23.2743  -22.4536   26.9898 C   0  0  0  0  0  0  0  0  0  0  0  0
  -17.1833  -25.8293   25.2115 C   0  0  0  0  0  0  0  0  0  0  0  0
  -27.3610  -18.4314   25.5483 C   0  0  0  0  0  0  0  0  0  0  0  0
  -26.7342  -19.2421   24.4224 C   0  0  0  0  0  0  0  0  0  0  0  0
  -29.7113  -12.3176   18.5025 C   0  0  0  0  0  0  0  0  0  0  0  0
  -28.6481  -19.1695   25.8791 C   0  0  0  0  0  0  0  0  0  0  0  0
  -27.8750  -20.0059   23.7442 C   0  0  0  0  0  0  0  0  0  0  0  0
  -18.3834  -26.1806   26.0852 C   0  0  0  0  0  0  0  0  0  0  0  0
  -28.2577  -12.0178   18.8754 C   0  0  0  0  0  0  0  0  0  0  0  0
  -30.5539  -12.6555   19.7311 C   0  0  0  0  0  0  0  0  0  0  0  0
  -28.5580  -13.4233   20.9543 C   0  0  0  0  0  0  0  0  0  0  0  0
  -29.1564  -19.6831   24.5278 C   0  0  0  0  0  0  0  0  0  0  0  0
  -19.6877  -26.1206   25.2810 C   0  0  1  0  0  0  0  0  0  0  0  0
  -21.1656  -22.6397   25.6446 C   0  0  1  0  0  0  0  0  0  0  0  0
  -27.6552  -13.1409   19.7423 C   0  0  2  0  0  0  0  0  0  0  0  0
  -16.4882  -20.4709   30.5494 C   0  0  0  0  0  0  0  0  0  0  0  0
  -20.4970  -19.5147   25.3642 C   0  0  0  0  0  0  0  0  0  0  0  0
  -18.2961  -19.0930   26.4806 C   0  0  0  0  0  0  0  0  0  0  0  0
  -20.4100  -18.3399   27.5703 C   0  0  0  0  0  0  0  0  0  0  0  0
  -18.3243  -23.7313   31.2383 C   0  0  0  0  0  0  0  0  0  0  0  0
  -33.1850  -21.3324   23.3853 C   0  0  0  0  0  0  0  0  0  0  0  0
  -32.0598  -19.8139   25.0067 C   0  0  0  0  0  0  0  0  0  0  0  0
  -32.1436  -22.2633   25.4471 C   0  0  0  0  0  0  0  0  0  0  0  0
  -31.5533  -23.5412   24.8843 C   0  0  0  0  0  0  0  0  0  0  0  0
  -28.1465  -24.2123   23.6678 C   0  0  0  0  0  0  0  0  0  1  0  0
  -29.5957  -24.5017   24.0078 C   0  0  0  0  0  0  0  0  0  0  0  0
  -19.8588  -20.8066   27.5066 C   0  0  1  0  0  0  0  0  0  0  0  0
  -17.6751  -21.4216   30.5435 C   0  0  2  0  0  0  0  0  0  0  0  0
  -19.7741  -19.4651   26.7251 C   0  0  0  0  0  0  0  0  0  0  0  0
  -25.8761  -11.5473   20.3559 N   0  0  0  0  0  0  0  0  0  0  0  0
  -26.2292  -12.8284   20.1557 N   0  0  0  0  0  0  0  0  0  0  0  0
  -21.8849  -22.0309   26.7707 N   0  0  0  0  0  0  0  0  0  0  0  0
  -29.9239  -13.7300   20.5014 N   0  0  0  0  0  0  0  0  0  0  0  0
  -25.3983  -15.0461   20.2021 N   0  0  0  0  0  0  0  0  0  0  0  0
  -21.8127  -12.5651   21.3788 N   0  0  0  0  0  0  0  0  0  0  0  0
  -29.9254  -15.8845   21.4609 N   0  0  0  0  0  0  0  0  0  0  0  0
  -20.1075  -24.7474   25.1007 N   0  0  0  0  0  0  0  0  0  0  0  0
  -19.2061  -20.7804   28.8111 N   0  0  0  0  0  0  0  0  0  0  0  0
  -17.2481  -22.7103   31.1583 N   0  3  0  0  0  0  0  0  0  0  0  0
  -32.0876  -21.2003   24.4121 N   0  3  1  0  0  0  0  0  0  0  0  0
  -22.5520  -14.7002   20.9869 O   0  0  0  0  0  0  0  0  0  0  0  0
  -21.2322  -24.4801   27.1222 O   0  0  0  0  0  0  0  0  0  0  0  0
  -21.8496  -20.8766   28.7906 O   0  0  0  0  0  0  0  0  0  0  0  0
  -17.7329  -22.5217   28.3932 O   0  0  0  0  0  0  0  0  0  0  0  0
  -31.7866  -15.0881   20.3281 O   0  0  0  0  0  0  0  0  0  0  0  0
  -21.6646   -7.0181   21.8722 O   0  0  0  0  0  0  0  0  0  0  0  0
  -27.4535  -23.8412   24.8588 O   0  0  0  0  0  0  0  0  0  1  0  0
  -30.1915  -23.3254   24.5415 O   0  0  0  0  0  0  0  0  0  0  0  0
  -18.4302   -7.1051   26.3371 F   0  0  0  0  0  0  0  0  0  0  0  0
  -22.0555   -5.2274   23.9419 F   0  0  0  0  0  0  0  0  0  0  0  0
  1  2  1  0  0  0  0
  1  5  2  0  0  0  0
  2  6  2  0  0  0  0
  3 10  2  0  0  0  0
  3 18  1  0  0  0  0
  4 11  1  0  0  0  0
  4 18  2  0  0  0  0
  5 20  1  0  0  0  0
  6 22  1  0  0  0  0
  7 12  2  0  0  0  0
  7 21  1  0  0  0  0
  8  9  2  0  0  0  0
  8 25  1  0  0  0  0
  9 26  1  0  0  0  0
 10 27  1  0  0  0  0
 11 27  2  0  0  0  0
 12 28  1  0  0  0  0
 13 14  2  0  0  0  0
 13 29  1  0  0  0  0
 14 30  1  0  0  0  0
 15 23  1  0  0  0  0
 15 26  2  0  0  0  0
 16 24  1  0  0  0  0
 16 28  2  0  0  0  0
 17 30  2  0  0  0  0
 17 31  1  0  0  0  0
 18 32  1  0  0  0  0
 19 32  1  0  0  0  0
 19 33  2  0  0  0  0
 19 34  1  0  0  0  0
 20 22  2  0  0  0  0
 20 39  1  0  0  0  0
 21 24  2  0  0  0  0
 21 40  1  0  0  0  0
 22 53  1  0  0  0  0
 23 25  2  0  0  0  0
 23 52  1  0  0  0  0
 24 41  1  0  0  0  0
 25 62  1  0  0  0  0
 26 76  1  0  0  0  0
 27 86  1  0  0  0  0
 28 87  1  0  0  0  0
 29 31  2  0  0  0  0
 29 86  1  0  0  0  0
 30 89  1  0  0  0  0
 31 90  1  0  0  0  0
 32 70  2  0  0  0  0
 33 71  1  0  0  0  0
 33 74  1  0  0  0  0
 34 75  1  0  0  0  0
 34 81  2  0  0  0  0
 35 54  1  0  0  0  0
 35 77  1  0  0  0  0
 35 82  2  0  0  0  0
 36 67  1  0  0  0  0
 36 72  1  0  0  0  0
 36 83  2  0  0  0  0
 37 68  1  0  0  0  0
 37 78  1  0  0  0  0
 37 84  2  0  0  0  0
 38 73  1  0  0  0  0
 38 76  1  0  0  0  0
 38 85  2  0  0  0  0
 39 42  1  0  0  0  0
 40 54  1  0  0  0  0
 41 72  1  0  0  0  0
 42 48  1  0  0  0  0
 43 44  1  0  0  0  0
 43 46  1  0  0  0  0
 44 47  1  0  0  0  0
 45 49  1  0  0  0  0
 45 50  1  0  0  0  0
 46 52  1  0  0  0  0
 47 52  1  0  0  0  0
 48 53  1  0  0  0  0
 49 55  1  0  0  0  0
 50 73  1  0  0  0  0
 51 55  1  0  0  0  0
 51 73  1  0  0  0  0
 53 77  1  0  0  0  0
 54 72  1  0  0  0  0
 55 71  1  0  0  0  0
 56 68  1  0  0  0  0
 57 69  1  0  0  0  0
 58 69  1  0  0  0  0
 59 69  1  0  0  0  0
 60 79  1  0  0  0  0
 61 80  1  0  0  0  0
 62 80  1  0  0  0  0
 63 64  1  0  0  0  0
 63 80  1  0  0  0  0
 64 88  1  0  0  0  0
 65 66  1  0  0  0  0
 65 87  1  0  0  0  0
 66 88  1  0  0  0  0
 67 69  1  0  0  0  0
 67 78  1  0  0  0  0
 68 79  1  0  0  0  0
 70 71  1  0  0  0  0
M  CHG  2  79   1  80   1
M  ISO  4  38 100  65 101  76 100  87 101
M  END
> <Batch ID>
0005

> <Smiles>
CNC(C)C(=O)NC(C(=O)N1Cc2cc([101O:1][101CH2:1]COCCN(C)Cc3ccc([100NH:0][100C:0](=O)N4CCCC(n5nc(-c6ccc(Oc7ccc(F)cc7F)cc6)c(C(N)=O)c5N)C4)cc3C3CCCC3)ccc2CC1C(=O)NC1CCCc2ccccc21)C(C)(C)C

> <Shape>
0.198

> <Color>
0.201

> <Negative vol penalty>
0.000

$$$$

  -OEChem-04042320263D

 86 95  0     1  0  0  0  0  0999 V2000
  -26.8384  -34.6882   23.1521 C   0  0  0  0  0  0  0  0  0  0  0  0
  -27.2506  -33.3741   22.9561 C   0  0  0  0  0  0  0  0  0  0  0  0
  -22.7709  -10.7619   20.8050 C   0  0  0  0  0  0  0  0  0  0  0  0
  -21.5619  -11.8396   22.5977 C   0  0  0  0  0  0  0  0  0  0  0  0
  -27.4344  -20.6670   18.0166 C   0  0  0  0  0  0  0  0  0  0  0  0
  -25.9276  -22.4980   17.5542 C   0  0  0  0  0  0  0  0  0  0  0  0
  -25.5365  -34.9536   23.5747 C   0  0  0  0  0  0  0  0  0  0  0  0
  -26.3614  -32.3243   23.1837 C   0  0  0  0  0  0  0  0  0  0  0  0
  -26.4919  -28.8374   19.5136 C   0  0  0  0  0  0  0  0  0  0  0  0
  -26.6081  -19.8049   17.2959 C   0  0  0  0  0  0  0  0  0  0  0  0
  -25.1012  -21.6359   16.8334 C   0  0  0  0  0  0  0  0  0  0  0  0
  -22.2282   -9.5323   21.1782 C   0  0  0  0  0  0  0  0  0  0  0  0
  -21.0191  -10.6101   22.9709 C   0  0  0  0  0  0  0  0  0  0  0  0
  -27.5529  -27.9331   19.5320 C   0  0  0  0  0  0  0  0  0  0  0  0
  -22.7692   -7.1893   23.5535 C   0  0  0  0  0  0  0  0  0  0  0  0
  -23.6304   -6.0939   23.6164 C   0  0  0  0  0  0  0  0  0  0  0  0
  -26.1178  -26.2792   20.5440 C   0  0  0  0  0  0  0  0  0  0  0  0
  -22.3055   -4.9563   21.9467 C   0  0  0  0  0  0  0  0  0  0  0  0
  -22.4378  -11.9155   21.5148 C   0  0  0  0  0  0  0  0  0  0  0  0
  -27.0942  -22.0136   18.1458 C   0  0  0  0  0  0  0  0  0  0  0  0
  -24.3617  -13.5345   21.0845 C   0  0  0  0  0  0  0  0  0  0  0  0
  -24.6280  -33.9070   23.7983 C   0  0  0  0  0  0  0  0  0  0  0  0
  -25.2367  -28.4724   20.0212 C   0  0  0  0  0  0  0  0  0  0  0  0
  -25.0465  -32.5758   23.6110 C   0  0  0  0  0  0  0  0  0  0  0  0
  -25.0418  -27.1798   20.5286 C   0  0  0  0  0  0  0  0  0  0  0  0
  -25.4415  -20.2893   16.7043 C   0  0  0  0  0  0  0  0  0  0  0  0
  -21.3523   -9.4564   22.2611 C   0  0  0  0  0  0  0  0  0  0  0  0
  -27.3667  -26.6547   20.0498 C   0  0  0  0  0  0  0  0  0  0  0  0
  -21.6760   -7.1682   22.6872 C   0  0  0  0  0  0  0  0  0  0  0  0
  -23.3986   -4.9774   22.8130 C   0  0  0  0  0  0  0  0  0  0  0  0
  -21.4442   -6.0517   21.8839 C   0  0  0  0  0  0  0  0  0  0  0  0
  -22.9985  -13.1859   21.1302 C   0  0  0  0  0  0  0  0  0  0  0  0
  -24.3679  -14.8409   20.6606 C   0  0  0  0  0  0  0  0  0  0  0  0
  -27.9643  -22.9228   18.9045 C   0  0  0  0  0  0  0  0  0  0  0  0
  -25.5188  -12.7478   21.3973 C   0  0  0  0  0  0  0  0  0  0  0  0
  -23.3862  -29.5097   22.3883 C   0  0  0  0  0  0  0  0  0  0  0  0
  -21.2729  -27.3855   21.1458 C   0  0  0  0  0  0  0  0  0  0  0  0
  -20.7485  -24.5570   19.3097 C   0  0  0  0  0  0  0  0  0  0  0  0
  -22.5229  -18.8626   17.2594 C   0  0  0  0  0  0  0  0  0  0  0  0
  -23.2454  -34.2408   24.3002 C   0  0  0  0  0  0  0  0  0  0  0  0
  -24.0952  -29.4505   19.9697 C   0  0  0  0  0  0  0  0  0  0  0  0
  -23.7084  -26.7319   21.0669 C   0  0  0  0  0  0  0  0  0  0  0  0
  -22.2518  -33.0906   24.1582 C   0  0  0  0  0  0  0  0  0  0  0  0
  -20.5818  -18.1578   20.1598 C   0  0  0  0  0  0  0  0  0  0  0  0
  -30.2315  -24.3688   16.3717 C   0  0  0  0  0  0  0  0  0  0  0  0
  -22.8701  -31.7869   24.6533 C   0  0  0  0  0  0  0  0  0  0  0  0
  -21.1457  -16.8278   20.6629 C   0  0  0  0  0  0  0  0  0  0  0  0
  -31.0366  -24.5824   17.6484 C   0  0  0  0  0  0  0  0  0  0  0  0
  -29.1640  -23.3739   16.7936 C   0  0  0  0  0  0  0  0  0  0  0  0
  -20.5642  -18.2222   18.6341 C   0  0  0  0  0  0  0  0  0  0  0  0
  -22.4233  -16.6108   18.4906 C   0  0  0  0  0  0  0  0  0  0  0  0
  -24.1037  -31.4113   23.8235 C   0  0  1  0  0  0  0  0  0  0  0  0
  -22.9981  -29.1425   20.9840 C   0  0  1  0  0  0  0  0  0  0  0  0
  -22.5132  -16.5207   20.0236 C   0  0  2  0  0  0  0  0  0  0  0  0
  -29.9823  -24.5168   18.7576 C   0  0  1  0  0  0  0  0  0  0  0  0
  -18.9161  -23.0460   18.4993 C   0  0  0  0  0  0  0  0  0  0  0  0
  -21.0394  -26.1754   23.9370 C   0  0  0  0  0  0  0  0  0  0  0  0
  -19.9865  -24.1558   22.8975 C   0  0  0  0  0  0  0  0  0  0  0  0
  -18.8732  -26.3797   22.7041 C   0  0  0  0  0  0  0  0  0  0  0  0
  -21.4024  -25.0932   16.4736 C   0  0  0  0  0  0  0  0  0  0  0  0
  -24.5587  -19.3672   15.9328 C   0  0  0  0  0  0  0  0  0  0  0  0
  -29.3803  -25.8933   19.0391 C   0  0  0  0  0  0  0  0  0  1  0  0
  -20.9707  -25.9233   21.3684 C   0  0  1  0  0  0  0  0  0  0  0  0
  -19.7816  -24.2548   18.1791 C   0  0  2  0  0  0  0  0  0  0  0  0
  -20.2432  -25.6673   22.7185 C   0  0  0  0  0  0  0  0  0  0  0  0
  -22.1970  -14.1898   20.7646 N   0  0  0  0  0  0  0  0  0  0  0  0
  -23.0591  -15.1822   20.4852 N   0  0  0  0  0  0  0  0  0  0  0  0
  -28.9771  -23.5854   18.2230 N   0  0  0  0  0  0  0  0  0  0  0  0
  -22.6250  -27.7266   21.0005 N   0  0  0  0  0  0  0  0  0  0  0  0
  -21.8913  -17.9230   18.0909 N   0  0  0  0  0  0  0  0  0  0  0  0
  -25.3652  -15.7196   20.4244 N   0  0  0  0  0  0  0  0  0  0  0  0
  -26.0001  -12.7613   22.7136 N   0  0  0  0  0  0  0  0  0  0  0  0
  -23.7049  -30.8442   22.5532 N   0  0  0  0  0  0  0  0  0  0  0  0
  -20.2275  -25.4768   20.1951 N   0  0  0  0  0  0  0  0  0  0  0  0
  -23.7813  -18.5029   16.7927 N   0  0  0  0  0  0  0  0  0  0  0  0
  -20.5281  -23.9779   16.9193 N   0  3  0  0  0  0  0  0  0  0  0  0
  -27.7317  -23.0384   20.1070 O   0  0  0  0  0  0  0  0  0  0  0  0
  -26.1183  -12.0664   20.5314 O   0  0  0  0  0  0  0  0  0  0  0  0
  -23.3944  -28.6466   23.2582 O   0  0  0  0  0  0  0  0  0  0  0  0
  -20.3428  -28.1943   21.0953 O   0  0  0  0  0  0  0  0  0  0  0  0
  -21.8537  -24.0270   19.4006 O   0  0  0  0  0  0  0  0  0  0  0  0
  -22.0061  -19.9443   16.9599 O   0  0  0  0  0  0  0  0  0  0  0  0
  -20.8223   -8.2568   22.6254 O   0  0  0  0  0  0  0  0  0  0  0  0
  -28.4008  -25.7703   20.0695 O   0  0  0  0  0  0  0  0  0  1  0  0
  -24.2266   -3.9262   22.8724 F   0  0  0  0  0  0  0  0  0  0  0  0
  -20.3964   -6.0261   21.0489 F   0  0  0  0  0  0  0  0  0  0  0  0
  1  2  1  0  0  0  0
  1  7  2  0  0  0  0
  2  8  2  0  0  0  0
  3 12  2  0  0  0  0
  3 19  1  0  0  0  0
  4 13  1  0  0  0  0
  4 19  2  0  0  0  0
  5 10  2  0  0  0  0
  5 20  1  0  0  0  0
  6 11  1  0  0  0  0
  6 20  2  0  0  0  0
  7 22  1  0  0  0  0
  8 24  1  0  0  0  0
  9 14  2  0  0  0  0
  9 23  1  0  0  0  0
 10 26  1  0  0  0  0
 11 26  2  0  0  0  0
 12 27  1  0  0  0  0
 13 27  2  0  0  0  0
 14 28  1  0  0  0  0
 15 16  2  0  0  0  0
 15 29  1  0  0  0  0
 16 30  1  0  0  0  0
 17 25  1  0  0  0  0
 17 28  2  0  0  0  0
 18 30  2  0  0  0  0
 18 31  1  0  0  0  0
 19 32  1  0  0  0  0
 20 34  1  0  0  0  0
 21 32  1  0  0  0  0
 21 33  2  0  0  0  0
 21 35  1  0  0  0  0
 22 24  2  0  0  0  0
 22 40  1  0  0  0  0
 23 25  2  0  0  0  0
 23 41  1  0  0  0  0
 24 52  1  0  0  0  0
 25 42  1  0  0  0  0
 26 61  1  0  0  0  0
 27 83  1  0  0  0  0
 28 84  1  0  0  0  0
 29 31  2  0  0  0  0
 29 83  1  0  0  0  0
 30 85  1  0  0  0  0
 31 86  1  0  0  0  0
 32 66  2  0  0  0  0
 33 67  1  0  0  0  0
 33 71  1  0  0  0  0
 34 68  1  0  0  0  0
 34 77  2  0  0  0  0
 35 72  1  0  0  0  0
 35 78  2  0  0  0  0
 36 53  1  0  0  0  0
 36 73  1  0  0  0  0
 36 79  2  0  0  0  0
 37 63  1  0  0  0  0
 37 69  1  0  0  0  0
 37 80  2  0  0  0  0
 38 64  1  0  0  0  0
 38 74  1  0  0  0  0
 38 81  2  0  0  0  0
 39 70  1  0  0  0  0
 39 75  1  0  0  0  0
 39 82  2  0  0  0  0
 40 43  1  0  0  0  0
 41 53  1  0  0  0  0
 42 69  1  0  0  0  0
 43 46  1  0  0  0  0
 44 47  1  0  0  0  0
 44 50  1  0  0  0  0
 45 48  1  0  0  0  0
 45 49  1  0  0  0  0
 46 52  1  0  0  0  0
 47 54  1  0  0  0  0
 48 55  1  0  0  0  0
 49 68  1  0  0  0  0
 50 70  1  0  0  0  0
 51 54  1  0  0  0  0
 51 70  1  0  0  0  0
 52 73  1  0  0  0  0
 53 69  1  0  0  0  0
 54 67  1  0  0  0  0
 55 62  1  0  0  0  0
 55 68  1  0  0  0  0
 56 64  1  0  0  0  0
 57 65  1  0  0  0  0
 58 65  1  0  0  0  0
 59 65  1  0  0  0  0
 60 76  1  0  0  0  0
 61 75  1  0  0  0  0
 62 84  1  0  0  0  0
 63 65  1  0  0  0  0
 63 74  1  0  0  0  0
 64 76  1  0  0  0  0
 66 67  1  0  0  0  0
M  CHG  1  76   1
M  ISO  4  39 100  62 101  75 100  84 101
M  END
> <Batch ID>
0005

> <Smiles>
CNC(C)C(=O)NC(C(=O)N1Cc2cc([101O:1][101CH2:1]C3CCCN3C(=O)c3ccc(C[100NH:0][100C:0](=O)N4CCCC(n5nc(-c6ccc(Oc7ccc(F)cc7F)cc6)c(C(N)=O)c5N)C4)cc3)ccc2CC1C(=O)NC1CCCc2ccccc21)C(C)(C)C

> <Shape>
0.257

> <Color>
0.104

> <Negative vol penalty>
0.000

$$$$

  -OEChem-04042320263D

 87 95  0     1  0  0  0  0  0999 V2000
  -33.5948  -13.6833   19.2800 C   0  0  0  0  0  0  0  0  0  0  0  0
  -32.6608  -14.7059   19.4110 C   0  0  0  0  0  0  0  0  0  0  0  0
  -21.4972  -28.8138   21.0672 C   0  0  0  0  0  0  0  0  0  0  0  0
  -22.5994  -28.3072   23.1566 C   0  0  0  0  0  0  0  0  0  0  0  0
  -33.1829  -12.4106   18.8871 C   0  0  0  0  0  0  0  0  0  0  0  0
  -31.3142  -14.4566   19.1481 C   0  0  0  0  0  0  0  0  0  0  0  0
  -28.2496  -16.4452   22.6550 C   0  0  0  0  0  0  0  0  0  0  0  0
  -30.2236  -25.0704   25.7229 C   0  0  0  0  0  0  0  0  0  0  0  0
  -30.0292  -24.3538   24.5421 C   0  0  0  0  0  0  0  0  0  0  0  0
  -20.3618  -28.1290   21.5001 C   0  0  0  0  0  0  0  0  0  0  0  0
  -21.4640  -27.6224   23.5896 C   0  0  0  0  0  0  0  0  0  0  0  0
  -28.0028  -17.8154   22.5817 C   0  0  0  0  0  0  0  0  0  0  0  0
  -19.3441  -24.9175   21.7748 C   0  0  0  0  0  0  0  0  0  0  0  0
  -18.7333  -24.0434   20.8757 C   0  0  0  0  0  0  0  0  0  0  0  0
  -25.8851  -17.3708   21.5153 C   0  0  0  0  0  0  0  0  0  0  0  0
  -30.9728  -26.9773   24.4424 C   0  0  0  0  0  0  0  0  0  0  0  0
  -16.6927  -25.3298   21.0113 C   0  0  0  0  0  0  0  0  0  0  0  0
  -22.6161  -28.9029   21.8955 C   0  0  0  0  0  0  0  0  0  0  0  0
  -24.0786  -30.9758   21.6275 C   0  0  0  0  0  0  0  0  0  0  0  0
  -31.8293  -12.1431   18.6286 C   0  0  0  0  0  0  0  0  0  0  0  0
  -27.3194  -15.5263   22.1482 C   0  0  0  0  0  0  0  0  0  0  0  0
  -30.8840  -13.1795   18.7501 C   0  0  0  0  0  0  0  0  0  0  0  0
  -26.1214  -15.9894   21.5856 C   0  0  0  0  0  0  0  0  0  0  0  0
  -30.6954  -26.3822   25.6731 C   0  0  0  0  0  0  0  0  0  0  0  0
  -30.3066  -24.9490   23.3115 C   0  0  0  0  0  0  0  0  0  0  0  0
  -30.7784  -26.2607   23.2616 C   0  0  0  0  0  0  0  0  0  0  0  0
  -20.3451  -27.5333   22.7613 C   0  0  0  0  0  0  0  0  0  0  0  0
  -26.8217  -18.2785   22.0092 C   0  0  0  0  0  0  0  0  0  0  0  0
  -18.6292  -25.9978   22.2923 C   0  0  0  0  0  0  0  0  0  0  0  0
  -17.4076  -24.2495   20.4940 C   0  0  0  0  0  0  0  0  0  0  0  0
  -17.3036  -26.2039   21.9105 C   0  0  0  0  0  0  0  0  0  0  0  0
  -23.7895  -29.6097   21.4486 C   0  0  0  0  0  0  0  0  0  0  0  0
  -25.3010  -31.1497   21.0258 C   0  0  0  0  0  0  0  0  0  0  0  0
  -23.3109  -31.9963   22.2793 C   0  0  0  0  0  0  0  0  0  0  0  0
  -27.3611  -13.3255   19.8552 C   0  0  0  0  0  0  0  0  0  0  0  0
  -24.4234  -12.6079   21.0286 C   0  0  0  0  0  0  0  0  0  0  0  0
  -21.6573  -13.6373   22.7420 C   0  0  0  0  0  0  0  0  0  0  0  0
  -29.8419  -27.4231   19.8663 C   0  0  0  0  0  0  0  0  0  0  0  0
  -31.4384  -10.7636   18.1608 C   0  0  0  0  0  0  0  0  0  0  0  0
  -27.5885  -14.0506   22.2590 C   0  0  0  0  0  0  0  0  0  0  0  0
  -25.0812  -15.0435   21.0454 C   0  0  0  0  0  0  0  0  0  0  0  0
  -29.9406  -10.4872   18.2639 C   0  0  0  0  0  0  0  0  0  0  0  0
  -28.0301  -29.3873   17.5134 C   0  0  0  0  0  0  0  0  0  0  0  0
  -29.1416  -11.6589   17.7023 C   0  0  0  0  0  0  0  0  0  0  0  0
  -26.7639  -29.7903   18.2712 C   0  0  0  0  0  0  0  0  0  0  0  0
  -28.4769  -27.9721   17.8733 C   0  0  0  0  0  0  0  0  0  0  0  0
  -27.3809  -28.1278   20.0752 C   0  0  0  0  0  0  0  0  0  0  0  0
  -29.4109  -12.9419   18.4978 C   0  0  1  0  0  0  0  0  0  0  0  0
  -26.8034  -13.2224   21.2465 C   0  0  1  0  0  0  0  0  0  0  0  0
  -26.9232  -29.5679   19.7873 C   0  0  2  0  0  0  0  0  0  0  0  0
  -31.3204  -23.3468   21.6388 C   0  0  0  0  0  0  0  0  0  0  0  0
  -19.4045  -12.8399   23.5078 C   0  0  0  0  0  0  0  0  0  0  0  0
  -23.3510  -12.9181   18.1890 C   0  0  0  0  0  0  0  0  0  0  0  0
  -21.0434  -13.0575   19.1502 C   0  0  0  0  0  0  0  0  0  0  0  0
  -22.3981  -10.9857   19.4586 C   0  0  0  0  0  0  0  0  0  0  0  0
  -22.3577  -14.0303   25.5905 C   0  0  0  0  0  0  0  0  0  0  0  0
  -29.7904  -28.2899   28.6618 C   0  0  0  0  0  0  0  0  0  0  0  0
  -31.0825  -26.9184   21.9556 C   0  0  0  0  0  0  0  0  0  0  0  0
  -30.9037  -27.1479   26.9357 C   0  0  0  0  0  0  0  0  0  0  0  0
  -27.2994  -21.7257   21.0522 C   0  0  0  0  0  0  0  0  0  0  0  0
  -28.4334  -22.7183   20.8452 C   0  0  0  0  0  0  0  0  0  0  0  0
  -27.7110  -20.4762   21.8212 C   0  0  0  0  0  0  0  0  0  1  0  0
  -30.0891  -24.1522   22.0458 C   0  0  1  0  0  0  0  0  0  0  0  0
  -23.0157  -13.0732   20.7443 C   0  0  1  0  0  0  0  0  0  0  0  0
  -20.8735  -12.9921   23.8706 C   0  0  2  0  0  0  0  0  0  0  0  0
  -22.4723  -12.5268   19.3939 C   0  0  0  0  0  0  0  0  0  0  0  0
  -24.7507  -28.9618   20.7850 N   0  0  0  0  0  0  0  0  0  0  0  0
  -25.6557  -29.9250   20.5416 N   0  0  0  0  0  0  0  0  0  0  0  0
  -25.3933  -13.6102   21.1711 N   0  0  0  0  0  0  0  0  0  0  0  0
  -28.6106  -27.8280   19.3249 N   0  0  0  0  0  0  0  0  0  0  0  0
  -26.0962  -32.2292   20.8688 N   0  0  0  0  0  0  0  0  0  0  0  0
  -22.0771  -31.6459   22.8444 N   0  0  0  0  0  0  0  0  0  0  0  0
  -28.6793  -12.9254   19.7464 N   0  0  0  0  0  0  0  0  0  0  0  0
  -22.2183  -12.6951   21.9060 N   0  0  0  0  0  0  0  0  0  0  0  0
  -29.8845  -27.3176   21.2511 N   0  0  0  0  0  0  0  0  0  0  0  0
  -20.9691  -13.8193   25.1066 N   0  3  0  0  0  0  0  0  0  0  0  0
  -28.9362  -23.2152   22.1475 N   0  3  0  0  0  0  0  0  0  0  0  0
  -23.6998  -33.1871   22.3440 O   0  0  0  0  0  0  0  0  0  0  0  0
  -26.6479  -13.7360   18.9472 O   0  0  0  0  0  0  0  0  0  0  0  0
  -24.6526  -11.3999   21.1280 O   0  0  0  0  0  0  0  0  0  0  0  0
  -21.7584  -14.8553   22.6126 O   0  0  0  0  0  0  0  0  0  0  0  0
  -30.8315  -27.1793   19.1676 O   0  0  0  0  0  0  0  0  0  0  0  0
  -19.2373  -26.8652   23.1842 O   0  0  0  0  0  0  0  0  0  0  0  0
  -26.5786  -19.6155   21.9359 O   0  0  0  0  0  0  0  0  0  1  0  0
  -29.6435  -27.5545   27.4551 O   0  0  0  0  0  0  0  0  0  0  0  0
  -16.8217  -23.4109   19.6294 F   0  0  0  0  0  0  0  0  0  0  0  0
  -16.6120  -27.2406   22.4033 F   0  0  0  0  0  0  0  0  0  0  0  0
  1  2  1  0  0  0  0
  1  5  2  0  0  0  0
  2  6  2  0  0  0  0
  3 10  2  0  0  0  0
  3 18  1  0  0  0  0
  4 11  1  0  0  0  0
  4 18  2  0  0  0  0
  5 20  1  0  0  0  0
  6 22  1  0  0  0  0
  7 12  2  0  0  0  0
  7 21  1  0  0  0  0
  8  9  2  0  0  0  0
  8 24  1  0  0  0  0
  9 25  1  0  0  0  0
 10 27  1  0  0  0  0
 11 27  2  0  0  0  0
 12 28  1  0  0  0  0
 13 14  2  0  0  0  0
 13 29  1  0  0  0  0
 14 30  1  0  0  0  0
 15 23  1  0  0  0  0
 15 28  2  0  0  0  0
 16 24  2  0  0  0  0
 16 26  1  0  0  0  0
 17 30  2  0  0  0  0
 17 31  1  0  0  0  0
 18 32  1  0  0  0  0
 19 32  1  0  0  0  0
 19 33  2  0  0  0  0
 19 34  1  0  0  0  0
 20 22  2  0  0  0  0
 20 39  1  0  0  0  0
 21 23  2  0  0  0  0
 21 40  1  0  0  0  0
 22 48  1  0  0  0  0
 23 41  1  0  0  0  0
 24 59  1  0  0  0  0
 25 26  2  0  0  0  0
 25 63  1  0  0  0  0
 26 58  1  0  0  0  0
 27 83  1  0  0  0  0
 28 84  1  0  0  0  0
 29 31  2  0  0  0  0
 29 83  1  0  0  0  0
 30 86  1  0  0  0  0
 31 87  1  0  0  0  0
 32 67  2  0  0  0  0
 33 68  1  0  0  0  0
 33 71  1  0  0  0  0
 34 72  1  0  0  0  0
 34 78  2  0  0  0  0
 35 49  1  0  0  0  0
 35 73  1  0  0  0  0
 35 79  2  0  0  0  0
 36 64  1  0  0  0  0
 36 69  1  0  0  0  0
 36 80  2  0  0  0  0
 37 65  1  0  0  0  0
 37 74  1  0  0  0  0
 37 81  2  0  0  0  0
 38 70  1  0  0  0  0
 38 75  1  0  0  0  0
 38 82  2  0  0  0  0
 39 42  1  0  0  0  0
 40 49  1  0  0  0  0
 41 69  1  0  0  0  0
 42 44  1  0  0  0  0
 43 45  1  0  0  0  0
 43 46  1  0  0  0  0
 44 48  1  0  0  0  0
 45 50  1  0  0  0  0
 46 70  1  0  0  0  0
 47 50  1  0  0  0  0
 47 70  1  0  0  0  0
 48 73  1  0  0  0  0
 49 69  1  0  0  0  0
 50 68  1  0  0  0  0
 51 63  1  0  0  0  0
 52 65  1  0  0  0  0
 53 66  1  0  0  0  0
 54 66  1  0  0  0  0
 55 66  1  0  0  0  0
 56 76  1  0  0  0  0
 57 85  1  0  0  0  0
 58 75  1  0  0  0  0
 59 85  1  0  0  0  0
 60 61  1  0  0  0  0
 60 62  1  0  0  0  0
 61 77  1  0  0  0  0
 62 84  1  0  0  0  0
 63 77  1  0  0  0  0
 64 66  1  0  0  0  0
 64 74  1  0  0  0  0
 65 76  1  0  0  0  0
 67 68  1  0  0  0  0
M  CHG  2  76   1  77   1
M  ISO  4  38 100  62 101  75 100  84 101
M  END
> <Batch ID>
0005

> <Smiles>
CNC(C)C(=O)NC(C(=O)N1Cc2cc([101O:1][101CH2:1]CCNC(C)c3ccc(COC)cc3C[100NH:0][100C:0](=O)N3CCCC(n4nc(-c5ccc(Oc6ccc(F)cc6F)cc5)c(C(N)=O)c4N)C3)ccc2CC1C(=O)NC1CCCc2ccccc21)C(C)(C)C

> <Shape>
0.262

> <Color>
0.040

> <Negative vol penalty>
0.000

$$$$

  -OEChem-04042320263D

 82 90  0     1  0  0  0  0  0999 V2000
  -23.1904   -8.6902   21.9077 C   0  0  0  0  0  0  0  0  0  0  0  0
  -24.3835   -9.4056   21.8963 C   0  0  0  0  0  0  0  0  0  0  0  0
  -34.5700  -23.0861   20.8045 C   0  0  0  0  0  0  0  0  0  0  0  0
  -22.0804  -27.7423   21.0331 C   0  0  0  0  0  0  0  0  0  0  0  0
  -23.4138  -27.3585   23.0109 C   0  0  0  0  0  0  0  0  0  0  0  0
  -22.1387   -9.0775   21.0782 C   0  0  0  0  0  0  0  0  0  0  0  0
  -24.5259  -10.5082   21.0547 C   0  0  0  0  0  0  0  0  0  0  0  0
  -27.6840  -15.6292   22.1986 C   0  0  0  0  0  0  0  0  0  0  0  0
  -33.8151  -23.7105   19.8117 C   0  0  0  0  0  0  0  0  0  0  0  0
  -34.6298  -21.6937   20.8632 C   0  0  0  0  0  0  0  0  0  0  0  0
  -20.9209  -27.7057   21.8077 C   0  0  0  0  0  0  0  0  0  0  0  0
  -22.2543  -27.3219   23.7855 C   0  0  0  0  0  0  0  0  0  0  0  0
  -28.9602  -16.0474   21.8244 C   0  0  0  0  0  0  0  0  0  0  0  0
  -19.2473  -29.7820   23.8862 C   0  0  0  0  0  0  0  0  0  0  0  0
  -18.2856  -30.7669   23.6607 C   0  0  0  0  0  0  0  0  0  0  0  0
  -28.0113  -17.2635   19.9697 C   0  0  0  0  0  0  0  0  0  0  0  0
  -33.1795  -21.5502   18.9363 C   0  0  0  0  0  0  0  0  0  0  0  0
  -16.6717  -29.0611   23.0928 C   0  0  0  0  0  0  0  0  0  0  0  0
  -23.3268  -27.5686   21.6347 C   0  0  0  0  0  0  0  0  0  0  0  0
  -25.3068  -28.7352   20.5273 C   0  0  0  0  0  0  0  0  0  0  0  0
  -22.2650  -10.1912   20.2330 C   0  0  0  0  0  0  0  0  0  0  0  0
  -26.5610  -16.0167   21.4535 C   0  0  0  0  0  0  0  0  0  0  0  0
  -23.4755  -10.9100   20.2122 C   0  0  0  0  0  0  0  0  0  0  0  0
  -26.7217  -16.8509   20.3380 C   0  0  0  0  0  0  0  0  0  0  0  0
  -33.1198  -22.9426   18.8776 C   0  0  0  0  0  0  0  0  0  0  0  0
  -33.9345  -20.9258   19.9292 C   0  0  0  0  0  0  0  0  0  0  0  0
  -21.0079  -27.4955   23.1838 C   0  0  0  0  0  0  0  0  0  0  0  0
  -29.1244  -16.8624   20.7081 C   0  0  0  0  0  0  0  0  0  0  0  0
  -18.9212  -28.4366   23.7150 C   0  0  0  0  0  0  0  0  0  0  0  0
  -16.9979  -30.4065   23.2640 C   0  0  0  0  0  0  0  0  0  0  0  0
  -17.6334  -28.0762   23.3183 C   0  0  0  0  0  0  0  0  0  0  0  0
  -24.5248  -27.6058   20.8351 C   0  0  0  0  0  0  0  0  0  0  0  0
  -26.3252  -28.2454   19.7466 C   0  0  0  0  0  0  0  0  0  0  0  0
  -25.1286  -30.1047   20.9126 C   0  0  0  0  0  0  0  0  0  0  0  0
  -24.3366  -14.4776   19.7840 C   0  0  0  0  0  0  0  0  0  0  0  0
  -23.0267  -17.4353   19.5420 C   0  0  0  0  0  0  0  0  0  0  0  0
  -23.4778  -20.8176   19.6026 C   0  0  0  0  0  0  0  0  0  0  0  0
  -30.2348  -24.5333   18.8072 C   0  0  0  0  0  0  0  0  0  0  0  0
  -21.1175  -10.5432   19.3198 C   0  0  0  0  0  0  0  0  0  0  0  0
  -25.1885  -15.5789   21.8858 C   0  0  0  0  0  0  0  0  0  0  0  0
  -25.5465  -17.3115   19.5163 C   0  0  0  0  0  0  0  0  0  0  0  0
  -21.2163  -11.9483   18.7314 C   0  0  0  0  0  0  0  0  0  0  0  0
  -26.9295  -23.7130   17.5824 C   0  0  0  0  0  0  0  0  0  0  0  0
  -22.6236  -12.2083   18.2036 C   0  0  0  0  0  0  0  0  0  0  0  0
  -26.0714  -24.7555   18.3013 C   0  0  0  0  0  0  0  0  0  0  0  0
  -28.0577  -23.2120   18.4792 C   0  0  0  0  0  0  0  0  0  0  0  0
  -28.0812  -25.3291   19.7406 C   0  0  0  0  0  0  0  0  0  0  0  0
  -23.6596  -12.1266   19.3312 C   0  0  1  0  0  0  0  0  0  0  0  0
  -24.1663  -15.6126   20.7538 C   0  0  1  0  0  0  0  0  0  0  0  0
  -26.9363  -25.8916   18.8787 C   0  0  2  0  0  0  0  0  0  0  0  0
  -22.2274  -22.9768   19.3351 C   0  0  0  0  0  0  0  0  0  0  0  0
  -22.9768  -17.0291   16.5184 C   0  0  0  0  0  0  0  0  0  0  0  0
  -22.6341  -19.4960   16.2627 C   0  0  0  0  0  0  0  0  0  0  0  0
  -20.9317  -18.1193   17.4583 C   0  0  0  0  0  0  0  0  0  0  0  0
  -24.1297  -21.6710   22.3604 C   0  0  0  0  0  0  0  0  0  0  0  0
  -32.3139  -23.6110   17.8155 C   0  0  0  0  0  0  0  0  0  0  0  0
  -33.9984  -19.4282   19.9928 C   0  0  0  0  0  0  0  0  0  0  0  0
  -32.7639  -17.3294   20.5497 C   0  0  0  0  0  0  0  0  0  0  0  0
  -31.4622  -16.8283   21.1434 C   0  0  0  0  0  0  0  0  0  1  0  0
  -23.1536  -18.5846   18.5715 C   0  0  1  0  0  0  0  0  0  0  0  0
  -22.7186  -21.9224   20.3148 C   0  0  2  0  0  0  0  0  0  0  0  0
  -22.4466  -18.2972   17.2168 C   0  0  0  0  0  0  0  0  0  0  0  0
  -25.0052  -26.4831   20.2940 N   0  0  0  0  0  0  0  0  0  0  0  0
  -26.0999  -26.9046   19.6382 N   0  0  0  0  0  0  0  0  0  0  0  0
  -24.2255  -16.8516   19.9757 N   0  0  0  0  0  0  0  0  0  0  0  0
  -28.8540  -24.3411   18.9805 N   0  0  0  0  0  0  0  0  0  0  0  0
  -27.3824  -28.8350   19.1492 N   0  0  0  0  0  0  0  0  0  0  0  0
  -24.0293  -30.4348   21.7169 N   0  0  0  0  0  0  0  0  0  0  0  0
  -23.6377  -13.3357   20.1262 N   0  0  0  0  0  0  0  0  0  0  0  0
  -22.6528  -19.7645   19.2683 N   0  0  0  0  0  0  0  0  0  0  0  0
  -30.8940  -23.5486   18.0815 N   0  0  0  0  0  0  0  0  0  0  0  0
  -23.5943  -22.5873   21.3208 N   0  3  0  0  0  0  0  0  0  0  0  0
  -32.7542  -18.8139   20.5301 N   0  3  0  0  0  0  0  0  0  0  0  0
  -25.9115  -31.0114   20.5407 O   0  0  0  0  0  0  0  0  0  0  0  0
  -25.0480  -14.6274   18.7976 O   0  0  0  0  0  0  0  0  0  0  0  0
  -21.9055  -17.0735   19.9076 O   0  0  0  0  0  0  0  0  0  0  0  0
  -24.6815  -20.8838   19.3632 O   0  0  0  0  0  0  0  0  0  0  0  0
  -30.8353  -25.5133   19.2611 O   0  0  0  0  0  0  0  0  0  0  0  0
  -19.8767  -27.4600   23.9400 O   0  0  0  0  0  0  0  0  0  0  0  0
  -30.3690  -17.2715   20.3403 O   0  0  0  0  0  0  0  0  0  1  0  0
  -16.0741  -31.3523   23.0490 F   0  0  0  0  0  0  0  0  0  0  0  0
  -17.3139  -26.7852   23.1532 F   0  0  0  0  0  0  0  0  0  0  0  0
  1  2  1  0  0  0  0
  1  6  2  0  0  0  0
  2  7  2  0  0  0  0
  3  9  1  0  0  0  0
  3 10  2  0  0  0  0
  4 11  2  0  0  0  0
  4 19  1  0  0  0  0
  5 12  1  0  0  0  0
  5 19  2  0  0  0  0
  6 21  1  0  0  0  0
  7 23  1  0  0  0  0
  8 13  2  0  0  0  0
  8 22  1  0  0  0  0
  9 25  2  0  0  0  0
 10 26  1  0  0  0  0
 11 27  1  0  0  0  0
 12 27  2  0  0  0  0
 13 28  1  0  0  0  0
 14 15  2  0  0  0  0
 14 29  1  0  0  0  0
 15 30  1  0  0  0  0
 16 24  1  0  0  0  0
 16 28  2  0  0  0  0
 17 25  1  0  0  0  0
 17 26  2  0  0  0  0
 18 30  2  0  0  0  0
 18 31  1  0  0  0  0
 19 32  1  0  0  0  0
 20 32  1  0  0  0  0
 20 33  2  0  0  0  0
 20 34  1  0  0  0  0
 21 23  2  0  0  0  0
 21 39  1  0  0  0  0
 22 24  2  0  0  0  0
 22 40  1  0  0  0  0
 23 48  1  0  0  0  0
 24 41  1  0  0  0  0
 25 56  1  0  0  0  0
 26 57  1  0  0  0  0
 27 79  1  0  0  0  0
 28 80  1  0  0  0  0
 29 31  2  0  0  0  0
 29 79  1  0  0  0  0
 30 81  1  0  0  0  0
 31 82  1  0  0  0  0
 32 63  2  0  0  0  0
 33 64  1  0  0  0  0
 33 67  1  0  0  0  0
 34 68  1  0  0  0  0
 34 74  2  0  0  0  0
 35 49  1  0  0  0  0
 35 69  1  0  0  0  0
 35 75  2  0  0  0  0
 36 60  1  0  0  0  0
 36 65  1  0  0  0  0
 36 76  2  0  0  0  0
 37 61  1  0  0  0  0
 37 70  1  0  0  0  0
 37 77  2  0  0  0  0
 38 66  1  0  0  0  0
 38 71  1  0  0  0  0
 38 78  2  0  0  0  0
 39 42  1  0  0  0  0
 40 49  1  0  0  0  0
 41 65  1  0  0  0  0
 42 44  1  0  0  0  0
 43 45  1  0  0  0  0
 43 46  1  0  0  0  0
 44 48  1  0  0  0  0
 45 50  1  0  0  0  0
 46 66  1  0  0  0  0
 47 50  1  0  0  0  0
 47 66  1  0  0  0  0
 48 69  1  0  0  0  0
 49 65  1  0  0  0  0
 50 64  1  0  0  0  0
 51 61  1  0  0  0  0
 52 62  1  0  0  0  0
 53 62  1  0  0  0  0
 54 62  1  0  0  0  0
 55 72  1  0  0  0  0
 56 71  1  0  0  0  0
 57 73  1  0  0  0  0
 58 59  1  0  0  0  0
 58 73  1  0  0  0  0
 59 80  1  0  0  0  0
 60 62  1  0  0  0  0
 60 70  1  0  0  0  0
 61 72  1  0  0  0  0
 63 64  1  0  0  0  0
M  CHG  2  72   1  73   1
M  ISO  4  38 100  59 101  71 100  80 101
M  END
> <Batch ID>
0005

> <Smiles>
CNC(C)C(=O)NC(C(=O)N1Cc2cc([101O:1][101CH2:1]CNCc3cccc(C[100NH:0][100C:0](=O)N4CCCC(n5nc(-c6ccc(Oc7ccc(F)cc7F)cc6)c(C(N)=O)c5N)C4)c3)ccc2CC1C(=O)NC1CCCc2ccccc21)C(C)(C)C

> <Shape>
0.231

> <Color>
0.074

> <Negative vol penalty>
0.000

$$$$

  -OEChem-04042320263D

 86 95  0     1  0  0  0  0  0999 V2000
  -18.8261  -18.3335   29.8606 C   0  0  0  0  0  0  0  0  0  0  0  0
  -19.8002  -19.3253   29.9268 C   0  0  0  0  0  0  0  0  0  0  0  0
  -31.5764  -26.3413   18.0189 C   0  0  0  0  0  0  0  0  0  0  0  0
  -30.9444  -25.3734   18.7930 C   0  0  0  0  0  0  0  0  0  0  0  0
  -19.0778  -17.1528   29.1613 C   0  0  0  0  0  0  0  0  0  0  0  0
  -21.0297  -19.1402   29.2940 C   0  0  0  0  0  0  0  0  0  0  0  0
  -27.7233  -17.0330   18.8759 C   0  0  0  0  0  0  0  0  0  0  0  0
  -28.5011  -16.8243   21.1537 C   0  0  0  0  0  0  0  0  0  0  0  0
  -31.3267  -27.6927   18.2539 C   0  0  0  0  0  0  0  0  0  0  0  0
  -30.0631  -25.7565   19.8034 C   0  0  0  0  0  0  0  0  0  0  0  0
  -24.9883  -22.8190   21.5710 C   0  0  0  0  0  0  0  0  0  0  0  0
  -28.5748  -18.1211   18.6848 C   0  0  0  0  0  0  0  0  0  0  0  0
  -29.3527  -17.9124   20.9626 C   0  0  0  0  0  0  0  0  0  0  0  0
  -24.7300  -21.9443   22.6254 C   0  0  0  0  0  0  0  0  0  0  0  0
  -31.4682  -20.8593   21.1866 C   0  0  0  0  0  0  0  0  0  0  0  0
  -31.5148  -21.8298   22.1874 C   0  0  0  0  0  0  0  0  0  0  0  0
  -20.5802  -15.7674   27.8099 C   0  0  0  0  0  0  0  0  0  0  0  0
  -23.9038  -23.7875   23.9442 C   0  0  0  0  0  0  0  0  0  0  0  0
  -22.7837  -16.5742   27.2432 C   0  0  0  0  0  0  0  0  0  0  0  0
  -29.1558  -22.2550   21.8846 C   0  0  0  0  0  0  0  0  0  0  0  0
  -20.3097  -16.9495   28.5182 C   0  0  0  0  0  0  0  0  0  0  0  0
  -21.3002  -17.9581   28.5856 C   0  0  0  0  0  0  0  0  0  0  0  0
  -27.6864  -16.3847   20.1104 C   0  0  0  0  0  0  0  0  0  0  0  0
  -27.0990  -13.9023   20.0844 C   0  0  0  0  0  0  0  0  0  0  0  0
  -30.4344  -28.0922   19.2613 C   0  0  0  0  0  0  0  0  0  0  0  0
  -24.7160  -24.1886   21.6994 C   0  0  0  0  0  0  0  0  0  0  0  0
  -29.8021  -27.1145   20.0530 C   0  0  0  0  0  0  0  0  0  0  0  0
  -24.1572  -24.6771   22.8890 C   0  0  0  0  0  0  0  0  0  0  0  0
  -21.8096  -15.5823   27.1770 C   0  0  0  0  0  0  0  0  0  0  0  0
  -22.5321  -17.7549   27.9425 C   0  0  0  0  0  0  0  0  0  0  0  0
  -29.3896  -18.5608   19.7281 C   0  0  0  0  0  0  0  0  0  0  0  0
  -24.1903  -22.4289   23.8133 C   0  0  0  0  0  0  0  0  0  0  0  0
  -30.2655  -20.5867   20.5347 C   0  0  0  0  0  0  0  0  0  0  0  0
  -30.3585  -22.5276   22.5364 C   0  0  0  0  0  0  0  0  0  0  0  0
  -29.1093  -21.2845   20.8838 C   0  0  0  0  0  0  0  0  0  0  0  0
  -26.8065  -15.2610   20.3086 C   0  0  0  0  0  0  0  0  0  0  0  0
  -25.9422  -13.2421   20.4198 C   0  0  0  0  0  0  0  0  0  0  0  0
  -28.3083  -13.2916   19.6150 C   0  0  0  0  0  0  0  0  0  0  0  0
  -26.4661  -26.8408   21.6180 C   0  0  0  0  0  0  0  0  0  0  0  0
  -23.5698  -28.2919   21.7858 C   0  0  0  0  0  0  0  0  0  0  0  0
  -20.2855  -28.1078   22.6947 C   0  0  0  0  0  0  0  0  0  0  0  0
  -21.3859  -14.5933   24.0619 C   0  0  0  0  0  0  0  0  0  0  0  0
  -30.2323  -29.5661   19.5094 C   0  0  0  0  0  0  0  0  0  0  0  0
  -24.9756  -25.1149   20.5431 C   0  0  0  0  0  0  0  0  0  0  0  0
  -23.8279  -26.1356   23.0701 C   0  0  0  0  0  0  0  0  0  0  0  0
  -28.9983  -29.8784   20.3519 C   0  0  0  0  0  0  0  0  0  0  0  0
  -21.1991  -13.8472   20.5855 C   0  0  0  0  0  0  0  0  0  0  0  0
  -28.9348  -28.9587   21.5671 C   0  0  0  0  0  0  0  0  0  0  0  0
  -22.6414  -14.0023   20.1001 C   0  0  0  0  0  0  0  0  0  0  0  0
  -20.8514  -14.8756   21.6596 C   0  0  0  0  0  0  0  0  0  0  0  0
  -23.2174  -15.0623   22.3235 C   0  0  0  0  0  0  0  0  0  0  0  0
  -28.8205  -27.4898   21.1419 C   0  0  1  0  0  0  0  0  0  0  0  0
  -25.1383  -26.5709   20.9687 C   0  0  1  0  0  0  0  0  0  0  0  0
  -23.6322  -14.0111   21.2798 C   0  0  2  0  0  0  0  0  0  0  0  0
  -18.1756  -29.4656   22.7421 C   0  0  0  0  0  0  0  0  0  0  0  0
  -24.6281  -29.8479   24.1876 C   0  0  0  0  0  0  0  0  0  0  0  0
  -22.2635  -30.4427   24.7560 C   0  0  0  0  0  0  0  0  0  0  0  0
  -23.2524  -31.1978   22.5939 C   0  0  0  0  0  0  0  0  0  0  0  0
  -18.8815  -26.2019   20.9184 C   0  0  0  0  0  0  0  0  0  0  0  0
  -22.0796  -14.3205   26.4291 C   0  0  0  0  0  0  0  0  0  0  0  0
  -23.6248  -18.7825   27.9736 C   0  0  0  0  0  0  0  0  0  0  0  0
  -24.3948  -21.0056   27.1349 C   0  0  0  0  0  0  0  0  0  0  0  0
  -24.0281  -22.1111   26.1646 C   0  0  0  0  0  0  0  0  0  1  0  0
  -22.6705  -28.7572   22.9054 C   0  0  1  0  0  0  0  0  0  0  0  0
  -19.0128  -28.4721   21.9517 C   0  0  2  0  0  0  0  0  0  0  0  0
  -23.2115  -30.0342   23.6084 C   0  0  0  0  0  0  0  0  0  0  0  0
  -25.5614  -15.4540   20.7519 N   0  0  0  0  0  0  0  0  0  0  0  0
  -25.0613  -14.2079   20.8090 N   0  0  0  0  0  0  0  0  0  0  0  0
  -24.1057  -27.0025   21.9130 N   0  0  0  0  0  0  0  0  0  0  0  0
  -21.8284  -14.8313   22.7502 N   0  0  0  0  0  0  0  0  0  0  0  0
  -25.6028  -11.9355   20.4167 N   0  0  0  0  0  0  0  0  0  0  0  0
  -29.4013  -14.1166   19.3166 N   0  0  0  0  0  0  0  0  0  0  0  0
  -27.4667  -27.1868   20.7299 N   0  0  0  0  0  0  0  0  0  0  0  0
  -21.3416  -28.9129   22.3238 N   0  0  0  0  0  0  0  0  0  0  0  0
  -22.3775  -14.5610   25.0347 N   0  0  0  0  0  0  0  0  0  0  0  0
  -18.1896  -27.2543   21.7063 N   0  3  0  0  0  0  0  0  0  0  0  0
  -23.3594  -19.9429   27.0810 N   0  3  0  0  0  0  0  0  0  0  0  0
  -28.4111  -12.0525   19.4490 O   0  0  0  0  0  0  0  0  0  0  0  0
  -26.5745  -26.7440   22.8348 O   0  0  0  0  0  0  0  0  0  0  0  0
  -23.7831  -29.0419   20.8300 O   0  0  0  0  0  0  0  0  0  0  0  0
  -20.3366  -27.2022   23.5240 O   0  0  0  0  0  0  0  0  0  0  0  0
  -20.1959  -14.4171   24.3443 O   0  0  0  0  0  0  0  0  0  0  0  0
  -30.2208  -19.6223   19.5419 O   0  0  0  0  0  0  0  0  0  0  0  0
  -23.9378  -21.5773   24.8443 O   0  0  0  0  0  0  0  0  0  1  0  0
  -30.4030  -23.4585   23.4986 F   0  0  0  0  0  0  0  0  0  0  0  0
  -27.9507  -21.0262   20.2619 F   0  0  0  0  0  0  0  0  0  0  0  0
  1  2  1  0  0  0  0
  1  5  2  0  0  0  0
  2  6  2  0  0  0  0
  3  4  1  0  0  0  0
  3  9  2  0  0  0  0
  4 10  2  0  0  0  0
  5 21  1  0  0  0  0
  6 22  1  0  0  0  0
  7 12  2  0  0  0  0
  7 23  1  0  0  0  0
  8 13  1  0  0  0  0
  8 23  2  0  0  0  0
  9 25  1  0  0  0  0
 10 27  1  0  0  0  0
 11 14  2  0  0  0  0
 11 26  1  0  0  0  0
 12 31  1  0  0  0  0
 13 31  2  0  0  0  0
 14 32  1  0  0  0  0
 15 16  2  0  0  0  0
 15 33  1  0  0  0  0
 16 34  1  0  0  0  0
 17 21  2  0  0  0  0
 17 29  1  0  0  0  0
 18 28  1  0  0  0  0
 18 32  2  0  0  0  0
 19 29  2  0  0  0  0
 19 30  1  0  0  0  0
 20 34  2  0  0  0  0
 20 35  1  0  0  0  0
 21 22  1  0  0  0  0
 22 30  2  0  0  0  0
 23 36  1  0  0  0  0
 24 36  1  0  0  0  0
 24 37  2  0  0  0  0
 24 38  1  0  0  0  0
 25 27  2  0  0  0  0
 25 43  1  0  0  0  0
 26 28  2  0  0  0  0
 26 44  1  0  0  0  0
 27 52  1  0  0  0  0
 28 45  1  0  0  0  0
 29 60  1  0  0  0  0
 30 61  1  0  0  0  0
 31 83  1  0  0  0  0
 32 84  1  0  0  0  0
 33 35  2  0  0  0  0
 33 83  1  0  0  0  0
 34 85  1  0  0  0  0
 35 86  1  0  0  0  0
 36 67  2  0  0  0  0
 37 68  1  0  0  0  0
 37 71  1  0  0  0  0
 38 72  1  0  0  0  0
 38 78  2  0  0  0  0
 39 53  1  0  0  0  0
 39 73  1  0  0  0  0
 39 79  2  0  0  0  0
 40 64  1  0  0  0  0
 40 69  1  0  0  0  0
 40 80  2  0  0  0  0
 41 65  1  0  0  0  0
 41 74  1  0  0  0  0
 41 81  2  0  0  0  0
 42 70  1  0  0  0  0
 42 75  1  0  0  0  0
 42 82  2  0  0  0  0
 43 46  1  0  0  0  0
 44 53  1  0  0  0  0
 45 69  1  0  0  0  0
 46 48  1  0  0  0  0
 47 49  1  0  0  0  0
 47 50  1  0  0  0  0
 48 52  1  0  0  0  0
 49 54  1  0  0  0  0
 50 70  1  0  0  0  0
 51 54  1  0  0  0  0
 51 70  1  0  0  0  0
 52 73  1  0  0  0  0
 53 69  1  0  0  0  0
 54 68  1  0  0  0  0
 55 65  1  0  0  0  0
 56 66  1  0  0  0  0
 57 66  1  0  0  0  0
 58 66  1  0  0  0  0
 59 76  1  0  0  0  0
 60 75  1  0  0  0  0
 61 77  1  0  0  0  0
 62 63  1  0  0  0  0
 62 77  1  0  0  0  0
 63 84  1  0  0  0  0
 64 66  1  0  0  0  0
 64 74  1  0  0  0  0
 65 76  1  0  0  0  0
 67 68  1  0  0  0  0
M  CHG  2  76   1  77   1
M  ISO  4  42 100  63 101  75 100  84 101
M  END
> <Batch ID>
0005

> <Smiles>
CNC(C)C(=O)NC(C(=O)N1Cc2cc([101O:1][101CH2:1]CNCc3cc(C[100NH:0][100C:0](=O)N4CCCC(n5nc(-c6ccc(Oc7ccc(F)cc7F)cc6)c(C(N)=O)c5N)C4)cc4ccccc34)ccc2CC1C(=O)NC1CCCc2ccccc21)C(C)(C)C

> <Shape>
0.231

> <Color>
0.050

> <Negative vol penalty>
0.000

$$$$

  -OEChem-04042320263D

 95105  0     1  0  0  0  0  0999 V2000
  -32.2622  -29.5839   13.4459 C   0  0  0  0  0  0  0  0  0  0  0  0
  -31.6391  -28.3469   13.5758 C   0  0  0  0  0  0  0  0  0  0  0  0
  -23.2015   -9.8925   19.8052 C   0  0  0  0  0  0  0  0  0  0  0  0
  -23.6628   -9.8350   22.1760 C   0  0  0  0  0  0  0  0  0  0  0  0
  -32.8243  -30.2008   14.5627 C   0  0  0  0  0  0  0  0  0  0  0  0
  -31.5786  -27.7255   14.8227 C   0  0  0  0  0  0  0  0  0  0  0  0
  -27.3596  -23.4580   18.7349 C   0  0  0  0  0  0  0  0  0  0  0  0
  -22.4242   -8.7409   19.9285 C   0  0  0  0  0  0  0  0  0  0  0  0
  -22.8855   -8.6834   22.2994 C   0  0  0  0  0  0  0  0  0  0  0  0
  -27.4080  -22.2707   19.4641 C   0  0  0  0  0  0  0  0  0  0  0  0
  -19.3098   -7.9377   20.9716 C   0  0  0  0  0  0  0  0  0  0  0  0
  -18.0751   -7.9164   20.3229 C   0  0  0  0  0  0  0  0  0  0  0  0
  -28.3437  -23.4670   21.3383 C   0  0  0  0  0  0  0  0  0  0  0  0
  -32.3268  -14.0108   23.7654 C   0  0  0  0  0  0  0  0  0  0  0  0
  -30.7278  -12.8813   25.1811 C   0  0  0  0  0  0  0  0  0  0  0  0
  -18.7860   -6.0014   19.0328 C   0  0  0  0  0  0  0  0  0  0  0  0
  -23.8209  -10.4395   20.9289 C   0  0  0  0  0  0  0  0  0  0  0  0
  -24.1920  -12.9634   20.9188 C   0  0  0  0  0  0  0  0  0  0  0  0
  -32.7622  -29.5912   15.8257 C   0  0  0  0  0  0  0  0  0  0  0  0
  -27.8139  -24.6588   19.2990 C   0  0  0  0  0  0  0  0  0  0  0  0
  -32.1415  -28.3342   15.9573 C   0  0  0  0  0  0  0  0  0  0  0  0
  -28.2977  -24.6686   20.6150 C   0  0  0  0  0  0  0  0  0  0  0  0
  -32.8524  -14.6640   24.8802 C   0  0  0  0  0  0  0  0  0  0  0  0
  -32.3157  -14.4258   26.1454 C   0  0  0  0  0  0  0  0  0  0  0  0
  -31.2644  -13.1195   23.9159 C   0  0  0  0  0  0  0  0  0  0  0  0
  -22.2662   -8.1364   21.1755 C   0  0  0  0  0  0  0  0  0  0  0  0
  -27.9028  -22.2746   20.7650 C   0  0  0  0  0  0  0  0  0  0  0  0
  -20.2826   -6.9908   20.6508 C   0  0  0  0  0  0  0  0  0  0  0  0
  -17.8132   -6.9483   19.3535 C   0  0  0  0  0  0  0  0  0  0  0  0
  -31.2533  -13.5344   26.2959 C   0  0  0  0  0  0  0  0  0  0  0  0
  -20.0206   -6.0227   19.6815 C   0  0  0  0  0  0  0  0  0  0  0  0
  -24.6244  -11.6288   20.8021 C   0  0  0  0  0  0  0  0  0  0  0  0
  -25.3265  -13.7108   20.7170 C   0  0  0  0  0  0  0  0  0  0  0  0
  -22.8819  -13.4812   21.1858 C   0  0  0  0  0  0  0  0  0  0  0  0
  -30.1201  -26.7327   18.6034 C   0  0  0  0  0  0  0  0  0  0  0  0
  -31.5633  -17.1367   23.3742 C   0  0  0  0  0  0  0  0  0  0  0  0
  -28.7712  -28.4436   21.0066 C   0  0  0  0  0  0  0  0  0  0  0  0
  -26.8822  -28.4550   23.8489 C   0  0  0  0  0  0  0  0  0  0  0  0
  -31.1465  -12.5783   21.4583 C   0  0  0  0  0  0  0  0  0  0  0  0
  -33.4255  -30.2746   16.9951 C   0  0  0  0  0  0  0  0  0  0  0  0
  -27.7301  -25.9358   18.5086 C   0  0  0  0  0  0  0  0  0  0  0  0
  -28.7786  -25.9348   21.2737 C   0  0  0  0  0  0  0  0  0  0  0  0
  -32.9897  -29.7232   18.3502 C   0  0  0  0  0  0  0  0  0  0  0  0
  -34.9576  -20.1022   22.6710 C   0  0  0  0  0  0  0  0  0  0  0  0
  -29.5398  -13.5834   18.4441 C   0  0  0  0  0  0  0  0  0  0  0  0
  -33.0123  -28.1981   18.3383 C   0  0  0  0  0  0  0  0  0  0  0  0
  -35.1415  -20.3194   24.1666 C   0  0  0  0  0  0  0  0  0  0  0  0
  -33.4520  -19.9273   22.5267 C   0  0  0  0  0  0  0  0  0  0  0  0
  -28.0570  -13.3233   18.7196 C   0  0  0  0  0  0  0  0  0  0  0  0
  -30.4302  -12.5170   19.0796 C   0  0  0  0  0  0  0  0  0  0  0  0
  -28.7231  -12.0351   20.7893 C   0  0  0  0  0  0  0  0  0  0  0  0
  -34.7221  -17.9853   25.1092 C   0  0  0  0  0  0  0  0  0  0  0  0
  -32.0339  -27.6400   17.2976 C   0  0  1  0  0  0  0  0  0  0  0  0
  -28.6975  -27.0078   19.0011 C   0  0  1  0  0  0  0  0  0  0  0  0
  -32.9640  -17.6250   23.5376 C   0  0  1  0  0  0  0  0  0  0  0  0
  -34.1427  -19.3615   24.8110 C   0  0  2  0  0  0  0  0  0  0  0  0
  -33.0305  -19.1365   23.7682 C   0  0  1  0  0  0  0  0  0  0  0  0
  -27.7907  -13.1188   20.2238 C   0  0  2  0  0  0  0  0  0  0  0  0
  -32.8648  -15.1141   27.3519 C   0  0  0  0  0  0  0  0  0  0  0  0
  -25.9833  -29.9995   25.6106 C   0  0  0  0  0  0  0  0  0  0  0  0
  -31.5365  -28.5872   22.2882 C   0  0  0  0  0  0  0  0  0  0  0  0
  -30.4327  -29.2750   24.4276 C   0  0  0  0  0  0  0  0  0  0  0  0
  -30.2234  -30.7127   22.3998 C   0  0  0  0  0  0  0  0  0  0  0  0
  -24.0801  -27.7898   23.1670 C   0  0  0  0  0  0  0  0  0  0  0  0
  -33.9953  -15.6180   24.6940 C   0  0  0  0  0  0  0  0  0  0  0  0
  -29.0871  -17.5740   20.8455 C   0  0  0  0  0  0  0  0  0  0  0  0
  -28.8562  -18.8812   21.6042 C   0  0  0  0  0  0  0  0  0  0  0  0
  -29.8484  -16.5440   21.6741 C   0  0  0  0  0  0  0  0  0  0  0  0
  -28.1306  -19.9074   20.7430 C   0  0  0  0  0  0  0  0  0  1  0  0
  -28.9643  -28.5226   22.5018 C   0  0  1  0  0  0  0  0  0  0  0  0
  -25.7115  -29.3214   24.2768 C   0  0  2  0  0  0  0  0  0  0  0  0
  -30.2821  -29.2500   22.8915 C   0  0  0  0  0  0  0  0  0  0  0  0
  -25.9316  -11.5309   20.5459 N   0  0  0  0  0  0  0  0  0  0  0  0
  -26.3303  -12.8134   20.4998 N   0  0  0  0  0  0  0  0  0  0  0  0
  -28.6825  -27.1565   20.4577 N   0  0  0  0  0  0  0  0  0  0  0  0
  -30.1247  -12.3815   20.5055 N   0  0  0  0  0  0  0  0  0  0  0  0
  -25.5533  -15.0415   20.7059 N   0  0  0  0  0  0  0  0  0  0  0  0
  -21.8292  -12.5740   21.3679 N   0  0  0  0  0  0  0  0  0  0  0  0
  -30.7305  -12.4556   22.7836 N   0  0  0  0  0  0  0  0  0  0  0  0
  -30.6762  -27.7052   17.7944 N   0  0  0  0  0  0  0  0  0  0  0  0
  -31.1565  -17.0008   22.0559 N   0  0  0  0  0  0  0  0  0  0  0  0
  -27.7578  -29.1443   23.0369 N   0  0  0  0  0  0  0  0  0  0  0  0
  -33.5835  -17.0526   24.7934 N   0  3  1  0  0  0  0  0  0  0  0  0
  -24.4782  -28.4958   24.4121 N   0  3  0  0  0  0  0  0  0  0  0  0
  -22.6485  -14.7123   21.2444 O   0  0  0  0  0  0  0  0  0  0  0  0
  -30.6729  -25.7144   19.0023 O   0  0  0  0  0  0  0  0  0  0  0  0
  -30.8880  -16.8948   24.3677 O   0  0  0  0  0  0  0  0  0  0  0  0
  -28.6946  -29.4856   20.3509 O   0  0  0  0  0  0  0  0  0  0  0  0
  -27.0093  -27.2849   24.2028 O   0  0  0  0  0  0  0  0  0  0  0  0
  -32.2993  -12.8635   21.1241 O   0  0  0  0  0  0  0  0  0  0  0  0
  -21.5075   -7.0128   21.2963 O   0  0  0  0  0  0  0  0  0  0  0  0
  -27.9517  -21.1170   21.4787 O   0  0  0  0  0  0  0  0  0  1  0  0
  -16.6270   -6.9270   18.7317 F   0  0  0  0  0  0  0  0  0  0  0  0
  -30.7321  -13.2965   27.5078 F   0  0  0  0  0  0  0  0  0  0  0  0
  -20.9508   -5.1097   19.3699 F   0  0  0  0  0  0  0  0  0  0  0  0
  1  2  1  0  0  0  0
  1  5  2  0  0  0  0
  2  6  2  0  0  0  0
  3  8  2  0  0  0  0
  3 17  1  0  0  0  0
  4  9  1  0  0  0  0
  4 17  2  0  0  0  0
  5 19  1  0  0  0  0
  6 21  1  0  0  0  0
  7 10  2  0  0  0  0
  7 20  1  0  0  0  0
  8 26  1  0  0  0  0
  9 26  2  0  0  0  0
 10 27  1  0  0  0  0
 11 12  2  0  0  0  0
 11 28  1  0  0  0  0
 12 29  1  0  0  0  0
 13 22  1  0  0  0  0
 13 27  2  0  0  0  0
 14 23  1  0  0  0  0
 14 25  2  0  0  0  0
 15 25  1  0  0  0  0
 15 30  2  0  0  0  0
 16 29  2  0  0  0  0
 16 31  1  0  0  0  0
 17 32  1  0  0  0  0
 18 32  1  0  0  0  0
 18 33  2  0  0  0  0
 18 34  1  0  0  0  0
 19 21  2  0  0  0  0
 19 40  1  0  0  0  0
 20 22  2  0  0  0  0
 20 41  1  0  0  0  0
 21 53  1  0  0  0  0
 22 42  1  0  0  0  0
 23 24  2  0  0  0  0
 23 65  1  0  0  0  0
 24 30  1  0  0  0  0
 24 59  1  0  0  0  0
 25 79  1  0  0  0  0
 26 91  1  0  0  0  0
 27 92  1  0  0  0  0
 28 31  2  0  0  0  0
 28 91  1  0  0  0  0
 29 93  1  0  0  0  0
 30 94  1  0  0  0  0
 31 95  1  0  0  0  0
 32 73  2  0  0  0  0
 33 74  1  0  0  0  0
 33 77  1  0  0  0  0
 34 78  1  0  0  0  0
 34 85  2  0  0  0  0
 35 54  1  0  0  0  0
 35 80  1  0  0  0  0
 35 86  2  0  0  0  0
 36 55  1  0  0  0  0
 36 81  1  0  0  0  0
 36 87  2  0  0  0  0
 37 70  1  0  0  0  0
 37 75  1  0  0  0  0
 37 88  2  0  0  0  0
 38 71  1  0  0  0  0
 38 82  1  0  0  0  0
 38 89  2  0  0  0  0
 39 76  1  0  0  0  0
 39 79  1  0  0  0  0
 39 90  2  0  0  0  0
 40 43  1  0  0  0  0
 41 54  1  0  0  0  0
 42 75  1  0  0  0  0
 43 46  1  0  0  0  0
 44 47  1  0  0  0  0
 44 48  1  0  0  0  0
 45 49  1  0  0  0  0
 45 50  1  0  0  0  0
 46 53  1  0  0  0  0
 47 56  1  0  0  0  0
 48 57  1  0  0  0  0
 49 58  1  0  0  0  0
 50 76  1  0  0  0  0
 51 58  1  0  0  0  0
 51 76  1  0  0  0  0
 52 56  1  0  0  0  0
 52 83  1  0  0  0  0
 53 80  1  0  0  0  0
 54 75  1  0  0  0  0
 55 57  1  0  0  0  0
 55 83  1  0  0  0  0
 56 57  1  0  0  0  0
 58 74  1  0  0  0  0
 60 71  1  0  0  0  0
 61 72  1  0  0  0  0
 62 72  1  0  0  0  0
 63 72  1  0  0  0  0
 64 84  1  0  0  0  0
 65 83  1  0  0  0  0
 66 67  1  0  0  0  0
 66 68  1  0  0  0  0
 67 69  1  0  0  0  0
 68 81  1  0  0  0  0
 69 92  1  0  0  0  0
 70 72  1  0  0  0  0
 70 82  1  0  0  0  0
 71 84  1  0  0  0  0
 73 74  1  0  0  0  0
M  CHG  2  83   1  84   1
M  ISO  4  39 100  69 101  79 100  92 101
M  END
> <Batch ID>
0005

> <Smiles>
CNC(C)C(=O)NC(C(=O)N1Cc2cc([101O:1][101CH2:1]CCCNC(=O)C3C4CCCC4CN3Cc3cc([100NH:0][100C:0](=O)N4CCCC(n5nc(-c6ccc(Oc7ccc(F)cc7F)cc6)c(C(N)=O)c5N)C4)cc(F)c3C)ccc2CC1C(=O)NC1CCCc2ccccc21)C(C)(C)C

> <Shape>
0.226

> <Color>
0.167

> <Negative vol penalty>
0.000

$$$$

  -OEChem-04042320263D

 87 95  0     1  0  0  0  0  0999 V2000
  -28.2769  -37.1450   21.6891 C   0  0  0  0  0  0  0  0  0  0  0  0
  -28.6526  -35.8803   21.2477 C   0  0  0  0  0  0  0  0  0  0  0  0
  -24.7059   -9.1579   21.8995 C   0  0  0  0  0  0  0  0  0  0  0  0
  -23.2347  -10.2104   20.2980 C   0  0  0  0  0  0  0  0  0  0  0  0
  -27.3542  -37.2745   22.7263 C   0  0  0  0  0  0  0  0  0  0  0  0
  -28.1065  -34.7442   21.8441 C   0  0  0  0  0  0  0  0  0  0  0  0
  -26.7606  -29.4346   19.1051 C   0  0  0  0  0  0  0  0  0  0  0  0
  -24.2032  -20.0031   17.4671 C   0  0  0  0  0  0  0  0  0  0  0  0
  -23.9583  -18.7298   16.9530 C   0  0  0  0  0  0  0  0  0  0  0  0
  -23.6028   -8.6029   22.5481 C   0  0  0  0  0  0  0  0  0  0  0  0
  -22.1315   -9.6553   20.9466 C   0  0  0  0  0  0  0  0  0  0  0  0
  -27.4426  -28.2213   19.0247 C   0  0  0  0  0  0  0  0  0  0  0  0
  -21.1967   -6.6146   24.4115 C   0  0  0  0  0  0  0  0  0  0  0  0
  -21.2697   -5.2715   24.7808 C   0  0  0  0  0  0  0  0  0  0  0  0
  -26.1539  -27.3806   20.8826 C   0  0  0  0  0  0  0  0  0  0  0  0
  -26.0422  -19.1254   18.7651 C   0  0  0  0  0  0  0  0  0  0  0  0
  -21.5711   -4.6512   22.4653 C   0  0  0  0  0  0  0  0  0  0  0  0
  -24.5218   -9.9618   20.7744 C   0  0  0  0  0  0  0  0  0  0  0  0
  -26.4021   -9.9688   19.0504 C   0  0  0  0  0  0  0  0  0  0  0  0
  -26.7893  -36.1396   23.3292 C   0  0  0  0  0  0  0  0  0  0  0  0
  -25.7760  -29.6342   20.0835 C   0  0  0  0  0  0  0  0  0  0  0  0
  -27.1764  -34.8586   22.8912 C   0  0  0  0  0  0  0  0  0  0  0  0
  -25.4590  -28.5965   20.9716 C   0  0  0  0  0  0  0  0  0  0  0  0
  -25.2452  -20.2010   18.3731 C   0  0  0  0  0  0  0  0  0  0  0  0
  -24.7554  -17.6543   17.3449 C   0  0  0  0  0  0  0  0  0  0  0  0
  -25.7973  -17.8521   18.2510 C   0  0  0  0  0  0  0  0  0  0  0  0
  -22.3156   -8.8515   22.0716 C   0  0  0  0  0  0  0  0  0  0  0  0
  -27.1414  -27.1951   19.9154 C   0  0  0  0  0  0  0  0  0  0  0  0
  -21.3109   -6.9760   23.0691 C   0  0  0  0  0  0  0  0  0  0  0  0
  -21.4569   -4.2898   23.8078 C   0  0  0  0  0  0  0  0  0  0  0  0
  -21.4981   -5.9943   22.0960 C   0  0  0  0  0  0  0  0  0  0  0  0
  -25.6609  -10.5359   20.1043 C   0  0  0  0  0  0  0  0  0  0  0  0
  -27.3712  -10.9012   18.7716 C   0  0  0  0  0  0  0  0  0  0  0  0
  -26.2298   -8.7115   18.3830 C   0  0  0  0  0  0  0  0  0  0  0  0
  -25.4202  -31.6274   22.5338 C   0  0  0  0  0  0  0  0  0  0  0  0
  -22.4892  -30.2507   22.7244 C   0  0  0  0  0  0  0  0  0  0  0  0
  -20.5041  -27.5574   22.0518 C   0  0  0  0  0  0  0  0  0  0  0  0
  -27.6897  -16.8168   19.5523 C   0  0  0  0  0  0  0  0  0  0  0  0
  -25.8315  -36.3291   24.4787 C   0  0  0  0  0  0  0  0  0  0  0  0
  -25.0307  -30.9394   20.1399 C   0  0  0  0  0  0  0  0  0  0  0  0
  -24.3962  -28.7531   22.0273 C   0  0  0  0  0  0  0  0  0  0  0  0
  -25.0172  -35.0799   24.8053 C   0  0  0  0  0  0  0  0  0  0  0  0
  -29.9338  -14.3742   20.8466 C   0  0  0  0  0  0  0  0  0  0  0  0
  -25.9204  -33.8516   24.8544 C   0  0  0  0  0  0  0  0  0  0  0  0
  -29.1625  -13.0603   20.7016 C   0  0  0  0  0  0  0  0  0  0  0  0
  -29.0126  -15.5344   21.2198 C   0  0  0  0  0  0  0  0  0  0  0  0
  -27.0816  -14.4009   20.1923 C   0  0  0  0  0  0  0  0  0  0  0  0
  -26.5875  -33.6027   23.4962 C   0  0  1  0  0  0  0  0  0  0  0  0
  -24.4067  -31.2127   21.5049 C   0  0  1  0  0  0  0  0  0  0  0  0
  -27.9574  -13.2160   19.7535 C   0  0  2  0  0  0  0  0  0  0  0  0
  -18.1629  -26.7092   22.3630 C   0  0  0  0  0  0  0  0  0  0  0  0
  -23.0962  -29.6578   25.6553 C   0  0  0  0  0  0  0  0  0  0  0  0
  -21.1996  -28.0235   25.6452 C   0  0  0  0  0  0  0  0  0  0  0  0
  -20.7630  -30.4408   25.2109 C   0  0  0  0  0  0  0  0  0  0  0  0
  -20.0593  -27.3715   19.1318 C   0  0  0  0  0  0  0  0  0  0  0  0
  -28.3483  -24.0942   18.4912 C   0  0  0  0  0  0  0  0  0  0  0  0
  -26.9375  -22.0390   18.6478 C   0  0  0  0  0  0  0  0  0  0  0  0
  -28.2701  -25.6069   18.5517 C   0  0  0  0  0  0  0  0  0  1  0  0
  -25.5100  -21.5820   18.9299 C   0  0  2  0  0  0  0  0  0  0  0  0
  -21.9157  -29.0518   23.4405 C   0  0  1  0  0  0  0  0  0  0  0  0
  -19.1170  -27.4554   21.4434 C   0  0  2  0  0  0  0  0  0  0  0  0
  -24.4695  -16.3013   16.7787 C   0  0  0  0  0  0  0  0  0  0  0  0
  -21.7651  -29.2909   24.9694 C   0  0  0  0  0  0  0  0  0  0  0  0
  -26.1200  -11.7356   20.4703 N   0  0  0  0  0  0  0  0  0  0  0  0
  -27.1601  -11.9299   19.6418 N   0  0  0  0  0  0  0  0  0  0  0  0
  -23.6998  -30.0501   22.0462 N   0  0  0  0  0  0  0  0  0  0  0  0
  -27.8966  -15.6231   20.2756 N   0  0  0  0  0  0  0  0  0  0  0  0
  -28.3750  -10.9332   17.8694 N   0  0  0  0  0  0  0  0  0  0  0  0
  -25.1839   -7.8743   18.7947 N   0  0  0  0  0  0  0  0  0  0  0  0
  -26.6184  -16.7724   18.6608 N   0  0  0  0  0  0  0  0  0  0  0  0
  -25.6519  -32.9889   22.5784 N   0  0  0  0  0  0  0  0  0  0  0  0
  -20.6661  -28.7293   22.7602 N   0  0  0  0  0  0  0  0  0  0  0  0
  -19.1746  -26.7340   20.1406 N   0  3  0  0  0  0  0  0  0  0  0  0
  -26.9955  -23.5243   18.7133 N   0  3  0  0  0  0  0  0  0  0  0  0
  -26.9912   -8.3343   17.4603 O   0  0  0  0  0  0  0  0  0  0  0  0
  -25.9515  -30.7753   23.2362 O   0  0  0  0  0  0  0  0  0  0  0  0
  -21.8817  -31.3237   22.7593 O   0  0  0  0  0  0  0  0  0  0  0  0
  -21.3572  -26.6833   21.9156 O   0  0  0  0  0  0  0  0  0  0  0  0
  -28.4265  -17.7963   19.6923 O   0  0  0  0  0  0  0  0  0  0  0  0
  -25.3009  -21.5299   20.3412 O   0  0  0  0  0  0  0  0  0  0  0  0
  -21.2390   -8.3099   22.7041 O   0  0  0  0  0  0  0  0  0  0  0  0
  -27.8060  -26.0100   19.8395 O   0  0  0  0  0  0  0  0  0  1  0  0
  -21.5285   -3.0002   24.1627 F   0  0  0  0  0  0  0  0  0  0  0  0
  -21.6096   -6.3355   20.8049 F   0  0  0  0  0  0  0  0  0  0  0  0
  -23.4171  -16.2858   15.9097 F   0  0  0  0  0  0  0  0  0  0  0  0
  -25.5168  -15.7705   16.0830 F   0  0  0  0  0  0  0  0  0  0  0  0
  -24.1651  -15.3855   17.7424 F   0  0  0  0  0  0  0  0  0  0  0  0
  1  2  1  0  0  0  0
  1  5  2  0  0  0  0
  2  6  2  0  0  0  0
  3 10  2  0  0  0  0
  3 18  1  0  0  0  0
  4 11  1  0  0  0  0
  4 18  2  0  0  0  0
  5 20  1  0  0  0  0
  6 22  1  0  0  0  0
  7 12  2  0  0  0  0
  7 21  1  0  0  0  0
  8  9  2  0  0  0  0
  8 24  1  0  0  0  0
  9 25  1  0  0  0  0
 10 27  1  0  0  0  0
 11 27  2  0  0  0  0
 12 28  1  0  0  0  0
 13 14  2  0  0  0  0
 13 29  1  0  0  0  0
 14 30  1  0  0  0  0
 15 23  1  0  0  0  0
 15 28  2  0  0  0  0
 16 24  2  0  0  0  0
 16 26  1  0  0  0  0
 17 30  2  0  0  0  0
 17 31  1  0  0  0  0
 18 32  1  0  0  0  0
 19 32  1  0  0  0  0
 19 33  2  0  0  0  0
 19 34  1  0  0  0  0
 20 22  2  0  0  0  0
 20 39  1  0  0  0  0
 21 23  2  0  0  0  0
 21 40  1  0  0  0  0
 22 48  1  0  0  0  0
 23 41  1  0  0  0  0
 24 59  1  0  0  0  0
 25 26  2  0  0  0  0
 25 62  1  0  0  0  0
 26 70  1  0  0  0  0
 27 81  1  0  0  0  0
 28 82  1  0  0  0  0
 29 31  2  0  0  0  0
 29 81  1  0  0  0  0
 30 83  1  0  0  0  0
 31 84  1  0  0  0  0
 32 64  2  0  0  0  0
 33 65  1  0  0  0  0
 33 68  1  0  0  0  0
 34 69  1  0  0  0  0
 34 75  2  0  0  0  0
 35 49  1  0  0  0  0
 35 71  1  0  0  0  0
 35 76  2  0  0  0  0
 36 60  1  0  0  0  0
 36 66  1  0  0  0  0
 36 77  2  0  0  0  0
 37 61  1  0  0  0  0
 37 72  1  0  0  0  0
 37 78  2  0  0  0  0
 38 67  1  0  0  0  0
 38 70  1  0  0  0  0
 38 79  2  0  0  0  0
 39 42  1  0  0  0  0
 40 49  1  0  0  0  0
 41 66  1  0  0  0  0
 42 44  1  0  0  0  0
 43 45  1  0  0  0  0
 43 46  1  0  0  0  0
 44 48  1  0  0  0  0
 45 50  1  0  0  0  0
 46 67  1  0  0  0  0
 47 50  1  0  0  0  0
 47 67  1  0  0  0  0
 48 71  1  0  0  0  0
 49 66  1  0  0  0  0
 50 65  1  0  0  0  0
 51 61  1  0  0  0  0
 52 63  1  0  0  0  0
 53 63  1  0  0  0  0
 54 63  1  0  0  0  0
 55 73  1  0  0  0  0
 56 58  1  0  0  0  0
 56 74  1  0  0  0  0
 57 59  1  0  0  0  0
 57 74  1  0  0  0  0
 58 82  1  0  0  0  0
 59 80  1  0  0  0  0
 60 63  1  0  0  0  0
 60 72  1  0  0  0  0
 61 73  1  0  0  0  0
 62 85  1  0  0  0  0
 62 86  1  0  0  0  0
 62 87  1  0  0  0  0
 64 65  1  0  0  0  0
M  CHG  2  73   1  74   1
M  ISO  4  38 100  58 101  70 100  82 101
M  END
> <Batch ID>
0005

> <Smiles>
CNC(C)C(=O)NC(C(=O)N1Cc2cc([101O:1][101CH2:1]CNCC(O)c3ccc(C(F)(F)F)c([100NH:0][100C:0](=O)N4CCCC(n5nc(-c6ccc(Oc7ccc(F)cc7F)cc6)c(C(N)=O)c5N)C4)c3)ccc2CC1C(=O)NC1CCCc2ccccc21)C(C)(C)C

> <Shape>
0.311

> <Color>
0.097

> <Negative vol penalty>
0.000

$$$$

  -OEChem-04042320263D

 89 98  0     1  0  0  0  0  0999 V2000
  -26.8911  -38.3843   26.6457 C   0  0  0  0  0  0  0  0  0  0  0  0
  -27.0051  -37.0615   27.0612 C   0  0  0  0  0  0  0  0  0  0  0  0
  -24.2340   -9.3415   19.7534 C   0  0  0  0  0  0  0  0  0  0  0  0
  -24.5452   -9.4772   22.1454 C   0  0  0  0  0  0  0  0  0  0  0  0
  -27.6815  -19.5098   25.0360 C   0  0  0  0  0  0  0  0  0  0  0  0
  -26.0242  -38.7146   25.6049 C   0  0  0  0  0  0  0  0  0  0  0  0
  -26.2514  -36.0683   26.4368 C   0  0  0  0  0  0  0  0  0  0  0  0
  -28.9752  -31.9278   25.3967 C   0  0  0  0  0  0  0  0  0  0  0  0
  -27.5779  -18.5336   24.0449 C   0  0  0  0  0  0  0  0  0  0  0  0
  -23.8695   -8.0008   19.8768 C   0  0  0  0  0  0  0  0  0  0  0  0
  -24.1807   -8.1365   22.2689 C   0  0  0  0  0  0  0  0  0  0  0  0
  -29.2364  -31.0556   26.4525 C   0  0  0  0  0  0  0  0  0  0  0  0
  -21.3282   -6.3246   22.2927 C   0  0  0  0  0  0  0  0  0  0  0  0
  -20.4351   -5.9884   23.3100 C   0  0  0  0  0  0  0  0  0  0  0  0
  -29.9843  -18.4525   23.8661 C   0  0  0  0  0  0  0  0  0  0  0  0
  -27.4505  -29.6192   25.6999 C   0  0  0  0  0  0  0  0  0  0  0  0
  -22.0879   -4.5129   24.2734 C   0  0  0  0  0  0  0  0  0  0  0  0
  -24.5719  -10.0797   20.8876 C   0  0  0  0  0  0  0  0  0  0  0  0
  -28.9422  -19.9650   25.4414 C   0  0  0  0  0  0  0  0  0  0  0  0
  -24.0983  -12.5851   20.8080 C   0  0  0  0  0  0  0  0  0  0  0  0
  -25.2667  -37.7236   24.9609 C   0  0  0  0  0  0  0  0  0  0  0  0
  -27.9409  -31.6573   24.4893 C   0  0  0  0  0  0  0  0  0  0  0  0
  -25.3726  -36.3859   25.3872 C   0  0  0  0  0  0  0  0  0  0  0  0
  -30.1038  -19.4382   24.8560 C   0  0  0  0  0  0  0  0  0  0  0  0
  -27.1799  -30.4883   24.6318 C   0  0  0  0  0  0  0  0  0  0  0  0
  -28.7270  -18.0051   23.4613 C   0  0  0  0  0  0  0  0  0  0  0  0
  -23.8428   -7.3983   21.1345 C   0  0  0  0  0  0  0  0  0  0  0  0
  -28.4721  -29.9026   26.6060 C   0  0  0  0  0  0  0  0  0  0  0  0
  -22.6011   -5.7548   22.2656 C   0  0  0  0  0  0  0  0  0  0  0  0
  -20.8149   -5.0826   24.3004 C   0  0  0  0  0  0  0  0  0  0  0  0
  -22.9810   -4.8490   23.2560 C   0  0  0  0  0  0  0  0  0  0  0  0
  -24.9491  -11.4646   20.7607 C   0  0  0  0  0  0  0  0  0  0  0  0
  -24.9364  -13.6600   20.6388 C   0  0  0  0  0  0  0  0  0  0  0  0
  -29.0384  -20.9904   26.5147 C   0  0  0  0  0  0  0  0  0  0  0  0
  -22.6774  -12.6487   20.9889 C   0  0  0  0  0  0  0  0  0  0  0  0
  -25.2448  -33.1222   23.6594 C   0  0  0  0  0  0  0  0  0  0  0  0
  -25.1138  -30.7735   21.4259 C   0  0  0  0  0  0  0  0  0  0  0  0
  -26.0436  -27.6334   20.4658 C   0  0  0  0  0  0  0  0  0  0  0  0
  -29.6595  -16.3804   21.7769 C   0  0  0  0  0  0  0  0  0  0  0  0
  -24.3078  -38.1357   23.8722 C   0  0  0  0  0  0  0  0  0  0  0  0
  -27.6893  -32.5946   23.3401 C   0  0  0  0  0  0  0  0  0  0  0  0
  -26.0713  -30.1418   23.6730 C   0  0  0  0  0  0  0  0  0  0  0  0
  -23.8241  -36.9701   23.0133 C   0  0  0  0  0  0  0  0  0  0  0  0
  -29.8055  -13.8568   19.2694 C   0  0  0  0  0  0  0  0  0  0  0  0
  -23.4066  -35.7959   23.8930 C   0  0  0  0  0  0  0  0  0  0  0  0
  -28.4850  -13.1017   19.4377 C   0  0  0  0  0  0  0  0  0  0  0  0
  -30.3774  -14.3056   20.6130 C   0  0  0  0  0  0  0  0  0  0  0  0
  -31.3784  -21.3647   25.7449 C   0  0  0  0  0  0  0  0  0  0  0  0
  -28.1315  -14.3169   21.6252 C   0  0  0  0  0  0  0  0  0  0  0  0
  -31.4672  -19.9042   25.3030 C   0  0  1  0  0  0  0  0  0  0  0  0
  -24.5902  -35.2766   24.7182 C   0  0  1  0  0  0  0  0  0  0  0  0
  -26.2767  -32.4814   22.7750 C   0  0  1  0  0  0  0  0  0  0  0  0
  -27.4838  -13.9013   20.2943 C   0  0  2  0  0  0  0  0  0  0  0  0
  -32.0136  -19.0050   26.4145 C   0  0  0  0  0  0  0  0  0  0  0  0
  -25.7494  -25.9738   18.6065 C   0  0  0  0  0  0  0  0  0  0  0  0
  -22.3087  -30.1351   22.4427 C   0  0  0  0  0  0  0  0  0  0  0  0
  -22.4507  -27.9397   21.2477 C   0  0  0  0  0  0  0  0  0  0  0  0
  -22.5564  -30.0705   19.9549 C   0  0  0  0  0  0  0  0  0  0  0  0
  -28.9434  -27.6065   19.8750 C   0  0  0  0  0  0  0  0  0  0  0  0
  -30.4511  -25.1060   28.1592 C   0  0  0  0  0  0  0  0  0  0  0  0
  -30.1909  -26.4983   27.5809 C   0  0  0  0  0  0  0  0  0  0  0  0
  -30.2566  -24.0188   27.1021 C   0  0  0  0  0  0  0  0  0  0  0  0
  -30.3572  -27.5831   28.6489 C   0  0  0  0  0  0  0  0  0  0  0  0
  -30.4787  -22.6297   27.6880 C   0  0  0  0  0  0  0  0  0  0  0  0
  -30.0706  -28.9772   28.1041 C   0  0  0  0  0  0  0  0  0  1  0  0
  -24.5336  -29.3809   21.3717 C   0  0  1  0  0  0  0  0  0  0  0  0
  -26.6041  -27.1045   19.1579 C   0  0  2  0  0  0  0  0  0  0  0  0
  -22.9819  -29.3888   21.2736 C   0  0  0  0  0  0  0  0  0  0  0  0
  -26.2295  -11.7968   20.5757 N   0  0  0  0  0  0  0  0  0  0  0  0
  -26.1894  -13.1382   20.5053 N   0  0  0  0  0  0  0  0  0  0  0  0
  -30.2879  -21.5906   26.6882 N   0  0  0  0  0  0  0  0  0  0  0  0
  -25.8598  -31.0929   22.5693 N   0  0  0  0  0  0  0  0  0  0  0  0
  -29.3745  -15.0606   21.3673 N   0  0  0  0  0  0  0  0  0  0  0  0
  -24.7164  -14.9911   20.5927 N   0  0  0  0  0  0  0  0  0  0  0  0
  -21.9698  -11.4494   21.1482 N   0  0  0  0  0  0  0  0  0  0  0  0
  -28.6184  -17.0100   22.4584 N   0  0  0  0  0  0  0  0  0  0  0  0
  -25.4627  -34.4661   23.8958 N   0  0  0  0  0  0  0  0  0  0  0  0
  -25.1990  -28.7043   20.2635 N   0  0  0  0  0  0  0  0  0  0  0  0
  -27.9893  -26.5922   19.3575 N   0  3  0  0  0  0  0  0  0  0  0  0
  -28.0408  -21.2454   27.1853 O   0  0  0  0  0  0  0  0  0  0  0  0
  -22.0515  -13.7358   20.9922 O   0  0  0  0  0  0  0  0  0  0  0  0
  -24.3185  -32.4477   24.0939 O   0  0  0  0  0  0  0  0  0  0  0  0
  -24.9185  -31.5470   20.4850 O   0  0  0  0  0  0  0  0  0  0  0  0
  -26.3238  -27.1429   21.5573 O   0  0  0  0  0  0  0  0  0  0  0  0
  -30.7368  -16.9223   21.5168 O   0  0  0  0  0  0  0  0  0  0  0  0
  -23.4869   -6.0902   21.2554 O   0  0  0  0  0  0  0  0  0  0  0  0
  -28.7245  -29.0500   27.6361 O   0  0  0  0  0  0  0  0  0  1  0  0
  -19.9577   -4.7611   25.2781 F   0  0  0  0  0  0  0  0  0  0  0  0
  -24.2030   -4.2993   23.2360 F   0  0  0  0  0  0  0  0  0  0  0  0
  1  2  1  0  0  0  0
  1  6  2  0  0  0  0
  2  7  2  0  0  0  0
  3 10  2  0  0  0  0
  3 18  1  0  0  0  0
  4 11  1  0  0  0  0
  4 18  2  0  0  0  0
  5  9  2  0  0  0  0
  5 19  1  0  0  0  0
  6 21  1  0  0  0  0
  7 23  1  0  0  0  0
  8 12  2  0  0  0  0
  8 22  1  0  0  0  0
  9 26  1  0  0  0  0
 10 27  1  0  0  0  0
 11 27  2  0  0  0  0
 12 28  1  0  0  0  0
 13 14  2  0  0  0  0
 13 29  1  0  0  0  0
 14 30  1  0  0  0  0
 15 24  1  0  0  0  0
 15 26  2  0  0  0  0
 16 25  1  0  0  0  0
 16 28  2  0  0  0  0
 17 30  2  0  0  0  0
 17 31  1  0  0  0  0
 18 32  1  0  0  0  0
 19 24  2  0  0  0  0
 19 34  1  0  0  0  0
 20 32  1  0  0  0  0
 20 33  2  0  0  0  0
 20 35  1  0  0  0  0
 21 23  2  0  0  0  0
 21 40  1  0  0  0  0
 22 25  2  0  0  0  0
 22 41  1  0  0  0  0
 23 51  1  0  0  0  0
 24 50  1  0  0  0  0
 25 42  1  0  0  0  0
 26 76  1  0  0  0  0
 27 86  1  0  0  0  0
 28 87  1  0  0  0  0
 29 31  2  0  0  0  0
 29 86  1  0  0  0  0
 30 88  1  0  0  0  0
 31 89  1  0  0  0  0
 32 69  2  0  0  0  0
 33 70  1  0  0  0  0
 33 74  1  0  0  0  0
 34 71  1  0  0  0  0
 34 80  2  0  0  0  0
 35 75  1  0  0  0  0
 35 81  2  0  0  0  0
 36 52  1  0  0  0  0
 36 77  1  0  0  0  0
 36 82  2  0  0  0  0
 37 66  1  0  0  0  0
 37 72  1  0  0  0  0
 37 83  2  0  0  0  0
 38 67  1  0  0  0  0
 38 78  1  0  0  0  0
 38 84  2  0  0  0  0
 39 73  1  0  0  0  0
 39 76  1  0  0  0  0
 39 85  2  0  0  0  0
 40 43  1  0  0  0  0
 41 52  1  0  0  0  0
 42 72  1  0  0  0  0
 43 45  1  0  0  0  0
 44 46  1  0  0  0  0
 44 47  1  0  0  0  0
 45 51  1  0  0  0  0
 46 53  1  0  0  0  0
 47 73  1  0  0  0  0
 48 50  1  0  0  0  0
 48 71  1  0  0  0  0
 49 53  1  0  0  0  0
 49 73  1  0  0  0  0
 50 54  1  0  0  0  0
 51 77  1  0  0  0  0
 52 72  1  0  0  0  0
 53 70  1  0  0  0  0
 55 67  1  0  0  0  0
 56 68  1  0  0  0  0
 57 68  1  0  0  0  0
 58 68  1  0  0  0  0
 59 79  1  0  0  0  0
 60 61  1  0  0  0  0
 60 62  1  0  0  0  0
 61 63  1  0  0  0  0
 62 64  1  0  0  0  0
 63 65  1  0  0  0  0
 64 71  1  0  0  0  0
 65 87  1  0  0  0  0
 66 68  1  0  0  0  0
 66 78  1  0  0  0  0
 67 79  1  0  0  0  0
 69 70  1  0  0  0  0
M  CHG  1  79   1
M  ISO  4  39 100  65 101  76 100  87 101
M  END
> <Batch ID>
0005

> <Smiles>
CNC(C)C(=O)NC(C(=O)N1Cc2cc([101O:1][101CH2:1]CCCCCN3CC(C)c4cc([100NH:0][100C:0](=O)N5CCCC(n6nc(-c7ccc(Oc8ccc(F)cc8F)cc7)c(C(N)=O)c6N)C5)ccc4C3=O)ccc2CC1C(=O)NC1CCCc2ccccc21)C(C)(C)C

> <Shape>
0.324

> <Color>
0.114

> <Negative vol penalty>
0.000

$$$$

  -OEChem-04042320263D

 91101  0     1  0  0  0  0  0999 V2000
  -28.6215  -37.4585   24.2299 C   0  0  0  0  0  0  0  0  0  0  0  0
  -29.0216  -36.2888   23.5918 C   0  0  0  0  0  0  0  0  0  0  0  0
  -26.7812  -17.7506   14.9126 C   0  0  0  0  0  0  0  0  0  0  0  0
  -26.6962  -19.1296   14.7212 C   0  0  0  0  0  0  0  0  0  0  0  0
  -21.8786  -12.6121   21.7588 C   0  0  0  0  0  0  0  0  0  0  0  0
  -22.1527  -14.3630   20.1167 C   0  0  0  0  0  0  0  0  0  0  0  0
  -27.5355  -37.4380   25.1040 C   0  0  0  0  0  0  0  0  0  0  0  0
  -28.3366  -35.0976   23.8284 C   0  0  0  0  0  0  0  0  0  0  0  0
  -27.2982  -30.5886   19.8164 C   0  0  0  0  0  0  0  0  0  0  0  0
  -27.7054  -17.2275   15.8170 C   0  0  0  0  0  0  0  0  0  0  0  0
  -27.5356  -19.9856   15.4341 C   0  0  0  0  0  0  0  0  0  0  0  0
  -20.5351  -12.9580   21.9035 C   0  0  0  0  0  0  0  0  0  0  0  0
  -20.8091  -14.7089   20.2613 C   0  0  0  0  0  0  0  0  0  0  0  0
  -27.9378  -29.3712   19.5873 C   0  0  0  0  0  0  0  0  0  0  0  0
  -18.7333  -15.3402   23.4857 C   0  0  0  0  0  0  0  0  0  0  0  0
  -18.2239  -15.4303   24.7810 C   0  0  0  0  0  0  0  0  0  0  0  0
  -26.3104  -28.2610   20.9796 C   0  0  0  0  0  0  0  0  0  0  0  0
  -16.6120  -13.7056   24.2670 C   0  0  0  0  0  0  0  0  0  0  0  0
  -22.6874  -13.3146   20.8655 C   0  0  0  0  0  0  0  0  0  0  0  0
  -24.5946  -11.7162   20.3036 C   0  0  0  0  0  0  0  0  0  0  0  0
  -26.8308  -36.2478   25.3441 C   0  0  0  0  0  0  0  0  0  0  0  0
  -26.1643  -30.6532   20.6390 C   0  0  0  0  0  0  0  0  0  0  0  0
  -27.2410  -35.0608   24.7077 C   0  0  0  0  0  0  0  0  0  0  0  0
  -25.6567  -29.4801   21.2155 C   0  0  0  0  0  0  0  0  0  0  0  0
  -28.5448  -18.0836   16.5299 C   0  0  0  0  0  0  0  0  0  0  0  0
  -28.4599  -19.4626   16.3385 C   0  0  0  0  0  0  0  0  0  0  0  0
  -20.0004  -14.0064   21.1547 C   0  0  0  0  0  0  0  0  0  0  0  0
  -27.4456  -28.2076   20.1712 C   0  0  0  0  0  0  0  0  0  0  0  0
  -18.1820  -14.4328   22.5809 C   0  0  0  0  0  0  0  0  0  0  0  0
  -17.1633  -14.6129   25.1717 C   0  0  0  0  0  0  0  0  0  0  0  0
  -17.1214  -13.6155   22.9716 C   0  0  0  0  0  0  0  0  0  0  0  0
  -24.0755  -12.9581   20.7160 C   0  0  0  0  0  0  0  0  0  0  0  0
  -25.9569  -11.8893   20.3250 C   0  0  0  0  0  0  0  0  0  0  0  0
  -23.9067  -10.5136   19.9342 C   0  0  0  0  0  0  0  0  0  0  0  0
  -25.4559  -32.1144   23.3716 C   0  0  0  0  0  0  0  0  0  0  0  0
  -22.4879  -30.9504   22.7729 C   0  0  0  0  0  0  0  0  0  0  0  0
  -19.7272  -29.2271   21.7454 C   0  0  0  0  0  0  0  0  0  0  0  0
  -29.4610  -16.7211   19.8488 C   0  0  0  0  0  0  0  0  0  0  0  0
  -25.6928  -36.2650   26.3336 C   0  0  0  0  0  0  0  0  0  0  0  0
  -25.4702  -31.9700   20.8546 C   0  0  0  0  0  0  0  0  0  0  0  0
  -24.4307  -29.4926   22.0902 C   0  0  0  0  0  0  0  0  0  0  0  0
  -24.7873  -35.0394   26.2419 C   0  0  0  0  0  0  0  0  0  0  0  0
  -29.3791  -14.3929   22.5413 C   0  0  0  0  0  0  0  0  0  0  0  0
  -25.6210  -33.7640   26.1704 C   0  0  0  0  0  0  0  0  0  0  0  0
  -31.4667  -17.1044   15.7862 C   0  0  0  0  0  0  0  0  0  0  0  0
  -31.9680  -16.6424   17.1259 C   0  0  0  0  0  0  0  0  0  0  0  0
  -28.0574  -13.6491   22.3416 C   0  0  0  0  0  0  0  0  0  0  0  0
  -31.1906  -21.9984   17.0514 C   0  0  0  0  0  0  0  0  0  0  0  0
  -29.2588  -15.8682   22.1657 C   0  0  0  0  0  0  0  0  0  0  0  0
  -30.5918  -20.7120   16.4800 C   0  0  0  0  0  0  0  0  0  0  0  0
  -28.9219  -20.8128   18.3768 C   0  0  0  0  0  0  0  0  0  0  0  0
  -27.4094  -15.3778   20.6123 C   0  0  0  0  0  0  0  0  0  0  0  0
  -30.2556  -23.2016   16.9862 C   0  0  0  0  0  0  0  0  0  0  0  0
  -28.3050  -22.2029   18.2958 C   0  0  0  0  0  0  0  0  0  0  0  0
  -26.5078  -33.7540   24.9195 C   0  0  1  0  0  0  0  0  0  0  0  0
  -24.6255  -31.9993   22.1247 C   0  0  1  0  0  0  0  0  0  0  0  0
  -30.5007  -16.5685   16.8061 C   0  0  0  0  0  0  0  0  0  0  0  0
  -27.4959  -13.8741   20.9248 C   0  0  2  0  0  0  0  0  0  0  0  0
  -17.3527  -28.7419   22.3963 C   0  0  0  0  0  0  0  0  0  0  0  0
  -23.4733  -29.0121   24.9135 C   0  0  0  0  0  0  0  0  0  0  0  0
  -21.2284  -27.9057   24.8461 C   0  0  0  0  0  0  0  0  0  0  0  0
  -21.4188  -30.2958   25.5345 C   0  0  0  0  0  0  0  0  0  0  0  0
  -18.6751  -30.4495   19.2640 C   0  0  0  0  0  0  0  0  0  0  0  0
  -29.7524  -25.6129   18.9787 C   0  0  0  0  0  0  0  0  0  0  0  0
  -28.7598  -24.6431   18.3555 C   0  0  0  0  0  0  0  0  0  0  0  0
  -29.2210  -27.0351   19.1086 C   0  0  0  0  0  0  0  0  0  1  0  0
  -29.5254  -17.4960   17.4920 C   0  0  2  0  0  0  0  0  0  0  0  0
  -21.7524  -29.6749   23.1065 C   0  0  1  0  0  0  0  0  0  0  0  0
  -18.2760  -29.6466   21.5952 C   0  0  2  0  0  0  0  0  0  0  0  0
  -21.9839  -29.2245   24.5765 C   0  0  0  0  0  0  0  0  0  0  0  0
  -25.0303  -13.8540   20.9801 N   0  0  0  0  0  0  0  0  0  0  0  0
  -26.1630  -13.1743   20.7332 N   0  0  0  0  0  0  0  0  0  0  0  0
  -29.2940  -20.3363   17.0450 N   0  0  3  0  0  0  0  0  0  0  0  0
  -23.7910  -30.8056   22.2761 N   0  0  0  0  0  0  0  0  0  0  0  0
  -28.7221  -16.0122   20.8103 N   0  0  0  0  0  0  0  0  0  0  0  0
  -26.9867  -11.0663   20.0342 N   0  0  0  0  0  0  0  0  0  0  0  0
  -23.5568  -10.3303   18.5896 N   0  0  0  0  0  0  0  0  0  0  0  0
  -25.7269  -33.4158   23.7489 N   0  0  0  0  0  0  0  0  0  0  0  0
  -20.3532  -29.9099   22.7668 N   0  0  0  0  0  0  0  0  0  0  0  0
  -28.8833  -16.8049   18.5879 N   0  0  0  0  0  0  0  0  0  0  0  0
  -29.3738  -23.2706   18.2150 N   0  3  2  0  0  0  0  0  0  0  0  0
  -17.8655  -29.5882   20.1638 N   0  3  0  0  0  0  0  0  0  0  0  0
  -23.5967   -9.6354   20.7746 O   0  0  0  0  0  0  0  0  0  0  0  0
  -25.8224  -31.0978   23.9494 O   0  0  0  0  0  0  0  0  0  0  0  0
  -21.9244  -32.0349   22.9400 O   0  0  0  0  0  0  0  0  0  0  0  0
  -20.2519  -28.3759   21.0308 O   0  0  0  0  0  0  0  0  0  0  0  0
  -30.5571  -17.2361   20.0943 O   0  0  0  0  0  0  0  0  0  0  0  0
  -18.6894  -14.3441   21.2955 O   0  0  0  0  0  0  0  0  0  0  0  0
  -28.0684  -27.0181   19.9498 O   0  0  0  0  0  0  0  0  0  1  0  0
  -16.6752  -14.6985   26.4162 F   0  0  0  0  0  0  0  0  0  0  0  0
  -16.5884  -12.7411   22.1073 F   0  0  0  0  0  0  0  0  0  0  0  0
  1  2  1  0  0  0  0
  1  7  2  0  0  0  0
  2  8  2  0  0  0  0
  3  4  1  0  0  0  0
  3 10  2  0  0  0  0
  4 11  2  0  0  0  0
  5 12  2  0  0  0  0
  5 19  1  0  0  0  0
  6 13  1  0  0  0  0
  6 19  2  0  0  0  0
  7 21  1  0  0  0  0
  8 23  1  0  0  0  0
  9 14  2  0  0  0  0
  9 22  1  0  0  0  0
 10 25  1  0  0  0  0
 11 26  1  0  0  0  0
 12 27  1  0  0  0  0
 13 27  2  0  0  0  0
 14 28  1  0  0  0  0
 15 16  2  0  0  0  0
 15 29  1  0  0  0  0
 16 30  1  0  0  0  0
 17 24  1  0  0  0  0
 17 28  2  0  0  0  0
 18 30  2  0  0  0  0
 18 31  1  0  0  0  0
 19 32  1  0  0  0  0
 20 32  1  0  0  0  0
 20 33  2  0  0  0  0
 20 34  1  0  0  0  0
 21 23  2  0  0  0  0
 21 39  1  0  0  0  0
 22 24  2  0  0  0  0
 22 40  1  0  0  0  0
 23 55  1  0  0  0  0
 24 41  1  0  0  0  0
 25 26  2  0  0  0  0
 25 67  1  0  0  0  0
 26 73  1  0  0  0  0
 27 88  1  0  0  0  0
 28 89  1  0  0  0  0
 29 31  2  0  0  0  0
 29 88  1  0  0  0  0
 30 90  1  0  0  0  0
 31 91  1  0  0  0  0
 32 71  2  0  0  0  0
 33 72  1  0  0  0  0
 33 76  1  0  0  0  0
 34 77  1  0  0  0  0
 34 83  2  0  0  0  0
 35 56  1  0  0  0  0
 35 78  1  0  0  0  0
 35 84  2  0  0  0  0
 36 68  1  0  0  0  0
 36 74  1  0  0  0  0
 36 85  2  0  0  0  0
 37 69  1  0  0  0  0
 37 79  1  0  0  0  0
 37 86  2  0  0  0  0
 38 75  1  0  0  0  0
 38 80  1  0  0  0  0
 38 87  2  0  0  0  0
 39 42  1  0  0  0  0
 40 56  1  0  0  0  0
 41 74  1  0  0  0  0
 42 44  1  0  0  0  0
 43 47  1  0  0  0  0
 43 49  1  0  0  0  0
 44 55  1  0  0  0  0
 45 46  1  0  0  0  0
 45 57  1  0  0  0  0
 46 57  1  0  0  0  0
 47 58  1  0  0  0  0
 48 50  1  0  0  0  0
 48 53  1  0  0  0  0
 49 75  1  0  0  0  0
 50 73  1  0  0  0  0
 51 54  1  0  0  0  0
 51 73  1  0  0  0  0
 52 58  1  0  0  0  0
 52 75  1  0  0  0  0
 53 81  1  0  0  0  0
 54 81  1  0  0  0  0
 55 78  1  0  0  0  0
 56 74  1  0  0  0  0
 57 67  1  0  0  0  0
 58 72  1  0  0  0  0
 59 69  1  0  0  0  0
 60 70  1  0  0  0  0
 61 70  1  0  0  0  0
 62 70  1  0  0  0  0
 63 82  1  0  0  0  0
 64 65  1  0  0  0  0
 64 66  1  0  0  0  0
 65 81  1  0  0  0  0
 66 89  1  0  0  0  0
 67 80  1  0  0  0  0
 68 70  1  0  0  0  0
 68 79  1  0  0  0  0
 69 82  1  0  0  0  0
 71 72  1  0  0  0  0
M  CHG  2  81   1  82   1
M  ISO  4  38 100  66 101  80 100  89 101
M  END
> <Batch ID>
0005

> <Smiles>
CNC(C)C(=O)NC(C(=O)N1Cc2cc([101O:1][101CH2:1]CCN3CCCN(c4ccccc4C([100NH:0][100C:0](=O)N4CCCC(n5nc(-c6ccc(Oc7ccc(F)cc7F)cc6)c(C(N)=O)c5N)C4)C4CC4)CC3)ccc2CC1C(=O)NC1CCCc2ccccc21)C(C)(C)C

> <Shape>
0.275

> <Color>
0.082

> <Negative vol penalty>
0.000

$$$$

  -OEChem-04042320263D

 92102  0     1  0  0  0  0  0999 V2000
  -26.7871  -37.6178   18.4394 C   0  0  0  0  0  0  0  0  0  0  0  0
  -27.2946  -36.3947   18.0130 C   0  0  0  0  0  0  0  0  0  0  0  0
  -30.7948  -19.3843   24.2174 C   0  0  0  0  0  0  0  0  0  0  0  0
  -29.7430  -20.1489   24.7229 C   0  0  0  0  0  0  0  0  0  0  0  0
  -26.8247  -18.5344   23.0930 C   0  0  0  0  0  0  0  0  0  0  0  0
  -23.7724   -9.6597   19.9800 C   0  0  0  0  0  0  0  0  0  0  0  0
  -24.0219  -10.0169   22.3564 C   0  0  0  0  0  0  0  0  0  0  0  0
  -26.2777  -37.7478   19.7308 C   0  0  0  0  0  0  0  0  0  0  0  0
  -27.2940  -35.3011   18.8780 C   0  0  0  0  0  0  0  0  0  0  0  0
  -26.6623  -28.1655   18.8556 C   0  0  0  0  0  0  0  0  0  0  0  0
  -25.7730  -19.2991   23.5986 C   0  0  0  0  0  0  0  0  0  0  0  0
  -30.5352  -18.3367   23.3388 C   0  0  0  0  0  0  0  0  0  0  0  0
  -23.2345   -8.3965   20.2263 C   0  0  0  0  0  0  0  0  0  0  0  0
  -23.4839   -8.7537   22.6027 C   0  0  0  0  0  0  0  0  0  0  0  0
  -27.3194  -27.0246   19.3142 C   0  0  0  0  0  0  0  0  0  0  0  0
  -20.4226   -7.3249   22.6857 C   0  0  0  0  0  0  0  0  0  0  0  0
  -19.4615   -7.2162   23.6908 C   0  0  0  0  0  0  0  0  0  0  0  0
  -27.3450  -20.6336   24.8538 C   0  0  0  0  0  0  0  0  0  0  0  0
  -26.3413  -27.3455   21.4958 C   0  0  0  0  0  0  0  0  0  0  0  0
  -20.8788   -5.6607   24.8778 C   0  0  0  0  0  0  0  0  0  0  0  0
  -28.4159  -19.8743   24.3548 C   0  0  0  0  0  0  0  0  0  0  0  0
  -28.1518  -18.8090   23.4612 C   0  0  0  0  0  0  0  0  0  0  0  0
  -24.1662  -10.4698   21.0451 C   0  0  0  0  0  0  0  0  0  0  0  0
  -24.0219  -12.9908   20.6822 C   0  0  0  0  0  0  0  0  0  0  0  0
  -26.2620  -36.6526   20.6089 C   0  0  0  0  0  0  0  0  0  0  0  0
  -25.8470  -28.9124   19.7181 C   0  0  0  0  0  0  0  0  0  0  0  0
  -26.7852  -35.4169   20.1828 C   0  0  0  0  0  0  0  0  0  0  0  0
  -25.6729  -28.4940   21.0450 C   0  0  0  0  0  0  0  0  0  0  0  0
  -26.0326  -20.3467   24.4772 C   0  0  0  0  0  0  0  0  0  0  0  0
  -29.2228  -18.0497   22.9623 C   0  0  0  0  0  0  0  0  0  0  0  0
  -23.0903   -7.9435   21.5377 C   0  0  0  0  0  0  0  0  0  0  0  0
  -27.1613  -26.6161   20.6352 C   0  0  0  0  0  0  0  0  0  0  0  0
  -21.6117   -6.6015   22.7766 C   0  0  0  0  0  0  0  0  0  0  0  0
  -19.6896   -6.3841   24.7868 C   0  0  0  0  0  0  0  0  0  0  0  0
  -21.8399   -5.7694   23.8727 C   0  0  0  0  0  0  0  0  0  0  0  0
  -24.7224  -11.7746   20.7913 C   0  0  0  0  0  0  0  0  0  0  0  0
  -24.9965  -13.9278   20.4399 C   0  0  0  0  0  0  0  0  0  0  0  0
  -22.6160  -13.2503   20.7903 C   0  0  0  0  0  0  0  0  0  0  0  0
  -25.8922  -31.8901   20.8292 C   0  0  0  0  0  0  0  0  0  0  0  0
  -26.4228  -23.2455   22.7455 C   0  0  0  0  0  0  0  0  0  0  0  0
  -23.0254  -31.0481   22.0919 C   0  0  0  0  0  0  0  0  0  0  0  0
  -20.9509  -28.5599   23.1655 C   0  0  0  0  0  0  0  0  0  0  0  0
  -29.9917  -16.1467   21.5016 C   0  0  0  0  0  0  0  0  0  0  0  0
  -25.7445  -36.8539   22.0111 C   0  0  0  0  0  0  0  0  0  0  0  0
  -25.1238  -30.1256   19.2008 C   0  0  0  0  0  0  0  0  0  0  0  0
  -24.7926  -29.2495   22.0057 C   0  0  0  0  0  0  0  0  0  0  0  0
  -25.4371  -35.5484   22.7401 C   0  0  0  0  0  0  0  0  0  0  0  0
  -29.8916  -13.3651   19.2812 C   0  0  0  0  0  0  0  0  0  0  0  0
  -23.8936  -24.6759   24.3487 C   0  0  0  0  0  0  0  0  0  0  0  0
  -26.5813  -34.5554   22.5623 C   0  0  0  0  0  0  0  0  0  0  0  0
  -24.0607  -24.0592   22.9709 C   0  0  0  0  0  0  0  0  0  0  0  0
  -28.4802  -12.8034   19.4672 C   0  0  0  0  0  0  0  0  0  0  0  0
  -30.4733  -13.8836   20.5952 C   0  0  0  0  0  0  0  0  0  0  0  0
  -28.2163  -14.2856   21.4970 C   0  0  0  0  0  0  0  0  0  0  0  0
  -23.9121  -23.4711   25.2624 C   0  0  0  0  0  0  0  0  0  0  0  0
  -26.7792  -34.2009   21.0836 C   0  0  1  0  0  0  0  0  0  0  0  0
  -24.7264  -31.1003   20.3050 C   0  0  1  0  0  0  0  0  0  0  0  0
  -25.0334  -22.9006   23.1721 C   0  0  2  0  0  0  0  0  0  0  0  0
  -27.5634  -13.8106   20.1887 C   0  0  2  0  0  0  0  0  0  0  0  0
  -18.6871  -28.1835   24.1807 C   0  0  0  0  0  0  0  0  0  0  0  0
  -24.0907  -31.9635   24.8007 C   0  0  0  0  0  0  0  0  0  0  0  0
  -22.2122  -30.7122   25.8841 C   0  0  0  0  0  0  0  0  0  0  0  0
  -21.7186  -32.6085   24.3404 C   0  0  0  0  0  0  0  0  0  0  0  0
  -20.0455  -26.9667   20.8416 C   0  0  0  0  0  0  0  0  0  0  0  0
  -24.9005  -21.1681   25.0199 C   0  0  0  0  0  0  0  0  0  0  0  0
  -28.0052  -23.1210   20.8316 C   0  0  0  0  0  0  0  0  0  0  0  0
  -28.0536  -24.4691   20.1349 C   0  0  0  0  0  0  0  0  0  1  0  0
  -22.5702  -30.4260   23.3899 C   0  0  1  0  0  0  0  0  0  0  0  0
  -19.4843  -28.2820   22.8894 C   0  0  2  0  0  0  0  0  0  0  0  0
  -22.6661  -31.4142   24.5864 C   0  0  0  0  0  0  0  0  0  0  0  0
  -26.0402  -11.9224   20.6312 N   0  0  0  0  0  0  0  0  0  0  0  0
  -26.1755  -13.2425   20.4190 N   0  0  0  0  0  0  0  0  0  0  0  0
  -24.1118  -30.4326   21.4541 N   0  0  0  0  0  0  0  0  0  0  0  0
  -29.5524  -14.8358   21.2197 N   0  0  0  0  0  0  0  0  0  0  0  0
  -24.9513  -15.2628   20.2447 N   0  0  0  0  0  0  0  0  0  0  0  0
  -21.7551  -12.1733   21.0418 N   0  0  0  0  0  0  0  0  0  0  0  0
  -29.0191  -16.9720   22.0652 N   0  0  0  0  0  0  0  0  0  0  0  0
  -25.7725  -33.2552   20.6514 N   0  0  0  0  0  0  0  0  0  0  0  0
  -26.7253  -22.8809   21.4437 N   0  0  0  0  0  0  0  0  0  0  0  0
  -21.2271  -29.9107   23.1467 N   0  0  0  0  0  0  0  0  0  0  0  0
  -25.0068  -22.6175   24.6677 N   0  3  2  0  0  0  0  0  0  0  0  0
  -19.3313  -27.0008   22.1438 N   0  3  0  0  0  0  0  0  0  0  0  0
  -22.1356  -14.4007   20.6512 O   0  0  0  0  0  0  0  0  0  0  0  0
  -26.8303  -31.3045   21.3572 O   0  0  0  0  0  0  0  0  0  0  0  0
  -27.1756  -23.8051   23.5341 O   0  0  0  0  0  0  0  0  0  0  0  0
  -22.4342  -32.0392   21.6563 O   0  0  0  0  0  0  0  0  0  0  0  0
  -21.7689  -27.6682   23.3803 O   0  0  0  0  0  0  0  0  0  0  0  0
  -31.1376  -16.5184   21.2357 O   0  0  0  0  0  0  0  0  0  0  0  0
  -22.5652   -6.7111   21.7784 O   0  0  0  0  0  0  0  0  0  0  0  0
  -27.8021  -25.5032   21.0856 O   0  0  0  0  0  0  0  0  0  1  0  0
  -18.7673   -6.2810   25.7527 F   0  0  0  0  0  0  0  0  0  0  0  0
  -22.9809   -5.0729   23.9661 F   0  0  0  0  0  0  0  0  0  0  0  0
  1  2  1  0  0  0  0
  1  8  2  0  0  0  0
  2  9  2  0  0  0  0
  3  4  2  0  0  0  0
  3 12  1  0  0  0  0
  4 21  1  0  0  0  0
  5 11  2  0  0  0  0
  5 22  1  0  0  0  0
  6 13  2  0  0  0  0
  6 23  1  0  0  0  0
  7 14  1  0  0  0  0
  7 23  2  0  0  0  0
  8 25  1  0  0  0  0
  9 27  1  0  0  0  0
 10 15  2  0  0  0  0
 10 26  1  0  0  0  0
 11 29  1  0  0  0  0
 12 30  2  0  0  0  0
 13 31  1  0  0  0  0
 14 31  2  0  0  0  0
 15 32  1  0  0  0  0
 16 17  2  0  0  0  0
 16 33  1  0  0  0  0
 17 34  1  0  0  0  0
 18 21  1  0  0  0  0
 18 29  2  0  0  0  0
 19 28  1  0  0  0  0
 19 32  2  0  0  0  0
 20 34  2  0  0  0  0
 20 35  1  0  0  0  0
 21 22  2  0  0  0  0
 22 30  1  0  0  0  0
 23 36  1  0  0  0  0
 24 36  1  0  0  0  0
 24 37  2  0  0  0  0
 24 38  1  0  0  0  0
 25 27  2  0  0  0  0
 25 44  1  0  0  0  0
 26 28  2  0  0  0  0
 26 45  1  0  0  0  0
 27 56  1  0  0  0  0
 28 46  1  0  0  0  0
 29 65  1  0  0  0  0
 30 77  1  0  0  0  0
 31 89  1  0  0  0  0
 32 90  1  0  0  0  0
 33 35  2  0  0  0  0
 33 89  1  0  0  0  0
 34 91  1  0  0  0  0
 35 92  1  0  0  0  0
 36 71  2  0  0  0  0
 37 72  1  0  0  0  0
 37 75  1  0  0  0  0
 38 76  1  0  0  0  0
 38 83  2  0  0  0  0
 39 57  1  0  0  0  0
 39 78  1  0  0  0  0
 39 84  2  0  0  0  0
 40 58  1  0  0  0  0
 40 79  1  0  0  0  0
 40 85  2  0  0  0  0
 41 68  1  0  0  0  0
 41 73  1  0  0  0  0
 41 86  2  0  0  0  0
 42 69  1  0  0  0  0
 42 80  1  0  0  0  0
 42 87  2  0  0  0  0
 43 74  1  0  0  0  0
 43 77  1  0  0  0  0
 43 88  2  0  0  0  0
 44 47  1  0  0  0  0
 45 57  1  0  0  0  0
 46 73  1  0  0  0  0
 47 50  1  0  0  0  0
 48 52  1  0  0  0  0
 48 53  1  0  0  0  0
 49 51  1  0  0  0  0
 49 55  1  0  0  0  0
 50 56  1  0  0  0  0
 51 58  1  0  0  0  0
 52 59  1  0  0  0  0
 53 74  1  0  0  0  0
 54 59  1  0  0  0  0
 54 74  1  0  0  0  0
 55 81  1  0  0  0  0
 56 78  1  0  0  0  0
 57 73  1  0  0  0  0
 58 81  1  0  0  0  0
 59 72  1  0  0  0  0
 60 69  1  0  0  0  0
 61 70  1  0  0  0  0
 62 70  1  0  0  0  0
 63 70  1  0  0  0  0
 64 82  1  0  0  0  0
 65 81  1  0  0  0  0
 66 67  1  0  0  0  0
 66 79  1  0  0  0  0
 67 90  1  0  0  0  0
 68 70  1  0  0  0  0
 68 80  1  0  0  0  0
 69 82  1  0  0  0  0
 71 72  1  0  0  0  0
M  CHG  2  81   1  82   1
M  ISO  4  43 100  67 101  77 100  90 101
M  END
> <Batch ID>
0005

> <Smiles>
CNC(C)C(=O)NC(C(=O)N1Cc2cc([101O:1][101CH2:1]CNC(=O)C3CCCN3Cc3ccc4c([100NH:0][100C:0](=O)N5CCCC(n6nc(-c7ccc(Oc8ccc(F)cc8F)cc7)c(C(N)=O)c6N)C5)cccc4c3)ccc2CC1C(=O)NC1CCCc2ccccc21)C(C)(C)C

> <Shape>
0.299

> <Color>
0.151

> <Negative vol penalty>
0.000

$$$$

  -OEChem-04042320263D

 85 94  0     1  0  0  0  0  0999 V2000
  -25.5097  -27.3759   10.6132 C   0  0  0  0  0  0  0  0  0  0  0  0
  -26.3725  -27.0127   11.6423 C   0  0  0  0  0  0  0  0  0  0  0  0
  -23.0721   -9.8702   19.9118 C   0  0  0  0  0  0  0  0  0  0  0  0
  -23.8575   -9.8154   22.1959 C   0  0  0  0  0  0  0  0  0  0  0  0
  -24.2790  -27.9599   10.9103 C   0  0  0  0  0  0  0  0  0  0  0  0
  -26.0056  -27.2344   12.9692 C   0  0  0  0  0  0  0  0  0  0  0  0
  -26.9875  -23.2577   15.9468 C   0  0  0  0  0  0  0  0  0  0  0  0
  -31.2597  -19.1253   20.7653 C   0  0  0  0  0  0  0  0  0  0  0  0
  -31.0941  -17.7389   20.7146 C   0  0  0  0  0  0  0  0  0  0  0  0
  -22.3394   -8.7047   20.1358 C   0  0  0  0  0  0  0  0  0  0  0  0
  -23.1247   -8.6498   22.4200 C   0  0  0  0  0  0  0  0  0  0  0  0
  -28.3095  -23.0755   16.3503 C   0  0  0  0  0  0  0  0  0  0  0  0
  -19.9093   -7.8105   23.0340 C   0  0  0  0  0  0  0  0  0  0  0  0
  -19.1658   -7.7305   24.2114 C   0  0  0  0  0  0  0  0  0  0  0  0
  -29.4948  -17.8614   22.5091 C   0  0  0  0  0  0  0  0  0  0  0  0
  -27.7897  -24.0751   18.4834 C   0  0  0  0  0  0  0  0  0  0  0  0
  -20.4292   -5.7816   24.8768 C   0  0  0  0  0  0  0  0  0  0  0  0
  -23.8312  -10.4255   20.9419 C   0  0  0  0  0  0  0  0  0  0  0  0
  -24.1536  -12.9556   20.8927 C   0  0  0  0  0  0  0  0  0  0  0  0
  -23.8927  -28.1800   12.2418 C   0  0  0  0  0  0  0  0  0  0  0  0
  -26.0577  -23.8609   16.8059 C   0  0  0  0  0  0  0  0  0  0  0  0
  -24.7692  -27.8232   13.2843 C   0  0  0  0  0  0  0  0  0  0  0  0
  -29.6442  -19.2550   22.5567 C   0  0  0  0  0  0  0  0  0  0  0  0
  -26.4559  -24.2615   18.0893 C   0  0  0  0  0  0  0  0  0  0  0  0
  -30.5341  -19.9034   21.6819 C   0  0  0  0  0  0  0  0  0  0  0  0
  -30.2122  -17.1072   21.5849 C   0  0  0  0  0  0  0  0  0  0  0  0
  -22.3656   -8.0945   21.3899 C   0  0  0  0  0  0  0  0  0  0  0  0
  -28.7115  -23.4868   17.6177 C   0  0  0  0  0  0  0  0  0  0  0  0
  -20.9127   -6.8760   22.7779 C   0  0  0  0  0  0  0  0  0  0  0  0
  -19.4257   -6.7161   25.1328 C   0  0  0  0  0  0  0  0  0  0  0  0
  -21.1727   -5.8616   23.6993 C   0  0  0  0  0  0  0  0  0  0  0  0
  -24.5889  -11.6292   20.7110 C   0  0  0  0  0  0  0  0  0  0  0  0
  -25.2363  -13.7236   20.5397 C   0  0  0  0  0  0  0  0  0  0  0  0
  -29.8362  -22.1254   22.5329 C   0  0  0  0  0  0  0  0  0  0  0  0
  -22.8842  -13.4494   21.3405 C   0  0  0  0  0  0  0  0  0  0  0  0
  -24.2916  -26.5016   16.7017 C   0  0  0  0  0  0  0  0  0  0  0  0
  -23.0303  -25.2987   19.4375 C   0  0  0  0  0  0  0  0  0  0  0  0
  -23.4095  -23.2701   22.1555 C   0  0  0  0  0  0  0  0  0  0  0  0
  -30.6964  -14.8045   20.6853 C   0  0  0  0  0  0  0  0  0  0  0  0
  -22.5727  -28.8576   12.5121 C   0  0  0  0  0  0  0  0  0  0  0  0
  -24.6290  -24.0260   16.3654 C   0  0  0  0  0  0  0  0  0  0  0  0
  -28.9215  -20.0480   23.6053 C   0  0  0  0  0  0  0  0  0  0  0  0
  -25.4917  -24.8957   19.0569 C   0  0  0  0  0  0  0  0  0  0  0  0
  -28.6051  -21.4296   23.0736 C   0  0  0  0  0  0  0  0  0  0  0  0
  -22.0995  -28.7153   13.9565 C   0  0  0  0  0  0  0  0  0  0  0  0
  -29.5729  -12.4531   18.2592 C   0  0  0  0  0  0  0  0  0  0  0  0
  -23.2402  -29.0148   14.9238 C   0  0  0  0  0  0  0  0  0  0  0  0
  -28.1403  -12.1383   18.6957 C   0  0  0  0  0  0  0  0  0  0  0  0
  -30.4998  -12.6533   19.4570 C   0  0  0  0  0  0  0  0  0  0  0  0
  -28.6032  -13.3225   20.8798 C   0  0  0  0  0  0  0  0  0  0  0  0
  -24.3963  -28.0248   14.7370 C   0  0  1  0  0  0  0  0  0  0  0  0
  -23.8901  -25.1190   17.1314 C   0  0  1  0  0  0  0  0  0  0  0  0
  -27.6186  -13.1767   19.7081 C   0  0  2  0  0  0  0  0  0  0  0  0
  -22.2229  -22.5226   24.2365 C   0  0  0  0  0  0  0  0  0  0  0  0
  -23.6737  -27.9714   20.7614 C   0  0  0  0  0  0  0  0  0  0  0  0
  -23.3641  -26.8648   22.9858 C   0  0  0  0  0  0  0  0  0  0  0  0
  -21.4538  -27.0046   21.3876 C   0  0  0  0  0  0  0  0  0  0  0  0
  -23.4066  -20.4436   21.2780 C   0  0  0  0  0  0  0  0  0  0  0  0
  -31.4519  -22.2172   19.5820 C   0  0  0  0  0  0  0  0  0  0  0  0
  -31.7938  -21.9587   21.0432 C   0  0  0  0  0  0  0  0  0  0  0  0
  -30.2313  -23.1130   19.4084 C   0  0  0  0  0  0  0  0  0  1  0  0
  -23.3584  -25.4130   20.9066 C   0  0  1  0  0  0  0  0  0  0  0  0
  -22.4933  -22.2269   22.7694 C   0  0  2  0  0  0  0  0  0  0  0  0
  -22.9814  -26.8033   21.4916 C   0  0  0  0  0  0  0  0  0  0  0  0
  -25.8496  -11.5552   20.2762 N   0  0  0  0  0  0  0  0  0  0  0  0
  -26.2159  -12.8448   20.1817 N   0  0  0  0  0  0  0  0  0  0  0  0
  -30.6951  -21.3260   21.7674 N   0  0  0  0  0  0  0  0  0  0  0  0
  -24.1073  -25.0413   18.5774 N   0  0  0  0  0  0  0  0  0  0  0  0
  -29.9433  -13.6537   20.3704 N   0  0  0  0  0  0  0  0  0  0  0  0
  -25.4363  -15.0582   20.5037 N   0  0  0  0  0  0  0  0  0  0  0  0
  -21.8827  -12.5231   21.6619 N   0  0  0  0  0  0  0  0  0  0  0  0
  -30.0517  -15.7002   21.5376 N   0  0  0  0  0  0  0  0  0  0  0  0
  -24.0817  -26.7570   15.3600 N   0  0  0  0  0  0  0  0  0  0  0  0
  -22.6965  -24.2897   21.5612 N   0  0  0  0  0  0  0  0  0  0  0  0
  -23.1086  -20.8733   22.6685 N   0  3  0  0  0  0  0  0  0  0  0  0
  -29.9767  -23.3376   22.7080 O   0  0  0  0  0  0  0  0  0  0  0  0
  -22.6398  -14.6760   21.4367 O   0  0  0  0  0  0  0  0  0  0  0  0
  -24.7560  -27.2798   17.5266 O   0  0  0  0  0  0  0  0  0  0  0  0
  -21.8605  -25.4259   19.0674 O   0  0  0  0  0  0  0  0  0  0  0  0
  -24.6351  -23.1904   22.2019 O   0  0  0  0  0  0  0  0  0  0  0  0
  -31.8190  -14.9953   20.2105 O   0  0  0  0  0  0  0  0  0  0  0  0
  -21.6505   -6.9573   21.6088 O   0  0  0  0  0  0  0  0  0  0  0  0
  -30.0014  -23.3107   18.0139 O   0  0  0  0  0  0  0  0  0  1  0  0
  -18.7127   -6.6402   26.2642 F   0  0  0  0  0  0  0  0  0  0  0  0
  -22.1362   -4.9617   23.4593 F   0  0  0  0  0  0  0  0  0  0  0  0
  1  2  1  0  0  0  0
  1  5  2  0  0  0  0
  2  6  2  0  0  0  0
  3 10  2  0  0  0  0
  3 18  1  0  0  0  0
  4 11  1  0  0  0  0
  4 18  2  0  0  0  0
  5 20  1  0  0  0  0
  6 22  1  0  0  0  0
  7 12  2  0  0  0  0
  7 21  1  0  0  0  0
  8  9  2  0  0  0  0
  8 25  1  0  0  0  0
  9 26  1  0  0  0  0
 10 27  1  0  0  0  0
 11 27  2  0  0  0  0
 12 28  1  0  0  0  0
 13 14  2  0  0  0  0
 13 29  1  0  0  0  0
 14 30  1  0  0  0  0
 15 23  1  0  0  0  0
 15 26  2  0  0  0  0
 16 24  1  0  0  0  0
 16 28  2  0  0  0  0
 17 30  2  0  0  0  0
 17 31  1  0  0  0  0
 18 32  1  0  0  0  0
 19 32  1  0  0  0  0
 19 33  2  0  0  0  0
 19 35  1  0  0  0  0
 20 22  2  0  0  0  0
 20 40  1  0  0  0  0
 21 24  2  0  0  0  0
 21 41  1  0  0  0  0
 22 51  1  0  0  0  0
 23 25  2  0  0  0  0
 23 42  1  0  0  0  0
 24 43  1  0  0  0  0
 25 67  1  0  0  0  0
 26 72  1  0  0  0  0
 27 82  1  0  0  0  0
 28 83  1  0  0  0  0
 29 31  2  0  0  0  0
 29 82  1  0  0  0  0
 30 84  1  0  0  0  0
 31 85  1  0  0  0  0
 32 65  2  0  0  0  0
 33 66  1  0  0  0  0
 33 70  1  0  0  0  0
 34 44  1  0  0  0  0
 34 67  1  0  0  0  0
 34 76  2  0  0  0  0
 35 71  1  0  0  0  0
 35 77  2  0  0  0  0
 36 52  1  0  0  0  0
 36 73  1  0  0  0  0
 36 78  2  0  0  0  0
 37 62  1  0  0  0  0
 37 68  1  0  0  0  0
 37 79  2  0  0  0  0
 38 63  1  0  0  0  0
 38 74  1  0  0  0  0
 38 80  2  0  0  0  0
 39 69  1  0  0  0  0
 39 72  1  0  0  0  0
 39 81  2  0  0  0  0
 40 45  1  0  0  0  0
 41 52  1  0  0  0  0
 42 44  1  0  0  0  0
 43 68  1  0  0  0  0
 45 47  1  0  0  0  0
 46 48  1  0  0  0  0
 46 49  1  0  0  0  0
 47 51  1  0  0  0  0
 48 53  1  0  0  0  0
 49 69  1  0  0  0  0
 50 53  1  0  0  0  0
 50 69  1  0  0  0  0
 51 73  1  0  0  0  0
 52 68  1  0  0  0  0
 53 66  1  0  0  0  0
 54 63  1  0  0  0  0
 55 64  1  0  0  0  0
 56 64  1  0  0  0  0
 57 64  1  0  0  0  0
 58 75  1  0  0  0  0
 59 60  1  0  0  0  0
 59 61  1  0  0  0  0
 60 67  1  0  0  0  0
 61 83  1  0  0  0  0
 62 64  1  0  0  0  0
 62 74  1  0  0  0  0
 63 75  1  0  0  0  0
 65 66  1  0  0  0  0
M  CHG  1  75   1
M  ISO  4  39 100  61 101  72 100  83 101
M  END
> <Batch ID>
0005

> <Smiles>
CNC(C)C(=O)NC(C(=O)N1Cc2cc([101O:1][101CH2:1]CCN3C(=O)CCc4cc([100NH:0][100C:0](=O)N5CCCC(n6nc(-c7ccc(Oc8ccc(F)cc8F)cc7)c(C(N)=O)c6N)C5)ccc43)ccc2CC1C(=O)NC1CCCc2ccccc21)C(C)(C)C

> <Shape>
0.223

> <Color>
0.194

> <Negative vol penalty>
0.000

$$$$

  -OEChem-04042320263D

 84 93  0     1  0  0  0  0  0999 V2000
  -25.6734  -35.2287   21.7943 C   0  0  0  0  0  0  0  0  0  0  0  0
  -26.2752  -33.9748   21.7651 C   0  0  0  0  0  0  0  0  0  0  0  0
  -22.1945  -10.6680   22.6584 C   0  0  0  0  0  0  0  0  0  0  0  0
  -23.5053  -10.5360   20.6332 C   0  0  0  0  0  0  0  0  0  0  0  0
  -24.3986  -35.3764   22.3393 C   0  0  0  0  0  0  0  0  0  0  0  0
  -25.6029  -32.8678   22.2819 C   0  0  0  0  0  0  0  0  0  0  0  0
  -25.9168  -28.8180   19.2579 C   0  0  0  0  0  0  0  0  0  0  0  0
  -28.5841  -19.9987   18.7377 C   0  0  0  0  0  0  0  0  0  0  0  0
  -26.9715  -21.2671   17.4617 C   0  0  0  0  0  0  0  0  0  0  0  0
  -27.5462  -19.3046   19.3595 C   0  0  0  0  0  0  0  0  0  0  0  0
  -25.9336  -20.5729   18.0835 C   0  0  0  0  0  0  0  0  0  0  0  0
  -21.7869   -9.3459   22.4808 C   0  0  0  0  0  0  0  0  0  0  0  0
  -23.0978   -9.2139   20.4556 C   0  0  0  0  0  0  0  0  0  0  0  0
  -27.1093  -28.0960   19.2822 C   0  0  0  0  0  0  0  0  0  0  0  0
  -23.0682   -6.2564   22.9770 C   0  0  0  0  0  0  0  0  0  0  0  0
  -23.0948   -5.4150   24.0891 C   0  0  0  0  0  0  0  0  0  0  0  0
  -26.0869  -26.4680   20.7395 C   0  0  0  0  0  0  0  0  0  0  0  0
  -20.7172   -5.0476   23.8681 C   0  0  0  0  0  0  0  0  0  0  0  0
  -23.0536  -11.2631   21.7345 C   0  0  0  0  0  0  0  0  0  0  0  0
  -24.6065  -13.0830   22.6200 C   0  0  0  0  0  0  0  0  0  0  0  0
  -23.7064  -34.2690   22.8543 C   0  0  0  0  0  0  0  0  0  0  0  0
  -24.8019  -28.3753   19.9842 C   0  0  0  0  0  0  0  0  0  0  0  0
  -24.3182  -33.0010   22.8356 C   0  0  0  0  0  0  0  0  0  0  0  0
  -24.8807  -27.1847   20.7206 C   0  0  0  0  0  0  0  0  0  0  0  0
  -28.2967  -20.9800   17.7888 C   0  0  0  0  0  0  0  0  0  0  0  0
  -26.2210  -19.5917   19.0324 C   0  0  0  0  0  0  0  0  0  0  0  0
  -22.2386   -8.6188   21.3795 C   0  0  0  0  0  0  0  0  0  0  0  0
  -27.1954  -26.9224   20.0254 C   0  0  0  0  0  0  0  0  0  0  0  0
  -21.8660   -6.4936   22.3105 C   0  0  0  0  0  0  0  0  0  0  0  0
  -21.9193   -4.8105   24.5347 C   0  0  0  0  0  0  0  0  0  0  0  0
  -20.6905   -5.8891   22.7560 C   0  0  0  0  0  0  0  0  0  0  0  0
  -23.4744  -12.6290   21.9171 C   0  0  0  0  0  0  0  0  0  0  0  0
  -24.5598  -14.4504   22.4997 C   0  0  0  0  0  0  0  0  0  0  0  0
  -25.6106  -12.3355   23.3191 C   0  0  0  0  0  0  0  0  0  0  0  0
  -23.0699  -29.5540   22.3747 C   0  0  0  0  0  0  0  0  0  0  0  0
  -21.2186  -26.9532   21.7995 C   0  0  0  0  0  0  0  0  0  0  0  0
  -20.9782  -23.7880   20.5463 C   0  0  0  0  0  0  0  0  0  0  0  0
  -23.7973  -19.0489   19.4540 C   0  0  0  0  0  0  0  0  0  0  0  0
  -22.3497  -34.4861   23.4763 C   0  0  0  0  0  0  0  0  0  0  0  0
  -23.5146  -29.1513   19.9260 C   0  0  0  0  0  0  0  0  0  0  0  0
  -23.7062  -26.6559   21.5013 C   0  0  0  0  0  0  0  0  0  0  0  0
  -21.5521  -33.1979   23.6630 C   0  0  0  0  0  0  0  0  0  0  0  0
  -20.8886  -17.4825   20.7818 C   0  0  0  0  0  0  0  0  0  0  0  0
  -22.4284  -32.1120   24.2792 C   0  0  0  0  0  0  0  0  0  0  0  0
  -21.3952  -16.1175   21.2533 C   0  0  0  0  0  0  0  0  0  0  0  0
  -30.8812  -24.9632   17.5473 C   0  0  0  0  0  0  0  0  0  0  0  0
  -21.5790  -17.9298   19.4945 C   0  0  0  0  0  0  0  0  0  0  0  0
  -23.5532  -16.5498   20.0112 C   0  0  0  0  0  0  0  0  0  0  0  0
  -31.2120  -23.4897   17.3751 C   0  0  0  0  0  0  0  0  0  0  0  0
  -29.0809  -23.7855   18.5346 C   0  0  0  0  0  0  0  0  0  0  0  0
  -23.6109  -31.7720   23.3640 C   0  0  1  0  0  0  0  0  0  0  0  0
  -22.5996  -28.8808   21.1164 C   0  0  1  0  0  0  0  0  0  0  0  0
  -29.9685  -24.9965   18.7651 C   0  0  2  0  0  0  0  0  0  0  0  0
  -22.9337  -16.0865   21.3398 C   0  0  2  0  0  0  0  0  0  0  0  0
  -19.3466  -21.9039   20.2533 C   0  0  0  0  0  0  0  0  0  0  0  0
  -21.4914  -26.2600   24.7584 C   0  0  0  0  0  0  0  0  0  0  0  0
  -20.6839  -23.9520   24.2205 C   0  0  0  0  0  0  0  0  0  0  0  0
  -19.2016  -25.9166   23.8133 C   0  0  0  0  0  0  0  0  0  0  0  0
  -21.2250  -23.8787   17.5984 C   0  0  0  0  0  0  0  0  0  0  0  0
  -29.4132  -21.7265   17.1201 C   0  0  0  0  0  0  0  0  0  0  0  0
  -29.1871  -26.2868   18.8919 C   0  0  0  0  0  0  0  0  0  1  0  0
  -21.1899  -25.5294   22.3004 C   0  0  1  0  0  0  0  0  0  0  0  0
  -19.9593  -23.1449   19.6229 C   0  0  2  0  0  0  0  0  0  0  0  0
  -20.6646  -25.4252   23.7601 C   0  0  0  0  0  0  0  0  0  0  0  0
  -22.7606  -13.6270   21.3894 N   0  0  0  0  0  0  0  0  0  0  0  0
  -23.4458  -14.7218   21.7610 N   0  0  0  0  0  0  0  0  0  0  0  0
  -22.4715  -27.4536   21.4180 N   0  0  0  0  0  0  0  0  0  0  0  0
  -23.0341  -17.8789   19.6523 N   0  0  0  0  0  0  0  0  0  0  0  0
  -25.3633  -15.4351   22.9547 N   0  0  0  0  0  0  0  0  0  0  0  0
  -25.5069  -10.9380   23.3440 N   0  0  0  0  0  0  0  0  0  0  0  0
  -25.1664  -18.8866   19.6636 N   0  0  0  0  0  0  0  0  0  0  0  0
  -23.1778  -30.9277   22.2712 N   0  0  0  0  0  0  0  0  0  0  0  0
  -20.4096  -24.7705   21.3290 N   0  0  0  0  0  0  0  0  0  0  0  0
  -30.0485  -22.7482   18.0073 N   0  3  1  0  0  0  0  0  0  0  0  0
  -20.6016  -22.7506   18.3372 N   0  3  0  0  0  0  0  0  0  0  0  0
  -26.5622  -12.8913   23.9183 O   0  0  0  0  0  0  0  0  0  0  0  0
  -23.3152  -28.8773   23.3665 O   0  0  0  0  0  0  0  0  0  0  0  0
  -20.1669  -27.5953   21.7418 O   0  0  0  0  0  0  0  0  0  0  0  0
  -22.1595  -23.4498   20.5734 O   0  0  0  0  0  0  0  0  0  0  0  0
  -23.2718  -20.1226   19.1492 O   0  0  0  0  0  0  0  0  0  0  0  0
  -21.8414   -7.3286   21.2060 O   0  0  0  0  0  0  0  0  0  0  0  0
  -28.3583  -26.2162   20.0514 O   0  0  0  0  0  0  0  0  0  1  0  0
  -21.9454   -4.0013   25.6018 F   0  0  0  0  0  0  0  0  0  0  0  0
  -19.5328   -6.1122   22.1191 F   0  0  0  0  0  0  0  0  0  0  0  0
  1  2  1  0  0  0  0
  1  5  2  0  0  0  0
  2  6  2  0  0  0  0
  3 12  2  0  0  0  0
  3 19  1  0  0  0  0
  4 13  1  0  0  0  0
  4 19  2  0  0  0  0
  5 21  1  0  0  0  0
  6 23  1  0  0  0  0
  7 14  2  0  0  0  0
  7 22  1  0  0  0  0
  8 10  2  0  0  0  0
  8 25  1  0  0  0  0
  9 11  1  0  0  0  0
  9 25  2  0  0  0  0
 10 26  1  0  0  0  0
 11 26  2  0  0  0  0
 12 27  1  0  0  0  0
 13 27  2  0  0  0  0
 14 28  1  0  0  0  0
 15 16  2  0  0  0  0
 15 29  1  0  0  0  0
 16 30  1  0  0  0  0
 17 24  1  0  0  0  0
 17 28  2  0  0  0  0
 18 30  2  0  0  0  0
 18 31  1  0  0  0  0
 19 32  1  0  0  0  0
 20 32  1  0  0  0  0
 20 33  2  0  0  0  0
 20 34  1  0  0  0  0
 21 23  2  0  0  0  0
 21 39  1  0  0  0  0
 22 24  2  0  0  0  0
 22 40  1  0  0  0  0
 23 51  1  0  0  0  0
 24 41  1  0  0  0  0
 25 60  1  0  0  0  0
 26 71  1  0  0  0  0
 27 81  1  0  0  0  0
 28 82  1  0  0  0  0
 29 31  2  0  0  0  0
 29 81  1  0  0  0  0
 30 83  1  0  0  0  0
 31 84  1  0  0  0  0
 32 65  2  0  0  0  0
 33 66  1  0  0  0  0
 33 69  1  0  0  0  0
 34 70  1  0  0  0  0
 34 76  2  0  0  0  0
 35 52  1  0  0  0  0
 35 72  1  0  0  0  0
 35 77  2  0  0  0  0
 36 62  1  0  0  0  0
 36 67  1  0  0  0  0
 36 78  2  0  0  0  0
 37 63  1  0  0  0  0
 37 73  1  0  0  0  0
 37 79  2  0  0  0  0
 38 68  1  0  0  0  0
 38 71  1  0  0  0  0
 38 80  2  0  0  0  0
 39 42  1  0  0  0  0
 40 52  1  0  0  0  0
 41 67  1  0  0  0  0
 42 44  1  0  0  0  0
 43 45  1  0  0  0  0
 43 47  1  0  0  0  0
 44 51  1  0  0  0  0
 45 54  1  0  0  0  0
 46 49  1  0  0  0  0
 46 53  1  0  0  0  0
 47 68  1  0  0  0  0
 48 54  1  0  0  0  0
 48 68  1  0  0  0  0
 49 74  1  0  0  0  0
 50 53  1  0  0  0  0
 50 74  1  0  0  0  0
 51 72  1  0  0  0  0
 52 67  1  0  0  0  0
 53 61  1  0  0  0  0
 54 66  1  0  0  0  0
 55 63  1  0  0  0  0
 56 64  1  0  0  0  0
 57 64  1  0  0  0  0
 58 64  1  0  0  0  0
 59 75  1  0  0  0  0
 60 74  1  0  0  0  0
 61 82  1  0  0  0  0
 62 64  1  0  0  0  0
 62 73  1  0  0  0  0
 63 75  1  0  0  0  0
 65 66  1  0  0  0  0
M  CHG  2  74   1  75   1
M  ISO  4  38 100  61 101  71 100  82 101
M  END
> <Batch ID>
0005

> <Smiles>
CNC(C)C(=O)NC(C(=O)N1Cc2cc([101O:1][101CH2:1]C3CCN(Cc4ccc([100NH:0][100C:0](=O)N5CCCC(n6nc(-c7ccc(Oc8ccc(F)cc8F)cc7)c(C(N)=O)c6N)C5)cc4)C3)ccc2CC1C(=O)NC1CCCc2ccccc21)C(C)(C)C

> <Shape>
0.236

> <Color>
0.087

> <Negative vol penalty>
0.000

$$$$

  -OEChem-04042320263D

 92101  0     1  0  0  0  0  0999 V2000
  -42.7110  -27.5924   27.5184 C   0  0  0  0  0  0  0  0  0  0  0  0
  -41.4286  -27.1503   27.8273 C   0  0  0  0  0  0  0  0  0  0  0  0
  -23.0709   -9.8712   19.9440 C   0  0  0  0  0  0  0  0  0  0  0  0
  -23.8335   -9.8794   22.2365 C   0  0  0  0  0  0  0  0  0  0  0  0
  -43.2967  -27.2351   26.3047 C   0  0  0  0  0  0  0  0  0  0  0  0
  -40.7307  -26.3516   26.9221 C   0  0  0  0  0  0  0  0  0  0  0  0
  -36.8274  -21.8245   28.2545 C   0  0  0  0  0  0  0  0  0  0  0  0
  -29.0145  -18.9764   24.4810 C   0  0  0  0  0  0  0  0  0  0  0  0
  -29.4728  -18.4904   23.2566 C   0  0  0  0  0  0  0  0  0  0  0  0
  -22.3271   -8.7183   20.1955 C   0  0  0  0  0  0  0  0  0  0  0  0
  -23.0896   -8.7265   22.4881 C   0  0  0  0  0  0  0  0  0  0  0  0
  -35.4354  -21.7734   28.3144 C   0  0  0  0  0  0  0  0  0  0  0  0
  -22.8990   -5.3999   20.4878 C   0  0  0  0  0  0  0  0  0  0  0  0
  -22.9645   -4.3697   19.5497 C   0  0  0  0  0  0  0  0  0  0  0  0
  -35.3759  -20.9162   26.0603 C   0  0  0  0  0  0  0  0  0  0  0  0
  -30.2836  -17.2732   25.6322 C   0  0  0  0  0  0  0  0  0  0  0  0
  -20.5796   -4.5359   19.2007 C   0  0  0  0  0  0  0  0  0  0  0  0
  -23.8242  -10.4517   20.9645 C   0  0  0  0  0  0  0  0  0  0  0  0
  -24.1665  -12.9767   20.8425 C   0  0  0  0  0  0  0  0  0  0  0  0
  -42.6095  -26.4237   25.3883 C   0  0  0  0  0  0  0  0  0  0  0  0
  -37.5047  -21.4315   27.0912 C   0  0  0  0  0  0  0  0  0  0  0  0
  -41.3073  -25.9843   25.6943 C   0  0  0  0  0  0  0  0  0  0  0  0
  -36.7766  -20.9609   25.9891 C   0  0  0  0  0  0  0  0  0  0  0  0
  -29.4199  -18.3678   25.6689 C   0  0  0  0  0  0  0  0  0  0  0  0
  -30.3365  -17.3957   23.2199 C   0  0  0  0  0  0  0  0  0  0  0  0
  -30.7420  -16.7871   24.4078 C   0  0  0  0  0  0  0  0  0  0  0  0
  -22.3364   -8.1460   21.4676 C   0  0  0  0  0  0  0  0  0  0  0  0
  -34.7093  -21.3220   27.2162 C   0  0  0  0  0  0  0  0  0  0  0  0
  -21.6738   -5.9981   20.7824 C   0  0  0  0  0  0  0  0  0  0  0  0
  -21.8049   -3.9377   18.9062 C   0  0  0  0  0  0  0  0  0  0  0  0
  -20.5141   -5.5661   20.1389 C   0  0  0  0  0  0  0  0  0  0  0  0
  -24.5933  -11.6422   20.7051 C   0  0  0  0  0  0  0  0  0  0  0  0
  -25.2584  -13.7257   20.4775 C   0  0  0  0  0  0  0  0  0  0  0  0
  -22.8966  -13.4930   21.2626 C   0  0  0  0  0  0  0  0  0  0  0  0
  -39.4149  -22.8858   25.0080 C   0  0  0  0  0  0  0  0  0  0  0  0
  -39.7195  -19.8943   23.7913 C   0  0  0  0  0  0  0  0  0  0  0  0
  -30.7577  -20.1520   28.1119 C   0  0  0  0  0  0  0  0  0  0  0  0
  -38.4051  -16.7655   23.4308 C   0  0  0  0  0  0  0  0  0  0  0  0
  -30.7426  -14.7436   20.6588 C   0  0  0  0  0  0  0  0  0  0  0  0
  -43.2653  -26.1028   24.0686 C   0  0  0  0  0  0  0  0  0  0  0  0
  -39.0078  -21.4673   27.0521 C   0  0  0  0  0  0  0  0  0  0  0  0
  -37.4571  -20.5083   24.7240 C   0  0  0  0  0  0  0  0  0  0  0  0
  -42.6049  -24.9440   23.3260 C   0  0  0  0  0  0  0  0  0  0  0  0
  -29.6016  -12.3579   18.2749 C   0  0  0  0  0  0  0  0  0  0  0  0
  -41.0884  -25.1079   23.3216 C   0  0  0  0  0  0  0  0  0  0  0  0
  -28.1646  -12.0648   18.7096 C   0  0  0  0  0  0  0  0  0  0  0  0
  -33.5174  -14.3720   24.6941 C   0  0  0  0  0  0  0  0  0  0  0  0
  -30.5202  -12.5792   19.4745 C   0  0  0  0  0  0  0  0  0  0  0  0
  -33.0525  -15.8066   24.4391 C   0  0  0  0  0  0  0  0  0  0  0  0
  -28.6202  -13.3116   20.8629 C   0  0  0  0  0  0  0  0  0  0  0  0
  -31.1502  -14.3099   24.3430 C   0  0  0  0  0  0  0  0  0  0  0  0
  -40.5280  -25.0959   24.7490 C   0  0  1  0  0  0  0  0  0  0  0  0
  -39.5673  -21.5284   25.6341 C   0  0  1  0  0  0  0  0  0  0  0  0
  -27.6447  -13.1365   19.6865 C   0  0  2  0  0  0  0  0  0  0  0  0
  -32.4330  -13.5531   24.0173 C   0  0  2  0  0  0  0  0  0  0  0  0
  -38.8657  -14.5478   22.3507 C   0  0  0  0  0  0  0  0  0  0  0  0
  -38.9156  -21.0488   21.0838 C   0  0  0  0  0  0  0  0  0  0  0  0
  -38.4717  -18.7135   20.2980 C   0  0  0  0  0  0  0  0  0  0  0  0
  -40.7733  -19.3768   20.9949 C   0  0  0  0  0  0  0  0  0  0  0  0
  -38.4558  -15.3734   26.0421 C   0  0  0  0  0  0  0  0  0  0  0  0
  -31.2726  -11.3509   23.9488 C   0  0  0  0  0  0  0  0  0  0  0  0
  -33.7178  -11.4558   24.4078 C   0  0  0  0  0  0  0  0  0  0  0  0
  -28.9263  -18.8914   26.9866 C   0  0  0  0  0  0  0  0  0  0  0  0
  -30.8103  -16.8949   21.8944 C   0  0  0  0  0  0  0  0  0  0  0  0
  -31.2235  -21.5793   28.3541 C   0  0  0  0  0  0  0  0  0  0  0  0
  -32.7340  -21.6967   28.4866 C   0  0  0  0  0  0  0  0  0  1  0  0
  -38.9821  -19.0816   22.7546 C   0  0  1  0  0  0  0  0  0  0  0  0
  -39.0188  -15.3885   23.6086 C   0  0  2  0  0  0  0  0  0  0  0  0
  -39.2724  -19.5654   21.3058 C   0  0  0  0  0  0  0  0  0  0  0  0
  -25.8576  -11.5458   20.2854 N   0  0  0  0  0  0  0  0  0  0  0  0
  -26.2346  -12.8292   20.1559 N   0  0  0  0  0  0  0  0  0  0  0  0
  -31.5937  -15.7033   24.3900 N   0  0  3  0  0  0  0  0  0  0  0  0
  -38.9281  -20.5680   24.7324 N   0  0  0  0  0  0  0  0  0  0  0  0
  -29.9709  -13.6084   20.3605 N   0  0  0  0  0  0  0  0  0  0  0  0
  -25.4690  -15.0571   20.4035 N   0  0  0  0  0  0  0  0  0  0  0  0
  -21.8849  -12.5843   21.6016 N   0  0  0  0  0  0  0  0  0  0  0  0
  -40.4700  -23.7423   25.2579 N   0  0  0  0  0  0  0  0  0  0  0  0
  -29.5898  -20.1187   27.3637 N   0  0  0  0  0  0  0  0  0  0  0  0
  -39.3357  -17.6878   23.0013 N   0  0  0  0  0  0  0  0  0  0  0  0
  -30.1446  -15.6731   21.5010 N   0  0  0  0  0  0  0  0  0  0  0  0
  -38.3615  -14.6702   24.7369 N   0  3  0  0  0  0  0  0  0  0  0  0
  -32.3940  -12.1771   24.5406 N   0  3  0  0  0  0  0  0  0  0  0  0
  -22.6607  -14.7237   21.3195 O   0  0  0  0  0  0  0  0  0  0  0  0
  -38.4147  -23.1369   24.3460 O   0  0  0  0  0  0  0  0  0  0  0  0
  -40.9525  -19.9243   23.7714 O   0  0  0  0  0  0  0  0  0  0  0  0
  -31.3565  -19.1671   28.5353 O   0  0  0  0  0  0  0  0  0  0  0  0
  -37.2180  -16.9987   23.6475 O   0  0  0  0  0  0  0  0  0  0  0  0
  -31.8780  -14.9185   20.2038 O   0  0  0  0  0  0  0  0  0  0  0  0
  -21.6105   -7.0212   21.7134 O   0  0  0  0  0  0  0  0  0  0  0  0
  -33.3505  -21.2717   27.2718 O   0  0  0  0  0  0  0  0  0  1  0  0
  -21.8682   -2.9495   18.0042 F   0  0  0  0  0  0  0  0  0  0  0  0
  -19.3344   -6.1376   20.4169 F   0  0  0  0  0  0  0  0  0  0  0  0
  1  2  1  0  0  0  0
  1  5  2  0  0  0  0
  2  6  2  0  0  0  0
  3 10  2  0  0  0  0
  3 18  1  0  0  0  0
  4 11  1  0  0  0  0
  4 18  2  0  0  0  0
  5 20  1  0  0  0  0
  6 22  1  0  0  0  0
  7 12  2  0  0  0  0
  7 21  1  0  0  0  0
  8  9  2  0  0  0  0
  8 24  1  0  0  0  0
  9 25  1  0  0  0  0
 10 27  1  0  0  0  0
 11 27  2  0  0  0  0
 12 28  1  0  0  0  0
 13 14  2  0  0  0  0
 13 29  1  0  0  0  0
 14 30  1  0  0  0  0
 15 23  1  0  0  0  0
 15 28  2  0  0  0  0
 16 24  2  0  0  0  0
 16 26  1  0  0  0  0
 17 30  2  0  0  0  0
 17 31  1  0  0  0  0
 18 32  1  0  0  0  0
 19 32  1  0  0  0  0
 19 33  2  0  0  0  0
 19 34  1  0  0  0  0
 20 22  2  0  0  0  0
 20 40  1  0  0  0  0
 21 23  2  0  0  0  0
 21 41  1  0  0  0  0
 22 52  1  0  0  0  0
 23 42  1  0  0  0  0
 24 63  1  0  0  0  0
 25 26  2  0  0  0  0
 25 64  1  0  0  0  0
 26 72  1  0  0  0  0
 27 89  1  0  0  0  0
 28 90  1  0  0  0  0
 29 31  2  0  0  0  0
 29 89  1  0  0  0  0
 30 91  1  0  0  0  0
 31 92  1  0  0  0  0
 32 70  2  0  0  0  0
 33 71  1  0  0  0  0
 33 75  1  0  0  0  0
 34 76  1  0  0  0  0
 34 83  2  0  0  0  0
 35 53  1  0  0  0  0
 35 77  1  0  0  0  0
 35 84  2  0  0  0  0
 36 67  1  0  0  0  0
 36 73  1  0  0  0  0
 36 85  2  0  0  0  0
 37 65  1  0  0  0  0
 37 78  1  0  0  0  0
 37 86  2  0  0  0  0
 38 68  1  0  0  0  0
 38 79  1  0  0  0  0
 38 87  2  0  0  0  0
 39 74  1  0  0  0  0
 39 80  1  0  0  0  0
 39 88  2  0  0  0  0
 40 43  1  0  0  0  0
 41 53  1  0  0  0  0
 42 73  1  0  0  0  0
 43 45  1  0  0  0  0
 44 46  1  0  0  0  0
 44 48  1  0  0  0  0
 45 52  1  0  0  0  0
 46 54  1  0  0  0  0
 47 49  1  0  0  0  0
 47 55  1  0  0  0  0
 48 74  1  0  0  0  0
 49 72  1  0  0  0  0
 50 54  1  0  0  0  0
 50 74  1  0  0  0  0
 51 55  1  0  0  0  0
 51 72  1  0  0  0  0
 52 77  1  0  0  0  0
 53 73  1  0  0  0  0
 54 71  1  0  0  0  0
 55 82  1  0  0  0  0
 56 68  1  0  0  0  0
 57 69  1  0  0  0  0
 58 69  1  0  0  0  0
 59 69  1  0  0  0  0
 60 81  1  0  0  0  0
 61 82  1  0  0  0  0
 62 82  1  0  0  0  0
 63 78  1  0  0  0  0
 64 80  1  0  0  0  0
 65 66  1  0  0  0  0
 66 90  1  0  0  0  0
 67 69  1  0  0  0  0
 67 79  1  0  0  0  0
 68 81  1  0  0  0  0
 70 71  1  0  0  0  0
M  CHG  2  81   1  82   1
M  ISO  4  39 100  66 101  80 100  90 101
M  END
> <Batch ID>
0005

> <Smiles>
CNC(C)C(=O)NC(C(=O)N1Cc2cc([101O:1][101CH2:1]CC(=O)NCc3ccc(C[100NH:0][100C:0](=O)N4CCCC(n5nc(-c6ccc(Oc7ccc(F)cc7F)cc6)c(C(N)=O)c5N)C4)c(N4CCC(N(C)C)C4)c3)ccc2CC1C(=O)NC1CCCc2ccccc21)C(C)(C)C

> <Shape>
0.144

> <Color>
0.180

> <Negative vol penalty>
0.000

$$$$

  -OEChem-04042320263D

 85 93  0     1  0  0  0  0  0999 V2000
  -30.2966  -28.1676   26.2013 C   0  0  0  0  0  0  0  0  0  0  0  0
  -29.8079  -27.6593   25.0020 C   0  0  0  0  0  0  0  0  0  0  0  0
  -24.6971   -8.9093   21.4236 C   0  0  0  0  0  0  0  0  0  0  0  0
  -23.1498  -10.7644   21.4624 C   0  0  0  0  0  0  0  0  0  0  0  0
  -26.2166  -20.4625   18.5796 C   0  0  0  0  0  0  0  0  0  0  0  0
  -29.4105  -28.6227   27.1768 C   0  0  0  0  0  0  0  0  0  0  0  0
  -28.4327  -27.6047   24.7780 C   0  0  0  0  0  0  0  0  0  0  0  0
  -27.1525  -29.2159   20.1509 C   0  0  0  0  0  0  0  0  0  0  0  0
  -23.9288   -8.2484   22.3819 C   0  0  0  0  0  0  0  0  0  0  0  0
  -22.3814  -10.1034   22.4208 C   0  0  0  0  0  0  0  0  0  0  0  0
  -27.3529  -28.3326   19.0911 C   0  0  0  0  0  0  0  0  0  0  0  0
  -21.0699   -6.4452   22.4718 C   0  0  0  0  0  0  0  0  0  0  0  0
  -25.2933  -19.6381   19.2226 C   0  0  0  0  0  0  0  0  0  0  0  0
  -20.8030   -5.0915   22.2676 C   0  0  0  0  0  0  0  0  0  0  0  0
  -27.9797  -18.8956   19.1022 C   0  0  0  0  0  0  0  0  0  0  0  0
  -25.0106  -27.7573   19.1356 C   0  0  0  0  0  0  0  0  0  0  0  0
  -21.9110   -4.5594   24.3477 C   0  0  0  0  0  0  0  0  0  0  0  0
  -24.3076  -10.1674   20.9639 C   0  0  0  0  0  0  0  0  0  0  0  0
  -27.5598  -20.0912   18.5193 C   0  0  0  0  0  0  0  0  0  0  0  0
  -24.9692  -10.7704   18.5751 C   0  0  0  0  0  0  0  0  0  0  0  0
  -28.0240  -28.5827   26.9607 C   0  0  0  0  0  0  0  0  0  0  0  0
  -25.8797  -29.3688   20.7192 C   0  0  0  0  0  0  0  0  0  0  0  0
  -27.5272  -28.0585   25.7521 C   0  0  0  0  0  0  0  0  0  0  0  0
  -24.7962  -28.6452   20.2009 C   0  0  0  0  0  0  0  0  0  0  0  0
  -27.0564  -18.0712   19.7453 C   0  0  0  0  0  0  0  0  0  0  0  0
  -22.7710   -8.8454   22.8805 C   0  0  0  0  0  0  0  0  0  0  0  0
  -26.2824  -27.6010   18.5851 C   0  0  0  0  0  0  0  0  0  0  0  0
  -21.7574   -6.8561   23.6138 C   0  0  0  0  0  0  0  0  0  0  0  0
  -21.2235   -4.1486   23.2056 C   0  0  0  0  0  0  0  0  0  0  0  0
  -25.7132  -18.4425   19.8055 C   0  0  0  0  0  0  0  0  0  0  0  0
  -22.1779   -5.9132   24.5518 C   0  0  0  0  0  0  0  0  0  0  0  0
  -25.1012  -10.8509   19.9743 C   0  0  0  0  0  0  0  0  0  0  0  0
  -25.9503  -11.6000   18.0894 C   0  0  0  0  0  0  0  0  0  0  0  0
  -28.5428  -20.9694   17.8341 C   0  0  0  0  0  0  0  0  0  0  0  0
  -24.0427  -10.0135   17.7850 C   0  0  0  0  0  0  0  0  0  0  0  0
  -24.6341  -28.8653   23.5999 C   0  0  0  0  0  0  0  0  0  0  0  0
  -22.0123  -30.2450   22.2790 C   0  0  0  0  0  0  0  0  0  0  0  0
  -20.2474  -31.0019   19.4578 C   0  0  0  0  0  0  0  0  0  0  0  0
  -28.7815  -16.3437   20.3667 C   0  0  0  0  0  0  0  0  0  0  0  0
  -27.1039  -29.0422   28.0638 C   0  0  0  0  0  0  0  0  0  0  0  0
  -25.6748  -30.3456   21.8445 C   0  0  0  0  0  0  0  0  0  0  0  0
  -23.4059  -28.7880   20.7623 C   0  0  0  0  0  0  0  0  0  0  0  0
  -25.6729  -29.2966   27.5970 C   0  0  0  0  0  0  0  0  0  0  0  0
  -30.2760  -13.3319   19.1952 C   0  0  0  0  0  0  0  0  0  0  0  0
  -25.1834  -28.1452   26.7243 C   0  0  0  0  0  0  0  0  0  0  0  0
  -29.1055  -12.3482   19.1289 C   0  0  0  0  0  0  0  0  0  0  0  0
  -30.1575  -14.2747   20.3914 C   0  0  0  0  0  0  0  0  0  0  0  0
  -27.7088  -14.0068   20.4272 C   0  0  0  0  0  0  0  0  0  0  0  0
  -26.0429  -28.0057   25.4620 C   0  0  1  0  0  0  0  0  0  0  0  0
  -24.4379  -30.0397   22.6835 C   0  0  1  0  0  0  0  0  0  0  0  0
  -27.7504  -13.0791   19.2020 C   0  0  2  0  0  0  0  0  0  0  0  0
  -18.1235  -32.1019   18.6986 C   0  0  0  0  0  0  0  0  0  0  0  0
  -20.4271  -27.7960   23.1733 C   0  0  0  0  0  0  0  0  0  0  0  0
  -18.6053  -28.4876   21.6014 C   0  0  0  0  0  0  0  0  0  0  0  0
  -19.2474  -29.9773   23.4964 C   0  0  0  0  0  0  0  0  0  0  0  0
  -21.7230  -33.0355   17.8938 C   0  0  0  0  0  0  0  0  0  0  0  0
  -28.9804  -24.0538   16.6764 C   0  0  0  0  0  0  0  0  0  0  0  0
  -27.6273  -24.7572   16.7873 C   0  0  0  0  0  0  0  0  0  0  0  0
  -28.8683  -22.6660   16.0532 C   0  0  0  0  0  0  0  0  0  0  0  0
  -27.7593  -26.1232   17.4489 C   0  0  0  0  0  0  0  0  0  1  0  0
  -20.8074  -29.7428   21.5207 C   0  0  1  0  0  0  0  0  0  0  0  0
  -19.6039  -32.2943   18.9886 C   0  0  2  0  0  0  0  0  0  0  0  0
  -19.7983  -28.9966   22.4384 C   0  0  0  0  0  0  0  0  0  0  0  0
  -26.0884  -11.6670   20.3531 N   0  0  0  0  0  0  0  0  0  0  0  0
  -26.5857  -12.1069   19.1846 N   0  0  0  0  0  0  0  0  0  0  0  0
  -23.2578  -29.7510   21.8661 N   0  0  0  0  0  0  0  0  0  0  0  0
  -28.8502  -14.9347   20.3926 N   0  0  0  0  0  0  0  0  0  0  0  0
  -26.3228  -11.9379   16.8366 N   0  0  0  0  0  0  0  0  0  0  0  0
  -23.1004   -9.2127   18.4447 N   0  0  0  0  0  0  0  0  0  0  0  0
  -27.4854  -16.8574   20.3373 N   0  0  0  0  0  0  0  0  0  0  0  0
  -28.0390  -21.7805   16.8238 N   0  0  0  0  0  0  0  0  0  0  0  0
  -25.6806  -29.0148   24.4899 N   0  0  0  0  0  0  0  0  0  0  0  0
  -20.2463  -30.9007   20.8329 N   0  0  0  0  0  0  0  0  0  0  0  0
  -20.2668  -32.7817   17.7460 N   0  3  0  0  0  0  0  0  0  0  0  0
  -29.7237  -20.9237   18.1687 O   0  0  0  0  0  0  0  0  0  0  0  0
  -24.0608  -10.0336   16.5309 O   0  0  0  0  0  0  0  0  0  0  0  0
  -23.8901  -27.8959   23.5075 O   0  0  0  0  0  0  0  0  0  0  0  0
  -21.8548  -31.0515   23.1990 O   0  0  0  0  0  0  0  0  0  0  0  0
  -20.7021  -30.1642   18.6819 O   0  0  0  0  0  0  0  0  0  0  0  0
  -29.7979  -17.0426   20.3428 O   0  0  0  0  0  0  0  0  0  0  0  0
  -22.0209   -8.2006   23.8155 O   0  0  0  0  0  0  0  0  0  0  0  0
  -26.4754  -26.7376   17.5511 O   0  0  0  0  0  0  0  0  0  1  0  0
  -20.9658   -2.8487   23.0101 F   0  0  0  0  0  0  0  0  0  0  0  0
  -24.8170  -17.6579   20.4206 F   0  0  0  0  0  0  0  0  0  0  0  0
  -22.8377   -6.3020   25.6514 F   0  0  0  0  0  0  0  0  0  0  0  0
  1  2  1  0  0  0  0
  1  6  2  0  0  0  0
  2  7  2  0  0  0  0
  3  9  2  0  0  0  0
  3 18  1  0  0  0  0
  4 10  1  0  0  0  0
  4 18  2  0  0  0  0
  5 13  2  0  0  0  0
  5 19  1  0  0  0  0
  6 21  1  0  0  0  0
  7 23  1  0  0  0  0
  8 11  2  0  0  0  0
  8 22  1  0  0  0  0
  9 26  1  0  0  0  0
 10 26  2  0  0  0  0
 11 27  1  0  0  0  0
 12 14  2  0  0  0  0
 12 28  1  0  0  0  0
 13 30  1  0  0  0  0
 14 29  1  0  0  0  0
 15 19  2  0  0  0  0
 15 25  1  0  0  0  0
 16 24  1  0  0  0  0
 16 27  2  0  0  0  0
 17 29  2  0  0  0  0
 17 31  1  0  0  0  0
 18 32  1  0  0  0  0
 19 34  1  0  0  0  0
 20 32  1  0  0  0  0
 20 33  2  0  0  0  0
 20 35  1  0  0  0  0
 21 23  2  0  0  0  0
 21 40  1  0  0  0  0
 22 24  2  0  0  0  0
 22 41  1  0  0  0  0
 23 49  1  0  0  0  0
 24 42  1  0  0  0  0
 25 30  2  0  0  0  0
 25 70  1  0  0  0  0
 26 81  1  0  0  0  0
 27 82  1  0  0  0  0
 28 31  2  0  0  0  0
 28 81  1  0  0  0  0
 29 83  1  0  0  0  0
 30 84  1  0  0  0  0
 31 85  1  0  0  0  0
 32 64  2  0  0  0  0
 33 65  1  0  0  0  0
 33 68  1  0  0  0  0
 34 71  1  0  0  0  0
 34 75  2  0  0  0  0
 35 69  1  0  0  0  0
 35 76  2  0  0  0  0
 36 50  1  0  0  0  0
 36 72  1  0  0  0  0
 36 77  2  0  0  0  0
 37 61  1  0  0  0  0
 37 66  1  0  0  0  0
 37 78  2  0  0  0  0
 38 62  1  0  0  0  0
 38 73  1  0  0  0  0
 38 79  2  0  0  0  0
 39 67  1  0  0  0  0
 39 70  1  0  0  0  0
 39 80  2  0  0  0  0
 40 43  1  0  0  0  0
 41 50  1  0  0  0  0
 42 66  1  0  0  0  0
 43 45  1  0  0  0  0
 44 46  1  0  0  0  0
 44 47  1  0  0  0  0
 45 49  1  0  0  0  0
 46 51  1  0  0  0  0
 47 67  1  0  0  0  0
 48 51  1  0  0  0  0
 48 67  1  0  0  0  0
 49 72  1  0  0  0  0
 50 66  1  0  0  0  0
 51 65  1  0  0  0  0
 52 62  1  0  0  0  0
 53 63  1  0  0  0  0
 54 63  1  0  0  0  0
 55 63  1  0  0  0  0
 56 74  1  0  0  0  0
 57 58  1  0  0  0  0
 57 59  1  0  0  0  0
 58 60  1  0  0  0  0
 59 71  1  0  0  0  0
 60 82  1  0  0  0  0
 61 63  1  0  0  0  0
 61 73  1  0  0  0  0
 62 74  1  0  0  0  0
 64 65  1  0  0  0  0
M  CHG  1  74   1
M  ISO  4  39 100  60 101  70 100  82 101
M  END
> <Batch ID>
0005

> <Smiles>
CNC(C)C(=O)NC(C(=O)N1Cc2cc([101O:1][101CH2:1]CCCNC(=O)c3ccc(F)c([100NH:0][100C:0](=O)N4CCCC(n5nc(-c6ccc(Oc7ccc(F)cc7F)cc6)c(C(N)=O)c5N)C4)c3)ccc2CC1C(=O)NC1CCCc2ccccc21)C(C)(C)C

> <Shape>
0.248

> <Color>
0.094

> <Negative vol penalty>
0.000

$$$$

  -OEChem-04042320263D

 96106  0     1  0  0  0  0  0999 V2000
  -22.9917   -8.2151   23.4667 C   0  0  0  0  0  0  0  0  0  0  0  0
  -23.9510   -9.2063   23.2863 C   0  0  0  0  0  0  0  0  0  0  0  0
  -33.3615  -14.5887   18.4464 C   0  0  0  0  0  0  0  0  0  0  0  0
  -33.3111  -13.6823   19.5054 C   0  0  0  0  0  0  0  0  0  0  0  0
  -24.9491  -30.9691   21.1549 C   0  0  0  0  0  0  0  0  0  0  0  0
  -24.7365  -29.4983   23.0598 C   0  0  0  0  0  0  0  0  0  0  0  0
  -21.7389   -8.3418   22.8680 C   0  0  0  0  0  0  0  0  0  0  0  0
  -23.6585  -10.3244   22.5060 C   0  0  0  0  0  0  0  0  0  0  0  0
  -25.1787  -14.6481   24.6598 C   0  0  0  0  0  0  0  0  0  0  0  0
  -33.0837  -15.9375   18.6690 C   0  0  0  0  0  0  0  0  0  0  0  0
  -32.9827  -14.1245   20.7869 C   0  0  0  0  0  0  0  0  0  0  0  0
  -24.3425  -31.9951   21.8793 C   0  0  0  0  0  0  0  0  0  0  0  0
  -24.1300  -30.5243   23.7843 C   0  0  0  0  0  0  0  0  0  0  0  0
  -26.5361  -14.9565   24.5798 C   0  0  0  0  0  0  0  0  0  0  0  0
  -23.1768  -35.1098   23.3472 C   0  0  0  0  0  0  0  0  0  0  0  0
  -23.7532  -36.3783   23.2820 C   0  0  0  0  0  0  0  0  0  0  0  0
  -28.5908  -20.9550   19.9201 C   0  0  0  0  0  0  0  0  0  0  0  0
  -26.0805  -16.4600   22.7493 C   0  0  0  0  0  0  0  0  0  0  0  0
  -27.1226  -19.8763   18.3066 C   0  0  0  0  0  0  0  0  0  0  0  0
  -25.8058  -35.4925   24.1983 C   0  0  0  0  0  0  0  0  0  0  0  0
  -25.1461  -29.7206   21.7451 C   0  0  0  0  0  0  0  0  0  0  0  0
  -27.1472  -28.3677   20.9249 C   0  0  0  0  0  0  0  0  0  0  0  0
  -21.4276   -9.4666   22.0879 C   0  0  0  0  0  0  0  0  0  0  0  0
  -24.2620  -15.2362   23.7765 C   0  0  0  0  0  0  0  0  0  0  0  0
  -22.4008  -10.4656   21.8952 C   0  0  0  0  0  0  0  0  0  0  0  0
  -29.4009  -19.8338   19.8767 C   0  0  0  0  0  0  0  0  0  0  0  0
  -24.7118  -16.1594   22.8218 C   0  0  0  0  0  0  0  0  0  0  0  0
  -29.0842  -18.7446   19.0584 C   0  0  0  0  0  0  0  0  0  0  0  0
  -32.7553  -16.3797   19.9505 C   0  0  0  0  0  0  0  0  0  0  0  0
  -32.7048  -15.4732   21.0095 C   0  0  0  0  0  0  0  0  0  0  0  0
  -27.9502  -18.7522   18.2650 C   0  0  0  0  0  0  0  0  0  0  0  0
  -27.4406  -20.9698   19.1281 C   0  0  0  0  0  0  0  0  0  0  0  0
  -23.9330  -31.7728   23.1941 C   0  0  0  0  0  0  0  0  0  0  0  0
  -26.9875  -15.8603   23.6226 C   0  0  0  0  0  0  0  0  0  0  0  0
  -23.9148  -34.0327   23.8380 C   0  0  0  0  0  0  0  0  0  0  0  0
  -25.0678  -36.5696   23.7075 C   0  0  0  0  0  0  0  0  0  0  0  0
  -25.2293  -34.2241   24.2635 C   0  0  0  0  0  0  0  0  0  0  0  0
  -25.7721  -28.6601   20.9970 C   0  0  0  0  0  0  0  0  0  0  0  0
  -27.2233  -27.2776   20.0928 C   0  0  0  0  0  0  0  0  0  0  0  0
  -28.2567  -29.0228   21.5540 C   0  0  0  0  0  0  0  0  0  0  0  0
  -22.2738  -14.1423   21.5507 C   0  0  0  0  0  0  0  0  0  0  0  0
  -21.3108  -17.2380   21.4440 C   0  0  0  0  0  0  0  0  0  0  0  0
  -22.0476  -20.5224   22.0066 C   0  0  0  0  0  0  0  0  0  0  0  0
  -25.4080  -22.2837   18.4291 C   0  0  0  0  0  0  0  0  0  0  0  0
  -20.0761   -9.5367   21.4220 C   0  0  0  0  0  0  0  0  0  0  0  0
  -22.7976  -14.9133   23.8932 C   0  0  0  0  0  0  0  0  0  0  0  0
  -23.7656  -16.8336   21.8633 C   0  0  0  0  0  0  0  0  0  0  0  0
  -30.6796  -19.5890   20.6050 C   0  0  0  0  0  0  0  0  0  0  0  0
  -30.1249  -17.6819   19.1726 C   0  0  0  0  0  0  0  0  0  0  0  0
  -19.7172  -10.9321   20.9178 C   0  0  0  0  0  0  0  0  0  0  0  0
  -23.7142  -25.1373   17.1387 C   0  0  0  0  0  0  0  0  0  0  0  0
  -20.8919  -11.5453   20.1622 C   0  0  0  0  0  0  0  0  0  0  0  0
  -24.2117  -26.2841   18.0216 C   0  0  0  0  0  0  0  0  0  0  0  0
  -23.5390  -23.8446   17.9337 C   0  0  0  0  0  0  0  0  0  0  0  0
  -25.2140  -24.5721   19.5872 C   0  0  0  0  0  0  0  0  0  0  0  0
  -22.1128  -11.7051   21.0762 C   0  0  1  0  0  0  0  0  0  0  0  0
  -22.0224  -15.1811   22.6068 C   0  0  1  0  0  0  0  0  0  0  0  0
  -25.4677  -25.8786   18.8175 C   0  0  2  0  0  0  0  0  0  0  0  0
  -21.0750  -22.8252   21.7865 C   0  0  0  0  0  0  0  0  0  0  0  0
  -21.8128  -17.1599   18.4354 C   0  0  0  0  0  0  0  0  0  0  0  0
  -21.7524  -19.6628   18.4307 C   0  0  0  0  0  0  0  0  0  0  0  0
  -19.7320  -18.3695   19.1147 C   0  0  0  0  0  0  0  0  0  0  0  0
  -24.7434  -13.4280   16.9158 C   0  0  0  0  0  0  0  0  0  0  0  0
  -22.2260  -21.0024   24.9215 C   0  0  0  0  0  0  0  0  0  0  0  0
  -27.6095  -17.6006   17.3848 C   0  0  0  0  0  0  0  0  0  0  0  0
  -32.4629  -17.8285   20.1654 C   0  0  0  0  0  0  0  0  0  0  0  0
  -32.3534  -15.9251   22.3963 C   0  0  0  0  0  0  0  0  0  0  0  0
  -26.5331  -16.6552   17.9557 C   0  0  0  0  0  0  0  0  0  0  0  0
  -26.2059  -15.4457   17.0853 C   0  0  0  0  0  0  0  0  0  0  0  0
  -30.6156  -15.9270   24.1904 C   0  0  0  0  0  0  0  0  0  0  0  0
  -29.1831  -15.5167   24.4695 C   0  0  0  0  0  0  0  0  0  1  0  0
  -21.7280  -18.4612   20.6637 C   0  0  1  0  0  0  0  0  0  0  0  0
  -21.2683  -21.6251   22.7003 C   0  0  2  0  0  0  0  0  0  0  0  0
  -21.2746  -18.3993   19.1778 C   0  0  0  0  0  0  0  0  0  0  0  0
  -25.0281  -27.8234   20.2686 N   0  0  0  0  0  0  0  0  0  0  0  0
  -25.9392  -26.9946   19.7309 N   0  0  0  0  0  0  0  0  0  0  0  0
  -22.3442  -16.4803   22.0130 N   0  0  0  0  0  0  0  0  0  0  0  0
  -24.7699  -23.5210   18.6583 N   0  0  0  0  0  0  0  0  0  0  0  0
  -28.2628  -26.5432   19.6427 N   0  0  0  0  0  0  0  0  0  0  0  0
  -28.0008  -30.1277   22.3775 N   0  0  0  0  0  0  0  0  0  0  0  0
  -26.5876  -22.1010   19.1501 N   0  0  0  0  0  0  0  0  0  0  0  0
  -21.9511  -12.8559   21.9388 N   0  0  0  0  0  0  0  0  0  0  0  0
  -21.2110  -19.6103   21.3989 N   0  0  0  0  0  0  0  0  0  0  0  0
  -31.0137  -18.1166   20.3428 N   0  3  1  0  0  0  0  0  0  0  0  0
  -25.1264  -14.6365   17.6973 N   0  3  0  0  0  0  0  0  0  0  0  0
  -21.9886  -22.0774   23.9241 N   0  3  0  0  0  0  0  0  0  0  0  0
  -30.9725  -15.5459   22.8006 N   0  3  0  0  0  0  0  0  0  0  0  0
  -29.4413  -28.6499   21.3776 O   0  0  0  0  0  0  0  0  0  0  0  0
  -22.7255  -14.4828   20.4637 O   0  0  0  0  0  0  0  0  0  0  0  0
  -20.1117  -16.9689   21.5510 O   0  0  0  0  0  0  0  0  0  0  0  0
  -23.2758  -20.4770   22.0010 O   0  0  0  0  0  0  0  0  0  0  0  0
  -24.9569  -21.4590   17.6301 O   0  0  0  0  0  0  0  0  0  0  0  0
  -23.3413  -32.7738   23.9014 O   0  0  0  0  0  0  0  0  0  0  0  0
  -28.3119  -16.1625   23.5420 O   0  0  0  0  0  0  0  0  0  1  0  0
  -25.6217  -37.7875   23.6434 F   0  0  0  0  0  0  0  0  0  0  0  0
  -25.9436  -33.1929   24.7349 F   0  0  0  0  0  0  0  0  0  0  0  0
  1  2  1  0  0  0  0
  1  7  2  0  0  0  0
  2  8  2  0  0  0  0
  3  4  1  0  0  0  0
  3 10  2  0  0  0  0
  4 11  2  0  0  0  0
  5 12  2  0  0  0  0
  5 21  1  0  0  0  0
  6 13  1  0  0  0  0
  6 21  2  0  0  0  0
  7 23  1  0  0  0  0
  8 25  1  0  0  0  0
  9 14  2  0  0  0  0
  9 24  1  0  0  0  0
 10 29  1  0  0  0  0
 11 30  1  0  0  0  0
 12 33  1  0  0  0  0
 13 33  2  0  0  0  0
 14 34  1  0  0  0  0
 15 16  2  0  0  0  0
 15 35  1  0  0  0  0
 16 36  1  0  0  0  0
 17 26  2  0  0  0  0
 17 32  1  0  0  0  0
 18 27  1  0  0  0  0
 18 34  2  0  0  0  0
 19 31  1  0  0  0  0
 19 32  2  0  0  0  0
 20 36  2  0  0  0  0
 20 37  1  0  0  0  0
 21 38  1  0  0  0  0
 22 38  1  0  0  0  0
 22 39  2  0  0  0  0
 22 40  1  0  0  0  0
 23 25  2  0  0  0  0
 23 45  1  0  0  0  0
 24 27  2  0  0  0  0
 24 46  1  0  0  0  0
 25 56  1  0  0  0  0
 26 28  1  0  0  0  0
 26 48  1  0  0  0  0
 27 47  1  0  0  0  0
 28 31  2  0  0  0  0
 28 49  1  0  0  0  0
 29 30  2  0  0  0  0
 29 66  1  0  0  0  0
 30 67  1  0  0  0  0
 31 65  1  0  0  0  0
 32 81  1  0  0  0  0
 33 93  1  0  0  0  0
 34 94  1  0  0  0  0
 35 37  2  0  0  0  0
 35 93  1  0  0  0  0
 36 95  1  0  0  0  0
 37 96  1  0  0  0  0
 38 75  2  0  0  0  0
 39 76  1  0  0  0  0
 39 79  1  0  0  0  0
 40 80  1  0  0  0  0
 40 88  2  0  0  0  0
 41 57  1  0  0  0  0
 41 82  1  0  0  0  0
 41 89  2  0  0  0  0
 42 72  1  0  0  0  0
 42 77  1  0  0  0  0
 42 90  2  0  0  0  0
 43 73  1  0  0  0  0
 43 83  1  0  0  0  0
 43 91  2  0  0  0  0
 44 78  1  0  0  0  0
 44 81  1  0  0  0  0
 44 92  2  0  0  0  0
 45 50  1  0  0  0  0
 46 57  1  0  0  0  0
 47 77  1  0  0  0  0
 48 84  1  0  0  0  0
 49 84  1  0  0  0  0
 50 52  1  0  0  0  0
 51 53  1  0  0  0  0
 51 54  1  0  0  0  0
 52 56  1  0  0  0  0
 53 58  1  0  0  0  0
 54 78  1  0  0  0  0
 55 58  1  0  0  0  0
 55 78  1  0  0  0  0
 56 82  1  0  0  0  0
 57 77  1  0  0  0  0
 58 76  1  0  0  0  0
 59 73  1  0  0  0  0
 60 74  1  0  0  0  0
 61 74  1  0  0  0  0
 62 74  1  0  0  0  0
 63 85  1  0  0  0  0
 64 86  1  0  0  0  0
 65 68  1  0  0  0  0
 66 84  1  0  0  0  0
 67 87  1  0  0  0  0
 68 69  1  0  0  0  0
 69 85  1  0  0  0  0
 70 71  1  0  0  0  0
 70 87  1  0  0  0  0
 71 94  1  0  0  0  0
 72 74  1  0  0  0  0
 72 83  1  0  0  0  0
 73 86  1  0  0  0  0
 75 76  1  0  0  0  0
M  CHG  4  84   1  85   1  86   1  87   1
M  ISO  4  44 100  71 101  81 100  94 101
M  END
> <Batch ID>
0005

> <Smiles>
CNCCCc1cc([100NH:0][100C:0](=O)N2CCCC(n3nc(-c4ccc(Oc5ccc(F)cc5F)cc4)c(C(N)=O)c3N)C2)cc2c1CN(Cc1ccccc1CNC[101CH2:1][101O:1]c1ccc3c(c1)CN(C(=O)C(NC(=O)C(C)NC)C(C)(C)C)C(C(=O)NC1CCCc4ccccc41)C3)C2

> <Shape>
0.208

> <Color>
0.073

> <Negative vol penalty>
0.000

$$$$

  -OEChem-04042320263D

 96106  0     1  0  0  0  0  0999 V2000
  -28.5979  -40.4781   21.9945 C   0  0  0  0  0  0  0  0  0  0  0  0
  -28.9188  -40.0193   23.2681 C   0  0  0  0  0  0  0  0  0  0  0  0
  -31.4853  -21.4425   21.9906 C   0  0  0  0  0  0  0  0  0  0  0  0
  -31.9534  -19.1817   21.1709 C   0  0  0  0  0  0  0  0  0  0  0  0
  -23.3200  -10.5179   22.6521 C   0  0  0  0  0  0  0  0  0  0  0  0
  -23.7852   -9.4014   20.5607 C   0  0  0  0  0  0  0  0  0  0  0  0
  -27.4047  -40.0816   21.3920 C   0  0  0  0  0  0  0  0  0  0  0  0
  -28.0460  -39.1645   23.9404 C   0  0  0  0  0  0  0  0  0  0  0  0
  -30.1874  -32.6396   26.1154 C   0  0  0  0  0  0  0  0  0  0  0  0
  -30.6136  -22.3551   22.5856 C   0  0  0  0  0  0  0  0  0  0  0  0
  -31.5433  -17.8653   20.9577 C   0  0  0  0  0  0  0  0  0  0  0  0
  -22.6179   -9.3968   23.0945 C   0  0  0  0  0  0  0  0  0  0  0  0
  -23.0831   -8.2802   21.0032 C   0  0  0  0  0  0  0  0  0  0  0  0
  -30.5830  -31.4612   26.7488 C   0  0  0  0  0  0  0  0  0  0  0  0
  -19.5625   -8.0284   22.6296 C   0  0  0  0  0  0  0  0  0  0  0  0
  -18.3320   -8.2391   23.2518 C   0  0  0  0  0  0  0  0  0  0  0  0
  -28.9266  -20.6366   22.7526 C   0  0  0  0  0  0  0  0  0  0  0  0
  -29.3947  -18.3756   21.9329 C   0  0  0  0  0  0  0  0  0  0  0  0
  -28.3192  -31.1033   27.5202 C   0  0  0  0  0  0  0  0  0  0  0  0
  -19.1633   -7.1761   25.2558 C   0  0  0  0  0  0  0  0  0  0  0  0
  -31.0892  -20.1136   21.7684 C   0  0  0  0  0  0  0  0  0  0  0  0
  -29.7907  -19.7046   22.1551 C   0  0  0  0  0  0  0  0  0  0  0  0
  -23.9036  -10.5202   21.3852 C   0  0  0  0  0  0  0  0  0  0  0  0
  -24.1294  -12.9847   20.7664 C   0  0  0  0  0  0  0  0  0  0  0  0
  -26.5214  -39.2138   22.0534 C   0  0  0  0  0  0  0  0  0  0  0  0
  -28.8515  -33.0468   26.1692 C   0  0  0  0  0  0  0  0  0  0  0  0
  -26.8392  -38.7571   23.3468 C   0  0  0  0  0  0  0  0  0  0  0  0
  -27.9146  -32.2762   26.8773 C   0  0  0  0  0  0  0  0  0  0  0  0
  -29.3368  -21.9529   22.9658 C   0  0  0  0  0  0  0  0  0  0  0  0
  -30.2663  -17.4631   21.3380 C   0  0  0  0  0  0  0  0  0  0  0  0
  -22.4995   -8.2779   22.2701 C   0  0  0  0  0  0  0  0  0  0  0  0
  -29.6512  -30.6951   27.4496 C   0  0  0  0  0  0  0  0  0  0  0  0
  -20.5934   -7.3914   23.3204 C   0  0  0  0  0  0  0  0  0  0  0  0
  -18.1324   -7.8130   24.5649 C   0  0  0  0  0  0  0  0  0  0  0  0
  -20.3938   -6.9653   24.6335 C   0  0  0  0  0  0  0  0  0  0  0  0
  -24.6285  -11.6783   20.9274 C   0  0  0  0  0  0  0  0  0  0  0  0
  -25.2043  -13.7093   20.3124 C   0  0  0  0  0  0  0  0  0  0  0  0
  -22.8121  -13.4975   21.0058 C   0  0  0  0  0  0  0  0  0  0  0  0
  -26.2809  -35.5863   25.1599 C   0  0  0  0  0  0  0  0  0  0  0  0
  -24.9547  -32.8308   24.9168 C   0  0  0  0  0  0  0  0  0  0  0  0
  -28.3707  -24.4966   27.0714 C   0  0  0  0  0  0  0  0  0  0  0  0
  -24.0014  -29.5997   24.3801 C   0  0  0  0  0  0  0  0  0  0  0  0
  -30.5923  -15.0947   20.5438 C   0  0  0  0  0  0  0  0  0  0  0  0
  -25.2212  -38.8505   21.3811 C   0  0  0  0  0  0  0  0  0  0  0  0
  -28.3929  -34.3409   25.5537 C   0  0  0  0  0  0  0  0  0  0  0  0
  -26.4954  -32.7712   26.9375 C   0  0  0  0  0  0  0  0  0  0  0  0
  -24.5273  -37.6442   22.0085 C   0  0  0  0  0  0  0  0  0  0  0  0
  -29.7441  -12.1891   18.6689 C   0  0  0  0  0  0  0  0  0  0  0  0
  -24.5068  -37.7710   23.5284 C   0  0  0  0  0  0  0  0  0  0  0  0
  -28.2965  -11.9047   19.0760 C   0  0  0  0  0  0  0  0  0  0  0  0
  -29.6802  -27.3065   28.8964 C   0  0  0  0  0  0  0  0  0  0  0  0
  -28.5945  -28.1249   26.7782 C   0  0  0  0  0  0  0  0  0  0  0  0
  -30.5713  -12.7109   19.8424 C   0  0  0  0  0  0  0  0  0  0  0  0
  -28.7227  -26.1202   28.9028 C   0  0  0  0  0  0  0  0  0  0  0  0
  -27.6558  -26.9230   26.8170 C   0  0  0  0  0  0  0  0  0  0  0  0
  -28.5500  -13.5841   20.9475 C   0  0  0  0  0  0  0  0  0  0  0  0
  -25.9300  -37.8090   24.0981 C   0  0  1  0  0  0  0  0  0  0  0  0
  -26.9668  -34.2640   24.9796 C   0  0  1  0  0  0  0  0  0  0  0  0
  -27.6611  -13.1180   19.7829 C   0  0  2  0  0  0  0  0  0  0  0  0
  -29.0727  -28.5097   28.1768 C   0  0  0  0  0  0  0  0  0  1  0  0
  -24.7760  -21.9824   26.3902 C   0  0  0  0  0  0  0  0  0  0  0  0
  -22.0531  -28.2247   23.5987 C   0  0  0  0  0  0  0  0  0  0  0  0
  -25.4658  -24.9245   26.2183 C   0  0  0  0  0  0  0  0  0  0  0  0
  -23.5636  -33.2881   27.5926 C   0  0  0  0  0  0  0  0  0  0  0  0
  -22.1996  -31.2350   27.1537 C   0  0  0  0  0  0  0  0  0  0  0  0
  -22.0283  -33.1953   25.6206 C   0  0  0  0  0  0  0  0  0  0  0  0
  -25.5483  -28.4824   22.1179 C   0  0  0  0  0  0  0  0  0  0  0  0
  -28.4008  -22.9351   23.6063 C   0  0  0  0  0  0  0  0  0  0  0  0
  -26.2084  -22.4999   26.4158 C   0  0  0  0  0  0  0  0  0  0  0  0
  -24.1149  -31.7683   25.5795 C   0  0  1  0  0  0  0  0  0  0  0  0
  -27.8804  -24.2464   25.6675 C   0  0  2  0  0  0  0  0  0  0  0  0
  -23.3375  -28.9294   23.1908 C   0  0  2  0  0  0  0  0  0  0  0  0
  -26.3961  -23.8362   25.6637 C   0  0  2  0  0  0  0  0  0  0  0  0
  -23.0051  -32.3704   26.4867 C   0  0  0  0  0  0  0  0  0  0  0  0
  -25.9199  -11.5758   20.6020 N   0  0  0  0  0  0  0  0  0  0  0  0
  -26.2413  -12.8271   20.2319 N   0  0  0  0  0  0  0  0  0  0  0  0
  -26.0824  -33.2745   25.6181 N   0  0  0  0  0  0  0  0  0  0  0  0
  -28.2631  -25.8035   27.5484 N   0  0  0  0  0  0  0  0  0  0  0  0
  -29.9101  -13.8625   20.4600 N   0  0  0  0  0  0  0  0  0  0  0  0
  -25.3541  -15.0086   19.9781 N   0  0  0  0  0  0  0  0  0  0  0  0
  -21.8265  -12.6163   21.4712 N   0  0  0  0  0  0  0  0  0  0  0  0
  -29.8517  -16.1257   21.1211 N   0  0  0  0  0  0  0  0  0  0  0  0
  -26.4984  -36.4784   24.1272 N   0  0  0  0  0  0  0  0  0  0  0  0
  -23.6130  -30.9166   24.5066 N   0  0  0  0  0  0  0  0  0  0  0  0
  -24.2542  -27.9223   22.5855 N   0  3  0  0  0  0  0  0  0  0  0  0
  -28.7467  -23.2315   25.0242 N   0  3  0  0  0  0  0  0  0  0  0  0
  -22.5134  -14.6978   20.7971 O   0  0  0  0  0  0  0  0  0  0  0  0
  -25.6025  -35.7834   26.1612 O   0  0  0  0  0  0  0  0  0  0  0  0
  -24.6191  -33.2616   23.8099 O   0  0  0  0  0  0  0  0  0  0  0  0
  -28.8374  -23.5581   27.7223 O   0  0  0  0  0  0  0  0  0  0  0  0
  -24.7833  -29.0126   25.1248 O   0  0  0  0  0  0  0  0  0  0  0  0
  -31.7385  -15.2327   20.1090 O   0  0  0  0  0  0  0  0  0  0  0  0
  -21.8146   -7.1837   22.7015 O   0  0  0  0  0  0  0  0  0  0  0  0
  -30.0432  -29.5435   28.0618 O   0  0  0  0  0  0  0  0  0  1  0  0
  -16.9513   -8.0168   25.1628 F   0  0  0  0  0  0  0  0  0  0  0  0
  -21.3808   -6.3539   25.3027 F   0  0  0  0  0  0  0  0  0  0  0  0
  1  2  1  0  0  0  0
  1  7  2  0  0  0  0
  2  8  2  0  0  0  0
  3 10  2  0  0  0  0
  3 21  1  0  0  0  0
  4 11  2  0  0  0  0
  4 21  1  0  0  0  0
  5 12  2  0  0  0  0
  5 23  1  0  0  0  0
  6 13  1  0  0  0  0
  6 23  2  0  0  0  0
  7 25  1  0  0  0  0
  8 27  1  0  0  0  0
  9 14  2  0  0  0  0
  9 26  1  0  0  0  0
 10 29  1  0  0  0  0
 11 30  1  0  0  0  0
 12 31  1  0  0  0  0
 13 31  2  0  0  0  0
 14 32  1  0  0  0  0
 15 16  2  0  0  0  0
 15 33  1  0  0  0  0
 16 34  1  0  0  0  0
 17 22  1  0  0  0  0
 17 29  2  0  0  0  0
 18 22  1  0  0  0  0
 18 30  2  0  0  0  0
 19 28  1  0  0  0  0
 19 32  2  0  0  0  0
 20 34  2  0  0  0  0
 20 35  1  0  0  0  0
 21 22  2  0  0  0  0
 23 36  1  0  0  0  0
 24 36  1  0  0  0  0
 24 37  2  0  0  0  0
 24 38  1  0  0  0  0
 25 27  2  0  0  0  0
 25 44  1  0  0  0  0
 26 28  2  0  0  0  0
 26 45  1  0  0  0  0
 27 57  1  0  0  0  0
 28 46  1  0  0  0  0
 29 68  1  0  0  0  0
 30 82  1  0  0  0  0
 31 93  1  0  0  0  0
 32 94  1  0  0  0  0
 33 35  2  0  0  0  0
 33 93  1  0  0  0  0
 34 95  1  0  0  0  0
 35 96  1  0  0  0  0
 36 75  2  0  0  0  0
 37 76  1  0  0  0  0
 37 80  1  0  0  0  0
 38 81  1  0  0  0  0
 38 87  2  0  0  0  0
 39 58  1  0  0  0  0
 39 83  1  0  0  0  0
 39 88  2  0  0  0  0
 40 70  1  0  0  0  0
 40 77  1  0  0  0  0
 40 89  2  0  0  0  0
 41 71  1  0  0  0  0
 41 78  1  0  0  0  0
 41 90  2  0  0  0  0
 42 72  1  0  0  0  0
 42 84  1  0  0  0  0
 42 91  2  0  0  0  0
 43 79  1  0  0  0  0
 43 82  1  0  0  0  0
 43 92  2  0  0  0  0
 44 47  1  0  0  0  0
 45 58  1  0  0  0  0
 46 77  1  0  0  0  0
 47 49  1  0  0  0  0
 48 50  1  0  0  0  0
 48 53  1  0  0  0  0
 49 57  1  0  0  0  0
 50 59  1  0  0  0  0
 51 54  1  0  0  0  0
 51 60  1  0  0  0  0
 52 55  1  0  0  0  0
 52 60  1  0  0  0  0
 53 79  1  0  0  0  0
 54 78  1  0  0  0  0
 55 78  1  0  0  0  0
 56 59  1  0  0  0  0
 56 79  1  0  0  0  0
 57 83  1  0  0  0  0
 58 77  1  0  0  0  0
 59 76  1  0  0  0  0
 60 94  1  0  0  0  0
 61 69  1  0  0  0  0
 62 72  1  0  0  0  0
 63 73  1  0  0  0  0
 64 74  1  0  0  0  0
 65 74  1  0  0  0  0
 66 74  1  0  0  0  0
 67 85  1  0  0  0  0
 68 86  1  0  0  0  0
 69 73  1  0  0  0  0
 70 74  1  0  0  0  0
 70 84  1  0  0  0  0
 71 73  1  0  0  0  0
 71 86  1  0  0  0  0
 72 85  1  0  0  0  0
 75 76  1  0  0  0  0
M  CHG  2  85   1  86   1
M  ISO  4  43 100  60 101  82 100  94 101
M  END
> <Batch ID>
0005

> <Smiles>
CCC(C)C(NCc1ccc2ccc([100NH:0][100C:0](=O)N3CCCC(n4nc(-c5ccc(Oc6ccc(F)cc6F)cc5)c(C(N)=O)c4N)C3)cc2c1)C(=O)N1CC[101CH:1]([101O:1]c2ccc3c(c2)CN(C(=O)C(NC(=O)C(C)NC)C(C)(C)C)C(C(=O)NC2CCCc4ccccc42)C3)CC1

> <Shape>
0.254

> <Color>
0.157

> <Negative vol penalty>
0.000

$$$$

  -OEChem-04042320263D

 90 99  0     1  0  0  0  0  0999 V2000
  -28.4568  -25.0513   16.4072 C   0  0  0  0  0  0  0  0  0  0  0  0
  -27.2803  -25.1204   17.1463 C   0  0  0  0  0  0  0  0  0  0  0  0
  -26.5225  -13.5345   21.9787 C   0  0  0  0  0  0  0  0  0  0  0  0
  -25.1331  -15.2549   21.0056 C   0  0  0  0  0  0  0  0  0  0  0  0
  -29.6208  -25.6442   16.8946 C   0  0  0  0  0  0  0  0  0  0  0  0
  -27.2673  -25.7816   18.3740 C   0  0  0  0  0  0  0  0  0  0  0  0
  -23.2326  -28.7937   18.9156 C   0  0  0  0  0  0  0  0  0  0  0  0
  -27.5833  -23.7001   24.5234 C   0  0  0  0  0  0  0  0  0  0  0  0
  -25.4011  -12.7213   22.1422 C   0  0  0  0  0  0  0  0  0  0  0  0
  -24.0117  -14.4417   21.1691 C   0  0  0  0  0  0  0  0  0  0  0  0
  -22.0215  -28.1836   19.2395 C   0  0  0  0  0  0  0  0  0  0  0  0
  -23.4801  -10.7109   20.2183 C   0  0  0  0  0  0  0  0  0  0  0  0
  -23.5928   -9.3700   19.8513 C   0  0  0  0  0  0  0  0  0  0  0  0
  -26.7662  -24.8218   24.6630 C   0  0  0  0  0  0  0  0  0  0  0  0
  -22.3331  -28.8051   21.5494 C   0  0  0  0  0  0  0  0  0  0  0  0
  -23.0718   -8.7066   22.1153 C   0  0  0  0  0  0  0  0  0  0  0  0
  -26.3885  -14.8013   21.4105 C   0  0  0  0  0  0  0  0  0  0  0  0
  -28.4000  -15.6992   20.1238 C   0  0  0  0  0  0  0  0  0  0  0  0
  -29.6197  -26.3213   18.1243 C   0  0  0  0  0  0  0  0  0  0  0  0
  -24.0096  -29.4055   19.9097 C   0  0  0  0  0  0  0  0  0  0  0  0
  -28.4326  -26.3829   18.8789 C   0  0  0  0  0  0  0  0  0  0  0  0
  -23.5524  -29.4244   21.2351 C   0  0  0  0  0  0  0  0  0  0  0  0
  -26.4932  -23.1658   22.4346 C   0  0  0  0  0  0  0  0  0  0  0  0
  -25.6760  -24.2875   22.5742 C   0  0  0  0  0  0  0  0  0  0  0  0
  -27.4469  -22.8720   23.4092 C   0  0  0  0  0  0  0  0  0  0  0  0
  -24.1457  -13.1748   21.7374 C   0  0  0  0  0  0  0  0  0  0  0  0
  -21.5729  -28.1868   20.5570 C   0  0  0  0  0  0  0  0  0  0  0  0
  -23.1634  -11.0497   21.5339 C   0  0  0  0  0  0  0  0  0  0  0  0
  -23.3886   -8.3678   20.7997 C   0  0  0  0  0  0  0  0  0  0  0  0
  -22.9592  -10.0476   22.4823 C   0  0  0  0  0  0  0  0  0  0  0  0
  -25.8125  -25.1156   23.6884 C   0  0  0  0  0  0  0  0  0  0  0  0
  -27.5464  -15.6420   21.2419 C   0  0  0  0  0  0  0  0  0  0  0  0
  -29.3380  -16.6458   20.4560 C   0  0  0  0  0  0  0  0  0  0  0  0
  -28.3493  -14.9625   18.8948 C   0  0  0  0  0  0  0  0  0  0  0  0
  -26.9234  -28.9314   21.0881 C   0  0  0  0  0  0  0  0  0  0  0  0
  -22.2026  -24.4052   21.1418 C   0  0  0  0  0  0  0  0  0  0  0  0
  -26.2773  -31.6516   22.7329 C   0  0  0  0  0  0  0  0  0  0  0  0
  -23.9327  -33.7673   24.0267 C   0  0  0  0  0  0  0  0  0  0  0  0
  -29.2789  -21.3220   24.1755 C   0  0  0  0  0  0  0  0  0  0  0  0
  -30.9139  -26.9059   18.6323 C   0  0  0  0  0  0  0  0  0  0  0  0
  -25.3007  -30.0825   19.5396 C   0  0  0  0  0  0  0  0  0  0  0  0
  -24.3394  -30.0855   22.3361 C   0  0  0  0  0  0  0  0  0  0  0  0
  -30.7249  -27.9103   19.7662 C   0  0  0  0  0  0  0  0  0  0  0  0
  -31.5360  -18.5693   24.2512 C   0  0  0  0  0  0  0  0  0  0  0  0
  -19.4910  -22.6460   20.3903 C   0  0  0  0  0  0  0  0  0  0  0  0
  -29.7586  -27.3608   20.8107 C   0  0  0  0  0  0  0  0  0  0  0  0
  -20.5469  -22.5511   21.4778 C   0  0  0  0  0  0  0  0  0  0  0  0
  -30.8496  -17.5137   23.3814 C   0  0  0  0  0  0  0  0  0  0  0  0
  -30.5275  -19.3700   25.0732 C   0  0  0  0  0  0  0  0  0  0  0  0
  -28.7491  -18.9183   23.4292 C   0  0  0  0  0  0  0  0  0  0  0  0
  -18.6982  -23.8684   20.7952 C   0  0  0  0  0  0  0  0  0  0  0  0
  -28.3725  -27.1126   20.2034 C   0  0  1  0  0  0  0  0  0  0  0  0
  -26.2588  -30.2272   20.7179 C   0  0  1  0  0  0  0  0  0  0  0  0
  -20.9213  -23.9968   21.7920 C   0  0  2  0  0  0  0  0  0  0  0  0
  -29.7191  -18.1299   22.5340 C   0  0  2  0  0  0  0  0  0  0  0  0
  -26.3470  -22.2776   21.2383 C   0  0  0  0  0  0  0  0  0  0  0  0
  -23.7090  -35.8866   25.3518 C   0  0  0  0  0  0  0  0  0  0  0  0
  -26.9840  -30.1298   25.2814 C   0  0  0  0  0  0  0  0  0  0  0  0
  -25.8535  -31.9388   26.5920 C   0  0  0  0  0  0  0  0  0  0  0  0
  -27.8481  -32.4750   25.1932 C   0  0  0  0  0  0  0  0  0  0  0  0
  -22.5215  -35.1378   21.8155 C   0  0  0  0  0  0  0  0  0  0  0  0
  -24.6535  -24.5910   21.5174 C   0  0  0  0  0  0  0  0  0  0  0  0
  -19.2823  -25.8952   22.1701 C   0  0  0  0  0  0  0  0  0  0  0  0
  -20.2748  -27.0409   22.1873 C   0  0  0  0  0  0  0  0  0  1  0  0
  -25.6425  -31.9702   24.0651 C   0  0  1  0  0  0  0  0  0  0  0  0
  -23.7930  -35.2775   23.9609 C   0  0  2  0  0  0  0  0  0  0  0  0
  -26.5679  -31.6142   25.2627 C   0  0  0  0  0  0  0  0  0  0  0  0
  -27.9102  -16.4851   22.2119 N   0  0  0  0  0  0  0  0  0  0  0  0
  -29.0027  -17.0810   21.7043 N   0  0  0  0  0  0  0  0  0  0  0  0
  -25.5985  -30.7284   21.9250 N   0  0  0  0  0  0  0  0  0  0  0  0
  -29.4890  -19.9271   24.2037 N   0  0  0  0  0  0  0  0  0  0  0  0
  -30.4089  -17.1401   19.7991 N   0  0  0  0  0  0  0  0  0  0  0  0
  -27.3190  -14.0290   18.7174 N   0  0  0  0  0  0  0  0  0  0  0  0
  -28.2877  -21.7380   23.2873 N   0  0  0  0  0  0  0  0  0  0  0  0
  -27.6518  -28.3597   20.0624 N   0  0  0  0  0  0  0  0  0  0  0  0
  -23.3149  -24.2573   21.9483 N   0  0  0  0  0  0  0  0  0  0  0  0
  -25.2546  -33.3754   24.0067 N   0  0  0  0  0  0  0  0  0  0  0  0
  -19.7730  -24.8309   21.2414 N   0  3  2  0  0  0  0  0  0  0  0  0
  -22.5619  -35.6515   23.2089 N   0  3  0  0  0  0  0  0  0  0  0  0
  -29.2022  -15.1153   17.9878 O   0  0  0  0  0  0  0  0  0  0  0  0
  -26.7868  -28.4843   22.2208 O   0  0  0  0  0  0  0  0  0  0  0  0
  -22.1892  -24.8240   19.9902 O   0  0  0  0  0  0  0  0  0  0  0  0
  -27.3326  -32.2070   22.4177 O   0  0  0  0  0  0  0  0  0  0  0  0
  -22.9661  -33.0112   24.0931 O   0  0  0  0  0  0  0  0  0  0  0  0
  -29.9491  -22.0933   24.8669 O   0  0  0  0  0  0  0  0  0  0  0  0
  -23.0512  -12.3815   21.8965 O   0  0  0  0  0  0  0  0  0  0  0  0
  -20.3915  -27.5915   20.8760 O   0  0  0  0  0  0  0  0  0  1  0  0
  -23.4952   -7.0801   20.4468 F   0  0  0  0  0  0  0  0  0  0  0  0
  -22.6536  -10.3669   23.7474 F   0  0  0  0  0  0  0  0  0  0  0  0
  -24.8199  -26.5121   23.9009 Cl  0  0  0  0  0  0  0  0  0  0  0  0
  1  2  1  0  0  0  0
  1  5  2  0  0  0  0
  2  6  2  0  0  0  0
  3  9  2  0  0  0  0
  3 17  1  0  0  0  0
  4 10  1  0  0  0  0
  4 17  2  0  0  0  0
  5 19  1  0  0  0  0
  6 21  1  0  0  0  0
  7 11  2  0  0  0  0
  7 20  1  0  0  0  0
  8 14  1  0  0  0  0
  8 25  2  0  0  0  0
  9 26  1  0  0  0  0
 10 26  2  0  0  0  0
 11 27  1  0  0  0  0
 12 13  2  0  0  0  0
 12 28  1  0  0  0  0
 13 29  1  0  0  0  0
 14 31  2  0  0  0  0
 15 22  1  0  0  0  0
 15 27  2  0  0  0  0
 16 29  2  0  0  0  0
 16 30  1  0  0  0  0
 17 32  1  0  0  0  0
 18 32  1  0  0  0  0
 18 33  2  0  0  0  0
 18 34  1  0  0  0  0
 19 21  2  0  0  0  0
 19 40  1  0  0  0  0
 20 22  2  0  0  0  0
 20 41  1  0  0  0  0
 21 52  1  0  0  0  0
 22 42  1  0  0  0  0
 23 24  2  0  0  0  0
 23 25  1  0  0  0  0
 23 56  1  0  0  0  0
 24 31  1  0  0  0  0
 24 62  1  0  0  0  0
 25 74  1  0  0  0  0
 26 86  1  0  0  0  0
 27 87  1  0  0  0  0
 28 30  2  0  0  0  0
 28 86  1  0  0  0  0
 29 88  1  0  0  0  0
 30 89  1  0  0  0  0
 31 90  1  0  0  0  0
 32 68  2  0  0  0  0
 33 69  1  0  0  0  0
 33 72  1  0  0  0  0
 34 73  1  0  0  0  0
 34 80  2  0  0  0  0
 35 53  1  0  0  0  0
 35 75  1  0  0  0  0
 35 81  2  0  0  0  0
 36 54  1  0  0  0  0
 36 76  1  0  0  0  0
 36 82  2  0  0  0  0
 37 65  1  0  0  0  0
 37 70  1  0  0  0  0
 37 83  2  0  0  0  0
 38 66  1  0  0  0  0
 38 77  1  0  0  0  0
 38 84  2  0  0  0  0
 39 71  1  0  0  0  0
 39 74  1  0  0  0  0
 39 85  2  0  0  0  0
 40 43  1  0  0  0  0
 41 53  1  0  0  0  0
 42 70  1  0  0  0  0
 43 46  1  0  0  0  0
 44 48  1  0  0  0  0
 44 49  1  0  0  0  0
 45 47  1  0  0  0  0
 45 51  1  0  0  0  0
 46 52  1  0  0  0  0
 47 54  1  0  0  0  0
 48 55  1  0  0  0  0
 49 71  1  0  0  0  0
 50 55  1  0  0  0  0
 50 71  1  0  0  0  0
 51 78  1  0  0  0  0
 52 75  1  0  0  0  0
 53 70  1  0  0  0  0
 54 78  1  0  0  0  0
 55 69  1  0  0  0  0
 57 66  1  0  0  0  0
 58 67  1  0  0  0  0
 59 67  1  0  0  0  0
 60 67  1  0  0  0  0
 61 79  1  0  0  0  0
 62 76  1  0  0  0  0
 63 64  1  0  0  0  0
 63 78  1  0  0  0  0
 64 87  1  0  0  0  0
 65 67  1  0  0  0  0
 65 77  1  0  0  0  0
 66 79  1  0  0  0  0
 68 69  1  0  0  0  0
M  CHG  2  78   1  79   1
M  ISO  4  39 100  64 101  74 100  87 101
M  END
> <Batch ID>
0005

> <Smiles>
CNC(C)C(=O)NC(C(=O)N1Cc2cc([101O:1][101CH2:1]CN3CCCC3C(=O)NCc3c(Cl)ccc([100NH:0][100C:0](=O)N4CCCC(n5nc(-c6ccc(Oc7ccc(F)cc7F)cc6)c(C(N)=O)c5N)C4)c3C)ccc2CC1C(=O)NC1CCCc2ccccc21)C(C)(C)C

> <Shape>
0.282

> <Color>
0.081

> <Negative vol penalty>
0.000

$$$$

  -OEChem-04042320263D

 97106  0     1  0  0  0  0  0999 V2000
  -17.2207  -26.8588   22.7426 C   0  0  0  0  0  0  0  0  0  0  0  0
  -18.1899  -26.5700   21.7872 C   0  0  0  0  0  0  0  0  0  0  0  0
  -31.3773  -14.9838   22.3736 C   0  0  0  0  0  0  0  0  0  0  0  0
  -20.1494  -16.4951   20.4197 C   0  0  0  0  0  0  0  0  0  0  0  0
  -22.0718  -17.1679   19.1201 C   0  0  0  0  0  0  0  0  0  0  0  0
  -31.0755  -16.0568   21.5350 C   0  0  0  0  0  0  0  0  0  0  0  0
  -17.2654  -28.0676   23.4359 C   0  0  0  0  0  0  0  0  0  0  0  0
  -19.2037  -27.4904   21.5239 C   0  0  0  0  0  0  0  0  0  0  0  0
  -23.8461  -25.2875   21.2280 C   0  0  0  0  0  0  0  0  0  0  0  0
  -30.7046  -13.7710   22.2242 C   0  0  0  0  0  0  0  0  0  0  0  0
  -19.7299  -17.8236   20.4870 C   0  0  0  0  0  0  0  0  0  0  0  0
  -21.6522  -18.4965   19.1874 C   0  0  0  0  0  0  0  0  0  0  0  0
  -24.1850  -24.6111   20.0570 C   0  0  0  0  0  0  0  0  0  0  0  0
  -18.1583  -20.0443   18.4791 C   0  0  0  0  0  0  0  0  0  0  0  0
  -16.8097  -20.3110   18.2431 C   0  0  0  0  0  0  0  0  0  0  0  0
  -29.4280  -14.7042   20.3976 C   0  0  0  0  0  0  0  0  0  0  0  0
  -25.3940  -26.5531   19.2922 C   0  0  0  0  0  0  0  0  0  0  0  0
  -16.6101  -21.2602   20.4558 C   0  0  0  0  0  0  0  0  0  0  0  0
  -21.3204  -16.1672   19.7363 C   0  0  0  0  0  0  0  0  0  0  0  0
  -30.1008  -15.9170   20.5470 C   0  0  0  0  0  0  0  0  0  0  0  0
  -21.4207  -13.8466   18.6816 C   0  0  0  0  0  0  0  0  0  0  0  0
  -18.2858  -28.9992   23.1878 C   0  0  0  0  0  0  0  0  0  0  0  0
  -24.2705  -26.6079   21.4362 C   0  0  0  0  0  0  0  0  0  0  0  0
  -19.2614  -28.7134   22.2136 C   0  0  0  0  0  0  0  0  0  0  0  0
  -25.0631  -27.2423   20.4688 C   0  0  0  0  0  0  0  0  0  0  0  0
  -29.7300  -13.6313   21.2362 C   0  0  0  0  0  0  0  0  0  0  0  0
  -20.4813  -18.8243   19.8708 C   0  0  0  0  0  0  0  0  0  0  0  0
  -24.9571  -25.2446   19.0879 C   0  0  0  0  0  0  0  0  0  0  0  0
  -18.7328  -20.3855   19.7036 C   0  0  0  0  0  0  0  0  0  0  0  0
  -16.0356  -20.9190   19.2314 C   0  0  0  0  0  0  0  0  0  0  0  0
  -17.9587  -20.9935   20.6919 C   0  0  0  0  0  0  0  0  0  0  0  0
  -21.7546  -14.7951   19.6669 C   0  0  0  0  0  0  0  0  0  0  0  0
  -22.0811  -12.7052   19.0660 C   0  0  0  0  0  0  0  0  0  0  0  0
  -29.7800  -17.0598   19.6537 C   0  0  0  0  0  0  0  0  0  0  0  0
  -20.5882  -13.9848   17.5226 C   0  0  0  0  0  0  0  0  0  0  0  0
  -22.8689  -29.4481   21.8990 C   0  0  0  0  0  0  0  0  0  0  0  0
  -26.0356  -30.3527   22.3538 C   0  0  0  0  0  0  0  0  0  0  0  0
  -24.9503  -33.3156   23.6511 C   0  0  0  0  0  0  0  0  0  0  0  0
  -26.9786  -11.7464   22.3745 C   0  0  0  0  0  0  0  0  0  0  0  0
  -18.2655  -30.3127   23.9287 C   0  0  0  0  0  0  0  0  0  0  0  0
  -23.9194  -27.3096   22.7202 C   0  0  0  0  0  0  0  0  0  0  0  0
  -25.5464  -28.6564   20.6464 C   0  0  0  0  0  0  0  0  0  0  0  0
  -19.5875  -31.0727   23.8574 C   0  0  0  0  0  0  0  0  0  0  0  0
  -23.7129  -10.4547   22.9600 C   0  0  0  0  0  0  0  0  0  0  0  0
  -30.6931   -9.8062   19.7686 C   0  0  0  0  0  0  0  0  0  0  0  0
  -20.1137  -31.0954   22.4258 C   0  0  0  0  0  0  0  0  0  0  0  0
  -22.8105  -11.3350   22.0936 C   0  0  0  0  0  0  0  0  0  0  0  0
  -30.6570  -11.2867   19.4394 C   0  0  0  0  0  0  0  0  0  0  0  0
  -24.8646  -11.2525   23.5675 C   0  0  0  0  0  0  0  0  0  0  0  0
  -24.7718  -12.8903   21.7283 C   0  0  0  0  0  0  0  0  0  0  0  0
  -29.3675   -9.3140   19.2321 C   0  0  0  0  0  0  0  0  0  0  0  0
  -20.3912  -29.6756   21.9174 C   0  0  1  0  0  0  0  0  0  0  0  0
  -24.0253  -28.8307   22.6331 C   0  0  1  0  0  0  0  0  0  0  0  0
  -23.6277  -12.1186   21.0488 C   0  0  2  0  0  0  0  0  0  0  0  0
  -29.2125  -11.7119   19.7023 C   0  0  2  0  0  0  0  0  0  0  0  0
  -25.7757  -35.3656   24.8401 C   0  0  0  0  0  0  0  0  0  0  0  0
  -26.2464  -28.7597   24.9467 C   0  0  0  0  0  0  0  0  0  0  0  0
  -26.1224  -30.9220   26.2026 C   0  0  0  0  0  0  0  0  0  0  0  0
  -28.0206  -30.4956   24.6414 C   0  0  0  0  0  0  0  0  0  0  0  0
  -27.1937  -10.4938   18.7596 C   0  0  0  0  0  0  0  0  0  0  0  0
  -24.0715  -35.0879   21.4497 C   0  0  0  0  0  0  0  0  0  0  0  0
  -22.8972  -20.1086   15.2190 C   0  0  0  0  0  0  0  0  0  0  0  0
  -27.1477  -19.2601   16.4824 C   0  0  0  0  0  0  0  0  0  0  0  0
  -27.5014  -18.1849   17.5157 C   0  0  0  0  0  0  0  0  0  0  0  0
  -25.7027  -19.7381   16.6560 C   0  0  0  0  0  0  0  0  0  0  0  0
  -24.4828  -23.5207   15.9526 C   0  0  0  0  0  0  0  0  0  0  0  0
  -28.9524  -17.7264   17.4116 C   0  0  0  0  0  0  0  0  0  0  0  0
  -25.2704  -20.7551   15.6069 C   0  0  0  0  0  0  0  0  0  0  0  0
  -23.5316  -22.5146   15.3223 C   0  0  0  0  0  0  0  0  0  0  0  0
  -24.3708  -23.6030   17.4700 C   0  0  0  0  0  0  0  0  0  1  0  0
  -29.0104  -12.3345   21.0763 C   0  0  2  0  0  0  0  0  0  0  0  0
  -25.7206  -30.9580   23.6989 C   0  0  1  0  0  0  0  0  0  0  0  0
  -25.4660  -34.7344   23.4916 C   0  0  2  0  0  0  0  0  0  0  0  0
  -26.5069  -30.2764   24.8542 C   0  0  0  0  0  0  0  0  0  0  0  0
  -22.5640  -14.2993   20.6066 N   0  0  0  0  0  0  0  0  0  0  0  0
  -22.7443  -13.0269   20.2136 N   0  0  0  0  0  0  0  0  0  0  0  0
  -25.2496  -29.2662   21.9491 N   0  0  0  0  0  0  0  0  0  0  0  0
  -25.6001  -11.9708   22.5239 N   0  0  0  0  0  0  0  0  0  0  0  0
  -22.1534  -11.4679   18.5310 N   0  0  0  0  0  0  0  0  0  0  0  0
  -19.9863  -15.2264   17.2765 N   0  0  0  0  0  0  0  0  0  0  0  0
  -29.2856  -16.7341   18.3956 N   0  0  0  0  0  0  0  0  0  0  0  0
  -21.6362  -29.1780   22.4622 N   0  0  0  0  0  0  0  0  0  0  0  0
  -25.9689  -32.3898   23.5705 N   0  0  0  0  0  0  0  0  0  0  0  0
  -27.5979  -12.4627   21.3575 N   0  0  0  0  0  0  0  0  0  0  0  0
  -28.4099  -10.4146   19.6269 N   0  3  1  0  0  0  0  0  0  0  0  0
  -24.4524  -35.5793   22.7990 N   0  3  0  0  0  0  0  0  0  0  0  0
  -23.8254  -21.1451   15.8055 N   0  3  1  0  0  0  0  0  0  0  0  0
  -29.9803  -18.2052   20.0492 O   0  0  0  0  0  0  0  0  0  0  0  0
  -20.3708  -13.0309   16.7375 O   0  0  0  0  0  0  0  0  0  0  0  0
  -23.0794  -30.1211   20.8968 O   0  0  0  0  0  0  0  0  0  0  0  0
  -26.9576  -30.8235   21.6818 O   0  0  0  0  0  0  0  0  0  0  0  0
  -23.7630  -33.0550   23.8329 O   0  0  0  0  0  0  0  0  0  0  0  0
  -27.6097  -10.9617   23.0906 O   0  0  0  0  0  0  0  0  0  0  0  0
  -20.0721  -20.1208   19.9361 O   0  0  0  0  0  0  0  0  0  0  0  0
  -25.2897  -24.5864   17.9442 O   0  0  0  0  0  0  0  0  0  1  0  0
  -14.7409  -21.1764   19.0040 F   0  0  0  0  0  0  0  0  0  0  0  0
  -18.5054  -21.3247   21.8697 F   0  0  0  0  0  0  0  0  0  0  0  0
  1  2  1  0  0  0  0
  1  7  2  0  0  0  0
  2  8  2  0  0  0  0
  3  6  2  0  0  0  0
  3 10  1  0  0  0  0
  4 11  2  0  0  0  0
  4 19  1  0  0  0  0
  5 12  1  0  0  0  0
  5 19  2  0  0  0  0
  6 20  1  0  0  0  0
  7 22  1  0  0  0  0
  8 24  1  0  0  0  0
  9 13  2  0  0  0  0
  9 23  1  0  0  0  0
 10 26  2  0  0  0  0
 11 27  1  0  0  0  0
 12 27  2  0  0  0  0
 13 28  1  0  0  0  0
 14 15  2  0  0  0  0
 14 29  1  0  0  0  0
 15 30  1  0  0  0  0
 16 20  2  0  0  0  0
 16 26  1  0  0  0  0
 17 25  1  0  0  0  0
 17 28  2  0  0  0  0
 18 30  2  0  0  0  0
 18 31  1  0  0  0  0
 19 32  1  0  0  0  0
 20 34  1  0  0  0  0
 21 32  1  0  0  0  0
 21 33  2  0  0  0  0
 21 35  1  0  0  0  0
 22 24  2  0  0  0  0
 22 40  1  0  0  0  0
 23 25  2  0  0  0  0
 23 41  1  0  0  0  0
 24 52  1  0  0  0  0
 25 42  1  0  0  0  0
 26 71  1  0  0  0  0
 27 94  1  0  0  0  0
 28 95  1  0  0  0  0
 29 31  2  0  0  0  0
 29 94  1  0  0  0  0
 30 96  1  0  0  0  0
 31 97  1  0  0  0  0
 32 75  2  0  0  0  0
 33 76  1  0  0  0  0
 33 79  1  0  0  0  0
 34 81  1  0  0  0  0
 34 88  2  0  0  0  0
 35 80  1  0  0  0  0
 35 89  2  0  0  0  0
 36 53  1  0  0  0  0
 36 82  1  0  0  0  0
 36 90  2  0  0  0  0
 37 72  1  0  0  0  0
 37 77  1  0  0  0  0
 37 91  2  0  0  0  0
 38 73  1  0  0  0  0
 38 83  1  0  0  0  0
 38 92  2  0  0  0  0
 39 78  1  0  0  0  0
 39 84  1  0  0  0  0
 39 93  2  0  0  0  0
 40 43  1  0  0  0  0
 41 53  1  0  0  0  0
 42 77  1  0  0  0  0
 43 46  1  0  0  0  0
 44 47  1  0  0  0  0
 44 49  1  0  0  0  0
 45 48  1  0  0  0  0
 45 51  1  0  0  0  0
 46 52  1  0  0  0  0
 47 54  1  0  0  0  0
 48 55  1  0  0  0  0
 49 78  1  0  0  0  0
 50 54  1  0  0  0  0
 50 78  1  0  0  0  0
 51 85  1  0  0  0  0
 52 82  1  0  0  0  0
 53 77  1  0  0  0  0
 54 76  1  0  0  0  0
 55 71  1  0  0  0  0
 55 85  1  0  0  0  0
 56 73  1  0  0  0  0
 57 74  1  0  0  0  0
 58 74  1  0  0  0  0
 59 74  1  0  0  0  0
 60 85  1  0  0  0  0
 61 86  1  0  0  0  0
 62 87  1  0  0  0  0
 63 64  1  0  0  0  0
 63 65  1  0  0  0  0
 64 67  1  0  0  0  0
 65 68  1  0  0  0  0
 66 69  1  0  0  0  0
 66 70  1  0  0  0  0
 67 81  1  0  0  0  0
 68 87  1  0  0  0  0
 69 87  1  0  0  0  0
 70 95  1  0  0  0  0
 71 84  1  0  0  0  0
 72 74  1  0  0  0  0
 72 83  1  0  0  0  0
 73 86  1  0  0  0  0
 75 76  1  0  0  0  0
M  CHG  3  85   1  86   1  87   1
M  ISO  4  39 100  70 101  84 100  95 101
M  END
> <Batch ID>
0005

> <Smiles>
CNC(C)C(=O)NC(C(=O)N1Cc2cc([101O:1][101CH2:1]CCN(C)CCCCCNC(=O)c3cccc(C([100NH:0][100C:0](=O)N4CCCC(n5nc(-c6ccc(Oc7ccc(F)cc7F)cc6)c(C(N)=O)c5N)C4)C4CCCN4C)c3)ccc2CC1C(=O)NC1CCCc2ccccc21)C(C)(C)C

> <Shape>
0.266

> <Color>
0.061

> <Negative vol penalty>
0.000

$$$$

  -OEChem-04042320263D

 93101  0     1  0  0  0  0  0999 V2000
  -19.2469  -25.6508   24.8398 C   0  0  0  0  0  0  0  0  0  0  0  0
  -20.6359  -25.7092   24.8903 C   0  0  0  0  0  0  0  0  0  0  0  0
  -25.0330   -7.6236   22.1283 C   0  0  0  0  0  0  0  0  0  0  0  0
  -24.7131   -7.3241   19.7523 C   0  0  0  0  0  0  0  0  0  0  0  0
  -18.5490  -26.4519   23.9370 C   0  0  0  0  0  0  0  0  0  0  0  0
  -21.3280  -26.5680   24.0371 C   0  0  0  0  0  0  0  0  0  0  0  0
  -26.4957  -29.6119   25.2761 C   0  0  0  0  0  0  0  0  0  0  0  0
  -23.7338   -7.1720   22.3601 C   0  0  0  0  0  0  0  0  0  0  0  0
  -23.4139   -6.8725   19.9842 C   0  0  0  0  0  0  0  0  0  0  0  0
  -27.8323  -29.3522   24.9760 C   0  0  0  0  0  0  0  0  0  0  0  0
  -22.1143   -4.2070   22.4963 C   0  0  0  0  0  0  0  0  0  0  0  0
  -21.9225   -3.2846   23.5249 C   0  0  0  0  0  0  0  0  0  0  0  0
  -31.3459  -18.0135   24.0805 C   0  0  0  0  0  0  0  0  0  0  0  0
  -31.9525  -19.4454   22.2316 C   0  0  0  0  0  0  0  0  0  0  0  0
  -27.6690  -30.7818   23.0399 C   0  0  0  0  0  0  0  0  0  0  0  0
  -32.3642  -20.1637   24.5013 C   0  0  0  0  0  0  0  0  0  0  0  0
  -20.4333   -4.8306   24.6335 C   0  0  0  0  0  0  0  0  0  0  0  0
  -25.5226   -7.6997   20.8244 C   0  0  0  0  0  0  0  0  0  0  0  0
  -31.4109  -18.2514   22.7076 C   0  0  0  0  0  0  0  0  0  0  0  0
  -28.0369   -7.3897   20.5240 C   0  0  0  0  0  0  0  0  0  0  0  0
  -19.2323  -27.3281   23.0790 C   0  0  0  0  0  0  0  0  0  0  0  0
  -25.7315  -30.4513   24.4529 C   0  0  0  0  0  0  0  0  0  0  0  0
  -20.6387  -27.3806   23.1210 C   0  0  0  0  0  0  0  0  0  0  0  0
  -26.3238  -31.0526   23.3332 C   0  0  0  0  0  0  0  0  0  0  0  0
  -31.8225  -18.9697   24.9774 C   0  0  0  0  0  0  0  0  0  0  0  0
  -32.4292  -20.4016   23.1284 C   0  0  0  0  0  0  0  0  0  0  0  0
  -22.9242   -6.7965   21.2881 C   0  0  0  0  0  0  0  0  0  0  0  0
  -28.4183  -29.9349   23.8562 C   0  0  0  0  0  0  0  0  0  0  0  0
  -21.4657   -5.4412   22.5363 C   0  0  0  0  0  0  0  0  0  0  0  0
  -21.0820   -3.5964   24.5935 C   0  0  0  0  0  0  0  0  0  0  0  0
  -20.6251   -5.7530   23.6049 C   0  0  0  0  0  0  0  0  0  0  0  0
  -26.8644   -8.1666   20.5842 C   0  0  0  0  0  0  0  0  0  0  0  0
  -29.0374   -8.2968   20.2741 C   0  0  0  0  0  0  0  0  0  0  0  0
  -30.9059  -17.2415   21.7608 C   0  0  0  0  0  0  0  0  0  0  0  0
  -28.2064   -5.9745   20.6800 C   0  0  0  0  0  0  0  0  0  0  0  0
  -23.1220  -30.0802   22.6762 C   0  0  0  0  0  0  0  0  0  0  0  0
  -23.4014  -33.2889   22.2903 C   0  0  0  0  0  0  0  0  0  0  0  0
  -25.4139  -36.0450   22.3105 C   0  0  0  0  0  0  0  0  0  0  0  0
  -29.4198  -14.0886   21.4851 C   0  0  0  0  0  0  0  0  0  0  0  0
  -18.4374  -28.1399   22.0872 C   0  0  0  0  0  0  0  0  0  0  0  0
  -24.2986  -30.7426   24.8053 C   0  0  0  0  0  0  0  0  0  0  0  0
  -25.5523  -31.9773   22.4286 C   0  0  0  0  0  0  0  0  0  0  0  0
  -19.2243  -29.2973   21.4777 C   0  0  0  0  0  0  0  0  0  0  0  0
  -29.8353  -12.5255   18.2036 C   0  0  0  0  0  0  0  0  0  0  0  0
  -20.6070  -28.8287   21.0359 C   0  0  0  0  0  0  0  0  0  0  0  0
  -29.1948  -11.1593   18.4405 C   0  0  0  0  0  0  0  0  0  0  0  0
  -29.1163  -13.6297   18.9764 C   0  0  0  0  0  0  0  0  0  0  0  0
  -28.3625  -12.0005   20.6756 C   0  0  0  0  0  0  0  0  0  0  0  0
  -21.4237  -28.3177   22.2290 C   0  0  1  0  0  0  0  0  0  0  0  0
  -23.4713  -31.2047   23.6097 C   0  0  1  0  0  0  0  0  0  0  0  0
  -29.0853  -10.8574   19.9443 C   0  0  1  0  0  0  0  0  0  0  0  0
  -28.7080  -20.6043   27.7282 C   0  0  0  0  0  0  0  0  0  0  0  0
  -31.0351  -18.4798   29.3053 C   0  0  0  0  0  0  0  0  0  0  0  0
  -25.3643  -38.5233   21.9194 C   0  0  0  0  0  0  0  0  0  0  0  0
  -23.3037  -32.8092   19.2786 C   0  0  0  0  0  0  0  0  0  0  0  0
  -24.1966  -35.1252   18.9511 C   0  0  0  0  0  0  0  0  0  0  0  0
  -21.9894  -34.7870   20.0632 C   0  0  0  0  0  0  0  0  0  0  0  0
  -26.2659  -36.6172   25.0865 C   0  0  0  0  0  0  0  0  0  0  0  0
  -31.7530  -18.7151   26.4453 C   0  0  0  0  0  0  0  0  0  0  0  0
  -33.0106  -21.6864   22.6160 C   0  0  0  0  0  0  0  0  0  0  0  0
  -31.5159  -25.0516   22.5852 C   0  0  0  0  0  0  0  0  0  0  0  0
  -29.4600  -19.5077   27.0061 C   0  0  0  0  0  0  0  0  0  0  0  0
  -31.3154  -19.8092   28.6393 C   0  0  0  0  0  0  0  0  0  0  0  0
  -31.9979  -26.4141   22.1172 C   0  0  0  0  0  0  0  0  0  0  0  0
  -31.2847  -28.8025   21.9582 C   0  0  0  0  0  0  0  0  0  0  0  0
  -32.5718  -23.9803   22.3543 C   0  0  0  0  0  0  0  0  0  0  0  0
  -30.0940  -29.7135   22.1831 C   0  0  0  0  0  0  0  0  0  1  0  0
  -24.1082  -34.1899   21.3066 C   0  0  1  0  0  0  0  0  0  0  0  0
  -25.2444  -37.4114   22.9499 C   0  0  2  0  0  0  0  0  0  0  0  0
  -23.4138  -34.2089   19.9156 C   0  0  0  0  0  0  0  0  0  0  0  0
  -27.0971   -9.4672   20.3884 N   0  0  0  0  0  0  0  0  0  0  0  0
  -30.3956  -16.1226   22.1617 N   0  0  0  0  0  0  0  0  0  0  0  0
  -28.4273   -9.5145   20.2029 N   0  0  0  0  0  0  0  0  0  0  0  0
  -24.1527  -32.2260   22.8117 N   0  0  0  0  0  0  0  0  0  0  0  0
  -29.0069  -13.2910   20.4035 N   0  0  0  0  0  0  0  0  0  0  0  0
  -30.3708   -8.1637   20.1106 N   0  0  0  0  0  0  0  0  0  0  0  0
  -27.0729   -5.1897   20.9323 N   0  0  0  0  0  0  0  0  0  0  0  0
  -21.9466  -29.4279   22.9961 N   0  0  0  0  0  0  0  0  0  0  0  0
  -24.2020  -35.4980   21.9456 N   0  0  0  0  0  0  0  0  0  0  0  0
  -29.9816  -15.3123   21.1557 N   0  0  0  0  0  0  0  0  0  0  0  0
  -26.2837  -37.6262   23.9962 N   0  3  0  0  0  0  0  0  0  0  0  0
  -30.9139  -27.4121   22.3237 N   0  3  0  0  0  0  0  0  0  0  0  0
  -30.9412  -19.7228   27.1820 N   0  3  0  0  0  0  0  0  0  0  0  0
  -29.3318   -5.4245   20.6144 O   0  0  0  0  0  0  0  0  0  0  0  0
  -23.8633  -29.8244   21.7345 O   0  0  0  0  0  0  0  0  0  0  0  0
  -22.2283  -33.5238   22.5907 O   0  0  0  0  0  0  0  0  0  0  0  0
  -26.5120  -35.5175   22.1474 O   0  0  0  0  0  0  0  0  0  0  0  0
  -29.2938  -13.7332   22.6626 O   0  0  0  0  0  0  0  0  0  0  0  0
  -21.6565   -6.3556   21.5140 O   0  0  0  0  0  0  0  0  0  0  0  0
  -29.7225  -29.6825   23.5606 O   0  0  0  0  0  0  0  0  0  1  0  0
  -32.0732  -22.7347   22.8223 O   0  0  0  0  0  0  0  0  0  0  0  0
  -20.8966   -2.7099   25.5804 F   0  0  0  0  0  0  0  0  0  0  0  0
  -19.9983   -6.9367   23.6483 F   0  0  0  0  0  0  0  0  0  0  0  0
  1  2  1  0  0  0  0
  1  5  2  0  0  0  0
  2  6  2  0  0  0  0
  3  8  2  0  0  0  0
  3 18  1  0  0  0  0
  4  9  1  0  0  0  0
  4 18  2  0  0  0  0
  5 21  1  0  0  0  0
  6 23  1  0  0  0  0
  7 10  2  0  0  0  0
  7 22  1  0  0  0  0
  8 27  1  0  0  0  0
  9 27  2  0  0  0  0
 10 28  1  0  0  0  0
 11 12  2  0  0  0  0
 11 29  1  0  0  0  0
 12 30  1  0  0  0  0
 13 19  2  0  0  0  0
 13 25  1  0  0  0  0
 14 19  1  0  0  0  0
 14 26  2  0  0  0  0
 15 24  1  0  0  0  0
 15 28  2  0  0  0  0
 16 25  2  0  0  0  0
 16 26  1  0  0  0  0
 17 30  2  0  0  0  0
 17 31  1  0  0  0  0
 18 32  1  0  0  0  0
 19 34  1  0  0  0  0
 20 32  1  0  0  0  0
 20 33  2  0  0  0  0
 20 35  1  0  0  0  0
 21 23  2  0  0  0  0
 21 40  1  0  0  0  0
 22 24  2  0  0  0  0
 22 41  1  0  0  0  0
 23 49  1  0  0  0  0
 24 42  1  0  0  0  0
 25 59  1  0  0  0  0
 26 60  1  0  0  0  0
 27 89  1  0  0  0  0
 28 90  1  0  0  0  0
 29 31  2  0  0  0  0
 29 89  1  0  0  0  0
 30 92  1  0  0  0  0
 31 93  1  0  0  0  0
 32 71  2  0  0  0  0
 33 73  1  0  0  0  0
 33 76  1  0  0  0  0
 34 72  2  0  0  0  0
 35 77  1  0  0  0  0
 35 84  2  0  0  0  0
 36 50  1  0  0  0  0
 36 78  1  0  0  0  0
 36 85  2  0  0  0  0
 37 68  1  0  0  0  0
 37 74  1  0  0  0  0
 37 86  2  0  0  0  0
 38 69  1  0  0  0  0
 38 79  1  0  0  0  0
 38 87  2  0  0  0  0
 39 75  1  0  0  0  0
 39 80  1  0  0  0  0
 39 88  2  0  0  0  0
 40 43  1  0  0  0  0
 41 50  1  0  0  0  0
 42 74  1  0  0  0  0
 43 45  1  0  0  0  0
 44 46  1  0  0  0  0
 44 47  1  0  0  0  0
 45 49  1  0  0  0  0
 46 51  1  0  0  0  0
 47 75  1  0  0  0  0
 48 51  1  0  0  0  0
 48 75  1  0  0  0  0
 49 78  1  0  0  0  0
 50 74  1  0  0  0  0
 51 73  1  0  0  0  0
 52 62  1  0  0  0  0
 53 63  1  0  0  0  0
 54 69  1  0  0  0  0
 55 70  1  0  0  0  0
 56 70  1  0  0  0  0
 57 70  1  0  0  0  0
 58 81  1  0  0  0  0
 59 83  1  0  0  0  0
 60 91  1  0  0  0  0
 61 64  1  0  0  0  0
 61 66  1  0  0  0  0
 62 83  1  0  0  0  0
 63 83  1  0  0  0  0
 64 82  1  0  0  0  0
 65 67  1  0  0  0  0
 65 82  1  0  0  0  0
 66 91  1  0  0  0  0
 67 90  1  0  0  0  0
 68 70  1  0  0  0  0
 68 79  1  0  0  0  0
 69 81  1  0  0  0  0
 71 73  1  0  0  0  0
 72 80  1  0  0  0  0
M  CHG  3  81   1  82   1  83   1
M  ISO  4  39 100  67 101  80 100  90 101
M  END
> <Batch ID>
0005

> <Smiles>
CCN(CC)Cc1cc(C=N[100NH:0][100C:0](=O)N2CCCC(n3nc(-c4ccc(Oc5ccc(F)cc5F)cc4)c(C(N)=O)c3N)C2)cc(COCCCNC[101CH2:1][101O:1]c2ccc3c(c2)CN(C(=O)C(NC(=O)C(C)NC)C(C)(C)C)C(C(=O)NC2CCCc4ccccc42)C3)c1

> <Shape>
0.243

> <Color>
0.100

> <Negative vol penalty>
0.000

$$$$

  -OEChem-04042320263D

 89 97  0     1  0  0  0  0  0999 V2000
  -27.0306  -37.6921   20.6223 C   0  0  0  0  0  0  0  0  0  0  0  0
  -27.5187  -36.4554   20.2128 C   0  0  0  0  0  0  0  0  0  0  0  0
  -22.7560  -10.6868   21.1611 C   0  0  0  0  0  0  0  0  0  0  0  0
  -22.6904  -12.9850   21.9035 C   0  0  0  0  0  0  0  0  0  0  0  0
  -26.2980  -37.7945   21.8041 C   0  0  0  0  0  0  0  0  0  0  0  0
  -27.2754  -35.3204   20.9855 C   0  0  0  0  0  0  0  0  0  0  0  0
  -26.3288  -29.6197   18.9578 C   0  0  0  0  0  0  0  0  0  0  0  0
  -21.6550  -10.3953   21.9662 C   0  0  0  0  0  0  0  0  0  0  0  0
  -21.5893  -12.6935   22.7086 C   0  0  0  0  0  0  0  0  0  0  0  0
  -27.1703  -28.5145   18.8392 C   0  0  0  0  0  0  0  0  0  0  0  0
  -21.0514   -9.7910   25.2365 C   0  0  0  0  0  0  0  0  0  0  0  0
  -21.1003   -8.6269   26.0034 C   0  0  0  0  0  0  0  0  0  0  0  0
  -26.3826  -27.6940   20.9665 C   0  0  0  0  0  0  0  0  0  0  0  0
  -30.6846  -18.7851   17.1908 C   0  0  0  0  0  0  0  0  0  0  0  0
  -32.0165  -17.2016   19.0620 C   0  0  0  0  0  0  0  0  0  0  0  0
  -19.1340   -7.7979   24.8704 C   0  0  0  0  0  0  0  0  0  0  0  0
  -23.2738  -11.9817   21.1298 C   0  0  0  0  0  0  0  0  0  0  0  0
  -24.3951  -12.7159   18.9592 C   0  0  0  0  0  0  0  0  0  0  0  0
  -26.0373  -36.6586   22.5867 C   0  0  0  0  0  0  0  0  0  0  0  0
  -25.5144  -29.7762   20.0886 C   0  0  0  0  0  0  0  0  0  0  0  0
  -26.5397  -35.4079   22.1796 C   0  0  0  0  0  0  0  0  0  0  0  0
  -25.5297  -28.8008   21.0958 C   0  0  0  0  0  0  0  0  0  0  0  0
  -31.8799  -19.2296   17.7559 C   0  0  0  0  0  0  0  0  0  0  0  0
  -30.8212  -16.7572   18.4970 C   0  0  0  0  0  0  0  0  0  0  0  0
  -21.0716  -11.3986   22.7399 C   0  0  0  0  0  0  0  0  0  0  0  0
  -27.1994  -27.5529   19.8450 C   0  0  0  0  0  0  0  0  0  0  0  0
  -20.0437   -9.9586   24.2866 C   0  0  0  0  0  0  0  0  0  0  0  0
  -32.5459  -18.4378   18.6914 C   0  0  0  0  0  0  0  0  0  0  0  0
  -20.1417   -7.6304   25.8204 C   0  0  0  0  0  0  0  0  0  0  0  0
  -19.0851   -8.9620   24.1036 C   0  0  0  0  0  0  0  0  0  0  0  0
  -30.1552  -17.5489   17.5614 C   0  0  0  0  0  0  0  0  0  0  0  0
  -24.4116  -12.2834   20.2988 C   0  0  0  0  0  0  0  0  0  0  0  0
  -25.7203  -12.8613   18.6290 C   0  0  0  0  0  0  0  0  0  0  0  0
  -23.2814  -12.9641   18.0910 C   0  0  0  0  0  0  0  0  0  0  0  0
  -25.2860  -31.9395   22.4063 C   0  0  0  0  0  0  0  0  0  0  0  0
  -22.6930  -30.1854   23.2556 C   0  0  0  0  0  0  0  0  0  0  0  0
  -21.0752  -27.1814   23.1774 C   0  0  0  0  0  0  0  0  0  0  0  0
  -30.8719  -14.6104   19.8141 C   0  0  0  0  0  0  0  0  0  0  0  0
  -32.6621  -22.7751   18.1662 C   0  0  0  0  0  0  0  0  0  0  0  0
  -25.2810  -36.8266   23.8808 C   0  0  0  0  0  0  0  0  0  0  0  0
  -24.5925  -30.9605   20.1890 C   0  0  0  0  0  0  0  0  0  0  0  0
  -24.6600  -28.9118   22.3205 C   0  0  0  0  0  0  0  0  0  0  0  0
  -24.7473  -35.5142   24.4492 C   0  0  0  0  0  0  0  0  0  0  0  0
  -29.9048  -11.4308   21.0918 C   0  0  0  0  0  0  0  0  0  0  0  0
  -25.8290  -34.4391   24.4161 C   0  0  0  0  0  0  0  0  0  0  0  0
  -28.3881  -11.4047   20.8892 C   0  0  0  0  0  0  0  0  0  0  0  0
  -30.4019  -12.8234   21.4757 C   0  0  0  0  0  0  0  0  0  0  0  0
  -28.4698  -13.8763   20.3677 C   0  0  0  0  0  0  0  0  0  0  0  0
  -26.2754  -34.1498   22.9779 C   0  0  1  0  0  0  0  0  0  0  0  0
  -24.1853  -31.2808   21.6239 C   0  0  1  0  0  0  0  0  0  0  0  0
  -27.9305  -12.5091   19.9163 C   0  0  2  0  0  0  0  0  0  0  0  0
  -18.9921  -26.0441   23.9927 C   0  0  0  0  0  0  0  0  0  0  0  0
  -23.8972  -29.9899   26.0523 C   0  0  0  0  0  0  0  0  0  0  0  0
  -22.3141  -28.1092   26.5268 C   0  0  0  0  0  0  0  0  0  0  0  0
  -21.4276  -30.3817   26.0049 C   0  0  0  0  0  0  0  0  0  0  0  0
  -20.1547  -26.6345   20.4183 C   0  0  0  0  0  0  0  0  0  0  0  0
  -34.3280  -17.9846   20.1996 C   0  0  0  0  0  0  0  0  0  0  0  0
  -32.4353  -20.5616   17.3453 C   0  0  0  0  0  0  0  0  0  0  0  0
  -31.6264  -25.8825   18.7886 C   0  0  0  0  0  0  0  0  0  0  0  0
  -30.3023  -25.7082   19.5330 C   0  0  0  0  0  0  0  0  0  0  0  0
  -32.7258  -24.9749   19.3313 C   0  0  0  0  0  0  0  0  0  0  0  0
  -29.2324  -26.6530   19.0004 C   0  0  0  0  0  0  0  0  0  1  0  0
  -22.4543  -28.9970   24.1554 C   0  0  1  0  0  0  0  0  0  0  0  0
  -19.6365  -26.8203   22.8547 C   0  0  2  0  0  0  0  0  0  0  0  0
  -22.5412  -29.3680   25.6628 C   0  0  0  0  0  0  0  0  0  0  0  0
  -25.6492  -12.1618   20.7861 N   0  0  0  0  0  0  0  0  0  0  0  0
  -26.4227  -12.5200   19.7471 N   0  0  0  0  0  0  0  0  0  0  0  0
  -23.7803  -30.0911   22.3754 N   0  0  0  0  0  0  0  0  0  0  0  0
  -29.9333  -13.8168   20.5070 N   0  0  0  0  0  0  0  0  0  0  0  0
  -26.3417  -13.2464   17.4941 N   0  0  0  0  0  0  0  0  0  0  0  0
  -21.9872  -12.7649   18.5909 N   0  0  0  0  0  0  0  0  0  0  0  0
  -30.3110  -15.4967   18.8952 N   0  0  0  0  0  0  0  0  0  0  0  0
  -25.3018  -33.3175   22.3042 N   0  0  0  0  0  0  0  0  0  0  0  0
  -21.1714  -28.4310   23.7524 N   0  0  0  0  0  0  0  0  0  0  0  0
  -32.3799  -23.5821   19.2535 N   0  0  0  0  0  0  0  0  0  0  0  0
  -19.5762  -25.9844   21.6224 N   0  3  0  0  0  0  0  0  0  0  0  0
  -23.4299  -13.3353   16.9021 O   0  0  0  0  0  0  0  0  0  0  0  0
  -26.0625  -31.2489   23.0557 O   0  0  0  0  0  0  0  0  0  0  0  0
  -21.9381  -31.1584   23.3259 O   0  0  0  0  0  0  0  0  0  0  0  0
  -22.0189  -26.4287   22.9462 O   0  0  0  0  0  0  0  0  0  0  0  0
  -32.0856  -14.4918   20.0010 O   0  0  0  0  0  0  0  0  0  0  0  0
  -33.2347  -23.1343   17.1426 O   0  0  0  0  0  0  0  0  0  0  0  0
  -19.9969  -11.1145   23.5254 O   0  0  0  0  0  0  0  0  0  0  0  0
  -33.7147  -18.8568   19.2526 O   0  0  0  0  0  0  0  0  0  0  0  0
  -28.0204  -26.4735   19.7320 O   0  0  0  0  0  0  0  0  0  1  0  0
  -32.2077  -21.5071   18.3965 O   0  0  0  0  0  0  0  0  0  0  0  0
  -20.1897   -6.5119   26.5558 F   0  0  0  0  0  0  0  0  0  0  0  0
  -18.1153   -9.1168   23.1917 F   0  0  0  0  0  0  0  0  0  0  0  0
  -28.6724  -17.0369   16.8374 Cl  0  0  0  0  0  0  0  0  0  0  0  0
  1  2  1  0  0  0  0
  1  5  2  0  0  0  0
  2  6  2  0  0  0  0
  3  8  2  0  0  0  0
  3 17  1  0  0  0  0
  4  9  1  0  0  0  0
  4 17  2  0  0  0  0
  5 19  1  0  0  0  0
  6 21  1  0  0  0  0
  7 10  2  0  0  0  0
  7 20  1  0  0  0  0
  8 25  1  0  0  0  0
  9 25  2  0  0  0  0
 10 26  1  0  0  0  0
 11 12  2  0  0  0  0
 11 27  1  0  0  0  0
 12 29  1  0  0  0  0
 13 22  1  0  0  0  0
 13 26  2  0  0  0  0
 14 23  1  0  0  0  0
 14 31  2  0  0  0  0
 15 24  2  0  0  0  0
 15 28  1  0  0  0  0
 16 29  2  0  0  0  0
 16 30  1  0  0  0  0
 17 32  1  0  0  0  0
 18 32  1  0  0  0  0
 18 33  2  0  0  0  0
 18 34  1  0  0  0  0
 19 21  2  0  0  0  0
 19 40  1  0  0  0  0
 20 22  2  0  0  0  0
 20 41  1  0  0  0  0
 21 49  1  0  0  0  0
 22 42  1  0  0  0  0
 23 28  2  0  0  0  0
 23 58  1  0  0  0  0
 24 31  1  0  0  0  0
 24 72  1  0  0  0  0
 25 83  1  0  0  0  0
 26 85  1  0  0  0  0
 27 30  2  0  0  0  0
 27 83  1  0  0  0  0
 28 84  1  0  0  0  0
 29 87  1  0  0  0  0
 30 88  1  0  0  0  0
 31 89  1  0  0  0  0
 32 66  2  0  0  0  0
 33 67  1  0  0  0  0
 33 70  1  0  0  0  0
 34 71  1  0  0  0  0
 34 77  2  0  0  0  0
 35 50  1  0  0  0  0
 35 73  1  0  0  0  0
 35 78  2  0  0  0  0
 36 63  1  0  0  0  0
 36 68  1  0  0  0  0
 36 79  2  0  0  0  0
 37 64  1  0  0  0  0
 37 74  1  0  0  0  0
 37 80  2  0  0  0  0
 38 69  1  0  0  0  0
 38 72  1  0  0  0  0
 38 81  2  0  0  0  0
 39 75  1  0  0  0  0
 39 82  2  0  0  0  0
 39 86  1  0  0  0  0
 40 43  1  0  0  0  0
 41 50  1  0  0  0  0
 42 68  1  0  0  0  0
 43 45  1  0  0  0  0
 44 46  1  0  0  0  0
 44 47  1  0  0  0  0
 45 49  1  0  0  0  0
 46 51  1  0  0  0  0
 47 69  1  0  0  0  0
 48 51  1  0  0  0  0
 48 69  1  0  0  0  0
 49 73  1  0  0  0  0
 50 68  1  0  0  0  0
 51 67  1  0  0  0  0
 52 64  1  0  0  0  0
 53 65  1  0  0  0  0
 54 65  1  0  0  0  0
 55 65  1  0  0  0  0
 56 76  1  0  0  0  0
 57 84  1  0  0  0  0
 58 86  1  0  0  0  0
 59 60  1  0  0  0  0
 59 61  1  0  0  0  0
 60 62  1  0  0  0  0
 61 75  1  0  0  0  0
 62 85  1  0  0  0  0
 63 65  1  0  0  0  0
 63 74  1  0  0  0  0
 64 76  1  0  0  0  0
 66 67  1  0  0  0  0
M  CHG  1  76   1
M  ISO  4  38 100  62 101  72 100  85 101
M  END
> <Batch ID>
0005

> <Smiles>
CNC(C)C(=O)NC(C(=O)N1Cc2cc([101O:1][101CH2:1]CCCNC(=O)OCc3cc(Cl)c([100NH:0][100C:0](=O)N4CCCC(n5nc(-c6ccc(Oc7ccc(F)cc7F)cc6)c(C(N)=O)c5N)C4)cc3OC)ccc2CC1C(=O)NC1CCCc2ccccc21)C(C)(C)C

> <Shape>
0.263

> <Color>
0.091

> <Negative vol penalty>
0.000

$$$$

  -OEChem-04042320263D

 90 99  0     1  0  0  0  0  0999 V2000
  -22.5001  -33.5787   24.8801 C   0  0  0  0  0  0  0  0  0  0  0  0
  -23.4993  -32.7187   24.4360 C   0  0  0  0  0  0  0  0  0  0  0  0
  -24.8629  -13.4234   22.1020 C   0  0  0  0  0  0  0  0  0  0  0  0
  -26.0084  -13.8184   20.0117 C   0  0  0  0  0  0  0  0  0  0  0  0
  -21.1917  -33.1158   25.0127 C   0  0  0  0  0  0  0  0  0  0  0  0
  -23.1908  -31.3948   24.1252 C   0  0  0  0  0  0  0  0  0  0  0  0
  -25.3118  -29.8728   19.7859 C   0  0  0  0  0  0  0  0  0  0  0  0
  -33.4133  -20.9833   18.0312 C   0  0  0  0  0  0  0  0  0  0  0  0
  -24.1360  -12.3914   21.5086 C   0  0  0  0  0  0  0  0  0  0  0  0
  -25.2815  -12.7862   19.4184 C   0  0  0  0  0  0  0  0  0  0  0  0
  -26.6657  -29.5416   19.8207 C   0  0  0  0  0  0  0  0  0  0  0  0
  -24.6417   -9.1584   20.6570 C   0  0  0  0  0  0  0  0  0  0  0  0
  -24.5114   -7.9654   21.3679 C   0  0  0  0  0  0  0  0  0  0  0  0
  -32.8634  -19.7396   17.7209 C   0  0  0  0  0  0  0  0  0  0  0  0
  -26.0845  -27.2027   19.9270 C   0  0  0  0  0  0  0  0  0  0  0  0
  -31.2993  -21.6843   18.9676 C   0  0  0  0  0  0  0  0  0  0  0  0
  -22.1087   -8.2188   21.3529 C   0  0  0  0  0  0  0  0  0  0  0  0
  -25.7990  -14.1370   21.3535 C   0  0  0  0  0  0  0  0  0  0  0  0
  -27.4166  -15.1077   23.0708 C   0  0  0  0  0  0  0  0  0  0  0  0
  -20.8651  -31.7882   24.6942 C   0  0  0  0  0  0  0  0  0  0  0  0
  -24.3324  -28.8703   19.8324 C   0  0  0  0  0  0  0  0  0  0  0  0
  -21.8770  -30.9133   24.2550 C   0  0  0  0  0  0  0  0  0  0  0  0
  -24.7190  -27.5237   19.8900 C   0  0  0  0  0  0  0  0  0  0  0  0
  -32.6313  -21.9557   18.6546 C   0  0  0  0  0  0  0  0  0  0  0  0
  -30.7494  -20.4405   18.6573 C   0  0  0  0  0  0  0  0  0  0  0  0
  -24.3453  -12.0727   20.1669 C   0  0  0  0  0  0  0  0  0  0  0  0
  -27.0522  -28.2065   19.8942 C   0  0  0  0  0  0  0  0  0  0  0  0
  -23.5055   -9.8817   20.2941 C   0  0  0  0  0  0  0  0  0  0  0  0
  -23.2450   -7.4956   21.7158 C   0  0  0  0  0  0  0  0  0  0  0  0
  -22.2390   -9.4119   20.6420 C   0  0  0  0  0  0  0  0  0  0  0  0
  -31.5315  -19.4682   18.0339 C   0  0  0  0  0  0  0  0  0  0  0  0
  -26.5498  -15.2036   21.9657 C   0  0  0  0  0  0  0  0  0  0  0  0
  -27.8771  -16.3880   23.2582 C   0  0  0  0  0  0  0  0  0  0  0  0
  -31.6452  -25.0928   18.3792 C   0  0  0  0  0  0  0  0  0  0  0  0
  -27.7736  -13.9634   23.8575 C   0  0  0  0  0  0  0  0  0  0  0  0
  -21.9857  -28.1186   21.8403 C   0  0  0  0  0  0  0  0  0  0  0  0
  -21.2561  -25.9348   19.5553 C   0  0  0  0  0  0  0  0  0  0  0  0
  -23.0618  -23.6623   17.4123 C   0  0  0  0  0  0  0  0  0  0  0  0
  -28.5042  -21.0761   19.6066 C   0  0  0  0  0  0  0  0  0  0  0  0
  -19.4459  -31.3207   24.8986 C   0  0  0  0  0  0  0  0  0  0  0  0
  -22.8766  -29.2427   19.7670 C   0  0  0  0  0  0  0  0  0  0  0  0
  -23.7069  -26.4088   19.9218 C   0  0  0  0  0  0  0  0  0  0  0  0
  -19.1300  -30.0054   24.1912 C   0  0  0  0  0  0  0  0  0  0  0  0
  -31.8116  -25.0256   15.0753 C   0  0  0  0  0  0  0  0  0  0  0  0
  -32.8246  -24.0206   15.6134 C   0  0  0  0  0  0  0  0  0  0  0  0
  -26.6009  -20.9586   22.6134 C   0  0  0  0  0  0  0  0  0  0  0  0
  -20.2359  -28.9852   24.4421 C   0  0  0  0  0  0  0  0  0  0  0  0
  -30.6965  -25.4028   16.0502 C   0  0  0  0  0  0  0  0  0  0  0  0
  -26.4559  -19.4608   22.8924 C   0  0  0  0  0  0  0  0  0  0  0  0
  -33.5639  -24.5105   16.8527 C   0  0  0  0  0  0  0  0  0  0  0  0
  -26.5408  -21.2654   21.1181 C   0  0  0  0  0  0  0  0  0  0  0  0
  -27.3317  -18.9981   20.5673 C   0  0  0  0  0  0  0  0  0  0  0  0
  -21.5770  -29.4770   23.8844 C   0  0  1  0  0  0  0  0  0  0  0  0
  -31.2053  -26.0949   17.3165 C   0  0  1  0  0  0  0  0  0  0  0  0
  -21.9583  -28.1670   20.3388 C   0  0  1  0  0  0  0  0  0  0  0  0
  -27.4511  -18.6328   22.0560 C   0  0  2  0  0  0  0  0  0  0  0  0
  -22.4631  -22.7129   15.1679 C   0  0  0  0  0  0  0  0  0  0  0  0
  -20.1576  -23.5865   21.1643 C   0  0  0  0  0  0  0  0  0  0  0  0
  -21.0305  -22.0520   19.3890 C   0  0  0  0  0  0  0  0  0  0  0  0
  -19.2882  -23.7458   18.8248 C   0  0  0  0  0  0  0  0  0  0  0  0
  -25.5734  -24.6480   16.1963 C   0  0  0  0  0  0  0  0  0  0  0  0
  -33.2236  -23.2942   18.9888 C   0  0  0  0  0  0  0  0  0  0  0  0
  -30.4971  -27.9830   18.8066 C   0  0  0  0  0  0  0  0  0  0  0  0
  -29.2767  -28.7594   19.2604 C   0  0  0  0  0  0  0  0  0  1  0  0
  -21.6569  -24.5067   19.2745 C   0  0  1  0  0  0  0  0  0  0  0  0
  -23.2476  -23.7833   15.9106 C   0  0  2  0  0  0  0  0  0  0  0  0
  -20.5507  -23.4907   19.6766 C   0  0  0  0  0  0  0  0  0  0  0  0
  -26.4630  -16.4468   21.4849 N   0  0  0  0  0  0  0  0  0  0  0  0
  -27.2811  -17.1437   22.2918 N   0  0  0  0  0  0  0  0  0  0  0  0
  -32.7742  -24.3339   18.0716 N   0  0  0  0  0  0  0  0  0  0  0  0
  -22.2957  -26.8241   19.8621 N   0  0  0  0  0  0  0  0  0  0  0  0
  -27.5137  -20.4474   20.3905 N   0  0  0  0  0  0  0  0  0  0  0  0
  -28.7295  -16.9299   24.1538 N   0  0  0  0  0  0  0  0  0  0  0  0
  -27.2088  -12.7237   23.5284 N   0  0  0  0  0  0  0  0  0  0  0  0
  -29.3931  -20.1978   18.9877 N   0  0  0  0  0  0  0  0  0  0  0  0
  -21.6209  -29.3047   22.4482 N   0  0  0  0  0  0  0  0  0  0  0  0
  -22.0300  -24.4571   17.8650 N   0  0  0  0  0  0  0  0  0  0  0  0
  -30.0768  -26.9177   17.8616 N   0  3  0  0  0  0  0  0  0  0  0  0
  -24.6878  -23.6430   15.5539 N   0  3  0  0  0  0  0  0  0  0  0  0
  -31.0165  -24.9787   19.4347 O   0  0  0  0  0  0  0  0  0  0  0  0
  -28.5571  -14.0413   24.8340 O   0  0  0  0  0  0  0  0  0  0  0  0
  -22.3121  -27.0814   22.4056 O   0  0  0  0  0  0  0  0  0  0  0  0
  -20.0652  -26.2512   19.4974 O   0  0  0  0  0  0  0  0  0  0  0  0
  -23.7595  -22.9326   18.1132 O   0  0  0  0  0  0  0  0  0  0  0  0
  -28.5763  -22.3042   19.5147 O   0  0  0  0  0  0  0  0  0  0  0  0
  -23.6364  -11.0655   19.5877 O   0  0  0  0  0  0  0  0  0  0  0  0
  -28.3729  -27.8805   19.9290 O   0  0  0  0  0  0  0  0  0  1  0  0
  -23.1199   -6.3491   22.3972 F   0  0  0  0  0  0  0  0  0  0  0  0
  -21.1438  -10.1017   20.2951 F   0  0  0  0  0  0  0  0  0  0  0  0
  -30.8911  -17.9149   17.6314 Cl  0  0  0  0  0  0  0  0  0  0  0  0
  1  2  1  0  0  0  0
  1  5  2  0  0  0  0
  2  6  2  0  0  0  0
  3  9  2  0  0  0  0
  3 18  1  0  0  0  0
  4 10  1  0  0  0  0
  4 18  2  0  0  0  0
  5 20  1  0  0  0  0
  6 22  1  0  0  0  0
  7 11  2  0  0  0  0
  7 21  1  0  0  0  0
  8 14  2  0  0  0  0
  8 24  1  0  0  0  0
  9 26  1  0  0  0  0
 10 26  2  0  0  0  0
 11 27  1  0  0  0  0
 12 13  2  0  0  0  0
 12 28  1  0  0  0  0
 13 29  1  0  0  0  0
 14 31  1  0  0  0  0
 15 23  1  0  0  0  0
 15 27  2  0  0  0  0
 16 24  2  0  0  0  0
 16 25  1  0  0  0  0
 17 29  2  0  0  0  0
 17 30  1  0  0  0  0
 18 32  1  0  0  0  0
 19 32  1  0  0  0  0
 19 33  2  0  0  0  0
 19 35  1  0  0  0  0
 20 22  2  0  0  0  0
 20 40  1  0  0  0  0
 21 23  2  0  0  0  0
 21 41  1  0  0  0  0
 22 53  1  0  0  0  0
 23 42  1  0  0  0  0
 24 62  1  0  0  0  0
 25 31  2  0  0  0  0
 25 75  1  0  0  0  0
 26 86  1  0  0  0  0
 27 87  1  0  0  0  0
 28 30  2  0  0  0  0
 28 86  1  0  0  0  0
 29 88  1  0  0  0  0
 30 89  1  0  0  0  0
 31 90  1  0  0  0  0
 32 68  2  0  0  0  0
 33 69  1  0  0  0  0
 33 73  1  0  0  0  0
 34 54  1  0  0  0  0
 34 70  1  0  0  0  0
 34 80  2  0  0  0  0
 35 74  1  0  0  0  0
 35 81  2  0  0  0  0
 36 55  1  0  0  0  0
 36 76  1  0  0  0  0
 36 82  2  0  0  0  0
 37 65  1  0  0  0  0
 37 71  1  0  0  0  0
 37 83  2  0  0  0  0
 38 66  1  0  0  0  0
 38 77  1  0  0  0  0
 38 84  2  0  0  0  0
 39 72  1  0  0  0  0
 39 75  1  0  0  0  0
 39 85  2  0  0  0  0
 40 43  1  0  0  0  0
 41 55  1  0  0  0  0
 42 71  1  0  0  0  0
 43 47  1  0  0  0  0
 44 45  1  0  0  0  0
 44 48  1  0  0  0  0
 45 50  1  0  0  0  0
 46 49  1  0  0  0  0
 46 51  1  0  0  0  0
 47 53  1  0  0  0  0
 48 54  1  0  0  0  0
 49 56  1  0  0  0  0
 50 70  1  0  0  0  0
 51 72  1  0  0  0  0
 52 56  1  0  0  0  0
 52 72  1  0  0  0  0
 53 76  1  0  0  0  0
 54 78  1  0  0  0  0
 55 71  1  0  0  0  0
 56 69  1  0  0  0  0
 57 66  1  0  0  0  0
 58 67  1  0  0  0  0
 59 67  1  0  0  0  0
 60 67  1  0  0  0  0
 61 79  1  0  0  0  0
 62 70  1  0  0  0  0
 63 64  1  0  0  0  0
 63 78  1  0  0  0  0
 64 87  1  0  0  0  0
 65 67  1  0  0  0  0
 65 77  1  0  0  0  0
 66 79  1  0  0  0  0
 68 69  1  0  0  0  0
M  CHG  2  78   1  79   1
M  ISO  4  39 100  64 101  75 100  87 101
M  END
> <Batch ID>
0005

> <Smiles>
CNC(C)C(=O)NC(C(=O)N1Cc2cc([101O:1][101CH2:1]CNC3CCCCN(Cc4ccc(Cl)c([100NH:0][100C:0](=O)N5CCCC(n6nc(-c7ccc(Oc8ccc(F)cc8F)cc7)c(C(N)=O)c6N)C5)c4)C3=O)ccc2CC1C(=O)NC1CCCc2ccccc21)C(C)(C)C

> <Shape>
0.209

> <Color>
0.088

> <Negative vol penalty>
0.000

$$$$

  -OEChem-04042320263D

 92102  0     1  0  0  0  0  0999 V2000
  -31.7564  -36.1109   22.7474 C   0  0  0  0  0  0  0  0  0  0  0  0
  -31.1153  -35.6567   21.5993 C   0  0  0  0  0  0  0  0  0  0  0  0
  -22.6614  -10.1402   20.1971 C   0  0  0  0  0  0  0  0  0  0  0  0
  -24.4109   -9.3049   21.6388 C   0  0  0  0  0  0  0  0  0  0  0  0
  -32.6743  -35.2911   23.4026 C   0  0  0  0  0  0  0  0  0  0  0  0
  -31.3925  -34.3825   21.1052 C   0  0  0  0  0  0  0  0  0  0  0  0
  -26.1672  -29.4828   20.3433 C   0  0  0  0  0  0  0  0  0  0  0  0
  -31.2138  -18.6653   20.5657 C   0  0  0  0  0  0  0  0  0  0  0  0
  -30.8548  -19.8195   19.8681 C   0  0  0  0  0  0  0  0  0  0  0  0
  -21.9755   -8.9330   20.3298 C   0  0  0  0  0  0  0  0  0  0  0  0
  -23.7250   -8.0976   21.7715 C   0  0  0  0  0  0  0  0  0  0  0  0
  -25.1889  -28.5608   19.9704 C   0  0  0  0  0  0  0  0  0  0  0  0
  -21.0942   -6.9095   23.5288 C   0  0  0  0  0  0  0  0  0  0  0  0
  -20.9857   -6.3649   24.8083 C   0  0  0  0  0  0  0  0  0  0  0  0
  -29.0789  -18.6807   21.6818 C   0  0  0  0  0  0  0  0  0  0  0  0
  -26.9046  -27.0121   19.2590 C   0  0  0  0  0  0  0  0  0  0  0  0
  -22.1502   -4.3833   24.0635 C   0  0  0  0  0  0  0  0  0  0  0  0
  -23.8791  -10.3262   20.8515 C   0  0  0  0  0  0  0  0  0  0  0  0
  -24.1308  -12.8551   21.0727 C   0  0  0  0  0  0  0  0  0  0  0  0
  -32.9557  -34.0026   22.9217 C   0  0  0  0  0  0  0  0  0  0  0  0
  -27.5198  -29.1665   20.1895 C   0  0  0  0  0  0  0  0  0  0  0  0
  -32.3160  -33.5451   21.7538 C   0  0  0  0  0  0  0  0  0  0  0  0
  -28.7093  -19.8432   20.9856 C   0  0  0  0  0  0  0  0  0  0  0  0
  -27.8892  -27.9267   19.6423 C   0  0  0  0  0  0  0  0  0  0  0  0
  -30.3251  -18.0949   21.4708 C   0  0  0  0  0  0  0  0  0  0  0  0
  -29.5993  -20.4175   20.0564 C   0  0  0  0  0  0  0  0  0  0  0  0
  -22.5073   -7.9116   21.1171 C   0  0  0  0  0  0  0  0  0  0  0  0
  -25.5568  -27.3286   19.4294 C   0  0  0  0  0  0  0  0  0  0  0  0
  -21.7306   -6.1911   22.5166 C   0  0  0  0  0  0  0  0  0  0  0  0
  -21.5137   -5.1018   25.0757 C   0  0  0  0  0  0  0  0  0  0  0  0
  -22.2586   -4.9280   22.7840 C   0  0  0  0  0  0  0  0  0  0  0  0
  -24.5884  -11.5729   20.7143 C   0  0  0  0  0  0  0  0  0  0  0  0
  -25.1680  -13.6938   20.7449 C   0  0  0  0  0  0  0  0  0  0  0  0
  -22.8802  -13.2525   21.6502 C   0  0  0  0  0  0  0  0  0  0  0  0
  -31.0856  -30.2498   20.6225 C   0  0  0  0  0  0  0  0  0  0  0  0
  -30.9527  -27.2875   21.4081 C   0  0  0  0  0  0  0  0  0  0  0  0
  -23.4883  -23.5223   19.2205 C   0  0  0  0  0  0  0  0  0  0  0  0
  -31.4403  -24.2076   22.7916 C   0  0  0  0  0  0  0  0  0  0  0  0
  -30.6153  -14.9062   20.6902 C   0  0  0  0  0  0  0  0  0  0  0  0
  -33.9905  -33.1707   23.6371 C   0  0  0  0  0  0  0  0  0  0  0  0
  -28.6063  -30.1533   20.5203 C   0  0  0  0  0  0  0  0  0  0  0  0
  -29.3556  -27.6434   19.4631 C   0  0  0  0  0  0  0  0  0  0  0  0
  -33.9490  -31.6917   23.2614 C   0  0  0  0  0  0  0  0  0  0  0  0
  -29.3756  -12.8371   18.0712 C   0  0  0  0  0  0  0  0  0  0  0  0
  -33.8574  -31.5278   21.7476 C   0  0  0  0  0  0  0  0  0  0  0  0
  -27.9852  -12.4248   18.5578 C   0  0  0  0  0  0  0  0  0  0  0  0
  -26.2466  -19.6664   20.5207 C   0  0  0  0  0  0  0  0  0  0  0  0
  -30.3739  -12.9244   19.2236 C   0  0  0  0  0  0  0  0  0  0  0  0
  -27.9425  -22.1330   19.4206 C   0  0  0  0  0  0  0  0  0  0  0  0
  -28.5608  -13.3714   20.8319 C   0  0  0  0  0  0  0  0  0  0  0  0
  -24.8780  -20.3118   20.6768 C   0  0  0  0  0  0  0  0  0  0  0  0
  -25.9404  -22.5631   20.9350 C   0  0  0  0  0  0  0  0  0  0  0  0
  -27.3480  -20.4668   21.2349 C   0  0  2  0  0  0  0  0  0  0  0  0
  -32.5716  -32.1598   21.2010 C   0  0  1  0  0  0  0  0  0  0  0  0
  -29.8766  -29.4875   21.0792 C   0  0  1  0  0  0  0  0  0  0  0  0
  -27.3413  -21.9546   20.8229 C   0  0  1  0  0  0  0  0  0  0  0  0
  -27.5060  -13.3241   19.7132 C   0  0  2  0  0  0  0  0  0  0  0  0
  -33.2184  -22.4780   23.1715 C   0  0  0  0  0  0  0  0  0  0  0  0
  -30.7662  -26.4575   18.4789 C   0  0  0  0  0  0  0  0  0  0  0  0
  -31.7556  -24.2476   19.1156 C   0  0  0  0  0  0  0  0  0  0  0  0
  -33.0673  -26.3427   19.4516 C   0  0  0  0  0  0  0  0  0  0  0  0
  -31.1585  -24.3960   25.7316 C   0  0  0  0  0  0  0  0  0  0  0  0
  -30.7068  -16.8612   22.2162 C   0  0  0  0  0  0  0  0  0  0  0  0
  -23.5691  -22.3748   20.1957 C   0  0  0  0  0  0  0  0  0  0  0  0
  -22.3179  -25.6775   18.8706 C   0  0  0  0  0  0  0  0  0  0  0  0
  -23.2384  -26.8146   19.2766 C   0  0  0  0  0  0  0  0  0  1  0  0
  -31.1030  -25.8537   20.9665 C   0  0  1  0  0  0  0  0  0  0  0  0
  -32.4997  -23.6885   23.7469 C   0  0  2  0  0  0  0  0  0  0  0  0
  -31.6492  -25.7347   19.5156 C   0  0  0  0  0  0  0  0  0  0  0  0
  -25.8202  -11.5905   20.1983 N   0  0  0  0  0  0  0  0  0  0  0  0
  -26.1455  -12.8941   20.2299 N   0  0  0  0  0  0  0  0  0  0  0  0
  -29.2817  -21.5795   19.3669 N   0  0  0  0  0  0  0  0  0  0  0  0
  -30.1034  -28.0985   20.6456 N   0  0  0  0  0  0  0  0  0  0  0  0
  -29.8599  -13.7933   20.2851 N   0  0  0  0  0  0  0  0  0  0  0  0
  -25.3301  -15.0299   20.8498 N   0  0  0  0  0  0  0  0  0  0  0  0
  -21.9260  -12.2630   21.9237 N   0  0  0  0  0  0  0  0  0  0  0  0
  -31.4376  -31.2967   21.4530 N   0  0  0  0  0  0  0  0  0  0  0  0
  -22.5749  -24.4801   19.6347 N   0  0  0  0  0  0  0  0  0  0  0  0
  -31.9336  -25.2015   21.9730 N   0  0  0  0  0  0  0  0  0  0  0  0
  -30.0527  -15.6806   21.6975 N   0  0  0  0  0  0  0  0  0  0  0  0
  -24.9307  -21.7341   20.1811 N   0  3  2  0  0  0  0  0  0  0  0  0
  -31.8796  -23.2945   25.0435 N   0  3  0  0  0  0  0  0  0  0  0  0
  -22.6102  -14.4516   21.9008 O   0  0  0  0  0  0  0  0  0  0  0  0
  -31.6590  -29.9130   19.5932 O   0  0  0  0  0  0  0  0  0  0  0  0
  -31.5746  -27.6818   22.3986 O   0  0  0  0  0  0  0  0  0  0  0  0
  -24.1583  -23.5822   18.1930 O   0  0  0  0  0  0  0  0  0  0  0  0
  -30.2912  -23.7722   22.7708 O   0  0  0  0  0  0  0  0  0  0  0  0
  -31.7074  -15.1917   20.1875 O   0  0  0  0  0  0  0  0  0  0  0  0
  -21.8382   -6.7335   21.2470 O   0  0  0  0  0  0  0  0  0  0  0  0
  -24.5900  -26.4250   19.0691 O   0  0  0  0  0  0  0  0  0  1  0  0
  -21.4108   -4.5795   26.3048 F   0  0  0  0  0  0  0  0  0  0  0  0
  -22.8721   -4.2335   21.8159 F   0  0  0  0  0  0  0  0  0  0  0  0
  1  2  1  0  0  0  0
  1  5  2  0  0  0  0
  2  6  2  0  0  0  0
  3 10  2  0  0  0  0
  3 18  1  0  0  0  0
  4 11  1  0  0  0  0
  4 18  2  0  0  0  0
  5 20  1  0  0  0  0
  6 22  1  0  0  0  0
  7 12  2  0  0  0  0
  7 21  1  0  0  0  0
  8  9  2  0  0  0  0
  8 25  1  0  0  0  0
  9 26  1  0  0  0  0
 10 27  1  0  0  0  0
 11 27  2  0  0  0  0
 12 28  1  0  0  0  0
 13 14  2  0  0  0  0
 13 29  1  0  0  0  0
 14 30  1  0  0  0  0
 15 23  1  0  0  0  0
 15 25  2  0  0  0  0
 16 24  1  0  0  0  0
 16 28  2  0  0  0  0
 17 30  2  0  0  0  0
 17 31  1  0  0  0  0
 18 32  1  0  0  0  0
 19 32  1  0  0  0  0
 19 33  2  0  0  0  0
 19 34  1  0  0  0  0
 20 22  2  0  0  0  0
 20 40  1  0  0  0  0
 21 24  2  0  0  0  0
 21 41  1  0  0  0  0
 22 54  1  0  0  0  0
 23 26  2  0  0  0  0
 23 53  1  0  0  0  0
 24 42  1  0  0  0  0
 25 63  1  0  0  0  0
 26 72  1  0  0  0  0
 27 89  1  0  0  0  0
 28 90  1  0  0  0  0
 29 31  2  0  0  0  0
 29 89  1  0  0  0  0
 30 91  1  0  0  0  0
 31 92  1  0  0  0  0
 32 70  2  0  0  0  0
 33 71  1  0  0  0  0
 33 75  1  0  0  0  0
 34 76  1  0  0  0  0
 34 83  2  0  0  0  0
 35 55  1  0  0  0  0
 35 77  1  0  0  0  0
 35 84  2  0  0  0  0
 36 67  1  0  0  0  0
 36 73  1  0  0  0  0
 36 85  2  0  0  0  0
 37 64  1  0  0  0  0
 37 78  1  0  0  0  0
 37 86  2  0  0  0  0
 38 68  1  0  0  0  0
 38 79  1  0  0  0  0
 38 87  2  0  0  0  0
 39 74  1  0  0  0  0
 39 80  1  0  0  0  0
 39 88  2  0  0  0  0
 40 43  1  0  0  0  0
 41 55  1  0  0  0  0
 42 73  1  0  0  0  0
 43 45  1  0  0  0  0
 44 46  1  0  0  0  0
 44 48  1  0  0  0  0
 45 54  1  0  0  0  0
 46 57  1  0  0  0  0
 47 51  1  0  0  0  0
 47 53  1  0  0  0  0
 48 74  1  0  0  0  0
 49 56  1  0  0  0  0
 49 72  1  0  0  0  0
 50 57  1  0  0  0  0
 50 74  1  0  0  0  0
 51 81  1  0  0  0  0
 52 56  1  0  0  0  0
 52 81  1  0  0  0  0
 53 56  1  0  0  0  0
 54 77  1  0  0  0  0
 55 73  1  0  0  0  0
 57 71  1  0  0  0  0
 58 68  1  0  0  0  0
 59 69  1  0  0  0  0
 60 69  1  0  0  0  0
 61 69  1  0  0  0  0
 62 82  1  0  0  0  0
 63 80  1  0  0  0  0
 64 81  1  0  0  0  0
 65 66  1  0  0  0  0
 65 78  1  0  0  0  0
 66 90  1  0  0  0  0
 67 69  1  0  0  0  0
 67 79  1  0  0  0  0
 68 82  1  0  0  0  0
 70 71  1  0  0  0  0
M  CHG  2  81   1  82   1
M  ISO  4  39 100  66 101  80 100  90 101
M  END
> <Batch ID>
0005

> <Smiles>
CNC(C)C(=O)NC(C(=O)N1Cc2cc([101O:1][101CH2:1]CNC(=O)CN3CCC4c5cc(C[100NH:0][100C:0](=O)N6CCCC(n7nc(-c8ccc(Oc9ccc(F)cc9F)cc8)c(C(N)=O)c7N)C6)ccc5NCC4C3)ccc2CC1C(=O)NC1CCCc2ccccc21)C(C)(C)C

> <Shape>
0.309

> <Color>
0.180

> <Negative vol penalty>
0.000

$$$$

  -OEChem-04042320263D

 87 95  0     1  0  0  0  0  0999 V2000
  -21.0688  -25.7991   25.7586 C   0  0  0  0  0  0  0  0  0  0  0  0
  -22.1392  -25.6703   24.8793 C   0  0  0  0  0  0  0  0  0  0  0  0
  -23.7077   -9.0855   20.4651 C   0  0  0  0  0  0  0  0  0  0  0  0
  -22.6934  -10.8620   21.7505 C   0  0  0  0  0  0  0  0  0  0  0  0
  -19.8520  -26.3058   25.3042 C   0  0  0  0  0  0  0  0  0  0  0  0
  -21.9931  -26.0473   23.5448 C   0  0  0  0  0  0  0  0  0  0  0  0
  -25.9264  -28.7475   21.8468 C   0  0  0  0  0  0  0  0  0  0  0  0
  -28.4874  -21.1053   20.4583 C   0  0  0  0  0  0  0  0  0  0  0  0
  -22.8162   -8.1709   21.0257 C   0  0  0  0  0  0  0  0  0  0  0  0
  -21.8018   -9.9474   22.3110 C   0  0  0  0  0  0  0  0  0  0  0  0
  -27.0843  -28.0458   21.5142 C   0  0  0  0  0  0  0  0  0  0  0  0
  -22.4811   -6.4823   23.9345 C   0  0  0  0  0  0  0  0  0  0  0  0
  -27.6006  -20.3777   19.6646 C   0  0  0  0  0  0  0  0  0  0  0  0
  -22.9972   -5.2662   24.3819 C   0  0  0  0  0  0  0  0  0  0  0  0
  -26.4753  -28.1578   19.1828 C   0  0  0  0  0  0  0  0  0  0  0  0
  -29.4699  -19.0447   21.2495 C   0  0  0  0  0  0  0  0  0  0  0  0
  -21.5590   -4.0881   22.8388 C   0  0  0  0  0  0  0  0  0  0  0  0
  -23.6463  -10.4311   20.8276 C   0  0  0  0  0  0  0  0  0  0  0  0
  -24.3881  -12.1263   19.0715 C   0  0  0  0  0  0  0  0  0  0  0  0
  -19.6938  -26.6983   23.9657 C   0  0  0  0  0  0  0  0  0  0  0  0
  -25.0272  -29.1508   20.8491 C   0  0  0  0  0  0  0  0  0  0  0  0
  -20.7726  -26.5586   23.0718 C   0  0  0  0  0  0  0  0  0  0  0  0
  -25.3080  -28.8667   19.5050 C   0  0  0  0  0  0  0  0  0  0  0  0
  -29.4221  -20.4388   21.2507 C   0  0  0  0  0  0  0  0  0  0  0  0
  -28.5830  -18.3171   20.4559 C   0  0  0  0  0  0  0  0  0  0  0  0
  -21.8632   -8.6018   21.9486 C   0  0  0  0  0  0  0  0  0  0  0  0
  -27.3575  -27.7483   20.1823 C   0  0  0  0  0  0  0  0  0  0  0  0
  -21.5038   -6.5014   22.9393 C   0  0  0  0  0  0  0  0  0  0  0  0
  -22.5362   -4.0691   23.8340 C   0  0  0  0  0  0  0  0  0  0  0  0
  -27.6484  -18.9837   19.6634 C   0  0  0  0  0  0  0  0  0  0  0  0
  -21.0428   -5.3043   22.3915 C   0  0  0  0  0  0  0  0  0  0  0  0
  -24.5674  -11.3762   20.2493 C   0  0  0  0  0  0  0  0  0  0  0  0
  -25.5391  -12.8670   18.9576 C   0  0  0  0  0  0  0  0  0  0  0  0
  -23.2802  -12.1513   18.1618 C   0  0  0  0  0  0  0  0  0  0  0  0
  -21.9843  -28.5182   20.1830 C   0  0  0  0  0  0  0  0  0  0  0  0
  -22.4139  -30.7939   17.9117 C   0  0  0  0  0  0  0  0  0  0  0  0
  -24.5725  -32.5060   15.8978 C   0  0  0  0  0  0  0  0  0  0  0  0
  -29.5000  -16.0862   21.1828 C   0  0  0  0  0  0  0  0  0  0  0  0
  -18.3452  -27.1963   23.5098 C   0  0  0  0  0  0  0  0  0  0  0  0
  -23.7960  -29.9303   21.2219 C   0  0  0  0  0  0  0  0  0  0  0  0
  -24.3851  -29.2950   18.3945 C   0  0  0  0  0  0  0  0  0  0  0  0
  -18.3860  -27.9233   22.1681 C   0  0  0  0  0  0  0  0  0  0  0  0
  -29.9154  -12.5628   21.4830 C   0  0  0  0  0  0  0  0  0  0  0  0
  -19.2076  -27.1308   21.1563 C   0  0  0  0  0  0  0  0  0  0  0  0
  -28.5463  -12.0017   21.0919 C   0  0  0  0  0  0  0  0  0  0  0  0
  -29.7906  -13.8686   22.2658 C   0  0  0  0  0  0  0  0  0  0  0  0
  -27.6080  -14.3444   21.2270 C   0  0  0  0  0  0  0  0  0  0  0  0
  -20.6606  -26.9798   21.6226 C   0  0  1  0  0  0  0  0  0  0  0  0
  -22.6929  -29.8431   20.1717 C   0  0  1  0  0  0  0  0  0  0  0  0
  -27.6845  -13.0632   20.3806 C   0  0  2  0  0  0  0  0  0  0  0  0
  -33.9228  -18.9189   21.2015 C   0  0  0  0  0  0  0  0  0  0  0  0
  -24.6242  -34.2778   14.1214 C   0  0  0  0  0  0  0  0  0  0  0  0
  -21.3797  -28.7749   15.8712 C   0  0  0  0  0  0  0  0  0  0  0  0
  -22.3320  -30.2203   14.0622 C   0  0  0  0  0  0  0  0  0  0  0  0
  -20.5371  -31.1076   15.5501 C   0  0  0  0  0  0  0  0  0  0  0  0
  -26.2612  -34.2829   17.5560 C   0  0  0  0  0  0  0  0  0  0  0  0
  -30.3752  -21.2219   22.1046 C   0  0  0  0  0  0  0  0  0  0  0  0
  -32.9722  -19.9552   21.7786 C   0  0  0  0  0  0  0  0  0  0  0  0
  -30.2570  -23.9725   21.0688 C   0  0  0  0  0  0  0  0  0  0  0  0
  -29.6804  -24.9949   20.0924 C   0  0  0  0  0  0  0  0  0  0  0  0
  -32.3827  -20.8306   20.6842 C   0  0  0  0  0  0  0  0  0  0  0  0
  -30.9823  -22.8587   20.3286 C   0  0  0  0  0  0  0  0  0  0  0  0
  -28.9882  -26.1388   20.8199 C   0  0  0  0  0  0  0  0  0  1  0  0
  -22.8702  -30.7954   16.4727 C   0  0  1  0  0  0  0  0  0  0  0  0
  -24.7213  -33.9893   15.6114 C   0  0  2  0  0  0  0  0  0  0  0  0
  -21.7963  -30.2146   15.5099 C   0  0  0  0  0  0  0  0  0  0  0  0
  -25.7400  -11.6182   20.8412 N   0  0  0  0  0  0  0  0  0  0  0  0
  -26.3080  -12.5285   20.0320 N   0  0  0  0  0  0  0  0  0  0  0  0
  -23.1910  -30.0492   18.8103 N   0  0  0  0  0  0  0  0  0  0  0  0
  -28.9644  -14.8276   21.5291 N   0  0  0  0  0  0  0  0  0  0  0  0
  -25.9584  -13.7682   18.0442 N   0  0  0  0  0  0  0  0  0  0  0  0
  -22.1779  -11.3278   18.4287 N   0  0  0  0  0  0  0  0  0  0  0  0
  -28.6333  -16.9011   20.4551 N   0  0  0  0  0  0  0  0  0  0  0  0
  -21.3949  -28.2056   21.3932 N   0  0  0  0  0  0  0  0  0  0  0  0
  -23.2640  -32.1673   16.1708 N   0  0  0  0  0  0  0  0  0  0  0  0
  -26.0403  -34.4815   16.1004 N   0  3  0  0  0  0  0  0  0  0  0  0
  -31.4848  -21.8690   21.3118 N   0  3  1  0  0  0  0  0  0  0  0  0
  -23.2750  -12.8699   17.1337 O   0  0  0  0  0  0  0  0  0  0  0  0
  -21.9717  -27.8310   19.1684 O   0  0  0  0  0  0  0  0  0  0  0  0
  -21.4092  -31.4358   18.2282 O   0  0  0  0  0  0  0  0  0  0  0  0
  -25.5213  -31.7251   15.8773 O   0  0  0  0  0  0  0  0  0  0  0  0
  -30.6527  -16.4062   21.4842 O   0  0  0  0  0  0  0  0  0  0  0  0
  -20.9929   -7.7096   22.4956 O   0  0  0  0  0  0  0  0  0  0  0  0
  -28.4866  -27.0629   19.8550 O   0  0  0  0  0  0  0  0  0  1  0  0
  -23.0331   -2.9014   24.2627 F   0  0  0  0  0  0  0  0  0  0  0  0
  -26.7907  -18.2948   18.8971 F   0  0  0  0  0  0  0  0  0  0  0  0
  -20.1050   -5.3164   21.4343 F   0  0  0  0  0  0  0  0  0  0  0  0
  1  2  1  0  0  0  0
  1  5  2  0  0  0  0
  2  6  2  0  0  0  0
  3  9  2  0  0  0  0
  3 18  1  0  0  0  0
  4 10  1  0  0  0  0
  4 18  2  0  0  0  0
  5 20  1  0  0  0  0
  6 22  1  0  0  0  0
  7 11  2  0  0  0  0
  7 21  1  0  0  0  0
  8 13  2  0  0  0  0
  8 24  1  0  0  0  0
  9 26  1  0  0  0  0
 10 26  2  0  0  0  0
 11 27  1  0  0  0  0
 12 14  2  0  0  0  0
 12 28  1  0  0  0  0
 13 30  1  0  0  0  0
 14 29  1  0  0  0  0
 15 23  1  0  0  0  0
 15 27  2  0  0  0  0
 16 24  2  0  0  0  0
 16 25  1  0  0  0  0
 17 29  2  0  0  0  0
 17 31  1  0  0  0  0
 18 32  1  0  0  0  0
 19 32  1  0  0  0  0
 19 33  2  0  0  0  0
 19 34  1  0  0  0  0
 20 22  2  0  0  0  0
 20 39  1  0  0  0  0
 21 23  2  0  0  0  0
 21 40  1  0  0  0  0
 22 48  1  0  0  0  0
 23 41  1  0  0  0  0
 24 57  1  0  0  0  0
 25 30  2  0  0  0  0
 25 73  1  0  0  0  0
 26 83  1  0  0  0  0
 27 84  1  0  0  0  0
 28 31  2  0  0  0  0
 28 83  1  0  0  0  0
 29 85  1  0  0  0  0
 30 86  1  0  0  0  0
 31 87  1  0  0  0  0
 32 67  2  0  0  0  0
 33 68  1  0  0  0  0
 33 71  1  0  0  0  0
 34 72  1  0  0  0  0
 34 78  2  0  0  0  0
 35 49  1  0  0  0  0
 35 74  1  0  0  0  0
 35 79  2  0  0  0  0
 36 64  1  0  0  0  0
 36 69  1  0  0  0  0
 36 80  2  0  0  0  0
 37 65  1  0  0  0  0
 37 75  1  0  0  0  0
 37 81  2  0  0  0  0
 38 70  1  0  0  0  0
 38 73  1  0  0  0  0
 38 82  2  0  0  0  0
 39 42  1  0  0  0  0
 40 49  1  0  0  0  0
 41 69  1  0  0  0  0
 42 44  1  0  0  0  0
 43 45  1  0  0  0  0
 43 46  1  0  0  0  0
 44 48  1  0  0  0  0
 45 50  1  0  0  0  0
 46 70  1  0  0  0  0
 47 50  1  0  0  0  0
 47 70  1  0  0  0  0
 48 74  1  0  0  0  0
 49 69  1  0  0  0  0
 50 68  1  0  0  0  0
 51 58  1  0  0  0  0
 52 65  1  0  0  0  0
 53 66  1  0  0  0  0
 54 66  1  0  0  0  0
 55 66  1  0  0  0  0
 56 76  1  0  0  0  0
 57 77  1  0  0  0  0
 58 61  1  0  0  0  0
 59 60  1  0  0  0  0
 59 62  1  0  0  0  0
 60 63  1  0  0  0  0
 61 77  1  0  0  0  0
 62 77  1  0  0  0  0
 63 84  1  0  0  0  0
 64 66  1  0  0  0  0
 64 75  1  0  0  0  0
 65 76  1  0  0  0  0
 67 68  1  0  0  0  0
M  CHG  2  76   1  77   1
M  ISO  4  38 100  63 101  73 100  84 101
M  END
> <Batch ID>
0005

> <Smiles>
CCCN(CCC[101CH2:1][101O:1]c1ccc2c(c1)CN(C(=O)C(NC(=O)C(C)NC)C(C)(C)C)C(C(=O)NC1CCCc3ccccc31)C2)Cc1ccc(F)c([100NH:0][100C:0](=O)N2CCCC(n3nc(-c4ccc(Oc5ccc(F)cc5F)cc4)c(C(N)=O)c3N)C2)c1

> <Shape>
0.279

> <Color>
0.109

> <Negative vol penalty>
0.000

$$$$

  -OEChem-04042320263D

 86 94  0     1  0  0  0  0  0999 V2000
  -22.3800   -8.1269   20.5845 C   0  0  0  0  0  0  0  0  0  0  0  0
  -22.2490   -9.4979   20.3878 C   0  0  0  0  0  0  0  0  0  0  0  0
  -28.2907  -28.8056   21.4804 C   0  0  0  0  0  0  0  0  0  0  0  0
  -27.3637  -27.6460   19.5745 C   0  0  0  0  0  0  0  0  0  0  0  0
  -23.3941   -7.6353   21.4054 C   0  0  0  0  0  0  0  0  0  0  0  0
  -23.1315  -10.3782   21.0129 C   0  0  0  0  0  0  0  0  0  0  0  0
  -24.8043  -13.9964   17.8895 C   0  0  0  0  0  0  0  0  0  0  0  0
  -17.7285  -22.3053   23.3849 C   0  0  0  0  0  0  0  0  0  0  0  0
  -17.4827  -23.1701   24.4513 C   0  0  0  0  0  0  0  0  0  0  0  0
  -29.4806  -28.0922   21.3358 C   0  0  0  0  0  0  0  0  0  0  0  0
  -28.5536  -26.9326   19.4298 C   0  0  0  0  0  0  0  0  0  0  0  0
  -23.9414  -15.0594   17.6265 C   0  0  0  0  0  0  0  0  0  0  0  0
  -30.0575  -24.2754   20.8818 C   0  0  0  0  0  0  0  0  0  0  0  0
  -29.9663  -22.9019   20.6563 C   0  0  0  0  0  0  0  0  0  0  0  0
  -25.1287  -16.4125   19.2324 C   0  0  0  0  0  0  0  0  0  0  0  0
  -17.9488  -24.1985   21.9002 C   0  0  0  0  0  0  0  0  0  0  0  0
  -31.1255  -23.1702   18.5536 C   0  0  0  0  0  0  0  0  0  0  0  0
  -27.2323  -28.5825   20.5998 C   0  0  0  0  0  0  0  0  0  0  0  0
  -25.6739  -30.5531   20.1576 C   0  0  0  0  0  0  0  0  0  0  0  0
  -24.2954   -8.5095   22.0331 C   0  0  0  0  0  0  0  0  0  0  0  0
  -25.8308  -14.1301   18.8354 C   0  0  0  0  0  0  0  0  0  0  0  0
  -24.1578   -9.8979   21.8440 C   0  0  0  0  0  0  0  0  0  0  0  0
  -26.0048  -15.3504   19.5037 C   0  0  0  0  0  0  0  0  0  0  0  0
  -17.9616  -22.8195   22.1093 C   0  0  0  0  0  0  0  0  0  0  0  0
  -17.4698  -24.5491   24.2422 C   0  0  0  0  0  0  0  0  0  0  0  0
  -17.7029  -25.0634   22.9667 C   0  0  0  0  0  0  0  0  0  0  0  0
  -29.6120  -27.1557   20.3105 C   0  0  0  0  0  0  0  0  0  0  0  0
  -24.1018  -16.2668   18.3001 C   0  0  0  0  0  0  0  0  0  0  0  0
  -30.6826  -25.0963   19.9432 C   0  0  0  0  0  0  0  0  0  0  0  0
  -30.5003  -22.3493   19.4922 C   0  0  0  0  0  0  0  0  0  0  0  0
  -31.2166  -24.5437   18.7791 C   0  0  0  0  0  0  0  0  0  0  0  0
  -26.0027  -29.3187   20.7491 C   0  0  0  0  0  0  0  0  0  0  0  0
  -24.4052  -30.8232   20.6094 C   0  0  0  0  0  0  0  0  0  0  0  0
  -26.4461  -31.3816   19.2785 C   0  0  0  0  0  0  0  0  0  0  0  0
  -26.5480  -12.7036   21.5840 C   0  0  0  0  0  0  0  0  0  0  0  0
  -29.2351  -14.5081   21.3703 C   0  0  0  0  0  0  0  0  0  0  0  0
  -30.7643  -17.2910   20.1197 C   0  0  0  0  0  0  0  0  0  0  0  0
  -20.0406  -27.2864   22.4252 C   0  0  0  0  0  0  0  0  0  0  0  0
  -25.3462   -7.9340   22.9491 C   0  0  0  0  0  0  0  0  0  0  0  0
  -26.7697  -12.9825   19.0882 C   0  0  0  0  0  0  0  0  0  0  0  0
  -27.1038  -15.5518   20.5137 C   0  0  0  0  0  0  0  0  0  0  0  0
  -26.4715   -8.9124   23.2759 C   0  0  0  0  0  0  0  0  0  0  0  0
  -21.4981  -30.0023   24.3218 C   0  0  0  0  0  0  0  0  0  0  0  0
  -25.9007  -10.2764   23.6508 C   0  0  0  0  0  0  0  0  0  0  0  0
  -22.7969  -30.2483   23.5518 C   0  0  0  0  0  0  0  0  0  0  0  0
  -21.1636  -28.5147   24.3804 C   0  0  0  0  0  0  0  0  0  0  0  0
  -22.3795  -28.0931   22.2787 C   0  0  0  0  0  0  0  0  0  0  0  0
  -25.1108  -10.8833   22.4850 C   0  0  1  0  0  0  0  0  0  0  0  0
  -27.4606  -13.0637   20.4459 C   0  0  1  0  0  0  0  0  0  0  0  0
  -22.7609  -29.5803   22.1645 C   0  0  2  0  0  0  0  0  0  0  0  0
  -32.9532  -18.5178   20.1506 C   0  0  0  0  0  0  0  0  0  0  0  0
  -28.6136  -15.5415   24.1731 C   0  0  0  0  0  0  0  0  0  0  0  0
  -30.2346  -17.4064   23.7693 C   0  0  0  0  0  0  0  0  0  0  0  0
  -31.0285  -15.0416   23.7572 C   0  0  0  0  0  0  0  0  0  0  0  0
  -31.1056  -16.9922   17.1951 C   0  0  0  0  0  0  0  0  0  0  0  0
  -17.6937  -26.5362   22.7189 C   0  0  0  0  0  0  0  0  0  0  0  0
  -18.2255  -21.8890   20.9624 C   0  0  0  0  0  0  0  0  0  0  0  0
  -17.2032  -25.4553   25.3991 C   0  0  0  0  0  0  0  0  0  0  0  0
  -21.2735  -19.7791   20.0688 C   0  0  0  0  0  0  0  0  0  0  0  0
  -21.6165  -18.8052   18.9440 C   0  0  0  0  0  0  0  0  0  0  0  0
  -19.8638  -20.3275   19.9058 C   0  0  0  0  0  0  0  0  0  0  0  0
  -23.0088  -18.2147   19.1167 C   0  0  0  0  0  0  0  0  0  1  0  0
  -29.6336  -15.8907   21.8270 C   0  0  1  0  0  0  0  0  0  0  0  0
  -32.1042  -17.4809   19.4318 C   0  0  2  0  0  0  0  0  0  0  0  0
  -29.8556  -15.9660   23.3641 C   0  0  0  0  0  0  0  0  0  0  0  0
  -25.0221  -28.8378   21.5180 N   0  0  0  0  0  0  0  0  0  0  0  0
  -24.0647  -29.7750   21.4129 N   0  0  0  0  0  0  0  0  0  0  0  0
  -27.9923  -14.3980   20.7307 N   0  0  0  0  0  0  0  0  0  0  0  0
  -21.1267  -27.9438   23.0266 N   0  0  0  0  0  0  0  0  0  0  0  0
  -23.5589  -31.8526   20.3937 N   0  0  0  0  0  0  0  0  0  0  0  0
  -27.7305  -30.9546   18.9146 N   0  0  0  0  0  0  0  0  0  0  0  0
  -26.0125  -11.4329   21.4953 N   0  0  0  0  0  0  0  0  0  0  0  0
  -30.8020  -16.2611   21.0358 N   0  0  0  0  0  0  0  0  0  0  0  0
  -18.8941  -27.1808   23.2031 N   0  0  0  0  0  0  0  0  0  0  0  0
  -15.7588  -25.7596   25.5881 N   0  3  0  0  0  0  0  0  0  0  0  0
  -31.9050  -17.9300   18.0248 N   0  3  0  0  0  0  0  0  0  0  0  0
  -19.5923  -21.2999   20.9918 N   0  3  0  0  0  0  0  0  0  0  0  0
  -26.0165  -32.4764   18.8421 O   0  0  0  0  0  0  0  0  0  0  0  0
  -26.3459  -13.5179   22.4772 O   0  0  0  0  0  0  0  0  0  0  0  0
  -30.0016  -13.5618   21.5671 O   0  0  0  0  0  0  0  0  0  0  0  0
  -29.7836  -17.9891   19.8721 O   0  0  0  0  0  0  0  0  0  0  0  0
  -20.0873  -26.8316   21.2771 O   0  0  0  0  0  0  0  0  0  0  0  0
  -30.7730  -26.4596   20.1689 O   0  0  0  0  0  0  0  0  0  0  0  0
  -23.2606  -17.3058   18.0458 O   0  0  0  0  0  0  0  0  0  1  0  0
  -30.4140  -21.0301   19.2765 F   0  0  0  0  0  0  0  0  0  0  0  0
  -31.8194  -25.3271   17.8742 F   0  0  0  0  0  0  0  0  0  0  0  0
  1  2  1  0  0  0  0
  1  5  2  0  0  0  0
  2  6  2  0  0  0  0
  3 10  2  0  0  0  0
  3 18  1  0  0  0  0
  4 11  1  0  0  0  0
  4 18  2  0  0  0  0
  5 20  1  0  0  0  0
  6 22  1  0  0  0  0
  7 12  2  0  0  0  0
  7 21  1  0  0  0  0
  8  9  2  0  0  0  0
  8 24  1  0  0  0  0
  9 25  1  0  0  0  0
 10 27  1  0  0  0  0
 11 27  2  0  0  0  0
 12 28  1  0  0  0  0
 13 14  2  0  0  0  0
 13 29  1  0  0  0  0
 14 30  1  0  0  0  0
 15 23  1  0  0  0  0
 15 28  2  0  0  0  0
 16 24  2  0  0  0  0
 16 26  1  0  0  0  0
 17 30  2  0  0  0  0
 17 31  1  0  0  0  0
 18 32  1  0  0  0  0
 19 32  1  0  0  0  0
 19 33  2  0  0  0  0
 19 34  1  0  0  0  0
 20 22  2  0  0  0  0
 20 39  1  0  0  0  0
 21 23  2  0  0  0  0
 21 40  1  0  0  0  0
 22 48  1  0  0  0  0
 23 41  1  0  0  0  0
 24 57  1  0  0  0  0
 25 26  2  0  0  0  0
 25 58  1  0  0  0  0
 26 56  1  0  0  0  0
 27 83  1  0  0  0  0
 28 84  1  0  0  0  0
 29 31  2  0  0  0  0
 29 83  1  0  0  0  0
 30 85  1  0  0  0  0
 31 86  1  0  0  0  0
 32 66  2  0  0  0  0
 33 67  1  0  0  0  0
 33 70  1  0  0  0  0
 34 71  1  0  0  0  0
 34 78  2  0  0  0  0
 35 49  1  0  0  0  0
 35 72  1  0  0  0  0
 35 79  2  0  0  0  0
 36 63  1  0  0  0  0
 36 68  1  0  0  0  0
 36 80  2  0  0  0  0
 37 64  1  0  0  0  0
 37 73  1  0  0  0  0
 37 81  2  0  0  0  0
 38 69  1  0  0  0  0
 38 74  1  0  0  0  0
 38 82  2  0  0  0  0
 39 42  1  0  0  0  0
 40 49  1  0  0  0  0
 41 68  1  0  0  0  0
 42 44  1  0  0  0  0
 43 45  1  0  0  0  0
 43 46  1  0  0  0  0
 44 48  1  0  0  0  0
 45 50  1  0  0  0  0
 46 69  1  0  0  0  0
 47 50  1  0  0  0  0
 47 69  1  0  0  0  0
 48 72  1  0  0  0  0
 49 68  1  0  0  0  0
 50 67  1  0  0  0  0
 51 64  1  0  0  0  0
 52 65  1  0  0  0  0
 53 65  1  0  0  0  0
 54 65  1  0  0  0  0
 55 76  1  0  0  0  0
 56 74  1  0  0  0  0
 57 77  1  0  0  0  0
 58 75  1  0  0  0  0
 59 60  1  0  0  0  0
 59 61  1  0  0  0  0
 60 62  1  0  0  0  0
 61 77  1  0  0  0  0
 62 84  1  0  0  0  0
 63 65  1  0  0  0  0
 63 73  1  0  0  0  0
 64 76  1  0  0  0  0
 66 67  1  0  0  0  0
M  CHG  3  75   1  76   1  77   1
M  ISO  4  38 100  62 101  74 100  84 101
M  END
> <Batch ID>
0005

> <Smiles>
CNC(C)C(=O)NC(C(=O)N1Cc2cc([101O:1][101CH2:1]CCCNCc3ccc(CN)c(C[100NH:0][100C:0](=O)N4CCCC(n5nc(-c6ccc(Oc7ccc(F)cc7F)cc6)c(C(N)=O)c5N)C4)c3)ccc2CC1C(=O)NC1CCCc2ccccc21)C(C)(C)C

> <Shape>
0.283

> <Color>
0.048

> <Negative vol penalty>
0.000

$$$$

  -OEChem-04042320263D

 87 96  0     1  0  0  0  0  0999 V2000
  -18.0330  -24.2574   23.9101 C   0  0  0  0  0  0  0  0  0  0  0  0
  -19.0278  -23.7652   23.0713 C   0  0  0  0  0  0  0  0  0  0  0  0
  -32.6797  -20.5361   16.0242 C   0  0  0  0  0  0  0  0  0  0  0  0
  -30.7320  -19.4256   15.1242 C   0  0  0  0  0  0  0  0  0  0  0  0
  -17.8326  -25.6328   24.0198 C   0  0  0  0  0  0  0  0  0  0  0  0
  -19.8222  -24.6483   22.3408 C   0  0  0  0  0  0  0  0  0  0  0  0
  -24.7343  -23.4273   22.4982 C   0  0  0  0  0  0  0  0  0  0  0  0
  -24.5300  -14.8611   21.4479 C   0  0  0  0  0  0  0  0  0  0  0  0
  -33.1967  -20.6736   14.7361 C   0  0  0  0  0  0  0  0  0  0  0  0
  -31.2489  -19.5631   13.8359 C   0  0  0  0  0  0  0  0  0  0  0  0
  -25.1569  -22.3811   21.6793 C   0  0  0  0  0  0  0  0  0  0  0  0
  -32.7245  -22.6921   12.0648 C   0  0  0  0  0  0  0  0  0  0  0  0
  -25.0847  -13.9329   22.3291 C   0  0  0  0  0  0  0  0  0  0  0  0
  -33.2641  -23.9288   11.7114 C   0  0  0  0  0  0  0  0  0  0  0  0
  -26.3573  -14.4939   19.9107 C   0  0  0  0  0  0  0  0  0  0  0  0
  -25.9856  -23.9801   20.0743 C   0  0  0  0  0  0  0  0  0  0  0  0
  -35.4000  -22.8784   11.2969 C   0  0  0  0  0  0  0  0  0  0  0  0
  -31.4474  -19.9121   16.2183 C   0  0  0  0  0  0  0  0  0  0  0  0
  -30.0803  -20.6755   18.2323 C   0  0  0  0  0  0  0  0  0  0  0  0
  -18.6313  -26.5335   23.2976 C   0  0  0  0  0  0  0  0  0  0  0  0
  -24.9247  -24.7600   22.1056 C   0  0  0  0  0  0  0  0  0  0  0  0
  -19.6314  -26.0370   22.4399 C   0  0  0  0  0  0  0  0  0  0  0  0
  -26.9121  -13.5658   20.7918 C   0  0  0  0  0  0  0  0  0  0  0  0
  -25.5668  -25.0414   20.8912 C   0  0  0  0  0  0  0  0  0  0  0  0
  -25.1663  -15.1415   20.2387 C   0  0  0  0  0  0  0  0  0  0  0  0
  -32.4813  -20.1871   13.6419 C   0  0  0  0  0  0  0  0  0  0  0  0
  -25.7801  -22.6574   20.4658 C   0  0  0  0  0  0  0  0  0  0  0  0
  -33.5227  -21.5485   12.0343 C   0  0  0  0  0  0  0  0  0  0  0  0
  -34.6018  -24.0220   11.3274 C   0  0  0  0  0  0  0  0  0  0  0  0
  -26.2758  -13.2853   22.0011 C   0  0  0  0  0  0  0  0  0  0  0  0
  -34.8604  -21.6417   11.6503 C   0  0  0  0  0  0  0  0  0  0  0  0
  -30.9131  -19.7693   17.5488 C   0  0  0  0  0  0  0  0  0  0  0  0
  -29.8544  -20.0826   19.4504 C   0  0  0  0  0  0  0  0  0  0  0  0
  -29.5577  -21.9401   17.8043 C   0  0  0  0  0  0  0  0  0  0  0  0
  -22.9996  -27.2091   21.4733 C   0  0  0  0  0  0  0  0  0  0  0  0
  -25.7930  -28.8427   21.2479 C   0  0  0  0  0  0  0  0  0  0  0  0
  -29.1574  -28.7645   20.6811 C   0  0  0  0  0  0  0  0  0  0  0  0
  -29.9078  -14.4640   21.3251 C   0  0  0  0  0  0  0  0  0  0  0  0
  -18.3461  -28.0100   23.4126 C   0  0  0  0  0  0  0  0  0  0  0  0
  -24.4872  -25.8773   23.0126 C   0  0  0  0  0  0  0  0  0  0  0  0
  -25.8132  -26.4549   20.4333 C   0  0  0  0  0  0  0  0  0  0  0  0
  -19.4780  -28.8914   22.8910 C   0  0  0  0  0  0  0  0  0  0  0  0
  -29.5246  -12.1382   18.5695 C   0  0  0  0  0  0  0  0  0  0  0  0
  -31.8330  -17.0903   22.5998 C   0  0  0  0  0  0  0  0  0  0  0  0
  -28.1035  -12.0872   19.1161 C   0  0  0  0  0  0  0  0  0  0  0  0
  -19.9677  -28.3861   21.5376 C   0  0  0  0  0  0  0  0  0  0  0  0
  -31.7605  -18.1632   21.5150 C   0  0  0  0  0  0  0  0  0  0  0  0
  -31.9455  -15.7018   21.9831 C   0  0  0  0  0  0  0  0  0  0  0  0
  -29.9845  -13.5356   18.9550 C   0  0  0  0  0  0  0  0  0  0  0  0
  -30.7293  -16.4357   19.9545 C   0  0  0  0  0  0  0  0  0  0  0  0
  -28.2038  -12.8661   20.4343 C   0  0  1  0  0  0  0  0  0  0  0  0
  -20.5299  -26.9639   21.6502 C   0  0  1  0  0  0  0  0  0  0  0  0
  -24.2701  -27.1951   22.2755 C   0  0  1  0  0  0  0  0  0  0  0  0
  -30.6212  -17.8640   20.5266 C   0  0  2  0  0  0  0  0  0  0  0  0
  -31.1643  -30.2631   20.5258 C   0  0  0  0  0  0  0  0  0  0  0  0
  -24.8805  -29.7750   18.4896 C   0  0  0  0  0  0  0  0  0  0  0  0
  -27.2447  -30.4452   18.0108 C   0  0  0  0  0  0  0  0  0  0  0  0
  -25.9929  -31.5378   19.8714 C   0  0  0  0  0  0  0  0  0  0  0  0
  -30.5002  -27.3933   22.9340 C   0  0  0  0  0  0  0  0  0  0  0  0
  -24.5728  -16.1337   19.2966 C   0  0  0  0  0  0  0  0  0  0  0  0
  -25.5298  -19.7247   18.3715 C   0  0  0  0  0  0  0  0  0  0  0  0
  -24.7488  -18.4208   18.3081 C   0  0  0  0  0  0  0  0  0  0  0  0
  -25.4500  -20.4220   19.7240 C   0  0  0  0  0  0  0  0  0  1  0  0
  -26.7675  -29.1457   20.1355 C   0  0  1  0  0  0  0  0  0  0  0  0
  -30.3206  -29.3832   21.4351 C   0  0  2  0  0  0  0  0  0  0  0  0
  -26.2152  -30.1991   19.1343 C   0  0  0  0  0  0  0  0  0  0  0  0
  -31.1971  -18.6833   18.2727 N   0  0  0  0  0  0  0  0  0  0  0  0
  -30.5392  -18.9034   19.4237 N   0  0  0  0  0  0  0  0  0  0  0  0
  -25.3614  -27.5128   21.3523 N   0  0  0  0  0  0  0  0  0  0  0  0
  -30.8612  -15.4478   21.0338 N   0  0  0  0  0  0  0  0  0  0  0  0
  -29.3378  -13.7838   20.2449 N   0  0  0  0  0  0  0  0  0  0  0  0
  -29.1389  -20.4601   20.5311 N   0  0  0  0  0  0  0  0  0  0  0  0
  -29.8884  -22.4005   16.5225 N   0  0  0  0  0  0  0  0  0  0  0  0
  -21.8591  -26.9897   22.2221 N   0  0  0  0  0  0  0  0  0  0  0  0
  -28.0170  -29.5329   20.7816 N   0  0  0  0  0  0  0  0  0  0  0  0
  -31.1954  -28.3183   22.0023 N   0  3  0  0  0  0  0  0  0  0  0  0
  -25.2908  -17.4381   19.2824 N   0  3  0  0  0  0  0  0  0  0  0  0
  -28.8326  -22.6487   18.5430 O   0  0  0  0  0  0  0  0  0  0  0  0
  -23.0502  -27.4059   20.2649 O   0  0  0  0  0  0  0  0  0  0  0  0
  -25.4336  -29.7511   22.0011 O   0  0  0  0  0  0  0  0  0  0  0  0
  -29.2521  -27.7073   20.0615 O   0  0  0  0  0  0  0  0  0  0  0  0
  -29.5963  -14.1907   22.4914 O   0  0  0  0  0  0  0  0  0  0  0  0
  -32.9853  -20.3213   12.3847 O   0  0  0  0  0  0  0  0  0  0  0  0
  -26.1958  -21.6309   19.6587 O   0  0  0  0  0  0  0  0  0  1  0  0
  -35.1195  -25.2095   10.9866 F   0  0  0  0  0  0  0  0  0  0  0  0
  -26.8020  -12.3961   22.8549 F   0  0  0  0  0  0  0  0  0  0  0  0
  -35.6318  -20.5464   11.6180 F   0  0  0  0  0  0  0  0  0  0  0  0
  1  2  1  0  0  0  0
  1  5  2  0  0  0  0
  2  6  2  0  0  0  0
  3  9  2  0  0  0  0
  3 18  1  0  0  0  0
  4 10  1  0  0  0  0
  4 18  2  0  0  0  0
  5 20  1  0  0  0  0
  6 22  1  0  0  0  0
  7 11  2  0  0  0  0
  7 21  1  0  0  0  0
  8 13  2  0  0  0  0
  8 25  1  0  0  0  0
  9 26  1  0  0  0  0
 10 26  2  0  0  0  0
 11 27  1  0  0  0  0
 12 14  2  0  0  0  0
 12 28  1  0  0  0  0
 13 30  1  0  0  0  0
 14 29  1  0  0  0  0
 15 23  1  0  0  0  0
 15 25  2  0  0  0  0
 16 24  1  0  0  0  0
 16 27  2  0  0  0  0
 17 29  2  0  0  0  0
 17 31  1  0  0  0  0
 18 32  1  0  0  0  0
 19 32  1  0  0  0  0
 19 33  2  0  0  0  0
 19 34  1  0  0  0  0
 20 22  2  0  0  0  0
 20 39  1  0  0  0  0
 21 24  2  0  0  0  0
 21 40  1  0  0  0  0
 22 52  1  0  0  0  0
 23 30  2  0  0  0  0
 23 51  1  0  0  0  0
 24 41  1  0  0  0  0
 25 60  1  0  0  0  0
 26 83  1  0  0  0  0
 27 84  1  0  0  0  0
 28 31  2  0  0  0  0
 28 83  1  0  0  0  0
 29 85  1  0  0  0  0
 30 86  1  0  0  0  0
 31 87  1  0  0  0  0
 32 67  2  0  0  0  0
 33 68  1  0  0  0  0
 33 72  1  0  0  0  0
 34 73  1  0  0  0  0
 34 78  2  0  0  0  0
 35 53  1  0  0  0  0
 35 74  1  0  0  0  0
 35 79  2  0  0  0  0
 36 64  1  0  0  0  0
 36 69  1  0  0  0  0
 36 80  2  0  0  0  0
 37 65  1  0  0  0  0
 37 75  1  0  0  0  0
 37 81  2  0  0  0  0
 38 70  1  0  0  0  0
 38 71  1  0  0  0  0
 38 82  2  0  0  0  0
 39 42  1  0  0  0  0
 40 53  1  0  0  0  0
 41 69  1  0  0  0  0
 42 46  1  0  0  0  0
 43 45  1  0  0  0  0
 43 49  1  0  0  0  0
 44 47  1  0  0  0  0
 44 48  1  0  0  0  0
 45 51  1  0  0  0  0
 46 52  1  0  0  0  0
 47 54  1  0  0  0  0
 48 70  1  0  0  0  0
 49 71  1  0  0  0  0
 50 54  1  0  0  0  0
 50 70  1  0  0  0  0
 51 71  1  0  0  0  0
 52 74  1  0  0  0  0
 53 69  1  0  0  0  0
 54 68  1  0  0  0  0
 55 65  1  0  0  0  0
 56 66  1  0  0  0  0
 57 66  1  0  0  0  0
 58 66  1  0  0  0  0
 59 76  1  0  0  0  0
 60 77  1  0  0  0  0
 61 62  1  0  0  0  0
 61 63  1  0  0  0  0
 62 77  1  0  0  0  0
 63 84  1  0  0  0  0
 64 66  1  0  0  0  0
 64 75  1  0  0  0  0
 65 76  1  0  0  0  0
 67 68  1  0  0  0  0
M  CHG  2  76   1  77   1
M  ISO  4  38 100  63 101  71 100  84 101
M  END
> <Batch ID>
0005

> <Smiles>
CNC(C)C(=O)NC(C(=O)N1Cc2cc([101O:1][101CH2:1]CCNCc3ccc(F)c(C4CCC[100N:0]4[100C:0](=O)N4CCCC(n5nc(-c6ccc(Oc7ccc(F)cc7F)cc6)c(C(N)=O)c5N)C4)c3)ccc2CC1C(=O)NC1CCCc2ccccc21)C(C)(C)C

> <Shape>
0.209

> <Color>
0.070

> <Negative vol penalty>
0.000

$$$$

  -OEChem-04042320263D

 95106  0     1  0  0  0  0  0999 V2000
  -37.4384  -33.0793   26.2402 C   0  0  0  0  0  0  0  0  0  0  0  0
  -36.5157  -33.2436   27.2683 C   0  0  0  0  0  0  0  0  0  0  0  0
  -24.4734   -9.8130   22.5436 C   0  0  0  0  0  0  0  0  0  0  0  0
  -24.7869   -9.2310   20.2198 C   0  0  0  0  0  0  0  0  0  0  0  0
  -36.9960  -32.8947   24.9309 C   0  0  0  0  0  0  0  0  0  0  0  0
  -35.1499  -33.2245   26.9875 C   0  0  0  0  0  0  0  0  0  0  0  0
  -26.6962  -20.7145   27.5734 C   0  0  0  0  0  0  0  0  0  0  0  0
  -26.4719  -22.9355   26.6494 C   0  0  0  0  0  0  0  0  0  0  0  0
  -30.7880  -28.4199   30.1149 C   0  0  0  0  0  0  0  0  0  0  0  0
  -26.9865  -20.2155   26.3036 C   0  0  0  0  0  0  0  0  0  0  0  0
  -26.7623  -22.4365   25.3796 C   0  0  0  0  0  0  0  0  0  0  0  0
  -24.1721   -8.4828   22.8361 C   0  0  0  0  0  0  0  0  0  0  0  0
  -24.4856   -7.9008   20.5123 C   0  0  0  0  0  0  0  0  0  0  0  0
  -29.8547  -27.6699   30.8309 C   0  0  0  0  0  0  0  0  0  0  0  0
  -21.5232   -6.4051   22.5348 C   0  0  0  0  0  0  0  0  0  0  0  0
  -20.4240   -6.1559   23.3565 C   0  0  0  0  0  0  0  0  0  0  0  0
  -28.0674  -28.5924   29.4883 C   0  0  0  0  0  0  0  0  0  0  0  0
  -21.8664   -5.0565   24.9527 C   0  0  0  0  0  0  0  0  0  0  0  0
  -24.7808  -10.1871   21.2354 C   0  0  0  0  0  0  0  0  0  0  0  0
  -24.2616  -12.6821   21.1225 C   0  0  0  0  0  0  0  0  0  0  0  0
  -26.4388  -22.0745   27.7463 C   0  0  0  0  0  0  0  0  0  0  0  0
  -35.6240  -32.8637   24.6354 C   0  0  0  0  0  0  0  0  0  0  0  0
  -30.3656  -29.2482   29.0714 C   0  0  0  0  0  0  0  0  0  0  0  0
  -34.6888  -33.0407   25.6729 C   0  0  0  0  0  0  0  0  0  0  0  0
  -28.9990  -29.3364   28.7593 C   0  0  0  0  0  0  0  0  0  0  0  0
  -27.0196  -21.0765   25.2067 C   0  0  0  0  0  0  0  0  0  0  0  0
  -24.1783   -7.5268   21.8205 C   0  0  0  0  0  0  0  0  0  0  0  0
  -28.4978  -27.7562   30.5185 C   0  0  0  0  0  0  0  0  0  0  0  0
  -22.7941   -5.9799   22.9220 C   0  0  0  0  0  0  0  0  0  0  0  0
  -20.5956   -5.4817   24.5655 C   0  0  0  0  0  0  0  0  0  0  0  0
  -22.9656   -5.3056   24.1310 C   0  0  0  0  0  0  0  0  0  0  0  0
  -25.0915  -11.5610   20.9325 C   0  0  0  0  0  0  0  0  0  0  0  0
  -25.0130  -13.7442   20.6823 C   0  0  0  0  0  0  0  0  0  0  0  0
  -22.9304  -12.7568   21.6499 C   0  0  0  0  0  0  0  0  0  0  0  0
  -31.3315  -31.6622   26.3667 C   0  0  0  0  0  0  0  0  0  0  0  0
  -29.1430  -29.8528   25.2062 C   0  0  0  0  0  0  0  0  0  0  0  0
  -27.1114  -27.9949   23.1917 C   0  0  0  0  0  0  0  0  0  0  0  0
  -29.8521  -16.5138   20.4402 C   0  0  0  0  0  0  0  0  0  0  0  0
  -35.1944  -32.7087   23.1980 C   0  0  0  0  0  0  0  0  0  0  0  0
  -31.3291  -30.1208   28.3136 C   0  0  0  0  0  0  0  0  0  0  0  0
  -28.5869  -30.2670   27.6515 C   0  0  0  0  0  0  0  0  0  0  0  0
  -33.7251  -32.3264   23.0393 C   0  0  0  0  0  0  0  0  0  0  0  0
  -29.2121  -21.4757   19.4050 C   0  0  0  0  0  0  0  0  0  0  0  0
  -28.9447  -20.0369   18.9707 C   0  0  0  0  0  0  0  0  0  0  0  0
  -29.3735  -13.8550   18.1210 C   0  0  0  0  0  0  0  0  0  0  0  0
  -32.8473  -33.1977   23.9322 C   0  0  0  0  0  0  0  0  0  0  0  0
  -29.4437  -21.6057   20.9104 C   0  0  0  0  0  0  0  0  0  0  0  0
  -28.1529  -13.1105   18.6648 C   0  0  0  0  0  0  0  0  0  0  0  0
  -27.8428  -19.3745   19.8025 C   0  0  0  0  0  0  0  0  0  0  0  0
  -26.8489  -18.9731   22.0934 C   0  0  0  0  0  0  0  0  0  0  0  0
  -24.7581  -23.2879   29.2360 C   0  0  0  0  0  0  0  0  0  0  0  0
  -30.2608  -14.3819   19.2467 C   0  0  0  0  0  0  0  0  0  0  0  0
  -26.9411  -19.1934   23.6068 C   0  0  0  0  0  0  0  0  0  0  0  0
  -28.4542  -21.1664   23.2132 C   0  0  0  0  0  0  0  0  0  0  0  0
  -28.3432  -14.4654   20.7924 C   0  0  0  0  0  0  0  0  0  0  0  0
  -24.8702  -24.0296   30.5516 C   0  0  0  0  0  0  0  0  0  0  0  0
  -27.1037  -23.6822   29.6143 C   0  0  0  0  0  0  0  0  0  0  0  0
  -26.1242  -22.6152   29.1195 C   0  0  2  0  0  0  0  0  0  0  0  0
  -33.1987  -33.0012   25.4118 C   0  0  1  0  0  0  0  0  0  0  0  0
  -30.9551  -30.2855   26.8296 C   0  0  1  0  0  0  0  0  0  0  0  0
  -28.2951  -20.9627   21.7005 C   0  0  2  0  0  0  0  0  0  0  0  0
  -27.3889  -13.9637   19.6952 C   0  0  2  0  0  0  0  0  0  0  0  0
  -28.0943  -19.4719   21.3278 C   0  0  2  0  0  0  0  0  0  0  0  0
  -25.6967  -28.1649   21.1260 C   0  0  0  0  0  0  0  0  0  0  0  0
  -26.9984  -31.3237   26.8004 C   0  0  0  0  0  0  0  0  0  0  0  0
  -25.3327  -30.6296   25.0649 C   0  0  0  0  0  0  0  0  0  0  0  0
  -27.2518  -32.0933   24.4344 C   0  0  0  0  0  0  0  0  0  0  0  0
  -28.7274  -25.9588   21.7770 C   0  0  0  0  0  0  0  0  0  0  0  0
  -29.3063  -18.5831   21.6969 C   0  0  0  0  0  0  0  0  0  0  0  0
  -26.8687  -24.8148   31.8686 C   0  0  0  0  0  0  0  0  0  0  0  0
  -28.0391  -25.7703   31.7451 C   0  0  0  0  0  0  0  0  0  1  0  0
  -27.6706  -29.6538   24.9495 C   0  0  1  0  0  0  0  0  0  0  0  0
  -27.0701  -27.8251   21.6838 C   0  0  2  0  0  0  0  0  0  0  0  0
  -26.8288  -30.9056   25.3261 C   0  0  0  0  0  0  0  0  0  0  0  0
  -26.2792  -11.8811   20.4120 N   0  0  0  0  0  0  0  0  0  0  0  0
  -26.2010  -13.2153   20.2711 N   0  0  0  0  0  0  0  0  0  0  0  0
  -27.3132  -20.5757   23.9307 N   0  0  2  0  0  0  0  0  0  0  0  0
  -29.5215  -30.1478   26.5215 N   0  0  0  0  0  0  0  0  0  0  0  0
  -29.4760  -15.1841   20.1882 N   0  0  0  0  0  0  0  0  0  0  0  0
  -24.7669  -15.0696   20.6107 N   0  0  0  0  0  0  0  0  0  0  0  0
  -21.8524  -12.6451   20.7611 N   0  0  0  0  0  0  0  0  0  0  0  0
  -32.6304  -31.7655   25.9065 N   0  0  0  0  0  0  0  0  0  0  0  0
  -27.5505  -29.2512   23.5524 N   0  0  0  0  0  0  0  0  0  0  0  0
  -29.0508  -17.2052   21.3405 N   0  0  0  0  0  0  0  0  0  0  0  0
  -26.2760  -24.5832   30.5163 N   0  3  2  0  0  0  0  0  0  0  0  0
  -27.3936  -26.4188   21.3118 N   0  3  0  0  0  0  0  0  0  0  0  0
  -22.7036  -12.9343   22.8708 O   0  0  0  0  0  0  0  0  0  0  0  0
  -30.5047  -32.5650   26.4210 O   0  0  0  0  0  0  0  0  0  0  0  0
  -29.9375  -29.7556   24.2667 O   0  0  0  0  0  0  0  0  0  0  0  0
  -26.7830  -27.1036   23.9716 O   0  0  0  0  0  0  0  0  0  0  0  0
  -30.8263  -17.0470   19.8986 O   0  0  0  0  0  0  0  0  0  0  0  0
  -23.8845   -6.2287   22.1055 O   0  0  0  0  0  0  0  0  0  0  0  0
  -27.5860  -27.0126   31.2236 O   0  0  0  0  0  0  0  0  0  1  0  0
  -19.5401   -5.2439   25.3552 F   0  0  0  0  0  0  0  0  0  0  0  0
  -24.1842   -4.8958   24.5089 F   0  0  0  0  0  0  0  0  0  0  0  0
  1  2  1  0  0  0  0
  1  5  2  0  0  0  0
  2  6  2  0  0  0  0
  3 12  2  0  0  0  0
  3 19  1  0  0  0  0
  4 13  1  0  0  0  0
  4 19  2  0  0  0  0
  5 22  1  0  0  0  0
  6 24  1  0  0  0  0
  7 10  2  0  0  0  0
  7 21  1  0  0  0  0
  8 11  1  0  0  0  0
  8 21  2  0  0  0  0
  9 14  2  0  0  0  0
  9 23  1  0  0  0  0
 10 26  1  0  0  0  0
 11 26  2  0  0  0  0
 12 27  1  0  0  0  0
 13 27  2  0  0  0  0
 14 28  1  0  0  0  0
 15 16  2  0  0  0  0
 15 29  1  0  0  0  0
 16 30  1  0  0  0  0
 17 25  1  0  0  0  0
 17 28  2  0  0  0  0
 18 30  2  0  0  0  0
 18 31  1  0  0  0  0
 19 32  1  0  0  0  0
 20 32  1  0  0  0  0
 20 33  2  0  0  0  0
 20 34  1  0  0  0  0
 21 58  1  0  0  0  0
 22 24  2  0  0  0  0
 22 39  1  0  0  0  0
 23 25  2  0  0  0  0
 23 40  1  0  0  0  0
 24 59  1  0  0  0  0
 25 41  1  0  0  0  0
 26 77  1  0  0  0  0
 27 92  1  0  0  0  0
 28 93  1  0  0  0  0
 29 31  2  0  0  0  0
 29 92  1  0  0  0  0
 30 94  1  0  0  0  0
 31 95  1  0  0  0  0
 32 75  2  0  0  0  0
 33 76  1  0  0  0  0
 33 80  1  0  0  0  0
 34 81  1  0  0  0  0
 34 87  2  0  0  0  0
 35 60  1  0  0  0  0
 35 82  1  0  0  0  0
 35 88  2  0  0  0  0
 36 72  1  0  0  0  0
 36 78  1  0  0  0  0
 36 89  2  0  0  0  0
 37 73  1  0  0  0  0
 37 83  1  0  0  0  0
 37 90  2  0  0  0  0
 38 79  1  0  0  0  0
 38 84  1  0  0  0  0
 38 91  2  0  0  0  0
 39 42  1  0  0  0  0
 40 60  1  0  0  0  0
 41 78  1  0  0  0  0
 42 46  1  0  0  0  0
 43 44  1  0  0  0  0
 43 47  1  0  0  0  0
 44 49  1  0  0  0  0
 45 48  1  0  0  0  0
 45 52  1  0  0  0  0
 46 59  1  0  0  0  0
 47 61  1  0  0  0  0
 48 62  1  0  0  0  0
 49 63  1  0  0  0  0
 50 53  1  0  0  0  0
 50 63  1  0  0  0  0
 51 56  1  0  0  0  0
 51 58  1  0  0  0  0
 52 79  1  0  0  0  0
 53 77  1  0  0  0  0
 54 61  1  0  0  0  0
 54 77  1  0  0  0  0
 55 62  1  0  0  0  0
 55 79  1  0  0  0  0
 56 85  1  0  0  0  0
 57 58  1  0  0  0  0
 57 85  1  0  0  0  0
 59 82  1  0  0  0  0
 60 78  1  0  0  0  0
 61 63  1  0  0  0  0
 62 76  1  0  0  0  0
 63 69  1  0  0  0  0
 64 73  1  0  0  0  0
 65 74  1  0  0  0  0
 66 74  1  0  0  0  0
 67 74  1  0  0  0  0
 68 86  1  0  0  0  0
 69 84  1  0  0  0  0
 70 71  1  0  0  0  0
 70 85  1  0  0  0  0
 71 93  1  0  0  0  0
 72 74  1  0  0  0  0
 72 83  1  0  0  0  0
 73 86  1  0  0  0  0
 75 76  1  0  0  0  0
M  CHG  2  85   1  86   1
M  ISO  4  38 100  71 101  84 100  93 101
M  END
> <Batch ID>
0005

> <Smiles>
CNC(C)C(=O)NC(C(=O)N1Cc2cc([101O:1][101CH2:1]CN3CCC(c4ccc(N5CCC6(C[100NH:0][100C:0](=O)N7CCCC(n8nc(-c9ccc(Oc%10ccc(F)cc%10F)cc9)c(C(N)=O)c8N)C7)CCCCC6C5)cc4)C3)ccc2CC1C(=O)NC1CCCc2ccccc21)C(C)(C)C

> <Shape>
0.214

> <Color>
0.108

> <Negative vol penalty>
0.000

$$$$

  -OEChem-04042320263D

 94102  0     1  0  0  0  0  0999 V2000
  -32.6039  -24.3964   17.4911 C   0  0  0  0  0  0  0  0  0  0  0  0
  -31.3160  -24.5869   17.0009 C   0  0  0  0  0  0  0  0  0  0  0  0
  -23.7341  -24.1214   19.2542 C   0  0  0  0  0  0  0  0  0  0  0  0
  -27.6061  -12.7962   21.3183 C   0  0  0  0  0  0  0  0  0  0  0  0
  -25.7427  -13.3275   19.8753 C   0  0  0  0  0  0  0  0  0  0  0  0
  -32.8316  -24.3922   18.8666 C   0  0  0  0  0  0  0  0  0  0  0  0
  -30.2546  -24.7724   17.8862 C   0  0  0  0  0  0  0  0  0  0  0  0
  -24.0105  -28.2347   18.4688 C   0  0  0  0  0  0  0  0  0  0  0  0
  -24.7830  -23.5916   18.5028 C   0  0  0  0  0  0  0  0  0  0  0  0
  -22.7353  -23.2814   19.7468 C   0  0  0  0  0  0  0  0  0  0  0  0
  -26.7950  -11.9245   22.0448 C   0  0  0  0  0  0  0  0  0  0  0  0
  -24.9316  -12.4558   20.6017 C   0  0  0  0  0  0  0  0  0  0  0  0
  -22.6703  -27.9955   18.7693 C   0  0  0  0  0  0  0  0  0  0  0  0
  -24.4079   -9.1229   20.7971 C   0  0  0  0  0  0  0  0  0  0  0  0
  -23.5847   -8.2558   20.0788 C   0  0  0  0  0  0  0  0  0  0  0  0
  -23.1948  -28.0484   21.1233 C   0  0  0  0  0  0  0  0  0  0  0  0
  -23.8344  -21.3819   18.7364 C   0  0  0  0  0  0  0  0  0  0  0  0
  -21.6404   -9.2285   21.1328 C   0  0  0  0  0  0  0  0  0  0  0  0
  -27.0800  -13.4978   20.2336 C   0  0  0  0  0  0  0  0  0  0  0  0
  -28.7019  -14.0901   18.3558 C   0  0  0  0  0  0  0  0  0  0  0  0
  -31.7740  -24.5873   19.7689 C   0  0  0  0  0  0  0  0  0  0  0  0
  -24.9565  -28.3719   19.4949 C   0  0  0  0  0  0  0  0  0  0  0  0
  -30.4681  -24.7695   19.2751 C   0  0  0  0  0  0  0  0  0  0  0  0
  -24.5460  -28.2918   20.8332 C   0  0  0  0  0  0  0  0  0  0  0  0
  -24.8332  -22.2219   18.2439 C   0  0  0  0  0  0  0  0  0  0  0  0
  -25.4578  -11.7543   21.6865 C   0  0  0  0  0  0  0  0  0  0  0  0
  -22.2627  -27.8994   20.0966 C   0  0  0  0  0  0  0  0  0  0  0  0
  -22.7854  -21.9117   19.4878 C   0  0  0  0  0  0  0  0  0  0  0  0
  -23.8474  -10.0428   21.6833 C   0  0  0  0  0  0  0  0  0  0  0  0
  -22.2009   -8.3086   20.2466 C   0  0  0  0  0  0  0  0  0  0  0  0
  -22.4637  -10.0956   21.8511 C   0  0  0  0  0  0  0  0  0  0  0  0
  -27.9172  -14.3988   19.4830 C   0  0  0  0  0  0  0  0  0  0  0  0
  -29.3010  -15.2791   18.0185 C   0  0  0  0  0  0  0  0  0  0  0  0
  -28.8738  -12.8404   17.6744 C   0  0  0  0  0  0  0  0  0  0  0  0
  -27.5678  -26.7824   20.3655 C   0  0  0  0  0  0  0  0  0  0  0  0
  -27.8670  -29.2146   22.4909 C   0  0  0  0  0  0  0  0  0  0  0  0
  -17.1914  -24.5002   19.9583 C   0  0  0  0  0  0  0  0  0  0  0  0
  -26.3596  -31.6928   24.2890 C   0  0  0  0  0  0  0  0  0  0  0  0
  -27.8128  -21.0035   18.9503 C   0  0  0  0  0  0  0  0  0  0  0  0
  -32.0616  -24.5275   21.2482 C   0  0  0  0  0  0  0  0  0  0  0  0
  -26.3938  -28.6562   19.1546 C   0  0  0  0  0  0  0  0  0  0  0  0
  -25.5187  -28.4519   21.9719 C   0  0  0  0  0  0  0  0  0  0  0  0
  -30.9418  -25.1049   22.1102 C   0  0  0  0  0  0  0  0  0  0  0  0
  -30.8232  -19.3846   19.9469 C   0  0  0  0  0  0  0  0  0  0  0  0
  -29.5869  -24.5779   21.6484 C   0  0  0  0  0  0  0  0  0  0  0  0
  -30.4906  -17.8954   19.8393 C   0  0  0  0  0  0  0  0  0  0  0  0
  -29.6251  -20.1967   20.4338 C   0  0  0  0  0  0  0  0  0  0  0  0
  -28.0563  -18.5168   19.5448 C   0  0  0  0  0  0  0  0  0  0  0  0
  -29.2948  -24.9986   20.2030 C   0  0  1  0  0  0  0  0  0  0  0  0
  -27.3599  -28.2674   20.2694 C   0  0  1  0  0  0  0  0  0  0  0  0
  -29.2169  -17.6642   19.0041 C   0  0  2  0  0  0  0  0  0  0  0  0
  -26.8574  -33.4902   25.9679 C   0  0  0  0  0  0  0  0  0  0  0  0
  -28.0658  -27.1052   24.6866 C   0  0  0  0  0  0  0  0  0  0  0  0
  -27.6052  -28.9069   26.3628 C   0  0  0  0  0  0  0  0  0  0  0  0
  -29.6491  -29.0247   24.9376 C   0  0  0  0  0  0  0  0  0  0  0  0
  -16.5385  -23.6166   17.7049 C   0  0  0  0  0  0  0  0  0  0  0  0
  -25.4494  -33.8249   22.4491 C   0  0  0  0  0  0  0  0  0  0  0  0
  -25.9546  -21.6557   17.4401 C   0  0  0  0  0  0  0  0  0  0  0  0
  -18.2659  -25.3018   19.2351 C   0  0  0  0  0  0  0  0  0  0  0  0
  -19.1054  -26.1514   20.1867 C   0  0  0  0  0  0  0  0  0  0  0  0
  -16.8233  -20.8460   19.9794 C   0  0  0  0  0  0  0  0  0  0  0  0
  -15.5063  -21.3869   19.4121 C   0  0  0  0  0  0  0  0  0  0  0  0
  -17.0163  -19.3706   19.6151 C   0  0  0  0  0  0  0  0  0  0  0  0
  -15.3074  -22.8706   19.7045 C   0  0  0  0  0  0  0  0  0  0  0  0
  -18.2748  -18.7573   20.2165 C   0  0  0  0  0  0  0  0  0  0  0  0
  -20.7644  -18.9462   20.2880 C   0  0  0  0  0  0  0  0  0  0  0  0
  -20.2014  -26.9062   19.4484 C   0  0  0  0  0  0  0  0  0  1  0  0
  -21.9225  -19.7029   19.6681 C   0  0  0  0  0  0  0  0  0  0  0  0
  -27.3870  -29.4686   23.8995 C   0  0  1  0  0  0  0  0  0  0  0  0
  -26.7212  -33.1532   24.4912 C   0  0  2  0  0  0  0  0  0  0  0  0
  -28.1585  -28.6214   24.9504 C   0  0  0  0  0  0  0  0  0  0  0  0
  -28.0077  -15.6832   19.8383 N   0  0  0  0  0  0  0  0  0  0  0  0
  -28.8564  -16.1921   18.9289 N   0  0  0  0  0  0  0  0  0  0  0  0
  -26.9141  -28.7224   21.5879 N   0  0  0  0  0  0  0  0  0  0  0  0
  -28.4509  -19.9332   19.5986 N   0  0  0  0  0  0  0  0  0  0  0  0
  -30.1597  -15.6223   17.0349 N   0  0  0  0  0  0  0  0  0  0  0  0
  -28.1841  -11.7181   18.1530 N   0  0  0  0  0  0  0  0  0  0  0  0
  -28.8736  -26.3824   20.1547 N   0  0  0  0  0  0  0  0  0  0  0  0
  -27.4799  -30.9094   24.1088 N   0  0  0  0  0  0  0  0  0  0  0  0
  -26.7115  -20.6656   18.1733 N   0  0  0  0  0  0  0  0  0  0  0  0
  -16.3775  -23.6940   19.1551 N   0  0  0  0  0  0  0  0  0  0  0  0
  -25.6719  -34.0330   23.9032 N   0  3  0  0  0  0  0  0  0  0  0  0
  -19.4859  -19.4435   19.7086 N   0  3  0  0  0  0  0  0  0  0  0  0
  -29.6298  -12.7188   16.6808 O   0  0  0  0  0  0  0  0  0  0  0  0
  -26.6145  -26.0537   20.6141 O   0  0  0  0  0  0  0  0  0  0  0  0
  -29.0423  -29.4512   22.2007 O   0  0  0  0  0  0  0  0  0  0  0  0
  -17.0710  -24.5788   21.1837 O   0  0  0  0  0  0  0  0  0  0  0  0
  -25.1995  -31.2870   24.2942 O   0  0  0  0  0  0  0  0  0  0  0  0
  -28.1994  -22.1727   19.0517 O   0  0  0  0  0  0  0  0  0  0  0  0
  -24.6660  -10.9036   22.3951 O   0  0  0  0  0  0  0  0  0  0  0  0
  -20.9553  -27.6654   20.3927 O   0  0  0  0  0  0  0  0  0  1  0  0
  -21.8044  -21.0864   19.9724 O   0  0  0  0  0  0  0  0  0  0  0  0
  -21.4104   -7.4768   19.5556 F   0  0  0  0  0  0  0  0  0  0  0  0
  -21.9194  -10.9781   22.7002 F   0  0  0  0  0  0  0  0  0  0  0  0
  1  2  1  0  0  0  0
  1  6  2  0  0  0  0
  2  7  2  0  0  0  0
  3  9  1  0  0  0  0
  3 10  2  0  0  0  0
  4 11  2  0  0  0  0
  4 19  1  0  0  0  0
  5 12  1  0  0  0  0
  5 19  2  0  0  0  0
  6 21  1  0  0  0  0
  7 23  1  0  0  0  0
  8 13  2  0  0  0  0
  8 22  1  0  0  0  0
  9 25  2  0  0  0  0
 10 28  1  0  0  0  0
 11 26  1  0  0  0  0
 12 26  2  0  0  0  0
 13 27  1  0  0  0  0
 14 15  2  0  0  0  0
 14 29  1  0  0  0  0
 15 30  1  0  0  0  0
 16 24  1  0  0  0  0
 16 27  2  0  0  0  0
 17 25  1  0  0  0  0
 17 28  2  0  0  0  0
 18 30  2  0  0  0  0
 18 31  1  0  0  0  0
 19 32  1  0  0  0  0
 20 32  1  0  0  0  0
 20 33  2  0  0  0  0
 20 34  1  0  0  0  0
 21 23  2  0  0  0  0
 21 40  1  0  0  0  0
 22 24  2  0  0  0  0
 22 41  1  0  0  0  0
 23 49  1  0  0  0  0
 24 42  1  0  0  0  0
 25 58  1  0  0  0  0
 26 90  1  0  0  0  0
 27 91  1  0  0  0  0
 28 92  1  0  0  0  0
 29 31  2  0  0  0  0
 29 90  1  0  0  0  0
 30 93  1  0  0  0  0
 31 94  1  0  0  0  0
 32 72  2  0  0  0  0
 33 73  1  0  0  0  0
 33 76  1  0  0  0  0
 34 77  1  0  0  0  0
 34 84  2  0  0  0  0
 35 50  1  0  0  0  0
 35 78  1  0  0  0  0
 35 85  2  0  0  0  0
 36 69  1  0  0  0  0
 36 74  1  0  0  0  0
 36 86  2  0  0  0  0
 37 59  1  0  0  0  0
 37 81  1  0  0  0  0
 37 87  2  0  0  0  0
 38 70  1  0  0  0  0
 38 79  1  0  0  0  0
 38 88  2  0  0  0  0
 39 75  1  0  0  0  0
 39 80  1  0  0  0  0
 39 89  2  0  0  0  0
 40 43  1  0  0  0  0
 41 50  1  0  0  0  0
 42 74  1  0  0  0  0
 43 45  1  0  0  0  0
 44 46  1  0  0  0  0
 44 47  1  0  0  0  0
 45 49  1  0  0  0  0
 46 51  1  0  0  0  0
 47 75  1  0  0  0  0
 48 51  1  0  0  0  0
 48 75  1  0  0  0  0
 49 78  1  0  0  0  0
 50 74  1  0  0  0  0
 51 73  1  0  0  0  0
 52 70  1  0  0  0  0
 53 71  1  0  0  0  0
 54 71  1  0  0  0  0
 55 71  1  0  0  0  0
 56 81  1  0  0  0  0
 57 82  1  0  0  0  0
 58 80  1  0  0  0  0
 59 60  1  0  0  0  0
 60 67  1  0  0  0  0
 61 62  1  0  0  0  0
 61 63  1  0  0  0  0
 62 64  1  0  0  0  0
 63 65  1  0  0  0  0
 64 81  1  0  0  0  0
 65 83  1  0  0  0  0
 66 68  1  0  0  0  0
 66 83  1  0  0  0  0
 67 91  1  0  0  0  0
 68 92  1  0  0  0  0
 69 71  1  0  0  0  0
 69 79  1  0  0  0  0
 70 82  1  0  0  0  0
 72 73  1  0  0  0  0
M  CHG  2  82   1  83   1
M  ISO  4  39 100  67 101  80 100  91 101
M  END
> <Batch ID>
0005

> <Smiles>
CNC(C)C(=O)NC(C(=O)N1Cc2cc([101O:1][101CH2:1]CCC(=O)N(C)CCCCCNCCOc3cccc(C[100NH:0][100C:0](=O)N4CCCC(n5nc(-c6ccc(Oc7ccc(F)cc7F)cc6)c(C(N)=O)c5N)C4)c3)ccc2CC1C(=O)NC1CCCc2ccccc21)C(C)(C)C

> <Shape>
0.266

> <Color>
0.059

> <Negative vol penalty>
0.000

$$$$

  -OEChem-04042320263D

 87 96  0     1  0  0  0  0  0999 V2000
  -32.7054  -30.0299   14.9728 C   0  0  0  0  0  0  0  0  0  0  0  0
  -32.2260  -30.1305   16.2749 C   0  0  0  0  0  0  0  0  0  0  0  0
  -23.0778   -9.8636   19.9953 C   0  0  0  0  0  0  0  0  0  0  0  0
  -23.8225   -9.9404   22.2924 C   0  0  0  0  0  0  0  0  0  0  0  0
  -32.7010  -28.7963   14.3229 C   0  0  0  0  0  0  0  0  0  0  0  0
  -31.7407  -28.9978   16.9275 C   0  0  0  0  0  0  0  0  0  0  0  0
  -31.2943  -26.0761   23.4529 C   0  0  0  0  0  0  0  0  0  0  0  0
  -32.6653  -17.5552   23.3276 C   0  0  0  0  0  0  0  0  0  0  0  0
  -32.0766  -16.6444   22.4478 C   0  0  0  0  0  0  0  0  0  0  0  0
  -22.3269   -8.7223   20.2769 C   0  0  0  0  0  0  0  0  0  0  0  0
  -23.0715   -8.7992   22.5740 C   0  0  0  0  0  0  0  0  0  0  0  0
  -30.3548  -25.5305   24.3267 C   0  0  0  0  0  0  0  0  0  0  0  0
  -19.8357   -8.0355   23.1797 C   0  0  0  0  0  0  0  0  0  0  0  0
  -19.0708   -8.0364   24.3461 C   0  0  0  0  0  0  0  0  0  0  0  0
  -29.8955  -17.5133   23.0030 C   0  0  0  0  0  0  0  0  0  0  0  0
  -30.4695  -23.4371   23.1335 C   0  0  0  0  0  0  0  0  0  0  0  0
  -20.2982   -6.1179   25.1525 C   0  0  0  0  0  0  0  0  0  0  0  0
  -23.8257  -10.4726   21.0030 C   0  0  0  0  0  0  0  0  0  0  0  0
  -30.4894  -18.4218   23.8870 C   0  0  0  0  0  0  0  0  0  0  0  0
  -24.1801  -12.9911   20.8048 C   0  0  0  0  0  0  0  0  0  0  0  0
  -32.2244  -27.6461   14.9714 C   0  0  0  0  0  0  0  0  0  0  0  0
  -31.8211  -25.3083   22.4043 C   0  0  0  0  0  0  0  0  0  0  0  0
  -31.7287  -27.7480   16.2852 C   0  0  0  0  0  0  0  0  0  0  0  0
  -31.4174  -23.9745   22.2493 C   0  0  0  0  0  0  0  0  0  0  0  0
  -31.8839  -18.4702   24.0475 C   0  0  0  0  0  0  0  0  0  0  0  0
  -30.6940  -16.6281   22.2817 C   0  0  0  0  0  0  0  0  0  0  0  0
  -22.3237   -8.1901   21.5662 C   0  0  0  0  0  0  0  0  0  0  0  0
  -29.9401  -24.2118   24.1654 C   0  0  0  0  0  0  0  0  0  0  0  0
  -20.8319   -7.0757   22.9996 C   0  0  0  0  0  0  0  0  0  0  0  0
  -19.3021   -7.0776   25.3325 C   0  0  0  0  0  0  0  0  0  0  0  0
  -21.0631   -6.1170   23.9860 C   0  0  0  0  0  0  0  0  0  0  0  0
  -24.6020  -11.6512   20.7126 C   0  0  0  0  0  0  0  0  0  0  0  0
  -25.2781  -13.7237   20.4252 C   0  0  0  0  0  0  0  0  0  0  0  0
  -29.6351  -19.3218   24.7033 C   0  0  0  0  0  0  0  0  0  0  0  0
  -22.9093  -13.5257   21.1984 C   0  0  0  0  0  0  0  0  0  0  0  0
  -31.7900  -25.5209   19.2330 C   0  0  0  0  0  0  0  0  0  0  0  0
  -33.8109  -22.9914   19.4327 C   0  0  0  0  0  0  0  0  0  0  0  0
  -29.4445  -21.8762   27.3102 C   0  0  0  0  0  0  0  0  0  0  0  0
  -34.9408  -20.3209   21.2322 C   0  0  0  0  0  0  0  0  0  0  0  0
  -30.7478  -14.7499   20.6036 C   0  0  0  0  0  0  0  0  0  0  0  0
  -32.1958  -26.3436   14.2114 C   0  0  0  0  0  0  0  0  0  0  0  0
  -32.8536  -25.9032   21.4865 C   0  0  0  0  0  0  0  0  0  0  0  0
  -31.9677  -23.1018   21.1520 C   0  0  0  0  0  0  0  0  0  0  0  0
  -32.0119  -25.1204   15.1060 C   0  0  0  0  0  0  0  0  0  0  0  0
  -29.6380  -12.2667   18.3061 C   0  0  0  0  0  0  0  0  0  0  0  0
  -30.8896  -25.3581   16.1113 C   0  0  0  0  0  0  0  0  0  0  0  0
  -28.1941  -11.9954   18.7349 C   0  0  0  0  0  0  0  0  0  0  0  0
  -30.5461  -12.5297   19.5060 C   0  0  0  0  0  0  0  0  0  0  0  0
  -31.7425  -20.5333   25.3449 C   0  0  0  0  0  0  0  0  0  0  0  0
  -28.6334  -13.3064   20.8504 C   0  0  0  0  0  0  0  0  0  0  0  0
  -31.2172  -26.5373   17.0353 C   0  0  1  0  0  0  0  0  0  0  0  0
  -30.3399  -20.1327   25.7792 C   0  0  1  0  0  0  0  0  0  0  0  0
  -32.9399  -25.1888   20.1413 C   0  0  1  0  0  0  0  0  0  0  0  0
  -27.6676  -13.0999   19.6722 C   0  0  2  0  0  0  0  0  0  0  0  0
  -36.5716  -18.4169   21.1185 C   0  0  0  0  0  0  0  0  0  0  0  0
  -31.9440  -21.5094   17.5279 C   0  0  0  0  0  0  0  0  0  0  0  0
  -33.0700  -19.3753   18.1959 C   0  0  0  0  0  0  0  0  0  0  0  0
  -34.3800  -21.1756   17.0710 C   0  0  0  0  0  0  0  0  0  0  0  0
  -36.4179  -21.2918   23.6059 C   0  0  0  0  0  0  0  0  0  0  0  0
  -28.5285  -23.0900   27.2972 C   0  0  0  0  0  0  0  0  0  0  0  0
  -29.0031  -24.1821   26.3510 C   0  0  0  0  0  0  0  0  0  1  0  0
  -33.6456  -21.4913   19.4696 C   0  0  1  0  0  0  0  0  0  0  0  0
  -36.3459  -19.8528   21.5656 C   0  0  2  0  0  0  0  0  0  0  0  0
  -33.2479  -20.9047   18.0857 C   0  0  0  0  0  0  0  0  0  0  0  0
  -25.8691  -11.5364   20.3062 N   0  0  0  0  0  0  0  0  0  0  0  0
  -26.2529  -12.8135   20.1396 N   0  0  0  0  0  0  0  0  0  0  0  0
  -32.4921  -19.3726   24.9104 N   0  0  0  0  0  0  0  0  0  0  0  0
  -32.9701  -23.7311   20.2764 N   0  0  0  0  0  0  0  0  0  0  0  0
  -29.9861  -13.5905   20.3462 N   0  0  0  0  0  0  0  0  0  0  0  0
  -25.4952  -15.0512   20.3111 N   0  0  0  0  0  0  0  0  0  0  0  0
  -21.8909  -12.6323   21.5576 N   0  0  0  0  0  0  0  0  0  0  0  0
  -30.0994  -15.7035   21.3876 N   0  0  0  0  0  0  0  0  0  0  0  0
  -32.1643  -26.1342   18.0526 N   0  0  0  0  0  0  0  0  0  0  0  0
  -29.5387  -21.2972   26.0529 N   0  0  0  0  0  0  0  0  0  0  0  0
  -34.8909  -20.9566   20.0097 N   0  0  0  0  0  0  0  0  0  0  0  0
  -36.5827  -19.9303   23.0349 N   0  3  0  0  0  0  0  0  0  0  0  0
  -28.4177  -19.3239   24.5517 O   0  0  0  0  0  0  0  0  0  0  0  0
  -22.6784  -14.7585   21.2148 O   0  0  0  0  0  0  0  0  0  0  0  0
  -30.6478  -25.2401   19.5769 O   0  0  0  0  0  0  0  0  0  0  0  0
  -34.6597  -23.4881   18.6881 O   0  0  0  0  0  0  0  0  0  0  0  0
  -30.0187  -21.4765   28.3194 O   0  0  0  0  0  0  0  0  0  0  0  0
  -33.9827  -20.1374   21.9797 O   0  0  0  0  0  0  0  0  0  0  0  0
  -31.8808  -14.8986   20.1385 O   0  0  0  0  0  0  0  0  0  0  0  0
  -21.5909   -7.0767   21.8414 O   0  0  0  0  0  0  0  0  0  0  0  0
  -29.0228  -23.6770   25.0165 O   0  0  0  0  0  0  0  0  0  1  0  0
  -18.5685   -7.0795   26.4532 F   0  0  0  0  0  0  0  0  0  0  0  0
  -22.0195   -5.1932   23.8192 F   0  0  0  0  0  0  0  0  0  0  0  0
  1  2  1  0  0  0  0
  1  5  2  0  0  0  0
  2  6  2  0  0  0  0
  3 10  2  0  0  0  0
  3 18  1  0  0  0  0
  4 11  1  0  0  0  0
  4 18  2  0  0  0  0
  5 21  1  0  0  0  0
  6 23  1  0  0  0  0
  7 12  2  0  0  0  0
  7 22  1  0  0  0  0
  8  9  2  0  0  0  0
  8 25  1  0  0  0  0
  9 26  1  0  0  0  0
 10 27  1  0  0  0  0
 11 27  2  0  0  0  0
 12 28  1  0  0  0  0
 13 14  2  0  0  0  0
 13 29  1  0  0  0  0
 14 30  1  0  0  0  0
 15 19  1  0  0  0  0
 15 26  2  0  0  0  0
 16 24  1  0  0  0  0
 16 28  2  0  0  0  0
 17 30  2  0  0  0  0
 17 31  1  0  0  0  0
 18 32  1  0  0  0  0
 19 25  2  0  0  0  0
 19 34  1  0  0  0  0
 20 32  1  0  0  0  0
 20 33  2  0  0  0  0
 20 35  1  0  0  0  0
 21 23  2  0  0  0  0
 21 41  1  0  0  0  0
 22 24  2  0  0  0  0
 22 42  1  0  0  0  0
 23 51  1  0  0  0  0
 24 43  1  0  0  0  0
 25 67  1  0  0  0  0
 26 72  1  0  0  0  0
 27 84  1  0  0  0  0
 28 85  1  0  0  0  0
 29 31  2  0  0  0  0
 29 84  1  0  0  0  0
 30 86  1  0  0  0  0
 31 87  1  0  0  0  0
 32 65  2  0  0  0  0
 33 66  1  0  0  0  0
 33 70  1  0  0  0  0
 34 52  1  0  0  0  0
 34 77  2  0  0  0  0
 35 71  1  0  0  0  0
 35 78  2  0  0  0  0
 36 53  1  0  0  0  0
 36 73  1  0  0  0  0
 36 79  2  0  0  0  0
 37 62  1  0  0  0  0
 37 68  1  0  0  0  0
 37 80  2  0  0  0  0
 38 60  1  0  0  0  0
 38 74  1  0  0  0  0
 38 81  2  0  0  0  0
 39 63  1  0  0  0  0
 39 75  1  0  0  0  0
 39 82  2  0  0  0  0
 40 69  1  0  0  0  0
 40 72  1  0  0  0  0
 40 83  2  0  0  0  0
 41 44  1  0  0  0  0
 42 53  1  0  0  0  0
 43 68  1  0  0  0  0
 44 46  1  0  0  0  0
 45 47  1  0  0  0  0
 45 48  1  0  0  0  0
 46 51  1  0  0  0  0
 47 54  1  0  0  0  0
 48 69  1  0  0  0  0
 49 52  1  0  0  0  0
 49 67  1  0  0  0  0
 50 54  1  0  0  0  0
 50 69  1  0  0  0  0
 51 73  1  0  0  0  0
 52 74  1  0  0  0  0
 53 68  1  0  0  0  0
 54 66  1  0  0  0  0
 55 63  1  0  0  0  0
 56 64  1  0  0  0  0
 57 64  1  0  0  0  0
 58 64  1  0  0  0  0
 59 76  1  0  0  0  0
 60 61  1  0  0  0  0
 61 85  1  0  0  0  0
 62 64  1  0  0  0  0
 62 75  1  0  0  0  0
 63 76  1  0  0  0  0
 65 66  1  0  0  0  0
M  CHG  1  76   1
M  ISO  4  40 100  61 101  72 100  85 101
M  END
> <Batch ID>
0005

> <Smiles>
CNC(C)C(=O)NC(C(=O)N1Cc2cc([101O:1][101CH2:1]CC(=O)NC3CNc4ccc([100NH:0][100C:0](=O)N5CCCC(n6nc(-c7ccc(Oc8ccc(F)cc8F)cc7)c(C(N)=O)c6N)C5)cc4C3=O)ccc2CC1C(=O)NC1CCCc2ccccc21)C(C)(C)C

> <Shape>
0.185

> <Color>
0.202

> <Negative vol penalty>
0.000

$$$$

  -OEChem-04042320263D

103114  0     1  0  0  0  0  0999 V2000
  -25.2357  -29.9787   29.3069 C   0  0  0  0  0  0  0  0  0  0  0  0
  -26.2882  -29.6932   30.1708 C   0  0  0  0  0  0  0  0  0  0  0  0
  -23.7530  -19.2183   23.5853 C   0  0  0  0  0  0  0  0  0  0  0  0
  -23.6403  -17.8474   23.3539 C   0  0  0  0  0  0  0  0  0  0  0  0
  -22.6704  -10.1822   20.1931 C   0  0  0  0  0  0  0  0  0  0  0  0
  -24.3073   -9.4564   21.8151 C   0  0  0  0  0  0  0  0  0  0  0  0
  -24.0502  -29.2496   29.3895 C   0  0  0  0  0  0  0  0  0  0  0  0
  -26.1552  -28.6790   31.1185 C   0  0  0  0  0  0  0  0  0  0  0  0
  -30.6846  -23.0784   31.2166 C   0  0  0  0  0  0  0  0  0  0  0  0
  -24.6750  -19.6948   24.5173 C   0  0  0  0  0  0  0  0  0  0  0  0
  -29.3388  -18.8074   22.4849 C   0  0  0  0  0  0  0  0  0  0  0  0
  -28.5615  -19.5514   23.3725 C   0  0  0  0  0  0  0  0  0  0  0  0
  -21.9379   -9.0153   20.4102 C   0  0  0  0  0  0  0  0  0  0  0  0
  -23.5747   -8.2894   22.0322 C   0  0  0  0  0  0  0  0  0  0  0  0
  -31.6377  -22.0829   31.4329 C   0  0  0  0  0  0  0  0  0  0  0  0
  -20.8110   -7.3677   23.7449 C   0  0  0  0  0  0  0  0  0  0  0  0
  -24.4494  -16.9530   24.0547 C   0  0  0  0  0  0  0  0  0  0  0  0
  -20.6128   -6.9651   25.0655 C   0  0  0  0  0  0  0  0  0  0  0  0
  -30.3079  -21.1882   33.2438 C   0  0  0  0  0  0  0  0  0  0  0  0
  -29.8471  -17.2354   24.2477 C   0  0  0  0  0  0  0  0  0  0  0  0
  -21.7495   -4.8843   24.6017 C   0  0  0  0  0  0  0  0  0  0  0  0
  -23.8552  -10.4028   20.8955 C   0  0  0  0  0  0  0  0  0  0  0  0
  -24.1794  -12.9329   20.8662 C   0  0  0  0  0  0  0  0  0  0  0  0
  -23.9062  -28.2195   30.3322 C   0  0  0  0  0  0  0  0  0  0  0  0
  -29.5307  -23.1233   32.0040 C   0  0  0  0  0  0  0  0  0  0  0  0
  -24.9662  -27.9363   31.2146 C   0  0  0  0  0  0  0  0  0  0  0  0
  -29.3438  -22.1755   33.0236 C   0  0  0  0  0  0  0  0  0  0  0  0
  -29.9816  -17.6493   22.9225 C   0  0  0  0  0  0  0  0  0  0  0  0
  -25.4840  -18.8004   25.2181 C   0  0  0  0  0  0  0  0  0  0  0  0
  -29.0698  -17.9794   25.1354 C   0  0  0  0  0  0  0  0  0  0  0  0
  -28.4270  -19.1374   24.6977 C   0  0  0  0  0  0  0  0  0  0  0  0
  -22.3899   -8.0689   21.3297 C   0  0  0  0  0  0  0  0  0  0  0  0
  -31.4499  -21.1403   32.4441 C   0  0  0  0  0  0  0  0  0  0  0  0
  -21.4785   -6.5286   22.8526 C   0  0  0  0  0  0  0  0  0  0  0  0
  -21.0820   -5.7234   25.4940 C   0  0  0  0  0  0  0  0  0  0  0  0
  -25.3713  -17.4295   24.9868 C   0  0  0  0  0  0  0  0  0  0  0  0
  -21.9477   -5.2869   23.2811 C   0  0  0  0  0  0  0  0  0  0  0  0
  -24.6127  -11.6078   20.6713 C   0  0  0  0  0  0  0  0  0  0  0  0
  -25.2610  -13.7030   20.5148 C   0  0  0  0  0  0  0  0  0  0  0  0
  -22.9125  -13.4238   21.3241 C   0  0  0  0  0  0  0  0  0  0  0  0
  -26.2768  -24.8383   32.7435 C   0  0  0  0  0  0  0  0  0  0  0  0
  -25.7681  -21.8222   32.9788 C   0  0  0  0  0  0  0  0  0  0  0  0
  -25.5243  -18.4291   32.7250 C   0  0  0  0  0  0  0  0  0  0  0  0
  -30.7406  -14.7516   20.6566 C   0  0  0  0  0  0  0  0  0  0  0  0
  -22.5886  -27.4904   30.4153 C   0  0  0  0  0  0  0  0  0  0  0  0
  -28.5070  -24.2147   31.8469 C   0  0  0  0  0  0  0  0  0  0  0  0
  -28.1039  -22.2835   33.8686 C   0  0  0  0  0  0  0  0  0  0  0  0
  -22.6647  -26.1819   31.1979 C   0  0  0  0  0  0  0  0  0  0  0  0
  -27.4174  -23.8563   27.2266 C   0  0  0  0  0  0  0  0  0  0  0  0
  -27.1027  -23.6709   25.7449 C   0  0  0  0  0  0  0  0  0  0  0  0
  -28.5566  -22.9470   27.6785 C   0  0  0  0  0  0  0  0  0  0  0  0
  -29.5804  -12.4515   18.1989 C   0  0  0  0  0  0  0  0  0  0  0  0
  -23.4250  -26.3850   32.5046 C   0  0  0  0  0  0  0  0  0  0  0  0
  -28.1518  -12.1318   18.6426 C   0  0  0  0  0  0  0  0  0  0  0  0
  -26.8202  -22.2079   25.4075 C   0  0  0  0  0  0  0  0  0  0  0  0
  -28.2753  -21.4831   27.3439 C   0  0  0  0  0  0  0  0  0  0  0  0
  -31.8840  -18.6188   28.4521 C   0  0  0  0  0  0  0  0  0  0  0  0
  -30.5149  -12.6329   19.3930 C   0  0  0  0  0  0  0  0  0  0  0  0
  -30.9194  -18.7308   27.2707 C   0  0  0  0  0  0  0  0  0  0  0  0
  -28.6307  -13.2979   20.8357 C   0  0  0  0  0  0  0  0  0  0  0  0
  -30.1240  -16.9911   28.6140 C   0  0  0  0  0  0  0  0  0  0  0  0
  -24.8692  -26.8271   32.2396 C   0  0  1  0  0  0  0  0  0  0  0  0
  -27.0679  -23.7341   32.1060 C   0  0  1  0  0  0  0  0  0  0  0  0
  -27.6393  -13.1615   19.6675 C   0  0  2  0  0  0  0  0  0  0  0  0
  -27.9718  -21.2998   25.8528 C   0  0  0  0  0  0  0  0  0  0  0  0
  -31.5239  -17.2943   29.1096 C   0  0  2  0  0  0  0  0  0  0  0  0
  -23.8790  -16.5492   32.9626 C   0  0  0  0  0  0  0  0  0  0  0  0
  -25.9522  -22.0497   36.0149 C   0  0  0  0  0  0  0  0  0  0  0  0
  -25.1322  -19.6893   36.1705 C   0  0  0  0  0  0  0  0  0  0  0  0
  -23.6850  -21.4458   35.1492 C   0  0  0  0  0  0  0  0  0  0  0  0
  -25.8522  -17.6301   29.8943 C   0  0  0  0  0  0  0  0  0  0  0  0
  -28.9423  -17.5108   26.5560 C   0  0  0  0  0  0  0  0  0  0  0  0
  -30.8125  -16.8541   21.9731 C   0  0  0  0  0  0  0  0  0  0  0  0
  -26.4753  -19.3172   26.2204 C   0  0  0  0  0  0  0  0  0  0  0  0
  -32.8331  -17.8126   32.6551 C   0  0  0  0  0  0  0  0  0  0  0  0
  -32.8964  -17.7145   31.1383 C   0  0  0  0  0  0  0  0  0  0  0  0
  -31.9172  -18.9207   33.1601 C   0  0  0  0  0  0  0  0  0  1  0  0
  -25.7090  -20.6161   33.8815 C   0  0  1  0  0  0  0  0  0  0  0  0
  -24.5233  -17.5418   32.0073 C   0  0  2  0  0  0  0  0  0  0  0  0
  -25.1429  -20.9565   35.2891 C   0  0  0  0  0  0  0  0  0  0  0  0
  -25.8714  -11.5365   20.2301 N   0  0  0  0  0  0  0  0  0  0  0  0
  -26.2382  -12.8265   20.1448 N   0  0  0  0  0  0  0  0  0  0  0  0
  -26.9414  -22.5852   33.0187 N   0  0  0  0  0  0  0  0  0  0  0  0
  -29.9720  -13.6233   20.3258 N   0  0  0  0  0  0  0  0  0  0  0  0
  -30.2335  -17.4354   27.2224 N   0  0  1  0  0  0  0  0  0  0  0  0
  -25.4619  -15.0377   20.4891 N   0  0  0  0  0  0  0  0  0  0  0  0
  -21.9117  -12.4957   21.6422 N   0  0  0  0  0  0  0  0  0  0  0  0
  -25.6789  -25.6960   31.8401 N   0  0  0  0  0  0  0  0  0  0  0  0
  -24.9464  -19.6031   33.1598 N   0  0  0  0  0  0  0  0  0  0  0  0
  -30.1490  -15.6437   21.5425 N   0  0  0  0  0  0  0  0  0  0  0  0
  -27.6361  -19.9032   25.5822 N   0  0  3  0  0  0  0  0  0  0  0  0
  -31.5615  -17.3958   30.5798 N   0  3  0  0  0  0  0  0  0  0  0  0
  -25.1956  -16.7777   30.9186 N   0  3  0  0  0  0  0  0  0  0  0  0
  -22.6695  -14.6497   21.4318 O   0  0  0  0  0  0  0  0  0  0  0  0
  -26.2116  -24.9071   33.9653 O   0  0  0  0  0  0  0  0  0  0  0  0
  -24.7995  -22.0864   32.2608 O   0  0  0  0  0  0  0  0  0  0  0  0
  -26.7003  -18.1109   32.8871 O   0  0  0  0  0  0  0  0  0  0  0  0
  -31.8681  -14.9518   20.1924 O   0  0  0  0  0  0  0  0  0  0  0  0
  -21.6752   -6.9302   21.5420 O   0  0  0  0  0  0  0  0  0  0  0  0
  -32.3821  -20.1684   32.6469 O   0  0  0  0  0  0  0  0  0  1  0  0
  -20.8929   -5.3375   26.7626 F   0  0  0  0  0  0  0  0  0  0  0  0
  -26.1445  -16.5624   25.6551 F   0  0  0  0  0  0  0  0  0  0  0  0
  -22.5907   -4.4770   22.4288 F   0  0  0  0  0  0  0  0  0  0  0  0
  1  2  1  0  0  0  0
  1  7  2  0  0  0  0
  2  8  2  0  0  0  0
  3  4  1  0  0  0  0
  3 10  2  0  0  0  0
  4 17  2  0  0  0  0
  5 13  2  0  0  0  0
  5 22  1  0  0  0  0
  6 14  1  0  0  0  0
  6 22  2  0  0  0  0
  7 24  1  0  0  0  0
  8 26  1  0  0  0  0
  9 15  2  0  0  0  0
  9 25  1  0  0  0  0
 10 29  1  0  0  0  0
 11 12  2  0  0  0  0
 11 28  1  0  0  0  0
 12 31  1  0  0  0  0
 13 32  1  0  0  0  0
 14 32  2  0  0  0  0
 15 33  1  0  0  0  0
 16 18  2  0  0  0  0
 16 34  1  0  0  0  0
 17 36  1  0  0  0  0
 18 35  1  0  0  0  0
 19 27  1  0  0  0  0
 19 33  2  0  0  0  0
 20 28  2  0  0  0  0
 20 30  1  0  0  0  0
 21 35  2  0  0  0  0
 21 37  1  0  0  0  0
 22 38  1  0  0  0  0
 23 38  1  0  0  0  0
 23 39  2  0  0  0  0
 23 40  1  0  0  0  0
 24 26  2  0  0  0  0
 24 45  1  0  0  0  0
 25 27  2  0  0  0  0
 25 46  1  0  0  0  0
 26 62  1  0  0  0  0
 27 47  1  0  0  0  0
 28 73  1  0  0  0  0
 29 36  2  0  0  0  0
 29 74  1  0  0  0  0
 30 31  2  0  0  0  0
 30 72  1  0  0  0  0
 31 91  1  0  0  0  0
 32 99  1  0  0  0  0
 33100  1  0  0  0  0
 34 37  2  0  0  0  0
 34 99  1  0  0  0  0
 35101  1  0  0  0  0
 36102  1  0  0  0  0
 37103  1  0  0  0  0
 38 81  2  0  0  0  0
 39 82  1  0  0  0  0
 39 86  1  0  0  0  0
 40 87  1  0  0  0  0
 40 94  2  0  0  0  0
 41 63  1  0  0  0  0
 41 88  1  0  0  0  0
 41 95  2  0  0  0  0
 42 78  1  0  0  0  0
 42 83  1  0  0  0  0
 42 96  2  0  0  0  0
 43 79  1  0  0  0  0
 43 89  1  0  0  0  0
 43 97  2  0  0  0  0
 44 84  1  0  0  0  0
 44 90  1  0  0  0  0
 44 98  2  0  0  0  0
 45 48  1  0  0  0  0
 46 63  1  0  0  0  0
 47 83  1  0  0  0  0
 48 53  1  0  0  0  0
 49 50  1  0  0  0  0
 49 51  1  0  0  0  0
 50 55  1  0  0  0  0
 51 56  1  0  0  0  0
 52 54  1  0  0  0  0
 52 58  1  0  0  0  0
 53 62  1  0  0  0  0
 54 64  1  0  0  0  0
 55 65  1  0  0  0  0
 56 65  1  0  0  0  0
 57 59  1  0  0  0  0
 57 66  1  0  0  0  0
 58 84  1  0  0  0  0
 59 85  1  0  0  0  0
 60 64  1  0  0  0  0
 60 84  1  0  0  0  0
 61 66  1  0  0  0  0
 61 85  1  0  0  0  0
 62 88  1  0  0  0  0
 63 83  1  0  0  0  0
 64 82  1  0  0  0  0
 65 91  1  0  0  0  0
 66 92  1  0  0  0  0
 67 79  1  0  0  0  0
 68 80  1  0  0  0  0
 69 80  1  0  0  0  0
 70 80  1  0  0  0  0
 71 93  1  0  0  0  0
 72 85  1  0  0  0  0
 73 90  1  0  0  0  0
 74 91  1  0  0  0  0
 75 76  1  0  0  0  0
 75 77  1  0  0  0  0
 76 92  1  0  0  0  0
 77100  1  0  0  0  0
 78 80  1  0  0  0  0
 78 89  1  0  0  0  0
 79 93  1  0  0  0  0
 81 82  1  0  0  0  0
M  CHG  2  92   1  93   1
M  ISO  4  44 100  77 101  90 100 100 101
M  END
> <Batch ID>
0005

> <Smiles>
CNC(C)C(=O)NC(C(=O)N1Cc2cc([101O:1][101CH2:1]CCNC3CCN(Cc4cc(C[100NH:0][100C:0](=O)N5CCCC(n6nc(-c7ccc(Oc8ccc(F)cc8F)cc7)c(C(N)=O)c6N)C5)ccc4N(Cc4ccccc4F)C4CCCCC4)C3)ccc2CC1C(=O)NC1CCCc2ccccc21)C(C)(C)C

> <Shape>
0.171

> <Color>
0.181

> <Negative vol penalty>
0.000

$$$$

  -OEChem-04042320263D

 88 97  0     1  0  0  0  0  0999 V2000
  -20.1181  -18.4570   21.0326 C   0  0  0  0  0  0  0  0  0  0  0  0
  -21.4030  -18.9864   21.0966 C   0  0  0  0  0  0  0  0  0  0  0  0
  -21.2007  -26.6263   22.1765 C   0  0  0  0  0  0  0  0  0  0  0  0
  -19.9918  -28.6915   22.5093 C   0  0  0  0  0  0  0  0  0  0  0  0
  -19.8778  -17.1577   21.4773 C   0  0  0  0  0  0  0  0  0  0  0  0
  -22.4483  -18.2170   21.6064 C   0  0  0  0  0  0  0  0  0  0  0  0
  -28.4260  -33.5247   21.2543 C   0  0  0  0  0  0  0  0  0  0  0  0
  -26.6366  -18.5100   18.7749 C   0  0  0  0  0  0  0  0  0  0  0  0
  -29.0361  -32.2825   21.4061 C   0  0  0  0  0  0  0  0  0  0  0  0
  -19.9988  -25.9189   22.2003 C   0  0  0  0  0  0  0  0  0  0  0  0
  -18.7899  -27.9841   22.5331 C   0  0  0  0  0  0  0  0  0  0  0  0
  -27.4206  -19.6544   18.9143 C   0  0  0  0  0  0  0  0  0  0  0  0
  -17.4388  -25.2856   20.0841 C   0  0  0  0  0  0  0  0  0  0  0  0
  -17.2425  -24.3080   19.1087 C   0  0  0  0  0  0  0  0  0  0  0  0
  -28.9259  -18.4403   20.3563 C   0  0  0  0  0  0  0  0  0  0  0  0
  -28.1330  -32.1254   23.6399 C   0  0  0  0  0  0  0  0  0  0  0  0
  -17.0208  -22.6312   20.8339 C   0  0  0  0  0  0  0  0  0  0  0  0
  -21.1972  -28.0126   22.3310 C   0  0  0  0  0  0  0  0  0  0  0  0
  -23.0766  -29.2990   21.1817 C   0  0  0  0  0  0  0  0  0  0  0  0
  -20.9225  -16.3685   21.9838 C   0  0  0  0  0  0  0  0  0  0  0  0
  -26.9860  -17.3232   19.4351 C   0  0  0  0  0  0  0  0  0  0  0  0
  -22.2215  -16.9063   22.0595 C   0  0  0  0  0  0  0  0  0  0  0  0
  -27.6495  -34.0746   22.2880 C   0  0  0  0  0  0  0  0  0  0  0  0
  -28.1460  -17.2815   20.2216 C   0  0  0  0  0  0  0  0  0  0  0  0
  -28.8948  -31.5870   22.6007 C   0  0  0  0  0  0  0  0  0  0  0  0
  -27.4818  -33.3615   23.4942 C   0  0  0  0  0  0  0  0  0  0  0  0
  -18.7934  -26.5978   22.3786 C   0  0  0  0  0  0  0  0  0  0  0  0
  -28.5639  -19.6205   19.7074 C   0  0  0  0  0  0  0  0  0  0  0  0
  -17.4261  -24.9360   21.4344 C   0  0  0  0  0  0  0  0  0  0  0  0
  -17.0335  -22.9808   19.4836 C   0  0  0  0  0  0  0  0  0  0  0  0
  -17.2171  -23.6088   21.8093 C   0  0  0  0  0  0  0  0  0  0  0  0
  -22.4385  -28.7439   22.3071 C   0  0  0  0  0  0  0  0  0  0  0  0
  -24.2128  -29.8840   21.6849 C   0  0  0  0  0  0  0  0  0  0  0  0
  -22.6778  -29.2870   19.8045 C   0  0  0  0  0  0  0  0  0  0  0  0
  -25.6122  -15.4978   21.6451 C   0  0  0  0  0  0  0  0  0  0  0  0
  -28.1309  -13.5453   21.0396 C   0  0  0  0  0  0  0  0  0  0  0  0
  -31.3297  -13.2125   19.8979 C   0  0  0  0  0  0  0  0  0  0  0  0
  -26.3518  -33.2484   25.7360 C   0  0  0  0  0  0  0  0  0  0  0  0
  -20.6051  -14.9861   22.4964 C   0  0  0  0  0  0  0  0  0  0  0  0
  -26.1444  -16.0899   19.2530 C   0  0  0  0  0  0  0  0  0  0  0  0
  -27.0671  -35.4508   22.0849 C   0  0  0  0  0  0  0  0  0  0  0  0
  -28.5758  -16.0266   20.9350 C   0  0  0  0  0  0  0  0  0  0  0  0
  -21.8386  -14.1047   22.6752 C   0  0  0  0  0  0  0  0  0  0  0  0
  -25.9889  -35.7823   23.1055 C   0  0  0  0  0  0  0  0  0  0  0  0
  -26.3838  -29.5768   26.2281 C   0  0  0  0  0  0  0  0  0  0  0  0
  -22.9429  -14.8717   23.3957 C   0  0  0  0  0  0  0  0  0  0  0  0
  -25.3466  -29.0921   25.2173 C   0  0  0  0  0  0  0  0  0  0  0  0
  -26.4395  -35.3666   24.4949 C   0  0  0  0  0  0  0  0  0  0  0  0
  -26.0842  -30.9924   26.7115 C   0  0  0  0  0  0  0  0  0  0  0  0
  -24.9156  -31.5001   24.5847 C   0  0  0  0  0  0  0  0  0  0  0  0
  -23.3862  -16.0942   22.5830 C   0  0  1  0  0  0  0  0  0  0  0  0
  -26.3128  -15.0794   20.3834 C   0  0  1  0  0  0  0  0  0  0  0  0
  -25.2156  -30.0897   24.0550 C   0  0  2  0  0  0  0  0  0  0  0  0
  -33.1331  -11.5001   19.5614 C   0  0  0  0  0  0  0  0  0  0  0  0
  -28.7090  -13.5690   24.0355 C   0  0  0  0  0  0  0  0  0  0  0  0
  -30.9907  -12.6702   23.5317 C   0  0  0  0  0  0  0  0  0  0  0  0
  -28.9679  -11.3354   22.9408 C   0  0  0  0  0  0  0  0  0  0  0  0
  -31.3805  -13.6709   16.9745 C   0  0  0  0  0  0  0  0  0  0  0  0
  -29.5650  -30.2659   22.7772 C   0  0  0  0  0  0  0  0  0  0  0  0
  -29.5001  -25.4010   21.4243 C   0  0  0  0  0  0  0  0  0  0  0  0
  -28.7388  -24.3822   20.5730 C   0  0  0  0  0  0  0  0  0  0  0  0
  -28.8202  -26.7727   21.3868 C   0  0  0  0  0  0  0  0  0  0  0  0
  -29.3959  -23.0049   20.6347 C   0  0  0  0  0  0  0  0  0  0  0  0
  -29.5788  -27.8464   22.1572 C   0  0  0  0  0  0  0  0  0  0  0  0
  -28.6692  -21.9959   19.7568 C   0  0  0  0  0  0  0  0  0  1  0  0
  -29.5280  -13.3998   21.5929 C   0  0  1  0  0  0  0  0  0  0  0  0
  -31.9558  -12.2258   18.9288 C   0  0  2  0  0  0  0  0  0  0  0  0
  -29.5400  -12.7679   23.0135 C   0  0  0  0  0  0  0  0  0  0  0  0
  -23.1134  -28.9570   23.4398 N   0  0  0  0  0  0  0  0  0  0  0  0
  -24.1874  -29.6524   23.0287 N   0  0  0  0  0  0  0  0  0  0  0  0
  -26.6907  -33.9264   24.5541 N   0  0  0  0  0  0  0  0  0  0  0  0
  -27.7165  -14.8487   20.7308 N   0  0  0  0  0  0  0  0  0  0  0  0
  -25.8994  -31.9213   25.5957 N   0  0  0  0  0  0  0  0  0  0  0  0
  -25.2212  -30.5686   21.1045 N   0  0  0  0  0  0  0  0  0  0  0  0
  -21.4821  -28.6416   19.4608 N   0  0  0  0  0  0  0  0  0  0  0  0
  -24.2522  -15.6913   21.4958 N   0  0  0  0  0  0  0  0  0  0  0  0
  -30.2847  -12.6476   20.5979 N   0  0  0  0  0  0  0  0  0  0  0  0
  -32.4399  -12.9333   17.7098 N   0  3  0  0  0  0  0  0  0  0  0  0
  -28.8937  -29.1600   22.0402 N   0  3  0  0  0  0  0  0  0  0  0  0
  -23.3698  -29.8182   18.9032 O   0  0  0  0  0  0  0  0  0  0  0  0
  -26.2576  -15.6334   22.6780 O   0  0  0  0  0  0  0  0  0  0  0  0
  -27.4356  -12.5389   20.8805 O   0  0  0  0  0  0  0  0  0  0  0  0
  -31.7302  -14.3675   20.0241 O   0  0  0  0  0  0  0  0  0  0  0  0
  -26.3867  -33.8186   26.8334 O   0  0  0  0  0  0  0  0  0  0  0  0
  -17.6203  -25.9078   22.4016 O   0  0  0  0  0  0  0  0  0  0  0  0
  -29.3362  -20.7445   19.8467 O   0  0  0  0  0  0  0  0  0  1  0  0
  -16.8435  -22.0424   18.5469 F   0  0  0  0  0  0  0  0  0  0  0  0
  -17.2027  -23.2671   23.1050 F   0  0  0  0  0  0  0  0  0  0  0  0
  1  2  1  0  0  0  0
  1  5  2  0  0  0  0
  2  6  2  0  0  0  0
  3 10  2  0  0  0  0
  3 18  1  0  0  0  0
  4 11  1  0  0  0  0
  4 18  2  0  0  0  0
  5 20  1  0  0  0  0
  6 22  1  0  0  0  0
  7  9  2  0  0  0  0
  7 23  1  0  0  0  0
  8 12  2  0  0  0  0
  8 21  1  0  0  0  0
  9 25  1  0  0  0  0
 10 27  1  0  0  0  0
 11 27  2  0  0  0  0
 12 28  1  0  0  0  0
 13 14  2  0  0  0  0
 13 29  1  0  0  0  0
 14 30  1  0  0  0  0
 15 24  1  0  0  0  0
 15 28  2  0  0  0  0
 16 25  2  0  0  0  0
 16 26  1  0  0  0  0
 17 30  2  0  0  0  0
 17 31  1  0  0  0  0
 18 32  1  0  0  0  0
 19 32  1  0  0  0  0
 19 33  2  0  0  0  0
 19 34  1  0  0  0  0
 20 22  2  0  0  0  0
 20 39  1  0  0  0  0
 21 24  2  0  0  0  0
 21 40  1  0  0  0  0
 22 51  1  0  0  0  0
 23 26  2  0  0  0  0
 23 41  1  0  0  0  0
 24 42  1  0  0  0  0
 25 59  1  0  0  0  0
 26 71  1  0  0  0  0
 27 85  1  0  0  0  0
 28 86  1  0  0  0  0
 29 31  2  0  0  0  0
 29 85  1  0  0  0  0
 30 87  1  0  0  0  0
 31 88  1  0  0  0  0
 32 69  2  0  0  0  0
 33 70  1  0  0  0  0
 33 74  1  0  0  0  0
 34 75  1  0  0  0  0
 34 80  2  0  0  0  0
 35 52  1  0  0  0  0
 35 76  1  0  0  0  0
 35 81  2  0  0  0  0
 36 66  1  0  0  0  0
 36 72  1  0  0  0  0
 36 82  2  0  0  0  0
 37 67  1  0  0  0  0
 37 77  1  0  0  0  0
 37 83  2  0  0  0  0
 38 71  1  0  0  0  0
 38 73  1  0  0  0  0
 38 84  2  0  0  0  0
 39 43  1  0  0  0  0
 40 52  1  0  0  0  0
 41 44  1  0  0  0  0
 42 72  1  0  0  0  0
 43 46  1  0  0  0  0
 44 48  1  0  0  0  0
 45 47  1  0  0  0  0
 45 49  1  0  0  0  0
 46 51  1  0  0  0  0
 47 53  1  0  0  0  0
 48 71  1  0  0  0  0
 49 73  1  0  0  0  0
 50 53  1  0  0  0  0
 50 73  1  0  0  0  0
 51 76  1  0  0  0  0
 52 72  1  0  0  0  0
 53 70  1  0  0  0  0
 54 67  1  0  0  0  0
 55 68  1  0  0  0  0
 56 68  1  0  0  0  0
 57 68  1  0  0  0  0
 58 78  1  0  0  0  0
 59 79  1  0  0  0  0
 60 61  1  0  0  0  0
 60 62  1  0  0  0  0
 61 63  1  0  0  0  0
 62 64  1  0  0  0  0
 63 65  1  0  0  0  0
 64 79  1  0  0  0  0
 65 86  1  0  0  0  0
 66 68  1  0  0  0  0
 66 77  1  0  0  0  0
 67 78  1  0  0  0  0
 69 70  1  0  0  0  0
M  CHG  2  78   1  79   1
M  ISO  4  38 100  65 101  71 100  86 101
M  END
> <Batch ID>
0005

> <Smiles>
CNC(C)C(=O)NC(C(=O)N1Cc2cc([101O:1][101CH2:1]CCCCCNCc3ccc4c(c3)[100N:0]([100C:0](=O)N3CCCC(n5nc(-c6ccc(Oc7ccc(F)cc7F)cc6)c(C(N)=O)c5N)C3)CCC4)ccc2CC1C(=O)NC1CCCc2ccccc21)C(C)(C)C

> <Shape>
0.280

> <Color>
0.063

> <Negative vol penalty>
0.000

$$$$

  -OEChem-04042320263D

 85 93  0     1  0  0  0  0  0999 V2000
  -40.7738  -30.7044   18.9586 C   0  0  0  0  0  0  0  0  0  0  0  0
  -40.6929  -29.4007   19.4374 C   0  0  0  0  0  0  0  0  0  0  0  0
  -23.0789   -9.8614   19.9527 C   0  0  0  0  0  0  0  0  0  0  0  0
  -23.8313   -9.8895   22.2484 C   0  0  0  0  0  0  0  0  0  0  0  0
  -39.7434  -31.6067   19.2194 C   0  0  0  0  0  0  0  0  0  0  0  0
  -39.5820  -28.9989   20.1783 C   0  0  0  0  0  0  0  0  0  0  0  0
  -36.9540  -23.4672   20.1667 C   0  0  0  0  0  0  0  0  0  0  0  0
  -31.8713  -18.3846   24.1550 C   0  0  0  0  0  0  0  0  0  0  0  0
  -30.4844  -18.3790   24.0064 C   0  0  0  0  0  0  0  0  0  0  0  0
  -22.3352   -8.7100   20.2105 C   0  0  0  0  0  0  0  0  0  0  0  0
  -23.0875   -8.7380   22.5062 C   0  0  0  0  0  0  0  0  0  0  0  0
  -37.0608  -22.3762   21.0281 C   0  0  0  0  0  0  0  0  0  0  0  0
  -19.3828   -7.9240   21.6592 C   0  0  0  0  0  0  0  0  0  0  0  0
  -18.0775   -7.8724   21.1701 C   0  0  0  0  0  0  0  0  0  0  0  0
  -35.0831  -23.1129   22.1965 C   0  0  0  0  0  0  0  0  0  0  0  0
  -32.0540  -16.6183   22.5167 C   0  0  0  0  0  0  0  0  0  0  0  0
  -18.6430   -5.9181   19.8671 C   0  0  0  0  0  0  0  0  0  0  0  0
  -23.8271  -10.4512   20.9716 C   0  0  0  0  0  0  0  0  0  0  0  0
  -24.1674  -12.9754   20.8302 C   0  0  0  0  0  0  0  0  0  0  0  0
  -38.6148  -31.2130   19.9556 C   0  0  0  0  0  0  0  0  0  0  0  0
  -35.9155  -24.3968   20.3208 C   0  0  0  0  0  0  0  0  0  0  0  0
  -38.5362  -29.8972   20.4503 C   0  0  0  0  0  0  0  0  0  0  0  0
  -34.9638  -24.2134   21.3341 C   0  0  0  0  0  0  0  0  0  0  0  0
  -32.6562  -17.5043   23.4101 C   0  0  0  0  0  0  0  0  0  0  0  0
  -29.8823  -17.4930   23.1130 C   0  0  0  0  0  0  0  0  0  0  0  0
  -30.6671  -16.6126   22.3681 C   0  0  0  0  0  0  0  0  0  0  0  0
  -22.3394   -8.1482   21.4872 C   0  0  0  0  0  0  0  0  0  0  0  0
  -36.1270  -22.2005   22.0450 C   0  0  0  0  0  0  0  0  0  0  0  0
  -20.3182   -6.9727   21.2522 C   0  0  0  0  0  0  0  0  0  0  0  0
  -17.7076   -6.8694   20.2741 C   0  0  0  0  0  0  0  0  0  0  0  0
  -19.9483   -5.9697   20.3561 C   0  0  0  0  0  0  0  0  0  0  0  0
  -24.5961  -11.6403   20.7058 C   0  0  0  0  0  0  0  0  0  0  0  0
  -25.2602  -13.7225   20.4638 C   0  0  0  0  0  0  0  0  0  0  0  0
  -22.8952  -13.4939   21.2403 C   0  0  0  0  0  0  0  0  0  0  0  0
  -35.7652  -27.5068   20.9604 C   0  0  0  0  0  0  0  0  0  0  0  0
  -32.5995  -27.0717   20.4024 C   0  0  0  0  0  0  0  0  0  0  0  0
  -29.9412  -24.9336   20.3085 C   0  0  0  0  0  0  0  0  0  0  0  0
  -30.7249  -14.7739   20.6470 C   0  0  0  0  0  0  0  0  0  0  0  0
  -37.5482  -32.2372   20.2524 C   0  0  0  0  0  0  0  0  0  0  0  0
  -35.7988  -25.5536   19.3666 C   0  0  0  0  0  0  0  0  0  0  0  0
  -33.8183  -25.1716   21.5291 C   0  0  0  0  0  0  0  0  0  0  0  0
  -36.2319  -31.6261   20.7258 C   0  0  0  0  0  0  0  0  0  0  0  0
  -29.6201  -12.3382   18.2967 C   0  0  0  0  0  0  0  0  0  0  0  0
  -36.4884  -30.5670   21.7933 C   0  0  0  0  0  0  0  0  0  0  0  0
  -28.1793  -12.0493   18.7242 C   0  0  0  0  0  0  0  0  0  0  0  0
  -30.5311  -12.5784   19.4993 C   0  0  0  0  0  0  0  0  0  0  0  0
  -28.6191  -13.3137   20.8678 C   0  0  0  0  0  0  0  0  0  0  0  0
  -37.3358  -29.4166   21.2366 C   0  0  1  0  0  0  0  0  0  0  0  0
  -34.9971  -26.7197   19.9365 C   0  0  1  0  0  0  0  0  0  0  0  0
  -27.6503  -13.1292   19.6884 C   0  0  2  0  0  0  0  0  0  0  0  0
  -27.4737  -24.8771   19.8548 C   0  0  0  0  0  0  0  0  0  0  0  0
  -32.0723  -28.3462   23.1241 C   0  0  0  0  0  0  0  0  0  0  0  0
  -29.7503  -27.4144   23.0329 C   0  0  0  0  0  0  0  0  0  0  0  0
  -30.5000  -29.0609   21.3154 C   0  0  0  0  0  0  0  0  0  0  0  0
  -30.2810  -23.0443   18.0559 C   0  0  0  0  0  0  0  0  0  0  0  0
  -34.1479  -17.5112   23.5704 C   0  0  0  0  0  0  0  0  0  0  0  0
  -36.2704  -18.7422   23.1033 C   0  0  0  0  0  0  0  0  0  0  0  0
  -36.8171  -19.9470   22.3633 C   0  0  0  0  0  0  0  0  0  1  0  0
  -31.4057  -26.7014   21.2490 C   0  0  1  0  0  0  0  0  0  0  0  0
  -28.8643  -24.7107   19.2620 C   0  0  2  0  0  0  0  0  0  0  0  0
  -28.3944  -17.5085   22.9750 C   0  0  0  0  0  0  0  0  0  0  0  0
  -30.9547  -27.8635   22.1782 C   0  0  0  0  0  0  0  0  0  0  0  0
  -25.8624  -11.5417   20.2925 N   0  0  0  0  0  0  0  0  0  0  0  0
  -26.2387  -12.8244   20.1539 N   0  0  0  0  0  0  0  0  0  0  0  0
  -33.7510  -26.2905   20.5746 N   0  0  0  0  0  0  0  0  0  0  0  0
  -29.9685  -13.6166   20.3656 N   0  0  0  0  0  0  0  0  0  0  0  0
  -25.4698  -15.0534   20.3796 N   0  0  0  0  0  0  0  0  0  0  0  0
  -21.8828  -12.5870   21.5824 N   0  0  0  0  0  0  0  0  0  0  0  0
  -30.0742  -15.7057   21.4550 N   0  0  0  0  0  0  0  0  0  0  0  0
  -36.5216  -28.5339   20.4290 N   0  0  0  0  0  0  0  0  0  0  0  0
  -30.3756  -26.2421   20.3235 N   0  0  0  0  0  0  0  0  0  0  0  0
  -28.9714  -23.3375   18.6929 N   0  3  0  0  0  0  0  0  0  0  0  0
  -34.7997  -18.6751   22.9115 N   0  3  0  0  0  0  0  0  0  0  0  0
  -22.6578  -14.7248   21.2859 O   0  0  0  0  0  0  0  0  0  0  0  0
  -35.6769  -27.2054   22.1449 O   0  0  0  0  0  0  0  0  0  0  0  0
  -32.5112  -28.0147   19.6121 O   0  0  0  0  0  0  0  0  0  0  0  0
  -30.3530  -24.0375   21.0419 O   0  0  0  0  0  0  0  0  0  0  0  0
  -31.8554  -14.9394   20.1816 O   0  0  0  0  0  0  0  0  0  0  0  0
  -21.6135   -7.0248   21.7392 O   0  0  0  0  0  0  0  0  0  0  0  0
  -36.2292  -21.1368   22.8877 O   0  0  0  0  0  0  0  0  0  1  0  0
  -16.4537   -6.8191   19.8057 F   0  0  0  0  0  0  0  0  0  0  0  0
  -20.8423   -5.0523   19.9624 F   0  0  0  0  0  0  0  0  0  0  0  0
  -27.7828  -18.4287   23.7761 F   0  0  0  0  0  0  0  0  0  0  0  0
  -27.9685  -17.7945   21.7104 F   0  0  0  0  0  0  0  0  0  0  0  0
  -27.8281  -16.3091   23.2924 F   0  0  0  0  0  0  0  0  0  0  0  0
  1  2  1  0  0  0  0
  1  5  2  0  0  0  0
  2  6  2  0  0  0  0
  3 10  2  0  0  0  0
  3 18  1  0  0  0  0
  4 11  1  0  0  0  0
  4 18  2  0  0  0  0
  5 20  1  0  0  0  0
  6 22  1  0  0  0  0
  7 12  2  0  0  0  0
  7 21  1  0  0  0  0
  8  9  2  0  0  0  0
  8 24  1  0  0  0  0
  9 25  1  0  0  0  0
 10 27  1  0  0  0  0
 11 27  2  0  0  0  0
 12 28  1  0  0  0  0
 13 14  2  0  0  0  0
 13 29  1  0  0  0  0
 14 30  1  0  0  0  0
 15 23  1  0  0  0  0
 15 28  2  0  0  0  0
 16 24  2  0  0  0  0
 16 26  1  0  0  0  0
 17 30  2  0  0  0  0
 17 31  1  0  0  0  0
 18 32  1  0  0  0  0
 19 32  1  0  0  0  0
 19 33  2  0  0  0  0
 19 34  1  0  0  0  0
 20 22  2  0  0  0  0
 20 39  1  0  0  0  0
 21 23  2  0  0  0  0
 21 40  1  0  0  0  0
 22 48  1  0  0  0  0
 23 41  1  0  0  0  0
 24 56  1  0  0  0  0
 25 26  2  0  0  0  0
 25 61  1  0  0  0  0
 26 69  1  0  0  0  0
 27 79  1  0  0  0  0
 28 80  1  0  0  0  0
 29 31  2  0  0  0  0
 29 79  1  0  0  0  0
 30 81  1  0  0  0  0
 31 82  1  0  0  0  0
 32 63  2  0  0  0  0
 33 64  1  0  0  0  0
 33 67  1  0  0  0  0
 34 68  1  0  0  0  0
 34 74  2  0  0  0  0
 35 49  1  0  0  0  0
 35 70  1  0  0  0  0
 35 75  2  0  0  0  0
 36 59  1  0  0  0  0
 36 65  1  0  0  0  0
 36 76  2  0  0  0  0
 37 60  1  0  0  0  0
 37 71  1  0  0  0  0
 37 77  2  0  0  0  0
 38 66  1  0  0  0  0
 38 69  1  0  0  0  0
 38 78  2  0  0  0  0
 39 42  1  0  0  0  0
 40 49  1  0  0  0  0
 41 65  1  0  0  0  0
 42 44  1  0  0  0  0
 43 45  1  0  0  0  0
 43 46  1  0  0  0  0
 44 48  1  0  0  0  0
 45 50  1  0  0  0  0
 46 66  1  0  0  0  0
 47 50  1  0  0  0  0
 47 66  1  0  0  0  0
 48 70  1  0  0  0  0
 49 65  1  0  0  0  0
 50 64  1  0  0  0  0
 51 60  1  0  0  0  0
 52 62  1  0  0  0  0
 53 62  1  0  0  0  0
 54 62  1  0  0  0  0
 55 72  1  0  0  0  0
 56 73  1  0  0  0  0
 57 58  1  0  0  0  0
 57 73  1  0  0  0  0
 58 80  1  0  0  0  0
 59 62  1  0  0  0  0
 59 71  1  0  0  0  0
 60 72  1  0  0  0  0
 61 83  1  0  0  0  0
 61 84  1  0  0  0  0
 61 85  1  0  0  0  0
 63 64  1  0  0  0  0
M  CHG  2  72   1  73   1
M  ISO  4  38 100  58 101  69 100  80 101
M  END
> <Batch ID>
0005

> <Smiles>
CNC(C)C(=O)NC(C(=O)N1Cc2cc([101O:1][101CH2:1]CNCc3ccc(C(F)(F)F)c([100NH:0][100C:0](=O)N4CCCC(n5nc(-c6ccc(Oc7ccc(F)cc7F)cc6)c(C(N)=O)c5N)C4)c3)ccc2CC1C(=O)NC1CCCc2ccccc21)C(C)(C)C

> <Shape>
0.198

> <Color>
0.192

> <Negative vol penalty>
0.000

$$$$

  -OEChem-04042320262D

  0  0  0     0  0  0  0  0  0999 V2000
M  END
$$$$

  -OEChem-04042320263D

 90 99  0     1  0  0  0  0  0999 V2000
  -23.5638  -13.7933   21.2077 C   0  0  0  0  0  0  0  0  0  0  0  0
  -23.3018  -15.0674   20.7143 C   0  0  0  0  0  0  0  0  0  0  0  0
  -30.4021  -17.9263   19.1601 C   0  0  0  0  0  0  0  0  0  0  0  0
  -28.6626  -18.6699   17.6573 C   0  0  0  0  0  0  0  0  0  0  0  0
  -23.5330  -13.5592   22.5818 C   0  0  0  0  0  0  0  0  0  0  0  0
  -23.0078  -16.1080   21.5948 C   0  0  0  0  0  0  0  0  0  0  0  0
  -24.5417  -22.0039   20.9698 C   0  0  0  0  0  0  0  0  0  0  0  0
  -25.9919  -29.5440   20.1774 C   0  0  0  0  0  0  0  0  0  0  0  0
  -30.1020  -16.5997   18.8512 C   0  0  0  0  0  0  0  0  0  0  0  0
  -28.3625  -17.3432   17.3482 C   0  0  0  0  0  0  0  0  0  0  0  0
  -23.8339  -23.1136   20.5100 C   0  0  0  0  0  0  0  0  0  0  0  0
  -27.7659  -14.3109   19.7048 C   0  0  0  0  0  0  0  0  0  0  0  0
  -27.6782  -13.4042   20.7610 C   0  0  0  0  0  0  0  0  0  0  0  0
  -24.7703  -29.9976   19.6800 C   0  0  0  0  0  0  0  0  0  0  0  0
  -23.2711  -23.6893   22.7840 C   0  0  0  0  0  0  0  0  0  0  0  0
  -24.9731  -29.1666   22.3354 C   0  0  0  0  0  0  0  0  0  0  0  0
  -29.4647  -12.0997   19.7895 C   0  0  0  0  0  0  0  0  0  0  0  0
  -29.6823  -18.9615   18.5633 C   0  0  0  0  0  0  0  0  0  0  0  0
  -30.9145  -21.1699   18.2284 C   0  0  0  0  0  0  0  0  0  0  0  0
  -23.2479  -14.5995   23.4801 C   0  0  0  0  0  0  0  0  0  0  0  0
  -24.6105  -21.7220   22.3417 C   0  0  0  0  0  0  0  0  0  0  0  0
  -22.9718  -15.8872   22.9821 C   0  0  0  0  0  0  0  0  0  0  0  0
  -23.9825  -22.5768   23.2588 C   0  0  0  0  0  0  0  0  0  0  0  0
  -26.0933  -29.1284   21.5051 C   0  0  0  0  0  0  0  0  0  0  0  0
  -23.7515  -29.6203   21.8379 C   0  0  0  0  0  0  0  0  0  0  0  0
  -29.0822  -16.3081   17.9452 C   0  0  0  0  0  0  0  0  0  0  0  0
  -23.1961  -23.9549   21.4169 C   0  0  0  0  0  0  0  0  0  0  0  0
  -28.7029  -14.1121   18.6908 C   0  0  0  0  0  0  0  0  0  0  0  0
  -28.5276  -12.2986   20.8034 C   0  0  0  0  0  0  0  0  0  0  0  0
  -29.5524  -13.0065   18.7332 C   0  0  0  0  0  0  0  0  0  0  0  0
  -23.6501  -30.0358   20.5102 C   0  0  0  0  0  0  0  0  0  0  0  0
  -29.9915  -20.3321   18.8825 C   0  0  0  0  0  0  0  0  0  0  0  0
  -30.8369  -22.3618   18.9065 C   0  0  0  0  0  0  0  0  0  0  0  0
  -31.7658  -20.8954   17.1079 C   0  0  0  0  0  0  0  0  0  0  0  0
  -23.6692  -19.3103   24.1860 C   0  0  0  0  0  0  0  0  0  0  0  0
  -25.2522  -20.9625   26.4853 C   0  0  0  0  0  0  0  0  0  0  0  0
  -26.2362  -24.0031   28.1597 C   0  0  0  0  0  0  0  0  0  0  0  0
  -27.8669  -26.3742   21.1487 C   0  0  0  0  0  0  0  0  0  0  0  0
  -23.1796  -14.2875   24.9541 C   0  0  0  0  0  0  0  0  0  0  0  0
  -25.4003  -20.5360   22.8234 C   0  0  0  0  0  0  0  0  0  0  0  0
  -24.0431  -22.3296   24.7432 C   0  0  0  0  0  0  0  0  0  0  0  0
  -23.2282  -15.5282   25.8422 C   0  0  0  0  0  0  0  0  0  0  0  0
  -28.5609  -23.5266   23.2716 C   0  0  0  0  0  0  0  0  0  0  0  0
  -19.0729  -28.1111   22.6062 C   0  0  0  0  0  0  0  0  0  0  0  0
  -22.2753  -16.5977   25.3179 C   0  0  0  0  0  0  0  0  0  0  0  0
  -19.4512  -26.6570   22.3448 C   0  0  0  0  0  0  0  0  0  0  0  0
  -29.0745  -22.5064   22.2539 C   0  0  0  0  0  0  0  0  0  0  0  0
  -27.4286  -24.3670   22.6887 C   0  0  0  0  0  0  0  0  0  0  0  0
  -28.2851  -24.0489   20.3999 C   0  0  0  0  0  0  0  0  0  0  0  0
  -20.2321  -28.8990   23.1969 C   0  0  0  0  0  0  0  0  0  0  0  0
  -21.8629  -27.3539   22.0771 C   0  0  0  0  0  0  0  0  0  0  0  0
  -22.6732  -17.0473   23.9069 C   0  0  1  0  0  0  0  0  0  0  0  0
  -24.9735  -20.0559   24.2071 C   0  0  1  0  0  0  0  0  0  0  0  0
  -20.7071  -26.5549   21.4723 C   0  0  1  0  0  0  0  0  0  0  0  0
  -29.4463  -23.1830   20.9212 C   0  0  2  0  0  0  0  0  0  0  0  0
  -27.7771  -24.3683   30.1064 C   0  0  0  0  0  0  0  0  0  0  0  0
  -20.3263  -22.8571   20.4080 C   0  0  0  0  0  0  0  0  0  0  0  0
  -20.7813  -24.6877   18.7708 C   0  0  0  0  0  0  0  0  0  0  0  0
  -22.7018  -20.8369   28.1555 C   0  0  0  0  0  0  0  0  0  0  0  0
  -23.6402  -22.6552   29.5983 C   0  0  0  0  0  0  0  0  0  0  0  0
  -24.8119  -20.4584   29.4434 C   0  0  0  0  0  0  0  0  0  0  0  0
  -27.8991  -25.9174   26.6334 C   0  0  0  0  0  0  0  0  0  0  0  0
  -27.3999  -28.6436   22.0368 C   0  0  0  0  0  0  0  0  0  0  0  0
  -22.5704  -29.6451   22.7628 C   0  0  0  0  0  0  0  0  0  0  0  0
  -24.8811  -22.0417   27.4735 C   0  0  1  0  0  0  0  0  0  0  0  0
  -27.6392  -24.3893   28.5920 C   0  0  2  0  0  0  0  0  0  0  0  0
  -21.1128  -25.0942   21.2834 C   0  0  1  0  0  0  0  0  0  1  0  0
  -20.2964  -24.3741   20.1895 C   0  0  0  0  0  0  0  0  0  0  0  0
  -24.0058  -21.5019   28.6396 C   0  0  0  0  0  0  0  0  0  0  0  0
  -29.3730  -20.9401   19.8983 N   0  0  0  0  0  0  0  0  0  0  0  0
  -29.9085  -22.1727   19.8876 N   0  0  0  0  0  0  0  0  0  0  0  0
  -24.8223  -21.1536   25.1645 N   0  0  0  0  0  0  0  0  0  0  0  0
  -27.8535  -24.9982   21.4313 N   0  0  0  0  0  0  0  0  0  0  0  0
  -31.4729  -23.5426   18.7534 N   0  0  0  0  0  0  0  0  0  0  0  0
  -31.7199  -19.6190   16.5308 N   0  0  0  0  0  0  0  0  0  0  0  0
  -23.8008  -17.9527   23.9641 N   0  0  0  0  0  0  0  0  0  0  0  0
  -26.1351  -22.6525   27.9009 N   0  0  0  0  0  0  0  0  0  0  0  0
  -27.4367  -27.2047   22.1762 N   0  0  0  0  0  0  0  0  0  0  0  0
  -21.4308  -28.7865   22.2866 N   0  3  2  0  0  0  0  0  0  0  0  0
  -27.9715  -25.7594   28.1087 N   0  3  0  0  0  0  0  0  0  0  0  0
  -32.5562  -21.7513   16.6428 O   0  0  0  0  0  0  0  0  0  0  0  0
  -22.6212  -19.9211   24.3597 O   0  0  0  0  0  0  0  0  0  0  0  0
  -25.9057  -19.9894   26.8695 O   0  0  0  0  0  0  0  0  0  0  0  0
  -25.3206  -24.8174   28.0649 O   0  0  0  0  0  0  0  0  0  0  0  0
  -28.2400  -26.8297   20.0622 O   0  0  0  0  0  0  0  0  0  0  0  0
  -28.7893  -15.0136   17.6432 O   0  0  0  0  0  0  0  0  0  0  0  0
  -22.5040  -25.0383   20.9708 O   0  0  0  0  0  0  0  0  0  1  0  0
  -28.4443  -11.4287   21.8185 F   0  0  0  0  0  0  0  0  0  0  0  0
  -30.4554  -12.8108   17.7626 F   0  0  0  0  0  0  0  0  0  0  0  0
  -22.1551  -30.6029   19.8603 Cl  0  0  0  0  0  0  0  0  0  0  0  0
  1  2  1  0  0  0  0
  1  5  2  0  0  0  0
  2  6  2  0  0  0  0
  3  9  2  0  0  0  0
  3 18  1  0  0  0  0
  4 10  1  0  0  0  0
  4 18  2  0  0  0  0
  5 20  1  0  0  0  0
  6 22  1  0  0  0  0
  7 11  2  0  0  0  0
  7 21  1  0  0  0  0
  8 14  2  0  0  0  0
  8 24  1  0  0  0  0
  9 26  1  0  0  0  0
 10 26  2  0  0  0  0
 11 27  1  0  0  0  0
 12 13  2  0  0  0  0
 12 28  1  0  0  0  0
 13 29  1  0  0  0  0
 14 31  1  0  0  0  0
 15 23  1  0  0  0  0
 15 27  2  0  0  0  0
 16 24  2  0  0  0  0
 16 25  1  0  0  0  0
 17 29  2  0  0  0  0
 17 30  1  0  0  0  0
 18 32  1  0  0  0  0
 19 32  1  0  0  0  0
 19 33  2  0  0  0  0
 19 34  1  0  0  0  0
 20 22  2  0  0  0  0
 20 39  1  0  0  0  0
 21 23  2  0  0  0  0
 21 40  1  0  0  0  0
 22 52  1  0  0  0  0
 23 41  1  0  0  0  0
 24 63  1  0  0  0  0
 25 31  2  0  0  0  0
 25 64  1  0  0  0  0
 26 86  1  0  0  0  0
 27 87  1  0  0  0  0
 28 30  2  0  0  0  0
 28 86  1  0  0  0  0
 29 88  1  0  0  0  0
 30 89  1  0  0  0  0
 31 90  1  0  0  0  0
 32 70  2  0  0  0  0
 33 71  1  0  0  0  0
 33 74  1  0  0  0  0
 34 75  1  0  0  0  0
 34 81  2  0  0  0  0
 35 53  1  0  0  0  0
 35 76  1  0  0  0  0
 35 82  2  0  0  0  0
 36 65  1  0  0  0  0
 36 72  1  0  0  0  0
 36 83  2  0  0  0  0
 37 66  1  0  0  0  0
 37 77  1  0  0  0  0
 37 84  2  0  0  0  0
 38 73  1  0  0  0  0
 38 78  1  0  0  0  0
 38 85  2  0  0  0  0
 39 42  1  0  0  0  0
 40 53  1  0  0  0  0
 41 72  1  0  0  0  0
 42 45  1  0  0  0  0
 43 47  1  0  0  0  0
 43 48  1  0  0  0  0
 44 46  1  0  0  0  0
 44 50  1  0  0  0  0
 45 52  1  0  0  0  0
 46 54  1  0  0  0  0
 47 55  1  0  0  0  0
 48 73  1  0  0  0  0
 49 55  1  0  0  0  0
 49 73  1  0  0  0  0
 50 79  1  0  0  0  0
 51 54  1  0  0  0  0
 51 79  1  0  0  0  0
 52 76  1  0  0  0  0
 53 72  1  0  0  0  0
 54 67  1  0  0  0  0
 55 71  1  0  0  0  0
 56 66  1  0  0  0  0
 57 68  1  0  0  0  0
 58 68  1  0  0  0  0
 59 69  1  0  0  0  0
 60 69  1  0  0  0  0
 61 69  1  0  0  0  0
 62 80  1  0  0  0  0
 63 78  1  0  0  0  0
 64 79  1  0  0  0  0
 65 69  1  0  0  0  0
 65 77  1  0  0  0  0
 66 80  1  0  0  0  0
 67 68  1  0  0  0  0
 67 87  1  0  0  0  0
 70 71  1  0  0  0  0
M  CHG  2  79   1  80   1
M  ISO  4  38 100  67 101  78 100  87 101
M  END
> <Batch ID>
0005

> <Smiles>
CNC(C)C(=O)NC(C(=O)N1Cc2cc([101O:1][101CH:1](C(C)C)C3CCCN(Cc4cc(C[100NH:0][100C:0](=O)N5CCCC(n6nc(-c7ccc(Oc8ccc(F)cc8F)cc7)c(C(N)=O)c6N)C5)ccc4Cl)C3)ccc2CC1C(=O)NC1CCCc2ccccc21)C(C)(C)C

> <Shape>
0.194

> <Color>
0.078

> <Negative vol penalty>
0.000

$$$$

  -OEChem-04042320263D

 85 94  0     1  0  0  0  0  0999 V2000
  -25.0007  -20.0169   15.3896 C   0  0  0  0  0  0  0  0  0  0  0  0
  -25.0534  -18.9091   16.2302 C   0  0  0  0  0  0  0  0  0  0  0  0
  -25.9554  -35.4819   22.5990 C   0  0  0  0  0  0  0  0  0  0  0  0
  -26.5258  -34.2241   22.4319 C   0  0  0  0  0  0  0  0  0  0  0  0
  -25.9070  -21.0643   15.5567 C   0  0  0  0  0  0  0  0  0  0  0  0
  -26.0127  -18.8443   17.2412 C   0  0  0  0  0  0  0  0  0  0  0  0
  -22.2423  -14.9390   24.2665 C   0  0  0  0  0  0  0  0  0  0  0  0
  -21.5924  -15.9008   22.1476 C   0  0  0  0  0  0  0  0  0  0  0  0
  -24.6891  -35.6015   23.1702 C   0  0  0  0  0  0  0  0  0  0  0  0
  -25.8307  -33.0851   22.8369 C   0  0  0  0  0  0  0  0  0  0  0  0
  -26.0200  -29.3696   19.4012 C   0  0  0  0  0  0  0  0  0  0  0  0
  -21.0073  -15.2963   24.8075 C   0  0  0  0  0  0  0  0  0  0  0  0
  -20.3573  -16.2581   22.6886 C   0  0  0  0  0  0  0  0  0  0  0  0
  -27.1945  -28.6212   19.3368 C   0  0  0  0  0  0  0  0  0  0  0  0
  -19.1215  -18.6927   24.6826 C   0  0  0  0  0  0  0  0  0  0  0  0
  -18.6446  -19.9763   24.4171 C   0  0  0  0  0  0  0  0  0  0  0  0
  -27.7994  -22.0612   16.7515 C   0  0  0  0  0  0  0  0  0  0  0  0
  -26.1442  -26.8735   20.6259 C   0  0  0  0  0  0  0  0  0  0  0  0
  -28.8114  -20.8887   18.6032 C   0  0  0  0  0  0  0  0  0  0  0  0
  -16.6948  -19.0309   23.3486 C   0  0  0  0  0  0  0  0  0  0  0  0
  -26.8792  -21.0161   16.5689 C   0  0  0  0  0  0  0  0  0  0  0  0
  -26.9328  -19.8895   17.4238 C   0  0  0  0  0  0  0  0  0  0  0  0
  -22.5349  -15.2413   22.9365 C   0  0  0  0  0  0  0  0  0  0  0  0
  -24.1385  -13.6670   21.7291 C   0  0  0  0  0  0  0  0  0  0  0  0
  -23.9741  -34.4628   23.5735 C   0  0  0  0  0  0  0  0  0  0  0  0
  -24.9004  -28.8796   20.0888 C   0  0  0  0  0  0  0  0  0  0  0  0
  -24.5543  -33.1897   23.4152 C   0  0  0  0  0  0  0  0  0  0  0  0
  -24.9559  -27.6165   20.6953 C   0  0  0  0  0  0  0  0  0  0  0  0
  -28.7587  -21.9965   17.7625 C   0  0  0  0  0  0  0  0  0  0  0  0
  -27.9051  -19.8412   18.4362 C   0  0  0  0  0  0  0  0  0  0  0  0
  -20.0648  -15.9558   24.0186 C   0  0  0  0  0  0  0  0  0  0  0  0
  -27.2577  -27.3741   19.9517 C   0  0  0  0  0  0  0  0  0  0  0  0
  -18.3851  -17.5781   24.2811 C   0  0  0  0  0  0  0  0  0  0  0  0
  -17.4313  -20.1454   23.7501 C   0  0  0  0  0  0  0  0  0  0  0  0
  -17.1718  -17.7472   23.6141 C   0  0  0  0  0  0  0  0  0  0  0  0
  -23.8107  -14.8730   22.3773 C   0  0  0  0  0  0  0  0  0  0  0  0
  -25.4610  -13.8095   21.3872 C   0  0  0  0  0  0  0  0  0  0  0  0
  -23.3205  -12.5206   21.4602 C   0  0  0  0  0  0  0  0  0  0  0  0
  -23.2176  -29.8408   22.6083 C   0  0  0  0  0  0  0  0  0  0  0  0
  -21.2982  -27.3594   21.7831 C   0  0  0  0  0  0  0  0  0  0  0  0
  -20.9696  -24.3502   20.2072 C   0  0  0  0  0  0  0  0  0  0  0  0
  -28.9217  -18.5711   20.3596 C   0  0  0  0  0  0  0  0  0  0  0  0
  -22.6282  -34.6452   24.2293 C   0  0  0  0  0  0  0  0  0  0  0  0
  -23.6323  -29.6875   20.1263 C   0  0  0  0  0  0  0  0  0  0  0  0
  -23.7751  -27.0365   21.4287 C   0  0  0  0  0  0  0  0  0  0  0  0
  -21.8007  -33.3638   24.2882 C   0  0  0  0  0  0  0  0  0  0  0  0
  -29.4726  -16.0216   22.7831 C   0  0  0  0  0  0  0  0  0  0  0  0
  -22.6549  -32.1987   24.7776 C   0  0  0  0  0  0  0  0  0  0  0  0
  -28.1146  -15.3240   22.8906 C   0  0  0  0  0  0  0  0  0  0  0  0
  -29.3218  -17.5280   22.5793 C   0  0  0  0  0  0  0  0  0  0  0  0
  -27.0960  -17.2219   21.5687 C   0  0  0  0  0  0  0  0  0  0  0  0
  -23.8212  -31.9289   23.8192 C   0  0  1  0  0  0  0  0  0  0  0  0
  -22.7207  -29.3150   21.2914 C   0  0  1  0  0  0  0  0  0  0  0  0
  -27.1959  -15.6942   21.7098 C   0  0  2  0  0  0  0  0  0  0  0  0
  -19.2897  -22.5466   19.7355 C   0  0  0  0  0  0  0  0  0  0  0  0
  -21.5780  -26.3525   24.6498 C   0  0  0  0  0  0  0  0  0  0  0  0
  -20.7094  -24.1337   23.8813 C   0  0  0  0  0  0  0  0  0  0  0  0
  -19.2727  -26.1647   23.6985 C   0  0  0  0  0  0  0  0  0  0  0  0
  -21.1944  -24.7448   17.2827 C   0  0  0  0  0  0  0  0  0  0  0  0
  -29.7332  -23.1227   17.9439 C   0  0  0  0  0  0  0  0  0  0  0  0
  -30.0137  -25.5458   18.4812 C   0  0  0  0  0  0  0  0  0  0  0  0
  -29.2238  -26.8143   18.7364 C   0  0  0  0  0  0  0  0  0  1  0  0
  -21.2385  -25.8919   22.1321 C   0  0  1  0  0  0  0  0  0  0  0  0
  -19.9276  -23.8322   19.2323 C   0  0  2  0  0  0  0  0  0  0  0  0
  -20.7227  -25.6472   23.5783 C   0  0  0  0  0  0  0  0  0  0  0  0
  -24.8419  -15.7191   22.4444 N   0  0  0  0  0  0  0  0  0  0  0  0
  -25.8307  -15.0439   21.8341 N   0  0  0  0  0  0  0  0  0  0  0  0
  -22.5599  -27.8674   21.4428 N   0  0  0  0  0  0  0  0  0  0  0  0
  -28.4417  -17.8028   21.4414 N   0  0  0  0  0  0  0  0  0  0  0  0
  -26.3322  -12.9980   20.7508 N   0  0  0  0  0  0  0  0  0  0  0  0
  -21.9835  -12.5404   21.8801 N   0  0  0  0  0  0  0  0  0  0  0  0
  -28.0066  -18.7390   19.3209 N   0  0  0  0  0  0  0  0  0  0  0  0
  -23.3585  -31.2148   22.6485 N   0  0  0  0  0  0  0  0  0  0  0  0
  -20.4318  -25.2581   21.0948 N   0  0  0  0  0  0  0  0  0  0  0  0
  -20.5494  -23.5603   17.9056 N   0  3  0  0  0  0  0  0  0  0  0  0
  -29.0729  -24.4234   18.2374 N   0  3  0  0  0  0  0  0  0  0  0  0
  -23.7667  -11.5020   20.8796 O   0  0  0  0  0  0  0  0  0  0  0  0
  -23.4543  -29.0579   23.5209 O   0  0  0  0  0  0  0  0  0  0  0  0
  -20.2622  -28.0287   21.8044 O   0  0  0  0  0  0  0  0  0  0  0  0
  -22.1423  -23.9832   20.1860 O   0  0  0  0  0  0  0  0  0  0  0  0
  -30.0698  -19.0223   20.3430 O   0  0  0  0  0  0  0  0  0  0  0  0
  -18.8595  -16.3044   24.5461 O   0  0  0  0  0  0  0  0  0  0  0  0
  -28.4030  -26.6418   19.8909 O   0  0  0  0  0  0  0  0  0  1  0  0
  -16.9727  -21.3781   23.4965 F   0  0  0  0  0  0  0  0  0  0  0  0
  -16.4593  -16.6803   23.2269 F   0  0  0  0  0  0  0  0  0  0  0  0
  1  2  1  0  0  0  0
  1  5  2  0  0  0  0
  2  6  2  0  0  0  0
  3  4  1  0  0  0  0
  3  9  2  0  0  0  0
  4 10  2  0  0  0  0
  5 21  1  0  0  0  0
  6 22  1  0  0  0  0
  7 12  2  0  0  0  0
  7 23  1  0  0  0  0
  8 13  1  0  0  0  0
  8 23  2  0  0  0  0
  9 25  1  0  0  0  0
 10 27  1  0  0  0  0
 11 14  2  0  0  0  0
 11 26  1  0  0  0  0
 12 31  1  0  0  0  0
 13 31  2  0  0  0  0
 14 32  1  0  0  0  0
 15 16  2  0  0  0  0
 15 33  1  0  0  0  0
 16 34  1  0  0  0  0
 17 21  1  0  0  0  0
 17 29  2  0  0  0  0
 18 28  1  0  0  0  0
 18 32  2  0  0  0  0
 19 29  1  0  0  0  0
 19 30  2  0  0  0  0
 20 34  2  0  0  0  0
 20 35  1  0  0  0  0
 21 22  2  0  0  0  0
 22 30  1  0  0  0  0
 23 36  1  0  0  0  0
 24 36  1  0  0  0  0
 24 37  2  0  0  0  0
 24 38  1  0  0  0  0
 25 27  2  0  0  0  0
 25 43  1  0  0  0  0
 26 28  2  0  0  0  0
 26 44  1  0  0  0  0
 27 52  1  0  0  0  0
 28 45  1  0  0  0  0
 29 60  1  0  0  0  0
 30 72  1  0  0  0  0
 31 82  1  0  0  0  0
 32 83  1  0  0  0  0
 33 35  2  0  0  0  0
 33 82  1  0  0  0  0
 34 84  1  0  0  0  0
 35 85  1  0  0  0  0
 36 66  2  0  0  0  0
 37 67  1  0  0  0  0
 37 70  1  0  0  0  0
 38 71  1  0  0  0  0
 38 77  2  0  0  0  0
 39 53  1  0  0  0  0
 39 73  1  0  0  0  0
 39 78  2  0  0  0  0
 40 63  1  0  0  0  0
 40 68  1  0  0  0  0
 40 79  2  0  0  0  0
 41 64  1  0  0  0  0
 41 74  1  0  0  0  0
 41 80  2  0  0  0  0
 42 69  1  0  0  0  0
 42 72  1  0  0  0  0
 42 81  2  0  0  0  0
 43 46  1  0  0  0  0
 44 53  1  0  0  0  0
 45 68  1  0  0  0  0
 46 48  1  0  0  0  0
 47 49  1  0  0  0  0
 47 50  1  0  0  0  0
 48 52  1  0  0  0  0
 49 54  1  0  0  0  0
 50 69  1  0  0  0  0
 51 54  1  0  0  0  0
 51 69  1  0  0  0  0
 52 73  1  0  0  0  0
 53 68  1  0  0  0  0
 54 67  1  0  0  0  0
 55 64  1  0  0  0  0
 56 65  1  0  0  0  0
 57 65  1  0  0  0  0
 58 65  1  0  0  0  0
 59 75  1  0  0  0  0
 60 76  1  0  0  0  0
 61 62  1  0  0  0  0
 61 76  1  0  0  0  0
 62 83  1  0  0  0  0
 63 65  1  0  0  0  0
 63 74  1  0  0  0  0
 64 75  1  0  0  0  0
 66 67  1  0  0  0  0
M  CHG  2  75   1  76   1
M  ISO  4  42 100  62 101  72 100  83 101
M  END
> <Batch ID>
0005

> <Smiles>
CNC(C)C(=O)NC(C(=O)N1Cc2cc([101O:1][101CH2:1]CNCc3cc([100NH:0][100C:0](=O)N4CCCC(n5nc(-c6ccc(Oc7ccc(F)cc7F)cc6)c(C(N)=O)c5N)C4)c4ccccc4c3)ccc2CC1C(=O)NC1CCCc2ccccc21)C(C)(C)C

> <Shape>
0.223

> <Color>
0.079

> <Negative vol penalty>
0.000

$$$$

  -OEChem-04042320263D

 95104  0     1  0  0  0  0  0999 V2000
  -17.3816  -12.2833   22.6657 C   0  0  0  0  0  0  0  0  0  0  0  0
  -17.8776  -13.3905   21.9849 C   0  0  0  0  0  0  0  0  0  0  0  0
  -21.2195  -27.8423   23.5745 C   0  0  0  0  0  0  0  0  0  0  0  0
  -23.0839  -27.4288   22.0946 C   0  0  0  0  0  0  0  0  0  0  0  0
  -18.2266  -11.5317   23.4811 C   0  0  0  0  0  0  0  0  0  0  0  0
  -19.2188  -13.7474   22.1200 C   0  0  0  0  0  0  0  0  0  0  0  0
  -22.8318  -16.1828   17.8164 C   0  0  0  0  0  0  0  0  0  0  0  0
  -27.1129  -17.8934   22.6000 C   0  0  0  0  0  0  0  0  0  0  0  0
  -25.8332  -18.3920   22.8433 C   0  0  0  0  0  0  0  0  0  0  0  0
  -21.7975  -29.0502   23.9651 C   0  0  0  0  0  0  0  0  0  0  0  0
  -23.6618  -28.6367   22.4852 C   0  0  0  0  0  0  0  0  0  0  0  0
  -23.2236  -17.4946   17.5529 C   0  0  0  0  0  0  0  0  0  0  0  0
  -25.4307  -29.8173   25.1135 C   0  0  0  0  0  0  0  0  0  0  0  0
  -26.4652  -23.5927   16.1947 C   0  0  0  0  0  0  0  0  0  0  0  0
  -26.7942  -29.8182   25.4073 C   0  0  0  0  0  0  0  0  0  0  0  0
  -27.4303  -24.5584   16.4804 C   0  0  0  0  0  0  0  0  0  0  0  0
  -26.0926  -19.9501   21.0151 C   0  0  0  0  0  0  0  0  0  0  0  0
  -25.2579  -17.1306   18.7971 C   0  0  0  0  0  0  0  0  0  0  0  0
  -28.9368  -22.8285   17.2386 C   0  0  0  0  0  0  0  0  0  0  0  0
  -27.1703  -31.4398   23.6562 C   0  0  0  0  0  0  0  0  0  0  0  0
  -21.8627  -27.0316   22.6392 C   0  0  0  0  0  0  0  0  0  0  0  0
  -27.3724  -19.4514   20.7718 C   0  0  0  0  0  0  0  0  0  0  0  0
  -20.3729  -25.5741   21.1683 C   0  0  0  0  0  0  0  0  0  0  0  0
  -19.5811  -11.8739   23.6187 C   0  0  0  0  0  0  0  0  0  0  0  0
  -23.6465  -15.3370   18.5828 C   0  0  0  0  0  0  0  0  0  0  0  0
  -20.0824  -13.0004   22.9391 C   0  0  0  0  0  0  0  0  0  0  0  0
  -24.8754  -15.8077   19.0668 C   0  0  0  0  0  0  0  0  0  0  0  0
  -27.8826  -18.4232   21.5642 C   0  0  0  0  0  0  0  0  0  0  0  0
  -27.9717  -21.8628   16.9530 C   0  0  0  0  0  0  0  0  0  0  0  0
  -25.3230  -19.4203   22.0509 C   0  0  0  0  0  0  0  0  0  0  0  0
  -23.0186  -29.4474   23.4205 C   0  0  0  0  0  0  0  0  0  0  0  0
  -24.4354  -17.9696   18.0457 C   0  0  0  0  0  0  0  0  0  0  0  0
  -26.7358  -22.2449   16.4311 C   0  0  0  0  0  0  0  0  0  0  0  0
  -24.9369  -30.6276   24.0911 C   0  0  0  0  0  0  0  0  0  0  0  0
  -27.6641  -30.6295   24.6786 C   0  0  0  0  0  0  0  0  0  0  0  0
  -25.8067  -31.4388   23.3625 C   0  0  0  0  0  0  0  0  0  0  0  0
  -28.6661  -24.1763   17.0023 C   0  0  0  0  0  0  0  0  0  0  0  0
  -21.2665  -25.7835   22.2357 C   0  0  0  0  0  0  0  0  0  0  0  0
  -20.1042  -24.2276   21.2046 C   0  0  0  0  0  0  0  0  0  0  0  0
  -28.1703  -20.0333   19.6619 C   0  0  0  0  0  0  0  0  0  0  0  0
  -19.8341  -26.5127   20.2279 C   0  0  0  0  0  0  0  0  0  0  0  0
  -23.3192  -13.8125   21.3527 C   0  0  0  0  0  0  0  0  0  0  0  0
  -26.1863  -12.5309   20.5406 C   0  0  0  0  0  0  0  0  0  0  0  0
  -29.0827  -12.8077   18.7571 C   0  0  0  0  0  0  0  0  0  0  0  0
  -23.1307  -19.5156   23.2882 C   0  0  0  0  0  0  0  0  0  0  0  0
  -20.4448  -11.0591   24.5487 C   0  0  0  0  0  0  0  0  0  0  0  0
  -23.2220  -13.9163   18.8356 C   0  0  0  0  0  0  0  0  0  0  0  0
  -25.7958  -14.9336   19.8776 C   0  0  0  0  0  0  0  0  0  0  0  0
  -21.9408  -11.2830   24.3433 C   0  0  0  0  0  0  0  0  0  0  0  0
  -19.8584  -20.5388   24.2486 C   0  0  0  0  0  0  0  0  0  0  0  0
  -22.2487  -12.7737   24.2436 C   0  0  0  0  0  0  0  0  0  0  0  0
  -19.7646  -21.9788   23.7389 C   0  0  0  0  0  0  0  0  0  0  0  0
  -21.2577  -20.2104   24.7661 C   0  0  0  0  0  0  0  0  0  0  0  0
  -22.2559  -21.9342   23.3165 C   0  0  0  0  0  0  0  0  0  0  0  0
  -21.5372  -13.4047   23.0406 C   0  0  1  0  0  0  0  0  0  0  0  0
  -23.8917  -13.3017   20.0608 C   0  0  1  0  0  0  0  0  0  0  0  0
  -20.8826  -22.2917   22.7251 C   0  0  2  0  0  0  0  0  0  0  0  0
  -31.2518  -11.6216   18.3263 C   0  0  0  0  0  0  0  0  0  0  0  0
  -27.2261  -13.4506   23.2577 C   0  0  0  0  0  0  0  0  0  0  0  0
  -29.5549  -13.1097   22.4040 C   0  0  0  0  0  0  0  0  0  0  0  0
  -27.9912  -11.1728   22.5645 C   0  0  0  0  0  0  0  0  0  0  0  0
  -28.4888  -12.5250   15.8716 C   0  0  0  0  0  0  0  0  0  0  0  0
  -28.2776  -20.4249   17.2142 C   0  0  0  0  0  0  0  0  0  0  0  0
  -23.9329  -20.0512   17.0111 C   0  0  0  0  0  0  0  0  0  1  0  0
  -24.5381  -21.4303   16.8338 C   0  0  0  0  0  0  0  0  0  0  0  0
  -27.6297  -12.9117   20.7652 C   0  0  1  0  0  0  0  0  0  0  0  0
  -29.8158  -11.8204   17.8669 C   0  0  2  0  0  0  0  0  0  0  0  0
  -29.2500  -17.8706   21.3253 C   0  0  0  0  0  0  0  0  0  0  0  0
  -28.0825  -12.6785   22.2342 C   0  0  0  0  0  0  0  0  0  0  0  0
  -21.5466  -24.6601   22.9017 N   0  0  0  0  0  0  0  0  0  0  0  0
  -20.8247  -23.7318   22.2510 N   0  0  0  0  0  0  0  0  0  0  0  0
  -25.3334  -13.5542   20.1033 N   0  0  0  0  0  0  0  0  0  0  0  0
  -22.2643  -20.5285   23.7510 N   0  0  0  0  0  0  0  0  0  0  0  0
  -19.3241  -23.4313   20.4432 N   0  0  0  0  0  0  0  0  0  0  0  0
  -20.2149  -27.8574   20.3332 N   0  0  0  0  0  0  0  0  0  0  0  0
  -24.0237  -19.9279   22.2997 N   0  0  0  0  0  0  0  0  0  0  0  0
  -27.6146  -19.9310   18.3935 N   0  0  0  0  0  0  0  0  0  0  0  0
  -22.2380  -13.0867   21.8150 N   0  0  0  0  0  0  0  0  0  0  0  0
  -28.4058  -12.1715   19.7761 N   0  0  0  0  0  0  0  0  0  0  0  0
  -29.8361  -12.3085   16.4590 N   0  3  0  0  0  0  0  0  0  0  0  0
  -29.2599  -20.5432   19.9093 O   0  0  0  0  0  0  0  0  0  0  0  0
  -19.0256  -26.1721   19.3313 O   0  0  0  0  0  0  0  0  0  0  0  0
  -23.8222  -14.7918   21.8911 O   0  0  0  0  0  0  0  0  0  0  0  0
  -25.8302  -11.3666   20.7388 O   0  0  0  0  0  0  0  0  0  0  0  0
  -29.1111  -14.0220   18.5696 O   0  0  0  0  0  0  0  0  0  0  0  0
  -23.0657  -18.3604   23.7163 O   0  0  0  0  0  0  0  0  0  0  0  0
  -23.5828  -30.6261   23.8012 O   0  0  0  0  0  0  0  0  0  0  0  0
  -24.8199  -19.2498   17.7905 O   0  0  0  0  0  0  0  0  0  1  0  0
  -25.7768  -21.3091   16.1452 O   0  0  0  0  0  0  0  0  0  0  0  0
  -28.9732  -30.6314   24.9618 F   0  0  0  0  0  0  0  0  0  0  0  0
  -25.3381  -32.2203   22.3799 F   0  0  0  0  0  0  0  0  0  0  0  0
  -29.5922  -16.8708   22.1892 F   0  0  0  0  0  0  0  0  0  0  0  0
  -29.4117  -17.3383   20.0790 F   0  0  0  0  0  0  0  0  0  0  0  0
  -30.2249  -18.8161   21.4515 F   0  0  0  0  0  0  0  0  0  0  0  0
  -29.8571  -25.3672   17.3549 Cl  0  0  0  0  0  0  0  0  0  0  0  0
  1  2  1  0  0  0  0
  1  5  2  0  0  0  0
  2  6  2  0  0  0  0
  3 10  2  0  0  0  0
  3 21  1  0  0  0  0
  4 11  1  0  0  0  0
  4 21  2  0  0  0  0
  5 24  1  0  0  0  0
  6 26  1  0  0  0  0
  7 12  2  0  0  0  0
  7 25  1  0  0  0  0
  8  9  2  0  0  0  0
  8 28  1  0  0  0  0
  9 30  1  0  0  0  0
 10 31  1  0  0  0  0
 11 31  2  0  0  0  0
 12 32  1  0  0  0  0
 13 15  2  0  0  0  0
 13 34  1  0  0  0  0
 14 16  2  0  0  0  0
 14 33  1  0  0  0  0
 15 35  1  0  0  0  0
 16 37  1  0  0  0  0
 17 22  1  0  0  0  0
 17 30  2  0  0  0  0
 18 27  1  0  0  0  0
 18 32  2  0  0  0  0
 19 29  1  0  0  0  0
 19 37  2  0  0  0  0
 20 35  2  0  0  0  0
 20 36  1  0  0  0  0
 21 38  1  0  0  0  0
 22 28  2  0  0  0  0
 22 40  1  0  0  0  0
 23 38  1  0  0  0  0
 23 39  2  0  0  0  0
 23 41  1  0  0  0  0
 24 26  2  0  0  0  0
 24 46  1  0  0  0  0
 25 27  2  0  0  0  0
 25 47  1  0  0  0  0
 26 55  1  0  0  0  0
 27 48  1  0  0  0  0
 28 68  1  0  0  0  0
 29 33  2  0  0  0  0
 29 63  1  0  0  0  0
 30 76  1  0  0  0  0
 31 87  1  0  0  0  0
 32 88  1  0  0  0  0
 33 89  1  0  0  0  0
 34 36  2  0  0  0  0
 34 87  1  0  0  0  0
 35 90  1  0  0  0  0
 36 91  1  0  0  0  0
 37 95  1  0  0  0  0
 38 70  2  0  0  0  0
 39 71  1  0  0  0  0
 39 74  1  0  0  0  0
 40 77  1  0  0  0  0
 40 81  2  0  0  0  0
 41 75  1  0  0  0  0
 41 82  2  0  0  0  0
 42 56  1  0  0  0  0
 42 78  1  0  0  0  0
 42 83  2  0  0  0  0
 43 66  1  0  0  0  0
 43 72  1  0  0  0  0
 43 84  2  0  0  0  0
 44 67  1  0  0  0  0
 44 79  1  0  0  0  0
 44 85  2  0  0  0  0
 45 73  1  0  0  0  0
 45 76  1  0  0  0  0
 45 86  2  0  0  0  0
 46 49  1  0  0  0  0
 47 56  1  0  0  0  0
 48 72  1  0  0  0  0
 49 51  1  0  0  0  0
 50 52  1  0  0  0  0
 50 53  1  0  0  0  0
 51 55  1  0  0  0  0
 52 57  1  0  0  0  0
 53 73  1  0  0  0  0
 54 57  1  0  0  0  0
 54 73  1  0  0  0  0
 55 78  1  0  0  0  0
 56 72  1  0  0  0  0
 57 71  1  0  0  0  0
 58 67  1  0  0  0  0
 59 69  1  0  0  0  0
 60 69  1  0  0  0  0
 61 69  1  0  0  0  0
 62 80  1  0  0  0  0
 63 77  1  0  0  0  0
 64 65  1  0  0  0  0
 64 88  1  0  0  0  0
 65 89  1  0  0  0  0
 66 69  1  0  0  0  0
 66 79  1  0  0  0  0
 67 80  1  0  0  0  0
 68 92  1  0  0  0  0
 68 93  1  0  0  0  0
 68 94  1  0  0  0  0
 70 71  1  0  0  0  0
M  CHG  1  80   1
M  ISO  4  45 100  64 101  76 100  88 101
M  END
> <Batch ID>
0005

> <Smiles>
CNC(C)C(=O)NC(C(=O)N1Cc2cc([101O:1][101CH2:1]COc3ccc(Cl)cc3CNC(=O)c3cc([100NH:0][100C:0](=O)N4CCCC(n5nc(-c6ccc(Oc7ccc(F)cc7F)cc6)c(C(N)=O)c5N)C4)ccc3C(F)(F)F)ccc2CC1C(=O)NC1CCCc2ccccc21)C(C)(C)C

> <Shape>
0.229

> <Color>
0.052

> <Negative vol penalty>
0.000

$$$$

  -OEChem-04042320263D

 94104  0     1  0  0  0  0  0999 V2000
  -26.8533  -31.7709   28.1285 C   0  0  0  0  0  0  0  0  0  0  0  0
  -26.9355  -31.0583   26.9365 C   0  0  0  0  0  0  0  0  0  0  0  0
  -25.5045   -9.7885   23.7689 C   0  0  0  0  0  0  0  0  0  0  0  0
  -25.7021   -7.9676   22.1933 C   0  0  0  0  0  0  0  0  0  0  0  0
  -25.6414  -31.8430   28.8141 C   0  0  0  0  0  0  0  0  0  0  0  0
  -25.8059  -30.4166   26.4298 C   0  0  0  0  0  0  0  0  0  0  0  0
  -29.0070  -19.3841   18.5042 C   0  0  0  0  0  0  0  0  0  0  0  0
  -28.6935  -20.5621   17.8262 C   0  0  0  0  0  0  0  0  0  0  0  0
  -25.2191  -31.1562   21.4546 C   0  0  0  0  0  0  0  0  0  0  0  0
  -24.1469   -9.5081   23.9227 C   0  0  0  0  0  0  0  0  0  0  0  0
  -24.3444   -7.6872   22.3472 C   0  0  0  0  0  0  0  0  0  0  0  0
  -26.0219  -30.4023   20.5997 C   0  0  0  0  0  0  0  0  0  0  0  0
  -22.3653   -6.1199   24.5939 C   0  0  0  0  0  0  0  0  0  0  0  0
  -21.9947   -4.7845   24.7517 C   0  0  0  0  0  0  0  0  0  0  0  0
  -24.1827  -28.8890   20.2167 C   0  0  0  0  0  0  0  0  0  0  0  0
  -27.8534  -20.2040   20.4622 C   0  0  0  0  0  0  0  0  0  0  0  0
  -20.6387   -4.9251   22.7570 C   0  0  0  0  0  0  0  0  0  0  0  0
  -26.2822   -9.0182   22.9041 C   0  0  0  0  0  0  0  0  0  0  0  0
  -28.7528   -8.7766   23.4918 C   0  0  0  0  0  0  0  0  0  0  0  0
  -28.5869  -19.2050   19.8222 C   0  0  0  0  0  0  0  0  0  0  0  0
  -24.4941  -31.2099   28.3106 C   0  0  0  0  0  0  0  0  0  0  0  0
  -23.8931  -30.7754   21.7058 C   0  0  0  0  0  0  0  0  0  0  0  0
  -24.5779  -30.4792   27.1100 C   0  0  0  0  0  0  0  0  0  0  0  0
  -27.9600  -21.5611   18.4662 C   0  0  0  0  0  0  0  0  0  0  0  0
  -23.3643  -29.6413   21.0731 C   0  0  0  0  0  0  0  0  0  0  0  0
  -23.5668   -8.4575   23.2119 C   0  0  0  0  0  0  0  0  0  0  0  0
  -25.5047  -29.2669   19.9829 C   0  0  0  0  0  0  0  0  0  0  0  0
  -21.8725   -6.8580   23.5177 C   0  0  0  0  0  0  0  0  0  0  0  0
  -21.1315   -4.1871   23.8332 C   0  0  0  0  0  0  0  0  0  0  0  0
  -27.5399  -21.3820   19.7843 C   0  0  0  0  0  0  0  0  0  0  0  0
  -21.0093   -6.2606   22.5992 C   0  0  0  0  0  0  0  0  0  0  0  0
  -27.6846   -9.3077   22.7444 C   0  0  0  0  0  0  0  0  0  0  0  0
  -29.8727   -9.3622   22.9541 C   0  0  0  0  0  0  0  0  0  0  0  0
  -28.7343   -7.8377   24.5752 C   0  0  0  0  0  0  0  0  0  0  0  0
  -22.2621  -29.8996   24.2897 C   0  0  0  0  0  0  0  0  0  0  0  0
  -19.7414  -29.9846   22.2498 C   0  0  0  0  0  0  0  0  0  0  0  0
  -28.3342  -26.5193   19.8640 C   0  0  0  0  0  0  0  0  0  0  0  0
  -18.6089  -29.8137   19.0350 C   0  0  0  0  0  0  0  0  0  0  0  0
  -30.9279  -14.3737   20.0875 C   0  0  0  0  0  0  0  0  0  0  0  0
  -23.2178  -31.2765   29.1114 C   0  0  0  0  0  0  0  0  0  0  0  0
  -23.0319  -31.6144   22.6097 C   0  0  0  0  0  0  0  0  0  0  0  0
  -21.9409  -29.2013   21.2938 C   0  0  0  0  0  0  0  0  0  0  0  0
  -21.9773  -30.8814   28.3142 C   0  0  0  0  0  0  0  0  0  0  0  0
  -31.5599  -11.1974   18.8792 C   0  0  0  0  0  0  0  0  0  0  0  0
  -22.2335  -29.5992   27.5287 C   0  0  0  0  0  0  0  0  0  0  0  0
  -30.7470  -10.2893   19.8016 C   0  0  0  0  0  0  0  0  0  0  0  0
  -28.2971  -16.6886   19.8927 C   0  0  0  0  0  0  0  0  0  0  0  0
  -30.4478  -17.7373   20.7197 C   0  0  0  0  0  0  0  0  0  0  0  0
  -30.7781  -12.4575   18.5265 C   0  0  0  0  0  0  0  0  0  0  0  0
  -28.6721  -15.3960   20.6234 C   0  0  0  0  0  0  0  0  0  0  0  0
  -30.7584  -16.4338   21.4498 C   0  0  0  0  0  0  0  0  0  0  0  0
  -28.1804  -24.1215   18.3805 C   0  0  0  0  0  0  0  0  0  0  0  0
  -29.5125  -12.3458   20.6488 C   0  0  0  0  0  0  0  0  0  0  0  0
  -25.9977  -24.6104   17.6764 C   0  0  0  0  0  0  0  0  0  0  0  0
  -28.9281  -17.9240   20.5598 C   0  0  0  0  0  0  0  0  0  0  0  0
  -27.6226  -22.8378   17.7290 C   0  0  2  0  0  0  0  0  0  0  0  0
  -23.3686  -29.7904   26.5156 C   0  0  1  0  0  0  0  0  0  0  0  0
  -21.8525  -30.8441   23.1953 C   0  0  1  0  0  0  0  0  0  0  0  0
  -30.2603  -11.0562   21.0440 C   0  0  1  0  0  0  0  0  0  0  0  0
  -26.1136  -23.0981   17.6420 C   0  0  2  0  0  0  0  0  0  0  0  0
  -16.4943  -29.8783   17.6853 C   0  0  0  0  0  0  0  0  0  0  0  0
  -19.1031  -27.1299   23.1177 C   0  0  0  0  0  0  0  0  0  0  0  0
  -17.6266  -26.9227   21.1065 C   0  0  0  0  0  0  0  0  0  0  0  0
  -17.1064  -28.6144   22.8645 C   0  0  0  0  0  0  0  0  0  0  0  0
  -19.4896  -32.2209   17.5555 C   0  0  0  0  0  0  0  0  0  0  0  0
  -26.0107  -27.1299   19.0701 C   0  0  0  0  0  0  0  0  0  1  0  0
  -19.0784  -28.9902   21.3275 C   0  0  1  0  0  0  0  0  0  0  0  0
  -27.2916  -26.3543   18.7657 C   0  0  2  0  0  0  0  0  0  0  0  0
  -17.6440  -30.6918   18.2589 C   0  0  2  0  0  0  0  0  0  0  0  0
  -18.2561  -27.9212   22.1012 C   0  0  0  0  0  0  0  0  0  0  0  0
  -28.0896  -10.1650   21.8036 N   0  0  0  0  0  0  0  0  0  0  0  0
  -29.4247  -10.1771   21.9563 N   0  0  0  0  0  0  0  0  0  0  0  0
  -21.1406  -30.0511   22.1911 N   0  0  0  0  0  0  0  0  0  0  0  0
  -30.3307  -13.1549   19.7320 N   0  0  0  0  0  0  0  0  0  0  0  0
  -30.1294  -15.2941   20.7830 N   0  0  0  0  0  0  0  0  0  0  0  0
  -26.9961  -24.9314   18.6984 N   0  0  2  0  0  0  0  0  0  0  0  0
  -31.1872   -9.2546   23.2422 N   0  0  0  0  0  0  0  0  0  0  0  0
  -27.4978   -7.3348   25.0026 N   0  0  0  0  0  0  0  0  0  0  0  0
  -29.5278  -27.0338   19.4021 N   0  0  0  0  0  0  0  0  0  0  0  0
  -22.8938  -30.5127   25.3549 N   0  0  0  0  0  0  0  0  0  0  0  0
  -18.2961  -29.7734   20.3773 N   0  0  0  0  0  0  0  0  0  0  0  0
  -25.5497  -22.5563   16.3880 N   0  3  0  0  0  0  0  0  0  0  0  0
  -18.3493  -31.3674   17.1332 N   0  3  0  0  0  0  0  0  0  0  0  0
  -29.7818   -7.4685   25.1583 O   0  0  0  0  0  0  0  0  0  0  0  0
  -22.0214  -28.7033   24.1769 O   0  0  0  0  0  0  0  0  0  0  0  0
  -19.0430  -30.6819   22.9898 O   0  0  0  0  0  0  0  0  0  0  0  0
  -28.1395  -26.2135   21.0380 O   0  0  0  0  0  0  0  0  0  0  0  0
  -19.5442  -29.2197   18.5030 O   0  0  0  0  0  0  0  0  0  0  0  0
  -32.1052  -14.6252   19.8014 O   0  0  0  0  0  0  0  0  0  0  0  0
  -22.2420   -8.1835   23.3620 O   0  0  0  0  0  0  0  0  0  0  0  0
  -26.2913  -28.5242   19.1433 O   0  0  0  0  0  0  0  0  0  1  0  0
  -20.7769   -2.9042   23.9840 F   0  0  0  0  0  0  0  0  0  0  0  0
  -26.8354  -22.3368   20.4078 F   0  0  0  0  0  0  0  0  0  0  0  0
  -20.5336   -6.9642   21.5627 F   0  0  0  0  0  0  0  0  0  0  0  0
  1  2  1  0  0  0  0
  1  5  2  0  0  0  0
  2  6  2  0  0  0  0
  3 10  2  0  0  0  0
  3 18  1  0  0  0  0
  4 11  1  0  0  0  0
  4 18  2  0  0  0  0
  5 21  1  0  0  0  0
  6 23  1  0  0  0  0
  7  8  2  0  0  0  0
  7 20  1  0  0  0  0
  8 24  1  0  0  0  0
  9 12  2  0  0  0  0
  9 22  1  0  0  0  0
 10 26  1  0  0  0  0
 11 26  2  0  0  0  0
 12 27  1  0  0  0  0
 13 14  2  0  0  0  0
 13 28  1  0  0  0  0
 14 29  1  0  0  0  0
 15 25  1  0  0  0  0
 15 27  2  0  0  0  0
 16 20  2  0  0  0  0
 16 30  1  0  0  0  0
 17 29  2  0  0  0  0
 17 31  1  0  0  0  0
 18 32  1  0  0  0  0
 19 32  1  0  0  0  0
 19 33  2  0  0  0  0
 19 34  1  0  0  0  0
 20 55  1  0  0  0  0
 21 23  2  0  0  0  0
 21 40  1  0  0  0  0
 22 25  2  0  0  0  0
 22 41  1  0  0  0  0
 23 57  1  0  0  0  0
 24 30  2  0  0  0  0
 24 56  1  0  0  0  0
 25 42  1  0  0  0  0
 26 90  1  0  0  0  0
 27 91  1  0  0  0  0
 28 31  2  0  0  0  0
 28 90  1  0  0  0  0
 29 92  1  0  0  0  0
 30 93  1  0  0  0  0
 31 94  1  0  0  0  0
 32 71  2  0  0  0  0
 33 72  1  0  0  0  0
 33 77  1  0  0  0  0
 34 78  1  0  0  0  0
 34 84  2  0  0  0  0
 35 58  1  0  0  0  0
 35 80  1  0  0  0  0
 35 85  2  0  0  0  0
 36 67  1  0  0  0  0
 36 73  1  0  0  0  0
 36 86  2  0  0  0  0
 37 68  1  0  0  0  0
 37 79  1  0  0  0  0
 37 87  2  0  0  0  0
 38 69  1  0  0  0  0
 38 81  1  0  0  0  0
 38 88  2  0  0  0  0
 39 74  1  0  0  0  0
 39 75  1  0  0  0  0
 39 89  2  0  0  0  0
 40 43  1  0  0  0  0
 41 58  1  0  0  0  0
 42 73  1  0  0  0  0
 43 45  1  0  0  0  0
 44 46  1  0  0  0  0
 44 49  1  0  0  0  0
 45 57  1  0  0  0  0
 46 59  1  0  0  0  0
 47 50  1  0  0  0  0
 47 55  1  0  0  0  0
 48 51  1  0  0  0  0
 48 55  1  0  0  0  0
 49 74  1  0  0  0  0
 50 75  1  0  0  0  0
 51 75  1  0  0  0  0
 52 56  1  0  0  0  0
 52 76  1  0  0  0  0
 53 59  1  0  0  0  0
 53 74  1  0  0  0  0
 54 60  1  0  0  0  0
 54 76  1  0  0  0  0
 56 60  1  0  0  0  0
 57 80  1  0  0  0  0
 58 73  1  0  0  0  0
 59 72  1  0  0  0  0
 60 82  1  0  0  0  0
 61 69  1  0  0  0  0
 62 70  1  0  0  0  0
 63 70  1  0  0  0  0
 64 70  1  0  0  0  0
 65 83  1  0  0  0  0
 66 68  1  0  0  0  0
 66 91  1  0  0  0  0
 67 70  1  0  0  0  0
 67 81  1  0  0  0  0
 68 76  1  0  0  0  0
 69 83  1  0  0  0  0
 71 72  1  0  0  0  0
M  CHG  2  82   1  83   1
M  ISO  4  39 100  66 101  75 100  91 101
M  END
> <Batch ID>
0005

> <Smiles>
CNC(C)C(=O)NC(C(=O)N1Cc2cc([101O:1][101CH2:1]C(C(N)=O)N3CC(N)C(c4ccc(C5CC[100N:0]([100C:0](=O)N6CCCC(n7nc(-c8ccc(Oc9ccc(F)cc9F)cc8)c(C(N)=O)c7N)C6)CC5)cc4F)C3)ccc2CC1C(=O)NC1CCCc2ccccc21)C(C)(C)C

> <Shape>
0.283

> <Color>
0.054

> <Negative vol penalty>
0.000

$$$$

  -OEChem-04042320263D

102113  0     1  0  0  0  0  0999 V2000
  -24.8676   -5.7288   22.6890 C   0  0  0  0  0  0  0  0  0  0  0  0
  -26.0062   -6.4937   22.4569 C   0  0  0  0  0  0  0  0  0  0  0  0
  -27.7998  -28.4724   17.7540 C   0  0  0  0  0  0  0  0  0  0  0  0
  -29.6793  -28.0528   20.9276 C   0  0  0  0  0  0  0  0  0  0  0  0
  -16.3454  -25.9114   23.2874 C   0  0  0  0  0  0  0  0  0  0  0  0
  -18.2522  -25.7443   21.8131 C   0  0  0  0  0  0  0  0  0  0  0  0
  -23.6097   -6.2393   22.3713 C   0  0  0  0  0  0  0  0  0  0  0  0
  -25.8877   -7.7692   21.9060 C   0  0  0  0  0  0  0  0  0  0  0  0
  -26.6171  -29.0533   18.2127 C   0  0  0  0  0  0  0  0  0  0  0  0
  -28.9721  -14.2325   22.0753 C   0  0  0  0  0  0  0  0  0  0  0  0
  -30.8619  -27.4718   20.4688 C   0  0  0  0  0  0  0  0  0  0  0  0
  -16.0674  -24.5602   23.0810 C   0  0  0  0  0  0  0  0  0  0  0  0
  -17.9742  -24.3931   21.6067 C   0  0  0  0  0  0  0  0  0  0  0  0
  -29.4943  -15.1995   21.2174 C   0  0  0  0  0  0  0  0  0  0  0  0
  -15.8228  -22.5451   19.7664 C   0  0  0  0  0  0  0  0  0  0  0  0
  -15.8739  -22.0655   18.4576 C   0  0  0  0  0  0  0  0  0  0  0  0
  -27.4551  -28.9755   20.4753 C   0  0  0  0  0  0  0  0  0  0  0  0
  -30.0238  -27.5495   18.2062 C   0  0  0  0  0  0  0  0  0  0  0  0
  -27.2640  -16.0090   20.7820 C   0  0  0  0  0  0  0  0  0  0  0  0
  -17.6063  -20.5073   19.0962 C   0  0  0  0  0  0  0  0  0  0  0  0
  -28.6521  -28.3902   20.0313 C   0  0  0  0  0  0  0  0  0  0  0  0
  -28.8269  -28.1349   18.6503 C   0  0  0  0  0  0  0  0  0  0  0  0
  -17.4378  -26.5035   22.6534 C   0  0  0  0  0  0  0  0  0  0  0  0
  -16.8874  -28.9932   22.5769 C   0  0  0  0  0  0  0  0  0  0  0  0
  -26.4452  -29.3044   19.5708 C   0  0  0  0  0  0  0  0  0  0  0  0
  -23.4749   -7.5255   21.8252 C   0  0  0  0  0  0  0  0  0  0  0  0
  -27.5887  -14.1393   22.2849 C   0  0  0  0  0  0  0  0  0  0  0  0
  -24.6268   -8.2968   21.5795 C   0  0  0  0  0  0  0  0  0  0  0  0
  -26.7270  -15.0415   21.6450 C   0  0  0  0  0  0  0  0  0  0  0  0
  -31.0338  -27.2207   19.1108 C   0  0  0  0  0  0  0  0  0  0  0  0
  -16.8818  -23.8011   22.2407 C   0  0  0  0  0  0  0  0  0  0  0  0
  -28.6401  -16.0860   20.5684 C   0  0  0  0  0  0  0  0  0  0  0  0
  -16.6635  -22.0058   20.7401 C   0  0  0  0  0  0  0  0  0  0  0  0
  -16.7657  -21.0466   18.1225 C   0  0  0  0  0  0  0  0  0  0  0  0
  -17.5552  -20.9869   20.4050 C   0  0  0  0  0  0  0  0  0  0  0  0
  -17.7251  -27.8993   22.8658 C   0  0  0  0  0  0  0  0  0  0  0  0
  -17.6153  -30.0935   22.9593 C   0  0  0  0  0  0  0  0  0  0  0  0
  -15.5692  -29.0131   22.0134 C   0  0  0  0  0  0  0  0  0  0  0  0
  -33.3316  -26.2418   19.4043 C   0  0  0  0  0  0  0  0  0  0  0  0
  -25.3858  -11.9085   21.7608 C   0  0  0  0  0  0  0  0  0  0  0  0
  -35.0055  -23.4061   19.5876 C   0  0  0  0  0  0  0  0  0  0  0  0
  -23.4624  -13.9906   23.3379 C   0  0  0  0  0  0  0  0  0  0  0  0
  -22.8417  -17.2077   24.2927 C   0  0  0  0  0  0  0  0  0  0  0  0
  -23.3418  -31.2598   23.4998 C   0  0  0  0  0  0  0  0  0  0  0  0
  -22.0977   -8.0159   21.4541 C   0  0  0  0  0  0  0  0  0  0  0  0
  -27.0433  -13.1078   23.2340 C   0  0  0  0  0  0  0  0  0  0  0  0
  -25.2358  -14.9964   21.8518 C   0  0  0  0  0  0  0  0  0  0  0  0
  -22.0301   -9.5231   21.2215 C   0  0  0  0  0  0  0  0  0  0  0  0
  -36.4112  -26.7928   19.2067 C   0  0  0  0  0  0  0  0  0  0  0  0
  -21.0012  -31.4706   26.0347 C   0  0  0  0  0  0  0  0  0  0  0  0
  -23.1868   -9.9793   20.3379 C   0  0  0  0  0  0  0  0  0  0  0  0
  -35.3467  -26.7874   18.1129 C   0  0  0  0  0  0  0  0  0  0  0  0
  -19.8056  -30.6889   25.4912 C   0  0  0  0  0  0  0  0  0  0  0  0
  -24.3906  -29.0046   21.0236 C   0  0  0  0  0  0  0  0  0  0  0  0
  -25.4057  -31.3051   20.7282 C   0  0  0  0  0  0  0  0  0  0  0  0
  -36.5847  -25.3168   19.5238 C   0  0  0  0  0  0  0  0  0  0  0  0
  -22.3114  -30.7685   25.6970 C   0  0  0  0  0  0  0  0  0  0  0  0
  -23.1102  -29.6610   21.5477 C   0  0  0  0  0  0  0  0  0  0  0  0
  -24.0968  -31.9060   21.2324 C   0  0  0  0  0  0  0  0  0  0  0  0
  -21.3176  -29.7427   23.6775 C   0  0  0  0  0  0  0  0  0  0  0  0
  -25.1589  -29.9361   20.0688 C   0  0  0  0  0  0  0  0  0  0  0  0
  -24.5373   -9.6945   21.0063 C   0  0  1  0  0  0  0  0  0  0  0  0
  -34.4180  -25.6488   18.5269 C   0  0  1  0  0  0  0  0  0  0  0  0
  -25.5777  -12.7728   22.9748 C   0  0  1  0  0  0  0  0  0  0  0  0
  -19.9633  -30.4133   23.9853 C   0  0  1  0  0  0  0  0  0  0  0  0
  -21.1730  -18.6046   25.5422 C   0  0  0  0  0  0  0  0  0  0  0  0
  -21.5572  -13.8379   20.9595 C   0  0  0  0  0  0  0  0  0  0  0  0
  -20.4396  -15.9103   21.8107 C   0  0  0  0  0  0  0  0  0  0  0  0
  -20.4368  -13.8353   23.1954 C   0  0  0  0  0  0  0  0  0  0  0  0
  -24.8625  -18.0467   26.2855 C   0  0  0  0  0  0  0  0  0  0  0  0
  -33.6214  -22.9166   19.2442 C   0  0  0  0  0  0  0  0  0  0  0  0
  -31.9500  -19.5420   19.8151 C   0  0  0  0  0  0  0  0  0  0  0  0
  -30.5724  -18.9537   19.5195 C   0  0  0  0  0  0  0  0  0  0  0  0
  -32.0368  -20.9888   19.3529 C   0  0  0  0  0  0  0  0  0  0  0  0
  -30.4555  -17.5192   20.0150 C   0  0  0  0  0  0  0  0  0  1  0  0
  -22.5816  -15.1483   22.9342 C   0  0  1  0  0  0  0  0  0  0  0  0
  -22.4629  -17.8045   25.6361 C   0  0  2  0  0  0  0  0  0  0  0  0
  -21.2817  -14.6828   22.2193 C   0  0  0  0  0  0  0  0  0  0  0  0
  -18.8957  -28.2708   23.3910 N   0  0  0  0  0  0  0  0  0  0  0  0
  -18.7988  -29.6105   23.4350 N   0  0  0  0  0  0  0  0  0  0  0  0
  -24.7504  -13.9659   22.7845 N   0  0  0  0  0  0  0  0  0  0  0  0
  -35.2846  -24.7198   19.2509 N   0  0  0  0  0  0  0  0  0  0  0  0
  -22.4218  -30.5216   24.2594 N   0  0  0  0  0  0  0  0  0  0  0  0
  -23.4022  -30.9798   22.1264 N   0  0  0  0  0  0  0  0  0  0  0  0
  -17.3521  -31.4172   22.9314 N   0  0  0  0  0  0  0  0  0  0  0  0
  -15.4392  -29.0946   20.6203 N   0  0  0  0  0  0  0  0  0  0  0  0
  -32.2169  -26.6389   18.6539 N   0  0  0  0  0  0  0  0  0  0  0  0
  -24.8125  -10.6802   22.0296 N   0  0  0  0  0  0  0  0  0  0  0  0
  -22.3509  -15.9276   24.1458 N   0  0  0  0  0  0  0  0  0  0  0  0
  -23.5423  -18.7086   26.1242 N   0  3  0  0  0  0  0  0  0  0  0  0
  -33.4105  -21.5055   19.6201 N   0  3  0  0  0  0  0  0  0  0  0  0
  -14.5370  -28.9765   22.7252 O   0  0  0  0  0  0  0  0  0  0  0  0
  -33.4820  -26.3272   20.6188 O   0  0  0  0  0  0  0  0  0  0  0  0
  -25.7310  -12.3256   20.6614 O   0  0  0  0  0  0  0  0  0  0  0  0
  -35.8129  -22.6507   20.1326 O   0  0  0  0  0  0  0  0  0  0  0  0
  -23.0262  -13.1433   24.1212 O   0  0  0  0  0  0  0  0  0  0  0  0
  -23.5035  -17.8177   23.4557 O   0  0  0  0  0  0  0  0  0  0  0  0
  -24.0664  -32.1191   24.0174 O   0  0  0  0  0  0  0  0  0  0  0  0
  -16.6110  -22.4825   22.0392 O   0  0  0  0  0  0  0  0  0  0  0  0
  -29.1509  -17.0374   19.7238 O   0  0  0  0  0  0  0  0  0  1  0  0
  -16.8136  -20.5850   16.8660 F   0  0  0  0  0  0  0  0  0  0  0  0
  -18.3645  -20.4641   21.3364 F   0  0  0  0  0  0  0  0  0  0  0  0
  1  2  1  0  0  0  0
  1  7  2  0  0  0  0
  2  8  2  0  0  0  0
  3  9  2  0  0  0  0
  3 22  1  0  0  0  0
  4 11  2  0  0  0  0
  4 21  1  0  0  0  0
  5 12  2  0  0  0  0
  5 23  1  0  0  0  0
  6 13  1  0  0  0  0
  6 23  2  0  0  0  0
  7 26  1  0  0  0  0
  8 28  1  0  0  0  0
  9 25  1  0  0  0  0
 10 14  2  0  0  0  0
 10 27  1  0  0  0  0
 11 30  1  0  0  0  0
 12 31  1  0  0  0  0
 13 31  2  0  0  0  0
 14 32  1  0  0  0  0
 15 16  2  0  0  0  0
 15 33  1  0  0  0  0
 16 34  1  0  0  0  0
 17 21  1  0  0  0  0
 17 25  2  0  0  0  0
 18 22  1  0  0  0  0
 18 30  2  0  0  0  0
 19 29  1  0  0  0  0
 19 32  2  0  0  0  0
 20 34  2  0  0  0  0
 20 35  1  0  0  0  0
 21 22  2  0  0  0  0
 23 36  1  0  0  0  0
 24 36  1  0  0  0  0
 24 37  2  0  0  0  0
 24 38  1  0  0  0  0
 25 61  1  0  0  0  0
 26 28  2  0  0  0  0
 26 45  1  0  0  0  0
 27 29  2  0  0  0  0
 27 46  1  0  0  0  0
 28 62  1  0  0  0  0
 29 47  1  0  0  0  0
 30 87  1  0  0  0  0
 31 99  1  0  0  0  0
 32100  1  0  0  0  0
 33 35  2  0  0  0  0
 33 99  1  0  0  0  0
 34101  1  0  0  0  0
 35102  1  0  0  0  0
 36 79  2  0  0  0  0
 37 80  1  0  0  0  0
 37 85  1  0  0  0  0
 38 86  1  0  0  0  0
 38 92  2  0  0  0  0
 39 63  1  0  0  0  0
 39 87  1  0  0  0  0
 39 93  2  0  0  0  0
 40 64  1  0  0  0  0
 40 88  1  0  0  0  0
 40 94  2  0  0  0  0
 41 71  1  0  0  0  0
 41 82  1  0  0  0  0
 41 95  2  0  0  0  0
 42 76  1  0  0  0  0
 42 81  1  0  0  0  0
 42 96  2  0  0  0  0
 43 77  1  0  0  0  0
 43 89  1  0  0  0  0
 43 97  2  0  0  0  0
 44 83  1  0  0  0  0
 44 84  1  0  0  0  0
 44 98  2  0  0  0  0
 45 48  1  0  0  0  0
 46 64  1  0  0  0  0
 47 81  1  0  0  0  0
 48 51  1  0  0  0  0
 49 52  1  0  0  0  0
 49 56  1  0  0  0  0
 50 53  1  0  0  0  0
 50 57  1  0  0  0  0
 51 62  1  0  0  0  0
 52 63  1  0  0  0  0
 53 65  1  0  0  0  0
 54 58  1  0  0  0  0
 54 61  1  0  0  0  0
 55 59  1  0  0  0  0
 55 61  1  0  0  0  0
 56 82  1  0  0  0  0
 57 83  1  0  0  0  0
 58 84  1  0  0  0  0
 59 84  1  0  0  0  0
 60 65  1  0  0  0  0
 60 83  1  0  0  0  0
 62 88  1  0  0  0  0
 63 82  1  0  0  0  0
 64 81  1  0  0  0  0
 65 80  1  0  0  0  0
 66 77  1  0  0  0  0
 67 78  1  0  0  0  0
 68 78  1  0  0  0  0
 69 78  1  0  0  0  0
 70 90  1  0  0  0  0
 71 91  1  0  0  0  0
 72 73  1  0  0  0  0
 72 74  1  0  0  0  0
 73 75  1  0  0  0  0
 74 91  1  0  0  0  0
 75100  1  0  0  0  0
 76 78  1  0  0  0  0
 76 89  1  0  0  0  0
 77 90  1  0  0  0  0
 79 80  1  0  0  0  0
M  CHG  2  90   1  91   1
M  ISO  4  44 100  75 101  84 100 100 101
M  END
> <Batch ID>
0005

> <Smiles>
CNC(C)C(=O)NC(C(=O)N1Cc2cc([101O:1][101CH2:1]CCCNCC(=O)N3CCCC3C(=O)Nc3ccc4cc(C5CC[100N:0]([100C:0](=O)N6CCCC(n7nc(-c8ccc(Oc9ccc(F)cc9F)cc8)c(C(N)=O)c7N)C6)CC5)ccc4c3)ccc2CC1C(=O)NC1CCCc2ccccc21)C(C)(C)C

> <Shape>
0.219

> <Color>
0.066

> <Negative vol penalty>
0.000

$$$$

  -OEChem-04042320263D

 94104  0     1  0  0  0  0  0999 V2000
  -17.6515  -31.2935   25.0140 C   0  0  0  0  0  0  0  0  0  0  0  0
  -18.9543  -31.0674   25.4465 C   0  0  0  0  0  0  0  0  0  0  0  0
  -22.4162  -10.3646   21.2596 C   0  0  0  0  0  0  0  0  0  0  0  0
  -24.3959   -9.0063   21.5299 C   0  0  0  0  0  0  0  0  0  0  0  0
  -17.1747  -30.6476   23.8741 C   0  0  0  0  0  0  0  0  0  0  0  0
  -19.7808  -30.1944   24.7398 C   0  0  0  0  0  0  0  0  0  0  0  0
  -25.8306  -30.6959   23.9311 C   0  0  0  0  0  0  0  0  0  0  0  0
  -31.0468  -18.3703   18.1447 C   0  0  0  0  0  0  0  0  0  0  0  0
  -21.7418   -9.5652   22.1825 C   0  0  0  0  0  0  0  0  0  0  0  0
  -23.7215   -8.2069   22.4528 C   0  0  0  0  0  0  0  0  0  0  0  0
  -26.9154  -30.1035   24.5760 C   0  0  0  0  0  0  0  0  0  0  0  0
  -21.4605   -5.6941   22.3891 C   0  0  0  0  0  0  0  0  0  0  0  0
  -21.5925   -4.3109   22.2670 C   0  0  0  0  0  0  0  0  0  0  0  0
  -31.1251  -19.6749   17.6733 C   0  0  0  0  0  0  0  0  0  0  0  0
  -27.0087  -28.4153   22.8554 C   0  0  0  0  0  0  0  0  0  0  0  0
  -22.5417   -4.2055   24.4862 C   0  0  0  0  0  0  0  0  0  0  0  0
  -23.7433  -10.0851   20.9333 C   0  0  0  0  0  0  0  0  0  0  0  0
  -24.0928  -11.1328   18.6337 C   0  0  0  0  0  0  0  0  0  0  0  0
  -17.9988  -29.7737   23.1476 C   0  0  0  0  0  0  0  0  0  0  0  0
  -25.3189  -30.1452   22.7473 C   0  0  0  0  0  0  0  0  0  0  0  0
  -19.3141  -29.5352   23.5899 C   0  0  0  0  0  0  0  0  0  0  0  0
  -30.5292  -18.1148   19.4173 C   0  0  0  0  0  0  0  0  0  0  0  0
  -25.9189  -29.0040   22.1960 C   0  0  0  0  0  0  0  0  0  0  0  0
  -22.3944   -8.4864   22.7791 C   0  0  0  0  0  0  0  0  0  0  0  0
  -27.5028  -28.9613   24.0398 C   0  0  0  0  0  0  0  0  0  0  0  0
  -21.8691   -6.3331   23.5598 C   0  0  0  0  0  0  0  0  0  0  0  0
  -22.1331   -3.5666   23.3155 C   0  0  0  0  0  0  0  0  0  0  0  0
  -22.4097   -5.5888   24.6083 C   0  0  0  0  0  0  0  0  0  0  0  0
  -24.4404  -10.9102   19.9796 C   0  0  0  0  0  0  0  0  0  0  0  0
  -30.1211  -19.2104   20.1855 C   0  0  0  0  0  0  0  0  0  0  0  0
  -30.6824  -20.6895   18.5024 C   0  0  0  0  0  0  0  0  0  0  0  0
  -25.0638  -11.9833   18.1645 C   0  0  0  0  0  0  0  0  0  0  0  0
  -30.9966  -23.5618   20.0025 C   0  0  0  0  0  0  0  0  0  0  0  0
  -22.9907  -10.6169   17.8755 C   0  0  0  0  0  0  0  0  0  0  0  0
  -22.5255  -28.9044   21.8747 C   0  0  0  0  0  0  0  0  0  0  0  0
  -23.9134  -28.8357   18.9436 C   0  0  0  0  0  0  0  0  0  0  0  0
  -31.4843  -25.6980   22.9207 C   0  0  0  0  0  0  0  0  0  0  0  0
  -25.9986  -28.7562   16.2432 C   0  0  0  0  0  0  0  0  0  0  0  0
  -28.5994  -15.7367   21.3670 C   0  0  0  0  0  0  0  0  0  0  0  0
  -17.4238  -29.0621   21.9485 C   0  0  0  0  0  0  0  0  0  0  0  0
  -24.1651  -30.8116   22.0494 C   0  0  0  0  0  0  0  0  0  0  0  0
  -30.4665  -16.7009   19.9388 C   0  0  0  0  0  0  0  0  0  0  0  0
  -25.4202  -28.3855   20.9165 C   0  0  0  0  0  0  0  0  0  0  0  0
  -29.5363  -19.0042   21.5585 C   0  0  0  0  0  0  0  0  0  0  0  0
  -18.4839  -28.4407   21.0428 C   0  0  0  0  0  0  0  0  0  0  0  0
  -33.8108  -23.9705   19.3093 C   0  0  0  0  0  0  0  0  0  0  0  0
  -29.6349  -13.1964   18.8300 C   0  0  0  0  0  0  0  0  0  0  0  0
  -19.5128  -27.6775   21.8709 C   0  0  0  0  0  0  0  0  0  0  0  0
  -33.3804  -24.1353   20.7531 C   0  0  0  0  0  0  0  0  0  0  0  0
  -28.3935  -12.3066   18.7835 C   0  0  0  0  0  0  0  0  0  0  0  0
  -29.9432  -17.6608   22.1533 C   0  0  0  0  0  0  0  0  0  0  0  0
  -33.0171  -22.8398   18.6826 C   0  0  0  0  0  0  0  0  0  0  0  0
  -29.7983  -13.8435   20.2000 C   0  0  0  0  0  0  0  0  0  0  0  0
  -27.3610  -13.7417   20.6032 C   0  0  0  0  0  0  0  0  0  0  0  0
  -20.2490  -28.6144   22.8360 C   0  0  1  0  0  0  0  0  0  0  0  0
  -31.9070  -24.5011   20.7920 C   0  0  2  0  0  0  0  0  0  0  0  0
  -23.4006  -29.8688   21.1252 C   0  0  1  0  0  0  0  0  0  0  0  0
  -27.1427  -13.0824   19.2310 C   0  0  2  0  0  0  0  0  0  0  0  0
  -26.0698  -28.0762   13.8287 C   0  0  0  0  0  0  0  0  0  0  0  0
  -24.1233  -25.9080   19.7769 C   0  0  0  0  0  0  0  0  0  0  0  0
  -25.1191  -25.4133   17.5337 C   0  0  0  0  0  0  0  0  0  0  0  0
  -22.7960  -26.3076   17.6953 C   0  0  0  0  0  0  0  0  0  0  0  0
  -26.5664  -31.5233   15.3605 C   0  0  0  0  0  0  0  0  0  0  0  0
  -30.7485  -22.1030   18.0286 C   0  0  0  0  0  0  0  0  0  0  0  0
  -30.9204  -25.4710   24.3120 C   0  0  0  0  0  0  0  0  0  0  0  0
  -30.2930  -26.7302   24.8993 C   0  0  0  0  0  0  0  0  0  0  0  0
  -29.1156  -27.2137   24.0653 C   0  0  0  0  0  0  0  0  0  1  0  0
  -24.7496  -27.8376   18.1798 C   0  0  1  0  0  0  0  0  0  0  0  0
  -25.8051  -29.2096   14.8074 C   0  0  2  0  0  0  0  0  0  0  0  0
  -24.2089  -26.3859   18.3136 C   0  0  0  0  0  0  0  0  0  0  0  0
  -25.5460  -11.5662   20.3419 N   0  0  0  0  0  0  0  0  0  0  0  0
  -30.1818  -20.4904   19.7416 N   0  0  0  0  0  0  0  0  0  0  0  0
  -25.9016  -12.2093   19.2167 N   0  0  0  0  0  0  0  0  0  0  0  0
  -31.5728  -22.9379   18.8923 N   0  0  0  0  0  0  0  0  0  0  0  0
  -24.2857  -29.0701   20.2749 N   0  0  0  0  0  0  0  0  0  0  0  0
  -29.6989  -16.5902   21.1883 N   0  0  0  0  0  0  0  0  0  0  0  0
  -28.5803  -14.5529   20.6122 N   0  0  0  0  0  0  0  0  0  0  0  0
  -25.2743  -12.5522   16.9585 N   0  0  0  0  0  0  0  0  0  0  0  0
  -22.0866   -9.7557   18.5122 N   0  0  0  0  0  0  0  0  0  0  0  0
  -21.2534  -29.3802   22.1295 N   0  0  0  0  0  0  0  0  0  0  0  0
  -31.4320  -24.5436   22.1516 N   0  0  0  0  0  0  0  0  0  0  0  0
  -24.8159  -28.3264   16.8068 N   0  0  0  0  0  0  0  0  0  0  0  0
  -26.7328  -30.3317   14.4891 N   0  3  0  0  0  0  0  0  0  0  0  0
  -29.8000  -23.4671   20.2908 O   0  0  0  0  0  0  0  0  0  0  0  0
  -22.8220  -10.8980   16.6647 O   0  0  0  0  0  0  0  0  0  0  0  0
  -22.9710  -27.8092   22.1967 O   0  0  0  0  0  0  0  0  0  0  0  0
  -22.9693  -29.3924   18.3777 O   0  0  0  0  0  0  0  0  0  0  0  0
  -31.9273  -26.7783   22.5401 O   0  0  0  0  0  0  0  0  0  0  0  0
  -27.0905  -28.7774   16.8070 O   0  0  0  0  0  0  0  0  0  0  0  0
  -27.6795  -16.0212   22.1445 O   0  0  0  0  0  0  0  0  0  0  0  0
  -21.7366   -7.7063   23.6798 O   0  0  0  0  0  0  0  0  0  0  0  0
  -28.5692  -28.3764   24.6722 O   0  0  0  0  0  0  0  0  0  1  0  0
  -22.2584   -2.2381   23.1987 F   0  0  0  0  0  0  0  0  0  0  0  0
  -22.8030   -6.1969   25.7359 F   0  0  0  0  0  0  0  0  0  0  0  0
  1  2  1  0  0  0  0
  1  5  2  0  0  0  0
  2  6  2  0  0  0  0
  3  9  2  0  0  0  0
  3 17  1  0  0  0  0
  4 10  1  0  0  0  0
  4 17  2  0  0  0  0
  5 19  1  0  0  0  0
  6 21  1  0  0  0  0
  7 11  2  0  0  0  0
  7 20  1  0  0  0  0
  8 14  2  0  0  0  0
  8 22  1  0  0  0  0
  9 24  1  0  0  0  0
 10 24  2  0  0  0  0
 11 25  1  0  0  0  0
 12 13  2  0  0  0  0
 12 26  1  0  0  0  0
 13 27  1  0  0  0  0
 14 31  1  0  0  0  0
 15 23  1  0  0  0  0
 15 25  2  0  0  0  0
 16 27  2  0  0  0  0
 16 28  1  0  0  0  0
 17 29  1  0  0  0  0
 18 29  1  0  0  0  0
 18 32  2  0  0  0  0
 18 34  1  0  0  0  0
 19 21  2  0  0  0  0
 19 40  1  0  0  0  0
 20 23  2  0  0  0  0
 20 41  1  0  0  0  0
 21 55  1  0  0  0  0
 22 30  2  0  0  0  0
 22 42  1  0  0  0  0
 23 43  1  0  0  0  0
 24 91  1  0  0  0  0
 25 92  1  0  0  0  0
 26 28  2  0  0  0  0
 26 91  1  0  0  0  0
 27 93  1  0  0  0  0
 28 94  1  0  0  0  0
 29 71  2  0  0  0  0
 30 44  1  0  0  0  0
 30 72  1  0  0  0  0
 31 64  1  0  0  0  0
 31 72  2  0  0  0  0
 32 73  1  0  0  0  0
 32 78  1  0  0  0  0
 33 56  1  0  0  0  0
 33 74  1  0  0  0  0
 33 84  2  0  0  0  0
 34 79  1  0  0  0  0
 34 85  2  0  0  0  0
 35 57  1  0  0  0  0
 35 80  1  0  0  0  0
 35 86  2  0  0  0  0
 36 68  1  0  0  0  0
 36 75  1  0  0  0  0
 36 87  2  0  0  0  0
 37 65  1  0  0  0  0
 37 81  1  0  0  0  0
 37 88  2  0  0  0  0
 38 69  1  0  0  0  0
 38 82  1  0  0  0  0
 38 89  2  0  0  0  0
 39 76  1  0  0  0  0
 39 77  1  0  0  0  0
 39 90  2  0  0  0  0
 40 45  1  0  0  0  0
 41 57  1  0  0  0  0
 42 76  1  0  0  0  0
 43 75  1  0  0  0  0
 44 51  1  0  0  0  0
 45 48  1  0  0  0  0
 46 49  1  0  0  0  0
 46 52  1  0  0  0  0
 47 50  1  0  0  0  0
 47 53  1  0  0  0  0
 48 55  1  0  0  0  0
 49 56  1  0  0  0  0
 50 58  1  0  0  0  0
 51 76  1  0  0  0  0
 52 74  1  0  0  0  0
 53 77  1  0  0  0  0
 54 58  1  0  0  0  0
 54 77  1  0  0  0  0
 55 80  1  0  0  0  0
 56 81  1  0  0  0  0
 57 75  1  0  0  0  0
 58 73  1  0  0  0  0
 59 69  1  0  0  0  0
 60 70  1  0  0  0  0
 61 70  1  0  0  0  0
 62 70  1  0  0  0  0
 63 83  1  0  0  0  0
 64 74  1  0  0  0  0
 65 66  1  0  0  0  0
 66 67  1  0  0  0  0
 67 92  1  0  0  0  0
 68 70  1  0  0  0  0
 68 82  1  0  0  0  0
 69 83  1  0  0  0  0
 71 73  1  0  0  0  0
M  CHG  1  83   1
M  ISO  4  39 100  67 101  76 100  92 101
M  END
> <Batch ID>
0005

> <Smiles>
CNC(C)C(=O)NC(C(=O)N1Cc2cc([101O:1][101CH2:1]CCC(=O)NC3CCCN(Cc4ccc5c(n4)CC[100N:0]([100C:0](=O)N4CCCC(n6nc(-c7ccc(Oc8ccc(F)cc8F)cc7)c(C(N)=O)c6N)C4)C5)C3=O)ccc2CC1C(=O)NC1CCCc2ccccc21)C(C)(C)C

> <Shape>
0.304

> <Color>
0.096

> <Negative vol penalty>
0.000

$$$$

  -OEChem-04042320263D

 89 98  0     1  0  0  0  0  0999 V2000
  -26.7537  -35.8254   24.2247 C   0  0  0  0  0  0  0  0  0  0  0  0
  -27.7595  -34.8780   24.3863 C   0  0  0  0  0  0  0  0  0  0  0  0
  -22.6815  -10.1924   20.1953 C   0  0  0  0  0  0  0  0  0  0  0  0
  -24.3020   -9.5013   21.8485 C   0  0  0  0  0  0  0  0  0  0  0  0
  -25.4341  -35.4994   24.5353 C   0  0  0  0  0  0  0  0  0  0  0  0
  -27.4466  -33.6043   24.8596 C   0  0  0  0  0  0  0  0  0  0  0  0
  -30.1071  -28.3255   23.2591 C   0  0  0  0  0  0  0  0  0  0  0  0
  -30.2176  -18.9857   23.3281 C   0  0  0  0  0  0  0  0  0  0  0  0
  -29.7359  -17.7671   22.8503 C   0  0  0  0  0  0  0  0  0  0  0  0
  -21.9540   -9.0237   20.4197 C   0  0  0  0  0  0  0  0  0  0  0  0
  -23.5744   -8.3325   22.0730 C   0  0  0  0  0  0  0  0  0  0  0  0
  -31.0991  -27.5541   23.8630 C   0  0  0  0  0  0  0  0  0  0  0  0
  -20.7950   -7.4166   23.7631 C   0  0  0  0  0  0  0  0  0  0  0  0
  -20.5823   -7.0316   25.0868 C   0  0  0  0  0  0  0  0  0  0  0  0
  -29.4000  -26.1784   24.8827 C   0  0  0  0  0  0  0  0  0  0  0  0
  -31.8026  -17.4218   21.6475 C   0  0  0  0  0  0  0  0  0  0  0  0
  -21.7389   -4.9522   24.6678 C   0  0  0  0  0  0  0  0  0  0  0  0
  -23.8555  -10.4312   20.9096 C   0  0  0  0  0  0  0  0  0  0  0  0
  -24.1632  -12.9628   20.8479 C   0  0  0  0  0  0  0  0  0  0  0  0
  -25.1034  -34.2179   25.0035 C   0  0  0  0  0  0  0  0  0  0  0  0
  -28.7517  -28.0353   23.4715 C   0  0  0  0  0  0  0  0  0  0  0  0
  -26.1215  -33.2612   25.1780 C   0  0  0  0  0  0  0  0  0  0  0  0
  -28.3928  -26.9461   24.2782 C   0  0  0  0  0  0  0  0  0  0  0  0
  -32.2843  -18.6405   22.1253 C   0  0  0  0  0  0  0  0  0  0  0  0
  -31.4918  -19.4225   22.9656 C   0  0  0  0  0  0  0  0  0  0  0  0
  -30.5284  -16.9850   22.0100 C   0  0  0  0  0  0  0  0  0  0  0  0
  -22.4004   -8.0938   21.3586 C   0  0  0  0  0  0  0  0  0  0  0  0
  -30.7456  -26.4822   24.6773 C   0  0  0  0  0  0  0  0  0  0  0  0
  -21.4796   -6.5694   22.8917 C   0  0  0  0  0  0  0  0  0  0  0  0
  -21.0543   -5.7994   25.5392 C   0  0  0  0  0  0  0  0  0  0  0  0
  -21.9515   -5.3372   23.3441 C   0  0  0  0  0  0  0  0  0  0  0  0
  -24.6078  -11.6380   20.6778 C   0  0  0  0  0  0  0  0  0  0  0  0
  -25.2441  -13.7353   20.4993 C   0  0  0  0  0  0  0  0  0  0  0  0
  -22.8872  -13.4516   21.2823 C   0  0  0  0  0  0  0  0  0  0  0  0
  -26.2990  -29.5944   24.7588 C   0  0  0  0  0  0  0  0  0  0  0  0
  -24.6149  -27.0368   23.6887 C   0  0  0  0  0  0  0  0  0  0  0  0
  -25.0584  -23.4586   23.5602 C   0  0  0  0  0  0  0  0  0  0  0  0
  -30.6963  -14.8499   20.6836 C   0  0  0  0  0  0  0  0  0  0  0  0
  -23.6699  -33.9269   25.3709 C   0  0  0  0  0  0  0  0  0  0  0  0
  -27.6941  -28.8607   22.7913 C   0  0  0  0  0  0  0  0  0  0  0  0
  -26.9522  -26.5805   24.5219 C   0  0  0  0  0  0  0  0  0  0  0  0
  -23.3675  -32.4372   25.5113 C   0  0  0  0  0  0  0  0  0  0  0  0
  -29.6071  -12.4774   18.2624 C   0  0  0  0  0  0  0  0  0  0  0  0
  -24.4464  -31.7494   26.3418 C   0  0  0  0  0  0  0  0  0  0  0  0
  -28.1728  -12.1565   18.6889 C   0  0  0  0  0  0  0  0  0  0  0  0
  -30.5227  -12.6903   19.4666 C   0  0  0  0  0  0  0  0  0  0  0  0
  -32.0611  -20.8064   24.9105 C   0  0  0  0  0  0  0  0  0  0  0  0
  -31.7072  -21.8750   22.6905 C   0  0  0  0  0  0  0  0  0  0  0  0
  -28.6104  -13.3565   20.8697 C   0  0  0  0  0  0  0  0  0  0  0  0
  -33.0800  -21.8814   25.2636 C   0  0  0  0  0  0  0  0  0  0  0  0
  -32.7236  -22.9511   23.0508 C   0  0  0  0  0  0  0  0  0  0  0  0
  -25.8181  -31.8610   25.6654 C   0  0  1  0  0  0  0  0  0  0  0  0
  -26.3399  -28.7903   23.4902 C   0  0  1  0  0  0  0  0  0  0  0  0
  -27.6364  -13.1978   19.6908 C   0  0  2  0  0  0  0  0  0  0  0  0
  -24.1176  -21.7537   21.9772 C   0  0  0  0  0  0  0  0  0  0  0  0
  -22.4271  -26.7167   25.7913 C   0  0  0  0  0  0  0  0  0  0  0  0
  -22.4378  -24.2565   25.3272 C   0  0  0  0  0  0  0  0  0  0  0  0
  -21.8238  -25.8622   23.5196 C   0  0  0  0  0  0  0  0  0  0  0  0
  -27.7517  -22.4477   22.8650 C   0  0  0  0  0  0  0  0  0  0  0  0
  -33.6177  -24.2966   24.9506 C   0  0  0  0  0  0  0  0  0  0  0  0
  -32.9553  -25.6086   24.5789 C   0  0  0  0  0  0  0  0  0  1  0  0
  -24.2353  -25.6919   24.2597 C   0  0  1  0  0  0  0  0  0  0  0  0
  -25.3196  -22.6191   22.3227 C   0  0  2  0  0  0  0  0  0  0  0  0
  -33.6520  -19.0851   21.7203 C   0  0  0  0  0  0  0  0  0  0  0  0
  -22.7549  -25.6452   24.7324 C   0  0  0  0  0  0  0  0  0  0  0  0
  -25.8726  -11.5690   20.2539 N   0  0  0  0  0  0  0  0  0  0  0  0
  -26.2319  -12.8602   20.1547 N   0  0  0  0  0  0  0  0  0  0  0  0
  -31.9587  -20.6484   23.4538 N   0  0  0  0  0  0  0  0  0  0  0  0
  -25.9547  -27.4214   23.8397 N   0  0  0  0  0  0  0  0  0  0  0  0
  -29.9526  -13.6927   20.3694 N   0  0  0  0  0  0  0  0  0  0  0  0
  -25.4364  -15.0708   20.4570 N   0  0  0  0  0  0  0  0  0  0  0  0
  -21.8885  -12.5212   21.6009 N   0  0  0  0  0  0  0  0  0  0  0  0
  -30.0391  -15.7468   21.5252 N   0  0  0  0  0  0  0  0  0  0  0  0
  -25.9241  -30.9120   24.5779 N   0  0  0  0  0  0  0  0  0  0  0  0
  -24.5675  -24.7058   23.2370 N   0  0  0  0  0  0  0  0  0  0  0  0
  -32.7257  -23.1578   24.5436 N   0  3  0  0  0  0  0  0  0  0  0  0
  -26.4937  -21.7274   22.5400 N   0  3  0  0  0  0  0  0  0  0  0  0
  -22.6346  -14.6772   21.3691 O   0  0  0  0  0  0  0  0  0  0  0  0
  -26.5849  -29.0586   25.8232 O   0  0  0  0  0  0  0  0  0  0  0  0
  -23.7559  -27.7179   23.1231 O   0  0  0  0  0  0  0  0  0  0  0  0
  -25.2655  -23.0475   24.6998 O   0  0  0  0  0  0  0  0  0  0  0  0
  -31.8216  -15.0447   20.2170 O   0  0  0  0  0  0  0  0  0  0  0  0
  -21.6906   -6.9534   21.5781 O   0  0  0  0  0  0  0  0  0  0  0  0
  -31.7118  -25.7280   25.2686 O   0  0  0  0  0  0  0  0  0  1  0  0
  -20.8513   -5.4305   26.8107 F   0  0  0  0  0  0  0  0  0  0  0  0
  -22.6109   -4.5195   22.5120 F   0  0  0  0  0  0  0  0  0  0  0  0
  -34.2894  -18.2038   20.8957 F   0  0  0  0  0  0  0  0  0  0  0  0
  -33.6614  -20.2740   21.0501 F   0  0  0  0  0  0  0  0  0  0  0  0
  -34.4828  -19.2574   22.7880 F   0  0  0  0  0  0  0  0  0  0  0  0
  1  2  1  0  0  0  0
  1  5  2  0  0  0  0
  2  6  2  0  0  0  0
  3 10  2  0  0  0  0
  3 18  1  0  0  0  0
  4 11  1  0  0  0  0
  4 18  2  0  0  0  0
  5 20  1  0  0  0  0
  6 22  1  0  0  0  0
  7 12  2  0  0  0  0
  7 21  1  0  0  0  0
  8  9  2  0  0  0  0
  8 25  1  0  0  0  0
  9 26  1  0  0  0  0
 10 27  1  0  0  0  0
 11 27  2  0  0  0  0
 12 28  1  0  0  0  0
 13 14  2  0  0  0  0
 13 29  1  0  0  0  0
 14 30  1  0  0  0  0
 15 23  1  0  0  0  0
 15 28  2  0  0  0  0
 16 24  1  0  0  0  0
 16 26  2  0  0  0  0
 17 30  2  0  0  0  0
 17 31  1  0  0  0  0
 18 32  1  0  0  0  0
 19 32  1  0  0  0  0
 19 33  2  0  0  0  0
 19 34  1  0  0  0  0
 20 22  2  0  0  0  0
 20 39  1  0  0  0  0
 21 23  2  0  0  0  0
 21 40  1  0  0  0  0
 22 52  1  0  0  0  0
 23 41  1  0  0  0  0
 24 25  2  0  0  0  0
 24 64  1  0  0  0  0
 25 68  1  0  0  0  0
 26 73  1  0  0  0  0
 27 83  1  0  0  0  0
 28 84  1  0  0  0  0
 29 31  2  0  0  0  0
 29 83  1  0  0  0  0
 30 85  1  0  0  0  0
 31 86  1  0  0  0  0
 32 66  2  0  0  0  0
 33 67  1  0  0  0  0
 33 71  1  0  0  0  0
 34 72  1  0  0  0  0
 34 78  2  0  0  0  0
 35 53  1  0  0  0  0
 35 74  1  0  0  0  0
 35 79  2  0  0  0  0
 36 62  1  0  0  0  0
 36 69  1  0  0  0  0
 36 80  2  0  0  0  0
 37 63  1  0  0  0  0
 37 75  1  0  0  0  0
 37 81  2  0  0  0  0
 38 70  1  0  0  0  0
 38 73  1  0  0  0  0
 38 82  2  0  0  0  0
 39 42  1  0  0  0  0
 40 53  1  0  0  0  0
 41 69  1  0  0  0  0
 42 44  1  0  0  0  0
 43 45  1  0  0  0  0
 43 46  1  0  0  0  0
 44 52  1  0  0  0  0
 45 54  1  0  0  0  0
 46 70  1  0  0  0  0
 47 50  1  0  0  0  0
 47 68  1  0  0  0  0
 48 51  1  0  0  0  0
 48 68  1  0  0  0  0
 49 54  1  0  0  0  0
 49 70  1  0  0  0  0
 50 76  1  0  0  0  0
 51 76  1  0  0  0  0
 52 74  1  0  0  0  0
 53 69  1  0  0  0  0
 54 67  1  0  0  0  0
 55 63  1  0  0  0  0
 56 65  1  0  0  0  0
 57 65  1  0  0  0  0
 58 65  1  0  0  0  0
 59 77  1  0  0  0  0
 60 61  1  0  0  0  0
 60 76  1  0  0  0  0
 61 84  1  0  0  0  0
 62 65  1  0  0  0  0
 62 75  1  0  0  0  0
 63 77  1  0  0  0  0
 64 87  1  0  0  0  0
 64 88  1  0  0  0  0
 64 89  1  0  0  0  0
 66 67  1  0  0  0  0
M  CHG  2  76   1  77   1
M  ISO  4  38 100  61 101  73 100  84 101
M  END
> <Batch ID>
0005

> <Smiles>
CNC(C)C(=O)NC(C(=O)N1Cc2cc([101O:1][101CH2:1]CN3CCN(c4ccc([100NH:0][100C:0](=O)N5CCCC(n6nc(-c7ccc(Oc8ccc(F)cc8F)cc7)c(C(N)=O)c6N)C5)cc4C(F)(F)F)CC3)ccc2CC1C(=O)NC1CCCc2ccccc21)C(C)(C)C

> <Shape>
0.268

> <Color>
0.198

> <Negative vol penalty>
0.000

$$$$

  -OEChem-04042320263D

 95105  0     1  0  0  0  0  0999 V2000
  -29.0531  -34.9329   24.7532 C   0  0  0  0  0  0  0  0  0  0  0  0
  -29.0295  -33.5937   24.3770 C   0  0  0  0  0  0  0  0  0  0  0  0
  -33.1342  -19.4896   18.5732 C   0  0  0  0  0  0  0  0  0  0  0  0
  -27.5836  -11.8135   18.5085 C   0  0  0  0  0  0  0  0  0  0  0  0
  -28.4285  -13.8275   19.5414 C   0  0  0  0  0  0  0  0  0  0  0  0
  -27.8628  -35.5902   25.0619 C   0  0  0  0  0  0  0  0  0  0  0  0
  -27.8156  -32.9107   24.3104 C   0  0  0  0  0  0  0  0  0  0  0  0
  -25.6107  -21.3992   19.9764 C   0  0  0  0  0  0  0  0  0  0  0  0
  -27.3980  -30.0956   20.1216 C   0  0  0  0  0  0  0  0  0  0  0  0
  -33.6784  -19.5094   19.8573 C   0  0  0  0  0  0  0  0  0  0  0  0
  -32.3698  -20.5661   18.1230 C   0  0  0  0  0  0  0  0  0  0  0  0
  -26.6417  -21.8018   19.1288 C   0  0  0  0  0  0  0  0  0  0  0  0
  -28.6957  -11.7783   17.6674 C   0  0  0  0  0  0  0  0  0  0  0  0
  -29.5406  -13.7923   18.7002 C   0  0  0  0  0  0  0  0  0  0  0  0
  -28.0761  -28.8775   20.1029 C   0  0  0  0  0  0  0  0  0  0  0  0
  -30.2680  -14.5934   15.4971 C   0  0  0  0  0  0  0  0  0  0  0  0
  -30.6595  -15.7867   14.8901 C   0  0  0  0  0  0  0  0  0  0  0  0
  -28.2002  -20.5386   20.4558 C   0  0  0  0  0  0  0  0  0  0  0  0
  -26.0204  -27.7318   20.6324 C   0  0  0  0  0  0  0  0  0  0  0  0
  -32.6936  -21.6819   20.2412 C   0  0  0  0  0  0  0  0  0  0  0  0
  -32.8142  -15.6300   15.9717 C   0  0  0  0  0  0  0  0  0  0  0  0
  -27.4499  -12.8382   19.4455 C   0  0  0  0  0  0  0  0  0  0  0  0
  -25.9044  -11.8934   21.2418 C   0  0  0  0  0  0  0  0  0  0  0  0
  -26.6328  -34.9175   24.9896 C   0  0  0  0  0  0  0  0  0  0  0  0
  -26.0259  -30.1420   20.4071 C   0  0  0  0  0  0  0  0  0  0  0  0
  -26.6079  -33.5593   24.6196 C   0  0  0  0  0  0  0  0  0  0  0  0
  -25.8542  -20.5623   21.0850 C   0  0  0  0  0  0  0  0  0  0  0  0
  -27.1722  -20.1251   21.3261 C   0  0  0  0  0  0  0  0  0  0  0  0
  -25.3267  -28.9514   20.6516 C   0  0  0  0  0  0  0  0  0  0  0  0
  -27.9386  -21.3714   19.3694 C   0  0  0  0  0  0  0  0  0  0  0  0
  -33.4581  -20.6055   20.6914 C   0  0  0  0  0  0  0  0  0  0  0  0
  -32.1495  -21.6622   18.9570 C   0  0  0  0  0  0  0  0  0  0  0  0
  -29.6742  -12.7677   17.7632 C   0  0  0  0  0  0  0  0  0  0  0  0
  -27.3879  -27.6957   20.3611 C   0  0  0  0  0  0  0  0  0  0  0  0
  -31.1496  -13.9185   16.3415 C   0  0  0  0  0  0  0  0  0  0  0  0
  -31.9326  -16.3050   15.1274 C   0  0  0  0  0  0  0  0  0  0  0  0
  -32.4227  -14.4367   16.5788 C   0  0  0  0  0  0  0  0  0  0  0  0
  -26.3010  -12.8754   20.3143 C   0  0  0  0  0  0  0  0  0  0  0  0
  -24.7613  -12.3998   21.8103 C   0  0  0  0  0  0  0  0  0  0  0  0
  -26.5148  -10.6359   21.5609 C   0  0  0  0  0  0  0  0  0  0  0  0
  -24.2531  -31.4663   22.6890 C   0  0  0  0  0  0  0  0  0  0  0  0
  -21.7966  -30.4095   20.8530 C   0  0  0  0  0  0  0  0  0  0  0  0
  -20.6788  -28.2079   18.4970 C   0  0  0  0  0  0  0  0  0  0  0  0
  -22.9618  -18.3735   21.8161 C   0  0  0  0  0  0  0  0  0  0  0  0
  -25.3771  -35.6570   25.3783 C   0  0  0  0  0  0  0  0  0  0  0  0
  -25.3036  -31.4613   20.3972 C   0  0  0  0  0  0  0  0  0  0  0  0
  -27.5386  -19.2038   22.4643 C   0  0  0  0  0  0  0  0  0  0  0  0
  -23.8491  -28.9452   20.9434 C   0  0  0  0  0  0  0  0  0  0  0  0
  -24.0960  -34.9645   24.9206 C   0  0  0  0  0  0  0  0  0  0  0  0
  -27.2330  -19.7741   23.8455 C   0  0  0  0  0  0  0  0  0  0  0  0
  -25.7667  -19.6571   24.2458 C   0  0  0  0  0  0  0  0  0  0  0  0
  -21.1795  -15.4125   20.5533 C   0  0  0  0  0  0  0  0  0  0  0  0
  -24.1489  -33.4751   25.2456 C   0  0  0  0  0  0  0  0  0  0  0  0
  -24.8226  -20.5343   23.4282 C   0  0  0  0  0  0  0  0  0  0  0  0
  -22.1767  -14.2549   20.6292 C   0  0  0  0  0  0  0  0  0  0  0  0
  -21.4004  -16.4585   21.6374 C   0  0  0  0  0  0  0  0  0  0  0  0
  -23.8490  -16.0446   21.3146 C   0  0  0  0  0  0  0  0  0  0  0  0
  -25.3086  -32.7910   24.5116 C   0  0  1  0  0  0  0  0  0  0  0  0
  -24.6701  -20.1704   21.9453 C   0  0  2  0  0  0  0  0  0  0  0  0
  -24.0105  -31.4406   21.2064 C   0  0  1  0  0  0  0  0  0  0  0  0
  -23.4161  -14.5796   21.4798 C   0  0  2  0  0  0  0  0  0  0  0  0
  -34.0415  -20.6265   22.0637 C   0  0  0  0  0  0  0  0  0  0  0  0
  -18.6139  -27.5645   17.2245 C   0  0  0  0  0  0  0  0  0  0  0  0
  -20.6991  -29.0231   23.3396 C   0  0  0  0  0  0  0  0  0  0  0  0
  -19.2257  -27.6593   21.8438 C   0  0  0  0  0  0  0  0  0  0  0  0
  -18.9700  -30.1396   21.9189 C   0  0  0  0  0  0  0  0  0  0  0  0
  -21.9486  -28.8260   15.8961 C   0  0  0  0  0  0  0  0  0  0  0  0
  -29.0553  -21.7990   18.4633 C   0  0  0  0  0  0  0  0  0  0  0  0
  -31.3266  -22.8196   18.4729 C   0  0  0  0  0  0  0  0  0  0  0  0
  -29.9831  -25.1159   20.0690 C   0  0  0  0  0  0  0  0  0  0  0  0
  -29.3364  -24.2064   19.0351 C   0  0  0  0  0  0  0  0  0  0  0  0
  -29.4444  -26.5412   20.0544 C   0  0  0  0  0  0  0  0  0  1  0  0
  -20.9899  -29.1358   20.7767 C   0  0  1  0  0  0  0  0  0  0  0  0
  -19.8748  -28.4147   17.2261 C   0  0  2  0  0  0  0  0  0  0  0  0
  -19.9994  -28.9894   21.9662 C   0  0  0  0  0  0  0  0  0  0  0  0
  -25.4768  -13.9261   20.2917 N   0  0  0  0  0  0  0  0  0  0  0  0
  -24.5507  -13.6072   21.2119 N   0  0  0  0  0  0  0  0  0  0  0  0
  -23.1887  -30.2609   20.9286 N   0  0  0  0  0  0  0  0  0  0  0  0
  -22.7619  -16.9976   21.5914 N   0  0  0  0  0  0  0  0  0  0  0  0
  -23.9257  -11.9257   22.7587 N   0  0  0  0  0  0  0  0  0  0  0  0
  -27.4757  -10.5992   22.5805 N   0  0  0  0  0  0  0  0  0  0  0  0
  -24.9663  -32.5673   23.1234 N   0  0  0  0  0  0  0  0  0  0  0  0
  -20.3521  -29.1345   19.4645 N   0  0  0  0  0  0  0  0  0  0  0  0
  -24.2879  -18.7912   21.7459 N   0  0  0  0  0  0  0  0  0  0  0  0
  -20.6893  -28.0497   16.0327 N   0  3  0  0  0  0  0  0  0  0  0  0
  -29.9431  -22.8552   19.0763 N   0  3  1  0  0  0  0  0  0  0  0  0
  -26.2288   -9.5791   20.9485 O   0  0  0  0  0  0  0  0  0  0  0  0
  -23.8237  -30.5555   23.3874 O   0  0  0  0  0  0  0  0  0  0  0  0
  -21.2134  -31.4964   20.8386 O   0  0  0  0  0  0  0  0  0  0  0  0
  -21.5106  -27.3116   18.6206 O   0  0  0  0  0  0  0  0  0  0  0  0
  -22.0383  -19.1583   22.0527 O   0  0  0  0  0  0  0  0  0  0  0  0
  -30.7597  -12.7335   16.9428 O   0  0  0  0  0  0  0  0  0  0  0  0
  -28.0475  -26.5055   20.3441 O   0  0  0  0  0  0  0  0  0  1  0  0
  -32.3089  -17.4501   14.5432 F   0  0  0  0  0  0  0  0  0  0  0  0
  -33.2744  -13.7922   17.3881 F   0  0  0  0  0  0  0  0  0  0  0  0
  1  2  1  0  0  0  0
  1  6  2  0  0  0  0
  2  7  2  0  0  0  0
  3 10  1  0  0  0  0
  3 11  2  0  0  0  0
  4 13  2  0  0  0  0
  4 22  1  0  0  0  0
  5 14  1  0  0  0  0
  5 22  2  0  0  0  0
  6 24  1  0  0  0  0
  7 26  1  0  0  0  0
  8 12  2  0  0  0  0
  8 27  1  0  0  0  0
  9 15  2  0  0  0  0
  9 25  1  0  0  0  0
 10 31  2  0  0  0  0
 11 32  1  0  0  0  0
 12 30  1  0  0  0  0
 13 33  1  0  0  0  0
 14 33  2  0  0  0  0
 15 34  1  0  0  0  0
 16 17  2  0  0  0  0
 16 35  1  0  0  0  0
 17 36  1  0  0  0  0
 18 28  1  0  0  0  0
 18 30  2  0  0  0  0
 19 29  1  0  0  0  0
 19 34  2  0  0  0  0
 20 31  1  0  0  0  0
 20 32  2  0  0  0  0
 21 36  2  0  0  0  0
 21 37  1  0  0  0  0
 22 38  1  0  0  0  0
 23 38  1  0  0  0  0
 23 39  2  0  0  0  0
 23 40  1  0  0  0  0
 24 26  2  0  0  0  0
 24 45  1  0  0  0  0
 25 29  2  0  0  0  0
 25 46  1  0  0  0  0
 26 58  1  0  0  0  0
 27 28  2  0  0  0  0
 27 59  1  0  0  0  0
 28 47  1  0  0  0  0
 29 48  1  0  0  0  0
 30 68  1  0  0  0  0
 31 62  1  0  0  0  0
 32 69  1  0  0  0  0
 33 92  1  0  0  0  0
 34 93  1  0  0  0  0
 35 37  2  0  0  0  0
 35 92  1  0  0  0  0
 36 94  1  0  0  0  0
 37 95  1  0  0  0  0
 38 76  2  0  0  0  0
 39 77  1  0  0  0  0
 39 80  1  0  0  0  0
 40 81  1  0  0  0  0
 40 87  2  0  0  0  0
 41 60  1  0  0  0  0
 41 82  1  0  0  0  0
 41 88  2  0  0  0  0
 42 73  1  0  0  0  0
 42 78  1  0  0  0  0
 42 89  2  0  0  0  0
 43 74  1  0  0  0  0
 43 83  1  0  0  0  0
 43 90  2  0  0  0  0
 44 79  1  0  0  0  0
 44 84  1  0  0  0  0
 44 91  2  0  0  0  0
 45 49  1  0  0  0  0
 46 60  1  0  0  0  0
 47 50  1  0  0  0  0
 48 78  1  0  0  0  0
 49 53  1  0  0  0  0
 50 51  1  0  0  0  0
 51 54  1  0  0  0  0
 52 55  1  0  0  0  0
 52 56  1  0  0  0  0
 53 58  1  0  0  0  0
 54 59  1  0  0  0  0
 55 61  1  0  0  0  0
 56 79  1  0  0  0  0
 57 61  1  0  0  0  0
 57 79  1  0  0  0  0
 58 82  1  0  0  0  0
 59 84  1  0  0  0  0
 60 78  1  0  0  0  0
 61 77  1  0  0  0  0
 63 74  1  0  0  0  0
 64 75  1  0  0  0  0
 65 75  1  0  0  0  0
 66 75  1  0  0  0  0
 67 85  1  0  0  0  0
 68 86  1  0  0  0  0
 69 86  1  0  0  0  0
 70 71  1  0  0  0  0
 70 72  1  0  0  0  0
 71 86  1  0  0  0  0
 72 93  1  0  0  0  0
 73 75  1  0  0  0  0
 73 83  1  0  0  0  0
 74 85  1  0  0  0  0
 76 77  1  0  0  0  0
M  CHG  2  85   1  86   1
M  ISO  4  44 100  72 101  84 100  93 101
M  END
> <Batch ID>
0005

> <Smiles>
CNC(C)C(=O)NC(C(=O)N1Cc2cc([101O:1][101CH2:1]CCN(Cc3cccc(C)c3)Cc3ccc4c(c3)CCCCC4[100NH:0][100C:0](=O)N3CCCC(n4nc(-c5ccc(Oc6ccc(F)cc6F)cc5)c(C(N)=O)c4N)C3)ccc2CC1C(=O)NC1CCCc2ccccc21)C(C)(C)C

> <Shape>
0.262

> <Color>
0.065

> <Negative vol penalty>
0.000

$$$$

  -OEChem-04042320262D

  0  0  0     0  0  0  0  0  0999 V2000
M  END
$$$$

  -OEChem-04042320263D

 92101  0     1  0  0  0  0  0999 V2000
  -33.6986   -8.0891   19.7454 C   0  0  0  0  0  0  0  0  0  0  0  0
  -33.8283   -9.4344   20.0751 C   0  0  0  0  0  0  0  0  0  0  0  0
  -31.0436  -24.2700   17.3477 C   0  0  0  0  0  0  0  0  0  0  0  0
  -25.1241  -30.8262   21.1675 C   0  0  0  0  0  0  0  0  0  0  0  0
  -24.6268  -29.1095   22.7931 C   0  0  0  0  0  0  0  0  0  0  0  0
  -32.5983   -7.6566   19.0063 C   0  0  0  0  0  0  0  0  0  0  0  0
  -32.8583  -10.3483   19.6649 C   0  0  0  0  0  0  0  0  0  0  0  0
  -30.9406  -15.2997   22.7164 C   0  0  0  0  0  0  0  0  0  0  0  0
  -30.1456  -23.3265   16.8488 C   0  0  0  0  0  0  0  0  0  0  0  0
  -31.6309  -24.0806   18.5987 C   0  0  0  0  0  0  0  0  0  0  0  0
  -24.4296  -31.7579   21.9389 C   0  0  0  0  0  0  0  0  0  0  0  0
  -23.9324  -30.0413   23.5646 C   0  0  0  0  0  0  0  0  0  0  0  0
  -31.2694  -16.6507   22.6134 C   0  0  0  0  0  0  0  0  0  0  0  0
  -24.9861  -33.5994   24.7196 C   0  0  0  0  0  0  0  0  0  0  0  0
  -25.5798  -34.8453   24.9213 C   0  0  0  0  0  0  0  0  0  0  0  0
  -29.3489  -17.0038   21.1970 C   0  0  0  0  0  0  0  0  0  0  0  0
  -30.4220  -22.0042   18.8518 C   0  0  0  0  0  0  0  0  0  0  0  0
  -23.6907  -35.9169   23.8629 C   0  0  0  0  0  0  0  0  0  0  0  0
  -25.2227  -29.5020   21.5945 C   0  0  0  0  0  0  0  0  0  0  0  0
  -27.3079  -28.2187   20.8786 C   0  0  0  0  0  0  0  0  0  0  0  0
  -31.6094   -8.5641   18.5951 C   0  0  0  0  0  0  0  0  0  0  0  0
  -29.8178  -14.7877   22.0505 C   0  0  0  0  0  0  0  0  0  0  0  0
  -31.7444   -9.9278   18.9185 C   0  0  0  0  0  0  0  0  0  0  0  0
  -29.0066  -15.6465   21.2952 C   0  0  0  0  0  0  0  0  0  0  0  0
  -29.8348  -22.1936   17.6008 C   0  0  0  0  0  0  0  0  0  0  0  0
  -31.3200  -22.9477   19.3508 C   0  0  0  0  0  0  0  0  0  0  0  0
  -23.8338  -31.3655   23.1375 C   0  0  0  0  0  0  0  0  0  0  0  0
  -30.4751  -17.5024   21.8513 C   0  0  0  0  0  0  0  0  0  0  0  0
  -23.7447  -33.5121   24.0895 C   0  0  0  0  0  0  0  0  0  0  0  0
  -24.9321  -36.0041   24.4930 C   0  0  0  0  0  0  0  0  0  0  0  0
  -23.0970  -34.6709   23.6612 C   0  0  0  0  0  0  0  0  0  0  0  0
  -25.9395  -28.5389   20.7978 C   0  0  0  0  0  0  0  0  0  0  0  0
  -27.4923  -27.2545   19.9179 C   0  0  0  0  0  0  0  0  0  0  0  0
  -28.3218  -28.7457   21.7446 C   0  0  0  0  0  0  0  0  0  0  0  0
  -29.0995  -19.0256   15.8564 C   0  0  0  0  0  0  0  0  0  0  0  0
  -29.3553  -12.6115   19.7801 C   0  0  0  0  0  0  0  0  0  0  0  0
  -26.2259  -13.1678   20.4280 C   0  0  0  0  0  0  0  0  0  0  0  0
  -23.8542  -15.2949   21.6517 C   0  0  0  0  0  0  0  0  0  0  0  0
  -25.8548  -22.5913   17.3260 C   0  0  0  0  0  0  0  0  0  0  0  0
  -30.4622   -8.0573   17.7574 C   0  0  0  0  0  0  0  0  0  0  0  0
  -29.4616  -13.3333   22.1934 C   0  0  0  0  0  0  0  0  0  0  0  0
  -27.7790  -15.1505   20.5773 C   0  0  0  0  0  0  0  0  0  0  0  0
  -29.2872   -9.0289   17.6822 C   0  0  0  0  0  0  0  0  0  0  0  0
  -28.8008  -16.1611   14.3632 C   0  0  0  0  0  0  0  0  0  0  0  0
  -28.9734  -15.5141   15.7256 C   0  0  0  0  0  0  0  0  0  0  0  0
  -24.4282  -25.6610   16.2222 C   0  0  0  0  0  0  0  0  0  0  0  0
  -29.7812  -10.4428   17.3932 C   0  0  0  0  0  0  0  0  0  0  0  0
  -29.8844  -17.2304   14.3513 C   0  0  0  0  0  0  0  0  0  0  0  0
  -29.2773  -16.6824   16.6582 C   0  0  0  0  0  0  0  0  0  0  0  0
  -24.8016  -26.6548   17.3235 C   0  0  0  0  0  0  0  0  0  0  0  0
  -24.1208  -24.2775   16.7910 C   0  0  0  0  0  0  0  0  0  0  0  0
  -25.5514  -24.7061   18.7515 C   0  0  0  0  0  0  0  0  0  0  0  0
  -30.7005  -10.9455   18.5129 C   0  0  1  0  0  0  0  0  0  0  0  0
  -29.9260  -17.7546   15.7834 C   0  0  0  0  0  0  0  0  0  0  0  0
  -28.5869  -12.8177   21.0548 C   0  0  1  0  0  0  0  0  0  0  0  0
  -25.9244  -26.1011   18.2213 C   0  0  2  0  0  0  0  0  0  0  0  0
  -21.3785  -15.4863   22.0144 C   0  0  0  0  0  0  0  0  0  0  0  0
  -25.8332  -13.7009   17.4495 C   0  0  0  0  0  0  0  0  0  0  0  0
  -23.6461  -14.7861   18.0032 C   0  0  0  0  0  0  0  0  0  0  0  0
  -24.0053  -12.3726   18.5214 C   0  0  0  0  0  0  0  0  0  0  0  0
  -32.8537  -23.7481   21.1305 C   0  0  0  0  0  0  0  0  0  0  0  0
  -24.1862  -15.5537   24.5811 C   0  0  0  0  0  0  0  0  0  0  0  0
  -32.4304  -20.4013   20.9834 C   0  0  0  0  0  0  0  0  0  0  0  0
  -31.6015  -21.6039   21.4184 C   0  0  0  0  0  0  0  0  0  0  0  0
  -27.6450  -21.0018   17.9800 C   0  0  0  0  0  0  0  0  0  0  0  0
  -32.1766  -19.1639   21.8364 C   0  0  0  0  0  0  0  0  0  1  0  0
  -28.8741  -21.1855   17.0674 C   0  0  2  0  0  0  0  0  0  0  0  0
  -25.1812  -14.1272   19.9110 C   0  0  1  0  0  0  0  0  0  0  0  0
  -22.7096  -15.0752   22.6243 C   0  0  2  0  0  0  0  0  0  0  0  0
  -24.6906  -13.7560   18.4831 C   0  0  0  0  0  0  0  0  0  0  0  0
  -25.2998  -27.8353   19.8598 N   0  0  0  0  0  0  0  0  0  0  0  0
  -26.2706  -27.0634   19.3424 N   0  0  0  0  0  0  0  0  0  0  0  0
  -27.4760  -13.7192   20.7426 N   0  0  0  0  0  0  0  0  0  0  0  0
  -25.2255  -23.8093   17.6315 N   0  0  0  0  0  0  0  0  0  0  0  0
  -28.5785  -26.5600   19.5179 N   0  0  0  0  0  0  0  0  0  0  0  0
  -27.9610  -29.7311   22.6736 N   0  0  0  0  0  0  0  0  0  0  0  0
  -29.9207  -11.3563   19.6608 N   0  0  0  0  0  0  0  0  0  0  0  0
  -29.5227  -19.9055   16.8268 N   0  0  0  0  0  0  0  0  0  0  0  0
  -24.1244  -14.1603   20.9162 N   0  0  0  0  0  0  0  0  0  0  0  0
  -26.8966  -22.2244   18.1691 N   0  0  0  0  0  0  0  0  0  0  0  0
  -31.9108  -22.7572   20.6082 N   0  0  3  0  0  0  0  0  0  0  0  0
  -22.9241  -15.8721   23.8652 N   0  3  0  0  0  0  0  0  0  0  0  0
  -29.5160  -28.3662   21.6848 O   0  0  0  0  0  0  0  0  0  0  0  0
  -28.1587  -19.1796   15.0864 O   0  0  0  0  0  0  0  0  0  0  0  0
  -29.4285  -13.5232   18.9646 O   0  0  0  0  0  0  0  0  0  0  0  0
  -25.9410  -11.9744   20.5551 O   0  0  0  0  0  0  0  0  0  0  0  0
  -24.4468  -16.3670   21.5516 O   0  0  0  0  0  0  0  0  0  0  0  0
  -25.5169  -21.8857   16.3694 O   0  0  0  0  0  0  0  0  0  0  0  0
  -23.1562  -32.2745   23.8907 O   0  0  0  0  0  0  0  0  0  0  0  0
  -30.7941  -18.8213   21.7485 O   0  0  0  0  0  0  0  0  0  1  0  0
  -25.5016  -37.2006   24.6882 F   0  0  0  0  0  0  0  0  0  0  0  0
  -21.9037  -34.5934   23.0563 F   0  0  0  0  0  0  0  0  0  0  0  0
  1  2  1  0  0  0  0
  1  6  2  0  0  0  0
  2  7  2  0  0  0  0
  3  9  1  0  0  0  0
  3 10  2  0  0  0  0
  4 11  2  0  0  0  0
  4 19  1  0  0  0  0
  5 12  1  0  0  0  0
  5 19  2  0  0  0  0
  6 21  1  0  0  0  0
  7 23  1  0  0  0  0
  8 13  2  0  0  0  0
  8 22  1  0  0  0  0
  9 25  2  0  0  0  0
 10 26  1  0  0  0  0
 11 27  1  0  0  0  0
 12 27  2  0  0  0  0
 13 28  1  0  0  0  0
 14 15  2  0  0  0  0
 14 29  1  0  0  0  0
 15 30  1  0  0  0  0
 16 24  1  0  0  0  0
 16 28  2  0  0  0  0
 17 25  1  0  0  0  0
 17 26  2  0  0  0  0
 18 30  2  0  0  0  0
 18 31  1  0  0  0  0
 19 32  1  0  0  0  0
 20 32  1  0  0  0  0
 20 33  2  0  0  0  0
 20 34  1  0  0  0  0
 21 23  2  0  0  0  0
 21 40  1  0  0  0  0
 22 24  2  0  0  0  0
 22 41  1  0  0  0  0
 23 53  1  0  0  0  0
 24 42  1  0  0  0  0
 25 67  1  0  0  0  0
 26 81  1  0  0  0  0
 27 89  1  0  0  0  0
 28 90  1  0  0  0  0
 29 31  2  0  0  0  0
 29 89  1  0  0  0  0
 30 91  1  0  0  0  0
 31 92  1  0  0  0  0
 32 71  2  0  0  0  0
 33 72  1  0  0  0  0
 33 75  1  0  0  0  0
 34 76  1  0  0  0  0
 34 83  2  0  0  0  0
 35 54  1  0  0  0  0
 35 78  1  0  0  0  0
 35 84  2  0  0  0  0
 36 55  1  0  0  0  0
 36 77  1  0  0  0  0
 36 85  2  0  0  0  0
 37 68  1  0  0  0  0
 37 73  1  0  0  0  0
 37 86  2  0  0  0  0
 38 69  1  0  0  0  0
 38 79  1  0  0  0  0
 38 87  2  0  0  0  0
 39 74  1  0  0  0  0
 39 80  1  0  0  0  0
 39 88  2  0  0  0  0
 40 43  1  0  0  0  0
 41 55  1  0  0  0  0
 42 73  1  0  0  0  0
 43 47  1  0  0  0  0
 44 45  1  0  0  0  0
 44 48  1  0  0  0  0
 45 49  1  0  0  0  0
 46 50  1  0  0  0  0
 46 51  1  0  0  0  0
 47 53  1  0  0  0  0
 48 54  1  0  0  0  0
 49 54  1  0  0  0  0
 50 56  1  0  0  0  0
 51 74  1  0  0  0  0
 52 56  1  0  0  0  0
 52 74  1  0  0  0  0
 53 77  1  0  0  0  0
 55 73  1  0  0  0  0
 56 72  1  0  0  0  0
 57 69  1  0  0  0  0
 58 70  1  0  0  0  0
 59 70  1  0  0  0  0
 60 70  1  0  0  0  0
 61 81  1  0  0  0  0
 62 82  1  0  0  0  0
 63 64  1  0  0  0  0
 63 66  1  0  0  0  0
 64 81  1  0  0  0  0
 65 67  1  0  0  0  0
 65 80  1  0  0  0  0
 66 90  1  0  0  0  0
 67 78  1  0  0  0  0
 68 70  1  0  0  0  0
 68 79  1  0  0  0  0
 69 82  1  0  0  0  0
 71 72  1  0  0  0  0
M  CHG  1  82   1
M  ISO  4  39 100  66 101  80 100  90 101
M  END
> <Batch ID>
0005

> <Smiles>
CNC(C)C(=O)NC(C(=O)N1Cc2cc([101O:1][101CH2:1]CCN(C)c3cccc(C(C[100NH:0][100C:0](=O)N4CCCC(n5nc(-c6ccc(Oc7ccc(F)cc7F)cc6)c(C(N)=O)c5N)C4)NC(=O)C4CCCC4)c3)ccc2CC1C(=O)NC1CCCc2ccccc21)C(C)(C)C

> <Shape>
0.241

> <Color>
0.063

> <Negative vol penalty>
0.000

$$$$

  -OEChem-04042320263D

 86 95  0     1  0  0  0  0  0999 V2000
  -30.7204  -24.9517   17.7482 C   0  0  0  0  0  0  0  0  0  0  0  0
  -29.3303  -24.9281   17.7992 C   0  0  0  0  0  0  0  0  0  0  0  0
  -27.6126  -16.0825   18.6265 C   0  0  0  0  0  0  0  0  0  0  0  0
  -27.1561  -16.7325   20.9082 C   0  0  0  0  0  0  0  0  0  0  0  0
  -31.4466  -25.4913   18.8091 C   0  0  0  0  0  0  0  0  0  0  0  0
  -28.6657  -25.4430   18.9117 C   0  0  0  0  0  0  0  0  0  0  0  0
  -23.2809  -28.3597   18.9593 C   0  0  0  0  0  0  0  0  0  0  0  0
  -17.4913  -20.4250   21.9644 C   0  0  0  0  0  0  0  0  0  0  0  0
  -17.4737  -21.8158   22.0687 C   0  0  0  0  0  0  0  0  0  0  0  0
  -28.8274  -16.7661   18.6748 C   0  0  0  0  0  0  0  0  0  0  0  0
  -28.3710  -17.4161   20.9566 C   0  0  0  0  0  0  0  0  0  0  0  0
  -21.9849  -27.9319   19.2442 C   0  0  0  0  0  0  0  0  0  0  0  0
  -31.1861  -19.6335   21.5633 C   0  0  0  0  0  0  0  0  0  0  0  0
  -31.1902  -20.9094   22.1268 C   0  0  0  0  0  0  0  0  0  0  0  0
  -22.2279  -28.7239   21.5097 C   0  0  0  0  0  0  0  0  0  0  0  0
  -19.8353  -20.4106   22.5494 C   0  0  0  0  0  0  0  0  0  0  0  0
  -29.6133  -21.6530   20.4542 C   0  0  0  0  0  0  0  0  0  0  0  0
  -26.7768  -16.0658   19.7432 C   0  0  0  0  0  0  0  0  0  0  0  0
  -25.2893  -14.0134   20.0312 C   0  0  0  0  0  0  0  0  0  0  0  0
  -30.7903  -26.0218   19.9308 C   0  0  0  0  0  0  0  0  0  0  0  0
  -24.0654  -28.9640   19.9522 C   0  0  0  0  0  0  0  0  0  0  0  0
  -29.3839  -25.9889   19.9891 C   0  0  0  0  0  0  0  0  0  0  0  0
  -23.5327  -29.1608   21.2342 C   0  0  0  0  0  0  0  0  0  0  0  0
  -18.6720  -19.7224   22.2047 C   0  0  0  0  0  0  0  0  0  0  0  0
  -18.6370  -22.5041   22.4133 C   0  0  0  0  0  0  0  0  0  0  0  0
  -29.2067  -17.4329   19.8398 C   0  0  0  0  0  0  0  0  0  0  0  0
  -21.4593  -28.1113   20.5203 C   0  0  0  0  0  0  0  0  0  0  0  0
  -30.3957  -19.3673   20.4452 C   0  0  0  0  0  0  0  0  0  0  0  0
  -30.4037  -21.9192   21.5722 C   0  0  0  0  0  0  0  0  0  0  0  0
  -29.6093  -20.3771   19.8907 C   0  0  0  0  0  0  0  0  0  0  0  0
  -19.8178  -21.8015   22.6537 C   0  0  0  0  0  0  0  0  0  0  0  0
  -25.5215  -15.3603   19.6937 C   0  0  0  0  0  0  0  0  0  0  0  0
  -23.9452  -13.8320   19.8148 C   0  0  0  0  0  0  0  0  0  0  0  0
  -19.3372  -24.8521   21.7611 C   0  0  0  0  0  0  0  0  0  0  0  0
  -26.2067  -13.0156   20.4985 C   0  0  0  0  0  0  0  0  0  0  0  0
  -26.8174  -28.2562   21.3766 C   0  0  0  0  0  0  0  0  0  0  0  0
  -26.4175  -31.1754   22.7333 C   0  0  0  0  0  0  0  0  0  0  0  0
  -24.2818  -33.6678   23.6681 C   0  0  0  0  0  0  0  0  0  0  0  0
  -19.2793  -17.5841   19.7715 C   0  0  0  0  0  0  0  0  0  0  0  0
  -31.6195  -26.5514   21.0739 C   0  0  0  0  0  0  0  0  0  0  0  0
  -25.4519  -29.4441   19.6215 C   0  0  0  0  0  0  0  0  0  0  0  0
  -24.3265  -29.8225   22.3298 C   0  0  0  0  0  0  0  0  0  0  0  0
  -30.8278  -27.4171   22.0508 C   0  0  0  0  0  0  0  0  0  0  0  0
  -20.3338  -15.4486   17.1250 C   0  0  0  0  0  0  0  0  0  0  0  0
  -29.5064  -26.7449   22.4097 C   0  0  0  0  0  0  0  0  0  0  0  0
  -21.7619  -15.0622   17.5137 C   0  0  0  0  0  0  0  0  0  0  0  0
  -18.2019  -26.0166   23.4988 C   0  0  0  0  0  0  0  0  0  0  0  0
  -20.0149  -16.8916   17.5097 C   0  0  0  0  0  0  0  0  0  0  0  0
  -17.6623  -24.6033   23.4062 C   0  0  0  0  0  0  0  0  0  0  0  0
  -21.6940  -16.8390   19.3130 C   0  0  0  0  0  0  0  0  0  0  0  0
  -28.6260  -26.5603   21.1678 C   0  0  1  0  0  0  0  0  0  0  0  0
  -18.8321  -26.2373   22.1313 C   0  0  1  0  0  0  0  0  0  0  0  0
  -26.3454  -29.5821   20.8504 C   0  0  1  0  0  0  0  0  0  0  0  0
  -22.0438  -15.3750   18.9956 C   0  0  2  0  0  0  0  0  0  0  0  0
  -24.2444  -35.9127   24.7890 C   0  0  0  0  0  0  0  0  0  0  0  0
  -26.7673  -29.8239   25.4465 C   0  0  0  0  0  0  0  0  0  0  0  0
  -25.7940  -31.8693   26.5128 C   0  0  0  0  0  0  0  0  0  0  0  0
  -27.9233  -32.0303   25.2233 C   0  0  0  0  0  0  0  0  0  0  0  0
  -23.1945  -34.9855   21.2514 C   0  0  0  0  0  0  0  0  0  0  0  0
  -18.6901  -18.2354   22.0927 C   0  0  0  0  0  0  0  0  0  0  0  0
  -19.9285  -27.2859   22.1424 C   0  0  0  0  0  0  0  0  0  1  0  0
  -25.7462  -31.6903   23.9836 C   0  0  1  0  0  0  0  0  0  0  0  0
  -24.3375  -35.1711   23.4645 C   0  0  2  0  0  0  0  0  0  0  0  0
  -26.5432  -31.3392   25.2717 C   0  0  0  0  0  0  0  0  0  0  0  0
  -24.4136  -15.9898   19.2933 N   0  0  0  0  0  0  0  0  0  0  0  0
  -23.4724  -15.0343   19.3777 N   0  0  0  0  0  0  0  0  0  0  0  0
  -18.5838  -23.9268   22.5126 N   0  0  0  0  0  0  0  0  0  0  0  0
  -25.6796  -30.2690   21.9590 N   0  0  0  0  0  0  0  0  0  0  0  0
  -20.3025  -17.1219   18.9275 N   0  0  0  0  0  0  0  0  0  0  0  0
  -23.1334  -12.7629   19.9578 N   0  0  0  0  0  0  0  0  0  0  0  0
  -27.5522  -13.3708   20.6657 N   0  0  0  0  0  0  0  0  0  0  0  0
  -27.9944  -27.8110   20.8056 N   0  0  0  0  0  0  0  0  0  0  0  0
  -25.5425  -33.1203   23.7782 N   0  0  0  0  0  0  0  0  0  0  0  0
  -19.6348  -17.7701   21.1018 N   0  0  0  0  0  0  0  0  0  0  0  0
  -23.2124  -35.6182   22.5955 N   0  3  0  0  0  0  0  0  0  0  0  0
  -20.1956  -24.6572   20.9128 O   0  0  0  0  0  0  0  0  0  0  0  0
  -25.8472  -11.8392   20.7444 O   0  0  0  0  0  0  0  0  0  0  0  0
  -26.1631  -27.6805   22.2380 O   0  0  0  0  0  0  0  0  0  0  0  0
  -27.5519  -31.5686   22.4503 O   0  0  0  0  0  0  0  0  0  0  0  0
  -23.2255  -33.0423   23.7274 O   0  0  0  0  0  0  0  0  0  0  0  0
  -18.1323  -17.8090   19.3704 O   0  0  0  0  0  0  0  0  0  0  0  0
  -30.3922  -18.0998   19.8874 O   0  0  0  0  0  0  0  0  0  0  0  0
  -20.1948  -27.6941   20.8012 O   0  0  0  0  0  0  0  0  0  1  0  0
  -30.4065  -23.1441   22.1144 F   0  0  0  0  0  0  0  0  0  0  0  0
  -28.8470  -20.1271   18.8172 F   0  0  0  0  0  0  0  0  0  0  0  0
  -21.2809  -22.6143   23.0826 Cl  0  0  0  0  0  0  0  0  0  0  0  0
  1  2  1  0  0  0  0
  1  5  2  0  0  0  0
  2  6  2  0  0  0  0
  3 10  2  0  0  0  0
  3 18  1  0  0  0  0
  4 11  1  0  0  0  0
  4 18  2  0  0  0  0
  5 20  1  0  0  0  0
  6 22  1  0  0  0  0
  7 12  2  0  0  0  0
  7 21  1  0  0  0  0
  8  9  2  0  0  0  0
  8 24  1  0  0  0  0
  9 25  1  0  0  0  0
 10 26  1  0  0  0  0
 11 26  2  0  0  0  0
 12 27  1  0  0  0  0
 13 14  2  0  0  0  0
 13 28  1  0  0  0  0
 14 29  1  0  0  0  0
 15 23  1  0  0  0  0
 15 27  2  0  0  0  0
 16 24  2  0  0  0  0
 16 31  1  0  0  0  0
 17 29  2  0  0  0  0
 17 30  1  0  0  0  0
 18 32  1  0  0  0  0
 19 32  1  0  0  0  0
 19 33  2  0  0  0  0
 19 35  1  0  0  0  0
 20 22  2  0  0  0  0
 20 40  1  0  0  0  0
 21 23  2  0  0  0  0
 21 41  1  0  0  0  0
 22 51  1  0  0  0  0
 23 42  1  0  0  0  0
 24 60  1  0  0  0  0
 25 31  2  0  0  0  0
 25 67  1  0  0  0  0
 26 82  1  0  0  0  0
 27 83  1  0  0  0  0
 28 30  2  0  0  0  0
 28 82  1  0  0  0  0
 29 84  1  0  0  0  0
 30 85  1  0  0  0  0
 31 86  1  0  0  0  0
 32 65  2  0  0  0  0
 33 66  1  0  0  0  0
 33 70  1  0  0  0  0
 34 52  1  0  0  0  0
 34 67  1  0  0  0  0
 34 76  2  0  0  0  0
 35 71  1  0  0  0  0
 35 77  2  0  0  0  0
 36 53  1  0  0  0  0
 36 72  1  0  0  0  0
 36 78  2  0  0  0  0
 37 62  1  0  0  0  0
 37 68  1  0  0  0  0
 37 79  2  0  0  0  0
 38 63  1  0  0  0  0
 38 73  1  0  0  0  0
 38 80  2  0  0  0  0
 39 69  1  0  0  0  0
 39 74  1  0  0  0  0
 39 81  2  0  0  0  0
 40 43  1  0  0  0  0
 41 53  1  0  0  0  0
 42 68  1  0  0  0  0
 43 45  1  0  0  0  0
 44 46  1  0  0  0  0
 44 48  1  0  0  0  0
 45 51  1  0  0  0  0
 46 54  1  0  0  0  0
 47 49  1  0  0  0  0
 47 52  1  0  0  0  0
 48 69  1  0  0  0  0
 49 67  1  0  0  0  0
 50 54  1  0  0  0  0
 50 69  1  0  0  0  0
 51 72  1  0  0  0  0
 52 61  1  0  0  0  0
 53 68  1  0  0  0  0
 54 66  1  0  0  0  0
 55 63  1  0  0  0  0
 56 64  1  0  0  0  0
 57 64  1  0  0  0  0
 58 64  1  0  0  0  0
 59 75  1  0  0  0  0
 60 74  1  0  0  0  0
 61 83  1  0  0  0  0
 62 64  1  0  0  0  0
 62 73  1  0  0  0  0
 63 75  1  0  0  0  0
 65 66  1  0  0  0  0
M  CHG  1  75   1
M  ISO  4  39 100  61 101  74 100  83 101
M  END
> <Batch ID>
0005

> <Smiles>
CNC(C)C(=O)NC(C(=O)N1Cc2cc([101O:1][101CH2:1]C3CCN(c4ccc(C[100NH:0][100C:0](=O)N5CCCC(n6nc(-c7ccc(Oc8ccc(F)cc8F)cc7)c(C(N)=O)c6N)C5)cc4Cl)C3=O)ccc2CC1C(=O)NC1CCCc2ccccc21)C(C)(C)C

> <Shape>
0.294

> <Color>
0.084

> <Negative vol penalty>
0.000

$$$$

  -OEChem-04042320262D

  0  0  0     0  0  0  0  0  0999 V2000
M  END
$$$$

  -OEChem-04042320263D

 98108  0     1  0  0  0  0  0999 V2000
  -22.1199  -28.1882   28.9878 C   0  0  0  0  0  0  0  0  0  0  0  0
  -23.4530  -27.9729   28.6534 C   0  0  0  0  0  0  0  0  0  0  0  0
  -23.1992   -9.8517   19.9522 C   0  0  0  0  0  0  0  0  0  0  0  0
  -23.9112   -9.9293   22.2596 C   0  0  0  0  0  0  0  0  0  0  0  0
  -21.3791  -27.1696   29.5858 C   0  0  0  0  0  0  0  0  0  0  0  0
  -24.0465  -26.7392   28.9180 C   0  0  0  0  0  0  0  0  0  0  0  0
  -28.3106  -23.9085   25.5548 C   0  0  0  0  0  0  0  0  0  0  0  0
  -31.2298  -16.6822   25.1373 C   0  0  0  0  0  0  0  0  0  0  0  0
  -30.5471  -15.8441   24.2522 C   0  0  0  0  0  0  0  0  0  0  0  0
  -22.5067   -8.6677   20.2057 C   0  0  0  0  0  0  0  0  0  0  0  0
  -23.2187   -8.7453   22.5131 C   0  0  0  0  0  0  0  0  0  0  0  0
  -29.6970  -23.8247   25.6751 C   0  0  0  0  0  0  0  0  0  0  0  0
  -20.0211   -7.8011   23.0649 C   0  0  0  0  0  0  0  0  0  0  0  0
  -19.2434   -7.7419   24.2213 C   0  0  0  0  0  0  0  0  0  0  0  0
  -32.4497  -15.8613   22.7836 C   0  0  0  0  0  0  0  0  0  0  0  0
  -29.4640  -21.7166   26.8242 C   0  0  0  0  0  0  0  0  0  0  0  0
  -35.0886  -17.9820   24.3065 C   0  0  0  0  0  0  0  0  0  0  0  0
  -20.5614   -5.8778   25.0122 C   0  0  0  0  0  0  0  0  0  0  0  0
  -33.1362  -16.7042   23.6741 C   0  0  0  0  0  0  0  0  0  0  0  0
  -23.9015  -10.4825   20.9792 C   0  0  0  0  0  0  0  0  0  0  0  0
  -24.1238  -13.0191   20.8262 C   0  0  0  0  0  0  0  0  0  0  0  0
  -21.9611  -25.9196   29.8490 C   0  0  0  0  0  0  0  0  0  0  0  0
  -27.4885  -22.9005   26.0789 C   0  0  0  0  0  0  0  0  0  0  0  0
  -23.3132  -25.7033   29.5213 C   0  0  0  0  0  0  0  0  0  0  0  0
  -28.0675  -21.7886   26.7070 C   0  0  0  0  0  0  0  0  0  0  0  0
  -34.4375  -17.1503   23.4069 C   0  0  0  0  0  0  0  0  0  0  0  0
  -32.5227  -17.1255   24.8725 C   0  0  0  0  0  0  0  0  0  0  0  0
  -31.1575  -15.4330   23.0738 C   0  0  0  0  0  0  0  0  0  0  0  0
  -22.5165   -8.1145   21.4861 C   0  0  0  0  0  0  0  0  0  0  0  0
  -30.2738  -22.7301   26.3124 C   0  0  0  0  0  0  0  0  0  0  0  0
  -21.0690   -6.8987   22.8821 C   0  0  0  0  0  0  0  0  0  0  0  0
  -19.5136   -6.7803   25.1950 C   0  0  0  0  0  0  0  0  0  0  0  0
  -21.3391   -5.9371   23.8558 C   0  0  0  0  0  0  0  0  0  0  0  0
  -24.6175  -11.7052   20.7178 C   0  0  0  0  0  0  0  0  0  0  0  0
  -34.4075  -18.3408   25.4520 C   0  0  0  0  0  0  0  0  0  0  0  0
  -25.1858  -13.8152   20.4726 C   0  0  0  0  0  0  0  0  0  0  0  0
  -22.8218  -13.4790   21.2121 C   0  0  0  0  0  0  0  0  0  0  0  0
  -25.2266  -22.7840   28.3091 C   0  0  0  0  0  0  0  0  0  0  0  0
  -24.8862  -19.7365   27.2514 C   0  0  0  0  0  0  0  0  0  0  0  0
  -34.3645  -22.1773   25.4482 C   0  0  0  0  0  0  0  0  0  0  0  0
  -26.2778  -17.0383   25.6926 C   0  0  0  0  0  0  0  0  0  0  0  0
  -30.9349  -14.0832   20.9584 C   0  0  0  0  0  0  0  0  0  0  0  0
  -21.1338  -24.8647   30.5401 C   0  0  0  0  0  0  0  0  0  0  0  0
  -25.9959  -22.9925   25.9173 C   0  0  0  0  0  0  0  0  0  0  0  0
  -27.2301  -20.6698   27.2687 C   0  0  0  0  0  0  0  0  0  0  0  0
  -21.7311  -23.4631   30.4450 C   0  0  0  0  0  0  0  0  0  0  0  0
  -29.3627  -13.1187   17.9129 C   0  0  0  0  0  0  0  0  0  0  0  0
  -37.5038  -13.9715   22.8230 C   0  0  0  0  0  0  0  0  0  0  0  0
  -37.7475  -14.4181   21.3955 C   0  0  0  0  0  0  0  0  0  0  0  0
  -23.2211  -23.4946   30.7699 C   0  0  0  0  0  0  0  0  0  0  0  0
  -27.9301  -12.7840   18.3346 C   0  0  0  0  0  0  0  0  0  0  0  0
  -30.3790  -12.6967   18.9725 C   0  0  0  0  0  0  0  0  0  0  0  0
  -28.6787  -12.8665   20.7470 C   0  0  0  0  0  0  0  0  0  0  0  0
  -36.5985  -15.0597   23.3590 C   0  0  0  0  0  0  0  0  0  0  0  0
  -36.3911  -14.9160   20.9282 C   0  0  0  0  0  0  0  0  0  0  0  0
  -23.9855  -24.3705   29.7698 C   0  0  1  0  0  0  0  0  0  0  0  0
  -25.2315  -22.1602   26.9422 C   0  0  1  0  0  0  0  0  0  0  0  0
  -27.6139  -13.3316   19.7402 C   0  0  2  0  0  0  0  0  0  0  0  0
  -33.7430  -18.9390   29.9545 C   0  0  0  0  0  0  0  0  0  0  0  0
  -25.7672  -14.6784   25.0088 C   0  0  0  0  0  0  0  0  0  0  0  0
  -25.2279  -18.8271   30.1438 C   0  0  0  0  0  0  0  0  0  0  0  0
  -25.6598  -16.5128   29.2919 C   0  0  0  0  0  0  0  0  0  0  0  0
  -23.4575  -17.6051   28.8683 C   0  0  0  0  0  0  0  0  0  0  0  0
  -26.6772  -17.6593   22.8266 C   0  0  0  0  0  0  0  0  0  0  0  0
  -35.1752  -16.7608   22.1644 C   0  0  0  0  0  0  0  0  0  0  0  0
  -33.8733  -23.4501   26.1199 C   0  0  0  0  0  0  0  0  0  0  0  0
  -34.4622  -18.5276   28.6777 C   0  0  0  0  0  0  0  0  0  0  0  0
  -34.3943  -19.5960   27.5931 C   0  0  0  0  0  0  0  0  0  0  0  0
  -36.4417  -20.8300   25.1660 C   0  0  0  0  0  0  0  0  0  0  0  0
  -36.4113  -19.6456   26.1172 C   0  0  0  0  0  0  0  0  0  0  0  0
  -32.3949  -23.7154   25.8810 C   0  0  0  0  0  0  0  0  0  1  0  0
  -25.5001  -18.4050   27.6112 C   0  0  1  0  0  0  0  0  0  0  0  0
  -25.7620  -16.1386   24.5840 C   0  0  2  0  0  0  0  0  0  0  0  0
  -24.9773  -17.8593   28.9701 C   0  0  0  0  0  0  0  0  0  0  0  0
  -33.1521  -17.9326   25.7473 N   0  0  0  0  0  0  0  0  0  0  0  0
  -25.8937  -11.6646   20.3259 N   0  0  0  0  0  0  0  0  0  0  0  0
  -26.2109  -12.9628   20.1848 N   0  0  0  0  0  0  0  0  0  0  0  0
  -25.7752  -20.8088   27.0915 N   0  0  0  0  0  0  0  0  0  0  0  0
  -30.0174  -13.2558   20.2769 N   0  0  0  0  0  0  0  0  0  0  0  0
  -25.3334  -15.1540   20.3828 N   0  0  0  0  0  0  0  0  0  0  0  0
  -21.8481  -12.5270   21.5438 N   0  0  0  0  0  0  0  0  0  0  0  0
  -30.4683  -14.5828   22.1738 N   0  0  0  0  0  0  0  0  0  0  0  0
  -24.1809  -23.6616   28.5233 N   0  0  0  0  0  0  0  0  0  0  0  0
  -35.7150  -21.9658   25.6859 N   0  0  0  0  0  0  0  0  0  0  0  0
  -25.2521  -17.5214   26.4772 N   0  0  0  0  0  0  0  0  0  0  0  0
  -35.0714  -19.1833   26.3593 N   0  0  3  0  0  0  0  0  0  0  0  0
  -35.6780  -15.3533   22.1947 N   0  3  0  0  0  0  0  0  0  0  0  0
  -26.6110  -16.2771   23.3671 N   0  3  0  0  0  0  0  0  0  0  0  0
  -22.5255  -14.6974   21.2455 O   0  0  0  0  0  0  0  0  0  0  0  0
  -26.1056  -22.4898   29.1107 O   0  0  0  0  0  0  0  0  0  0  0  0
  -23.6636  -19.8203   27.1101 O   0  0  0  0  0  0  0  0  0  0  0  0
  -33.6385  -21.4434   24.7831 O   0  0  0  0  0  0  0  0  0  0  0  0
  -27.4717  -17.2846   25.8492 O   0  0  0  0  0  0  0  0  0  0  0  0
  -32.0419  -14.3522   20.4849 O   0  0  0  0  0  0  0  0  0  0  0  0
  -21.8407   -6.9593   21.7339 O   0  0  0  0  0  0  0  0  0  0  0  0
  -31.6268  -22.6462   26.4318 O   0  0  0  0  0  0  0  0  0  1  0  0
  -18.7676   -6.7245   26.3061 F   0  0  0  0  0  0  0  0  0  0  0  0
  -22.3452   -5.0682   23.6863 F   0  0  0  0  0  0  0  0  0  0  0  0
  1  2  1  0  0  0  0
  1  5  2  0  0  0  0
  2  6  2  0  0  0  0
  3 10  2  0  0  0  0
  3 20  1  0  0  0  0
  4 11  1  0  0  0  0
  4 20  2  0  0  0  0
  5 22  1  0  0  0  0
  6 24  1  0  0  0  0
  7 12  2  0  0  0  0
  7 23  1  0  0  0  0
  8  9  2  0  0  0  0
  8 27  1  0  0  0  0
  9 28  1  0  0  0  0
 10 29  1  0  0  0  0
 11 29  2  0  0  0  0
 12 30  1  0  0  0  0
 13 14  2  0  0  0  0
 13 31  1  0  0  0  0
 14 32  1  0  0  0  0
 15 19  1  0  0  0  0
 15 28  2  0  0  0  0
 16 25  1  0  0  0  0
 16 30  2  0  0  0  0
 17 26  2  0  0  0  0
 17 35  1  0  0  0  0
 18 32  2  0  0  0  0
 18 33  1  0  0  0  0
 19 26  1  0  0  0  0
 19 27  2  0  0  0  0
 20 34  1  0  0  0  0
 21 34  1  0  0  0  0
 21 36  2  0  0  0  0
 21 37  1  0  0  0  0
 22 24  2  0  0  0  0
 22 43  1  0  0  0  0
 23 25  2  0  0  0  0
 23 44  1  0  0  0  0
 24 56  1  0  0  0  0
 25 45  1  0  0  0  0
 26 65  1  0  0  0  0
 27 75  1  0  0  0  0
 28 82  1  0  0  0  0
 29 95  1  0  0  0  0
 30 96  1  0  0  0  0
 31 33  2  0  0  0  0
 31 95  1  0  0  0  0
 32 97  1  0  0  0  0
 33 98  1  0  0  0  0
 34 76  2  0  0  0  0
 35 75  2  0  0  0  0
 35 86  1  0  0  0  0
 36 77  1  0  0  0  0
 36 80  1  0  0  0  0
 37 81  1  0  0  0  0
 37 89  2  0  0  0  0
 38 57  1  0  0  0  0
 38 83  1  0  0  0  0
 38 90  2  0  0  0  0
 39 72  1  0  0  0  0
 39 78  1  0  0  0  0
 39 91  2  0  0  0  0
 40 66  1  0  0  0  0
 40 84  1  0  0  0  0
 40 92  2  0  0  0  0
 41 73  1  0  0  0  0
 41 85  1  0  0  0  0
 41 93  2  0  0  0  0
 42 79  1  0  0  0  0
 42 82  1  0  0  0  0
 42 94  2  0  0  0  0
 43 46  1  0  0  0  0
 44 57  1  0  0  0  0
 45 78  1  0  0  0  0
 46 50  1  0  0  0  0
 47 51  1  0  0  0  0
 47 52  1  0  0  0  0
 48 49  1  0  0  0  0
 48 54  1  0  0  0  0
 49 55  1  0  0  0  0
 50 56  1  0  0  0  0
 51 58  1  0  0  0  0
 52 79  1  0  0  0  0
 53 58  1  0  0  0  0
 53 79  1  0  0  0  0
 54 87  1  0  0  0  0
 55 87  1  0  0  0  0
 56 83  1  0  0  0  0
 57 78  1  0  0  0  0
 58 77  1  0  0  0  0
 59 67  1  0  0  0  0
 60 73  1  0  0  0  0
 61 74  1  0  0  0  0
 62 74  1  0  0  0  0
 63 74  1  0  0  0  0
 64 88  1  0  0  0  0
 65 87  1  0  0  0  0
 66 71  1  0  0  0  0
 67 68  1  0  0  0  0
 68 86  1  0  0  0  0
 69 70  1  0  0  0  0
 69 84  1  0  0  0  0
 70 86  1  0  0  0  0
 71 96  1  0  0  0  0
 72 74  1  0  0  0  0
 72 85  1  0  0  0  0
 73 88  1  0  0  0  0
 76 77  1  0  0  0  0
M  CHG  2  87   1  88   1
M  ISO  4  42 100  71 101  82 100  96 101
M  END
> <Batch ID>
0005

> <Smiles>
CCCN(CCNC(=O)C[101CH2:1][101O:1]c1ccc2c(c1)CN(C(=O)C(NC(=O)C(C)NC)C(C)(C)C)C(C(=O)NC1CCCc3ccccc31)C2)c1cc(CN2CCCC2)c2cc([100NH:0][100C:0](=O)N3CCCC(n4nc(-c5ccc(Oc6ccc(F)cc6F)cc5)c(C(N)=O)c4N)C3)ccc2n1

> <Shape>
0.148

> <Color>
0.165

> <Negative vol penalty>
0.000

$$$$

  -OEChem-04042320263D

 85 94  0     1  0  0  0  0  0999 V2000
  -25.4056  -36.2892   22.7114 C   0  0  0  0  0  0  0  0  0  0  0  0
  -26.2184  -35.6328   21.7929 C   0  0  0  0  0  0  0  0  0  0  0  0
  -26.2277  -20.7543   18.0754 C   0  0  0  0  0  0  0  0  0  0  0  0
  -22.2277  -13.1720   22.3576 C   0  0  0  0  0  0  0  0  0  0  0  0
  -23.8860  -12.5305   23.9933 C   0  0  0  0  0  0  0  0  0  0  0  0
  -27.2071  -21.7161   18.3227 C   0  0  0  0  0  0  0  0  0  0  0  0
  -25.0349  -35.6504   23.8940 C   0  0  0  0  0  0  0  0  0  0  0  0
  -26.6620  -34.3374   22.0568 C   0  0  0  0  0  0  0  0  0  0  0  0
  -28.3058  -28.2119   18.7263 C   0  0  0  0  0  0  0  0  0  0  0  0
  -26.4793  -19.4127   18.3628 C   0  0  0  0  0  0  0  0  0  0  0  0
  -21.2614  -13.2344   23.3617 C   0  0  0  0  0  0  0  0  0  0  0  0
  -22.9198  -12.5930   24.9974 C   0  0  0  0  0  0  0  0  0  0  0  0
  -29.3367  -27.2775   18.6370 C   0  0  0  0  0  0  0  0  0  0  0  0
  -19.3467  -11.0688   25.1133 C   0  0  0  0  0  0  0  0  0  0  0  0
  -18.1055  -10.4874   24.8543 C   0  0  0  0  0  0  0  0  0  0  0  0
  -28.6898  -19.9948   19.1448 C   0  0  0  0  0  0  0  0  0  0  0  0
  -28.5678  -26.2434   20.6763 C   0  0  0  0  0  0  0  0  0  0  0  0
  -17.0347  -12.6287   25.1794 C   0  0  0  0  0  0  0  0  0  0  0  0
  -23.5400  -12.8200   22.6734 C   0  0  0  0  0  0  0  0  0  0  0  0
  -28.4382  -21.3364   18.8574 C   0  0  0  0  0  0  0  0  0  0  0  0
  -24.5272  -11.9293   20.4964 C   0  0  0  0  0  0  0  0  0  0  0  0
  -25.4662  -34.3429   24.1681 C   0  0  0  0  0  0  0  0  0  0  0  0
  -27.4032  -28.1756   19.7989 C   0  0  0  0  0  0  0  0  0  0  0  0
  -26.2978  -33.6810   23.2448 C   0  0  0  0  0  0  0  0  0  0  0  0
  -27.5248  -27.1769   20.7755 C   0  0  0  0  0  0  0  0  0  0  0  0
  -27.7104  -19.0330   18.8975 C   0  0  0  0  0  0  0  0  0  0  0  0
  -21.6075  -12.9449   24.6815 C   0  0  0  0  0  0  0  0  0  0  0  0
  -29.4696  -26.2948   19.6136 C   0  0  0  0  0  0  0  0  0  0  0  0
  -19.4319  -12.4301   25.4054 C   0  0  0  0  0  0  0  0  0  0  0  0
  -16.9495  -11.2673   24.8873 C   0  0  0  0  0  0  0  0  0  0  0  0
  -18.2759  -13.2100   25.4385 C   0  0  0  0  0  0  0  0  0  0  0  0
  -24.5384  -12.7548   21.6366 C   0  0  0  0  0  0  0  0  0  0  0  0
  -25.6885  -12.2434   19.8337 C   0  0  0  0  0  0  0  0  0  0  0  0
  -29.4691  -22.3507   19.1175 C   0  0  0  0  0  0  0  0  0  0  0  0
  -23.5540  -10.9649   20.0739 C   0  0  0  0  0  0  0  0  0  0  0  0
  -26.6395  -30.1665   22.1562 C   0  0  0  0  0  0  0  0  0  0  0  0
  -24.3496  -27.9504   22.7625 C   0  0  0  0  0  0  0  0  0  0  0  0
  -23.3014  -24.7151   22.4785 C   0  0  0  0  0  0  0  0  0  0  0  0
  -29.1330  -17.1248   19.7228 C   0  0  0  0  0  0  0  0  0  0  0  0
  -25.0784  -33.7109   25.4815 C   0  0  0  0  0  0  0  0  0  0  0  0
  -26.2806  -29.1744   19.8665 C   0  0  0  0  0  0  0  0  0  0  0  0
  -26.5697  -27.0822   21.9362 C   0  0  0  0  0  0  0  0  0  0  0  0
  -25.2836  -32.1986   25.5138 C   0  0  0  0  0  0  0  0  0  0  0  0
  -30.1380  -13.8294   20.6215 C   0  0  0  0  0  0  0  0  0  0  0  0
  -31.4143  -22.7973   15.9785 C   0  0  0  0  0  0  0  0  0  0  0  0
  -26.6529  -31.8335   24.9496 C   0  0  0  0  0  0  0  0  0  0  0  0
  -28.8149  -13.1031   20.8741 C   0  0  0  0  0  0  0  0  0  0  0  0
  -32.3679  -23.3055   17.0549 C   0  0  0  0  0  0  0  0  0  0  0  0
  -30.3866  -22.0035   16.7692 C   0  0  0  0  0  0  0  0  0  0  0  0
  -30.0861  -15.2822   21.0909 C   0  0  0  0  0  0  0  0  0  0  0  0
  -27.6386  -15.3392   20.8154 C   0  0  0  0  0  0  0  0  0  0  0  0
  -26.7789  -32.2662   23.4839 C   0  0  1  0  0  0  0  0  0  0  0  0
  -25.7283  -29.3580   21.2767 C   0  0  1  0  0  0  0  0  0  0  0  0
  -27.6210  -13.8908   20.2999 C   0  0  2  0  0  0  0  0  0  0  0  0
  -31.4484  -23.5957   18.2428 C   0  0  1  0  0  0  0  0  0  0  0  0
  -21.4046  -23.1967   23.1061 C   0  0  0  0  0  0  0  0  0  0  0  0
  -25.3806  -27.8527   25.6326 C   0  0  0  0  0  0  0  0  0  0  0  0
  -24.1297  -25.7052   25.9350 C   0  0  0  0  0  0  0  0  0  0  0  0
  -22.8895  -27.8066   25.4168 C   0  0  0  0  0  0  0  0  0  0  0  0
  -22.6787  -24.1308   19.6449 C   0  0  0  0  0  0  0  0  0  0  0  0
  -30.9267  -25.0320   18.2215 C   0  0  0  0  0  0  0  0  0  1  0  0
  -24.2670  -26.7021   23.6073 C   0  0  1  0  0  0  0  0  0  0  0  0
  -21.9747  -24.1208   22.0413 C   0  0  2  0  0  0  0  0  0  0  0  0
  -24.1860  -27.0194   25.1272 C   0  0  0  0  0  0  0  0  0  0  0  0
  -25.6210  -13.5346   21.6980 N   0  0  0  0  0  0  0  0  0  0  0  0
  -26.3010  -13.2004   20.5881 N   0  0  0  0  0  0  0  0  0  0  0  0
  -30.3601  -22.6287   18.0903 N   0  0  0  0  0  0  0  0  0  0  0  0
  -25.4925  -28.0854   21.9615 N   0  0  0  0  0  0  0  0  0  0  0  0
  -28.9323  -15.9668   20.5035 N   0  0  0  0  0  0  0  0  0  0  0  0
  -26.2353  -11.7915   18.6851 N   0  0  0  0  0  0  0  0  0  0  0  0
  -22.4195  -10.7666   20.8726 N   0  0  0  0  0  0  0  0  0  0  0  0
  -27.9656  -17.6702   19.1896 N   0  0  0  0  0  0  0  0  0  0  0  0
  -26.0772  -31.3399   22.6213 N   0  0  0  0  0  0  0  0  0  0  0  0
  -23.1351  -25.9370   23.0955 N   0  0  0  0  0  0  0  0  0  0  0  0
  -22.1464  -23.3395   20.7839 N   0  3  0  0  0  0  0  0  0  0  0  0
  -29.4619  -22.8870   20.2232 O   0  0  0  0  0  0  0  0  0  0  0  0
  -23.6946  -10.2868   19.0280 O   0  0  0  0  0  0  0  0  0  0  0  0
  -27.7687  -29.7555   22.3963 O   0  0  0  0  0  0  0  0  0  0  0  0
  -23.4306  -28.7721   22.8061 O   0  0  0  0  0  0  0  0  0  0  0  0
  -24.3773  -24.1501   22.2948 O   0  0  0  0  0  0  0  0  0  0  0  0
  -30.2604  -17.5822   19.5182 O   0  0  0  0  0  0  0  0  0  0  0  0
  -20.6650  -13.0059   25.6616 O   0  0  0  0  0  0  0  0  0  0  0  0
  -30.4753  -25.3820   19.5292 O   0  0  0  0  0  0  0  0  0  1  0  0
  -15.7579  -10.7092   24.6371 F   0  0  0  0  0  0  0  0  0  0  0  0
  -18.3516  -14.5185   25.7174 F   0  0  0  0  0  0  0  0  0  0  0  0
  1  2  1  0  0  0  0
  1  7  2  0  0  0  0
  2  8  2  0  0  0  0
  3  6  2  0  0  0  0
  3 10  1  0  0  0  0
  4 11  2  0  0  0  0
  4 19  1  0  0  0  0
  5 12  1  0  0  0  0
  5 19  2  0  0  0  0
  6 20  1  0  0  0  0
  7 22  1  0  0  0  0
  8 24  1  0  0  0  0
  9 13  2  0  0  0  0
  9 23  1  0  0  0  0
 10 26  2  0  0  0  0
 11 27  1  0  0  0  0
 12 27  2  0  0  0  0
 13 28  1  0  0  0  0
 14 15  2  0  0  0  0
 14 29  1  0  0  0  0
 15 30  1  0  0  0  0
 16 20  2  0  0  0  0
 16 26  1  0  0  0  0
 17 25  1  0  0  0  0
 17 28  2  0  0  0  0
 18 30  2  0  0  0  0
 18 31  1  0  0  0  0
 19 32  1  0  0  0  0
 20 34  1  0  0  0  0
 21 32  1  0  0  0  0
 21 33  2  0  0  0  0
 21 35  1  0  0  0  0
 22 24  2  0  0  0  0
 22 40  1  0  0  0  0
 23 25  2  0  0  0  0
 23 41  1  0  0  0  0
 24 52  1  0  0  0  0
 25 42  1  0  0  0  0
 26 72  1  0  0  0  0
 27 82  1  0  0  0  0
 28 83  1  0  0  0  0
 29 31  2  0  0  0  0
 29 82  1  0  0  0  0
 30 84  1  0  0  0  0
 31 85  1  0  0  0  0
 32 65  2  0  0  0  0
 33 66  1  0  0  0  0
 33 70  1  0  0  0  0
 34 67  1  0  0  0  0
 34 76  2  0  0  0  0
 35 71  1  0  0  0  0
 35 77  2  0  0  0  0
 36 53  1  0  0  0  0
 36 73  1  0  0  0  0
 36 78  2  0  0  0  0
 37 62  1  0  0  0  0
 37 68  1  0  0  0  0
 37 79  2  0  0  0  0
 38 63  1  0  0  0  0
 38 74  1  0  0  0  0
 38 80  2  0  0  0  0
 39 69  1  0  0  0  0
 39 72  1  0  0  0  0
 39 81  2  0  0  0  0
 40 43  1  0  0  0  0
 41 53  1  0  0  0  0
 42 68  1  0  0  0  0
 43 46  1  0  0  0  0
 44 47  1  0  0  0  0
 44 50  1  0  0  0  0
 45 48  1  0  0  0  0
 45 49  1  0  0  0  0
 46 52  1  0  0  0  0
 47 54  1  0  0  0  0
 48 55  1  0  0  0  0
 49 67  1  0  0  0  0
 50 69  1  0  0  0  0
 51 54  1  0  0  0  0
 51 69  1  0  0  0  0
 52 73  1  0  0  0  0
 53 68  1  0  0  0  0
 54 66  1  0  0  0  0
 55 61  1  0  0  0  0
 55 67  1  0  0  0  0
 56 63  1  0  0  0  0
 57 64  1  0  0  0  0
 58 64  1  0  0  0  0
 59 64  1  0  0  0  0
 60 75  1  0  0  0  0
 61 83  1  0  0  0  0
 62 64  1  0  0  0  0
 62 74  1  0  0  0  0
 63 75  1  0  0  0  0
 65 66  1  0  0  0  0
M  CHG  1  75   1
M  ISO  4  39 100  61 101  72 100  83 101
M  END
> <Batch ID>
0005

> <Smiles>
CNC(C)C(=O)NC(C(=O)N1Cc2cc([101O:1][101CH2:1]C3CCCN3C(=O)c3cccc([100NH:0][100C:0](=O)N4CCCC(n5nc(-c6ccc(Oc7ccc(F)cc7F)cc6)c(C(N)=O)c5N)C4)c3)ccc2CC1C(=O)NC1CCCc2ccccc21)C(C)(C)C

> <Shape>
0.269

> <Color>
0.078

> <Negative vol penalty>
0.000

$$$$

  -OEChem-04042320263D

 85 94  0     1  0  0  0  0  0999 V2000
  -28.4172  -37.5619   22.7587 C   0  0  0  0  0  0  0  0  0  0  0  0
  -28.7914  -36.2416   22.5305 C   0  0  0  0  0  0  0  0  0  0  0  0
  -22.9591  -10.6937   19.3912 C   0  0  0  0  0  0  0  0  0  0  0  0
  -23.4679   -9.6673   21.5183 C   0  0  0  0  0  0  0  0  0  0  0  0
  -27.3991  -37.8497   23.6668 C   0  0  0  0  0  0  0  0  0  0  0  0
  -28.1486  -35.2083   23.2112 C   0  0  0  0  0  0  0  0  0  0  0  0
  -26.9470  -31.3357   20.1773 C   0  0  0  0  0  0  0  0  0  0  0  0
  -31.0400  -19.5010   18.9133 C   0  0  0  0  0  0  0  0  0  0  0  0
  -30.8234  -18.1356   19.1214 C   0  0  0  0  0  0  0  0  0  0  0  0
  -22.0383   -9.6809   19.1227 C   0  0  0  0  0  0  0  0  0  0  0  0
  -22.5471   -8.6545   21.2499 C   0  0  0  0  0  0  0  0  0  0  0  0
  -27.9726  -30.4581   19.8285 C   0  0  0  0  0  0  0  0  0  0  0  0
  -19.1936   -8.2487   21.3501 C   0  0  0  0  0  0  0  0  0  0  0  0
  -18.3201   -7.8812   22.3735 C   0  0  0  0  0  0  0  0  0  0  0  0
  -29.6744  -19.4586   16.9053 C   0  0  0  0  0  0  0  0  0  0  0  0
  -27.2032  -28.9025   21.5039 C   0  0  0  0  0  0  0  0  0  0  0  0
  -19.1925   -5.6291   22.3092 C   0  0  0  0  0  0  0  0  0  0  0  0
  -23.6740  -10.6868   20.5889 C   0  0  0  0  0  0  0  0  0  0  0  0
  -24.3784  -12.9564   21.5166 C   0  0  0  0  0  0  0  0  0  0  0  0
  -26.7369  -36.8188   24.3518 C   0  0  0  0  0  0  0  0  0  0  0  0
  -26.0468  -31.0075   21.2012 C   0  0  0  0  0  0  0  0  0  0  0  0
  -27.1216  -35.4826   24.1303 C   0  0  0  0  0  0  0  0  0  0  0  0
  -29.4582  -18.1069   17.1233 C   0  0  0  0  0  0  0  0  0  0  0  0
  -26.1654  -29.7765   21.8621 C   0  0  0  0  0  0  0  0  0  0  0  0
  -30.4699  -20.1581   17.8133 C   0  0  0  0  0  0  0  0  0  0  0  0
  -30.0276  -17.4497   18.2155 C   0  0  0  0  0  0  0  0  0  0  0  0
  -21.8323   -8.6614   20.0521 C   0  0  0  0  0  0  0  0  0  0  0  0
  -28.1026  -29.2426   20.4938 C   0  0  0  0  0  0  0  0  0  0  0  0
  -20.0665   -7.3064   20.8061 C   0  0  0  0  0  0  0  0  0  0  0  0
  -18.3196   -6.5714   22.8531 C   0  0  0  0  0  0  0  0  0  0  0  0
  -20.0660   -5.9966   21.2857 C   0  0  0  0  0  0  0  0  0  0  0  0
  -24.6257  -11.7324   20.8666 C   0  0  0  0  0  0  0  0  0  0  0  0
  -25.5971  -13.5896   21.5315 C   0  0  0  0  0  0  0  0  0  0  0  0
  -23.1563  -13.4746   22.0585 C   0  0  0  0  0  0  0  0  0  0  0  0
  -25.2995  -32.2700   24.0210 C   0  0  0  0  0  0  0  0  0  0  0  0
  -22.9992  -29.9830   23.9977 C   0  0  0  0  0  0  0  0  0  0  0  0
  -21.9330  -26.9580   22.8318 C   0  0  0  0  0  0  0  0  0  0  0  0
  -30.2972  -15.0918   18.9539 C   0  0  0  0  0  0  0  0  0  0  0  0
  -25.6747  -37.1819   25.3590 C   0  0  0  0  0  0  0  0  0  0  0  0
  -24.9297  -31.9533   21.5474 C   0  0  0  0  0  0  0  0  0  0  0  0
  -28.7012  -17.1584   16.2509 C   0  0  0  0  0  0  0  0  0  0  0  0
  -25.2126  -29.3680   22.9547 C   0  0  0  0  0  0  0  0  0  0  0  0
  -24.7885  -36.0056   25.7606 C   0  0  0  0  0  0  0  0  0  0  0  0
  -30.2204  -11.8957   20.4550 C   0  0  0  0  0  0  0  0  0  0  0  0
  -25.6388  -34.7766   26.0664 C   0  0  0  0  0  0  0  0  0  0  0  0
  -28.7389  -11.6445   20.7223 C   0  0  0  0  0  0  0  0  0  0  0  0
  -28.6676  -15.8961   17.1221 C   0  0  0  0  0  0  0  0  0  0  0  0
  -30.4144  -12.6255   19.1328 C   0  0  0  0  0  0  0  0  0  0  0  0
  -28.1980  -13.7217   19.3482 C   0  0  0  0  0  0  0  0  0  0  0  0
  -26.4311  -34.3326   24.8309 C   0  0  1  0  0  0  0  0  0  0  0  0
  -24.3818  -31.7412   22.9553 C   0  0  1  0  0  0  0  0  0  0  0  0
  -27.9478  -12.9606   20.6664 C   0  0  1  0  0  0  0  0  0  0  0  0
  -20.0296  -25.3336   23.0209 C   0  0  0  0  0  0  0  0  0  0  0  0
  -24.0366  -29.0886   26.7242 C   0  0  0  0  0  0  0  0  0  0  0  0
  -22.7749  -26.9470   26.4241 C   0  0  0  0  0  0  0  0  0  0  0  0
  -21.5447  -29.1153   26.5136 C   0  0  0  0  0  0  0  0  0  0  0  0
  -21.3003  -27.1853   19.9496 C   0  0  0  0  0  0  0  0  0  0  0  0
  -30.7203  -21.6150   17.6112 C   0  0  0  0  0  0  0  0  0  0  0  0
  -29.4131  -24.7046   19.4255 C   0  0  0  0  0  0  0  0  0  0  0  0
  -29.6313  -26.2089   19.2826 C   0  0  0  0  0  0  0  0  0  0  0  0
  -30.2299  -23.9340   18.3991 C   0  0  0  0  0  0  0  0  0  0  0  0
  -28.8537  -26.9920   20.3309 C   0  0  0  0  0  0  0  0  0  1  0  0
  -22.9119  -28.5497   24.4635 C   0  0  1  0  0  0  0  0  0  0  0  0
  -20.6021  -26.5142   22.2519 C   0  0  2  0  0  0  0  0  0  0  0  0
  -22.8363  -28.4334   26.0121 C   0  0  0  0  0  0  0  0  0  0  0  0
  -25.9013  -11.5942   20.4953 N   0  0  0  0  0  0  0  0  0  0  0  0
  -26.4664  -12.7396   20.9133 N   0  0  0  0  0  0  0  0  0  0  0  0
  -29.6542  -16.0866   18.2142 N   0  0  0  0  0  0  0  0  0  0  0  0
  -24.1408  -30.3296   23.2612 N   0  0  0  0  0  0  0  0  0  0  0  0
  -29.6333  -13.8619   19.0743 N   0  0  0  0  0  0  0  0  0  0  0  0
  -25.9993  -14.7850   22.0129 N   0  0  0  0  0  0  0  0  0  0  0  0
  -21.9968  -12.6937   21.9582 N   0  0  0  0  0  0  0  0  0  0  0  0
  -25.5726  -33.6199   23.9092 N   0  0  0  0  0  0  0  0  0  0  0  0
  -21.7748  -27.9616   23.7639 N   0  0  0  0  0  0  0  0  0  0  0  0
  -20.7665  -26.1115   20.8266 N   0  3  0  0  0  0  0  0  0  0  0  0
  -29.9514  -22.4815   18.5463 N   0  3  0  0  0  0  0  0  0  0  0  0
  -23.0909  -14.6040   22.6005 O   0  0  0  0  0  0  0  0  0  0  0  0
  -25.7269  -31.5099   24.8820 O   0  0  0  0  0  0  0  0  0  0  0  0
  -22.0847  -30.7644   24.2709 O   0  0  0  0  0  0  0  0  0  0  0  0
  -23.0054  -26.4613   22.4944 O   0  0  0  0  0  0  0  0  0  0  0  0
  -31.4296  -15.2467   19.4275 O   0  0  0  0  0  0  0  0  0  0  0  0
  -20.9337   -7.6731   19.7906 O   0  0  0  0  0  0  0  0  0  0  0  0
  -29.1105  -28.3781   20.1532 O   0  0  0  0  0  0  0  0  0  1  0  0
  -17.4818   -6.2189   23.8371 F   0  0  0  0  0  0  0  0  0  0  0  0
  -20.9031   -5.0873   20.7679 F   0  0  0  0  0  0  0  0  0  0  0  0
  1  2  1  0  0  0  0
  1  5  2  0  0  0  0
  2  6  2  0  0  0  0
  3 10  2  0  0  0  0
  3 18  1  0  0  0  0
  4 11  1  0  0  0  0
  4 18  2  0  0  0  0
  5 20  1  0  0  0  0
  6 22  1  0  0  0  0
  7 12  2  0  0  0  0
  7 21  1  0  0  0  0
  8  9  2  0  0  0  0
  8 25  1  0  0  0  0
  9 26  1  0  0  0  0
 10 27  1  0  0  0  0
 11 27  2  0  0  0  0
 12 28  1  0  0  0  0
 13 14  2  0  0  0  0
 13 29  1  0  0  0  0
 14 30  1  0  0  0  0
 15 23  1  0  0  0  0
 15 25  2  0  0  0  0
 16 24  1  0  0  0  0
 16 28  2  0  0  0  0
 17 30  2  0  0  0  0
 17 31  1  0  0  0  0
 18 32  1  0  0  0  0
 19 32  1  0  0  0  0
 19 33  2  0  0  0  0
 19 34  1  0  0  0  0
 20 22  2  0  0  0  0
 20 39  1  0  0  0  0
 21 24  2  0  0  0  0
 21 40  1  0  0  0  0
 22 50  1  0  0  0  0
 23 26  2  0  0  0  0
 23 41  1  0  0  0  0
 24 42  1  0  0  0  0
 25 58  1  0  0  0  0
 26 68  1  0  0  0  0
 27 82  1  0  0  0  0
 28 83  1  0  0  0  0
 29 31  2  0  0  0  0
 29 82  1  0  0  0  0
 30 84  1  0  0  0  0
 31 85  1  0  0  0  0
 32 66  2  0  0  0  0
 33 67  1  0  0  0  0
 33 71  1  0  0  0  0
 34 72  1  0  0  0  0
 34 77  2  0  0  0  0
 35 51  1  0  0  0  0
 35 73  1  0  0  0  0
 35 78  2  0  0  0  0
 36 63  1  0  0  0  0
 36 69  1  0  0  0  0
 36 79  2  0  0  0  0
 37 64  1  0  0  0  0
 37 74  1  0  0  0  0
 37 80  2  0  0  0  0
 38 68  1  0  0  0  0
 38 70  1  0  0  0  0
 38 81  2  0  0  0  0
 39 43  1  0  0  0  0
 40 51  1  0  0  0  0
 41 47  1  0  0  0  0
 42 69  1  0  0  0  0
 43 45  1  0  0  0  0
 44 46  1  0  0  0  0
 44 48  1  0  0  0  0
 45 50  1  0  0  0  0
 46 52  1  0  0  0  0
 47 68  1  0  0  0  0
 48 70  1  0  0  0  0
 49 52  1  0  0  0  0
 49 70  1  0  0  0  0
 50 73  1  0  0  0  0
 51 69  1  0  0  0  0
 52 67  1  0  0  0  0
 53 64  1  0  0  0  0
 54 65  1  0  0  0  0
 55 65  1  0  0  0  0
 56 65  1  0  0  0  0
 57 75  1  0  0  0  0
 58 76  1  0  0  0  0
 59 60  1  0  0  0  0
 59 61  1  0  0  0  0
 60 62  1  0  0  0  0
 61 76  1  0  0  0  0
 62 83  1  0  0  0  0
 63 65  1  0  0  0  0
 63 74  1  0  0  0  0
 64 75  1  0  0  0  0
 66 67  1  0  0  0  0
M  CHG  2  75   1  76   1
M  ISO  4  38 100  62 101  68 100  83 101
M  END
> <Batch ID>
0005

> <Smiles>
CNC(C)C(=O)NC(C(=O)N1Cc2cc([101O:1][101CH2:1]CCCNCc3ccc4c(c3)CC[100N:0]4[100C:0](=O)N3CCCC(n4nc(-c5ccc(Oc6ccc(F)cc6F)cc5)c(C(N)=O)c4N)C3)ccc2CC1C(=O)NC1CCCc2ccccc21)C(C)(C)C

> <Shape>
0.312

> <Color>
0.111

> <Negative vol penalty>
0.000

$$$$

  -OEChem-04042320263D

 92101  0     1  0  0  0  0  0999 V2000
  -27.5635  -35.0618   26.8530 C   0  0  0  0  0  0  0  0  0  0  0  0
  -27.6416  -34.0438   25.9080 C   0  0  0  0  0  0  0  0  0  0  0  0
  -22.9788   -9.9482   20.4114 C   0  0  0  0  0  0  0  0  0  0  0  0
  -24.4050   -9.0273   22.1304 C   0  0  0  0  0  0  0  0  0  0  0  0
  -26.4493  -35.1542   27.6860 C   0  0  0  0  0  0  0  0  0  0  0  0
  -26.6058  -33.1170   25.7961 C   0  0  0  0  0  0  0  0  0  0  0  0
  -25.3086  -32.2248   20.9830 C   0  0  0  0  0  0  0  0  0  0  0  0
  -31.8659  -18.0318   21.3303 C   0  0  0  0  0  0  0  0  0  0  0  0
  -31.4862  -19.3428   21.0427 C   0  0  0  0  0  0  0  0  0  0  0  0
  -22.2476   -8.7608   20.3818 C   0  0  0  0  0  0  0  0  0  0  0  0
  -23.6737   -7.8398   22.1009 C   0  0  0  0  0  0  0  0  0  0  0  0
  -26.1362  -31.3780   20.2470 C   0  0  0  0  0  0  0  0  0  0  0  0
  -20.7298   -6.6988   23.3057 C   0  0  0  0  0  0  0  0  0  0  0  0
  -20.3695   -6.1308   24.5276 C   0  0  0  0  0  0  0  0  0  0  0  0
  -24.5920  -29.5611   20.6123 C   0  0  0  0  0  0  0  0  0  0  0  0
  -30.7552  -24.4927   21.0057 C   0  0  0  0  0  0  0  0  0  0  0  0
  -28.9077  -23.6360   19.7059 C   0  0  0  0  0  0  0  0  0  0  0  0
  -29.6390  -19.1467   22.5875 C   0  0  0  0  0  0  0  0  0  0  0  0
  -21.5982   -4.1295   23.9596 C   0  0  0  0  0  0  0  0  0  0  0  0
  -24.0575  -10.0815   21.2857 C   0  0  0  0  0  0  0  0  0  0  0  0
  -24.5710  -12.4361   22.1223 C   0  0  0  0  0  0  0  0  0  0  0  0
  -25.3949  -34.2337   27.5778 C   0  0  0  0  0  0  0  0  0  0  0  0
  -24.1199  -31.7426   21.5493 C   0  0  0  0  0  0  0  0  0  0  0  0
  -25.4770  -33.1963   26.6293 C   0  0  0  0  0  0  0  0  0  0  0  0
  -23.7497  -30.4045   21.3529 C   0  0  0  0  0  0  0  0  0  0  0  0
  -31.1321  -17.2782   22.2465 C   0  0  0  0  0  0  0  0  0  0  0  0
  -30.1060  -23.4241   20.3876 C   0  0  0  0  0  0  0  0  0  0  0  0
  -30.3728  -19.9002   21.6713 C   0  0  0  0  0  0  0  0  0  0  0  0
  -29.0077  -25.9853   20.2605 C   0  0  0  0  0  0  0  0  0  0  0  0
  -22.5950   -7.7066   21.2266 C   0  0  0  0  0  0  0  0  0  0  0  0
  -25.7794  -30.0452   20.0640 C   0  0  0  0  0  0  0  0  0  0  0  0
  -21.5242   -5.9822   22.4106 C   0  0  0  0  0  0  0  0  0  0  0  0
  -20.8037   -4.8462   24.8546 C   0  0  0  0  0  0  0  0  0  0  0  0
  -30.0187  -17.8356   22.8751 C   0  0  0  0  0  0  0  0  0  0  0  0
  -21.9584   -4.6976   22.7376 C   0  0  0  0  0  0  0  0  0  0  0  0
  -30.2060  -25.7734   20.9422 C   0  0  0  0  0  0  0  0  0  0  0  0
  -28.3585  -24.9167   19.6423 C   0  0  0  0  0  0  0  0  0  0  0  0
  -24.8135  -11.3077   21.3162 C   0  0  0  0  0  0  0  0  0  0  0  0
  -25.5610  -13.3235   21.7775 C   0  0  0  0  0  0  0  0  0  0  0  0
  -23.5428  -12.6618   23.0957 C   0  0  0  0  0  0  0  0  0  0  0  0
  -23.0028  -31.4518   24.5109 C   0  0  0  0  0  0  0  0  0  0  0  0
  -20.2919  -30.5376   22.9819 C   0  0  0  0  0  0  0  0  0  0  0  0
  -18.8452  -29.2371   20.1779 C   0  0  0  0  0  0  0  0  0  0  0  0
  -30.9047  -14.4469   20.6254 C   0  0  0  0  0  0  0  0  0  0  0  0
  -24.2325  -34.3458   28.5321 C   0  0  0  0  0  0  0  0  0  0  0  0
  -23.2248  -32.6756   22.3180 C   0  0  0  0  0  0  0  0  0  0  0  0
  -22.4739  -29.8427   21.9230 C   0  0  0  0  0  0  0  0  0  0  0  0
  -23.0070  -33.5469   28.0959 C   0  0  0  0  0  0  0  0  0  0  0  0
  -28.8787  -13.2350   17.9603 C   0  0  0  0  0  0  0  0  0  0  0  0
  -23.4123  -32.1413   27.6635 C   0  0  0  0  0  0  0  0  0  0  0  0
  -27.6239  -12.7133   18.6627 C   0  0  0  0  0  0  0  0  0  0  0  0
  -30.1368  -12.9759   18.7861 C   0  0  0  0  0  0  0  0  0  0  0  0
  -28.8277  -12.9568   20.8741 C   0  0  0  0  0  0  0  0  0  0  0  0
  -24.3625  -32.1866   26.4608 C   0  0  1  0  0  0  0  0  0  0  0  0
  -22.2932  -31.9495   23.2836 C   0  0  1  0  0  0  0  0  0  0  0  0
  -27.5269  -13.2450   20.1053 C   0  0  2  0  0  0  0  0  0  0  0  0
  -16.6147  -28.5728   19.2393 C   0  0  0  0  0  0  0  0  0  0  0  0
  -20.3231  -28.0156   24.6990 C   0  0  0  0  0  0  0  0  0  0  0  0
  -18.6892  -26.9920   23.1018 C   0  0  0  0  0  0  0  0  0  0  0  0
  -18.0617  -29.0365   24.3859 C   0  0  0  0  0  0  0  0  0  0  0  0
  -19.0649  -31.1898   17.9649 C   0  0  0  0  0  0  0  0  0  0  0  0
  -31.5408  -15.8766   22.5517 C   0  0  0  0  0  0  0  0  0  0  0  0
  -30.6936  -22.0548   20.4545 C   0  0  0  0  0  0  0  0  0  0  0  0
  -28.7604  -28.2053   19.1487 C   0  0  0  0  0  0  0  0  0  0  0  0
  -27.9853  -29.4940   19.3668 C   0  0  0  0  0  0  0  0  0  1  0  0
  -19.7301  -29.2236   22.4955 C   0  0  1  0  0  0  0  0  0  0  0  0
  -17.6448  -29.6847   19.3637 C   0  0  2  0  0  0  0  0  0  0  0  0
  -19.2261  -28.3267   23.6613 C   0  0  0  0  0  0  0  0  0  0  0  0
  -25.8743  -11.4617   20.5193 N   0  0  0  0  0  0  0  0  0  0  0  0
  -26.3071  -12.6973   20.8229 N   0  0  0  0  0  0  0  0  0  0  0  0
  -21.6353  -30.7930   22.6722 N   0  0  0  0  0  0  0  0  0  0  0  0
  -29.9802  -13.5060   20.1428 N   0  0  0  0  0  0  0  0  0  0  0  0
  -25.8573  -14.5707   22.2008 N   0  0  0  0  0  0  0  0  0  0  0  0
  -22.6064  -11.6448   23.3266 N   0  0  0  0  0  0  0  0  0  0  0  0
  -29.9958  -21.2043   21.3852 N   0  0  0  0  0  0  0  0  0  0  0  0
  -28.4623  -27.2570   20.1974 N   0  0  0  0  0  0  0  0  0  0  0  0
  -23.6245  -32.4452   25.2431 N   0  0  0  0  0  0  0  0  0  0  0  0
  -18.7055  -29.5568   21.5119 N   0  0  0  0  0  0  0  0  0  0  0  0
  -30.6797  -14.9027   21.9186 N   0  0  0  0  0  0  0  0  0  0  0  0
  -18.0695  -30.0874   17.9931 N   0  3  0  0  0  0  0  0  0  0  0  0
  -23.4471  -13.7400   23.7297 O   0  0  0  0  0  0  0  0  0  0  0  0
  -22.9861  -30.2553   24.7750 O   0  0  0  0  0  0  0  0  0  0  0  0
  -19.5635  -31.3123   23.6073 O   0  0  0  0  0  0  0  0  0  0  0  0
  -19.8087  -28.6581   19.6810 O   0  0  0  0  0  0  0  0  0  0  0  0
  -31.8569  -14.8549   19.9517 O   0  0  0  0  0  0  0  0  0  0  0  0
  -21.8816   -6.5478   21.1982 O   0  0  0  0  0  0  0  0  0  0  0  0
  -26.5858  -29.2164   19.3465 O   0  0  0  0  0  0  0  0  0  1  0  0
  -20.4590   -4.3014   26.0287 F   0  0  0  0  0  0  0  0  0  0  0  0
  -29.3066  -17.1189   23.7559 F   0  0  0  0  0  0  0  0  0  0  0  0
  -22.7227   -4.0047   21.8823 F   0  0  0  0  0  0  0  0  0  0  0  0
  -31.0455  -27.0647   21.7254 Cl  0  0  0  0  0  0  0  0  0  0  0  0
  -26.8717  -25.1301   18.7868 Cl  0  0  0  0  0  0  0  0  0  0  0  0
  1  2  1  0  0  0  0
  1  5  2  0  0  0  0
  2  6  2  0  0  0  0
  3 10  2  0  0  0  0
  3 20  1  0  0  0  0
  4 11  1  0  0  0  0
  4 20  2  0  0  0  0
  5 22  1  0  0  0  0
  6 24  1  0  0  0  0
  7 12  2  0  0  0  0
  7 23  1  0  0  0  0
  8  9  2  0  0  0  0
  8 26  1  0  0  0  0
  9 28  1  0  0  0  0
 10 30  1  0  0  0  0
 11 30  2  0  0  0  0
 12 31  1  0  0  0  0
 13 14  2  0  0  0  0
 13 32  1  0  0  0  0
 14 33  1  0  0  0  0
 15 25  1  0  0  0  0
 15 31  2  0  0  0  0
 16 27  1  0  0  0  0
 16 36  2  0  0  0  0
 17 27  2  0  0  0  0
 17 37  1  0  0  0  0
 18 28  2  0  0  0  0
 18 34  1  0  0  0  0
 19 33  2  0  0  0  0
 19 35  1  0  0  0  0
 20 38  1  0  0  0  0
 21 38  1  0  0  0  0
 21 39  2  0  0  0  0
 21 40  1  0  0  0  0
 22 24  2  0  0  0  0
 22 45  1  0  0  0  0
 23 25  2  0  0  0  0
 23 46  1  0  0  0  0
 24 54  1  0  0  0  0
 25 47  1  0  0  0  0
 26 34  2  0  0  0  0
 26 62  1  0  0  0  0
 27 63  1  0  0  0  0
 28 75  1  0  0  0  0
 29 36  1  0  0  0  0
 29 37  2  0  0  0  0
 29 76  1  0  0  0  0
 30 86  1  0  0  0  0
 31 87  1  0  0  0  0
 32 35  2  0  0  0  0
 32 86  1  0  0  0  0
 33 88  1  0  0  0  0
 34 89  1  0  0  0  0
 35 90  1  0  0  0  0
 36 91  1  0  0  0  0
 37 92  1  0  0  0  0
 38 69  2  0  0  0  0
 39 70  1  0  0  0  0
 39 73  1  0  0  0  0
 40 74  1  0  0  0  0
 40 81  2  0  0  0  0
 41 55  1  0  0  0  0
 41 77  1  0  0  0  0
 41 82  2  0  0  0  0
 42 66  1  0  0  0  0
 42 71  1  0  0  0  0
 42 83  2  0  0  0  0
 43 67  1  0  0  0  0
 43 78  1  0  0  0  0
 43 84  2  0  0  0  0
 44 72  1  0  0  0  0
 44 79  1  0  0  0  0
 44 85  2  0  0  0  0
 45 48  1  0  0  0  0
 46 55  1  0  0  0  0
 47 71  1  0  0  0  0
 48 50  1  0  0  0  0
 49 51  1  0  0  0  0
 49 52  1  0  0  0  0
 50 54  1  0  0  0  0
 51 56  1  0  0  0  0
 52 72  1  0  0  0  0
 53 56  1  0  0  0  0
 53 72  1  0  0  0  0
 54 77  1  0  0  0  0
 55 71  1  0  0  0  0
 56 70  1  0  0  0  0
 57 67  1  0  0  0  0
 58 68  1  0  0  0  0
 59 68  1  0  0  0  0
 60 68  1  0  0  0  0
 61 80  1  0  0  0  0
 62 79  1  0  0  0  0
 63 75  1  0  0  0  0
 64 65  1  0  0  0  0
 64 76  1  0  0  0  0
 65 87  1  0  0  0  0
 66 68  1  0  0  0  0
 66 78  1  0  0  0  0
 67 80  1  0  0  0  0
 69 70  1  0  0  0  0
M  CHG  1  80   1
M  ISO  4  44 100  65 101  79 100  87 101
M  END
> <Batch ID>
0005

> <Smiles>
CNC(C)C(=O)NC(C(=O)N1Cc2cc([101O:1][101CH2:1]CNc3c(Cl)cc(CNc4ccc(C[100NH:0][100C:0](=O)N5CCCC(n6nc(-c7ccc(Oc8ccc(F)cc8F)cc7)c(C(N)=O)c6N)C5)c(F)c4)cc3Cl)ccc2CC1C(=O)NC1CCCc2ccccc21)C(C)(C)C

> <Shape>
0.352

> <Color>
0.124

> <Negative vol penalty>
0.000

$$$$

  -OEChem-04042320263D

 90100  0     1  0  0  0  0  0999 V2000
  -33.6712   -5.9733   17.8744 C   0  0  0  0  0  0  0  0  0  0  0  0
  -33.5655   -7.2215   17.2692 C   0  0  0  0  0  0  0  0  0  0  0  0
  -25.4091  -38.5635   24.2817 C   0  0  0  0  0  0  0  0  0  0  0  0
  -26.8408  -37.0654   23.0395 C   0  0  0  0  0  0  0  0  0  0  0  0
  -32.5398   -5.3642   18.4154 C   0  0  0  0  0  0  0  0  0  0  0  0
  -32.3280   -7.8608   17.2036 C   0  0  0  0  0  0  0  0  0  0  0  0
  -31.3558  -14.3684   20.1356 C   0  0  0  0  0  0  0  0  0  0  0  0
  -26.5000  -39.3943   24.5371 C   0  0  0  0  0  0  0  0  0  0  0  0
  -27.9317  -37.8963   23.2949 C   0  0  0  0  0  0  0  0  0  0  0  0
  -31.1471  -15.7022   20.4871 C   0  0  0  0  0  0  0  0  0  0  0  0
  -29.1442  -39.4563   26.6415 C   0  0  0  0  0  0  0  0  0  0  0  0
  -29.3016  -39.9366   27.9416 C   0  0  0  0  0  0  0  0  0  0  0  0
  -28.8268  -15.5236   19.8295 C   0  0  0  0  0  0  0  0  0  0  0  0
  -29.1365  -42.2040   27.1238 C   0  0  0  0  0  0  0  0  0  0  0  0
  -25.5795  -37.3990   23.5329 C   0  0  0  0  0  0  0  0  0  0  0  0
  -23.2682  -36.8772   22.5878 C   0  0  0  0  0  0  0  0  0  0  0  0
  -31.2895   -6.0006   18.3650 C   0  0  0  0  0  0  0  0  0  0  0  0
  -30.2958  -13.6018   19.6436 C   0  0  0  0  0  0  0  0  0  0  0  0
  -31.1785   -7.2590   17.7432 C   0  0  0  0  0  0  0  0  0  0  0  0
  -29.0269  -14.1835   19.4875 C   0  0  0  0  0  0  0  0  0  0  0  0
  -27.7613  -39.0607   24.0437 C   0  0  0  0  0  0  0  0  0  0  0  0
  -29.8858  -16.2784   20.3342 C   0  0  0  0  0  0  0  0  0  0  0  0
  -28.9830  -40.3498   25.5826 C   0  0  0  0  0  0  0  0  0  0  0  0
  -29.2978  -41.3105   28.1827 C   0  0  0  0  0  0  0  0  0  0  0  0
  -28.9791  -41.7237   25.8237 C   0  0  0  0  0  0  0  0  0  0  0  0
  -24.4531  -36.5401   23.2692 C   0  0  0  0  0  0  0  0  0  0  0  0
  -22.5229  -35.7235   22.6038 C   0  0  0  0  0  0  0  0  0  0  0  0
  -22.8763  -38.1217   21.9936 C   0  0  0  0  0  0  0  0  0  0  0  0
  -29.1295  -10.2668   18.3813 C   0  0  0  0  0  0  0  0  0  0  0  0
  -26.8984  -11.3710   20.1739 C   0  0  0  0  0  0  0  0  0  0  0  0
  -24.8698  -12.7452   22.5475 C   0  0  0  0  0  0  0  0  0  0  0  0
  -23.9805  -29.9336   23.0539 C   0  0  0  0  0  0  0  0  0  0  0  0
  -30.0861   -5.2818   18.9214 C   0  0  0  0  0  0  0  0  0  0  0  0
  -30.4893  -12.1789   19.1946 C   0  0  0  0  0  0  0  0  0  0  0  0
  -27.9245  -13.3305   18.9218 C   0  0  0  0  0  0  0  0  0  0  0  0
  -28.8814   -6.1926   19.1435 C   0  0  0  0  0  0  0  0  0  0  0  0
  -23.0630  -29.4077   19.3886 C   0  0  0  0  0  0  0  0  0  0  0  0
  -21.8037  -31.7659   25.1942 C   0  0  0  0  0  0  0  0  0  0  0  0
  -28.6524   -7.0815   17.9252 C   0  0  0  0  0  0  0  0  0  0  0  0
  -24.2268  -30.2766   18.9020 C   0  0  0  0  0  0  0  0  0  0  0  0
  -22.1290  -33.2276   24.8821 C   0  0  0  0  0  0  0  0  0  0  0  0
  -23.6339  -28.4681   20.4534 C   0  0  0  0  0  0  0  0  0  0  0  0
  -26.1736  -28.6860   18.6889 C   0  0  0  0  0  0  0  0  0  0  0  0
  -26.2343  -24.0187   20.8303 C   0  0  0  0  0  0  0  0  0  0  0  0
  -28.7497  -24.1155   20.7366 C   0  0  0  0  0  0  0  0  0  0  0  0
  -23.0513  -30.8868   25.1430 C   0  0  0  0  0  0  0  0  0  0  0  0
  -24.1492  -32.4422   23.5781 C   0  0  0  0  0  0  0  0  0  0  0  0
  -27.1980  -27.8607   19.4461 C   0  0  0  0  0  0  0  0  0  0  0  0
  -26.2646  -22.6859   20.0948 C   0  0  0  0  0  0  0  0  0  0  0  0
  -28.7671  -22.7824   20.0013 C   0  0  0  0  0  0  0  0  0  0  0  0
  -25.9294  -28.1570   21.5804 C   0  0  0  0  0  0  0  0  0  0  0  0
  -29.8581   -7.9952   17.6745 C   0  0  1  0  0  0  0  0  0  0  0  0
  -29.2667  -11.2864   19.4735 C   0  0  1  0  0  0  0  0  0  0  0  0
  -25.4825  -29.7218   19.5885 C   0  0  2  0  0  0  0  0  0  0  0  0
  -27.4492  -24.8871   20.4834 C   0  0  0  0  0  0  0  0  0  0  0  0
  -22.9135  -33.3581   23.5627 C   0  0  2  0  0  0  0  0  0  0  0  0
  -24.9496  -29.1213   20.9049 C   0  0  1  0  0  0  0  0  0  0  0  0
  -22.7047  -12.3543   23.7543 C   0  0  0  0  0  0  0  0  0  0  0  0
  -25.3599  -12.2395   17.6874 C   0  0  0  0  0  0  0  0  0  0  0  0
  -23.4012  -12.7453   19.1626 C   0  0  0  0  0  0  0  0  0  0  0  0
  -24.2709  -10.4127   19.0032 C   0  0  0  0  0  0  0  0  0  0  0  0
  -26.2219  -12.6353   25.1778 C   0  0  0  0  0  0  0  0  0  0  0  0
  -27.4286  -26.1905   21.2788 C   0  0  0  0  0  0  0  0  0  0  0  0
  -28.6358  -19.7313   20.4859 C   0  0  0  0  0  0  0  0  0  0  0  0
  -27.5889  -20.5948   19.7984 C   0  0  0  0  0  0  0  0  0  0  0  0
  -28.6930  -18.3021   19.9605 C   0  0  0  0  0  0  0  0  0  1  0  0
  -25.6115  -12.1525   20.2555 C   0  0  1  0  0  0  0  0  0  0  0  0
  -24.2113  -12.1485   23.7781 C   0  0  2  0  0  0  0  0  0  0  0  0
  -24.6861  -11.8998   19.0319 C   0  0  0  0  0  0  0  0  0  0  0  0
  -24.4643  -35.2717   23.6876 N   0  0  0  0  0  0  0  0  0  0  0  0
  -23.2772  -34.8017   23.2681 N   0  0  0  0  0  0  0  0  0  0  0  0
  -27.9720  -11.9869   19.5193 N   0  0  0  0  0  0  0  0  0  0  0  0
  -23.7484  -31.0561   23.8658 N   0  0  0  0  0  0  0  0  0  0  0  0
  -21.3025  -35.4180   22.1142 N   0  0  0  0  0  0  0  0  0  0  0  0
  -23.2073  -38.3550   20.6518 N   0  0  0  0  0  0  0  0  0  0  0  0
  -29.8499   -9.1080   18.5997 N   0  0  0  0  0  0  0  0  0  0  0  0
  -25.0091  -11.8138   21.5403 N   0  0  0  0  0  0  0  0  0  0  0  0
  -24.6416  -30.1829   21.8575 N   0  0  0  0  0  0  0  0  0  0  0  0
  -26.5129  -27.1722   20.5981 N   0  3  2  0  0  0  0  0  0  0  0  0
  -27.5585  -21.9718   20.4022 N   0  3  0  0  0  0  0  0  0  0  0  0
  -24.7527  -12.7816   25.0138 N   0  3  0  0  0  0  0  0  0  0  0  0
  -22.2654  -39.0076   22.6381 O   0  0  0  0  0  0  0  0  0  0  0  0
  -28.4210  -10.5116   17.4118 O   0  0  0  0  0  0  0  0  0  0  0  0
  -26.9513  -10.2426   20.6711 O   0  0  0  0  0  0  0  0  0  0  0  0
  -25.2219  -13.9210   22.4844 O   0  0  0  0  0  0  0  0  0  0  0  0
  -23.6203  -28.7944   23.3693 O   0  0  0  0  0  0  0  0  0  0  0  0
  -28.8260  -39.8713   24.2926 O   0  0  0  0  0  0  0  0  0  0  0  0
  -29.6865  -17.5889   20.6860 O   0  0  0  0  0  0  0  0  0  1  0  0
  -29.4474  -41.7716   29.4313 F   0  0  0  0  0  0  0  0  0  0  0  0
  -28.8234  -42.5869   24.8106 F   0  0  0  0  0  0  0  0  0  0  0  0
  1  2  1  0  0  0  0
  1  5  2  0  0  0  0
  2  6  2  0  0  0  0
  3  8  2  0  0  0  0
  3 15  1  0  0  0  0
  4  9  1  0  0  0  0
  4 15  2  0  0  0  0
  5 17  1  0  0  0  0
  6 19  1  0  0  0  0
  7 10  2  0  0  0  0
  7 18  1  0  0  0  0
  8 21  1  0  0  0  0
  9 21  2  0  0  0  0
 10 22  1  0  0  0  0
 11 12  2  0  0  0  0
 11 23  1  0  0  0  0
 12 24  1  0  0  0  0
 13 20  1  0  0  0  0
 13 22  2  0  0  0  0
 14 24  2  0  0  0  0
 14 25  1  0  0  0  0
 15 26  1  0  0  0  0
 16 26  1  0  0  0  0
 16 27  2  0  0  0  0
 16 28  1  0  0  0  0
 17 19  2  0  0  0  0
 17 33  1  0  0  0  0
 18 20  2  0  0  0  0
 18 34  1  0  0  0  0
 19 52  1  0  0  0  0
 20 35  1  0  0  0  0
 21 87  1  0  0  0  0
 22 88  1  0  0  0  0
 23 25  2  0  0  0  0
 23 87  1  0  0  0  0
 24 89  1  0  0  0  0
 25 90  1  0  0  0  0
 26 70  2  0  0  0  0
 27 71  1  0  0  0  0
 27 74  1  0  0  0  0
 28 75  1  0  0  0  0
 28 82  2  0  0  0  0
 29 53  1  0  0  0  0
 29 76  1  0  0  0  0
 29 83  2  0  0  0  0
 30 67  1  0  0  0  0
 30 72  1  0  0  0  0
 30 84  2  0  0  0  0
 31 68  1  0  0  0  0
 31 77  1  0  0  0  0
 31 85  2  0  0  0  0
 32 73  1  0  0  0  0
 32 78  1  0  0  0  0
 32 86  2  0  0  0  0
 33 36  1  0  0  0  0
 34 53  1  0  0  0  0
 35 72  1  0  0  0  0
 36 39  1  0  0  0  0
 37 40  1  0  0  0  0
 37 42  1  0  0  0  0
 38 41  1  0  0  0  0
 38 46  1  0  0  0  0
 39 52  1  0  0  0  0
 40 54  1  0  0  0  0
 41 56  1  0  0  0  0
 42 57  1  0  0  0  0
 43 48  1  0  0  0  0
 43 54  1  0  0  0  0
 44 49  1  0  0  0  0
 44 55  1  0  0  0  0
 45 50  1  0  0  0  0
 45 55  1  0  0  0  0
 46 73  1  0  0  0  0
 47 56  1  0  0  0  0
 47 73  1  0  0  0  0
 48 79  1  0  0  0  0
 49 80  1  0  0  0  0
 50 80  1  0  0  0  0
 51 57  1  0  0  0  0
 51 79  1  0  0  0  0
 52 76  1  0  0  0  0
 53 72  1  0  0  0  0
 54 57  1  0  0  0  0
 55 63  1  0  0  0  0
 56 71  1  0  0  0  0
 57 78  1  0  0  0  0
 58 68  1  0  0  0  0
 59 69  1  0  0  0  0
 60 69  1  0  0  0  0
 61 69  1  0  0  0  0
 62 81  1  0  0  0  0
 63 79  1  0  0  0  0
 64 65  1  0  0  0  0
 64 66  1  0  0  0  0
 65 80  1  0  0  0  0
 66 88  1  0  0  0  0
 67 69  1  0  0  0  0
 67 77  1  0  0  0  0
 68 81  1  0  0  0  0
 70 71  1  0  0  0  0
M  CHG  3  79   1  80   1  81   1
M  ISO  4  32 100  66 101  78 100  88 101
M  END
> <Batch ID>
0005

> <Smiles>
CNC(C)C(=O)NC(C(=O)N1Cc2cc([101O:1][101CH2:1]CCN3CCC(CN4CCC5CCCC5([100NH:0][100C:0](=O)N5CCCC(n6nc(-c7ccc(Oc8ccc(F)cc8F)cc7)c(C(N)=O)c6N)C5)C4)CC3)ccc2CC1C(=O)NC1CCCc2ccccc21)C(C)(C)C

> <Shape>
0.224

> <Color>
0.060

> <Negative vol penalty>
0.000

$$$$

  -OEChem-04042320263D

102111  0     1  0  0  0  0  0999 V2000
  -27.9364  -19.1013   28.0590 C   0  0  0  0  0  0  0  0  0  0  0  0
  -28.5106  -20.0122   27.1781 C   0  0  0  0  0  0  0  0  0  0  0  0
  -23.2899   -9.7915   19.9282 C   0  0  0  0  0  0  0  0  0  0  0  0
  -23.7259   -9.9576   22.2987 C   0  0  0  0  0  0  0  0  0  0  0  0
  -27.4206  -17.8985   27.5783 C   0  0  0  0  0  0  0  0  0  0  0  0
  -28.5704  -19.7202   25.8159 C   0  0  0  0  0  0  0  0  0  0  0  0
  -27.2229  -23.6536   22.9250 C   0  0  0  0  0  0  0  0  0  0  0  0
  -31.5511  -29.8834   21.2752 C   0  0  0  0  0  0  0  0  0  0  0  0
  -30.6079  -28.9261   21.6487 C   0  0  0  0  0  0  0  0  0  0  0  0
  -32.9271  -14.5676   24.2745 C   0  0  0  0  0  0  0  0  0  0  0  0
  -32.6398  -15.6915   25.0489 C   0  0  0  0  0  0  0  0  0  0  0  0
  -22.5582   -8.6239   20.1446 C   0  0  0  0  0  0  0  0  0  0  0  0
  -22.9942   -8.7900   22.5151 C   0  0  0  0  0  0  0  0  0  0  0  0
  -28.1673  -24.6629   22.7428 C   0  0  0  0  0  0  0  0  0  0  0  0
  -19.7427   -7.8923   22.7218 C   0  0  0  0  0  0  0  0  0  0  0  0
  -18.8335   -7.8857   23.7795 C   0  0  0  0  0  0  0  0  0  0  0  0
  -33.3260  -28.2995   21.6975 C   0  0  0  0  0  0  0  0  0  0  0  0
  -28.7259  -23.7422   20.5842 C   0  0  0  0  0  0  0  0  0  0  0  0
  -20.0266   -6.0459   24.7937 C   0  0  0  0  0  0  0  0  0  0  0  0
  -23.8738  -10.4584   21.0053 C   0  0  0  0  0  0  0  0  0  0  0  0
  -32.3828  -27.3422   22.0710 C   0  0  0  0  0  0  0  0  0  0  0  0
  -24.1431  -12.9851   20.7796 C   0  0  0  0  0  0  0  0  0  0  0  0
  -27.4654  -17.5959   26.2082 C   0  0  0  0  0  0  0  0  0  0  0  0
  -27.0303  -22.6730   21.9413 C   0  0  0  0  0  0  0  0  0  0  0  0
  -28.0559  -18.5116   25.3165 C   0  0  0  0  0  0  0  0  0  0  0  0
  -27.7766  -22.7230   20.7553 C   0  0  0  0  0  0  0  0  0  0  0  0
  -32.9102  -29.5701   21.2995 C   0  0  0  0  0  0  0  0  0  0  0  0
  -31.0237  -27.6555   22.0466 C   0  0  0  0  0  0  0  0  0  0  0  0
  -33.0244  -14.6825   22.8877 C   0  0  0  0  0  0  0  0  0  0  0  0
  -32.4496  -16.9303   24.4367 C   0  0  0  0  0  0  0  0  0  0  0  0
  -32.8342  -15.9213   22.2755 C   0  0  0  0  0  0  0  0  0  0  0  0
  -32.5468  -17.0452   23.0500 C   0  0  0  0  0  0  0  0  0  0  0  0
  -22.4103   -8.1231   21.4380 C   0  0  0  0  0  0  0  0  0  0  0  0
  -28.9210  -24.7057   21.5735 C   0  0  0  0  0  0  0  0  0  0  0  0
  -20.7939   -6.9756   22.7000 C   0  0  0  0  0  0  0  0  0  0  0  0
  -18.9754   -6.9626   24.8155 C   0  0  0  0  0  0  0  0  0  0  0  0
  -20.9358   -6.0524   23.7359 C   0  0  0  0  0  0  0  0  0  0  0  0
  -24.6302  -11.6643   20.7823 C   0  0  0  0  0  0  0  0  0  0  0  0
  -25.2488  -13.7584   20.5229 C   0  0  0  0  0  0  0  0  0  0  0  0
  -32.8441  -26.0232   22.4824 C   0  0  0  0  0  0  0  0  0  0  0  0
  -22.8102  -13.4697   20.9903 C   0  0  0  0  0  0  0  0  0  0  0  0
  -27.3590  -19.5134   21.8289 C   0  0  0  0  0  0  0  0  0  0  0  0
  -26.0436  -19.8719   18.8855 C   0  0  0  0  0  0  0  0  0  0  0  0
  -32.6225  -19.5614   22.9613 C   0  0  0  0  0  0  0  0  0  0  0  0
  -33.0508  -22.9378   21.3748 C   0  0  0  0  0  0  0  0  0  0  0  0
  -25.4415  -21.9015   16.2088 C   0  0  0  0  0  0  0  0  0  0  0  0
  -30.9988  -12.8491   21.5061 C   0  0  0  0  0  0  0  0  0  0  0  0
  -26.9375  -16.2623   25.7417 C   0  0  0  0  0  0  0  0  0  0  0  0
  -25.9888  -21.6064   22.1415 C   0  0  0  0  0  0  0  0  0  0  0  0
  -27.5937  -21.7057   19.6597 C   0  0  0  0  0  0  0  0  0  0  0  0
  -26.7026  -16.1935   24.2349 C   0  0  0  0  0  0  0  0  0  0  0  0
  -29.4885  -13.6117   18.3069 C   0  0  0  0  0  0  0  0  0  0  0  0
  -27.8999  -16.7641   23.4814 C   0  0  0  0  0  0  0  0  0  0  0  0
  -28.0137  -13.3197   18.5894 C   0  0  0  0  0  0  0  0  0  0  0  0
  -30.3961  -12.6146   19.0212 C   0  0  0  0  0  0  0  0  0  0  0  0
  -28.7091  -12.2404   20.7783 C   0  0  0  0  0  0  0  0  0  0  0  0
  -28.1171  -18.2418   23.8287 C   0  0  1  0  0  0  0  0  0  0  0  0
  -26.2386  -20.3612   21.2963 C   0  0  1  0  0  0  0  0  0  0  0  0
  -27.7405  -13.2279   20.1024 C   0  0  2  0  0  0  0  0  0  0  0  0
  -32.1425  -18.1158   25.2935 C   0  0  0  0  0  0  0  0  0  0  0  0
  -32.9386  -16.0369   20.7868 C   0  0  0  0  0  0  0  0  0  0  0  0
  -24.3756  -21.9015   13.9370 C   0  0  0  0  0  0  0  0  0  0  0  0
  -28.4278  -18.3291   17.7695 C   0  0  0  0  0  0  0  0  0  0  0  0
  -27.8183  -19.1718   15.4921 C   0  0  0  0  0  0  0  0  0  0  0  0
  -26.2248  -17.7240   16.7520 C   0  0  0  0  0  0  0  0  0  0  0  0
  -23.5103  -24.0047   16.9873 C   0  0  0  0  0  0  0  0  0  0  0  0
  -33.3329  -13.4628   22.0824 C   0  0  0  0  0  0  0  0  0  0  0  0
  -29.9879  -26.6450   22.4432 C   0  0  0  0  0  0  0  0  0  1  0  0
  -32.2667  -20.6458   21.9628 C   0  0  0  0  0  0  0  0  0  0  0  0
  -34.0802  -23.9561   21.7938 C   0  0  0  0  0  0  0  0  0  0  0  0
  -26.5821  -20.1137   17.4961 C   0  0  1  0  0  0  0  0  0  0  0  0
  -24.1750  -22.1779   15.4189 C   0  0  2  0  0  0  0  0  0  0  0  0
  -33.9182  -30.5941   20.9001 C   0  0  0  0  0  0  0  0  0  0  0  0
  -27.2683  -18.8528   16.8987 C   0  0  0  0  0  0  0  0  0  0  0  0
  -25.9432  -11.5985   20.5460 N   0  0  0  0  0  0  0  0  0  0  0  0
  -26.2904  -12.8876   20.3922 N   0  0  0  0  0  0  0  0  0  0  0  0
  -26.5676  -20.6789   19.9053 N   0  0  0  0  0  0  0  0  0  0  0  0
  -30.0977  -12.5893   20.4601 N   0  0  0  0  0  0  0  0  0  0  0  0
  -25.4220  -15.0914   20.3984 N   0  0  0  0  0  0  0  0  0  0  0  0
  -21.7929  -12.5390   21.2419 N   0  0  0  0  0  0  0  0  0  0  0  0
  -32.3520  -18.3028   22.4307 N   0  0  0  0  0  0  0  0  0  0  0  0
  -33.5751  -25.2871   21.5443 N   0  0  0  0  0  0  0  0  0  0  0  0
  -27.1641  -19.0721   23.1237 N   0  0  0  0  0  0  0  0  0  0  0  0
  -33.1354  -21.7864   22.1444 N   0  0  0  0  0  0  0  0  0  0  0  0
  -25.4630  -20.6157   16.7062 N   0  0  0  0  0  0  0  0  0  0  0  0
  -32.2956  -13.1650   21.1200 N   0  0  0  0  0  0  0  0  0  0  0  0
  -23.7641  -23.6013   15.5802 N   0  3  0  0  0  0  0  0  0  0  0  0
  -32.5703  -25.5854   23.6127 O   0  0  0  0  0  0  0  0  0  0  0  0
  -22.5267  -14.6906   20.9403 O   0  0  0  0  0  0  0  0  0  0  0  0
  -28.3280  -19.2760   21.1172 O   0  0  0  0  0  0  0  0  0  0  0  0
  -25.1843  -19.0039   19.0585 O   0  0  0  0  0  0  0  0  0  0  0  0
  -33.0913  -19.8178   24.0657 O   0  0  0  0  0  0  0  0  0  0  0  0
  -32.2462  -23.1248   20.4660 O   0  0  0  0  0  0  0  0  0  0  0  0
  -26.3253  -22.7411   16.3655 O   0  0  0  0  0  0  0  0  0  0  0  0
  -30.6704  -12.8078   22.6967 O   0  0  0  0  0  0  0  0  0  0  0  0
  -21.6962   -6.9839   21.6495 O   0  0  0  0  0  0  0  0  0  0  0  0
  -29.8439  -25.6893   21.3933 O   0  0  0  0  0  0  0  0  0  1  0  0
  -18.1031   -6.9574   25.8320 F   0  0  0  0  0  0  0  0  0  0  0  0
  -21.9443   -5.1701   23.7211 F   0  0  0  0  0  0  0  0  0  0  0  0
  -33.3686  -31.7902   20.5349 F   0  0  0  0  0  0  0  0  0  0  0  0
  -34.8093  -30.8992   21.8894 F   0  0  0  0  0  0  0  0  0  0  0  0
  -34.6748  -30.1987   19.8351 F   0  0  0  0  0  0  0  0  0  0  0  0
  1  2  1  0  0  0  0
  1  5  2  0  0  0  0
  2  6  2  0  0  0  0
  3 12  2  0  0  0  0
  3 20  1  0  0  0  0
  4 13  1  0  0  0  0
  4 20  2  0  0  0  0
  5 23  1  0  0  0  0
  6 25  1  0  0  0  0
  7 14  2  0  0  0  0
  7 24  1  0  0  0  0
  8  9  2  0  0  0  0
  8 27  1  0  0  0  0
  9 28  1  0  0  0  0
 10 11  1  0  0  0  0
 10 29  2  0  0  0  0
 11 30  2  0  0  0  0
 12 33  1  0  0  0  0
 13 33  2  0  0  0  0
 14 34  1  0  0  0  0
 15 16  2  0  0  0  0
 15 35  1  0  0  0  0
 16 36  1  0  0  0  0
 17 21  1  0  0  0  0
 17 27  2  0  0  0  0
 18 26  1  0  0  0  0
 18 34  2  0  0  0  0
 19 36  2  0  0  0  0
 19 37  1  0  0  0  0
 20 38  1  0  0  0  0
 21 28  2  0  0  0  0
 21 40  1  0  0  0  0
 22 38  1  0  0  0  0
 22 39  2  0  0  0  0
 22 41  1  0  0  0  0
 23 25  2  0  0  0  0
 23 48  1  0  0  0  0
 24 26  2  0  0  0  0
 24 49  1  0  0  0  0
 25 57  1  0  0  0  0
 26 50  1  0  0  0  0
 27 73  1  0  0  0  0
 28 68  1  0  0  0  0
 29 31  1  0  0  0  0
 29 67  1  0  0  0  0
 30 32  1  0  0  0  0
 30 60  1  0  0  0  0
 31 32  2  0  0  0  0
 31 61  1  0  0  0  0
 32 81  1  0  0  0  0
 33 96  1  0  0  0  0
 34 97  1  0  0  0  0
 35 37  2  0  0  0  0
 35 96  1  0  0  0  0
 36 98  1  0  0  0  0
 37 99  1  0  0  0  0
 38 75  2  0  0  0  0
 39 76  1  0  0  0  0
 39 79  1  0  0  0  0
 40 82  1  0  0  0  0
 40 88  2  0  0  0  0
 41 80  1  0  0  0  0
 41 89  2  0  0  0  0
 42 58  1  0  0  0  0
 42 83  1  0  0  0  0
 42 90  2  0  0  0  0
 43 71  1  0  0  0  0
 43 77  1  0  0  0  0
 43 91  2  0  0  0  0
 44 69  1  0  0  0  0
 44 81  1  0  0  0  0
 44 92  2  0  0  0  0
 45 70  1  0  0  0  0
 45 84  1  0  0  0  0
 45 93  2  0  0  0  0
 46 72  1  0  0  0  0
 46 85  1  0  0  0  0
 46 94  2  0  0  0  0
 47 78  1  0  0  0  0
 47 86  1  0  0  0  0
 47 95  2  0  0  0  0
 48 51  1  0  0  0  0
 49 58  1  0  0  0  0
 50 77  1  0  0  0  0
 51 53  1  0  0  0  0
 52 54  1  0  0  0  0
 52 55  1  0  0  0  0
 53 57  1  0  0  0  0
 54 59  1  0  0  0  0
 55 78  1  0  0  0  0
 56 59  1  0  0  0  0
 56 78  1  0  0  0  0
 57 83  1  0  0  0  0
 58 77  1  0  0  0  0
 59 76  1  0  0  0  0
 62 72  1  0  0  0  0
 63 74  1  0  0  0  0
 64 74  1  0  0  0  0
 65 74  1  0  0  0  0
 66 87  1  0  0  0  0
 67 86  1  0  0  0  0
 68 97  1  0  0  0  0
 69 84  1  0  0  0  0
 70 82  1  0  0  0  0
 71 74  1  0  0  0  0
 71 85  1  0  0  0  0
 72 87  1  0  0  0  0
 73100  1  0  0  0  0
 73101  1  0  0  0  0
 73102  1  0  0  0  0
 75 76  1  0  0  0  0
M  CHG  1  87   1
M  ISO  4  47 100  68 101  86 100  97 101
M  END
> <Batch ID>
0005

> <Smiles>
CNC(C)C(=O)NC(C(=O)N1Cc2cc([101O:1][101CH2:1]c3ccc(C(F)(F)F)cc3C(=O)NCC(=O)NCC(=O)Nc3c(C)ccc(C[100NH:0][100C:0](=O)N4CCCC(n5nc(-c6ccc(Oc7ccc(F)cc7F)cc6)c(C(N)=O)c5N)C4)c3C)ccc2CC1C(=O)NC1CCCc2ccccc21)C(C)(C)C

> <Shape>
0.173

> <Color>
0.157

> <Negative vol penalty>
0.000

$$$$

  -OEChem-04042320263D

 82 91  0     1  0  0  0  0  0999 V2000
  -20.5995  -25.0793   25.0674 C   0  0  0  0  0  0  0  0  0  0  0  0
  -21.7681  -25.1301   24.3143 C   0  0  0  0  0  0  0  0  0  0  0  0
  -24.8481  -10.8358   23.7045 C   0  0  0  0  0  0  0  0  0  0  0  0
  -24.5490  -12.7567   25.1390 C   0  0  0  0  0  0  0  0  0  0  0  0
  -19.4971  -25.8471   24.6943 C   0  0  0  0  0  0  0  0  0  0  0  0
  -21.8347  -25.9482   23.1870 C   0  0  0  0  0  0  0  0  0  0  0  0
  -26.5662  -21.9623   19.6680 C   0  0  0  0  0  0  0  0  0  0  0  0
  -26.1516  -28.5853   22.9525 C   0  0  0  0  0  0  0  0  0  0  0  0
  -26.7593  -20.5850   19.7956 C   0  0  0  0  0  0  0  0  0  0  0  0
  -24.4996   -9.9932   24.7601 C   0  0  0  0  0  0  0  0  0  0  0  0
  -24.2006  -11.9141   26.1947 C   0  0  0  0  0  0  0  0  0  0  0  0
  -27.2895  -27.9067   22.5184 C   0  0  0  0  0  0  0  0  0  0  0  0
  -23.3389   -7.3566   26.9773 C   0  0  0  0  0  0  0  0  0  0  0  0
  -22.4476   -6.3174   26.7105 C   0  0  0  0  0  0  0  0  0  0  0  0
  -29.1557  -20.9003   20.0784 C   0  0  0  0  0  0  0  0  0  0  0  0
  -27.0163  -28.8661   20.3220 C   0  0  0  0  0  0  0  0  0  0  0  0
  -20.7770   -7.9248   26.0306 C   0  0  0  0  0  0  0  0  0  0  0  0
  -24.8728  -12.2176   23.8940 C   0  0  0  0  0  0  0  0  0  0  0  0
  -24.3683  -13.6637   21.8539 C   0  0  0  0  0  0  0  0  0  0  0  0
  -19.5535  -26.6823   23.5674 C   0  0  0  0  0  0  0  0  0  0  0  0
  -25.4301  -29.4022   22.0702 C   0  0  0  0  0  0  0  0  0  0  0  0
  -27.6727  -22.7891   19.7543 C   0  0  0  0  0  0  0  0  0  0  0  0
  -20.7316  -26.7269   22.7977 C   0  0  0  0  0  0  0  0  0  0  0  0
  -28.9531  -22.2639   19.9573 C   0  0  0  0  0  0  0  0  0  0  0  0
  -25.8711  -29.5560   20.7481 C   0  0  0  0  0  0  0  0  0  0  0  0
  -28.0447  -20.0578   19.9993 C   0  0  0  0  0  0  0  0  0  0  0  0
  -24.1759  -10.5324   26.0052 C   0  0  0  0  0  0  0  0  0  0  0  0
  -27.7204  -28.0447   21.2022 C   0  0  0  0  0  0  0  0  0  0  0  0
  -22.9493   -8.6799   26.7708 C   0  0  0  0  0  0  0  0  0  0  0  0
  -21.1667   -6.6014   26.2371 C   0  0  0  0  0  0  0  0  0  0  0  0
  -21.6683   -8.9640   26.2974 C   0  0  0  0  0  0  0  0  0  0  0  0
  -25.2332  -13.0884   22.8041 C   0  0  0  0  0  0  0  0  0  0  0  0
  -25.1937  -14.4008   21.0403 C   0  0  0  0  0  0  0  0  0  0  0  0
  -22.9461  -13.5426   21.7188 C   0  0  0  0  0  0  0  0  0  0  0  0
  -22.4692  -29.3887   20.9140 C   0  0  0  0  0  0  0  0  0  0  0  0
  -23.3727  -32.2293   19.6346 C   0  0  0  0  0  0  0  0  0  0  0  0
  -25.9074  -34.2556   18.5778 C   0  0  0  0  0  0  0  0  0  0  0  0
  -29.4103  -17.9661   20.3250 C   0  0  0  0  0  0  0  0  0  0  0  0
  -18.3205  -27.4579   23.1763 C   0  0  0  0  0  0  0  0  0  0  0  0
  -24.2200  -30.1485   22.5613 C   0  0  0  0  0  0  0  0  0  0  0  0
  -25.1435  -30.4370   19.7668 C   0  0  0  0  0  0  0  0  0  0  0  0
  -27.7281  -24.2746   19.6302 C   0  0  0  0  0  0  0  0  0  0  0  0
  -29.9697  -23.3553   19.9858 C   0  0  0  0  0  0  0  0  0  0  0  0
  -18.5986  -28.5837   22.1835 C   0  0  0  0  0  0  0  0  0  0  0  0
  -30.2435  -14.5266   20.7161 C   0  0  0  0  0  0  0  0  0  0  0  0
  -19.4908  -28.0877   21.0501 C   0  0  0  0  0  0  0  0  0  0  0  0
  -28.9431  -13.8932   21.2160 C   0  0  0  0  0  0  0  0  0  0  0  0
  -30.4502  -15.9266   21.2915 C   0  0  0  0  0  0  0  0  0  0  0  0
  -28.0232  -16.2154   21.6004 C   0  0  0  0  0  0  0  0  0  0  0  0
  -20.8509  -27.6209   21.5826 C   0  0  1  0  0  0  0  0  0  0  0  0
  -23.2681  -30.5483   21.4381 C   0  0  1  0  0  0  0  0  0  0  0  0
  -27.7392  -14.8302   20.9969 C   0  0  2  0  0  0  0  0  0  0  0  0
  -26.3326  -36.5027   17.5449 C   0  0  0  0  0  0  0  0  0  0  0  0
  -22.4830  -31.1488   16.9233 C   0  0  0  0  0  0  0  0  0  0  0  0
  -23.7783  -32.9971   15.8397 C   0  0  0  0  0  0  0  0  0  0  0  0
  -21.8662  -33.5348   17.3489 C   0  0  0  0  0  0  0  0  0  0  0  0
  -27.4783  -35.1623   20.9164 C   0  0  0  0  0  0  0  0  0  0  0  0
  -29.7436  -25.7766   19.2367 C   0  0  0  0  0  0  0  0  0  0  0  0
  -28.8742  -27.0078   19.3996 C   0  0  0  0  0  0  0  0  0  1  0  0
  -24.0212  -32.6616   18.3416 C   0  0  1  0  0  0  0  0  0  0  0  0
  -26.2027  -35.7208   18.8428 C   0  0  2  0  0  0  0  0  0  0  0  0
  -23.0500  -32.5674   17.1311 C   0  0  0  0  0  0  0  0  0  0  0  0
  -26.5101  -13.4306   22.6130 N   0  0  0  0  0  0  0  0  0  0  0  0
  -26.4536  -14.2287   21.5332 N   0  0  0  0  0  0  0  0  0  0  0  0
  -23.9623  -31.1409   20.2930 N   0  0  0  0  0  0  0  0  0  0  0  0
  -29.2713  -16.7592   21.0425 N   0  0  0  0  0  0  0  0  0  0  0  0
  -24.9572  -15.1728   19.9584 N   0  0  0  0  0  0  0  0  0  0  0  0
  -22.2529  -12.7457   22.6401 N   0  0  0  0  0  0  0  0  0  0  0  0
  -28.2160  -18.6566   20.1214 N   0  0  0  0  0  0  0  0  0  0  0  0
  -21.6979  -28.7583   21.8716 N   0  0  0  0  0  0  0  0  0  0  0  0
  -24.5525  -33.9994   18.5787 N   0  0  0  0  0  0  0  0  0  0  0  0
  -29.1610  -24.6582   20.0203 N   0  3  1  0  0  0  0  0  0  0  0  0
  -27.4746  -35.8630   19.6064 N   0  3  0  0  0  0  0  0  0  0  0  0
  -22.3109  -14.1106   20.7983 O   0  0  0  0  0  0  0  0  0  0  0  0
  -22.5457  -29.0891   19.7282 O   0  0  0  0  0  0  0  0  0  0  0  0
  -22.3840  -32.8396   20.0488 O   0  0  0  0  0  0  0  0  0  0  0  0
  -26.7901  -33.4224   18.3853 O   0  0  0  0  0  0  0  0  0  0  0  0
  -30.5038  -18.3446   19.8974 O   0  0  0  0  0  0  0  0  0  0  0  0
  -23.8356   -9.7105   27.0354 O   0  0  0  0  0  0  0  0  0  0  0  0
  -28.8303  -27.3829   20.7757 O   0  0  0  0  0  0  0  0  0  1  0  0
  -20.3114   -5.6033   25.9795 F   0  0  0  0  0  0  0  0  0  0  0  0
  -21.2887  -10.2333   26.0959 F   0  0  0  0  0  0  0  0  0  0  0  0
  1  2  1  0  0  0  0
  1  5  2  0  0  0  0
  2  6  2  0  0  0  0
  3 10  2  0  0  0  0
  3 18  1  0  0  0  0
  4 11  1  0  0  0  0
  4 18  2  0  0  0  0
  5 20  1  0  0  0  0
  6 23  1  0  0  0  0
  7  9  2  0  0  0  0
  7 22  1  0  0  0  0
  8 12  2  0  0  0  0
  8 21  1  0  0  0  0
  9 26  1  0  0  0  0
 10 27  1  0  0  0  0
 11 27  2  0  0  0  0
 12 28  1  0  0  0  0
 13 14  2  0  0  0  0
 13 29  1  0  0  0  0
 14 30  1  0  0  0  0
 15 24  1  0  0  0  0
 15 26  2  0  0  0  0
 16 25  1  0  0  0  0
 16 28  2  0  0  0  0
 17 30  2  0  0  0  0
 17 31  1  0  0  0  0
 18 32  1  0  0  0  0
 19 32  1  0  0  0  0
 19 33  2  0  0  0  0
 19 34  1  0  0  0  0
 20 23  2  0  0  0  0
 20 39  1  0  0  0  0
 21 25  2  0  0  0  0
 21 40  1  0  0  0  0
 22 24  2  0  0  0  0
 22 42  1  0  0  0  0
 23 50  1  0  0  0  0
 24 43  1  0  0  0  0
 25 41  1  0  0  0  0
 26 69  1  0  0  0  0
 27 79  1  0  0  0  0
 28 80  1  0  0  0  0
 29 31  2  0  0  0  0
 29 79  1  0  0  0  0
 30 81  1  0  0  0  0
 31 82  1  0  0  0  0
 32 63  2  0  0  0  0
 33 64  1  0  0  0  0
 33 67  1  0  0  0  0
 34 68  1  0  0  0  0
 34 74  2  0  0  0  0
 35 51  1  0  0  0  0
 35 70  1  0  0  0  0
 35 75  2  0  0  0  0
 36 60  1  0  0  0  0
 36 65  1  0  0  0  0
 36 76  2  0  0  0  0
 37 61  1  0  0  0  0
 37 71  1  0  0  0  0
 37 77  2  0  0  0  0
 38 66  1  0  0  0  0
 38 69  1  0  0  0  0
 38 78  2  0  0  0  0
 39 44  1  0  0  0  0
 40 51  1  0  0  0  0
 41 65  1  0  0  0  0
 42 72  1  0  0  0  0
 43 72  1  0  0  0  0
 44 46  1  0  0  0  0
 45 47  1  0  0  0  0
 45 48  1  0  0  0  0
 46 50  1  0  0  0  0
 47 52  1  0  0  0  0
 48 66  1  0  0  0  0
 49 52  1  0  0  0  0
 49 66  1  0  0  0  0
 50 70  1  0  0  0  0
 51 65  1  0  0  0  0
 52 64  1  0  0  0  0
 53 61  1  0  0  0  0
 54 62  1  0  0  0  0
 55 62  1  0  0  0  0
 56 62  1  0  0  0  0
 57 73  1  0  0  0  0
 58 59  1  0  0  0  0
 58 72  1  0  0  0  0
 59 80  1  0  0  0  0
 60 62  1  0  0  0  0
 60 71  1  0  0  0  0
 61 73  1  0  0  0  0
 63 64  1  0  0  0  0
M  CHG  2  72   1  73   1
M  ISO  4  38 100  59 101  69 100  80 101
M  END
> <Batch ID>
0005

> <Smiles>
CNC(C)C(=O)NC(C(=O)N1Cc2cc([101O:1][101CH2:1]CN3Cc4ccc([100NH:0][100C:0](=O)N5CCCC(n6nc(-c7ccc(Oc8ccc(F)cc8F)cc7)c(C(N)=O)c6N)C5)cc4C3)ccc2CC1C(=O)NC1CCCc2ccccc21)C(C)(C)C

> <Shape>
0.245

> <Color>
0.122

> <Negative vol penalty>
0.000

$$$$

  -OEChem-04042320263D

 84 93  0     1  0  0  0  0  0999 V2000
  -20.0897  -16.8856   23.3059 C   0  0  0  0  0  0  0  0  0  0  0  0
  -21.3937  -17.3677   23.2573 C   0  0  0  0  0  0  0  0  0  0  0  0
  -23.2466   -9.7768   21.3781 C   0  0  0  0  0  0  0  0  0  0  0  0
  -24.1010  -10.6789   23.4501 C   0  0  0  0  0  0  0  0  0  0  0  0
  -27.8949  -18.8818   18.6276 C   0  0  0  0  0  0  0  0  0  0  0  0
  -19.0513  -17.6297   22.7473 C   0  0  0  0  0  0  0  0  0  0  0  0
  -21.6603  -18.5939   22.6491 C   0  0  0  0  0  0  0  0  0  0  0  0
  -25.8977  -22.6878   24.3193 C   0  0  0  0  0  0  0  0  0  0  0  0
  -28.0320  -20.2595   18.8025 C   0  0  0  0  0  0  0  0  0  0  0  0
  -22.6243   -8.7467   22.0831 C   0  0  0  0  0  0  0  0  0  0  0  0
  -23.4787   -9.6488   24.1552 C   0  0  0  0  0  0  0  0  0  0  0  0
  -27.1816  -22.9552   23.8461 C   0  0  0  0  0  0  0  0  0  0  0  0
  -23.5137   -5.8160   23.5130 C   0  0  0  0  0  0  0  0  0  0  0  0
  -23.6350   -4.5211   23.0088 C   0  0  0  0  0  0  0  0  0  0  0  0
  -30.0283  -19.9393   20.1684 C   0  0  0  0  0  0  0  0  0  0  0  0
  -26.2951  -24.7127   22.4516 C   0  0  0  0  0  0  0  0  0  0  0  0
  -21.2324   -4.3778   22.7987 C   0  0  0  0  0  0  0  0  0  0  0  0
  -23.9850  -10.7429   22.0616 C   0  0  0  0  0  0  0  0  0  0  0  0
  -28.8336  -18.0709   19.2363 C   0  0  0  0  0  0  0  0  0  0  0  0
  -24.0859  -13.0650   21.0101 C   0  0  0  0  0  0  0  0  0  0  0  0
  -19.3039  -18.8701   22.1405 C   0  0  0  0  0  0  0  0  0  0  0  0
  -24.7995  -23.4249   23.8533 C   0  0  0  0  0  0  0  0  0  0  0  0
  -20.6246  -19.3546   22.0807 C   0  0  0  0  0  0  0  0  0  0  0  0
  -29.8852  -18.5756   19.9938 C   0  0  0  0  0  0  0  0  0  0  0  0
  -24.9986  -24.4544   22.9224 C   0  0  0  0  0  0  0  0  0  0  0  0
  -29.0898  -20.7843   19.5669 C   0  0  0  0  0  0  0  0  0  0  0  0
  -22.7403   -8.6827   23.4717 C   0  0  0  0  0  0  0  0  0  0  0  0
  -27.3800  -23.9658   22.9099 C   0  0  0  0  0  0  0  0  0  0  0  0
  -22.2517   -6.3918   23.6601 C   0  0  0  0  0  0  0  0  0  0  0  0
  -22.4944   -3.8021   22.6517 C   0  0  0  0  0  0  0  0  0  0  0  0
  -21.1111   -5.6727   23.3029 C   0  0  0  0  0  0  0  0  0  0  0  0
  -24.6286  -11.8070   21.3338 C   0  0  0  0  0  0  0  0  0  0  0  0
  -25.0872  -13.7036   20.3202 C   0  0  0  0  0  0  0  0  0  0  0  0
  -28.9380  -16.6100   19.2188 C   0  0  0  0  0  0  0  0  0  0  0  0
  -22.7924  -13.6077   21.3067 C   0  0  0  0  0  0  0  0  0  0  0  0
  -22.1357  -22.7213   22.2683 C   0  0  0  0  0  0  0  0  0  0  0  0
  -21.4325  -25.8347   22.8466 C   0  0  0  0  0  0  0  0  0  0  0  0
  -22.5625  -28.9812   23.5318 C   0  0  0  0  0  0  0  0  0  0  0  0
  -30.6190  -14.9982   20.2125 C   0  0  0  0  0  0  0  0  0  0  0  0
  -18.1557  -19.6163   21.5085 C   0  0  0  0  0  0  0  0  0  0  0  0
  -23.4246  -23.1419   24.3937 C   0  0  0  0  0  0  0  0  0  0  0  0
  -30.7355  -17.4676   20.5012 C   0  0  0  0  0  0  0  0  0  0  0  0
  -23.8557  -25.2881   22.4056 C   0  0  0  0  0  0  0  0  0  0  0  0
  -18.4696  -21.0809   21.2141 C   0  0  0  0  0  0  0  0  0  0  0  0
  -29.4350  -11.9804   18.4275 C   0  0  0  0  0  0  0  0  0  0  0  0
  -19.8316  -21.2098   20.5394 C   0  0  0  0  0  0  0  0  0  0  0  0
  -28.0682  -11.7306   19.0618 C   0  0  0  0  0  0  0  0  0  0  0  0
  -30.3875  -12.6794   19.3926 C   0  0  0  0  0  0  0  0  0  0  0  0
  -28.4752  -13.7023   20.5886 C   0  0  0  0  0  0  0  0  0  0  0  0
  -20.9503  -20.6918   21.4515 C   0  0  1  0  0  0  0  0  0  0  0  0
  -22.3092  -23.6126   23.4654 C   0  0  1  0  0  0  0  0  0  0  0  0
  -27.4822  -13.0367   19.6236 C   0  0  2  0  0  0  0  0  0  0  0  0
  -21.7528  -31.3258   23.9119 C   0  0  0  0  0  0  0  0  0  0  0  0
  -20.9602  -26.1550   19.8492 C   0  0  0  0  0  0  0  0  0  0  0  0
  -21.0970  -28.6351   20.1634 C   0  0  0  0  0  0  0  0  0  0  0  0
  -19.2976  -27.3332   21.2991 C   0  0  0  0  0  0  0  0  0  0  0  0
  -23.6808  -29.0470   26.2711 C   0  0  0  0  0  0  0  0  0  0  0  0
  -30.0786  -24.3049   20.5279 C   0  0  0  0  0  0  0  0  0  0  0  0
  -30.2517  -22.7915   20.4872 C   0  0  0  0  0  0  0  0  0  0  0  0
  -28.7405  -24.7351   21.1174 C   0  0  0  0  0  0  0  0  0  1  0  0
  -21.6788  -27.1381   22.1259 C   0  0  1  0  0  0  0  0  0  0  0  0
  -22.1280  -30.0047   24.5652 C   0  0  2  0  0  0  0  0  0  0  0  0
  -20.7799  -27.2985   20.8675 C   0  0  0  0  0  0  0  0  0  0  0  0
  -25.8776  -11.6536   20.8861 N   0  0  0  0  0  0  0  0  0  0  0  0
  -26.1281  -12.8235   20.2740 N   0  0  0  0  0  0  0  0  0  0  0  0
  -30.0244  -16.2641   20.0608 N   0  0  0  0  0  0  0  0  0  0  0  0
  -22.5295  -24.9689   22.9595 N   0  0  0  0  0  0  0  0  0  0  0  0
  -29.7920  -13.8897   19.9609 N   0  0  0  0  0  0  0  0  0  0  0  0
  -25.1699  -14.9266   19.7545 N   0  0  0  0  0  0  0  0  0  0  0  0
  -21.8846  -12.8170   22.0244 N   0  0  0  0  0  0  0  0  0  0  0  0
  -29.2061  -22.1831   19.7266 N   0  0  0  0  0  0  0  0  0  0  0  0
  -21.2635  -21.6690   22.4720 N   0  0  0  0  0  0  0  0  0  0  0  0
  -21.5092  -28.1925   23.1198 N   0  0  0  0  0  0  0  0  0  0  0  0
  -23.2280  -30.2574   25.5384 N   0  3  0  0  0  0  0  0  0  0  0  0
  -28.1978  -15.8990   18.5631 O   0  0  0  0  0  0  0  0  0  0  0  0
  -22.4458  -14.7535   20.9318 O   0  0  0  0  0  0  0  0  0  0  0  0
  -22.7466  -22.9707   21.2357 O   0  0  0  0  0  0  0  0  0  0  0  0
  -20.3099  -25.5967   23.2992 O   0  0  0  0  0  0  0  0  0  0  0  0
  -23.7198  -28.8928   23.1275 O   0  0  0  0  0  0  0  0  0  0  0  0
  -31.8158  -14.8833   20.5006 O   0  0  0  0  0  0  0  0  0  0  0  0
  -22.1330   -7.6777   24.1600 O   0  0  0  0  0  0  0  0  0  0  0  0
  -28.6410  -24.2303   22.4425 O   0  0  0  0  0  0  0  0  0  1  0  0
  -22.6112   -2.5592   22.1661 F   0  0  0  0  0  0  0  0  0  0  0  0
  -19.8961   -6.2210   23.4409 F   0  0  0  0  0  0  0  0  0  0  0  0
  1  2  1  0  0  0  0
  1  6  2  0  0  0  0
  2  7  2  0  0  0  0
  3 10  2  0  0  0  0
  3 18  1  0  0  0  0
  4 11  1  0  0  0  0
  4 18  2  0  0  0  0
  5  9  2  0  0  0  0
  5 19  1  0  0  0  0
  6 21  1  0  0  0  0
  7 23  1  0  0  0  0
  8 12  2  0  0  0  0
  8 22  1  0  0  0  0
  9 26  1  0  0  0  0
 10 27  1  0  0  0  0
 11 27  2  0  0  0  0
 12 28  1  0  0  0  0
 13 14  2  0  0  0  0
 13 29  1  0  0  0  0
 14 30  1  0  0  0  0
 15 24  1  0  0  0  0
 15 26  2  0  0  0  0
 16 25  1  0  0  0  0
 16 28  2  0  0  0  0
 17 30  2  0  0  0  0
 17 31  1  0  0  0  0
 18 32  1  0  0  0  0
 19 24  2  0  0  0  0
 19 34  1  0  0  0  0
 20 32  1  0  0  0  0
 20 33  2  0  0  0  0
 20 35  1  0  0  0  0
 21 23  2  0  0  0  0
 21 40  1  0  0  0  0
 22 25  2  0  0  0  0
 22 41  1  0  0  0  0
 23 50  1  0  0  0  0
 24 42  1  0  0  0  0
 25 43  1  0  0  0  0
 26 71  1  0  0  0  0
 27 81  1  0  0  0  0
 28 82  1  0  0  0  0
 29 31  2  0  0  0  0
 29 81  1  0  0  0  0
 30 83  1  0  0  0  0
 31 84  1  0  0  0  0
 32 64  2  0  0  0  0
 33 65  1  0  0  0  0
 33 69  1  0  0  0  0
 34 66  1  0  0  0  0
 34 75  2  0  0  0  0
 35 70  1  0  0  0  0
 35 76  2  0  0  0  0
 36 51  1  0  0  0  0
 36 72  1  0  0  0  0
 36 77  2  0  0  0  0
 37 61  1  0  0  0  0
 37 67  1  0  0  0  0
 37 78  2  0  0  0  0
 38 62  1  0  0  0  0
 38 73  1  0  0  0  0
 38 79  2  0  0  0  0
 39 66  1  0  0  0  0
 39 68  1  0  0  0  0
 39 80  2  0  0  0  0
 40 44  1  0  0  0  0
 41 51  1  0  0  0  0
 42 66  1  0  0  0  0
 43 67  1  0  0  0  0
 44 46  1  0  0  0  0
 45 47  1  0  0  0  0
 45 48  1  0  0  0  0
 46 50  1  0  0  0  0
 47 52  1  0  0  0  0
 48 68  1  0  0  0  0
 49 52  1  0  0  0  0
 49 68  1  0  0  0  0
 50 72  1  0  0  0  0
 51 67  1  0  0  0  0
 52 65  1  0  0  0  0
 53 62  1  0  0  0  0
 54 63  1  0  0  0  0
 55 63  1  0  0  0  0
 56 63  1  0  0  0  0
 57 74  1  0  0  0  0
 58 59  1  0  0  0  0
 58 60  1  0  0  0  0
 59 71  1  0  0  0  0
 60 82  1  0  0  0  0
 61 63  1  0  0  0  0
 61 73  1  0  0  0  0
 62 74  1  0  0  0  0
 64 65  1  0  0  0  0
M  CHG  1  74   1
M  ISO  4  39 100  60 101  66 100  82 101
M  END
> <Batch ID>
0005

> <Smiles>
CNC(C)C(=O)NC(C(=O)N1Cc2cc([101O:1][101CH2:1]CCNc3ccc4c(c3)C[100N:0]([100C:0](=O)N3CCCC(n5nc(-c6ccc(Oc7ccc(F)cc7F)cc6)c(C(N)=O)c5N)C3)C4=O)ccc2CC1C(=O)NC1CCCc2ccccc21)C(C)(C)C

> <Shape>
0.257

> <Color>
0.172

> <Negative vol penalty>
0.000

$$$$

  -OEChem-04042320263D

 81 89  0     1  0  0  0  0  0999 V2000
  -17.8540  -29.6878   23.1857 C   0  0  0  0  0  0  0  0  0  0  0  0
  -19.1649  -29.7684   22.7269 C   0  0  0  0  0  0  0  0  0  0  0  0
  -31.7303  -21.4327   15.9982 C   0  0  0  0  0  0  0  0  0  0  0  0
  -26.5309  -12.8368   21.6530 C   0  0  0  0  0  0  0  0  0  0  0  0
  -26.1580  -13.8986   19.5151 C   0  0  0  0  0  0  0  0  0  0  0  0
  -17.4210  -28.5458   23.8584 C   0  0  0  0  0  0  0  0  0  0  0  0
  -20.0440  -28.7074   22.9415 C   0  0  0  0  0  0  0  0  0  0  0  0
  -24.5117  -26.8148   19.2048 C   0  0  0  0  0  0  0  0  0  0  0  0
  -31.6956  -22.8046   16.2476 C   0  0  0  0  0  0  0  0  0  0  0  0
  -31.6002  -20.5287   17.0525 C   0  0  0  0  0  0  0  0  0  0  0  0
  -25.2611  -12.2631   21.5896 C   0  0  0  0  0  0  0  0  0  0  0  0
  -24.8881  -13.3249   19.4516 C   0  0  0  0  0  0  0  0  0  0  0  0
  -25.8862  -27.0482   19.1927 C   0  0  0  0  0  0  0  0  0  0  0  0
  -23.7851   -9.6450   20.0403 C   0  0  0  0  0  0  0  0  0  0  0  0
  -23.6654   -8.2966   20.3767 C   0  0  0  0  0  0  0  0  0  0  0  0
  -26.2427  -24.9745   20.3724 C   0  0  0  0  0  0  0  0  0  0  0  0
  -31.4006  -22.3685   18.6056 C   0  0  0  0  0  0  0  0  0  0  0  0
  -22.1382   -8.8763   22.1569 C   0  0  0  0  0  0  0  0  0  0  0  0
  -26.9793  -13.6546   20.6158 C   0  0  0  0  0  0  0  0  0  0  0  0
  -29.4957  -13.7021   20.1994 C   0  0  0  0  0  0  0  0  0  0  0  0
  -18.2925  -27.4664   24.0728 C   0  0  0  0  0  0  0  0  0  0  0  0
  -23.9907  -25.6628   19.8115 C   0  0  0  0  0  0  0  0  0  0  0  0
  -19.6226  -27.5505   23.6189 C   0  0  0  0  0  0  0  0  0  0  0  0
  -24.8615  -24.7275   20.3887 C   0  0  0  0  0  0  0  0  0  0  0  0
  -31.5307  -23.2726   17.5512 C   0  0  0  0  0  0  0  0  0  0  0  0
  -31.4353  -20.9966   18.3561 C   0  0  0  0  0  0  0  0  0  0  0  0
  -24.4397  -12.5071   20.4889 C   0  0  0  0  0  0  0  0  0  0  0  0
  -26.7517  -26.1294   19.7791 C   0  0  0  0  0  0  0  0  0  0  0  0
  -23.0814  -10.6091   20.7623 C   0  0  0  0  0  0  0  0  0  0  0  0
  -22.8420   -7.9123   21.4350 C   0  0  0  0  0  0  0  0  0  0  0  0
  -22.2580  -10.2247   21.8205 C   0  0  0  0  0  0  0  0  0  0  0  0
  -28.2907  -14.2480   20.6810 C   0  0  0  0  0  0  0  0  0  0  0  0
  -30.4457  -14.6468   20.5020 C   0  0  0  0  0  0  0  0  0  0  0  0
  -29.7348  -12.4528   19.5377 C   0  0  0  0  0  0  0  0  0  0  0  0
  -22.0279  -25.1033   22.2483 C   0  0  0  0  0  0  0  0  0  0  0  0
  -22.2909  -22.0289   21.2477 C   0  0  0  0  0  0  0  0  0  0  0  0
  -24.1085  -19.6701   19.5806 C   0  0  0  0  0  0  0  0  0  0  0  0
  -31.1319  -20.3750   20.7785 C   0  0  0  0  0  0  0  0  0  0  0  0
  -17.7924  -26.2723   24.8466 C   0  0  0  0  0  0  0  0  0  0  0  0
  -22.5077  -25.4125   19.7927 C   0  0  0  0  0  0  0  0  0  0  0  0
  -24.3542  -23.4652   21.0350 C   0  0  0  0  0  0  0  0  0  0  0  0
  -18.6801  -25.0387   24.7039 C   0  0  0  0  0  0  0  0  0  0  0  0
  -30.7288  -18.4002   23.7136 C   0  0  0  0  0  0  0  0  0  0  0  0
  -20.1477  -25.4133   24.8847 C   0  0  0  0  0  0  0  0  0  0  0  0
  -30.1768  -17.0742   23.1854 C   0  0  0  0  0  0  0  0  0  0  0  0
  -30.1776  -19.5940   22.9359 C   0  0  0  0  0  0  0  0  0  0  0  0
  -29.7887  -18.1883   20.9505 C   0  0  0  0  0  0  0  0  0  0  0  0
  -20.5990  -26.4103   23.8106 C   0  0  1  0  0  0  0  0  0  0  0  0
  -22.0487  -24.4586   20.8912 C   0  0  1  0  0  0  0  0  0  0  0  0
  -30.3655  -16.9527   21.6605 C   0  0  2  0  0  0  0  0  0  0  0  0
  -24.0850  -17.2376   18.9640 C   0  0  0  0  0  0  0  0  0  0  0  0
  -23.0930  -21.3006   24.1001 C   0  0  0  0  0  0  0  0  0  0  0  0
  -23.9578  -19.1198   23.2259 C   0  0  0  0  0  0  0  0  0  0  0  0
  -21.5361  -19.6769   23.0074 C   0  0  0  0  0  0  0  0  0  0  0  0
  -24.0927  -20.2848   16.6856 C   0  0  0  0  0  0  0  0  0  0  0  0
  -31.4934  -24.7483   17.8189 C   0  0  0  0  0  0  0  0  0  0  0  0
  -30.0622  -26.7014   18.4321 C   0  0  0  0  0  0  0  0  0  0  0  0
  -28.6190  -27.0994   18.6708 C   0  0  0  0  0  0  0  0  0  1  0  0
  -23.2206  -20.8801   21.5559 C   0  0  1  0  0  0  0  0  0  0  0  0
  -23.7104  -18.6469   18.5322 C   0  0  2  0  0  0  0  0  0  0  0  0
  -22.9616  -20.2690   22.9619 C   0  0  0  0  0  0  0  0  0  0  0  0
  -28.4573  -15.4464   21.2466 N   0  0  0  0  0  0  0  0  0  0  0  0
  -29.7781  -15.6614   21.1225 N   0  0  0  0  0  0  0  0  0  0  0  0
  -22.8956  -23.2687   20.9967 N   0  0  0  0  0  0  0  0  0  0  0  0
  -30.3957  -19.4110   21.4993 N   0  0  0  0  0  0  0  0  0  0  0  0
  -31.7787  -14.7002   20.2952 N   0  0  0  0  0  0  0  0  0  0  0  0
  -28.6466  -11.6008   19.3052 N   0  0  0  0  0  0  0  0  0  0  0  0
  -31.3025  -20.0780   19.4268 N   0  0  0  0  0  0  0  0  0  0  0  0
  -20.8349  -25.7290   22.5557 N   0  0  0  0  0  0  0  0  0  0  0  0
  -23.0763  -19.9320   20.4565 N   0  0  0  0  0  0  0  0  0  0  0  0
  -24.3909  -18.9387   17.2389 N   0  3  0  0  0  0  0  0  0  0  0  0
  -30.1237  -25.2546   18.1043 N   0  3  0  0  0  0  0  0  0  0  0  0
  -30.8822  -12.0952   19.1784 O   0  0  0  0  0  0  0  0  0  0  0  0
  -23.0203  -25.0366   22.9641 O   0  0  0  0  0  0  0  0  0  0  0  0
  -21.0734  -21.8318   21.2233 O   0  0  0  0  0  0  0  0  0  0  0  0
  -25.2248  -20.1827   19.6208 O   0  0  0  0  0  0  0  0  0  0  0  0
  -31.6015  -21.3758   21.3262 O   0  0  0  0  0  0  0  0  0  0  0  0
  -23.2007  -11.9472   20.4266 O   0  0  0  0  0  0  0  0  0  0  0  0
  -28.0936  -26.3552   19.7692 O   0  0  0  0  0  0  0  0  0  1  0  0
  -22.7259   -6.6173   21.7569 F   0  0  0  0  0  0  0  0  0  0  0  0
  -21.5785  -11.1462   22.5169 F   0  0  0  0  0  0  0  0  0  0  0  0
  1  2  1  0  0  0  0
  1  6  2  0  0  0  0
  2  7  2  0  0  0  0
  3  9  2  0  0  0  0
  3 10  1  0  0  0  0
  4 11  2  0  0  0  0
  4 19  1  0  0  0  0
  5 12  1  0  0  0  0
  5 19  2  0  0  0  0
  6 21  1  0  0  0  0
  7 23  1  0  0  0  0
  8 13  2  0  0  0  0
  8 22  1  0  0  0  0
  9 25  1  0  0  0  0
 10 26  2  0  0  0  0
 11 27  1  0  0  0  0
 12 27  2  0  0  0  0
 13 28  1  0  0  0  0
 14 15  2  0  0  0  0
 14 29  1  0  0  0  0
 15 30  1  0  0  0  0
 16 24  1  0  0  0  0
 16 28  2  0  0  0  0
 17 25  2  0  0  0  0
 17 26  1  0  0  0  0
 18 30  2  0  0  0  0
 18 31  1  0  0  0  0
 19 32  1  0  0  0  0
 20 32  1  0  0  0  0
 20 33  2  0  0  0  0
 20 34  1  0  0  0  0
 21 23  2  0  0  0  0
 21 39  1  0  0  0  0
 22 24  2  0  0  0  0
 22 40  1  0  0  0  0
 23 48  1  0  0  0  0
 24 41  1  0  0  0  0
 25 56  1  0  0  0  0
 26 68  1  0  0  0  0
 27 78  1  0  0  0  0
 28 79  1  0  0  0  0
 29 31  2  0  0  0  0
 29 78  1  0  0  0  0
 30 80  1  0  0  0  0
 31 81  1  0  0  0  0
 32 62  2  0  0  0  0
 33 63  1  0  0  0  0
 33 66  1  0  0  0  0
 34 67  1  0  0  0  0
 34 73  2  0  0  0  0
 35 49  1  0  0  0  0
 35 69  1  0  0  0  0
 35 74  2  0  0  0  0
 36 59  1  0  0  0  0
 36 64  1  0  0  0  0
 36 75  2  0  0  0  0
 37 60  1  0  0  0  0
 37 70  1  0  0  0  0
 37 76  2  0  0  0  0
 38 65  1  0  0  0  0
 38 68  1  0  0  0  0
 38 77  2  0  0  0  0
 39 42  1  0  0  0  0
 40 49  1  0  0  0  0
 41 64  1  0  0  0  0
 42 44  1  0  0  0  0
 43 45  1  0  0  0  0
 43 46  1  0  0  0  0
 44 48  1  0  0  0  0
 45 50  1  0  0  0  0
 46 65  1  0  0  0  0
 47 50  1  0  0  0  0
 47 65  1  0  0  0  0
 48 69  1  0  0  0  0
 49 64  1  0  0  0  0
 50 63  1  0  0  0  0
 51 60  1  0  0  0  0
 52 61  1  0  0  0  0
 53 61  1  0  0  0  0
 54 61  1  0  0  0  0
 55 71  1  0  0  0  0
 56 72  1  0  0  0  0
 57 58  1  0  0  0  0
 57 72  1  0  0  0  0
 58 79  1  0  0  0  0
 59 61  1  0  0  0  0
 59 70  1  0  0  0  0
 60 71  1  0  0  0  0
 62 63  1  0  0  0  0
M  CHG  2  71   1  72   1
M  ISO  4  38 100  58 101  68 100  79 101
M  END
> <Batch ID>
0005

> <Smiles>
CNC(C)C(=O)NC(C(=O)N1Cc2cc([101O:1][101CH2:1]CNCc3cccc([100NH:0][100C:0](=O)N4CCCC(n5nc(-c6ccc(Oc7ccc(F)cc7F)cc6)c(C(N)=O)c5N)C4)c3)ccc2CC1C(=O)NC1CCCc2ccccc21)C(C)(C)C

> <Shape>
0.226

> <Color>
0.070

> <Negative vol penalty>
0.000

$$$$

  -OEChem-04042320263D

106116  0     1  0  0  0  0  0999 V2000
  -26.1380   -4.4630   24.3619 C   0  0  0  0  0  0  0  0  0  0  0  0
  -26.6233   -4.8218   23.1084 C   0  0  0  0  0  0  0  0  0  0  0  0
  -26.9703  -31.3879   23.4369 C   0  0  0  0  0  0  0  0  0  0  0  0
  -25.3158  -29.9432   24.4432 C   0  0  0  0  0  0  0  0  0  0  0  0
  -25.0299   -5.1213   24.8937 C   0  0  0  0  0  0  0  0  0  0  0  0
  -26.0002   -5.8384   22.3855 C   0  0  0  0  0  0  0  0  0  0  0  0
  -29.6491  -11.6993   20.3296 C   0  0  0  0  0  0  0  0  0  0  0  0
  -20.7284  -26.2256   21.4487 C   0  0  0  0  0  0  0  0  0  0  0  0
  -27.6141  -31.5084   24.6683 C   0  0  0  0  0  0  0  0  0  0  0  0
  -25.9597  -30.0637   25.6747 C   0  0  0  0  0  0  0  0  0  0  0  0
  -30.3302  -12.7524   19.7187 C   0  0  0  0  0  0  0  0  0  0  0  0
  -19.6575  -26.9611   20.9411 C   0  0  0  0  0  0  0  0  0  0  0  0
  -29.4884  -32.4853   27.6275 C   0  0  0  0  0  0  0  0  0  0  0  0
  -29.8949  -33.7585   28.0266 C   0  0  0  0  0  0  0  0  0  0  0  0
  -28.2485  -13.5897   18.8170 C   0  0  0  0  0  0  0  0  0  0  0  0
  -19.0455  -27.6182   23.1841 C   0  0  0  0  0  0  0  0  0  0  0  0
  -27.6028  -34.5175   27.9401 C   0  0  0  0  0  0  0  0  0  0  0  0
  -25.8211  -30.6054   23.3243 C   0  0  0  0  0  0  0  0  0  0  0  0
  -25.3950  -29.5135   21.0585 C   0  0  0  0  0  0  0  0  0  0  0  0
  -24.3988   -6.1531   24.1811 C   0  0  0  0  0  0  0  0  0  0  0  0
  -28.2614  -11.5960   20.1991 C   0  0  0  0  0  0  0  0  0  0  0  0
  -24.8819   -6.5102   22.9077 C   0  0  0  0  0  0  0  0  0  0  0  0
  -27.5593  -12.5441   19.4369 C   0  0  0  0  0  0  0  0  0  0  0  0
  -20.9579  -26.1863   22.8241 C   0  0  0  0  0  0  0  0  0  0  0  0
  -27.1088  -30.8463   25.7872 C   0  0  0  0  0  0  0  0  0  0  0  0
  -29.6316  -13.6951   18.9641 C   0  0  0  0  0  0  0  0  0  0  0  0
  -18.8160  -27.6574   21.8088 C   0  0  0  0  0  0  0  0  0  0  0  0
  -28.1391  -32.2282   27.3845 C   0  0  0  0  0  0  0  0  0  0  0  0
  -28.9521  -34.7746   28.1830 C   0  0  0  0  0  0  0  0  0  0  0  0
  -20.1165  -26.8826   23.6917 C   0  0  0  0  0  0  0  0  0  0  0  0
  -27.1963  -33.2443   27.5408 C   0  0  0  0  0  0  0  0  0  0  0  0
  -25.1552  -30.4810   22.0526 C   0  0  0  0  0  0  0  0  0  0  0  0
  -24.5108  -29.8258   20.0550 C   0  0  0  0  0  0  0  0  0  0  0  0
  -26.3332  -28.4294   21.0435 C   0  0  0  0  0  0  0  0  0  0  0  0
  -25.1407   -9.7002   21.0611 C   0  0  0  0  0  0  0  0  0  0  0  0
  -24.4446  -12.6834   21.2234 C   0  0  0  0  0  0  0  0  0  0  0  0
  -23.9724  -24.0221   23.3120 C   0  0  0  0  0  0  0  0  0  0  0  0
  -24.2002  -16.0525   21.6997 C   0  0  0  0  0  0  0  0  0  0  0  0
  -19.2605  -32.7036   19.9964 C   0  0  0  0  0  0  0  0  0  0  0  0
  -23.1753   -6.8036   24.7765 C   0  0  0  0  0  0  0  0  0  0  0  0
  -27.4944  -10.4437   20.7887 C   0  0  0  0  0  0  0  0  0  0  0  0
  -26.0714  -12.3734   19.2952 C   0  0  0  0  0  0  0  0  0  0  0  0
  -22.8014   -8.1242   24.1084 C   0  0  0  0  0  0  0  0  0  0  0  0
  -22.1807  -33.5393   18.1388 C   0  0  0  0  0  0  0  0  0  0  0  0
  -22.8389   -7.9837   22.5899 C   0  0  0  0  0  0  0  0  0  0  0  0
  -23.2958  -32.7630   18.8416 C   0  0  0  0  0  0  0  0  0  0  0  0
  -28.2373  -21.4408   24.6673 C   0  0  0  0  0  0  0  0  0  0  0  0
  -29.0200  -22.7445   24.4778 C   0  0  0  0  0  0  0  0  0  0  0  0
  -26.3278  -21.7411   22.9962 C   0  0  0  0  0  0  0  0  0  0  0  0
  -27.6344  -23.9180   22.6807 C   0  0  0  0  0  0  0  0  0  0  0  0
  -21.1439  -34.0605   19.1315 C   0  0  0  0  0  0  0  0  0  0  0  0
  -21.6831  -32.2585   20.7239 C   0  0  0  0  0  0  0  0  0  0  0  0
  -24.2483   -7.6248   22.1037 C   0  0  1  0  0  0  0  0  0  0  0  0
  -26.0906  -10.8411   21.2792 C   0  0  1  0  0  0  0  0  0  0  0  0
  -22.7231  -31.6652   19.7582 C   0  0  2  0  0  0  0  0  0  0  0  0
  -26.3453  -23.2653   23.2095 C   0  0  0  0  0  0  0  0  0  0  0  0
  -27.6874  -21.0848   23.2848 C   0  0  1  0  0  0  0  0  0  0  0  0
  -28.8916  -23.0910   22.9933 C   0  0  2  0  0  0  0  0  0  0  0  0
  -25.7662  -19.6973   18.5246 C   0  0  0  0  0  0  0  0  0  0  0  0
  -22.5630  -17.8341   22.3652 C   0  0  0  0  0  0  0  0  0  0  0  0
  -23.1395  -12.5066   18.4721 C   0  0  0  0  0  0  0  0  0  0  0  0
  -22.2404  -14.8159   18.8285 C   0  0  0  0  0  0  0  0  0  0  0  0
  -21.5543  -12.9633   20.3517 C   0  0  0  0  0  0  0  0  0  0  0  0
  -25.8260  -16.8329   24.0463 C   0  0  0  0  0  0  0  0  0  0  0  0
  -22.9342  -24.7073   22.4606 C   0  0  0  0  0  0  0  0  0  0  0  0
  -27.0445  -19.8982   19.3223 C   0  0  0  0  0  0  0  0  0  0  0  0
  -30.4804  -17.4961   19.1824 C   0  0  0  0  0  0  0  0  0  0  0  0
  -31.6718  -16.6640   18.7138 C   0  0  0  0  0  0  0  0  0  0  0  0
  -17.0863  -30.1984   19.9119 C   0  0  0  0  0  0  0  0  0  0  0  0
  -30.6267  -21.3968   20.8278 C   0  0  0  0  0  0  0  0  0  0  0  0
  -17.4834  -31.2501   20.9390 C   0  0  0  0  0  0  0  0  0  0  0  0
  -29.9392  -20.9487   22.1131 C   0  0  0  0  0  0  0  0  0  0  0  0
  -28.2713  -19.5661   18.4880 C   0  0  0  0  0  0  0  0  0  0  0  0
  -30.6639  -18.9632   18.8241 C   0  0  0  0  0  0  0  0  0  0  0  0
  -29.8302  -21.1969   19.5427 C   0  0  0  0  0  0  0  0  0  0  0  0
  -31.4835  -15.1864   19.0269 C   0  0  0  0  0  0  0  0  0  1  0  0
  -17.9249  -28.9296   20.0079 C   0  0  0  0  0  0  0  0  0  0  0  0
  -23.8989  -13.8956   20.5118 C   0  0  1  0  0  0  0  0  0  0  0  0
  -23.6350  -16.8694   22.8476 C   0  0  2  0  0  0  0  0  0  0  0  0
  -22.7362  -13.5403   19.5425 C   0  0  0  0  0  0  0  0  0  0  0  0
  -24.1940  -31.3434   21.7115 N   0  0  0  0  0  0  0  0  0  0  0  0
  -23.8221  -30.9190   20.4919 N   0  0  0  0  0  0  0  0  0  0  0  0
  -25.4840  -11.9922   20.5891 N   0  0  0  0  0  0  0  0  0  0  0  0
  -20.6394  -32.9698   19.9692 N   0  0  0  0  0  0  0  0  0  0  0  0
  -24.2630  -29.2692   18.8503 N   0  0  0  0  0  0  0  0  0  0  0  0
  -27.1665  -28.2515   22.1563 N   0  0  0  0  0  0  0  0  0  0  0  0
  -22.0113  -25.4625   23.3206 N   0  0  0  0  0  0  0  0  0  0  0  0
  -25.0973   -8.7968   22.1058 N   0  0  0  0  0  0  0  0  0  0  0  0
  -25.1758  -23.8834   22.6328 N   0  0  0  0  0  0  0  0  0  0  0  0
  -23.5381  -14.8520   21.5526 N   0  0  0  0  0  0  0  0  0  0  0  0
  -18.8673  -31.6490   20.8112 N   0  0  0  0  0  0  0  0  0  0  0  0
  -28.6992  -21.7261   22.3415 N   0  3  0  0  0  0  0  0  0  0  0  0
  -24.7160  -17.6579   23.5037 N   0  3  0  0  0  0  0  0  0  0  0  0
  -29.5076  -19.7368   19.3372 N   0  3  1  0  0  0  0  0  0  0  0  0
  -26.4411  -27.6517   20.0652 O   0  0  0  0  0  0  0  0  0  0  0  0
  -24.4929   -9.6434   20.0225 O   0  0  0  0  0  0  0  0  0  0  0  0
  -23.9605  -12.3529   22.3095 O   0  0  0  0  0  0  0  0  0  0  0  0
  -23.7615  -23.6437   24.4612 O   0  0  0  0  0  0  0  0  0  0  0  0
  -25.1330  -16.4422   21.0008 O   0  0  0  0  0  0  0  0  0  0  0  0
  -18.4410  -33.3540   19.3387 O   0  0  0  0  0  0  0  0  0  0  0  0
  -27.7370  -30.9635   26.9890 O   0  0  0  0  0  0  0  0  0  0  0  0
  -30.3021  -14.7233   18.3741 O   0  0  0  0  0  0  0  0  0  1  0  0
  -17.7710  -28.3751   21.3135 O   0  0  0  0  0  0  0  0  0  0  0  0
  -29.3424  -35.9968   28.5678 F   0  0  0  0  0  0  0  0  0  0  0  0
  -20.3279  -26.8519   25.0152 F   0  0  0  0  0  0  0  0  0  0  0  0
  -25.8985  -33.0030   27.3100 F   0  0  0  0  0  0  0  0  0  0  0  0
  1  2  1  0  0  0  0
  1  5  2  0  0  0  0
  2  6  2  0  0  0  0
  3  9  2  0  0  0  0
  3 18  1  0  0  0  0
  4 10  1  0  0  0  0
  4 18  2  0  0  0  0
  5 20  1  0  0  0  0
  6 22  1  0  0  0  0
  7 11  2  0  0  0  0
  7 21  1  0  0  0  0
  8 12  2  0  0  0  0
  8 24  1  0  0  0  0
  9 25  1  0  0  0  0
 10 25  2  0  0  0  0
 11 26  1  0  0  0  0
 12 27  1  0  0  0  0
 13 14  2  0  0  0  0
 13 28  1  0  0  0  0
 14 29  1  0  0  0  0
 15 23  1  0  0  0  0
 15 26  2  0  0  0  0
 16 27  2  0  0  0  0
 16 30  1  0  0  0  0
 17 29  2  0  0  0  0
 17 31  1  0  0  0  0
 18 32  1  0  0  0  0
 19 32  1  0  0  0  0
 19 33  2  0  0  0  0
 19 34  1  0  0  0  0
 20 22  2  0  0  0  0
 20 40  1  0  0  0  0
 21 23  2  0  0  0  0
 21 41  1  0  0  0  0
 22 53  1  0  0  0  0
 23 42  1  0  0  0  0
 24 30  2  0  0  0  0
 24 87  1  0  0  0  0
 25101  1  0  0  0  0
 26102  1  0  0  0  0
 27103  1  0  0  0  0
 28 31  2  0  0  0  0
 28101  1  0  0  0  0
 29104  1  0  0  0  0
 30105  1  0  0  0  0
 31106  1  0  0  0  0
 32 81  2  0  0  0  0
 33 82  1  0  0  0  0
 33 85  1  0  0  0  0
 34 86  1  0  0  0  0
 34 95  2  0  0  0  0
 35 54  1  0  0  0  0
 35 88  1  0  0  0  0
 35 96  2  0  0  0  0
 36 78  1  0  0  0  0
 36 83  1  0  0  0  0
 36 97  2  0  0  0  0
 37 65  1  0  0  0  0
 37 89  1  0  0  0  0
 37 98  2  0  0  0  0
 38 79  1  0  0  0  0
 38 90  1  0  0  0  0
 38 99  2  0  0  0  0
 39 84  1  0  0  0  0
 39 91  1  0  0  0  0
 39100  2  0  0  0  0
 40 43  1  0  0  0  0
 41 54  1  0  0  0  0
 42 83  1  0  0  0  0
 43 45  1  0  0  0  0
 44 46  1  0  0  0  0
 44 51  1  0  0  0  0
 45 53  1  0  0  0  0
 46 55  1  0  0  0  0
 47 48  1  0  0  0  0
 47 57  1  0  0  0  0
 48 58  1  0  0  0  0
 49 56  1  0  0  0  0
 49 57  1  0  0  0  0
 50 56  1  0  0  0  0
 50 58  1  0  0  0  0
 51 84  1  0  0  0  0
 52 55  1  0  0  0  0
 52 84  1  0  0  0  0
 53 88  1  0  0  0  0
 54 83  1  0  0  0  0
 55 82  1  0  0  0  0
 56 89  1  0  0  0  0
 57 92  1  0  0  0  0
 58 92  1  0  0  0  0
 59 66  1  0  0  0  0
 60 79  1  0  0  0  0
 61 80  1  0  0  0  0
 62 80  1  0  0  0  0
 63 80  1  0  0  0  0
 64 93  1  0  0  0  0
 65 87  1  0  0  0  0
 66 73  1  0  0  0  0
 67 68  1  0  0  0  0
 67 74  1  0  0  0  0
 68 76  1  0  0  0  0
 69 71  1  0  0  0  0
 69 77  1  0  0  0  0
 70 72  1  0  0  0  0
 70 75  1  0  0  0  0
 71 91  1  0  0  0  0
 72 92  1  0  0  0  0
 73 94  1  0  0  0  0
 74 94  1  0  0  0  0
 75 94  1  0  0  0  0
 76102  1  0  0  0  0
 77103  1  0  0  0  0
 78 80  1  0  0  0  0
 78 90  1  0  0  0  0
 79 93  1  0  0  0  0
 81 82  1  0  0  0  0
M  CHG  3  92   1  93   1  94   1
M  ISO  4  39 100  76 101  91 100 102 101
M  END
> <Batch ID>
0005

> <Smiles>
CCCN(CCCN1C2CCC1CC(NC(=O)CNc1ccc(OCCC[100NH:0][100C:0](=O)N3CCCC(n4nc(-c5ccc(Oc6ccc(F)cc6F)cc5)c(C(N)=O)c4N)C3)cc1F)C2)CCC[101CH2:1][101O:1]c1ccc2c(c1)CN(C(=O)C(NC(=O)C(C)NC)C(C)(C)C)C(C(=O)NC1CCCc3ccccc31)C2

> <Shape>
0.265

> <Color>
0.038

> <Negative vol penalty>
0.000

$$$$

  -OEChem-04042320263D

 85 94  0     1  0  0  0  0  0999 V2000
  -17.8685  -31.3916   17.4921 C   0  0  0  0  0  0  0  0  0  0  0  0
  -19.1795  -31.1804   17.9070 C   0  0  0  0  0  0  0  0  0  0  0  0
  -28.9996  -20.0992   23.1385 C   0  0  0  0  0  0  0  0  0  0  0  0
  -31.3915  -18.9764   20.5312 C   0  0  0  0  0  0  0  0  0  0  0  0
  -22.9972   -9.8933   19.9859 C   0  0  0  0  0  0  0  0  0  0  0  0
  -23.7207   -9.9509   22.2904 C   0  0  0  0  0  0  0  0  0  0  0  0
  -16.8544  -30.5405   17.9294 C   0  0  0  0  0  0  0  0  0  0  0  0
  -19.4770  -30.1186   18.7605 C   0  0  0  0  0  0  0  0  0  0  0  0
  -24.5825  -26.7364   18.7876 C   0  0  0  0  0  0  0  0  0  0  0  0
  -29.1941  -21.4804   23.1097 C   0  0  0  0  0  0  0  0  0  0  0  0
  -31.1971  -17.5951   20.5599 C   0  0  0  0  0  0  0  0  0  0  0  0
  -22.2290   -8.7606   20.2554 C   0  0  0  0  0  0  0  0  0  0  0  0
  -22.9524   -8.8183   22.5599 C   0  0  0  0  0  0  0  0  0  0  0  0
  -25.7360  -26.7855   19.5690 C   0  0  0  0  0  0  0  0  0  0  0  0
  -23.1929   -5.4775   22.0992 C   0  0  0  0  0  0  0  0  0  0  0  0
  -23.7785   -4.4621   22.8551 C   0  0  0  0  0  0  0  0  0  0  0  0
  -30.8472  -21.2127   21.3710 C   0  0  0  0  0  0  0  0  0  0  0  0
  -29.5440  -17.8629   22.2987 C   0  0  0  0  0  0  0  0  0  0  0  0
  -24.8204  -25.0870   21.0168 C   0  0  0  0  0  0  0  0  0  0  0  0
  -22.0537   -4.7127   24.5282 C   0  0  0  0  0  0  0  0  0  0  0  0
  -30.6644  -19.8203   21.3863 C   0  0  0  0  0  0  0  0  0  0  0  0
  -29.7268  -19.2552   22.2833 C   0  0  0  0  0  0  0  0  0  0  0  0
  -23.7431  -10.4884   21.0034 C   0  0  0  0  0  0  0  0  0  0  0  0
  -24.1317  -13.0029   20.8194 C   0  0  0  0  0  0  0  0  0  0  0  0
  -17.1412  -29.4619   18.7810 C   0  0  0  0  0  0  0  0  0  0  0  0
  -23.5329  -25.8685   19.1217 C   0  0  0  0  0  0  0  0  0  0  0  0
  -18.4656  -29.2530   19.2107 C   0  0  0  0  0  0  0  0  0  0  0  0
  -23.6557  -25.0269   20.2365 C   0  0  0  0  0  0  0  0  0  0  0  0
  -30.1161  -22.0361   22.2277 C   0  0  0  0  0  0  0  0  0  0  0  0
  -30.2750  -17.0395   21.4420 C   0  0  0  0  0  0  0  0  0  0  0  0
  -22.2066   -8.2232   21.5424 C   0  0  0  0  0  0  0  0  0  0  0  0
  -25.8539  -25.9629   20.6855 C   0  0  0  0  0  0  0  0  0  0  0  0
  -22.0376   -6.1107   22.5578 C   0  0  0  0  0  0  0  0  0  0  0  0
  -23.2089   -4.0796   24.0696 C   0  0  0  0  0  0  0  0  0  0  0  0
  -21.4680   -5.7282   23.7723 C   0  0  0  0  0  0  0  0  0  0  0  0
  -24.5373  -11.6581   20.7255 C   0  0  0  0  0  0  0  0  0  0  0  0
  -25.2427  -13.7229   20.4535 C   0  0  0  0  0  0  0  0  0  0  0  0
  -22.8642  -13.5522   21.2031 C   0  0  0  0  0  0  0  0  0  0  0  0
  -20.4847  -26.2457   19.9403 C   0  0  0  0  0  0  0  0  0  0  0  0
  -20.4421  -23.0068   19.7666 C   0  0  0  0  0  0  0  0  0  0  0  0
  -22.1845  -20.0753   19.8971 C   0  0  0  0  0  0  0  0  0  0  0  0
  -30.7232  -14.6777   20.6885 C   0  0  0  0  0  0  0  0  0  0  0  0
  -16.0044  -28.5971   19.2651 C   0  0  0  0  0  0  0  0  0  0  0  0
  -22.3063  -25.8082   18.2532 C   0  0  0  0  0  0  0  0  0  0  0  0
  -22.5660  -24.0630   20.6263 C   0  0  0  0  0  0  0  0  0  0  0  0
  -16.4617  -27.2716   19.8686 C   0  0  0  0  0  0  0  0  0  0  0  0
  -29.6036  -12.2186   18.3698 C   0  0  0  0  0  0  0  0  0  0  0  0
  -17.6188  -27.4968   20.8368 C   0  0  0  0  0  0  0  0  0  0  0  0
  -28.1524  -11.9642   18.7837 C   0  0  0  0  0  0  0  0  0  0  0  0
  -30.5035  -12.4649   19.5795 C   0  0  0  0  0  0  0  0  0  0  0  0
  -28.5881  -13.2606   20.9089 C   0  0  0  0  0  0  0  0  0  0  0  0
  -18.8320  -28.0973   20.1164 C   0  0  1  0  0  0  0  0  0  0  0  0
  -21.0848  -25.2564   18.9818 C   0  0  1  0  0  0  0  0  0  0  0  0
  -27.6311  -13.0715   19.7206 C   0  0  2  0  0  0  0  0  0  0  0  0
  -21.8708  -17.5894   19.7582 C   0  0  0  0  0  0  0  0  0  0  0  0
  -19.3034  -22.9948   22.5973 C   0  0  0  0  0  0  0  0  0  0  0  0
  -19.9001  -20.5683   22.7522 C   0  0  0  0  0  0  0  0  0  0  0  0
  -18.2542  -21.3395   21.0438 C   0  0  0  0  0  0  0  0  0  0  0  0
  -23.9383  -19.8700   17.5220 C   0  0  0  0  0  0  0  0  0  0  0  0
  -30.3247  -23.5216   22.1974 C   0  0  0  0  0  0  0  0  0  0  0  0
  -29.3655  -25.7294   21.5309 C   0  0  0  0  0  0  0  0  0  0  0  0
  -28.1975  -26.3530   20.7927 C   0  0  0  0  0  0  0  0  0  1  0  0
  -20.7047  -21.8806   20.7370 C   0  0  1  0  0  0  0  0  0  0  0  0
  -22.1834  -18.8615   18.9855 C   0  0  2  0  0  0  0  0  0  0  0  0
  -19.5605  -21.7152   21.7766 C   0  0  0  0  0  0  0  0  0  0  0  0
  -25.8067  -11.5286   20.3307 N   0  0  0  0  0  0  0  0  0  0  0  0
  -26.2084  -12.8014   20.1732 N   0  0  0  0  0  0  0  0  0  0  0  0
  -21.3836  -24.0456   19.7492 N   0  0  0  0  0  0  0  0  0  0  0  0
  -29.9492  -13.5293   20.4189 N   0  0  0  0  0  0  0  0  0  0  0  0
  -25.4780  -15.0479   20.3472 N   0  0  0  0  0  0  0  0  0  0  0  0
  -21.8310  -12.6705   21.5487 N   0  0  0  0  0  0  0  0  0  0  0  0
  -30.0796  -15.6363   21.4704 N   0  0  0  0  0  0  0  0  0  0  0  0
  -19.5356  -27.0744   19.3728 N   0  0  0  0  0  0  0  0  0  0  0  0
  -20.9521  -20.6929   19.9267 N   0  0  0  0  0  0  0  0  0  0  0  0
  -23.5146  -18.7010   18.3349 N   0  3  0  0  0  0  0  0  0  0  0  0
  -29.2171  -24.2522   21.5242 N   0  3  0  0  0  0  0  0  0  0  0  0
  -22.6490  -14.7879   21.2226 O   0  0  0  0  0  0  0  0  0  0  0  0
  -20.8542  -26.2555   21.1087 O   0  0  0  0  0  0  0  0  0  0  0  0
  -19.4424  -22.9629   19.0453 O   0  0  0  0  0  0  0  0  0  0  0  0
  -23.1782  -20.4371   20.5234 O   0  0  0  0  0  0  0  0  0  0  0  0
  -31.8624  -14.8137   20.2349 O   0  0  0  0  0  0  0  0  0  0  0  0
  -21.4569   -7.1181   21.8058 O   0  0  0  0  0  0  0  0  0  0  0  0
  -26.9785  -26.0093   21.4503 O   0  0  0  0  0  0  0  0  0  1  0  0
  -23.7706   -3.1034   24.7947 F   0  0  0  0  0  0  0  0  0  0  0  0
  -20.3576   -6.3320   24.2174 F   0  0  0  0  0  0  0  0  0  0  0  0
  1  2  1  0  0  0  0
  1  7  2  0  0  0  0
  2  8  2  0  0  0  0
  3 10  2  0  0  0  0
  3 22  1  0  0  0  0
  4 11  2  0  0  0  0
  4 21  1  0  0  0  0
  5 12  2  0  0  0  0
  5 23  1  0  0  0  0
  6 13  1  0  0  0  0
  6 23  2  0  0  0  0
  7 25  1  0  0  0  0
  8 27  1  0  0  0  0
  9 14  2  0  0  0  0
  9 26  1  0  0  0  0
 10 29  1  0  0  0  0
 11 30  1  0  0  0  0
 12 31  1  0  0  0  0
 13 31  2  0  0  0  0
 14 32  1  0  0  0  0
 15 16  2  0  0  0  0
 15 33  1  0  0  0  0
 16 34  1  0  0  0  0
 17 21  1  0  0  0  0
 17 29  2  0  0  0  0
 18 22  1  0  0  0  0
 18 30  2  0  0  0  0
 19 28  1  0  0  0  0
 19 32  2  0  0  0  0
 20 34  2  0  0  0  0
 20 35  1  0  0  0  0
 21 22  2  0  0  0  0
 23 36  1  0  0  0  0
 24 36  1  0  0  0  0
 24 37  2  0  0  0  0
 24 38  1  0  0  0  0
 25 27  2  0  0  0  0
 25 43  1  0  0  0  0
 26 28  2  0  0  0  0
 26 44  1  0  0  0  0
 27 52  1  0  0  0  0
 28 45  1  0  0  0  0
 29 60  1  0  0  0  0
 30 72  1  0  0  0  0
 31 82  1  0  0  0  0
 32 83  1  0  0  0  0
 33 35  2  0  0  0  0
 33 82  1  0  0  0  0
 34 84  1  0  0  0  0
 35 85  1  0  0  0  0
 36 66  2  0  0  0  0
 37 67  1  0  0  0  0
 37 70  1  0  0  0  0
 38 71  1  0  0  0  0
 38 77  2  0  0  0  0
 39 53  1  0  0  0  0
 39 73  1  0  0  0  0
 39 78  2  0  0  0  0
 40 63  1  0  0  0  0
 40 68  1  0  0  0  0
 40 79  2  0  0  0  0
 41 64  1  0  0  0  0
 41 74  1  0  0  0  0
 41 80  2  0  0  0  0
 42 69  1  0  0  0  0
 42 72  1  0  0  0  0
 42 81  2  0  0  0  0
 43 46  1  0  0  0  0
 44 53  1  0  0  0  0
 45 68  1  0  0  0  0
 46 48  1  0  0  0  0
 47 49  1  0  0  0  0
 47 50  1  0  0  0  0
 48 52  1  0  0  0  0
 49 54  1  0  0  0  0
 50 69  1  0  0  0  0
 51 54  1  0  0  0  0
 51 69  1  0  0  0  0
 52 73  1  0  0  0  0
 53 68  1  0  0  0  0
 54 67  1  0  0  0  0
 55 64  1  0  0  0  0
 56 65  1  0  0  0  0
 57 65  1  0  0  0  0
 58 65  1  0  0  0  0
 59 75  1  0  0  0  0
 60 76  1  0  0  0  0
 61 62  1  0  0  0  0
 61 76  1  0  0  0  0
 62 83  1  0  0  0  0
 63 65  1  0  0  0  0
 63 74  1  0  0  0  0
 64 75  1  0  0  0  0
 66 67  1  0  0  0  0
M  CHG  2  75   1  76   1
M  ISO  4  42 100  62 101  72 100  83 101
M  END
> <Batch ID>
0005

> <Smiles>
CNC(C)C(=O)NC(C(=O)N1Cc2cc([101O:1][101CH2:1]CNCc3ccc4cc([100NH:0][100C:0](=O)N5CCCC(n6nc(-c7ccc(Oc8ccc(F)cc8F)cc7)c(C(N)=O)c6N)C5)ccc4c3)ccc2CC1C(=O)NC1CCCc2ccccc21)C(C)(C)C

> <Shape>
0.231

> <Color>
0.194

> <Negative vol penalty>
0.000

$$$$

  -OEChem-04042320263D

 96106  0     1  0  0  0  0  0999 V2000
  -21.4382  -12.9672   21.6484 C   0  0  0  0  0  0  0  0  0  0  0  0
  -21.9042  -14.2233   22.0231 C   0  0  0  0  0  0  0  0  0  0  0  0
  -29.5055  -27.1609   18.8378 C   0  0  0  0  0  0  0  0  0  0  0  0
  -29.3376  -26.5826   21.1776 C   0  0  0  0  0  0  0  0  0  0  0  0
  -22.3237  -12.0217   21.1328 C   0  0  0  0  0  0  0  0  0  0  0  0
  -23.2563  -14.5344   21.8833 C   0  0  0  0  0  0  0  0  0  0  0  0
  -23.9965  -19.1229   19.8729 C   0  0  0  0  0  0  0  0  0  0  0  0
  -18.6527  -28.7210   21.8861 C   0  0  0  0  0  0  0  0  0  0  0  0
  -18.0167  -27.5425   21.4962 C   0  0  0  0  0  0  0  0  0  0  0  0
  -30.8591  -26.8246   18.8518 C   0  0  0  0  0  0  0  0  0  0  0  0
  -30.6912  -26.2463   21.1916 C   0  0  0  0  0  0  0  0  0  0  0  0
  -23.8386  -20.2210   20.7172 C   0  0  0  0  0  0  0  0  0  0  0  0
  -32.6197  -23.6442   20.2267 C   0  0  0  0  0  0  0  0  0  0  0  0
  -32.9843  -22.4567   20.8611 C   0  0  0  0  0  0  0  0  0  0  0  0
  -26.2328  -20.3562   20.9793 C   0  0  0  0  0  0  0  0  0  0  0  0
  -19.9146  -27.4929   23.5403 C   0  0  0  0  0  0  0  0  0  0  0  0
  -34.3821  -23.7019   22.3885 C   0  0  0  0  0  0  0  0  0  0  0  0
  -28.7447  -27.0400   20.0007 C   0  0  0  0  0  0  0  0  0  0  0  0
  -26.2619  -26.5377   19.6993 C   0  0  0  0  0  0  0  0  0  0  0  0
  -23.6856  -12.3246   20.9777 C   0  0  0  0  0  0  0  0  0  0  0  0
  -25.2754  -18.6256   19.5836 C   0  0  0  0  0  0  0  0  0  0  0  0
  -24.1611  -13.5916   21.3664 C   0  0  0  0  0  0  0  0  0  0  0  0
  -26.4044  -19.2532   20.1289 C   0  0  0  0  0  0  0  0  0  0  0  0
  -19.6016  -28.6963   22.9082 C   0  0  0  0  0  0  0  0  0  0  0  0
  -18.3296  -26.3391   22.1283 C   0  0  0  0  0  0  0  0  0  0  0  0
  -19.2786  -26.3143   23.1504 C   0  0  0  0  0  0  0  0  0  0  0  0
  -31.4520  -26.3672   20.0287 C   0  0  0  0  0  0  0  0  0  0  0  0
  -24.9567  -20.8361   21.2729 C   0  0  0  0  0  0  0  0  0  0  0  0
  -33.1363  -24.8606   20.6731 C   0  0  0  0  0  0  0  0  0  0  0  0
  -33.8654  -22.4855   21.9420 C   0  0  0  0  0  0  0  0  0  0  0  0
  -34.0175  -24.8894   21.7540 C   0  0  0  0  0  0  0  0  0  0  0  0
  -27.3465  -27.3878   19.9870 C   0  0  0  0  0  0  0  0  0  0  0  0
  -25.1546  -27.3415   19.8193 C   0  0  0  0  0  0  0  0  0  0  0  0
  -26.2558  -25.1461   19.3544 C   0  0  0  0  0  0  0  0  0  0  0  0
  -26.7711  -15.8635   20.0707 C   0  0  0  0  0  0  0  0  0  0  0  0
  -29.0966  -17.2552   18.2881 C   0  0  0  0  0  0  0  0  0  0  0  0
  -30.5507  -20.1273   17.1553 C   0  0  0  0  0  0  0  0  0  0  0  0
  -22.2506  -31.2504   22.5456 C   0  0  0  0  0  0  0  0  0  0  0  0
  -24.6130  -11.2539   20.4599 C   0  0  0  0  0  0  0  0  0  0  0  0
  -25.4303  -17.4568   18.6496 C   0  0  0  0  0  0  0  0  0  0  0  0
  -27.8002  -18.7706   19.8336 C   0  0  0  0  0  0  0  0  0  0  0  0
  -25.9638  -11.7911   19.9941 C   0  0  0  0  0  0  0  0  0  0  0  0
  -20.8319  -23.7894   30.4366 C   0  0  0  0  0  0  0  0  0  0  0  0
  -24.7663  -32.3633   20.2852 C   0  0  0  0  0  0  0  0  0  0  0  0
  -20.7152  -24.8230   29.3226 C   0  0  0  0  0  0  0  0  0  0  0  0
  -26.5357  -12.7618   21.0225 C   0  0  0  0  0  0  0  0  0  0  0  0
  -21.0745  -22.3468   30.0054 C   0  0  0  0  0  0  0  0  0  0  0  0
  -22.5992  -20.8026   28.7038 C   0  0  0  0  0  0  0  0  0  0  0  0
  -22.7669  -20.4775   27.2179 C   0  0  0  0  0  0  0  0  0  0  0  0
  -25.5756  -31.0997   19.9876 C   0  0  0  0  0  0  0  0  0  0  0  0
  -24.2900  -32.3999   21.7356 C   0  0  0  0  0  0  0  0  0  0  0  0
  -24.3558  -29.9402   21.8761 C   0  0  0  0  0  0  0  0  0  0  0  0
  -19.9007  -24.3732   28.1200 C   0  0  0  0  0  0  0  0  0  0  0  0
  -25.6163  -13.9751   21.2069 C   0  0  1  0  0  0  0  0  0  0  0  0
  -26.7511  -16.7159   18.8335 C   0  0  1  0  0  0  0  0  0  0  0  0
  -21.9697  -22.2040   28.7780 C   0  0  1  0  0  0  0  0  0  0  0  0
  -22.2379  -21.6943   26.4449 C   0  0  1  0  0  0  0  0  0  0  0  0
  -24.8105  -29.8313   20.4106 C   0  0  2  0  0  0  0  0  0  0  0  0
  -21.2253  -22.3021   27.4384 C   0  0  2  0  0  0  0  0  0  0  0  0
  -17.6317  -25.0922   21.6918 C   0  0  0  0  0  0  0  0  0  0  0  0
  -32.4583  -20.9461   15.7453 C   0  0  0  0  0  0  0  0  0  0  0  0
  -31.0410  -16.6131   20.5502 C   0  0  0  0  0  0  0  0  0  0  0  0
  -32.6460  -18.2483   19.5411 C   0  0  0  0  0  0  0  0  0  0  0  0
  -31.9503  -16.2289   18.2524 C   0  0  0  0  0  0  0  0  0  0  0  0
  -28.7217  -21.4690   15.2542 C   0  0  0  0  0  0  0  0  0  0  0  0
  -20.2813  -29.9566   23.3246 C   0  0  0  0  0  0  0  0  0  0  0  0
  -23.3981  -22.6050   26.0289 C   0  0  0  0  0  0  0  0  0  0  0  0
  -20.2377  -25.1108   25.1144 C   0  0  0  0  0  0  0  0  0  0  0  0
  -20.0767  -23.7381   25.7399 C   0  0  0  0  0  0  0  0  0  0  0  0
  -25.1812  -22.8231   24.2936 C   0  0  0  0  0  0  0  0  0  0  0  0
  -25.7893  -22.0911   23.1134 C   0  0  0  0  0  0  0  0  0  1  0  0
  -30.3008  -18.1157   18.5854 C   0  0  1  0  0  0  0  0  0  0  0  0
  -30.9889  -20.5544   15.7660 C   0  0  2  0  0  0  0  0  0  0  0  0
  -31.4583  -17.3096   19.2396 C   0  0  0  0  0  0  0  0  0  0  0  0
  -26.9630  -28.6358   20.2684 N   0  0  0  0  0  0  0  0  0  0  0  0
  -25.6250  -28.5760   20.1581 N   0  0  0  0  0  0  0  0  0  0  0  0
  -27.8993  -17.6206   18.9197 N   0  0  0  0  0  0  0  0  0  0  0  0
  -23.5707  -31.1690   22.0724 N   0  0  0  0  0  0  0  0  0  0  0  0
  -23.8342  -27.1055   19.6669 N   0  0  0  0  0  0  0  0  0  0  0  0
  -27.4821  -24.4720   19.2751 N   0  0  0  0  0  0  0  0  0  0  0  0
  -19.5958  -25.1450   23.7813 N   0  0  0  0  0  0  0  0  0  0  0  0
  -25.7780  -14.9034   20.1085 N   0  0  0  0  0  0  0  0  0  0  0  0
  -30.6597  -18.7638   17.3286 N   0  0  0  0  0  0  0  0  0  0  0  0
  -21.6395  -30.0366   22.8352 N   0  0  0  0  0  0  0  0  0  0  0  0
  -20.7852  -23.7000   27.0812 N   0  3  1  0  0  0  0  0  0  0  0  0
  -30.1849  -21.7214   15.3050 N   0  3  0  0  0  0  0  0  0  0  0  0
  -24.0594  -22.0127   24.8507 N   0  3  0  0  0  0  0  0  0  0  0  0
  -25.1956  -24.5229   19.1074 O   0  0  0  0  0  0  0  0  0  0  0  0
  -27.6253  -16.0612   20.9269 O   0  0  0  0  0  0  0  0  0  0  0  0
  -29.2123  -16.2985   17.5181 O   0  0  0  0  0  0  0  0  0  0  0  0
  -30.1549  -20.9242   18.0032 O   0  0  0  0  0  0  0  0  0  0  0  0
  -21.6586  -32.3249   22.6934 O   0  0  0  0  0  0  0  0  0  0  0  0
  -32.7728  -26.0387   20.0427 O   0  0  0  0  0  0  0  0  0  0  0  0
  -24.8042  -21.9154   22.1038 O   0  0  0  0  0  0  0  0  0  1  0  0
  -34.2143  -21.3453   22.5521 F   0  0  0  0  0  0  0  0  0  0  0  0
  -34.5162  -26.0550   22.1881 F   0  0  0  0  0  0  0  0  0  0  0  0
  1  2  1  0  0  0  0
  1  5  2  0  0  0  0
  2  6  2  0  0  0  0
  3 10  2  0  0  0  0
  3 18  1  0  0  0  0
  4 11  1  0  0  0  0
  4 18  2  0  0  0  0
  5 20  1  0  0  0  0
  6 22  1  0  0  0  0
  7 12  2  0  0  0  0
  7 21  1  0  0  0  0
  8  9  2  0  0  0  0
  8 24  1  0  0  0  0
  9 25  1  0  0  0  0
 10 27  1  0  0  0  0
 11 27  2  0  0  0  0
 12 28  1  0  0  0  0
 13 14  2  0  0  0  0
 13 29  1  0  0  0  0
 14 30  1  0  0  0  0
 15 23  1  0  0  0  0
 15 28  2  0  0  0  0
 16 24  2  0  0  0  0
 16 26  1  0  0  0  0
 17 30  2  0  0  0  0
 17 31  1  0  0  0  0
 18 32  1  0  0  0  0
 19 32  1  0  0  0  0
 19 33  2  0  0  0  0
 19 34  1  0  0  0  0
 20 22  2  0  0  0  0
 20 39  1  0  0  0  0
 21 23  2  0  0  0  0
 21 40  1  0  0  0  0
 22 54  1  0  0  0  0
 23 41  1  0  0  0  0
 24 66  1  0  0  0  0
 25 26  2  0  0  0  0
 25 60  1  0  0  0  0
 26 81  1  0  0  0  0
 27 93  1  0  0  0  0
 28 94  1  0  0  0  0
 29 31  2  0  0  0  0
 29 93  1  0  0  0  0
 30 95  1  0  0  0  0
 31 96  1  0  0  0  0
 32 75  2  0  0  0  0
 33 76  1  0  0  0  0
 33 79  1  0  0  0  0
 34 80  1  0  0  0  0
 34 88  2  0  0  0  0
 35 55  1  0  0  0  0
 35 82  1  0  0  0  0
 35 89  2  0  0  0  0
 36 72  1  0  0  0  0
 36 77  1  0  0  0  0
 36 90  2  0  0  0  0
 37 73  1  0  0  0  0
 37 83  1  0  0  0  0
 37 91  2  0  0  0  0
 38 78  1  0  0  0  0
 38 84  1  0  0  0  0
 38 92  2  0  0  0  0
 39 42  1  0  0  0  0
 40 55  1  0  0  0  0
 41 77  1  0  0  0  0
 42 46  1  0  0  0  0
 43 45  1  0  0  0  0
 43 47  1  0  0  0  0
 44 50  1  0  0  0  0
 44 51  1  0  0  0  0
 45 53  1  0  0  0  0
 46 54  1  0  0  0  0
 47 56  1  0  0  0  0
 48 49  1  0  0  0  0
 48 56  1  0  0  0  0
 49 57  1  0  0  0  0
 50 58  1  0  0  0  0
 51 78  1  0  0  0  0
 52 58  1  0  0  0  0
 52 78  1  0  0  0  0
 53 85  1  0  0  0  0
 54 82  1  0  0  0  0
 55 77  1  0  0  0  0
 56 59  1  0  0  0  0
 57 59  1  0  0  0  0
 57 67  1  0  0  0  0
 58 76  1  0  0  0  0
 59 85  1  0  0  0  0
 61 73  1  0  0  0  0
 62 74  1  0  0  0  0
 63 74  1  0  0  0  0
 64 74  1  0  0  0  0
 65 86  1  0  0  0  0
 66 84  1  0  0  0  0
 67 87  1  0  0  0  0
 68 69  1  0  0  0  0
 68 81  1  0  0  0  0
 69 85  1  0  0  0  0
 70 71  1  0  0  0  0
 70 87  1  0  0  0  0
 71 94  1  0  0  0  0
 72 74  1  0  0  0  0
 72 83  1  0  0  0  0
 73 86  1  0  0  0  0
 75 76  1  0  0  0  0
M  CHG  3  85   1  86   1  87   1
M  ISO  4  38 100  71 101  84 100  94 101
M  END
> <Batch ID>
0005

> <Smiles>
CNC(C)C(=O)NC(C(=O)N1Cc2cc([101O:1][101CH2:1]CNCC3CCC4CCCCN(CCNc5cc(C[100NH:0][100C:0](=O)N6CCCC(n7nc(-c8ccc(Oc9ccc(F)cc9F)cc8)c(C(N)=O)c7N)C6)ccc5C)C43)ccc2CC1C(=O)NC1CCCc2ccccc21)C(C)(C)C

> <Shape>
0.228

> <Color>
0.072

> <Negative vol penalty>
0.000

$$$$
