
  -OEChem-04042320293D

 86 95  0     1  0  0  0  0  0999 V2000
  -27.7942  -32.3486   26.7292 C   0  0  0  0  0  0  0  0  0  0  0  0
  -27.9344  -31.2045   25.9504 C   0  0  0  0  0  0  0  0  0  0  0  0
  -24.4568  -10.7279   23.1641 C   0  0  0  0  0  0  0  0  0  0  0  0
  -24.1908  -12.4149   24.8730 C   0  0  0  0  0  0  0  0  0  0  0  0
  -26.5222  -32.8276   27.0397 C   0  0  0  0  0  0  0  0  0  0  0  0
  -26.8025  -30.5379   25.4824 C   0  0  0  0  0  0  0  0  0  0  0  0
  -27.1982  -29.2239   20.6079 C   0  0  0  0  0  0  0  0  0  0  0  0
  -30.0631  -21.4903   21.2406 C   0  0  0  0  0  0  0  0  0  0  0  0
  -30.1735  -20.1438   21.5875 C   0  0  0  0  0  0  0  0  0  0  0  0
  -23.9312   -9.7684   24.0294 C   0  0  0  0  0  0  0  0  0  0  0  0
  -23.6652  -11.4554   25.7383 C   0  0  0  0  0  0  0  0  0  0  0  0
  -27.9721  -28.1027   20.3115 C   0  0  0  0  0  0  0  0  0  0  0  0
  -20.8811   -8.8123   25.1318 C   0  0  0  0  0  0  0  0  0  0  0  0
  -19.9283   -7.9311   24.6209 C   0  0  0  0  0  0  0  0  0  0  0  0
  -25.9664  -26.7755   20.1236 C   0  0  0  0  0  0  0  0  0  0  0  0
  -28.0964  -21.6870   22.6300 C   0  0  0  0  0  0  0  0  0  0  0  0
  -21.3682   -6.0654   25.1531 C   0  0  0  0  0  0  0  0  0  0  0  0
  -24.5866  -12.0512   23.5859 C   0  0  0  0  0  0  0  0  0  0  0  0
  -24.4188  -13.8502   21.7852 C   0  0  0  0  0  0  0  0  0  0  0  0
  -25.3742  -32.1722   26.5673 C   0  0  0  0  0  0  0  0  0  0  0  0
  -25.8009  -29.1267   20.6752 C   0  0  0  0  0  0  0  0  0  0  0  0
  -25.5139  -31.0079   25.7880 C   0  0  0  0  0  0  0  0  0  0  0  0
  -25.1770  -27.8975   20.4186 C   0  0  0  0  0  0  0  0  0  0  0  0
  -28.2067  -20.3404   22.9768 C   0  0  0  0  0  0  0  0  0  0  0  0
  -29.0246  -22.2620   21.7620 C   0  0  0  0  0  0  0  0  0  0  0  0
  -29.2453  -19.5689   22.4555 C   0  0  0  0  0  0  0  0  0  0  0  0
  -23.5354  -10.1321   25.3165 C   0  0  0  0  0  0  0  0  0  0  0  0
  -27.3564  -26.8777   20.0721 C   0  0  0  0  0  0  0  0  0  0  0  0
  -22.0776   -8.3201   25.6534 C   0  0  0  0  0  0  0  0  0  0  0  0
  -20.1717   -6.5577   24.6315 C   0  0  0  0  0  0  0  0  0  0  0  0
  -22.3211   -6.9467   25.6640 C   0  0  0  0  0  0  0  0  0  0  0  0
  -25.1300  -13.0427   22.6928 C   0  0  0  0  0  0  0  0  0  0  0  0
  -25.3835  -14.6174   21.1792 C   0  0  0  0  0  0  0  0  0  0  0  0
  -23.0118  -13.9023   21.5141 C   0  0  0  0  0  0  0  0  0  0  0  0
  -23.6284  -29.5745   22.9520 C   0  0  0  0  0  0  0  0  0  0  0  0
  -21.5429  -29.0859   20.5159 C   0  0  0  0  0  0  0  0  0  0  0  0
  -20.9457  -27.7315   17.4409 C   0  0  0  0  0  0  0  0  0  0  0  0
  -30.3555  -17.3095   22.3591 C   0  0  0  0  0  0  0  0  0  0  0  0
  -24.0198  -32.7005   26.9684 C   0  0  0  0  0  0  0  0  0  0  0  0
  -24.9788  -30.3514   20.9699 C   0  0  0  0  0  0  0  0  0  0  0  0
  -23.6791  -27.7448   20.4587 C   0  0  0  0  0  0  0  0  0  0  0  0
  -22.8757  -32.1498   26.1210 C   0  0  0  0  0  0  0  0  0  0  0  0
  -30.2796  -14.2264   20.5800 C   0  0  0  0  0  0  0  0  0  0  0  0
  -24.0985  -18.8443   22.1211 C   0  0  0  0  0  0  0  0  0  0  0  0
  -23.8361  -18.6166   23.5962 C   0  0  0  0  0  0  0  0  0  0  0  0
  -23.0082  -30.6384   25.9628 C   0  0  0  0  0  0  0  0  0  0  0  0
  -28.8748  -13.6844   20.8536 C   0  0  0  0  0  0  0  0  0  0  0  0
  -30.8590  -14.9414   21.7992 C   0  0  0  0  0  0  0  0  0  0  0  0
  -28.6001  -15.4507   22.6402 C   0  0  0  0  0  0  0  0  0  0  0  0
  -25.4241  -19.5748   22.1309 C   0  0  0  0  0  0  0  0  0  0  0  0
  -25.1928  -18.2268   24.1563 C   0  0  0  0  0  0  0  0  0  0  0  0
  -24.3104  -30.2713   25.2411 C   0  0  1  0  0  0  0  0  0  0  0  0
  -23.5936  -30.0234   21.5185 C   0  0  1  0  0  0  0  0  0  0  0  0
  -27.9490  -14.7787   21.4203 C   0  0  2  0  0  0  0  0  0  0  0  0
  -19.1351  -27.4643   15.7240 C   0  0  0  0  0  0  0  0  0  0  0  0
  -20.2359  -26.9290   22.2334 C   0  0  0  0  0  0  0  0  0  0  0  0
  -19.1001  -26.0744   20.1724 C   0  0  0  0  0  0  0  0  0  0  0  0
  -18.6299  -28.3850   20.9864 C   0  0  0  0  0  0  0  0  0  0  0  0
  -22.5026  -29.2055   15.4007 C   0  0  0  0  0  0  0  0  0  0  0  0
  -27.1992  -19.7512   23.9099 C   0  0  0  0  0  0  0  0  0  0  0  0
  -29.8315  -24.2746   20.5276 C   0  0  0  0  0  0  0  0  0  0  0  0
  -29.4188  -25.7260   20.3478 C   0  0  0  0  0  0  0  0  0  1  0  0
  -20.8637  -27.8786   19.9160 C   0  0  1  0  0  0  0  0  0  0  0  0
  -20.3083  -28.3117   16.1912 C   0  0  2  0  0  0  0  0  0  0  0  0
  -19.7357  -27.3189   20.8281 C   0  0  0  0  0  0  0  0  0  0  0  0
  -26.4451  -13.2751   22.6687 N   0  0  0  0  0  0  0  0  0  0  0  0
  -26.5679  -14.2373   21.7386 N   0  0  0  0  0  0  0  0  0  0  0  0
  -22.9191  -28.9699   20.7573 N   0  0  0  0  0  0  0  0  0  0  0  0
  -29.9296  -15.9668   22.2782 N   0  0  0  0  0  0  0  0  0  0  0  0
  -25.3258  -15.5733   20.2277 N   0  0  0  0  0  0  0  0  0  0  0  0
  -22.1620  -13.0454   22.2267 N   0  0  0  0  0  0  0  0  0  0  0  0
  -29.3756  -18.1999   22.7970 N   0  0  0  0  0  0  0  0  0  0  0  0
  -28.9155  -23.5992   21.4179 N   0  0  0  0  0  0  0  0  0  0  0  0
  -24.1809  -30.4989   23.8178 N   0  0  0  0  0  0  0  0  0  0  0  0
  -20.4135  -28.2813   18.5880 N   0  0  0  0  0  0  0  0  0  0  0  0
  -26.2007  -18.8748   23.2245 N   0  3  0  0  0  0  0  0  0  0  0  0
  -21.3059  -28.3832   15.0864 N   0  3  0  0  0  0  0  0  0  0  0  0
  -22.5246  -14.6740   20.6535 O   0  0  0  0  0  0  0  0  0  0  0  0
  -23.1854  -28.4716   23.2506 O   0  0  0  0  0  0  0  0  0  0  0  0
  -20.8783  -30.0973   20.7547 O   0  0  0  0  0  0  0  0  0  0  0  0
  -21.8249  -26.8736   17.4033 O   0  0  0  0  0  0  0  0  0  0  0  0
  -31.4967  -17.6489   22.0359 O   0  0  0  0  0  0  0  0  0  0  0  0
  -23.0223   -9.1962   26.1610 O   0  0  0  0  0  0  0  0  0  0  0  0
  -28.1094  -25.7816   19.7833 O   0  0  0  0  0  0  0  0  0  1  0  0
  -19.2559   -5.7115   24.1422 F   0  0  0  0  0  0  0  0  0  0  0  0
  -23.4681   -6.4678   26.1648 F   0  0  0  0  0  0  0  0  0  0  0  0
  1  2  1  0  0  0  0
  1  5  2  0  0  0  0
  2  6  2  0  0  0  0
  3 10  2  0  0  0  0
  3 18  1  0  0  0  0
  4 11  1  0  0  0  0
  4 18  2  0  0  0  0
  5 20  1  0  0  0  0
  6 22  1  0  0  0  0
  7 12  2  0  0  0  0
  7 21  1  0  0  0  0
  8  9  2  0  0  0  0
  8 25  1  0  0  0  0
  9 26  1  0  0  0  0
 10 27  1  0  0  0  0
 11 27  2  0  0  0  0
 12 28  1  0  0  0  0
 13 14  2  0  0  0  0
 13 29  1  0  0  0  0
 14 30  1  0  0  0  0
 15 23  1  0  0  0  0
 15 28  2  0  0  0  0
 16 24  1  0  0  0  0
 16 25  2  0  0  0  0
 17 30  2  0  0  0  0
 17 31  1  0  0  0  0
 18 32  1  0  0  0  0
 19 32  1  0  0  0  0
 19 33  2  0  0  0  0
 19 34  1  0  0  0  0
 20 22  2  0  0  0  0
 20 39  1  0  0  0  0
 21 23  2  0  0  0  0
 21 40  1  0  0  0  0
 22 52  1  0  0  0  0
 23 41  1  0  0  0  0
 24 26  2  0  0  0  0
 24 60  1  0  0  0  0
 25 73  1  0  0  0  0
 26 72  1  0  0  0  0
 27 83  1  0  0  0  0
 28 84  1  0  0  0  0
 29 31  2  0  0  0  0
 29 83  1  0  0  0  0
 30 85  1  0  0  0  0
 31 86  1  0  0  0  0
 32 66  2  0  0  0  0
 33 67  1  0  0  0  0
 33 70  1  0  0  0  0
 34 71  1  0  0  0  0
 34 78  2  0  0  0  0
 35 53  1  0  0  0  0
 35 74  1  0  0  0  0
 35 79  2  0  0  0  0
 36 63  1  0  0  0  0
 36 68  1  0  0  0  0
 36 80  2  0  0  0  0
 37 64  1  0  0  0  0
 37 75  1  0  0  0  0
 37 81  2  0  0  0  0
 38 69  1  0  0  0  0
 38 72  1  0  0  0  0
 38 82  2  0  0  0  0
 39 42  1  0  0  0  0
 40 53  1  0  0  0  0
 41 68  1  0  0  0  0
 42 46  1  0  0  0  0
 43 47  1  0  0  0  0
 43 48  1  0  0  0  0
 44 45  1  0  0  0  0
 44 50  1  0  0  0  0
 45 51  1  0  0  0  0
 46 52  1  0  0  0  0
 47 54  1  0  0  0  0
 48 69  1  0  0  0  0
 49 54  1  0  0  0  0
 49 69  1  0  0  0  0
 50 76  1  0  0  0  0
 51 76  1  0  0  0  0
 52 74  1  0  0  0  0
 53 68  1  0  0  0  0
 54 67  1  0  0  0  0
 55 64  1  0  0  0  0
 56 65  1  0  0  0  0
 57 65  1  0  0  0  0
 58 65  1  0  0  0  0
 59 77  1  0  0  0  0
 60 76  1  0  0  0  0
 61 62  1  0  0  0  0
 61 73  1  0  0  0  0
 62 84  1  0  0  0  0
 63 65  1  0  0  0  0
 63 75  1  0  0  0  0
 64 77  1  0  0  0  0
 66 67  1  0  0  0  0
M  CHG  2  76   1  77   1
M  ISO  4  38 100  62 101  72 100  84 101
M  END
> <Batch ID>
0006

> <Smiles>
CNC(C)C(=O)NC(C(=O)N1Cc2cc([101O:1][101CH2:1]CNc3ccc([100NH:0][100C:0](=O)N4CCCC(n5nc(-c6ccc(Oc7ccc(F)cc7F)cc6)c(C(N)=O)c5N)C4)c(CN4CCCC4)c3)ccc2CC1C(=O)NC1CCCc2ccccc21)C(C)(C)C

> <Shape>
0.255

> <Color>
0.108

> <Negative vol penalty>
0.000

$$$$

  -OEChem-04042320293D

 86 95  0     1  0  0  0  0  0999 V2000
  -19.5017  -29.6766   14.3119 C   0  0  0  0  0  0  0  0  0  0  0  0
  -20.6702  -29.0022   14.6511 C   0  0  0  0  0  0  0  0  0  0  0  0
  -23.0823   -9.9217   20.0330 C   0  0  0  0  0  0  0  0  0  0  0  0
  -23.8281  -10.0338   22.3283 C   0  0  0  0  0  0  0  0  0  0  0  0
  -19.2356  -30.9289   14.8641 C   0  0  0  0  0  0  0  0  0  0  0  0
  -21.5739  -29.5801   15.5420 C   0  0  0  0  0  0  0  0  0  0  0  0
  -25.0492  -26.6749   19.6636 C   0  0  0  0  0  0  0  0  0  0  0  0
  -31.2933  -19.1838   20.3334 C   0  0  0  0  0  0  0  0  0  0  0  0
  -29.6508  -19.4459   22.0857 C   0  0  0  0  0  0  0  0  0  0  0  0
  -31.1296  -17.7996   20.3870 C   0  0  0  0  0  0  0  0  0  0  0  0
  -29.4871  -18.0617   22.1392 C   0  0  0  0  0  0  0  0  0  0  0  0
  -22.3404   -8.7785   20.3299 C   0  0  0  0  0  0  0  0  0  0  0  0
  -23.0861   -8.8906   22.6252 C   0  0  0  0  0  0  0  0  0  0  0  0
  -26.3835  -26.2709   19.6475 C   0  0  0  0  0  0  0  0  0  0  0  0
  -19.8567   -8.1100   23.2434 C   0  0  0  0  0  0  0  0  0  0  0  0
  -19.0927   -8.1201   24.4104 C   0  0  0  0  0  0  0  0  0  0  0  0
  -27.0021  -28.2881   20.8169 C   0  0  0  0  0  0  0  0  0  0  0  0
  -20.3353   -6.2215   25.2403 C   0  0  0  0  0  0  0  0  0  0  0  0
  -23.8263  -10.5493   21.0322 C   0  0  0  0  0  0  0  0  0  0  0  0
  -24.1613  -13.0677   20.8013 C   0  0  0  0  0  0  0  0  0  0  0  0
  -20.1319  -31.5182   15.7697 C   0  0  0  0  0  0  0  0  0  0  0  0
  -24.6822  -27.8957   20.2478 C   0  0  0  0  0  0  0  0  0  0  0  0
  -21.3202  -30.8420   16.1058 C   0  0  0  0  0  0  0  0  0  0  0  0
  -25.6621  -28.7041   20.8414 C   0  0  0  0  0  0  0  0  0  0  0  0
  -30.5540  -20.0069   21.1828 C   0  0  0  0  0  0  0  0  0  0  0  0
  -30.2265  -17.2386   21.2899 C   0  0  0  0  0  0  0  0  0  0  0  0
  -22.3422   -8.2629   21.6259 C   0  0  0  0  0  0  0  0  0  0  0  0
  -27.3606  -27.0789   20.2217 C   0  0  0  0  0  0  0  0  0  0  0  0
  -20.8600   -7.1557   23.0748 C   0  0  0  0  0  0  0  0  0  0  0  0
  -19.3320   -7.1759   25.4088 C   0  0  0  0  0  0  0  0  0  0  0  0
  -21.0993   -6.2115   24.0732 C   0  0  0  0  0  0  0  0  0  0  0  0
  -24.5934  -11.7300   20.7260 C   0  0  0  0  0  0  0  0  0  0  0  0
  -25.2534  -13.8037   20.4114 C   0  0  0  0  0  0  0  0  0  0  0  0
  -22.8867  -13.5976   21.1891 C   0  0  0  0  0  0  0  0  0  0  0  0
  -23.3386  -30.5749   19.1893 C   0  0  0  0  0  0  0  0  0  0  0  0
  -23.3585  -31.3671   22.3348 C   0  0  0  0  0  0  0  0  0  0  0  0
  -24.7365  -30.9240   25.4254 C   0  0  0  0  0  0  0  0  0  0  0  0
  -30.7153  -14.8738   20.5719 C   0  0  0  0  0  0  0  0  0  0  0  0
  -19.8239  -32.8945   16.3042 C   0  0  0  0  0  0  0  0  0  0  0  0
  -23.2351  -28.3046   20.2807 C   0  0  0  0  0  0  0  0  0  0  0  0
  -25.3175  -30.0144   21.4993 C   0  0  0  0  0  0  0  0  0  0  0  0
  -20.6529  -33.2717   17.5292 C   0  0  0  0  0  0  0  0  0  0  0  0
  -29.6226  -12.3529   18.3075 C   0  0  0  0  0  0  0  0  0  0  0  0
  -22.1227  -32.9312   17.3047 C   0  0  0  0  0  0  0  0  0  0  0  0
  -28.1813  -12.0761   18.7410 C   0  0  0  0  0  0  0  0  0  0  0  0
  -31.2450  -23.5305   20.3312 C   0  0  0  0  0  0  0  0  0  0  0  0
  -30.5297  -12.6382   19.5031 C   0  0  0  0  0  0  0  0  0  0  0  0
  -31.6388  -22.0566   20.2220 C   0  0  0  0  0  0  0  0  0  0  0  0
  -28.6121  -13.4175   20.8391 C   0  0  0  0  0  0  0  0  0  0  0  0
  -29.9741  -22.3231   21.9615 C   0  0  0  0  0  0  0  0  0  0  0  0
  -22.3132  -31.4251   17.0878 C   0  0  1  0  0  0  0  0  0  0  0  0
  -23.0428  -29.8088   20.4476 C   0  0  1  0  0  0  0  0  0  0  0  0
  -27.6471  -13.1886   19.6644 C   0  0  2  0  0  0  0  0  0  0  0  0
  -30.7376  -23.6270   21.7587 C   0  0  2  0  0  0  0  0  0  0  0  0
  -24.5677  -31.7392   27.7928 C   0  0  0  0  0  0  0  0  0  0  0  0
  -24.8006  -33.9388   21.5495 C   0  0  0  0  0  0  0  0  0  0  0  0
  -25.4362  -34.2340   23.9531 C   0  0  0  0  0  0  0  0  0  0  0  0
  -23.0306  -34.2259   23.2928 C   0  0  0  0  0  0  0  0  0  0  0  0
  -24.0492  -28.2256   26.4281 C   0  0  0  0  0  0  0  0  0  0  0  0
  -29.2617  -24.8222   23.3230 C   0  0  0  0  0  0  0  0  0  0  0  0
  -30.5350  -26.0730   21.5866 C   0  0  0  0  0  0  0  0  0  0  0  0
  -29.4861  -27.1259   21.2873 C   0  0  0  0  0  0  0  0  0  1  0  0
  -24.3331  -32.0593   23.2568 C   0  0  1  0  0  0  0  0  0  0  0  0
  -24.1045  -30.6968   26.7869 C   0  0  2  0  0  0  0  0  0  0  0  0
  -24.4072  -33.5908   22.9990 C   0  0  0  0  0  0  0  0  0  0  0  0
  -25.8610  -11.6196   20.3201 N   0  0  0  0  0  0  0  0  0  0  0  0
  -26.2349  -12.8974   20.1367 N   0  0  0  0  0  0  0  0  0  0  0  0
  -30.7170  -21.3748   21.1312 N   0  0  3  0  0  0  0  0  0  0  0  0
  -23.8897  -30.3735   21.5003 N   0  0  0  0  0  0  0  0  0  0  0  0
  -29.9623  -13.7054   20.3301 N   0  0  0  0  0  0  0  0  0  0  0  0
  -25.4603  -15.1313   20.2801 N   0  0  0  0  0  0  0  0  0  0  0  0
  -21.8755  -12.7012   21.5607 N   0  0  0  0  0  0  0  0  0  0  0  0
  -30.0602  -15.8325   21.3442 N   0  0  0  0  0  0  0  0  0  0  0  0
  -22.2503  -30.7207   18.3504 N   0  0  0  0  0  0  0  0  0  0  0  0
  -23.9363  -31.7003   24.6141 N   0  0  0  0  0  0  0  0  0  0  0  0
  -24.4663  -29.3481   27.3074 N   0  3  0  0  0  0  0  0  0  0  0  0
  -29.8621  -24.7973   21.9391 N   0  3  1  0  0  0  0  0  0  0  0  0
  -22.6465  -14.8288   21.1899 O   0  0  0  0  0  0  0  0  0  0  0  0
  -24.4701  -31.0034   18.9946 O   0  0  0  0  0  0  0  0  0  0  0  0
  -22.1685  -31.6909   22.3594 O   0  0  0  0  0  0  0  0  0  0  0  0
  -25.8321  -30.4622   25.1142 O   0  0  0  0  0  0  0  0  0  0  0  0
  -31.8467  -15.0251   20.1040 O   0  0  0  0  0  0  0  0  0  0  0  0
  -21.6182   -7.1475   21.9160 O   0  0  0  0  0  0  0  0  0  0  0  0
  -28.6637  -26.6872   20.2068 O   0  0  0  0  0  0  0  0  0  1  0  0
  -18.5993   -7.1866   26.5300 F   0  0  0  0  0  0  0  0  0  0  0  0
  -22.0626   -5.2930   23.9175 F   0  0  0  0  0  0  0  0  0  0  0  0
  1  2  1  0  0  0  0
  1  5  2  0  0  0  0
  2  6  2  0  0  0  0
  3 12  2  0  0  0  0
  3 19  1  0  0  0  0
  4 13  1  0  0  0  0
  4 19  2  0  0  0  0
  5 21  1  0  0  0  0
  6 23  1  0  0  0  0
  7 14  2  0  0  0  0
  7 22  1  0  0  0  0
  8 10  2  0  0  0  0
  8 25  1  0  0  0  0
  9 11  1  0  0  0  0
  9 25  2  0  0  0  0
 10 26  1  0  0  0  0
 11 26  2  0  0  0  0
 12 27  1  0  0  0  0
 13 27  2  0  0  0  0
 14 28  1  0  0  0  0
 15 16  2  0  0  0  0
 15 29  1  0  0  0  0
 16 30  1  0  0  0  0
 17 24  1  0  0  0  0
 17 28  2  0  0  0  0
 18 30  2  0  0  0  0
 18 31  1  0  0  0  0
 19 32  1  0  0  0  0
 20 32  1  0  0  0  0
 20 33  2  0  0  0  0
 20 34  1  0  0  0  0
 21 23  2  0  0  0  0
 21 39  1  0  0  0  0
 22 24  2  0  0  0  0
 22 40  1  0  0  0  0
 23 51  1  0  0  0  0
 24 41  1  0  0  0  0
 25 68  1  0  0  0  0
 26 73  1  0  0  0  0
 27 83  1  0  0  0  0
 28 84  1  0  0  0  0
 29 31  2  0  0  0  0
 29 83  1  0  0  0  0
 30 85  1  0  0  0  0
 31 86  1  0  0  0  0
 32 66  2  0  0  0  0
 33 67  1  0  0  0  0
 33 71  1  0  0  0  0
 34 72  1  0  0  0  0
 34 78  2  0  0  0  0
 35 52  1  0  0  0  0
 35 74  1  0  0  0  0
 35 79  2  0  0  0  0
 36 63  1  0  0  0  0
 36 69  1  0  0  0  0
 36 80  2  0  0  0  0
 37 64  1  0  0  0  0
 37 75  1  0  0  0  0
 37 81  2  0  0  0  0
 38 70  1  0  0  0  0
 38 73  1  0  0  0  0
 38 82  2  0  0  0  0
 39 42  1  0  0  0  0
 40 52  1  0  0  0  0
 41 69  1  0  0  0  0
 42 44  1  0  0  0  0
 43 45  1  0  0  0  0
 43 47  1  0  0  0  0
 44 51  1  0  0  0  0
 45 53  1  0  0  0  0
 46 48  1  0  0  0  0
 46 54  1  0  0  0  0
 47 70  1  0  0  0  0
 48 68  1  0  0  0  0
 49 53  1  0  0  0  0
 49 70  1  0  0  0  0
 50 54  1  0  0  0  0
 50 68  1  0  0  0  0
 51 74  1  0  0  0  0
 52 69  1  0  0  0  0
 53 67  1  0  0  0  0
 54 77  1  0  0  0  0
 55 64  1  0  0  0  0
 56 65  1  0  0  0  0
 57 65  1  0  0  0  0
 58 65  1  0  0  0  0
 59 76  1  0  0  0  0
 60 77  1  0  0  0  0
 61 62  1  0  0  0  0
 61 77  1  0  0  0  0
 62 84  1  0  0  0  0
 63 65  1  0  0  0  0
 63 75  1  0  0  0  0
 64 76  1  0  0  0  0
 66 67  1  0  0  0  0
M  CHG  2  76   1  77   1
M  ISO  4  38 100  62 101  73 100  84 101
M  END
> <Batch ID>
0006

> <Smiles>
CNC(C)C(=O)NC(C(=O)N1Cc2cc([101O:1][101CH2:1]CN(C)C3CCN(c4ccc([100NH:0][100C:0](=O)N5CCCC(n6nc(-c7ccc(Oc8ccc(F)cc8F)cc7)c(C(N)=O)c6N)C5)cc4)C3)ccc2CC1C(=O)NC1CCCc2ccccc21)C(C)(C)C

> <Shape>
0.339

> <Color>
0.230

> <Negative vol penalty>
0.000

$$$$

  -OEChem-04042320293D

 91101  0     1  0  0  0  0  0999 V2000
  -29.6481  -34.1857   17.3429 C   0  0  0  0  0  0  0  0  0  0  0  0
  -29.9442  -32.9346   17.8744 C   0  0  0  0  0  0  0  0  0  0  0  0
  -24.9541   -8.8977   21.9640 C   0  0  0  0  0  0  0  0  0  0  0  0
  -23.3914  -10.5730   21.1970 C   0  0  0  0  0  0  0  0  0  0  0  0
  -28.5850  -34.9266   17.8576 C   0  0  0  0  0  0  0  0  0  0  0  0
  -29.1780  -32.4242   18.9218 C   0  0  0  0  0  0  0  0  0  0  0  0
  -33.4082  -19.0137   15.8453 C   0  0  0  0  0  0  0  0  0  0  0  0
  -27.8982  -27.4894   18.2132 C   0  0  0  0  0  0  0  0  0  0  0  0
  -32.8283  -19.9901   16.6526 C   0  0  0  0  0  0  0  0  0  0  0  0
  -23.9582   -7.9256   21.8697 C   0  0  0  0  0  0  0  0  0  0  0  0
  -22.3955   -9.6009   21.1027 C   0  0  0  0  0  0  0  0  0  0  0  0
  -28.8596  -26.5125   18.4684 C   0  0  0  0  0  0  0  0  0  0  0  0
  -21.2905   -6.9097   23.6795 C   0  0  0  0  0  0  0  0  0  0  0  0
  -21.1585   -6.0132   24.7399 C   0  0  0  0  0  0  0  0  0  0  0  0
  -27.8899  -26.1353   20.6446 C   0  0  0  0  0  0  0  0  0  0  0  0
  -21.5969   -4.1722   23.2380 C   0  0  0  0  0  0  0  0  0  0  0  0
  -24.6706  -10.2215   21.6277 C   0  0  0  0  0  0  0  0  0  0  0  0
  -26.4075  -11.6078   22.8804 C   0  0  0  0  0  0  0  0  0  0  0  0
  -27.7994  -34.4209   18.9053 C   0  0  0  0  0  0  0  0  0  0  0  0
  -33.4248  -17.6598   16.2334 C   0  0  0  0  0  0  0  0  0  0  0  0
  -26.9298  -27.8048   19.1773 C   0  0  0  0  0  0  0  0  0  0  0  0
  -28.1043  -33.1596   19.4518 C   0  0  0  0  0  0  0  0  0  0  0  0
  -26.9145  -27.1132   20.3972 C   0  0  0  0  0  0  0  0  0  0  0  0
  -32.8480  -17.2855   17.4629 C   0  0  0  0  0  0  0  0  0  0  0  0
  -32.2624  -18.2932   18.2609 C   0  0  0  0  0  0  0  0  0  0  0  0
  -32.2528  -19.6292   17.8622 C   0  0  0  0  0  0  0  0  0  0  0  0
  -22.6790   -8.2772   21.4390 C   0  0  0  0  0  0  0  0  0  0  0  0
  -28.8569  -25.8369   19.6851 C   0  0  0  0  0  0  0  0  0  0  0  0
  -21.5756   -6.4375   22.3983 C   0  0  0  0  0  0  0  0  0  0  0  0
  -21.3117   -4.6445   24.5192 C   0  0  0  0  0  0  0  0  0  0  0  0
  -21.7288   -5.0687   22.1776 C   0  0  0  0  0  0  0  0  0  0  0  0
  -25.6988  -11.2262   21.7254 C   0  0  0  0  0  0  0  0  0  0  0  0
  -27.2637  -12.5911   22.4486 C   0  0  0  0  0  0  0  0  0  0  0  0
  -26.3013  -11.1172   24.2234 C   0  0  0  0  0  0  0  0  0  0  0  0
  -26.0724  -30.4028   20.8390 C   0  0  0  0  0  0  0  0  0  0  0  0
  -23.6486  -28.3441   21.8088 C   0  0  0  0  0  0  0  0  0  0  0  0
  -21.1618  -30.1919   23.2375 C   0  0  0  0  0  0  0  0  0  0  0  0
  -30.9375  -14.4543   18.8460 C   0  0  0  0  0  0  0  0  0  0  0  0
  -26.6900  -35.2788   19.4602 C   0  0  0  0  0  0  0  0  0  0  0  0
  -34.0578  -16.6640   15.2992 C   0  0  0  0  0  0  0  0  0  0  0  0
  -25.8827  -28.8410   18.8702 C   0  0  0  0  0  0  0  0  0  0  0  0
  -25.8944  -27.4120   21.4624 C   0  0  0  0  0  0  0  0  0  0  0  0
  -25.6937  -34.5051   20.3198 C   0  0  0  0  0  0  0  0  0  0  0  0
  -35.3324  -16.0350   15.8605 C   0  0  0  0  0  0  0  0  0  0  0  0
  -35.1856  -15.3551   17.2242 C   0  0  0  0  0  0  0  0  0  0  0  0
  -30.0141  -19.3584   20.7989 C   0  0  0  0  0  0  0  0  0  0  0  0
  -31.1476  -18.9779   21.7345 C   0  0  0  0  0  0  0  0  0  0  0  0
  -27.4637  -15.0894   18.0543 C   0  0  0  0  0  0  0  0  0  0  0  0
  -30.1214  -18.3428   19.6672 C   0  0  0  0  0  0  0  0  0  0  0  0
  -32.2886  -18.6597   20.7801 C   0  0  0  0  0  0  0  0  0  0  0  0
  -26.4277  -33.6024   21.3063 C   0  0  0  0  0  0  0  0  0  0  0  0
  -33.7832  -14.8108   17.4752 C   0  0  0  0  0  0  0  0  0  0  0  0
  -26.7523  -14.1642   19.0433 C   0  0  0  0  0  0  0  0  0  0  0  0
  -28.7401  -14.4483   17.5178 C   0  0  0  0  0  0  0  0  0  0  0  0
  -28.9938  -13.0925   19.5601 C   0  0  0  0  0  0  0  0  0  0  0  0
  -31.6148  -17.9667   19.5821 C   0  0  0  0  0  0  0  0  0  0  0  0
  -27.2809  -32.5612   20.5717 C   0  0  1  0  0  0  0  0  0  0  0  0
  -32.7975  -15.8668   18.0081 C   0  0  2  0  0  0  0  0  0  0  0  0
  -25.2058  -29.4120   20.1145 C   0  0  1  0  0  0  0  0  0  0  0  0
  -27.7073  -13.6926   20.1559 C   0  0  2  0  0  0  0  0  0  0  0  0
  -18.6714  -30.2416   23.5421 C   0  0  0  0  0  0  0  0  0  0  0  0
  -23.3175  -29.2726   18.9220 C   0  0  0  0  0  0  0  0  0  0  0  0
  -21.0741  -30.1905   19.5489 C   0  0  0  0  0  0  0  0  0  0  0  0
  -21.5158  -27.7428   19.7393 C   0  0  0  0  0  0  0  0  0  0  0  0
  -21.4029  -30.0507   26.1838 C   0  0  0  0  0  0  0  0  0  0  0  0
  -30.7152  -22.7656   19.2815 C   0  0  0  0  0  0  0  0  0  0  0  0
  -31.2539  -21.8971   18.1512 C   0  0  0  0  0  0  0  0  0  0  0  0
  -30.2974  -24.1557   18.8165 C   0  0  0  0  0  0  0  0  0  1  0  0
  -22.5818  -29.3272   21.3962 C   0  0  1  0  0  0  0  0  0  0  0  0
  -20.0007  -29.7974   24.1323 C   0  0  2  0  0  0  0  0  0  0  0  0
  -22.1457  -29.1416   19.9154 C   0  0  0  0  0  0  0  0  0  0  0  0
  -26.0722  -11.9114   20.6414 N   0  0  0  0  0  0  0  0  0  0  0  0
  -27.0249  -12.7334   21.1134 N   0  0  0  0  0  0  0  0  0  0  0  0
  -24.8461  -28.3680   21.0825 N   0  0  0  0  0  0  0  0  0  0  0  0
  -29.6136  -14.0390   18.6267 N   0  0  0  0  0  0  0  0  0  0  0  0
  -28.1900  -13.3393   23.0847 N   0  0  0  0  0  0  0  0  0  0  0  0
  -25.3960  -11.7407   25.0929 N   0  0  0  0  0  0  0  0  0  0  0  0
  -31.6742  -20.6105   18.6515 N   0  0  0  0  0  0  0  0  0  0  0  0
  -26.4488  -31.4882   20.0711 N   0  0  0  0  0  0  0  0  0  0  0  0
  -21.4973  -29.1815   22.3612 N   0  0  0  0  0  0  0  0  0  0  0  0
  -31.4521  -15.3457   17.9125 N   0  0  0  0  0  0  0  0  0  0  0  0
  -20.1490  -30.4204   25.4780 N   0  3  0  0  0  0  0  0  0  0  0  0
  -27.0008  -10.1650   24.6449 O   0  0  0  0  0  0  0  0  0  0  0  0
  -26.3758  -30.1985   22.0085 O   0  0  0  0  0  0  0  0  0  0  0  0
  -23.4261  -27.5701   22.7440 O   0  0  0  0  0  0  0  0  0  0  0  0
  -21.7133  -31.2880   23.3063 O   0  0  0  0  0  0  0  0  0  0  0  0
  -31.6101  -14.0637   19.8063 O   0  0  0  0  0  0  0  0  0  0  0  0
  -21.7070   -7.3288   21.3467 O   0  0  0  0  0  0  0  0  0  0  0  0
  -29.7938  -24.8824   19.9366 O   0  0  0  0  0  0  0  0  0  1  0  0
  -21.1865   -3.7838   25.5379 F   0  0  0  0  0  0  0  0  0  0  0  0
  -22.0039   -4.6092   20.9492 F   0  0  0  0  0  0  0  0  0  0  0  0
  1  2  1  0  0  0  0
  1  5  2  0  0  0  0
  2  6  2  0  0  0  0
  3 10  2  0  0  0  0
  3 17  1  0  0  0  0
  4 11  1  0  0  0  0
  4 17  2  0  0  0  0
  5 19  1  0  0  0  0
  6 22  1  0  0  0  0
  7  9  2  0  0  0  0
  7 20  1  0  0  0  0
  8 12  2  0  0  0  0
  8 21  1  0  0  0  0
  9 26  1  0  0  0  0
 10 27  1  0  0  0  0
 11 27  2  0  0  0  0
 12 28  1  0  0  0  0
 13 14  2  0  0  0  0
 13 29  1  0  0  0  0
 14 30  1  0  0  0  0
 15 23  1  0  0  0  0
 15 28  2  0  0  0  0
 16 30  2  0  0  0  0
 16 31  1  0  0  0  0
 17 32  1  0  0  0  0
 18 32  1  0  0  0  0
 18 33  2  0  0  0  0
 18 34  1  0  0  0  0
 19 22  2  0  0  0  0
 19 39  1  0  0  0  0
 20 24  2  0  0  0  0
 20 40  1  0  0  0  0
 21 23  2  0  0  0  0
 21 41  1  0  0  0  0
 22 57  1  0  0  0  0
 23 42  1  0  0  0  0
 24 25  1  0  0  0  0
 24 58  1  0  0  0  0
 25 26  2  0  0  0  0
 25 56  1  0  0  0  0
 26 78  1  0  0  0  0
 27 88  1  0  0  0  0
 28 89  1  0  0  0  0
 29 31  2  0  0  0  0
 29 88  1  0  0  0  0
 30 90  1  0  0  0  0
 31 91  1  0  0  0  0
 32 72  2  0  0  0  0
 33 73  1  0  0  0  0
 33 76  1  0  0  0  0
 34 77  1  0  0  0  0
 34 83  2  0  0  0  0
 35 59  1  0  0  0  0
 35 79  1  0  0  0  0
 35 84  2  0  0  0  0
 36 69  1  0  0  0  0
 36 74  1  0  0  0  0
 36 85  2  0  0  0  0
 37 70  1  0  0  0  0
 37 80  1  0  0  0  0
 37 86  2  0  0  0  0
 38 75  1  0  0  0  0
 38 81  1  0  0  0  0
 38 87  2  0  0  0  0
 39 43  1  0  0  0  0
 40 44  1  0  0  0  0
 41 59  1  0  0  0  0
 42 74  1  0  0  0  0
 43 51  1  0  0  0  0
 44 45  1  0  0  0  0
 45 52  1  0  0  0  0
 46 47  1  0  0  0  0
 46 49  1  0  0  0  0
 47 50  1  0  0  0  0
 48 53  1  0  0  0  0
 48 54  1  0  0  0  0
 49 56  1  0  0  0  0
 50 56  1  0  0  0  0
 51 57  1  0  0  0  0
 52 58  1  0  0  0  0
 53 60  1  0  0  0  0
 54 75  1  0  0  0  0
 55 60  1  0  0  0  0
 55 75  1  0  0  0  0
 57 79  1  0  0  0  0
 58 81  1  0  0  0  0
 59 74  1  0  0  0  0
 60 73  1  0  0  0  0
 61 70  1  0  0  0  0
 62 71  1  0  0  0  0
 63 71  1  0  0  0  0
 64 71  1  0  0  0  0
 65 82  1  0  0  0  0
 66 67  1  0  0  0  0
 66 68  1  0  0  0  0
 67 78  1  0  0  0  0
 68 89  1  0  0  0  0
 69 71  1  0  0  0  0
 69 80  1  0  0  0  0
 70 82  1  0  0  0  0
 72 73  1  0  0  0  0
M  CHG  1  82   1
M  ISO  4  38 100  68 101  81 100  89 101
M  END
> <Batch ID>
0006

> <Smiles>
CNC(C)C(=O)NC(C(=O)N1Cc2cc([101O:1][101CH2:1]CCNc3ccc4c(c3C3CCCC3)C([100NH:0][100C:0](=O)N3CCCC(n5nc(-c6ccc(Oc7ccc(F)cc7F)cc6)c(C(N)=O)c5N)C3)CCCC4)ccc2CC1C(=O)NC1CCCc2ccccc21)C(C)(C)C

> <Shape>
0.260

> <Color>
0.126

> <Negative vol penalty>
0.000

$$$$

  -OEChem-04042320293D

 92101  0     1  0  0  0  0  0999 V2000
  -25.3489  -24.2018   29.1976 C   0  0  0  0  0  0  0  0  0  0  0  0
  -25.5873  -24.4030   27.8418 C   0  0  0  0  0  0  0  0  0  0  0  0
  -23.0631   -9.8263   20.0341 C   0  0  0  0  0  0  0  0  0  0  0  0
  -23.7844   -9.9625   22.3359 C   0  0  0  0  0  0  0  0  0  0  0  0
  -31.4139  -19.2681   18.8237 C   0  0  0  0  0  0  0  0  0  0  0  0
  -24.0668  -23.8756   29.6378 C   0  0  0  0  0  0  0  0  0  0  0  0
  -24.5439  -24.2771   26.9253 C   0  0  0  0  0  0  0  0  0  0  0  0
  -24.4854  -28.0258   23.5212 C   0  0  0  0  0  0  0  0  0  0  0  0
  -31.6161  -18.2716   19.7797 C   0  0  0  0  0  0  0  0  0  0  0  0
  -22.3011   -8.6987   20.3396 C   0  0  0  0  0  0  0  0  0  0  0  0
  -23.0223   -8.8348   22.6414 C   0  0  0  0  0  0  0  0  0  0  0  0
  -25.4038  -27.9503   22.4750 C   0  0  0  0  0  0  0  0  0  0  0  0
  -19.7750   -8.1109   23.2341 C   0  0  0  0  0  0  0  0  0  0  0  0
  -18.9981   -8.1499   24.3918 C   0  0  0  0  0  0  0  0  0  0  0  0
  -29.3682  -18.5959   20.6749 C   0  0  0  0  0  0  0  0  0  0  0  0
  -23.6724  -27.1035   21.0242 C   0  0  0  0  0  0  0  0  0  0  0  0
  -20.2031   -6.2464   25.2645 C   0  0  0  0  0  0  0  0  0  0  0  0
  -23.8048  -10.4582   21.0323 C   0  0  0  0  0  0  0  0  0  0  0  0
  -30.1866  -19.9019   18.8232 C   0  0  0  0  0  0  0  0  0  0  0  0
  -24.1796  -12.9676   20.7673 C   0  0  0  0  0  0  0  0  0  0  0  0
  -23.0051  -23.7552   28.7274 C   0  0  0  0  0  0  0  0  0  0  0  0
  -23.1539  -27.6299   23.3294 C   0  0  0  0  0  0  0  0  0  0  0  0
  -23.2467  -23.9477   27.3537 C   0  0  0  0  0  0  0  0  0  0  0  0
  -29.1723  -19.5820   19.7268 C   0  0  0  0  0  0  0  0  0  0  0  0
  -22.7385  -27.1775   22.0689 C   0  0  0  0  0  0  0  0  0  0  0  0
  -30.6026  -17.9382   20.6972 C   0  0  0  0  0  0  0  0  0  0  0  0
  -22.2806   -8.2030   21.6432 C   0  0  0  0  0  0  0  0  0  0  0  0
  -24.9981  -27.4863   21.2271 C   0  0  0  0  0  0  0  0  0  0  0  0
  -20.7659   -7.1396   23.0914 C   0  0  0  0  0  0  0  0  0  0  0  0
  -19.2121   -7.2176   25.4071 C   0  0  0  0  0  0  0  0  0  0  0  0
  -20.9800   -6.2074   24.1067 C   0  0  0  0  0  0  0  0  0  0  0  0
  -24.5927  -11.6227   20.7172 C   0  0  0  0  0  0  0  0  0  0  0  0
  -25.2868  -13.6816   20.3790 C   0  0  0  0  0  0  0  0  0  0  0  0
  -29.7021  -20.9729   17.9452 C   0  0  0  0  0  0  0  0  0  0  0  0
  -22.9086  -13.5219   21.1323 C   0  0  0  0  0  0  0  0  0  0  0  0
  -21.2788  -25.3869   24.5772 C   0  0  0  0  0  0  0  0  0  0  0  0
  -18.9978  -26.8541   22.7977 C   0  0  0  0  0  0  0  0  0  0  0  0
  -27.7301  -23.5850   18.4750 C   0  0  0  0  0  0  0  0  0  0  0  0
  -27.4734  -26.9362   17.5341 C   0  0  0  0  0  0  0  0  0  0  0  0
  -18.2346  -28.8078   20.1056 C   0  0  0  0  0  0  0  0  0  0  0  0
  -30.7786  -14.6485   20.6019 C   0  0  0  0  0  0  0  0  0  0  0  0
  -21.6465  -23.3545   29.2454 C   0  0  0  0  0  0  0  0  0  0  0  0
  -22.1692  -27.7427   24.4608 C   0  0  0  0  0  0  0  0  0  0  0  0
  -27.9712  -20.4305   19.4833 C   0  0  0  0  0  0  0  0  0  0  0  0
  -21.3157  -26.7594   21.8057 C   0  0  0  0  0  0  0  0  0  0  0  0
  -20.5165  -23.6081   28.2509 C   0  0  0  0  0  0  0  0  0  0  0  0
  -29.6521  -12.1378   18.3426 C   0  0  0  0  0  0  0  0  0  0  0  0
  -20.9028  -23.1041   26.8640 C   0  0  0  0  0  0  0  0  0  0  0  0
  -28.2041  -11.8868   18.7671 C   0  0  0  0  0  0  0  0  0  0  0  0
  -30.5516  -12.4201   19.5440 C   0  0  0  0  0  0  0  0  0  0  0  0
  -28.6360  -13.2544   20.8509 C   0  0  0  0  0  0  0  0  0  0  0  0
  -22.1356  -23.8445   26.3316 C   0  0  1  0  0  0  0  0  0  0  0  0
  -20.9599  -26.8276   24.2939 C   0  0  1  0  0  0  0  0  0  0  0  0
  -27.6796  -13.0204   19.6689 C   0  0  2  0  0  0  0  0  0  0  0  0
  -16.2813  -29.8042   18.8853 C   0  0  0  0  0  0  0  0  0  0  0  0
  -18.3679  -24.1266   21.5836 C   0  0  0  0  0  0  0  0  0  0  0  0
  -17.1311  -25.3046   19.7531 C   0  0  0  0  0  0  0  0  0  0  0  0
  -16.3607  -25.5202   22.1159 C   0  0  0  0  0  0  0  0  0  0  0  0
  -25.9422  -24.4857   16.9499 C   0  0  0  0  0  0  0  0  0  0  0  0
  -19.1885  -31.5665   20.5937 C   0  0  0  0  0  0  0  0  0  0  0  0
  -30.8501  -16.8685   21.7088 C   0  0  0  0  0  0  0  0  0  0  0  0
  -27.5348  -22.2509   17.7764 C   0  0  0  0  0  0  0  0  0  0  0  0
  -25.6781  -26.3931   19.2274 C   0  0  0  0  0  0  0  0  0  1  0  0
  -18.4762  -26.6989   21.3895 C   0  0  1  0  0  0  0  0  0  0  0  0
  -27.0051  -25.9655   18.6097 C   0  0  1  0  0  0  0  0  0  0  0  0
  -17.3312  -30.0196   19.9642 C   0  0  2  0  0  0  0  0  0  0  0  0
  -17.6113  -25.4185   21.2157 C   0  0  0  0  0  0  0  0  0  0  0  0
  -25.8631  -11.4878   20.3276 N   0  0  0  0  0  0  0  0  0  0  0  0
  -26.2578  -12.7570   20.1293 N   0  0  0  0  0  0  0  0  0  0  0  0
  -28.3982  -21.2623   18.3563 N   0  0  0  0  0  0  0  0  0  0  0  0
  -20.3918  -26.8821   22.9454 N   0  0  0  0  0  0  0  0  0  0  0  0
  -29.9989  -13.5061   20.3570 N   0  0  0  0  0  0  0  0  0  0  0  0
  -25.5147  -15.0038   20.2301 N   0  0  0  0  0  0  0  0  0  0  0  0
  -21.8801  -12.6460   21.5057 N   0  0  0  0  0  0  0  0  0  0  0  0
  -28.6793  -26.5730   16.9730 N   0  0  0  0  0  0  0  0  0  0  0  0
  -21.7670  -25.1584   25.8496 N   0  0  0  0  0  0  0  0  0  0  0  0
  -17.7768  -27.9398   21.0742 N   0  0  0  0  0  0  0  0  0  0  0  0
  -30.1769  -15.6328   21.3762 N   0  0  0  0  0  0  0  0  0  0  0  0
  -26.9220  -24.6491   18.0312 N   0  0  0  0  0  0  0  0  0  0  0  0
  -18.1326  -31.2240   19.6064 N   0  3  0  0  0  0  0  0  0  0  0  0
  -30.3597  -21.4707   17.0499 O   0  0  0  0  0  0  0  0  0  0  0  0
  -22.6866  -14.7563   21.1118 O   0  0  0  0  0  0  0  0  0  0  0  0
  -21.0942  -24.5447   23.7064 O   0  0  0  0  0  0  0  0  0  0  0  0
  -18.1978  -26.9542   23.7313 O   0  0  0  0  0  0  0  0  0  0  0  0
  -28.5574  -23.7075   19.3823 O   0  0  0  0  0  0  0  0  0  0  0  0
  -26.8617  -27.9546   17.2209 O   0  0  0  0  0  0  0  0  0  0  0  0
  -19.2432  -28.6455   19.4223 O   0  0  0  0  0  0  0  0  0  0  0  0
  -31.9241  -14.7836   20.1585 O   0  0  0  0  0  0  0  0  0  0  0  0
  -21.5370   -7.1028   21.9417 O   0  0  0  0  0  0  0  0  0  0  0  0
  -25.8927  -27.4110   20.2043 O   0  0  0  0  0  0  0  0  0  1  0  0
  -18.4670   -7.2561   26.5195 F   0  0  0  0  0  0  0  0  0  0  0  0
  -21.9313   -5.2727   23.9759 F   0  0  0  0  0  0  0  0  0  0  0  0
  1  2  1  0  0  0  0
  1  6  2  0  0  0  0
  2  7  2  0  0  0  0
  3 10  2  0  0  0  0
  3 18  1  0  0  0  0
  4 11  1  0  0  0  0
  4 18  2  0  0  0  0
  5  9  2  0  0  0  0
  5 19  1  0  0  0  0
  6 21  1  0  0  0  0
  7 23  1  0  0  0  0
  8 12  2  0  0  0  0
  8 22  1  0  0  0  0
  9 26  1  0  0  0  0
 10 27  1  0  0  0  0
 11 27  2  0  0  0  0
 12 28  1  0  0  0  0
 13 14  2  0  0  0  0
 13 29  1  0  0  0  0
 14 30  1  0  0  0  0
 15 24  1  0  0  0  0
 15 26  2  0  0  0  0
 16 25  1  0  0  0  0
 16 28  2  0  0  0  0
 17 30  2  0  0  0  0
 17 31  1  0  0  0  0
 18 32  1  0  0  0  0
 19 24  2  0  0  0  0
 19 34  1  0  0  0  0
 20 32  1  0  0  0  0
 20 33  2  0  0  0  0
 20 35  1  0  0  0  0
 21 23  2  0  0  0  0
 21 42  1  0  0  0  0
 22 25  2  0  0  0  0
 22 43  1  0  0  0  0
 23 52  1  0  0  0  0
 24 44  1  0  0  0  0
 25 45  1  0  0  0  0
 26 61  1  0  0  0  0
 27 89  1  0  0  0  0
 28 90  1  0  0  0  0
 29 31  2  0  0  0  0
 29 89  1  0  0  0  0
 30 91  1  0  0  0  0
 31 92  1  0  0  0  0
 32 68  2  0  0  0  0
 33 69  1  0  0  0  0
 33 73  1  0  0  0  0
 34 70  1  0  0  0  0
 34 81  2  0  0  0  0
 35 74  1  0  0  0  0
 35 82  2  0  0  0  0
 36 53  1  0  0  0  0
 36 76  1  0  0  0  0
 36 83  2  0  0  0  0
 37 64  1  0  0  0  0
 37 71  1  0  0  0  0
 37 84  2  0  0  0  0
 38 62  1  0  0  0  0
 38 79  1  0  0  0  0
 38 85  2  0  0  0  0
 39 65  1  0  0  0  0
 39 75  1  0  0  0  0
 39 86  2  0  0  0  0
 40 66  1  0  0  0  0
 40 77  1  0  0  0  0
 40 87  2  0  0  0  0
 41 72  1  0  0  0  0
 41 78  1  0  0  0  0
 41 88  2  0  0  0  0
 42 46  1  0  0  0  0
 43 53  1  0  0  0  0
 44 70  1  0  0  0  0
 45 71  1  0  0  0  0
 46 48  1  0  0  0  0
 47 49  1  0  0  0  0
 47 50  1  0  0  0  0
 48 52  1  0  0  0  0
 49 54  1  0  0  0  0
 50 72  1  0  0  0  0
 51 54  1  0  0  0  0
 51 72  1  0  0  0  0
 52 76  1  0  0  0  0
 53 71  1  0  0  0  0
 54 69  1  0  0  0  0
 55 66  1  0  0  0  0
 56 67  1  0  0  0  0
 57 67  1  0  0  0  0
 58 67  1  0  0  0  0
 59 79  1  0  0  0  0
 60 80  1  0  0  0  0
 61 78  1  0  0  0  0
 62 70  1  0  0  0  0
 63 65  1  0  0  0  0
 63 90  1  0  0  0  0
 64 67  1  0  0  0  0
 64 77  1  0  0  0  0
 65 79  1  0  0  0  0
 66 80  1  0  0  0  0
 68 69  1  0  0  0  0
M  CHG  1  80   1
M  ISO  4  41 100  63 101  78 100  90 101
M  END
> <Batch ID>
0006

> <Smiles>
CNC(C)C(=O)NC(C(=O)N1Cc2cc([101O:1][101CH2:1]C(C(N)=O)N(C)C(=O)CN3Cc4cc(C[100NH:0][100C:0](=O)N5CCCC(n6nc(-c7ccc(Oc8ccc(F)cc8F)cc7)c(C(N)=O)c6N)C5)ccc4C3=O)ccc2CC1C(=O)NC1CCCc2ccccc21)C(C)(C)C

> <Shape>
0.280

> <Color>
0.184

> <Negative vol penalty>
0.000

$$$$

  -OEChem-04042320293D

 83 91  0     1  0  0  0  0  0999 V2000
  -16.4231  -23.7124   23.3901 C   0  0  0  0  0  0  0  0  0  0  0  0
  -17.3796  -23.2855   22.4746 C   0  0  0  0  0  0  0  0  0  0  0  0
  -25.6113  -15.4271   21.6864 C   0  0  0  0  0  0  0  0  0  0  0  0
  -25.0412  -16.7563   19.7512 C   0  0  0  0  0  0  0  0  0  0  0  0
  -16.3191  -25.0660   23.7078 C   0  0  0  0  0  0  0  0  0  0  0  0
  -18.2321  -24.2121   21.8753 C   0  0  0  0  0  0  0  0  0  0  0  0
  -24.0837  -23.3440   20.2907 C   0  0  0  0  0  0  0  0  0  0  0  0
  -24.3408  -14.8520   21.6657 C   0  0  0  0  0  0  0  0  0  0  0  0
  -23.7706  -16.1812   19.7305 C   0  0  0  0  0  0  0  0  0  0  0  0
  -24.6898  -23.0335   19.0742 C   0  0  0  0  0  0  0  0  0  0  0  0
  -21.2084  -15.6983   22.6124 C   0  0  0  0  0  0  0  0  0  0  0  0
  -31.3292  -24.2610   17.4305 C   0  0  0  0  0  0  0  0  0  0  0  0
  -20.5288  -15.5861   23.8253 C   0  0  0  0  0  0  0  0  0  0  0  0
  -32.3358  -25.0975   17.9129 C   0  0  0  0  0  0  0  0  0  0  0  0
  -25.1257  -25.3764   18.7002 C   0  0  0  0  0  0  0  0  0  0  0  0
  -30.9855  -25.6048   19.8510 C   0  0  0  0  0  0  0  0  0  0  0  0
  -20.4429  -13.1868   23.5551 C   0  0  0  0  0  0  0  0  0  0  0  0
  -25.9616  -16.3793   20.7291 C   0  0  0  0  0  0  0  0  0  0  0  0
  -28.4281  -16.5104   20.0914 C   0  0  0  0  0  0  0  0  0  0  0  0
  -17.1772  -26.0085   23.1194 C   0  0  0  0  0  0  0  0  0  0  0  0
  -23.9841  -24.6763   20.7167 C   0  0  0  0  0  0  0  0  0  0  0  0
  -18.1386  -25.5797   22.1845 C   0  0  0  0  0  0  0  0  0  0  0  0
  -24.5201  -25.7010   19.9238 C   0  0  0  0  0  0  0  0  0  0  0  0
  -29.9789  -24.7684   19.3686 C   0  0  0  0  0  0  0  0  0  0  0  0
  -23.4204  -15.2290   20.6878 C   0  0  0  0  0  0  0  0  0  0  0  0
  -25.2084  -24.0499   18.2774 C   0  0  0  0  0  0  0  0  0  0  0  0
  -30.1507  -24.0965   18.1583 C   0  0  0  0  0  0  0  0  0  0  0  0
  -21.5051  -14.5548   21.8708 C   0  0  0  0  0  0  0  0  0  0  0  0
  -20.1461  -14.3303   24.2967 C   0  0  0  0  0  0  0  0  0  0  0  0
  -21.1224  -13.2990   22.3421 C   0  0  0  0  0  0  0  0  0  0  0  0
  -32.1640  -25.7694   19.1231 C   0  0  0  0  0  0  0  0  0  0  0  0
  -27.2737  -16.9742   20.7503 C   0  0  0  0  0  0  0  0  0  0  0  0
  -29.4029  -17.4181   20.4266 C   0  0  0  0  0  0  0  0  0  0  0  0
  -28.6035  -15.3618   19.2513 C   0  0  0  0  0  0  0  0  0  0  0  0
  -21.5784  -26.6507   21.3634 C   0  0  0  0  0  0  0  0  0  0  0  0
  -23.9674  -28.6185   22.3344 C   0  0  0  0  0  0  0  0  0  0  0  0
  -27.2584  -29.4988   22.1319 C   0  0  0  0  0  0  0  0  0  0  0  0
  -29.2209  -23.1600   22.1144 C   0  0  0  0  0  0  0  0  0  0  0  0
  -16.9957  -27.4668   23.4587 C   0  0  0  0  0  0  0  0  0  0  0  0
  -23.3511  -24.9923   22.0441 C   0  0  0  0  0  0  0  0  0  0  0  0
  -24.4568  -27.1455   20.3453 C   0  0  0  0  0  0  0  0  0  0  0  0
  -18.1852  -28.3372   23.0615 C   0  0  0  0  0  0  0  0  0  0  0  0
  -30.6618  -20.4450   23.9114 C   0  0  0  0  0  0  0  0  0  0  0  0
  -18.6359  -28.0095   21.6415 C   0  0  0  0  0  0  0  0  0  0  0  0
  -30.0610  -19.2057   23.2456 C   0  0  0  0  0  0  0  0  0  0  0  0
  -29.6556  -21.5915   23.9819 C   0  0  0  0  0  0  0  0  0  0  0  0
  -28.4383  -20.7153   22.0264 C   0  0  0  0  0  0  0  0  0  0  0  0
  -19.0979  -26.5514   21.5320 C   0  0  1  0  0  0  0  0  0  0  0  0
  -22.8463  -26.4289   22.1385 C   0  0  1  0  0  0  0  0  0  0  0  0
  -29.4329  -19.5508   21.8819 C   0  0  2  0  0  0  0  0  0  0  0  0
  -28.9080  -31.1716   23.0141 C   0  0  0  0  0  0  0  0  0  0  0  0
  -22.8054  -30.7409   20.4755 C   0  0  0  0  0  0  0  0  0  0  0  0
  -24.9663  -31.9909   20.6659 C   0  0  0  0  0  0  0  0  0  0  0  0
  -23.5687  -31.6032   22.6955 C   0  0  0  0  0  0  0  0  0  0  0  0
  -28.9175  -27.3835   23.3696 C   0  0  0  0  0  0  0  0  0  0  0  0
  -28.7230  -24.6056   20.1596 C   0  0  0  0  0  0  0  0  0  0  0  0
  -27.5937  -22.5650   15.9934 C   0  0  0  0  0  0  0  0  0  0  0  0
  -26.4461  -22.4814   16.9876 C   0  0  0  0  0  0  0  0  0  1  0  0
  -28.6252  -23.6051   16.4013 C   0  0  0  0  0  0  0  0  0  0  0  0
  -24.8270  -29.6657   21.6685 C   0  0  1  0  0  0  0  0  0  0  0  0
  -28.2896  -29.7955   23.2057 C   0  0  2  0  0  0  0  0  0  0  0  0
  -24.0415  -30.9732   21.3672 C   0  0  0  0  0  0  0  0  0  0  0  0
  -27.4932  -18.0897   21.4512 N   0  0  0  0  0  0  0  0  0  0  0  0
  -28.7968  -18.3345   21.2347 N   0  0  0  0  0  0  0  0  0  0  0  0
  -23.8225  -27.4042   21.6485 N   0  0  0  0  0  0  0  0  0  0  0  0
  -29.0984  -21.8697   22.6560 N   0  0  0  0  0  0  0  0  0  0  0  0
  -30.7107  -17.5137   20.1061 N   0  0  0  0  0  0  0  0  0  0  0  0
  -27.4977  -14.5352   19.0102 N   0  0  0  0  0  0  0  0  0  0  0  0
  -20.4268  -26.3995   22.0847 N   0  0  0  0  0  0  0  0  0  0  0  0
  -25.9873  -29.8515   22.5332 N   0  0  0  0  0  0  0  0  0  0  0  0
  -28.6709  -23.3366   20.8507 N   0  0  0  0  0  0  0  0  0  0  0  0
  -29.3807  -28.7809   23.1705 N   0  3  0  0  0  0  0  0  0  0  0  0
  -29.7121  -15.0679   18.7432 O   0  0  0  0  0  0  0  0  0  0  0  0
  -21.6402  -27.0236   20.1977 O   0  0  0  0  0  0  0  0  0  0  0  0
  -23.4496  -28.8660   23.4263 O   0  0  0  0  0  0  0  0  0  0  0  0
  -27.5517  -29.0070   21.0444 O   0  0  0  0  0  0  0  0  0  0  0  0
  -29.7836  -24.0845   22.7106 O   0  0  0  0  0  0  0  0  0  0  0  0
  -22.1805  -14.6678   20.6671 O   0  0  0  0  0  0  0  0  0  0  0  0
  -25.8000  -23.7497   17.0893 O   0  0  0  0  0  0  0  0  0  1  0  0
  -29.1714  -23.2711   17.6701 O   0  0  0  0  0  0  0  0  0  0  0  0
  -19.4949  -14.2226   25.4622 F   0  0  0  0  0  0  0  0  0  0  0  0
  -21.4057  -12.1968   21.6347 F   0  0  0  0  0  0  0  0  0  0  0  0
  -33.4054  -26.8014   19.7187 Cl  0  0  0  0  0  0  0  0  0  0  0  0
  1  2  1  0  0  0  0
  1  5  2  0  0  0  0
  2  6  2  0  0  0  0
  3  8  2  0  0  0  0
  3 18  1  0  0  0  0
  4  9  1  0  0  0  0
  4 18  2  0  0  0  0
  5 20  1  0  0  0  0
  6 22  1  0  0  0  0
  7 10  2  0  0  0  0
  7 21  1  0  0  0  0
  8 25  1  0  0  0  0
  9 25  2  0  0  0  0
 10 26  1  0  0  0  0
 11 13  2  0  0  0  0
 11 28  1  0  0  0  0
 12 14  2  0  0  0  0
 12 27  1  0  0  0  0
 13 29  1  0  0  0  0
 14 31  1  0  0  0  0
 15 23  1  0  0  0  0
 15 26  2  0  0  0  0
 16 24  1  0  0  0  0
 16 31  2  0  0  0  0
 17 29  2  0  0  0  0
 17 30  1  0  0  0  0
 18 32  1  0  0  0  0
 19 32  1  0  0  0  0
 19 33  2  0  0  0  0
 19 34  1  0  0  0  0
 20 22  2  0  0  0  0
 20 39  1  0  0  0  0
 21 23  2  0  0  0  0
 21 40  1  0  0  0  0
 22 48  1  0  0  0  0
 23 41  1  0  0  0  0
 24 27  2  0  0  0  0
 24 56  1  0  0  0  0
 25 78  1  0  0  0  0
 26 79  1  0  0  0  0
 27 80  1  0  0  0  0
 28 30  2  0  0  0  0
 28 78  1  0  0  0  0
 29 81  1  0  0  0  0
 30 82  1  0  0  0  0
 31 83  1  0  0  0  0
 32 63  2  0  0  0  0
 33 64  1  0  0  0  0
 33 67  1  0  0  0  0
 34 68  1  0  0  0  0
 34 73  2  0  0  0  0
 35 49  1  0  0  0  0
 35 69  1  0  0  0  0
 35 74  2  0  0  0  0
 36 60  1  0  0  0  0
 36 65  1  0  0  0  0
 36 75  2  0  0  0  0
 37 61  1  0  0  0  0
 37 70  1  0  0  0  0
 37 76  2  0  0  0  0
 38 66  1  0  0  0  0
 38 71  1  0  0  0  0
 38 77  2  0  0  0  0
 39 42  1  0  0  0  0
 40 49  1  0  0  0  0
 41 65  1  0  0  0  0
 42 44  1  0  0  0  0
 43 45  1  0  0  0  0
 43 46  1  0  0  0  0
 44 48  1  0  0  0  0
 45 50  1  0  0  0  0
 46 66  1  0  0  0  0
 47 50  1  0  0  0  0
 47 66  1  0  0  0  0
 48 69  1  0  0  0  0
 49 65  1  0  0  0  0
 50 64  1  0  0  0  0
 51 61  1  0  0  0  0
 52 62  1  0  0  0  0
 53 62  1  0  0  0  0
 54 62  1  0  0  0  0
 55 72  1  0  0  0  0
 56 71  1  0  0  0  0
 57 58  1  0  0  0  0
 57 59  1  0  0  0  0
 58 79  1  0  0  0  0
 59 80  1  0  0  0  0
 60 62  1  0  0  0  0
 60 70  1  0  0  0  0
 61 72  1  0  0  0  0
 63 64  1  0  0  0  0
M  CHG  1  72   1
M  ISO  4  38 100  58 101  71 100  79 101
M  END
> <Batch ID>
0006

> <Smiles>
CNC(C)C(=O)NC(C(=O)N1Cc2cc([101O:1][101CH2:1]CCOc3ccc(Cl)cc3C[100NH:0][100C:0](=O)N3CCCC(n4nc(-c5ccc(Oc6ccc(F)cc6F)cc5)c(C(N)=O)c4N)C3)ccc2CC1C(=O)NC1CCCc2ccccc21)C(C)(C)C

> <Shape>
0.221

> <Color>
0.060

> <Negative vol penalty>
0.000

$$$$

  -OEChem-04042320293D

 99110  0     1  0  0  0  0  0999 V2000
  -29.2963  -31.9593   20.8566 C   0  0  0  0  0  0  0  0  0  0  0  0
  -28.9043  -30.6245   20.8556 C   0  0  0  0  0  0  0  0  0  0  0  0
  -23.8994   -9.8969   22.3694 C   0  0  0  0  0  0  0  0  0  0  0  0
  -24.4697  -11.5738   24.0125 C   0  0  0  0  0  0  0  0  0  0  0  0
  -28.5570  -32.9012   21.5710 C   0  0  0  0  0  0  0  0  0  0  0  0
  -27.7733  -30.2306   21.5698 C   0  0  0  0  0  0  0  0  0  0  0  0
  -24.8028  -27.0928   18.9286 C   0  0  0  0  0  0  0  0  0  0  0  0
  -23.4453   -9.0559   23.3853 C   0  0  0  0  0  0  0  0  0  0  0  0
  -24.0155  -10.7328   25.0285 C   0  0  0  0  0  0  0  0  0  0  0  0
  -25.2029  -25.7601   18.8411 C   0  0  0  0  0  0  0  0  0  0  0  0
  -20.6871   -8.7470   25.3166 C   0  0  0  0  0  0  0  0  0  0  0  0
  -19.4693   -8.0952   25.1226 C   0  0  0  0  0  0  0  0  0  0  0  0
  -27.2959  -18.7161   21.2013 C   0  0  0  0  0  0  0  0  0  0  0  0
  -23.6369  -25.1821   20.5826 C   0  0  0  0  0  0  0  0  0  0  0  0
  -20.5808   -5.9593   25.3217 C   0  0  0  0  0  0  0  0  0  0  0  0
  -24.4117  -11.1559   22.6830 C   0  0  0  0  0  0  0  0  0  0  0  0
  -28.4089  -18.0153   21.7277 C   0  0  0  0  0  0  0  0  0  0  0  0
  -24.1315  -12.9790   20.9209 C   0  0  0  0  0  0  0  0  0  0  0  0
  -27.4109  -32.5202   22.2864 C   0  0  0  0  0  0  0  0  0  0  0  0
  -23.8230  -27.4826   19.8529 C   0  0  0  0  0  0  0  0  0  0  0  0
  -27.0188  -31.1680   22.2955 C   0  0  0  0  0  0  0  0  0  0  0  0
  -23.2244  -26.5199   20.6780 C   0  0  0  0  0  0  0  0  0  0  0  0
  -23.5033   -9.4738   24.7148 C   0  0  0  0  0  0  0  0  0  0  0  0
  -24.6220  -24.8050   19.6702 C   0  0  0  0  0  0  0  0  0  0  0  0
  -21.8518   -8.0049   25.5131 C   0  0  0  0  0  0  0  0  0  0  0  0
  -19.4161   -6.7013   25.1252 C   0  0  0  0  0  0  0  0  0  0  0  0
  -21.7986   -6.6111   25.5157 C   0  0  0  0  0  0  0  0  0  0  0  0
  -24.8816  -12.0248   21.6341 C   0  0  0  0  0  0  0  0  0  0  0  0
  -28.8206  -18.6863   22.8580 C   0  0  0  0  0  0  0  0  0  0  0  0
  -27.0613  -19.7943   22.0259 C   0  0  0  0  0  0  0  0  0  0  0  0
  -25.0294  -13.5352   20.0429 C   0  0  0  0  0  0  0  0  0  0  0  0
  -29.0345  -16.7898   21.1875 C   0  0  0  0  0  0  0  0  0  0  0  0
  -22.7469  -13.3313   21.0413 C   0  0  0  0  0  0  0  0  0  0  0  0
  -23.7524  -29.4418   22.3550 C   0  0  0  0  0  0  0  0  0  0  0  0
  -20.5831  -28.7514   22.3129 C   0  0  0  0  0  0  0  0  0  0  0  0
  -26.0018  -21.6418   20.7858 C   0  0  0  0  0  0  0  0  0  0  0  0
  -18.1008  -26.5887   21.4143 C   0  0  0  0  0  0  0  0  0  0  0  0
  -30.1634  -15.7402   19.2378 C   0  0  0  0  0  0  0  0  0  0  0  0
  -26.6710  -33.5661   23.0823 C   0  0  0  0  0  0  0  0  0  0  0  0
  -23.3834  -28.9197   19.9163 C   0  0  0  0  0  0  0  0  0  0  0  0
  -22.1536  -26.8834   21.6730 C   0  0  0  0  0  0  0  0  0  0  0  0
  -25.2711  -33.1305   23.5075 C   0  0  0  0  0  0  0  0  0  0  0  0
  -30.7303  -24.6957   29.2664 C   0  0  0  0  0  0  0  0  0  0  0  0
  -31.0549  -23.2548   29.6541 C   0  0  0  0  0  0  0  0  0  0  0  0
  -29.2920  -24.8398   28.7742 C   0  0  0  0  0  0  0  0  0  0  0  0
  -29.7161  -12.1391   18.7764 C   0  0  0  0  0  0  0  0  0  0  0  0
  -25.3035  -31.7188   24.0845 C   0  0  0  0  0  0  0  0  0  0  0  0
  -31.0811  -19.3172   24.0257 C   0  0  0  0  0  0  0  0  0  0  0  0
  -31.3669  -18.1354   23.1528 C   0  0  0  0  0  0  0  0  0  0  0  0
  -28.3804  -11.8639   19.4667 C   0  0  0  0  0  0  0  0  0  0  0  0
  -29.7414  -18.3594   17.7943 C   0  0  0  0  0  0  0  0  0  0  0  0
  -28.5755  -18.8582   18.5947 C   0  0  0  0  0  0  0  0  0  0  0  0
  -30.7526  -22.2834   28.5148 C   0  0  0  0  0  0  0  0  0  0  0  0
  -28.9872  -23.8703   27.6338 C   0  0  0  0  0  0  0  0  0  0  0  0
  -30.4699  -13.2892   19.4382 C   0  0  0  0  0  0  0  0  0  0  0  0
  -28.3444  -14.2690   20.2406 C   0  0  0  0  0  0  0  0  0  0  0  0
  -25.7836  -30.7060   23.0379 C   0  0  1  0  0  0  0  0  0  0  0  0
  -29.9918  -18.2985   23.7653 C   0  0  0  0  0  0  0  0  0  0  0  0
  -22.7444  -29.2907   21.2510 C   0  0  1  0  0  0  0  0  0  0  0  0
  -27.5376  -13.1475   19.5690 C   0  0  2  0  0  0  0  0  0  0  0  0
  -29.7205  -18.1705   19.2865 C   0  0  0  0  0  0  0  0  0  0  0  0
  -29.3102  -22.4332   28.0365 C   0  0  0  0  0  0  0  0  0  0  0  0
  -15.6143  -26.2781   21.5493 C   0  0  0  0  0  0  0  0  0  0  0  0
  -20.8434  -27.9631   25.2490 C   0  0  0  0  0  0  0  0  0  0  0  0
  -18.6369  -26.7954   25.0590 C   0  0  0  0  0  0  0  0  0  0  0  0
  -18.7774  -29.2594   24.6961 C   0  0  0  0  0  0  0  0  0  0  0  0
  -25.0899  -20.9824   23.0418 C   0  0  0  0  0  0  0  0  0  0  0  0
  -17.8251  -26.5815   18.4677 C   0  0  0  0  0  0  0  0  0  0  0  0
  -24.9330  -22.7251   20.7807 C   0  0  0  0  0  0  0  0  0  1  0  0
  -27.5738  -20.2018   25.4525 C   0  0  0  0  0  0  0  0  0  0  0  0
  -28.0997  -20.7226   24.1108 C   0  0  0  0  0  0  0  0  0  0  0  0
  -27.6841  -21.1761   26.6205 C   0  0  0  0  0  0  0  0  0  0  0  0
  -19.7110  -27.6934   22.9445 C   0  0  1  0  0  0  0  0  0  0  0  0
  -16.7702  -26.8151   20.7196 C   0  0  2  0  0  0  0  0  0  0  0  0
  -19.5137  -27.9210   24.4698 C   0  0  0  0  0  0  0  0  0  0  0  0
  -26.1577  -11.9749   21.2430 N   0  0  0  0  0  0  0  0  0  0  0  0
  -27.9943  -19.7662   23.0294 N   0  0  0  0  0  0  0  0  0  0  0  0
  -26.2164  -12.9046   20.2743 N   0  0  0  0  0  0  0  0  0  0  0  0
  -21.7624  -28.3024   21.7016 N   0  0  0  0  0  0  0  0  0  0  0  0
  -29.6264  -14.4792   19.5524 N   0  0  0  0  0  0  0  0  0  0  0  0
  -24.9115  -14.4972   19.1032 N   0  0  0  0  0  0  0  0  0  0  0  0
  -21.9675  -12.6614   21.9944 N   0  0  0  0  0  0  0  0  0  0  0  0
  -24.7190  -30.3977   22.1073 N   0  0  0  0  0  0  0  0  0  0  0  0
  -18.4700  -27.6761   22.1775 N   0  0  0  0  0  0  0  0  0  0  0  0
  -26.0451  -20.8231   21.9345 N   0  0  0  0  0  0  0  0  0  0  0  0
  -29.5613  -16.8445   19.8806 N   0  0  0  0  0  0  0  0  0  0  0  0
  -29.0982  -21.5455   26.8624 N   0  3  0  0  0  0  0  0  0  0  0  0
  -16.7547  -26.1326   19.3949 N   0  3  0  0  0  0  0  0  0  0  0  0
  -29.0384  -15.7912   21.9060 O   0  0  0  0  0  0  0  0  0  0  0  0
  -22.2126  -14.2023   20.3138 O   0  0  0  0  0  0  0  0  0  0  0  0
  -23.6591  -28.7438   23.3579 O   0  0  0  0  0  0  0  0  0  0  0  0
  -20.2276  -29.9319   22.3539 O   0  0  0  0  0  0  0  0  0  0  0  0
  -26.7702  -21.5616   19.8241 O   0  0  0  0  0  0  0  0  0  0  0  0
  -18.7462  -25.5495   21.2951 O   0  0  0  0  0  0  0  0  0  0  0  0
  -31.0587  -15.8999   18.4004 O   0  0  0  0  0  0  0  0  0  0  0  0
  -23.0600   -8.6536   25.7063 O   0  0  0  0  0  0  0  0  0  0  0  0
  -25.0111  -23.5036   19.5873 O   0  0  0  0  0  0  0  0  0  1  0  0
  -18.2463   -6.0755   24.9404 F   0  0  0  0  0  0  0  0  0  0  0  0
  -22.9140   -5.8929   25.7052 F   0  0  0  0  0  0  0  0  0  0  0  0
  1  2  1  0  0  0  0
  1  5  2  0  0  0  0
  2  6  2  0  0  0  0
  3  8  2  0  0  0  0
  3 16  1  0  0  0  0
  4  9  1  0  0  0  0
  4 16  2  0  0  0  0
  5 19  1  0  0  0  0
  6 21  1  0  0  0  0
  7 10  2  0  0  0  0
  7 20  1  0  0  0  0
  8 23  1  0  0  0  0
  9 23  2  0  0  0  0
 10 24  1  0  0  0  0
 11 12  2  0  0  0  0
 11 25  1  0  0  0  0
 12 26  1  0  0  0  0
 13 17  1  0  0  0  0
 13 30  2  0  0  0  0
 14 22  1  0  0  0  0
 14 24  2  0  0  0  0
 15 26  2  0  0  0  0
 15 27  1  0  0  0  0
 16 28  1  0  0  0  0
 17 29  2  0  0  0  0
 17 32  1  0  0  0  0
 18 28  1  0  0  0  0
 18 31  2  0  0  0  0
 18 33  1  0  0  0  0
 19 21  2  0  0  0  0
 19 39  1  0  0  0  0
 20 22  2  0  0  0  0
 20 40  1  0  0  0  0
 21 57  1  0  0  0  0
 22 41  1  0  0  0  0
 23 96  1  0  0  0  0
 24 97  1  0  0  0  0
 25 27  2  0  0  0  0
 25 96  1  0  0  0  0
 26 98  1  0  0  0  0
 27 99  1  0  0  0  0
 28 76  2  0  0  0  0
 29 58  1  0  0  0  0
 29 77  1  0  0  0  0
 30 77  1  0  0  0  0
 30 85  1  0  0  0  0
 31 78  1  0  0  0  0
 31 81  1  0  0  0  0
 32 86  1  0  0  0  0
 32 89  2  0  0  0  0
 33 82  1  0  0  0  0
 33 90  2  0  0  0  0
 34 59  1  0  0  0  0
 34 83  1  0  0  0  0
 34 91  2  0  0  0  0
 35 73  1  0  0  0  0
 35 79  1  0  0  0  0
 35 92  2  0  0  0  0
 36 69  1  0  0  0  0
 36 85  1  0  0  0  0
 36 93  2  0  0  0  0
 37 74  1  0  0  0  0
 37 84  1  0  0  0  0
 37 94  2  0  0  0  0
 38 80  1  0  0  0  0
 38 86  1  0  0  0  0
 38 95  2  0  0  0  0
 39 42  1  0  0  0  0
 40 59  1  0  0  0  0
 41 79  1  0  0  0  0
 42 47  1  0  0  0  0
 43 44  1  0  0  0  0
 43 45  1  0  0  0  0
 44 53  1  0  0  0  0
 45 54  1  0  0  0  0
 46 50  1  0  0  0  0
 46 55  1  0  0  0  0
 47 57  1  0  0  0  0
 48 49  1  0  0  0  0
 48 58  1  0  0  0  0
 49 58  1  0  0  0  0
 50 60  1  0  0  0  0
 51 52  1  0  0  0  0
 51 61  1  0  0  0  0
 52 61  1  0  0  0  0
 53 62  1  0  0  0  0
 54 62  1  0  0  0  0
 55 80  1  0  0  0  0
 56 60  1  0  0  0  0
 56 80  1  0  0  0  0
 57 83  1  0  0  0  0
 59 79  1  0  0  0  0
 60 78  1  0  0  0  0
 61 86  1  0  0  0  0
 62 87  1  0  0  0  0
 63 74  1  0  0  0  0
 64 75  1  0  0  0  0
 65 75  1  0  0  0  0
 66 75  1  0  0  0  0
 67 85  1  0  0  0  0
 68 88  1  0  0  0  0
 69 97  1  0  0  0  0
 70 71  1  0  0  0  0
 70 72  1  0  0  0  0
 71 77  1  0  0  0  0
 72 87  1  0  0  0  0
 73 75  1  0  0  0  0
 73 84  1  0  0  0  0
 74 88  1  0  0  0  0
 76 78  1  0  0  0  0
M  CHG  2  87   1  88   1
M  ISO  4  38 100  69 101  86 100  97 101
M  END
> <Batch ID>
0006

> <Smiles>
CNC(C)C(=O)NC(C(=O)N1Cc2cc([101O:1][101CH2:1]C(=O)N(C)c3cc(C(=O)[100N:0](C4CC4)[100C:0](=O)N4CCCC(n5nc(-c6ccc(Oc7ccc(F)cc7F)cc6)c(C(N)=O)c5N)C4)c(C4CC4)n3CCCNC3CCCCC3)ccc2CC1C(=O)NC1CCCc2ccccc21)C(C)(C)C

> <Shape>
0.272

> <Color>
0.099

> <Negative vol penalty>
0.000

$$$$

  -OEChem-04042320293D

 96105  0     1  0  0  0  0  0999 V2000
  -27.2530  -33.9969   27.2948 C   0  0  0  0  0  0  0  0  0  0  0  0
  -27.3426  -33.0125   26.3158 C   0  0  0  0  0  0  0  0  0  0  0  0
  -25.9514   -8.4068   20.7904 C   0  0  0  0  0  0  0  0  0  0  0  0
  -23.6158   -8.9655   20.5262 C   0  0  0  0  0  0  0  0  0  0  0  0
  -26.0915  -34.1171   28.0566 C   0  0  0  0  0  0  0  0  0  0  0  0
  -26.2710  -32.1471   26.0988 C   0  0  0  0  0  0  0  0  0  0  0  0
  -25.2561  -31.5073   21.1789 C   0  0  0  0  0  0  0  0  0  0  0  0
  -28.2664  -24.2140   21.3992 C   0  0  0  0  0  0  0  0  0  0  0  0
  -28.7594  -22.9096   21.4316 C   0  0  0  0  0  0  0  0  0  0  0  0
  -25.5974   -7.1230   21.2053 C   0  0  0  0  0  0  0  0  0  0  0  0
  -23.2618   -7.6816   20.9410 C   0  0  0  0  0  0  0  0  0  0  0  0
  -26.0872  -30.6458   20.4641 C   0  0  0  0  0  0  0  0  0  0  0  0
  -22.9903   -5.9920   23.8569 C   0  0  0  0  0  0  0  0  0  0  0  0
  -21.9548   -5.8729   24.7838 C   0  0  0  0  0  0  0  0  0  0  0  0
  -24.4317  -28.9014   20.6532 C   0  0  0  0  0  0  0  0  0  0  0  0
  -29.6451  -24.6872   19.4725 C   0  0  0  0  0  0  0  0  0  0  0  0
  -20.6940   -4.5482   23.2051 C   0  0  0  0  0  0  0  0  0  0  0  0
  -24.9605   -9.3281   20.4509 C   0  0  0  0  0  0  0  0  0  0  0  0
  -25.5770  -11.0838   18.7058 C   0  0  0  0  0  0  0  0  0  0  0  0
  -25.0014  -33.2589   27.8423 C   0  0  0  0  0  0  0  0  0  0  0  0
  -24.0091  -31.0682   21.6464 C   0  0  0  0  0  0  0  0  0  0  0  0
  -25.0943  -32.2551   26.8594 C   0  0  0  0  0  0  0  0  0  0  0  0
  -23.5856  -29.7601   21.3714 C   0  0  0  0  0  0  0  0  0  0  0  0
  -30.1381  -23.3828   19.5049 C   0  0  0  0  0  0  0  0  0  0  0  0
  -28.7092  -25.1028   20.4196 C   0  0  0  0  0  0  0  0  0  0  0  0
  -29.6953  -22.4940   20.4845 C   0  0  0  0  0  0  0  0  0  0  0  0
  -24.2526   -6.7604   21.2806 C   0  0  0  0  0  0  0  0  0  0  0  0
  -25.6764  -29.3418   20.2036 C   0  0  0  0  0  0  0  0  0  0  0  0
  -22.8776   -5.3892   22.6040 C   0  0  0  0  0  0  0  0  0  0  0  0
  -20.8067   -5.1510   24.4579 C   0  0  0  0  0  0  0  0  0  0  0  0
  -21.7295   -4.6673   22.2782 C   0  0  0  0  0  0  0  0  0  0  0  0
  -25.3255  -10.6546   20.0228 C   0  0  0  0  0  0  0  0  0  0  0  0
  -25.8808  -12.4173   18.8314 C   0  0  0  0  0  0  0  0  0  0  0  0
  -25.5391  -10.3432   17.4787 C   0  0  0  0  0  0  0  0  0  0  0  0
  -22.6824  -30.7261   24.5146 C   0  0  0  0  0  0  0  0  0  0  0  0
  -20.0374  -30.0160   22.7762 C   0  0  0  0  0  0  0  0  0  0  0  0
  -18.7181  -28.9009   19.8330 C   0  0  0  0  0  0  0  0  0  0  0  0
  -28.9400  -16.2027   21.6500 C   0  0  0  0  0  0  0  0  0  0  0  0
  -23.7848  -33.3969   28.7228 C   0  0  0  0  0  0  0  0  0  0  0  0
  -23.1129  -32.0179   22.3929 C   0  0  0  0  0  0  0  0  0  0  0  0
  -22.2475  -29.2461   21.8338 C   0  0  0  0  0  0  0  0  0  0  0  0
  -22.5524  -32.6815   28.1753 C   0  0  0  0  0  0  0  0  0  0  0  0
  -25.4227  -15.5571   22.7564 C   0  0  0  0  0  0  0  0  0  0  0  0
  -22.9139  -31.2736   27.7128 C   0  0  0  0  0  0  0  0  0  0  0  0
  -25.1476  -14.2149   22.0803 C   0  0  0  0  0  0  0  0  0  0  0  0
  -30.8091  -19.1173   21.6246 C   0  0  0  0  0  0  0  0  0  0  0  0
  -26.9054  -15.7272   23.0656 C   0  0  0  0  0  0  0  0  0  0  0  0
  -30.3404  -18.0214   22.5779 C   0  0  0  0  0  0  0  0  0  0  0  0
  -27.5223  -14.2337   21.1911 C   0  0  0  0  0  0  0  0  0  0  0  0
  -27.9681  -18.5075   22.0680 C   0  0  0  0  0  0  0  0  0  0  0  0
  -23.9438  -31.3133   26.5774 C   0  0  1  0  0  0  0  0  0  0  0  0
  -22.0830  -31.3068   23.2651 C   0  0  1  0  0  0  0  0  0  0  0  0
  -26.0390  -14.0316   20.8405 C   0  0  1  0  0  0  0  0  0  0  0  0
  -29.7551  -20.2240   21.5186 C   0  0  2  0  0  0  0  0  0  0  0  0
  -28.3925  -19.6431   21.1367 C   0  0  1  0  0  0  0  0  0  0  0  0
  -40.5882  -20.5251   16.8608 C   0  0  0  0  0  0  0  0  0  0  0  0
  -16.5248  -28.3924   18.7247 C   0  0  0  0  0  0  0  0  0  0  0  0
  -19.8253  -27.4330   24.3865 C   0  0  0  0  0  0  0  0  0  0  0  0
  -18.2525  -26.5589   22.6457 C   0  0  0  0  0  0  0  0  0  0  0  0
  -17.6447  -28.5842   23.9692 C   0  0  0  0  0  0  0  0  0  0  0  0
  -19.1846  -30.9211   17.7210 C   0  0  0  0  0  0  0  0  0  0  0  0
  -31.1385  -22.9636   18.4774 C   0  0  0  0  0  0  0  0  0  0  0  0
  -34.8889  -22.3063   18.6929 C   0  0  0  0  0  0  0  0  0  0  0  0
  -35.9656  -21.8696   17.6989 C   0  0  0  0  0  0  0  0  0  0  0  0
  -28.6202  -27.3831   19.4108 C   0  0  0  0  0  0  0  0  0  0  0  0
  -39.6836  -21.0613   17.9487 C   0  0  0  0  0  0  0  0  0  0  0  0
  -33.5273  -22.3948   18.0200 C   0  0  0  0  0  0  0  0  0  0  0  0
  -37.3206  -21.7463   18.3798 C   0  0  0  0  0  0  0  0  0  0  0  0
  -27.8928  -28.6993   19.6286 C   0  0  0  0  0  0  0  0  0  1  0  0
  -19.4436  -28.7530   22.2007 C   0  0  1  0  0  0  0  0  0  0  0  0
  -17.5992  -29.4423   18.9614 C   0  0  2  0  0  0  0  0  0  0  0  0
  -18.8176  -27.8411   23.2934 C   0  0  0  0  0  0  0  0  0  0  0  0
  -25.4583  -11.6359   20.9191 N   0  0  0  0  0  0  0  0  0  0  0  0
  -25.7966  -12.6949   20.1640 N   0  0  0  0  0  0  0  0  0  0  0  0
  -21.4098  -30.2108   22.5653 N   0  0  0  0  0  0  0  0  0  0  0  0
  -27.7377  -15.5111   21.8741 N   0  0  0  0  0  0  0  0  0  0  0  0
  -29.0336  -17.4995   22.1778 N   0  0  0  0  0  0  0  0  0  0  0  0
  -26.2093  -13.3678   17.9307 N   0  0  0  0  0  0  0  0  0  0  0  0
  -25.2086   -8.9821   17.5296 N   0  0  0  0  0  0  0  0  0  0  0  0
  -30.1722  -21.1959   20.5303 N   0  0  0  0  0  0  0  0  0  0  0  0
  -28.2097  -26.4214   20.3864 N   0  0  0  0  0  0  0  0  0  0  0  0
  -23.3032  -31.6567   25.3258 N   0  0  0  0  0  0  0  0  0  0  0  0
  -18.5055  -29.1772   21.1670 N   0  0  0  0  0  0  0  0  0  0  0  0
  -18.1349  -29.8731   17.6391 N   0  3  0  0  0  0  0  0  0  0  0  0
  -32.5240  -22.8653   19.0110 N   0  3  0  0  0  0  0  0  0  0  0  0
  -38.3206  -21.2780   17.3903 N   0  3  0  0  0  0  0  0  0  0  0  0
  -25.8070  -10.8689   16.3717 O   0  0  0  0  0  0  0  0  0  0  0  0
  -22.5874  -29.5230   24.7276 O   0  0  0  0  0  0  0  0  0  0  0  0
  -19.3090  -30.8043   23.3841 O   0  0  0  0  0  0  0  0  0  0  0  0
  -19.6821  -28.2905   19.3764 O   0  0  0  0  0  0  0  0  0  0  0  0
  -29.8704  -15.6927   21.0134 O   0  0  0  0  0  0  0  0  0  0  0  0
  -23.9069   -5.5077   21.6852 O   0  0  0  0  0  0  0  0  0  0  0  0
  -26.4916  -28.4928   19.5019 O   0  0  0  0  0  0  0  0  0  1  0  0
  -19.8130   -5.0355   25.3487 F   0  0  0  0  0  0  0  0  0  0  0  0
  -21.6160   -4.0850   21.0765 F   0  0  0  0  0  0  0  0  0  0  0  0
  -28.4619  -19.1402   19.8701 F   0  0  0  0  0  0  0  0  0  0  0  0
  1  2  1  0  0  0  0
  1  5  2  0  0  0  0
  2  6  2  0  0  0  0
  3 10  2  0  0  0  0
  3 18  1  0  0  0  0
  4 11  1  0  0  0  0
  4 18  2  0  0  0  0
  5 20  1  0  0  0  0
  6 22  1  0  0  0  0
  7 12  2  0  0  0  0
  7 21  1  0  0  0  0
  8  9  2  0  0  0  0
  8 25  1  0  0  0  0
  9 26  1  0  0  0  0
 10 27  1  0  0  0  0
 11 27  2  0  0  0  0
 12 28  1  0  0  0  0
 13 14  2  0  0  0  0
 13 29  1  0  0  0  0
 14 30  1  0  0  0  0
 15 23  1  0  0  0  0
 15 28  2  0  0  0  0
 16 24  1  0  0  0  0
 16 25  2  0  0  0  0
 17 30  2  0  0  0  0
 17 31  1  0  0  0  0
 18 32  1  0  0  0  0
 19 32  1  0  0  0  0
 19 33  2  0  0  0  0
 19 34  1  0  0  0  0
 20 22  2  0  0  0  0
 20 39  1  0  0  0  0
 21 23  2  0  0  0  0
 21 40  1  0  0  0  0
 22 51  1  0  0  0  0
 23 41  1  0  0  0  0
 24 26  2  0  0  0  0
 24 62  1  0  0  0  0
 25 81  1  0  0  0  0
 26 80  1  0  0  0  0
 27 92  1  0  0  0  0
 28 93  1  0  0  0  0
 29 31  2  0  0  0  0
 29 92  1  0  0  0  0
 30 94  1  0  0  0  0
 31 95  1  0  0  0  0
 32 73  2  0  0  0  0
 33 74  1  0  0  0  0
 33 78  1  0  0  0  0
 34 79  1  0  0  0  0
 34 87  2  0  0  0  0
 35 52  1  0  0  0  0
 35 82  1  0  0  0  0
 35 88  2  0  0  0  0
 36 70  1  0  0  0  0
 36 75  1  0  0  0  0
 36 89  2  0  0  0  0
 37 71  1  0  0  0  0
 37 83  1  0  0  0  0
 37 90  2  0  0  0  0
 38 76  1  0  0  0  0
 38 77  1  0  0  0  0
 38 91  2  0  0  0  0
 39 42  1  0  0  0  0
 40 52  1  0  0  0  0
 41 75  1  0  0  0  0
 42 44  1  0  0  0  0
 43 45  1  0  0  0  0
 43 47  1  0  0  0  0
 44 51  1  0  0  0  0
 45 53  1  0  0  0  0
 46 48  1  0  0  0  0
 46 54  1  0  0  0  0
 47 76  1  0  0  0  0
 48 77  1  0  0  0  0
 49 53  1  0  0  0  0
 49 76  1  0  0  0  0
 50 55  1  0  0  0  0
 50 77  1  0  0  0  0
 51 82  1  0  0  0  0
 52 75  1  0  0  0  0
 53 74  1  0  0  0  0
 54 55  1  0  0  0  0
 54 80  1  0  0  0  0
 55 96  1  0  0  0  0
 56 66  1  0  0  0  0
 57 71  1  0  0  0  0
 58 72  1  0  0  0  0
 59 72  1  0  0  0  0
 60 72  1  0  0  0  0
 61 84  1  0  0  0  0
 62 85  1  0  0  0  0
 63 64  1  0  0  0  0
 63 67  1  0  0  0  0
 64 68  1  0  0  0  0
 65 69  1  0  0  0  0
 65 81  1  0  0  0  0
 66 86  1  0  0  0  0
 67 85  1  0  0  0  0
 68 86  1  0  0  0  0
 69 93  1  0  0  0  0
 70 72  1  0  0  0  0
 70 83  1  0  0  0  0
 71 84  1  0  0  0  0
 73 74  1  0  0  0  0
M  CHG  3  84   1  85   1  86   1
M  ISO  4  38 100  69 101  77 100  93 101
M  END
> <Batch ID>
0006

> <Smiles>
CCNCCCCNCc1cc(NC[101CH2:1][101O:1]c2ccc3c(c2)CN(C(=O)C(NC(=O)C(C)NC)C(C)(C)C)C(C(=O)NC2CCCc4ccccc42)C3)ccc1NC1CC[100N:0]([100C:0](=O)N2CCCC(n3nc(-c4ccc(Oc5ccc(F)cc5F)cc4)c(C(N)=O)c3N)C2)CC1F

> <Shape>
0.288

> <Color>
0.050

> <Negative vol penalty>
0.000

$$$$

  -OEChem-04042320293D

 86 95  0     1  0  0  0  0  0999 V2000
  -23.1374  -28.8747   24.6159 C   0  0  0  0  0  0  0  0  0  0  0  0
  -23.9199  -27.7263   24.5746 C   0  0  0  0  0  0  0  0  0  0  0  0
  -20.3487  -22.6625   20.8176 C   0  0  0  0  0  0  0  0  0  0  0  0
  -22.6595  -22.3479   21.4488 C   0  0  0  0  0  0  0  0  0  0  0  0
  -23.3004  -29.8598   23.6441 C   0  0  0  0  0  0  0  0  0  0  0  0
  -24.8737  -27.5678   23.5686 C   0  0  0  0  0  0  0  0  0  0  0  0
  -26.6067  -12.1210   21.1205 C   0  0  0  0  0  0  0  0  0  0  0  0
  -28.5331  -22.8681   22.2843 C   0  0  0  0  0  0  0  0  0  0  0  0
  -25.3835  -12.7454   20.9059 C   0  0  0  0  0  0  0  0  0  0  0  0
  -20.2783  -23.7891   21.6369 C   0  0  0  0  0  0  0  0  0  0  0  0
  -22.5891  -23.4745   22.2681 C   0  0  0  0  0  0  0  0  0  0  0  0
  -28.5027  -21.7303   21.4792 C   0  0  0  0  0  0  0  0  0  0  0  0
  -21.2257  -27.0320   21.4999 C   0  0  0  0  0  0  0  0  0  0  0  0
  -20.6107  -28.1722   20.9828 C   0  0  0  0  0  0  0  0  0  0  0  0
  -29.7237  -22.9151   19.7691 C   0  0  0  0  0  0  0  0  0  0  0  0
  -26.5183  -14.4959   19.6915 C   0  0  0  0  0  0  0  0  0  0  0  0
  -18.9802  -28.1005   22.7643 C   0  0  0  0  0  0  0  0  0  0  0  0
  -21.5393  -21.9418   20.7235 C   0  0  0  0  0  0  0  0  0  0  0  0
  -21.9782  -20.7357   18.5189 C   0  0  0  0  0  0  0  0  0  0  0  0
  -24.2483  -29.7069   22.6189 C   0  0  0  0  0  0  0  0  0  0  0  0
  -29.1505  -24.0433   21.8326 C   0  0  0  0  0  0  0  0  0  0  0  0
  -25.0698  -28.5616   22.5926 C   0  0  0  0  0  0  0  0  0  0  0  0
  -27.7993  -12.6799   20.6219 C   0  0  0  0  0  0  0  0  0  0  0  0
  -29.7627  -24.0657   20.5714 C   0  0  0  0  0  0  0  0  0  0  0  0
  -27.7780  -13.8954   19.8935 C   0  0  0  0  0  0  0  0  0  0  0  0
  -25.3396  -13.9331   20.1906 C   0  0  0  0  0  0  0  0  0  0  0  0
  -21.3984  -24.1952   22.3622 C   0  0  0  0  0  0  0  0  0  0  0  0
  -29.0955  -21.7545   20.2202 C   0  0  0  0  0  0  0  0  0  0  0  0
  -20.7179  -26.4260   22.6491 C   0  0  0  0  0  0  0  0  0  0  0  0
  -19.4879  -28.7065   21.6150 C   0  0  0  0  0  0  0  0  0  0  0  0
  -19.5952  -26.9603   23.2813 C   0  0  0  0  0  0  0  0  0  0  0  0
  -21.6126  -20.7776   19.8777 C   0  0  0  0  0  0  0  0  0  0  0  0
  -21.8907  -19.4074   18.1806 C   0  0  0  0  0  0  0  0  0  0  0  0
  -22.3627  -21.8021   17.6410 C   0  0  0  0  0  0  0  0  0  0  0  0
  -28.1671  -27.0059   21.2327 C   0  0  0  0  0  0  0  0  0  0  0  0
  -31.3326  -27.5474   20.7753 C   0  0  0  0  0  0  0  0  0  0  0  0
  -34.4066  -26.2817   20.0040 C   0  0  0  0  0  0  0  0  0  0  0  0
  -22.8381  -14.1549   20.3884 C   0  0  0  0  0  0  0  0  0  0  0  0
  -24.3884  -30.8078   21.5973 C   0  0  0  0  0  0  0  0  0  0  0  0
  -29.1980  -25.2540   22.7240 C   0  0  0  0  0  0  0  0  0  0  0  0
  -30.4562  -25.2961   20.0481 C   0  0  0  0  0  0  0  0  0  0  0  0
  -25.1038  -30.3544   20.3289 C   0  0  0  0  0  0  0  0  0  0  0  0
  -19.5482  -15.4780   20.0666 C   0  0  0  0  0  0  0  0  0  0  0  0
  -26.3907  -29.6276   20.6896 C   0  0  0  0  0  0  0  0  0  0  0  0
  -19.7792  -16.9756   19.8520 C   0  0  0  0  0  0  0  0  0  0  0  0
  -30.1693  -12.3750   19.8828 C   0  0  0  0  0  0  0  0  0  0  0  0
  -20.5560  -14.8838   21.0489 C   0  0  0  0  0  0  0  0  0  0  0  0
  -30.2452  -13.8906   19.7698 C   0  0  0  0  0  0  0  0  0  0  0  0
  -22.1957  -16.6424   20.5124 C   0  0  0  0  0  0  0  0  0  0  0  0
  -29.1025  -11.9514   20.8956 C   0  0  1  0  0  0  0  0  0  0  0  0
  -26.0925  -28.3536   21.4902 C   0  0  1  0  0  0  0  0  0  0  0  0
  -29.4054  -26.5548   21.9544 C   0  0  1  0  0  0  0  0  0  0  0  0
  -21.2454  -17.2723   19.4810 C   0  0  2  0  0  0  0  0  0  0  0  0
  -29.5607  -12.1803   22.3394 C   0  0  0  0  0  0  0  0  0  0  0  0
  -36.7952  -26.9748   19.6704 C   0  0  0  0  0  0  0  0  0  0  0  0
  -30.6121  -28.7080   18.0470 C   0  0  0  0  0  0  0  0  0  0  0  0
  -33.0209  -28.4962   17.3984 C   0  0  0  0  0  0  0  0  0  0  0  0
  -32.3671  -29.9823   19.2922 C   0  0  0  0  0  0  0  0  0  0  0  0
  -35.3390  -24.5526   22.2176 C   0  0  0  0  0  0  0  0  0  0  0  0
  -28.9966  -16.8833   19.7255 C   0  0  0  0  0  0  0  0  0  0  0  0
  -29.0391  -18.2595   19.0598 C   0  0  0  0  0  0  0  0  0  0  0  0
  -28.9483  -15.7426   18.7122 C   0  0  0  0  0  0  0  0  0  0  0  0
  -29.0465  -19.3803   20.0918 C   0  0  0  0  0  0  0  0  0  1  0  0
  -32.2701  -27.4740   19.5943 C   0  0  1  0  0  0  0  0  0  0  0  0
  -35.7632  -26.4598   20.6615 C   0  0  2  0  0  0  0  0  0  0  0  0
  -32.0529  -28.6424   18.5918 C   0  0  0  0  0  0  0  0  0  0  0  0
  -21.3147  -19.5718   20.3690 N   0  0  0  0  0  0  0  0  0  0  0  0
  -21.4930  -18.7598   19.3132 N   0  0  0  0  0  0  0  0  0  0  0  0
  -28.9522  -14.4494   19.3821 N   0  0  3  0  0  0  0  0  0  0  0  0
  -30.4705  -26.4563   20.9544 N   0  0  0  0  0  0  0  0  0  0  0  0
  -21.9233  -15.2014   20.6310 N   0  0  0  0  0  0  0  0  0  0  0  0
  -22.1157  -18.7419   17.0279 N   0  0  0  0  0  0  0  0  0  0  0  0
  -22.4003  -23.1069   18.1513 N   0  0  0  0  0  0  0  0  0  0  0  0
  -24.0978  -14.5770   19.9648 N   0  0  0  0  0  0  0  0  0  0  0  0
  -27.3353  -27.8083   21.9901 N   0  0  0  0  0  0  0  0  0  0  0  0
  -33.6183  -27.4039   20.1472 N   0  0  0  0  0  0  0  0  0  0  0  0
  -36.2467  -25.1619   21.2116 N   0  3  0  0  0  0  0  0  0  0  0  0
  -22.6483  -21.6059   16.4354 O   0  0  0  0  0  0  0  0  0  0  0  0
  -27.9809  -26.6533   20.0739 O   0  0  0  0  0  0  0  0  0  0  0  0
  -31.3689  -28.5332   21.5159 O   0  0  0  0  0  0  0  0  0  0  0  0
  -34.0803  -25.2515   19.4185 O   0  0  0  0  0  0  0  0  0  0  0  0
  -22.5186  -12.9705   20.5188 O   0  0  0  0  0  0  0  0  0  0  0  0
  -21.3301  -25.2946   23.1616 O   0  0  0  0  0  0  0  0  0  0  0  0
  -29.0667  -20.6455   19.4321 O   0  0  0  0  0  0  0  0  0  1  0  0
  -18.8983  -29.8023   21.1193 F   0  0  0  0  0  0  0  0  0  0  0  0
  -19.1036  -26.3832   24.3863 F   0  0  0  0  0  0  0  0  0  0  0  0
  1  2  1  0  0  0  0
  1  5  2  0  0  0  0
  2  6  2  0  0  0  0
  3 10  2  0  0  0  0
  3 18  1  0  0  0  0
  4 11  1  0  0  0  0
  4 18  2  0  0  0  0
  5 20  1  0  0  0  0
  6 22  1  0  0  0  0
  7  9  2  0  0  0  0
  7 23  1  0  0  0  0
  8 12  2  0  0  0  0
  8 21  1  0  0  0  0
  9 26  1  0  0  0  0
 10 27  1  0  0  0  0
 11 27  2  0  0  0  0
 12 28  1  0  0  0  0
 13 14  2  0  0  0  0
 13 29  1  0  0  0  0
 14 30  1  0  0  0  0
 15 24  1  0  0  0  0
 15 28  2  0  0  0  0
 16 25  1  0  0  0  0
 16 26  2  0  0  0  0
 17 30  2  0  0  0  0
 17 31  1  0  0  0  0
 18 32  1  0  0  0  0
 19 32  1  0  0  0  0
 19 33  2  0  0  0  0
 19 34  1  0  0  0  0
 20 22  2  0  0  0  0
 20 39  1  0  0  0  0
 21 24  2  0  0  0  0
 21 40  1  0  0  0  0
 22 51  1  0  0  0  0
 23 25  2  0  0  0  0
 23 50  1  0  0  0  0
 24 41  1  0  0  0  0
 25 69  1  0  0  0  0
 26 74  1  0  0  0  0
 27 83  1  0  0  0  0
 28 84  1  0  0  0  0
 29 31  2  0  0  0  0
 29 83  1  0  0  0  0
 30 85  1  0  0  0  0
 31 86  1  0  0  0  0
 32 67  2  0  0  0  0
 33 68  1  0  0  0  0
 33 72  1  0  0  0  0
 34 73  1  0  0  0  0
 34 78  2  0  0  0  0
 35 52  1  0  0  0  0
 35 75  1  0  0  0  0
 35 79  2  0  0  0  0
 36 64  1  0  0  0  0
 36 70  1  0  0  0  0
 36 80  2  0  0  0  0
 37 65  1  0  0  0  0
 37 76  1  0  0  0  0
 37 81  2  0  0  0  0
 38 71  1  0  0  0  0
 38 74  1  0  0  0  0
 38 82  2  0  0  0  0
 39 42  1  0  0  0  0
 40 52  1  0  0  0  0
 41 70  1  0  0  0  0
 42 44  1  0  0  0  0
 43 45  1  0  0  0  0
 43 47  1  0  0  0  0
 44 51  1  0  0  0  0
 45 53  1  0  0  0  0
 46 48  1  0  0  0  0
 46 50  1  0  0  0  0
 47 71  1  0  0  0  0
 48 69  1  0  0  0  0
 49 53  1  0  0  0  0
 49 71  1  0  0  0  0
 50 54  1  0  0  0  0
 51 75  1  0  0  0  0
 52 70  1  0  0  0  0
 53 68  1  0  0  0  0
 55 65  1  0  0  0  0
 56 66  1  0  0  0  0
 57 66  1  0  0  0  0
 58 66  1  0  0  0  0
 59 77  1  0  0  0  0
 60 61  1  0  0  0  0
 60 62  1  0  0  0  0
 61 63  1  0  0  0  0
 62 69  1  0  0  0  0
 63 84  1  0  0  0  0
 64 66  1  0  0  0  0
 64 76  1  0  0  0  0
 65 77  1  0  0  0  0
 67 68  1  0  0  0  0
M  CHG  1  77   1
M  ISO  4  38 100  63 101  74 100  84 101
M  END
> <Batch ID>
0006

> <Smiles>
CNC(C)C(=O)NC(C(=O)N1Cc2cc([101O:1][101CH2:1]CCCN3CCC(C)c4ccc([100NH:0][100C:0](=O)N5CCCC(n6nc(-c7ccc(Oc8ccc(F)cc8F)cc7)c(C(N)=O)c6N)C5)cc43)ccc2CC1C(=O)NC1CCCc2ccccc21)C(C)(C)C

> <Shape>
0.230

> <Color>
0.065

> <Negative vol penalty>
0.000

$$$$

  -OEChem-04042320293D

 88 97  0     1  0  0  0  0  0999 V2000
  -27.6135  -35.8275   16.5433 C   0  0  0  0  0  0  0  0  0  0  0  0
  -28.1808  -34.5621   16.4319 C   0  0  0  0  0  0  0  0  0  0  0  0
  -24.0729  -13.8987   21.5988 C   0  0  0  0  0  0  0  0  0  0  0  0
  -26.4383  -13.8111   21.1146 C   0  0  0  0  0  0  0  0  0  0  0  0
  -26.9806  -36.2047   17.7270 C   0  0  0  0  0  0  0  0  0  0  0  0
  -28.1165  -33.6735   17.5047 C   0  0  0  0  0  0  0  0  0  0  0  0
  -27.6147  -26.6715   18.9316 C   0  0  0  0  0  0  0  0  0  0  0  0
  -23.8981  -12.6673   20.9674 C   0  0  0  0  0  0  0  0  0  0  0  0
  -26.2635  -12.5796   20.4833 C   0  0  0  0  0  0  0  0  0  0  0  0
  -28.2447  -25.6765   19.6778 C   0  0  0  0  0  0  0  0  0  0  0  0
  -22.8875   -9.3762   19.8001 C   0  0  0  0  0  0  0  0  0  0  0  0
  -22.0902   -8.4270   20.4396 C   0  0  0  0  0  0  0  0  0  0  0  0
  -27.0567  -26.4085   21.6456 C   0  0  0  0  0  0  0  0  0  0  0  0
  -30.7708  -18.7408   21.1379 C   0  0  0  0  0  0  0  0  0  0  0  0
  -29.6158  -20.1611   22.7032 C   0  0  0  0  0  0  0  0  0  0  0  0
  -23.5839   -8.4515   22.3384 C   0  0  0  0  0  0  0  0  0  0  0  0
  -25.3430  -14.4707   21.6723 C   0  0  0  0  0  0  0  0  0  0  0  0
  -25.8109  -15.9687   23.6835 C   0  0  0  0  0  0  0  0  0  0  0  0
  -26.9000  -35.3168   18.8113 C   0  0  0  0  0  0  0  0  0  0  0  0
  -26.7076  -27.5509   19.5402 C   0  0  0  0  0  0  0  0  0  0  0  0
  -27.4831  -34.0397   18.7044 C   0  0  0  0  0  0  0  0  0  0  0  0
  -26.4146  -27.4121   20.9044 C   0  0  0  0  0  0  0  0  0  0  0  0
  -30.0094  -19.2647   20.0820 C   0  0  0  0  0  0  0  0  0  0  0  0
  -29.0251  -20.2321   20.3451 C   0  0  0  0  0  0  0  0  0  0  0  0
  -28.8457  -20.6822   21.6622 C   0  0  0  0  0  0  0  0  0  0  0  0
  -24.9933  -12.0077   20.4098 C   0  0  0  0  0  0  0  0  0  0  0  0
  -27.9680  -25.5467   21.0357 C   0  0  0  0  0  0  0  0  0  0  0  0
  -24.0331   -9.8630   20.4297 C   0  0  0  0  0  0  0  0  0  0  0  0
  -22.4384   -7.9647   21.7087 C   0  0  0  0  0  0  0  0  0  0  0  0
  -24.3812   -9.4007   21.6988 C   0  0  0  0  0  0  0  0  0  0  0  0
  -30.5751  -19.1885   22.4423 C   0  0  0  0  0  0  0  0  0  0  0  0
  -25.5241  -15.7430   22.3238 C   0  0  0  0  0  0  0  0  0  0  0  0
  -25.8855  -17.3355   23.7964 C   0  0  0  0  0  0  0  0  0  0  0  0
  -29.9224  -19.7775   17.6491 C   0  0  0  0  0  0  0  0  0  0  0  0
  -25.9937  -15.0270   24.7490 C   0  0  0  0  0  0  0  0  0  0  0  0
  -26.5942  -30.6944   19.9974 C   0  0  0  0  0  0  0  0  0  0  0  0
  -23.6348  -30.0279   21.1463 C   0  0  0  0  0  0  0  0  0  0  0  0
  -21.5108  -27.7428   22.5297 C   0  0  0  0  0  0  0  0  0  0  0  0
  -27.0467  -21.4579   19.4271 C   0  0  0  0  0  0  0  0  0  0  0  0
  -26.2472  -35.7865   20.0872 C   0  0  0  0  0  0  0  0  0  0  0  0
  -26.0162  -28.6018   18.7156 C   0  0  0  0  0  0  0  0  0  0  0  0
  -25.4333  -28.3179   21.6008 C   0  0  0  0  0  0  0  0  0  0  0  0
  -28.9189  -20.8633   17.9622 C   0  0  0  0  0  0  0  0  0  0  0  0
  -25.8942  -34.6511   21.0446 C   0  0  0  0  0  0  0  0  0  0  0  0
  -24.2440  -21.3790   21.8433 C   0  0  0  0  0  0  0  0  0  0  0  0
  -27.0674  -33.6862   21.1839 C   0  0  0  0  0  0  0  0  0  0  0  0
  -24.2262  -19.9188   22.2923 C   0  0  0  0  0  0  0  0  0  0  0  0
  -24.7841  -21.5296   20.4242 C   0  0  0  0  0  0  0  0  0  0  0  0
  -26.1144  -19.4559   20.6811 C   0  0  0  0  0  0  0  0  0  0  0  0
  -30.1912  -18.7239   18.6914 C   0  0  2  0  0  0  0  0  0  0  0  0
  -27.4122  -33.0388   19.8372 C   0  0  1  0  0  0  0  0  0  0  0  0
  -25.4979  -29.7699   19.5490 C   0  0  1  0  0  0  0  0  0  0  0  0
  -25.6158  -19.2826   22.1230 C   0  0  2  0  0  0  0  0  0  0  0  0
  -19.1671  -27.5023   23.3936 C   0  0  0  0  0  0  0  0  0  0  0  0
  -24.4196  -31.5268   23.6855 C   0  0  0  0  0  0  0  0  0  0  0  0
  -22.4681  -30.4598   24.8351 C   0  0  0  0  0  0  0  0  0  0  0  0
  -22.0916  -31.9730   22.8880 C   0  0  0  0  0  0  0  0  0  0  0  0
  -20.8601  -25.6676   20.5224 C   0  0  0  0  0  0  0  0  0  0  0  0
  -29.4514  -17.0539   16.9982 C   0  0  0  0  0  0  0  0  0  0  0  0
  -29.5468  -16.4263   19.4060 C   0  0  0  0  0  0  0  0  0  0  0  0
  -28.3043  -22.6171   23.1417 C   0  0  0  0  0  0  0  0  0  0  0  0
  -27.8629  -24.0470   22.8784 C   0  0  0  0  0  0  0  0  0  1  0  0
  -23.0683  -29.6735   22.5000 C   0  0  1  0  0  0  0  0  0  0  0  0
  -20.0825  -27.3590   22.1877 C   0  0  2  0  0  0  0  0  0  0  0  0
  -23.0319  -30.8923   23.4648 C   0  0  0  0  0  0  0  0  0  0  0  0
  -25.4232  -16.8757   21.6232 N   0  0  0  0  0  0  0  0  0  0  0  0
  -25.6477  -17.8263   22.5463 N   0  0  0  0  0  0  0  0  0  0  0  0
  -28.2515  -20.7496   19.2564 N   0  0  0  0  0  0  0  0  0  0  0  0
  -24.7878  -29.3339   20.7531 N   0  0  0  0  0  0  0  0  0  0  0  0
  -26.0791  -20.8668   20.2640 N   0  0  0  0  0  0  0  0  0  0  0  0
  -26.1305  -18.1533   24.8421 N   0  0  0  0  0  0  0  0  0  0  0  0
  -25.8830  -13.6602   24.4592 N   0  0  0  0  0  0  0  0  0  0  0  0
  -28.0454  -21.8004   22.0004 N   0  0  0  0  0  0  0  0  0  0  0  0
  -26.4681  -31.9871   19.5256 N   0  0  0  0  0  0  0  0  0  0  0  0
  -21.7639  -29.0693   22.2512 N   0  0  0  0  0  0  0  0  0  0  0  0
  -20.0240  -25.9457   21.7185 N   0  3  0  0  0  0  0  0  0  0  0  0
  -29.3244  -17.5412   18.4178 N   0  3  0  0  0  0  0  0  0  0  0  0
  -30.4833  -19.7434   16.5519 O   0  0  0  0  0  0  0  0  0  0  0  0
  -26.2314  -15.3875   25.9268 O   0  0  0  0  0  0  0  0  0  0  0  0
  -27.4874  -30.2671   20.7194 O   0  0  0  0  0  0  0  0  0  0  0  0
  -23.0708  -30.8838   20.4599 O   0  0  0  0  0  0  0  0  0  0  0  0
  -22.3200  -26.9464   23.0005 O   0  0  0  0  0  0  0  0  0  0  0  0
  -26.8325  -22.5180   18.8260 O   0  0  0  0  0  0  0  0  0  0  0  0
  -24.8232  -10.8059   19.7939 O   0  0  0  0  0  0  0  0  0  0  0  0
  -28.5863  -24.5700   21.7716 O   0  0  0  0  0  0  0  0  0  1  0  0
  -21.6718   -7.0543   22.3233 F   0  0  0  0  0  0  0  0  0  0  0  0
  -25.4800   -9.8655   22.3092 F   0  0  0  0  0  0  0  0  0  0  0  0
  -31.5235  -18.5454   23.7257 Cl  0  0  0  0  0  0  0  0  0  0  0  0
  1  2  1  0  0  0  0
  1  5  2  0  0  0  0
  2  6  2  0  0  0  0
  3  8  2  0  0  0  0
  3 17  1  0  0  0  0
  4  9  1  0  0  0  0
  4 17  2  0  0  0  0
  5 19  1  0  0  0  0
  6 21  1  0  0  0  0
  7 10  2  0  0  0  0
  7 20  1  0  0  0  0
  8 26  1  0  0  0  0
  9 26  2  0  0  0  0
 10 27  1  0  0  0  0
 11 12  2  0  0  0  0
 11 28  1  0  0  0  0
 12 29  1  0  0  0  0
 13 22  1  0  0  0  0
 13 27  2  0  0  0  0
 14 23  2  0  0  0  0
 14 31  1  0  0  0  0
 15 25  1  0  0  0  0
 15 31  2  0  0  0  0
 16 29  2  0  0  0  0
 16 30  1  0  0  0  0
 17 32  1  0  0  0  0
 18 32  1  0  0  0  0
 18 33  2  0  0  0  0
 18 35  1  0  0  0  0
 19 21  2  0  0  0  0
 19 40  1  0  0  0  0
 20 22  2  0  0  0  0
 20 41  1  0  0  0  0
 21 51  1  0  0  0  0
 22 42  1  0  0  0  0
 23 24  1  0  0  0  0
 23 50  1  0  0  0  0
 24 25  2  0  0  0  0
 24 68  1  0  0  0  0
 25 73  1  0  0  0  0
 26 84  1  0  0  0  0
 27 85  1  0  0  0  0
 28 30  2  0  0  0  0
 28 84  1  0  0  0  0
 29 86  1  0  0  0  0
 30 87  1  0  0  0  0
 31 88  1  0  0  0  0
 32 66  2  0  0  0  0
 33 67  1  0  0  0  0
 33 71  1  0  0  0  0
 34 43  1  0  0  0  0
 34 50  1  0  0  0  0
 34 78  2  0  0  0  0
 35 72  1  0  0  0  0
 35 79  2  0  0  0  0
 36 52  1  0  0  0  0
 36 74  1  0  0  0  0
 36 80  2  0  0  0  0
 37 63  1  0  0  0  0
 37 69  1  0  0  0  0
 37 81  2  0  0  0  0
 38 64  1  0  0  0  0
 38 75  1  0  0  0  0
 38 82  2  0  0  0  0
 39 68  1  0  0  0  0
 39 70  1  0  0  0  0
 39 83  2  0  0  0  0
 40 44  1  0  0  0  0
 41 52  1  0  0  0  0
 42 69  1  0  0  0  0
 43 68  1  0  0  0  0
 44 46  1  0  0  0  0
 45 47  1  0  0  0  0
 45 48  1  0  0  0  0
 46 51  1  0  0  0  0
 47 53  1  0  0  0  0
 48 70  1  0  0  0  0
 49 53  1  0  0  0  0
 49 70  1  0  0  0  0
 50 77  1  0  0  0  0
 51 74  1  0  0  0  0
 52 69  1  0  0  0  0
 53 67  1  0  0  0  0
 54 64  1  0  0  0  0
 55 65  1  0  0  0  0
 56 65  1  0  0  0  0
 57 65  1  0  0  0  0
 58 76  1  0  0  0  0
 59 77  1  0  0  0  0
 60 77  1  0  0  0  0
 61 62  1  0  0  0  0
 61 73  1  0  0  0  0
 62 85  1  0  0  0  0
 63 65  1  0  0  0  0
 63 75  1  0  0  0  0
 64 76  1  0  0  0  0
 66 67  1  0  0  0  0
M  CHG  2  76   1  77   1
M  ISO  4  39 100  62 101  68 100  85 101
M  END
> <Batch ID>
0006

> <Smiles>
CNC(C)C(=O)NC(C(=O)N1Cc2cc([101O:1][101CH2:1]CNc3cc(Cl)cc4c3[100N:0]([100C:0](=O)N3CCCC(n5nc(-c6ccc(Oc7ccc(F)cc7F)cc6)c(C(N)=O)c5N)C3)CC(=O)C4N(C)C)ccc2CC1C(=O)NC1CCCc2ccccc21)C(C)(C)C

> <Shape>
0.244

> <Color>
0.060

> <Negative vol penalty>
0.000

$$$$

  -OEChem-04042320293D

 83 91  0     1  0  0  0  0  0999 V2000
  -37.6896  -24.8749   15.8839 C   0  0  0  0  0  0  0  0  0  0  0  0
  -37.3409  -24.2843   17.0943 C   0  0  0  0  0  0  0  0  0  0  0  0
  -23.0111   -9.8739   19.9827 C   0  0  0  0  0  0  0  0  0  0  0  0
  -23.7285   -9.9416   22.2887 C   0  0  0  0  0  0  0  0  0  0  0  0
  -37.2778  -26.1764   15.6005 C   0  0  0  0  0  0  0  0  0  0  0  0
  -36.5811  -24.9953   18.0225 C   0  0  0  0  0  0  0  0  0  0  0  0
  -32.8470  -22.2147   20.0148 C   0  0  0  0  0  0  0  0  0  0  0  0
  -32.6103  -17.4920   23.4430 C   0  0  0  0  0  0  0  0  0  0  0  0
  -32.0266  -16.5888   22.5547 C   0  0  0  0  0  0  0  0  0  0  0  0
  -22.2494   -8.7371   20.2530 C   0  0  0  0  0  0  0  0  0  0  0  0
  -22.9668   -8.8048   22.5591 C   0  0  0  0  0  0  0  0  0  0  0  0
  -33.1941  -21.3015   21.0094 C   0  0  0  0  0  0  0  0  0  0  0  0
  -23.2293   -5.4645   22.1070 C   0  0  0  0  0  0  0  0  0  0  0  0
  -23.8194   -4.4546   22.8668 C   0  0  0  0  0  0  0  0  0  0  0  0
  -32.4355  -22.8548   22.6919 C   0  0  0  0  0  0  0  0  0  0  0  0
  -22.0890   -4.6984   24.5351 C   0  0  0  0  0  0  0  0  0  0  0  0
  -23.7507  -10.4761   21.0005 C   0  0  0  0  0  0  0  0  0  0  0  0
  -24.1240  -12.9926   20.8114 C   0  0  0  0  0  0  0  0  0  0  0  0
  -36.5044  -26.9003   16.5216 C   0  0  0  0  0  0  0  0  0  0  0  0
  -32.3006  -23.4613   20.3523 C   0  0  0  0  0  0  0  0  0  0  0  0
  -36.1598  -26.3083   17.7517 C   0  0  0  0  0  0  0  0  0  0  0  0
  -32.0799  -23.7810   21.6996 C   0  0  0  0  0  0  0  0  0  0  0  0
  -31.8110  -18.3901   24.1502 C   0  0  0  0  0  0  0  0  0  0  0  0
  -30.6435  -16.5838   22.3735 C   0  0  0  0  0  0  0  0  0  0  0  0
  -22.2272   -8.2026   21.5412 C   0  0  0  0  0  0  0  0  0  0  0  0
  -32.9911  -21.6226   22.3483 C   0  0  0  0  0  0  0  0  0  0  0  0
  -22.0690   -6.0915   22.5613 C   0  0  0  0  0  0  0  0  0  0  0  0
  -30.4280  -18.3852   23.9690 C   0  0  0  0  0  0  0  0  0  0  0  0
  -23.2493   -4.0715   24.0808 C   0  0  0  0  0  0  0  0  0  0  0  0
  -21.4988   -5.7084   23.7753 C   0  0  0  0  0  0  0  0  0  0  0  0
  -29.8442  -17.4820   23.0806 C   0  0  0  0  0  0  0  0  0  0  0  0
  -24.5382  -11.6501   20.7218 C   0  0  0  0  0  0  0  0  0  0  0  0
  -25.2313  -13.7186   20.4465 C   0  0  0  0  0  0  0  0  0  0  0  0
  -22.8521  -13.5348   21.1908 C   0  0  0  0  0  0  0  0  0  0  0  0
  -33.1911  -26.4853   19.9445 C   0  0  0  0  0  0  0  0  0  0  0  0
  -30.2624  -27.1079   21.1925 C   0  0  0  0  0  0  0  0  0  0  0  0
  -27.6470  -26.0504   23.1129 C   0  0  0  0  0  0  0  0  0  0  0  0
  -30.7052  -14.7085   20.6925 C   0  0  0  0  0  0  0  0  0  0  0  0
  -36.1228  -28.3214   16.1907 C   0  0  0  0  0  0  0  0  0  0  0  0
  -31.9066  -24.4246   19.2664 C   0  0  0  0  0  0  0  0  0  0  0  0
  -31.4776  -25.0979   22.1137 C   0  0  0  0  0  0  0  0  0  0  0  0
  -35.0033  -28.8721   17.0703 C   0  0  0  0  0  0  0  0  0  0  0  0
  -29.6067  -12.2368   18.3770 C   0  0  0  0  0  0  0  0  0  0  0  0
  -35.2713  -28.5530   18.5376 C   0  0  0  0  0  0  0  0  0  0  0  0
  -28.1560  -11.9743   18.7880 C   0  0  0  0  0  0  0  0  0  0  0  0
  -30.5020  -12.4916   19.5883 C   0  0  0  0  0  0  0  0  0  0  0  0
  -28.5785  -13.2785   20.9112 C   0  0  0  0  0  0  0  0  0  0  0  0
  -35.3157  -27.0385   18.7737 C   0  0  1  0  0  0  0  0  0  0  0  0
  -31.8343  -25.8705   19.7477 C   0  0  1  0  0  0  0  0  0  0  0  0
  -27.6256  -13.0805   19.7210 C   0  0  2  0  0  0  0  0  0  0  0  0
  -28.9662  -20.0305   26.8169 C   0  0  0  0  0  0  0  0  0  0  0  0
  -25.4124  -26.7938   23.9797 C   0  0  0  0  0  0  0  0  0  0  0  0
  -31.6530  -28.8877   23.2439 C   0  0  0  0  0  0  0  0  0  0  0  0
  -29.5580  -28.8271   24.6134 C   0  0  0  0  0  0  0  0  0  0  0  0
  -29.5224  -29.8219   22.3261 C   0  0  0  0  0  0  0  0  0  0  0  0
  -26.2457  -23.8402   21.7307 C   0  0  0  0  0  0  0  0  0  0  0  0
  -32.4598  -19.3603   25.1073 C   0  0  0  0  0  0  0  0  0  0  0  0
  -29.1365  -18.8253   25.9168 C   0  0  0  0  0  0  0  0  0  0  0  0
  -32.5651  -20.7659   24.5256 C   0  0  0  0  0  0  0  0  0  1  0  0
  -29.7152  -27.3142   22.5843 C   0  0  1  0  0  0  0  0  0  0  0  0
  -26.1488  -26.0615   22.8687 C   0  0  2  0  0  0  0  0  0  0  0  0
  -30.1253  -28.6886   23.1845 C   0  0  0  0  0  0  0  0  0  0  0  0
  -25.8094  -11.5277   20.3304 N   0  0  0  0  0  0  0  0  0  0  0  0
  -26.2035  -12.8026   20.1708 N   0  0  0  0  0  0  0  0  0  0  0  0
  -31.1148  -26.0088   21.0155 N   0  0  0  0  0  0  0  0  0  0  0  0
  -29.9390  -13.5545   20.4238 N   0  0  0  0  0  0  0  0  0  0  0  0
  -25.4585  -15.0449   20.3376 N   0  0  0  0  0  0  0  0  0  0  0  0
  -21.8236  -12.6475   21.5360 N   0  0  0  0  0  0  0  0  0  0  0  0
  -30.0536  -15.6649   21.4705 N   0  0  0  0  0  0  0  0  0  0  0  0
  -33.9758  -26.4927   18.8071 N   0  0  0  0  0  0  0  0  0  0  0  0
  -28.2738  -27.1092   22.4907 N   0  0  0  0  0  0  0  0  0  0  0  0
  -25.6252  -24.6681   22.7968 N   0  3  0  0  0  0  0  0  0  0  0  0
  -22.6292  -14.7691   21.2068 O   0  0  0  0  0  0  0  0  0  0  0  0
  -33.5024  -26.9221   21.0463 O   0  0  0  0  0  0  0  0  0  0  0  0
  -29.9395  -27.8888   20.2938 O   0  0  0  0  0  0  0  0  0  0  0  0
  -28.2049  -25.1906   23.7912 O   0  0  0  0  0  0  0  0  0  0  0  0
  -31.8446  -14.8505   20.2414 O   0  0  0  0  0  0  0  0  0  0  0  0
  -21.4838   -7.0935   21.8055 O   0  0  0  0  0  0  0  0  0  0  0  0
  -33.3297  -20.7333   23.3211 O   0  0  0  0  0  0  0  0  0  1  0  0
  -29.6342  -19.2568   24.6519 O   0  0  0  0  0  0  0  0  0  0  0  0
  -23.8153   -3.1005   24.8096 F   0  0  0  0  0  0  0  0  0  0  0  0
  -20.3835   -6.3062   24.2163 F   0  0  0  0  0  0  0  0  0  0  0  0
  -28.5137  -17.4794   22.9102 F   0  0  0  0  0  0  0  0  0  0  0  0
  1  2  1  0  0  0  0
  1  5  2  0  0  0  0
  2  6  2  0  0  0  0
  3 10  2  0  0  0  0
  3 17  1  0  0  0  0
  4 11  1  0  0  0  0
  4 17  2  0  0  0  0
  5 19  1  0  0  0  0
  6 21  1  0  0  0  0
  7 12  2  0  0  0  0
  7 20  1  0  0  0  0
  8  9  1  0  0  0  0
  8 23  2  0  0  0  0
  9 24  2  0  0  0  0
 10 25  1  0  0  0  0
 11 25  2  0  0  0  0
 12 26  1  0  0  0  0
 13 14  2  0  0  0  0
 13 27  1  0  0  0  0
 14 29  1  0  0  0  0
 15 22  1  0  0  0  0
 15 26  2  0  0  0  0
 16 29  2  0  0  0  0
 16 30  1  0  0  0  0
 17 32  1  0  0  0  0
 18 32  1  0  0  0  0
 18 33  2  0  0  0  0
 18 34  1  0  0  0  0
 19 21  2  0  0  0  0
 19 39  1  0  0  0  0
 20 22  2  0  0  0  0
 20 40  1  0  0  0  0
 21 48  1  0  0  0  0
 22 41  1  0  0  0  0
 23 28  1  0  0  0  0
 23 57  1  0  0  0  0
 24 31  1  0  0  0  0
 24 69  1  0  0  0  0
 25 78  1  0  0  0  0
 26 79  1  0  0  0  0
 27 30  2  0  0  0  0
 27 78  1  0  0  0  0
 28 31  2  0  0  0  0
 28 80  1  0  0  0  0
 29 81  1  0  0  0  0
 30 82  1  0  0  0  0
 31 83  1  0  0  0  0
 32 63  2  0  0  0  0
 33 64  1  0  0  0  0
 33 67  1  0  0  0  0
 34 68  1  0  0  0  0
 34 73  2  0  0  0  0
 35 49  1  0  0  0  0
 35 70  1  0  0  0  0
 35 74  2  0  0  0  0
 36 60  1  0  0  0  0
 36 65  1  0  0  0  0
 36 75  2  0  0  0  0
 37 61  1  0  0  0  0
 37 71  1  0  0  0  0
 37 76  2  0  0  0  0
 38 66  1  0  0  0  0
 38 69  1  0  0  0  0
 38 77  2  0  0  0  0
 39 42  1  0  0  0  0
 40 49  1  0  0  0  0
 41 65  1  0  0  0  0
 42 44  1  0  0  0  0
 43 45  1  0  0  0  0
 43 46  1  0  0  0  0
 44 48  1  0  0  0  0
 45 50  1  0  0  0  0
 46 66  1  0  0  0  0
 47 50  1  0  0  0  0
 47 66  1  0  0  0  0
 48 70  1  0  0  0  0
 49 65  1  0  0  0  0
 50 64  1  0  0  0  0
 51 58  1  0  0  0  0
 52 61  1  0  0  0  0
 53 62  1  0  0  0  0
 54 62  1  0  0  0  0
 55 62  1  0  0  0  0
 56 72  1  0  0  0  0
 57 59  1  0  0  0  0
 58 80  1  0  0  0  0
 59 79  1  0  0  0  0
 60 62  1  0  0  0  0
 60 71  1  0  0  0  0
 61 72  1  0  0  0  0
 63 64  1  0  0  0  0
M  CHG  1  72   1
M  ISO  4  38 100  59 101  69 100  79 101
M  END
> <Batch ID>
0006

> <Smiles>
CCOc1c(C[101CH2:1][101O:1]c2ccc3c(c2)CN(C(=O)C(NC(=O)C(C)NC)C(C)(C)C)C(C(=O)NC2CCCc4ccccc42)C3)ccc([100NH:0][100C:0](=O)N2CCCC(n3nc(-c4ccc(Oc5ccc(F)cc5F)cc4)c(C(N)=O)c3N)C2)c1F

> <Shape>
0.210

> <Color>
0.202

> <Negative vol penalty>
0.000

$$$$

  -OEChem-04042320293D

 84 92  0     1  0  0  0  0  0999 V2000
  -20.2040  -31.4368   22.1352 C   0  0  0  0  0  0  0  0  0  0  0  0
  -21.4801  -30.8834   22.1106 C   0  0  0  0  0  0  0  0  0  0  0  0
  -32.5922  -24.7635   22.7359 C   0  0  0  0  0  0  0  0  0  0  0  0
  -26.3589  -12.2784   20.0780 C   0  0  0  0  0  0  0  0  0  0  0  0
  -24.5261  -13.7286   20.6904 C   0  0  0  0  0  0  0  0  0  0  0  0
  -19.0912  -30.6130   22.2992 C   0  0  0  0  0  0  0  0  0  0  0  0
  -21.6442  -29.5058   22.2510 C   0  0  0  0  0  0  0  0  0  0  0  0
  -24.9473  -27.5936   18.9226 C   0  0  0  0  0  0  0  0  0  0  0  0
  -31.6029  -23.8374   23.0663 C   0  0  0  0  0  0  0  0  0  0  0  0
  -32.6886  -25.2452   21.4303 C   0  0  0  0  0  0  0  0  0  0  0  0
  -25.7438  -11.2192   20.7452 C   0  0  0  0  0  0  0  0  0  0  0  0
  -23.9110  -12.6693   21.3576 C   0  0  0  0  0  0  0  0  0  0  0  0
  -26.3026  -27.7754   19.1944 C   0  0  0  0  0  0  0  0  0  0  0  0
  -24.4814   -8.0419   21.9807 C   0  0  0  0  0  0  0  0  0  0  0  0
  -24.4404   -6.8057   21.3360 C   0  0  0  0  0  0  0  0  0  0  0  0
  -26.4268  -25.5237   20.0508 C   0  0  0  0  0  0  0  0  0  0  0  0
  -23.1906   -7.7942   19.5199 C   0  0  0  0  0  0  0  0  0  0  0  0
  -25.7501  -13.5332   20.0506 C   0  0  0  0  0  0  0  0  0  0  0  0
  -26.2223  -14.9923   18.0121 C   0  0  0  0  0  0  0  0  0  0  0  0
  -19.2410  -29.2236   22.4320 C   0  0  0  0  0  0  0  0  0  0  0  0
  -24.3180  -26.3770   19.2234 C   0  0  0  0  0  0  0  0  0  0  0  0
  -20.5324  -28.6627   22.4182 C   0  0  0  0  0  0  0  0  0  0  0  0
  -25.0640  -25.3280   19.7795 C   0  0  0  0  0  0  0  0  0  0  0  0
  -30.7099  -23.3930   22.0913 C   0  0  0  0  0  0  0  0  0  0  0  0
  -31.7957  -24.8007   20.4553 C   0  0  0  0  0  0  0  0  0  0  0  0
  -24.5198  -11.4146   21.3850 C   0  0  0  0  0  0  0  0  0  0  0  0
  -27.0419  -26.7414   19.7612 C   0  0  0  0  0  0  0  0  0  0  0  0
  -23.8769   -9.1543   21.3950 C   0  0  0  0  0  0  0  0  0  0  0  0
  -23.7950   -6.6818   20.1056 C   0  0  0  0  0  0  0  0  0  0  0  0
  -23.2316   -9.0305   20.1647 C   0  0  0  0  0  0  0  0  0  0  0  0
  -30.8063  -23.8746   20.7857 C   0  0  0  0  0  0  0  0  0  0  0  0
  -26.3853  -14.6279   19.3621 C   0  0  0  0  0  0  0  0  0  0  0  0
  -27.0346  -16.0881   17.8517 C   0  0  0  0  0  0  0  0  0  0  0  0
  -25.4091  -14.3937   16.9941 C   0  0  0  0  0  0  0  0  0  0  0  0
  -21.9428  -25.4946   21.1427 C   0  0  0  0  0  0  0  0  0  0  0  0
  -22.3640  -22.6203   19.6994 C   0  0  0  0  0  0  0  0  0  0  0  0
  -24.4027  -19.9844   18.3162 C   0  0  0  0  0  0  0  0  0  0  0  0
  -28.9672  -20.1458   21.6799 C   0  0  0  0  0  0  0  0  0  0  0  0
  -18.0116  -28.3788   22.6544 C   0  0  0  0  0  0  0  0  0  0  0  0
  -22.8615  -26.1876   18.8995 C   0  0  0  0  0  0  0  0  0  0  0  0
  -24.4403  -23.9957   20.1025 C   0  0  0  0  0  0  0  0  0  0  0  0
  -18.2461  -26.8886   22.4207 C   0  0  0  0  0  0  0  0  0  0  0  0
  -31.0418  -18.0627   19.5695 C   0  0  0  0  0  0  0  0  0  0  0  0
  -19.5292  -26.4355   23.1102 C   0  0  0  0  0  0  0  0  0  0  0  0
  -30.0522  -16.9744   19.1493 C   0  0  0  0  0  0  0  0  0  0  0  0
  -30.8131  -18.4890   21.0166 C   0  0  0  0  0  0  0  0  0  0  0  0
  -28.4343  -17.8565   20.8941 C   0  0  0  0  0  0  0  0  0  0  0  0
  -20.7496  -27.1702   22.5425 C   0  0  1  0  0  0  0  0  0  0  0  0
  -22.2052  -25.0828   19.7217 C   0  0  1  0  0  0  0  0  0  0  0  0
  -28.5991  -17.3984   19.4336 C   0  0  2  0  0  0  0  0  0  0  0  0
  -23.7515  -17.8429   17.1817 C   0  0  0  0  0  0  0  0  0  0  0  0
  -22.6316  -21.4020   22.4840 C   0  0  0  0  0  0  0  0  0  0  0  0
  -23.6271  -19.3654   21.4213 C   0  0  0  0  0  0  0  0  0  0  0  0
  -21.2885  -20.0391   20.8737 C   0  0  0  0  0  0  0  0  0  0  0  0
  -26.0137  -20.6292   15.9187 C   0  0  0  0  0  0  0  0  0  0  0  0
  -30.5360  -26.0000   17.0849 C   0  0  0  0  0  0  0  0  0  0  0  0
  -29.6536  -22.4029   22.4491 C   0  0  0  0  0  0  0  0  0  0  0  0
  -31.9033  -25.3214   19.0523 C   0  0  0  0  0  0  0  0  0  0  0  0
  -30.5451  -27.4067   19.1400 C   0  0  0  0  0  0  0  0  0  0  0  0
  -29.0850  -27.8122   19.1823 C   0  0  0  0  0  0  0  0  0  1  0  0
  -23.2154  -21.4032   19.9690 C   0  0  1  0  0  0  0  0  0  0  0  0
  -24.2006  -19.2825   16.9854 C   0  0  2  0  0  0  0  0  0  0  0  0
  -22.7023  -20.5780   21.1828 C   0  0  0  0  0  0  0  0  0  0  0  0
  -27.2347  -15.4273   20.0129 N   0  0  0  0  0  0  0  0  0  0  0  0
  -27.6126  -16.3049   19.0678 N   0  0  0  0  0  0  0  0  0  0  0  0
  -23.0117  -23.8616   19.7731 N   0  0  0  0  0  0  0  0  0  0  0  0
  -29.4156  -18.8980   21.2159 N   0  0  0  0  0  0  0  0  0  0  0  0
  -27.3038  -16.8777   16.7903 N   0  0  0  0  0  0  0  0  0  0  0  0
  -24.6360  -13.2738   17.3292 N   0  0  0  0  0  0  0  0  0  0  0  0
  -21.1304  -26.6057   21.2655 N   0  0  0  0  0  0  0  0  0  0  0  0
  -23.2670  -20.6556   18.7172 N   0  0  0  0  0  0  0  0  0  0  0  0
  -29.9602  -21.0739   21.9685 N   0  0  0  0  0  0  0  0  0  0  0  0
  -25.4701  -19.2766   16.2049 N   0  3  0  0  0  0  0  0  0  0  0  0
  -30.6562  -26.0327   18.5885 N   0  3  1  0  0  0  0  0  0  0  0  0
  -25.3820  -14.8289   15.8179 O   0  0  0  0  0  0  0  0  0  0  0  0
  -22.4393  -24.8511   22.0598 O   0  0  0  0  0  0  0  0  0  0  0  0
  -21.1700  -22.4746   19.4262 O   0  0  0  0  0  0  0  0  0  0  0  0
  -25.4610  -19.9386   18.9395 O   0  0  0  0  0  0  0  0  0  0  0  0
  -27.7695  -20.4151   21.8215 O   0  0  0  0  0  0  0  0  0  0  0  0
  -23.9192  -10.3812   22.0360 O   0  0  0  0  0  0  0  0  0  0  0  0
  -28.3648  -26.9165   20.0281 O   0  0  0  0  0  0  0  0  0  1  0  0
  -23.7571   -5.4949   19.4859 F   0  0  0  0  0  0  0  0  0  0  0  0
  -22.6501  -10.0958   19.5965 F   0  0  0  0  0  0  0  0  0  0  0  0
  -29.9485  -23.4460   19.8477 F   0  0  0  0  0  0  0  0  0  0  0  0
  1  2  1  0  0  0  0
  1  6  2  0  0  0  0
  2  7  2  0  0  0  0
  3  9  1  0  0  0  0
  3 10  2  0  0  0  0
  4 11  2  0  0  0  0
  4 18  1  0  0  0  0
  5 12  1  0  0  0  0
  5 18  2  0  0  0  0
  6 20  1  0  0  0  0
  7 22  1  0  0  0  0
  8 13  2  0  0  0  0
  8 21  1  0  0  0  0
  9 24  2  0  0  0  0
 10 25  1  0  0  0  0
 11 26  1  0  0  0  0
 12 26  2  0  0  0  0
 13 27  1  0  0  0  0
 14 15  2  0  0  0  0
 14 28  1  0  0  0  0
 15 29  1  0  0  0  0
 16 23  1  0  0  0  0
 16 27  2  0  0  0  0
 17 29  2  0  0  0  0
 17 30  1  0  0  0  0
 18 32  1  0  0  0  0
 19 32  1  0  0  0  0
 19 33  2  0  0  0  0
 19 34  1  0  0  0  0
 20 22  2  0  0  0  0
 20 39  1  0  0  0  0
 21 23  2  0  0  0  0
 21 40  1  0  0  0  0
 22 48  1  0  0  0  0
 23 41  1  0  0  0  0
 24 31  1  0  0  0  0
 24 57  1  0  0  0  0
 25 31  2  0  0  0  0
 25 58  1  0  0  0  0
 26 80  1  0  0  0  0
 27 81  1  0  0  0  0
 28 30  2  0  0  0  0
 28 80  1  0  0  0  0
 29 82  1  0  0  0  0
 30 83  1  0  0  0  0
 31 84  1  0  0  0  0
 32 64  2  0  0  0  0
 33 65  1  0  0  0  0
 33 68  1  0  0  0  0
 34 69  1  0  0  0  0
 34 75  2  0  0  0  0
 35 49  1  0  0  0  0
 35 70  1  0  0  0  0
 35 76  2  0  0  0  0
 36 61  1  0  0  0  0
 36 66  1  0  0  0  0
 36 77  2  0  0  0  0
 37 62  1  0  0  0  0
 37 71  1  0  0  0  0
 37 78  2  0  0  0  0
 38 67  1  0  0  0  0
 38 72  1  0  0  0  0
 38 79  2  0  0  0  0
 39 42  1  0  0  0  0
 40 49  1  0  0  0  0
 41 66  1  0  0  0  0
 42 44  1  0  0  0  0
 43 45  1  0  0  0  0
 43 46  1  0  0  0  0
 44 48  1  0  0  0  0
 45 50  1  0  0  0  0
 46 67  1  0  0  0  0
 47 50  1  0  0  0  0
 47 67  1  0  0  0  0
 48 70  1  0  0  0  0
 49 66  1  0  0  0  0
 50 65  1  0  0  0  0
 51 62  1  0  0  0  0
 52 63  1  0  0  0  0
 53 63  1  0  0  0  0
 54 63  1  0  0  0  0
 55 73  1  0  0  0  0
 56 74  1  0  0  0  0
 57 72  1  0  0  0  0
 58 74  1  0  0  0  0
 59 60  1  0  0  0  0
 59 74  1  0  0  0  0
 60 81  1  0  0  0  0
 61 63  1  0  0  0  0
 61 71  1  0  0  0  0
 62 73  1  0  0  0  0
 64 65  1  0  0  0  0
M  CHG  2  73   1  74   1
M  ISO  4  38 100  60 101  72 100  81 101
M  END
> <Batch ID>
0006

> <Smiles>
CNC(C)C(=O)NC(C(=O)N1Cc2cc([101O:1][101CH2:1]CN(C)Cc3cccc(C[100NH:0][100C:0](=O)N4CCCC(n5nc(-c6ccc(Oc7ccc(F)cc7F)cc6)c(C(N)=O)c5N)C4)c3F)ccc2CC1C(=O)NC1CCCc2ccccc21)C(C)(C)C

> <Shape>
0.223

> <Color>
0.058

> <Negative vol penalty>
0.000

$$$$

  -OEChem-04042320293D

 89 98  0     1  0  0  0  0  0999 V2000
  -18.6889  -21.9278   18.2752 C   0  0  0  0  0  0  0  0  0  0  0  0
  -19.7622  -21.5594   19.0801 C   0  0  0  0  0  0  0  0  0  0  0  0
  -23.0728   -9.8715   19.9414 C   0  0  0  0  0  0  0  0  0  0  0  0
  -23.8392   -9.8742   22.2327 C   0  0  0  0  0  0  0  0  0  0  0  0
  -18.0898  -23.1756   18.4424 C   0  0  0  0  0  0  0  0  0  0  0  0
  -20.2376  -22.4391   20.0520 C   0  0  0  0  0  0  0  0  0  0  0  0
  -21.1194  -20.1484   24.4814 C   0  0  0  0  0  0  0  0  0  0  0  0
  -31.3394  -17.4973   24.2646 C   0  0  0  0  0  0  0  0  0  0  0  0
  -22.3299   -8.7177   20.1913 C   0  0  0  0  0  0  0  0  0  0  0  0
  -23.0962   -8.7204   22.4825 C   0  0  0  0  0  0  0  0  0  0  0  0
  -22.2934  -19.4044   24.5909 C   0  0  0  0  0  0  0  0  0  0  0  0
  -21.1156   -5.9803   23.8195 C   0  0  0  0  0  0  0  0  0  0  0  0
  -30.9463  -17.9301   25.5310 C   0  0  0  0  0  0  0  0  0  0  0  0
  -20.3627   -5.9344   24.9928 C   0  0  0  0  0  0  0  0  0  0  0  0
  -23.3413  -21.2403   25.7530 C   0  0  0  0  0  0  0  0  0  0  0  0
  -29.0514  -17.6474   23.5032 C   0  0  0  0  0  0  0  0  0  0  0  0
  -19.1157   -7.8728   24.2685 C   0  0  0  0  0  0  0  0  0  0  0  0
  -23.8275  -10.4497   20.9621 C   0  0  0  0  0  0  0  0  0  0  0  0
  -24.1685  -12.9752   20.8460 C   0  0  0  0  0  0  0  0  0  0  0  0
  -18.5518  -24.0672   19.4233 C   0  0  0  0  0  0  0  0  0  0  0  0
  -21.0509  -21.4502   24.9982 C   0  0  0  0  0  0  0  0  0  0  0  0
  -19.6449  -23.7005   20.2315 C   0  0  0  0  0  0  0  0  0  0  0  0
  -22.1645  -21.9978   25.6510 C   0  0  0  0  0  0  0  0  0  0  0  0
  -30.3919  -17.3560   23.2507 C   0  0  0  0  0  0  0  0  0  0  0  0
  -28.6583  -18.0801   24.7696 C   0  0  0  0  0  0  0  0  0  0  0  0
  -22.3415   -8.1422   21.4618 C   0  0  0  0  0  0  0  0  0  0  0  0
  -23.4055  -19.9514   25.2242 C   0  0  0  0  0  0  0  0  0  0  0  0
  -20.8687   -6.9726   22.8707 C   0  0  0  0  0  0  0  0  0  0  0  0
  -19.3627   -6.8805   25.2173 C   0  0  0  0  0  0  0  0  0  0  0  0
  -29.6058  -18.2215   25.7835 C   0  0  0  0  0  0  0  0  0  0  0  0
  -19.8687   -7.9188   23.0952 C   0  0  0  0  0  0  0  0  0  0  0  0
  -24.5956  -11.6412   20.7045 C   0  0  0  0  0  0  0  0  0  0  0  0
  -25.2595  -13.7256   20.4811 C   0  0  0  0  0  0  0  0  0  0  0  0
  -22.8991  -13.4899   21.2695 C   0  0  0  0  0  0  0  0  0  0  0  0
  -20.5600  -24.3341   23.7549 C   0  0  0  0  0  0  0  0  0  0  0  0
  -20.5553  -25.2472   26.8675 C   0  0  0  0  0  0  0  0  0  0  0  0
  -25.3617  -17.2264   26.2376 C   0  0  0  0  0  0  0  0  0  0  0  0
  -21.5271  -24.6078   30.0759 C   0  0  0  0  0  0  0  0  0  0  0  0
  -30.7435  -14.7454   20.6558 C   0  0  0  0  0  0  0  0  0  0  0  0
  -17.9025  -25.4239   19.5350 C   0  0  0  0  0  0  0  0  0  0  0  0
  -19.7686  -22.2297   24.8956 C   0  0  0  0  0  0  0  0  0  0  0  0
  -22.1360  -23.3834   26.2406 C   0  0  0  0  0  0  0  0  0  0  0  0
  -18.2259  -26.1484   20.8391 C   0  0  0  0  0  0  0  0  0  0  0  0
  -29.5996  -12.3652   18.2677 C   0  0  0  0  0  0  0  0  0  0  0  0
  -24.2840  -13.1763   24.7896 C   0  0  0  0  0  0  0  0  0  0  0  0
  -24.0010  -12.7063   26.2022 C   0  0  0  0  0  0  0  0  0  0  0  0
  -19.7201  -26.0716   21.1361 C   0  0  0  0  0  0  0  0  0  0  0  0
  -28.1634  -12.0704   18.7041 C   0  0  0  0  0  0  0  0  0  0  0  0
  -30.5201  -12.5839   19.4664 C   0  0  0  0  0  0  0  0  0  0  0  0
  -28.6222  -13.3119   20.8598 C   0  0  0  0  0  0  0  0  0  0  0  0
  -24.4926  -14.6642   24.9726 C   0  0  0  0  0  0  0  0  0  0  0  0
  -24.9884  -13.4841   27.0544 C   0  0  0  0  0  0  0  0  0  0  0  0
  -20.1733  -24.6174   21.3134 C   0  0  1  0  0  0  0  0  0  0  0  0
  -19.9755  -23.7373   25.0039 C   0  0  1  0  0  0  0  0  0  0  0  0
  -27.6447  -13.1394   19.6846 C   0  0  2  0  0  0  0  0  0  0  0  0
  -21.4060  -25.5547   32.3967 C   0  0  0  0  0  0  0  0  0  0  0  0
  -22.6900  -27.3017   26.1381 C   0  0  0  0  0  0  0  0  0  0  0  0
  -23.1989  -27.5362   28.5783 C   0  0  0  0  0  0  0  0  0  0  0  0
  -20.9363  -28.1343   27.7147 C   0  0  0  0  0  0  0  0  0  0  0  0
  -20.0669  -22.2417   31.0900 C   0  0  0  0  0  0  0  0  0  0  0  0
  -30.8125  -16.8936   21.8966 C   0  0  0  0  0  0  0  0  0  0  0  0
  -27.2166  -18.3915   25.0386 C   0  0  0  0  0  0  0  0  0  0  0  0
  -25.0313  -16.0153   27.0296 C   0  0  0  0  0  0  0  0  0  0  0  0
  -21.6078  -25.7007   27.8502 C   0  0  1  0  0  0  0  0  0  0  0  0
  -20.7569  -24.6242   31.3839 C   0  0  2  0  0  0  0  0  0  0  0  0
  -22.1098  -27.1428   27.5576 C   0  0  0  0  0  0  0  0  0  0  0  0
  -25.8593  -11.5465   20.2824 N   0  0  0  0  0  0  0  0  0  0  0  0
  -26.2356  -12.8304   20.1555 N   0  0  0  0  0  0  0  0  0  0  0  0
  -20.8613  -24.1083   26.1093 N   0  0  0  0  0  0  0  0  0  0  0  0
  -29.9719  -13.6106   20.3559 N   0  0  0  0  0  0  0  0  0  0  0  0
  -25.4694  -15.0572   20.4100 N   0  0  0  0  0  0  0  0  0  0  0  0
  -21.8883  -12.5799   21.6079 N   0  0  0  0  0  0  0  0  0  0  0  0
  -19.7968  -24.1266   22.6218 N   0  0  0  0  0  0  0  0  0  0  0  0
  -24.3371  -18.0549   26.0401 N   0  0  0  0  0  0  0  0  0  1  0  0
  -21.0283  -25.5275   29.1779 N   0  0  0  0  0  0  0  0  0  0  0  0
  -30.1466  -15.6724   21.5013 N   0  0  0  0  0  0  0  0  0  0  0  0
  -26.6339  -17.3087   25.8326 N   0  3  0  0  0  0  0  0  0  0  0  0
  -25.2697  -14.7513   26.2678 N   0  3  0  0  0  0  0  0  0  0  0  0
  -20.7029  -23.2553   31.9705 N   0  3  0  0  0  0  0  0  0  0  0  0
  -22.6628  -14.7204   21.3299 O   0  0  0  0  0  0  0  0  0  0  0  0
  -21.6238  -24.9395   23.8151 O   0  0  0  0  0  0  0  0  0  0  0  0
  -19.4977  -25.8762   26.7811 O   0  0  0  0  0  0  0  0  0  0  0  0
  -22.4787  -23.8569   29.8726 O   0  0  0  0  0  0  0  0  0  0  0  0
  -31.8781  -14.9219   20.1993 O   0  0  0  0  0  0  0  0  0  0  0  0
  -21.6165   -7.0165   21.7061 O   0  0  0  0  0  0  0  0  0  0  0  0
  -24.5529  -19.2276   25.3318 O   0  0  0  0  0  0  0  0  0  1  0  0
  -18.6387   -6.8353   26.3433 F   0  0  0  0  0  0  0  0  0  0  0  0
  -29.2374  -18.6353   27.0041 F   0  0  0  0  0  0  0  0  0  0  0  0
  -19.6260   -8.8737   22.1869 F   0  0  0  0  0  0  0  0  0  0  0  0
  1  2  1  0  0  0  0
  1  5  2  0  0  0  0
  2  6  2  0  0  0  0
  3  9  2  0  0  0  0
  3 18  1  0  0  0  0
  4 10  1  0  0  0  0
  4 18  2  0  0  0  0
  5 20  1  0  0  0  0
  6 22  1  0  0  0  0
  7 11  2  0  0  0  0
  7 21  1  0  0  0  0
  8 13  2  0  0  0  0
  8 24  1  0  0  0  0
  9 26  1  0  0  0  0
 10 26  2  0  0  0  0
 11 27  1  0  0  0  0
 12 14  2  0  0  0  0
 12 28  1  0  0  0  0
 13 30  1  0  0  0  0
 14 29  1  0  0  0  0
 15 23  1  0  0  0  0
 15 27  2  0  0  0  0
 16 24  2  0  0  0  0
 16 25  1  0  0  0  0
 17 29  2  0  0  0  0
 17 31  1  0  0  0  0
 18 32  1  0  0  0  0
 19 32  1  0  0  0  0
 19 33  2  0  0  0  0
 19 34  1  0  0  0  0
 20 22  2  0  0  0  0
 20 40  1  0  0  0  0
 21 23  2  0  0  0  0
 21 41  1  0  0  0  0
 22 53  1  0  0  0  0
 23 42  1  0  0  0  0
 24 61  1  0  0  0  0
 25 30  2  0  0  0  0
 25 62  1  0  0  0  0
 26 85  1  0  0  0  0
 27 86  1  0  0  0  0
 28 31  2  0  0  0  0
 28 85  1  0  0  0  0
 29 87  1  0  0  0  0
 30 88  1  0  0  0  0
 31 89  1  0  0  0  0
 32 67  2  0  0  0  0
 33 68  1  0  0  0  0
 33 71  1  0  0  0  0
 34 72  1  0  0  0  0
 34 80  2  0  0  0  0
 35 54  1  0  0  0  0
 35 73  1  0  0  0  0
 35 81  2  0  0  0  0
 36 64  1  0  0  0  0
 36 69  1  0  0  0  0
 36 82  2  0  0  0  0
 37 63  1  0  0  0  0
 37 74  1  0  0  0  0
 37 77  2  0  0  0  0
 38 65  1  0  0  0  0
 38 75  1  0  0  0  0
 38 83  2  0  0  0  0
 39 70  1  0  0  0  0
 39 76  1  0  0  0  0
 39 84  2  0  0  0  0
 40 43  1  0  0  0  0
 41 54  1  0  0  0  0
 42 69  1  0  0  0  0
 43 47  1  0  0  0  0
 44 48  1  0  0  0  0
 44 49  1  0  0  0  0
 45 46  1  0  0  0  0
 45 51  1  0  0  0  0
 46 52  1  0  0  0  0
 47 53  1  0  0  0  0
 48 55  1  0  0  0  0
 49 70  1  0  0  0  0
 50 55  1  0  0  0  0
 50 70  1  0  0  0  0
 51 78  1  0  0  0  0
 52 78  1  0  0  0  0
 53 73  1  0  0  0  0
 54 69  1  0  0  0  0
 55 68  1  0  0  0  0
 56 65  1  0  0  0  0
 57 66  1  0  0  0  0
 58 66  1  0  0  0  0
 59 66  1  0  0  0  0
 60 79  1  0  0  0  0
 61 76  1  0  0  0  0
 62 77  1  0  0  0  0
 63 78  1  0  0  0  0
 64 66  1  0  0  0  0
 64 75  1  0  0  0  0
 65 79  1  0  0  0  0
 67 68  1  0  0  0  0
 74 86  1  0  0  0  0
M  CHG  3  77   1  78   1  79   1
M  ISO  4  39 100  74 101  76 100  86 101
M  END
> <Batch ID>
0006

> <Smiles>
CNC(C)C(=O)NC(C(=O)N1Cc2cc([101O:1][101N:1]=C(CN3CCCC3)NCc3cc(C[100NH:0][100C:0](=O)N4CCCC(n5nc(-c6ccc(Oc7ccc(F)cc7F)cc6)c(C(N)=O)c5N)C4)ccc3F)ccc2CC1C(=O)NC1CCCc2ccccc21)C(C)(C)C

> <Shape>
0.172

> <Color>
0.180

> <Negative vol penalty>
0.000

$$$$

  -OEChem-04042320293D

 82 90  0     1  0  0  0  0  0999 V2000
  -31.1929  -34.7210   22.2773 C   0  0  0  0  0  0  0  0  0  0  0  0
  -30.8233  -33.6201   21.5112 C   0  0  0  0  0  0  0  0  0  0  0  0
  -26.7543  -12.5689   21.6962 C   0  0  0  0  0  0  0  0  0  0  0  0
  -26.2729  -13.8888   19.7307 C   0  0  0  0  0  0  0  0  0  0  0  0
  -30.6338  -34.9091   23.5405 C   0  0  0  0  0  0  0  0  0  0  0  0
  -29.8951  -32.7060   22.0085 C   0  0  0  0  0  0  0  0  0  0  0  0
  -26.4153  -31.4039   18.5674 C   0  0  0  0  0  0  0  0  0  0  0  0
  -29.6816  -21.1788   18.5509 C   0  0  0  0  0  0  0  0  0  0  0  0
  -29.2501  -22.3593   17.9463 C   0  0  0  0  0  0  0  0  0  0  0  0
  -25.4290  -12.1353   21.7297 C   0  0  0  0  0  0  0  0  0  0  0  0
  -24.9475  -13.4551   19.7642 C   0  0  0  0  0  0  0  0  0  0  0  0
  -26.7954  -30.4787   17.5962 C   0  0  0  0  0  0  0  0  0  0  0  0
  -23.5107   -9.8618   20.1223 C   0  0  0  0  0  0  0  0  0  0  0  0
  -23.2783   -8.5036   20.3388 C   0  0  0  0  0  0  0  0  0  0  0  0
  -25.6871  -28.7312   18.8360 C   0  0  0  0  0  0  0  0  0  0  0  0
  -30.3176  -22.4212   20.5230 C   0  0  0  0  0  0  0  0  0  0  0  0
  -22.0274   -9.0359   22.3360 C   0  0  0  0  0  0  0  0  0  0  0  0
  -27.1762  -13.4457   20.6968 C   0  0  0  0  0  0  0  0  0  0  0  0
  -29.6221  -13.2865   19.9896 C   0  0  0  0  0  0  0  0  0  0  0  0
  -29.6910  -34.0020   24.0496 C   0  0  0  0  0  0  0  0  0  0  0  0
  -25.6764  -30.9971   19.6876 C   0  0  0  0  0  0  0  0  0  0  0  0
  -29.3238  -32.8814   23.2803 C   0  0  0  0  0  0  0  0  0  0  0  0
  -25.2968  -29.6536   19.8187 C   0  0  0  0  0  0  0  0  0  0  0  0
  -30.2154  -21.2097   19.8393 C   0  0  0  0  0  0  0  0  0  0  0  0
  -29.3524  -23.5709   18.6299 C   0  0  0  0  0  0  0  0  0  0  0  0
  -24.5256  -12.5783   20.7637 C   0  0  0  0  0  0  0  0  0  0  0  0
  -26.4337  -29.1416   17.7318 C   0  0  0  0  0  0  0  0  0  0  0  0
  -23.0015  -10.8071   21.0127 C   0  0  0  0  0  0  0  0  0  0  0  0
  -22.5367   -8.0906   21.4456 C   0  0  0  0  0  0  0  0  0  0  0  0
  -29.8861  -23.6018   19.9183 C   0  0  0  0  0  0  0  0  0  0  0  0
  -22.2599  -10.3942   22.1195 C   0  0  0  0  0  0  0  0  0  0  0  0
  -28.5450  -13.8945   20.6620 C   0  0  0  0  0  0  0  0  0  0  0  0
  -30.6989  -14.0930   20.2664 C   0  0  0  0  0  0  0  0  0  0  0  0
  -29.6471  -12.0990   19.1866 C   0  0  0  0  0  0  0  0  0  0  0  0
  -26.1780  -30.9972   22.8265 C   0  0  0  0  0  0  0  0  0  0  0  0
  -23.0936  -29.9976   22.9261 C   0  0  0  0  0  0  0  0  0  0  0  0
  -20.4888  -28.4742   21.3321 C   0  0  0  0  0  0  0  0  0  0  0  0
  -31.2075  -19.8654   21.7247 C   0  0  0  0  0  0  0  0  0  0  0  0
  -29.1494  -34.2217   25.4399 C   0  0  0  0  0  0  0  0  0  0  0  0
  -25.2514  -32.0123   20.7129 C   0  0  0  0  0  0  0  0  0  0  0  0
  -24.4863  -29.1695   20.9923 C   0  0  0  0  0  0  0  0  0  0  0  0
  -27.8924  -33.4091   25.7394 C   0  0  0  0  0  0  0  0  0  0  0  0
  -32.3775  -17.0814   23.6110 C   0  0  0  0  0  0  0  0  0  0  0  0
  -28.0717  -31.9628   25.2888 C   0  0  0  0  0  0  0  0  0  0  0  0
  -31.6300  -15.8921   23.0036 C   0  0  0  0  0  0  0  0  0  0  0  0
  -31.5052  -18.3346   23.6595 C   0  0  0  0  0  0  0  0  0  0  0  0
  -30.1436  -17.5241   21.7731 C   0  0  0  0  0  0  0  0  0  0  0  0
  -28.3016  -31.8812   23.7749 C   0  0  1  0  0  0  0  0  0  0  0  0
  -24.9403  -31.3942   22.0725 C   0  0  1  0  0  0  0  0  0  0  0  0
  -31.0028  -16.2558   21.6435 C   0  0  2  0  0  0  0  0  0  0  0  0
  -18.1063  -27.7683   21.6825 C   0  0  0  0  0  0  0  0  0  0  0  0
  -24.0428  -27.6419   24.6172 C   0  0  0  0  0  0  0  0  0  0  0  0
  -21.8637  -26.5075   24.1348 C   0  0  0  0  0  0  0  0  0  0  0  0
  -21.8934  -28.6714   25.3754 C   0  0  0  0  0  0  0  0  0  0  0  0
  -19.5291  -30.2134   19.1382 C   0  0  0  0  0  0  0  0  0  0  0  0
  -28.0484  -26.2406   16.3084 C   0  0  0  0  0  0  0  0  0  0  0  0
  -28.3609  -24.8011   16.6988 C   0  0  0  0  0  0  0  0  0  0  0  0
  -27.0150  -26.8932   17.2191 C   0  0  0  0  0  0  0  0  0  1  0  0
  -22.4034  -28.6553   22.8992 C   0  0  1  0  0  0  0  0  0  0  0  0
  -19.0303  -28.8679   21.1826 C   0  0  2  0  0  0  0  0  0  0  0  0
  -22.5678  -27.8775   24.2354 C   0  0  0  0  0  0  0  0  0  0  0  0
  -28.9047  -15.0017   21.3168 N   0  0  0  0  0  0  0  0  0  0  0  0
  -30.2200  -15.0958   21.0572 N   0  0  0  0  0  0  0  0  0  0  0  0
  -24.1003  -30.1991   21.9713 N   0  0  0  0  0  0  0  0  0  0  0  0
  -30.9487  -18.6199   22.3352 N   0  0  0  0  0  0  0  0  0  0  0  0
  -31.9991  -14.0352   19.9082 N   0  0  0  0  0  0  0  0  0  0  0  0
  -28.4517  -11.3903   19.0045 N   0  0  0  0  0  0  0  0  0  0  0  0
  -30.6540  -20.0102   20.4530 N   0  0  0  0  0  0  0  0  0  0  0  0
  -28.9235  -24.7427   18.0263 N   0  0  0  0  0  0  0  0  0  0  0  0
  -27.0510  -32.0415   23.0644 N   0  0  0  0  0  0  0  0  0  0  0  0
  -21.0173  -28.9164   22.5264 N   0  0  0  0  0  0  0  0  0  0  0  0
  -18.7103  -29.1365   19.7521 N   0  3  0  0  0  0  0  0  0  0  0  0
  -30.7016  -11.6697   18.6601 O   0  0  0  0  0  0  0  0  0  0  0  0
  -26.3289  -29.8301   23.1683 O   0  0  0  0  0  0  0  0  0  0  0  0
  -22.7472  -30.8391   23.7590 O   0  0  0  0  0  0  0  0  0  0  0  0
  -21.0972  -27.8349   20.4767 O   0  0  0  0  0  0  0  0  0  0  0  0
  -31.8940  -20.7287   22.2773 O   0  0  0  0  0  0  0  0  0  0  0  0
  -23.2324  -12.1552   20.7959 O   0  0  0  0  0  0  0  0  0  0  0  0
  -26.8039  -28.2363   16.7856 O   0  0  0  0  0  0  0  0  0  1  0  0
  -22.3123   -6.7864   21.6525 F   0  0  0  0  0  0  0  0  0  0  0  0
  -29.9905  -24.7611   20.5836 F   0  0  0  0  0  0  0  0  0  0  0  0
  -21.7671  -11.2977   22.9778 F   0  0  0  0  0  0  0  0  0  0  0  0
  1  2  1  0  0  0  0
  1  5  2  0  0  0  0
  2  6  2  0  0  0  0
  3 10  2  0  0  0  0
  3 18  1  0  0  0  0
  4 11  1  0  0  0  0
  4 18  2  0  0  0  0
  5 20  1  0  0  0  0
  6 22  1  0  0  0  0
  7 12  2  0  0  0  0
  7 21  1  0  0  0  0
  8  9  2  0  0  0  0
  8 24  1  0  0  0  0
  9 25  1  0  0  0  0
 10 26  1  0  0  0  0
 11 26  2  0  0  0  0
 12 27  1  0  0  0  0
 13 14  2  0  0  0  0
 13 28  1  0  0  0  0
 14 29  1  0  0  0  0
 15 23  1  0  0  0  0
 15 27  2  0  0  0  0
 16 24  2  0  0  0  0
 16 30  1  0  0  0  0
 17 29  2  0  0  0  0
 17 31  1  0  0  0  0
 18 32  1  0  0  0  0
 19 32  1  0  0  0  0
 19 33  2  0  0  0  0
 19 34  1  0  0  0  0
 20 22  2  0  0  0  0
 20 39  1  0  0  0  0
 21 23  2  0  0  0  0
 21 40  1  0  0  0  0
 22 48  1  0  0  0  0
 23 41  1  0  0  0  0
 24 68  1  0  0  0  0
 25 30  2  0  0  0  0
 25 69  1  0  0  0  0
 26 78  1  0  0  0  0
 27 79  1  0  0  0  0
 28 31  2  0  0  0  0
 28 78  1  0  0  0  0
 29 80  1  0  0  0  0
 30 81  1  0  0  0  0
 31 82  1  0  0  0  0
 32 62  2  0  0  0  0
 33 63  1  0  0  0  0
 33 66  1  0  0  0  0
 34 67  1  0  0  0  0
 34 73  2  0  0  0  0
 35 49  1  0  0  0  0
 35 70  1  0  0  0  0
 35 74  2  0  0  0  0
 36 59  1  0  0  0  0
 36 64  1  0  0  0  0
 36 75  2  0  0  0  0
 37 60  1  0  0  0  0
 37 71  1  0  0  0  0
 37 76  2  0  0  0  0
 38 65  1  0  0  0  0
 38 68  1  0  0  0  0
 38 77  2  0  0  0  0
 39 42  1  0  0  0  0
 40 49  1  0  0  0  0
 41 64  1  0  0  0  0
 42 44  1  0  0  0  0
 43 45  1  0  0  0  0
 43 46  1  0  0  0  0
 44 48  1  0  0  0  0
 45 50  1  0  0  0  0
 46 65  1  0  0  0  0
 47 50  1  0  0  0  0
 47 65  1  0  0  0  0
 48 70  1  0  0  0  0
 49 64  1  0  0  0  0
 50 63  1  0  0  0  0
 51 60  1  0  0  0  0
 52 61  1  0  0  0  0
 53 61  1  0  0  0  0
 54 61  1  0  0  0  0
 55 72  1  0  0  0  0
 56 57  1  0  0  0  0
 56 58  1  0  0  0  0
 57 69  1  0  0  0  0
 58 79  1  0  0  0  0
 59 61  1  0  0  0  0
 59 71  1  0  0  0  0
 60 72  1  0  0  0  0
 62 63  1  0  0  0  0
M  CHG  1  72   1
M  ISO  4  38 100  58 101  68 100  79 101
M  END
> <Batch ID>
0006

> <Smiles>
CNC(C)C(=O)NC(C(=O)N1Cc2cc([101O:1][101CH2:1]CCNc3ccc([100NH:0][100C:0](=O)N4CCCC(n5nc(-c6ccc(Oc7ccc(F)cc7F)cc6)c(C(N)=O)c5N)C4)cc3F)ccc2CC1C(=O)NC1CCCc2ccccc21)C(C)(C)C

> <Shape>
0.300

> <Color>
0.071

> <Negative vol penalty>
0.000

$$$$

  -OEChem-04042320293D

 92101  0     1  0  0  0  0  0999 V2000
  -18.3296  -23.0420   25.8676 C   0  0  0  0  0  0  0  0  0  0  0  0
  -19.6858  -22.7991   25.6744 C   0  0  0  0  0  0  0  0  0  0  0  0
  -24.0294   -9.5625   22.0530 C   0  0  0  0  0  0  0  0  0  0  0  0
  -24.6090  -11.1112   23.8145 C   0  0  0  0  0  0  0  0  0  0  0  0
  -17.6756  -23.9958   25.0888 C   0  0  0  0  0  0  0  0  0  0  0  0
  -20.3884  -23.5092   24.7015 C   0  0  0  0  0  0  0  0  0  0  0  0
  -26.8877  -26.2087   23.3642 C   0  0  0  0  0  0  0  0  0  0  0  0
  -23.6556   -8.6167   23.0076 C   0  0  0  0  0  0  0  0  0  0  0  0
  -24.2351  -10.1653   24.7691 C   0  0  0  0  0  0  0  0  0  0  0  0
  -27.8767  -26.1991   22.3816 C   0  0  0  0  0  0  0  0  0  0  0  0
  -25.1863   -6.4083   25.0580 C   0  0  0  0  0  0  0  0  0  0  0  0
  -25.6193   -5.0954   24.8726 C   0  0  0  0  0  0  0  0  0  0  0  0
  -29.0949  -19.8895   16.9373 C   0  0  0  0  0  0  0  0  0  0  0  0
  -28.9493  -20.5787   19.2482 C   0  0  0  0  0  0  0  0  0  0  0  0
  -26.6605  -27.8791   21.1496 C   0  0  0  0  0  0  0  0  0  0  0  0
  -23.3228   -4.3485   24.7989 C   0  0  0  0  0  0  0  0  0  0  0  0
  -24.5062  -10.8098   22.4565 C   0  0  0  0  0  0  0  0  0  0  0  0
  -24.0745  -12.7673   20.8787 C   0  0  0  0  0  0  0  0  0  0  0  0
  -18.3728  -24.7247   24.1125 C   0  0  0  0  0  0  0  0  0  0  0  0
  -25.7704  -27.0472   23.2413 C   0  0  0  0  0  0  0  0  0  0  0  0
  -19.7428  -24.4726   23.9081 C   0  0  0  0  0  0  0  0  0  0  0  0
  -29.0593  -20.9021   17.8959 C   0  0  0  0  0  0  0  0  0  0  0  0
  -25.6601  -27.8994   22.1333 C   0  0  0  0  0  0  0  0  0  0  0  0
  -29.0202  -18.5534   17.3311 C   0  0  0  0  0  0  0  0  0  0  0  0
  -28.8746  -19.2426   19.6421 C   0  0  0  0  0  0  0  0  0  0  0  0
  -28.9101  -18.2300   18.6835 C   0  0  0  0  0  0  0  0  0  0  0  0
  -23.7583   -8.9181   24.3656 C   0  0  0  0  0  0  0  0  0  0  0  0
  -27.7618  -27.0322   21.2726 C   0  0  0  0  0  0  0  0  0  0  0  0
  -23.8216   -6.6914   25.1140 C   0  0  0  0  0  0  0  0  0  0  0  0
  -24.6875   -4.0655   24.7430 C   0  0  0  0  0  0  0  0  0  0  0  0
  -22.8899   -5.6615   24.9844 C   0  0  0  0  0  0  0  0  0  0  0  0
  -24.8931  -11.7870   21.4709 C   0  0  0  0  0  0  0  0  0  0  0  0
  -24.9087  -13.4365   20.0170 C   0  0  0  0  0  0  0  0  0  0  0  0
  -22.6842  -13.0478   21.0888 C   0  0  0  0  0  0  0  0  0  0  0  0
  -22.6349  -26.5849   22.9987 C   0  0  0  0  0  0  0  0  0  0  0  0
  -22.5348  -29.8199   23.2162 C   0  0  0  0  0  0  0  0  0  0  0  0
  -24.1397  -32.8027   22.7996 C   0  0  0  0  0  0  0  0  0  0  0  0
  -29.7805  -15.8727   18.8619 C   0  0  0  0  0  0  0  0  0  0  0  0
  -17.6124  -25.7119   23.2628 C   0  0  0  0  0  0  0  0  0  0  0  0
  -24.7256  -27.0652   24.3232 C   0  0  0  0  0  0  0  0  0  0  0  0
  -24.4903  -28.8330   21.9643 C   0  0  0  0  0  0  0  0  0  0  0  0
  -18.5128  -26.6873   22.5091 C   0  0  0  0  0  0  0  0  0  0  0  0
  -29.5968  -12.3404   18.4542 C   0  0  0  0  0  0  0  0  0  0  0  0
  -19.6639  -25.9430   21.8398 C   0  0  0  0  0  0  0  0  0  0  0  0
  -28.2894  -11.9621   19.1540 C   0  0  0  0  0  0  0  0  0  0  0  0
  -27.8659  -23.0845   17.8966 C   0  0  0  0  0  0  0  0  0  0  0  0
  -30.3849  -22.9987   18.0811 C   0  0  0  0  0  0  0  0  0  0  0  0
  -30.3240  -13.4692   19.1827 C   0  0  0  0  0  0  0  0  0  0  0  0
  -28.2060  -14.2886   20.1376 C   0  0  0  0  0  0  0  0  0  0  0  0
  -27.9511  -24.5664   17.5542 C   0  0  0  0  0  0  0  0  0  0  0  0
  -30.4508  -24.4812   17.7369 C   0  0  0  0  0  0  0  0  0  0  0  0
  -29.1390  -22.3338   17.4739 C   0  0  0  0  0  0  0  0  0  0  0  0
  -20.5450  -25.2400   22.8796 C   0  0  1  0  0  0  0  0  0  0  0  0
  -23.3749  -27.5853   23.8409 C   0  0  1  0  0  0  0  0  0  0  0  0
  -27.4057  -13.1999   19.4044 C   0  0  2  0  0  0  0  0  0  0  0  0
  -29.0602  -17.4908   16.2807 C   0  0  0  0  0  0  0  0  0  0  0  0
  -26.1294  -15.8995   24.0059 C   0  0  0  0  0  0  0  0  0  0  0  0
  -23.7879  -35.2772   23.0242 C   0  0  0  0  0  0  0  0  0  0  0  0
  -20.8894  -29.8167   20.6466 C   0  0  0  0  0  0  0  0  0  0  0  0
  -21.3787  -32.2609   20.4127 C   0  0  0  0  0  0  0  0  0  0  0  0
  -20.1016  -31.4298   22.3878 C   0  0  0  0  0  0  0  0  0  0  0  0
  -26.2983  -33.0444   24.8098 C   0  0  0  0  0  0  0  0  0  0  0  0
  -26.4334  -19.6639   21.6044 C   0  0  0  0  0  0  0  0  0  0  0  0
  -28.7577  -18.9275   21.0985 C   0  0  0  0  0  0  0  0  0  0  0  0
  -26.2017  -16.7269   22.7327 C   0  0  0  0  0  0  0  0  0  0  0  0
  -29.2478  -26.6494   17.9946 C   0  0  0  0  0  0  0  0  0  0  0  0
  -27.3893  -17.6758   22.7602 C   0  0  0  0  0  0  0  0  0  0  0  0
  -28.3160  -27.3283   18.9789 C   0  0  0  0  0  0  0  0  0  1  0  0
  -22.5806  -30.9598   22.2275 C   0  0  1  0  0  0  0  0  0  0  0  0
  -24.2743  -34.0100   23.7100 C   0  0  2  0  0  0  0  0  0  0  0  0
  -21.2588  -31.0979   21.4206 C   0  0  0  0  0  0  0  0  0  0  0  0
  -26.1509  -11.8264   21.0231 N   0  0  0  0  0  0  0  0  0  0  0  0
  -26.1288  -12.8395   20.1403 N   0  0  0  0  0  0  0  0  0  0  0  0
  -23.4918  -28.8095   23.0459 N   0  0  0  0  0  0  0  0  0  0  0  0
  -29.4264  -14.6093   19.3809 N   0  0  0  0  0  0  0  0  0  0  0  0
  -24.7104  -14.4715   19.1733 N   0  0  0  0  0  0  0  0  0  0  0  0
  -21.9762  -12.2639   22.0100 N   0  0  0  0  0  0  0  0  0  0  0  0
  -28.8345  -16.8729   19.0837 N   0  0  0  0  0  0  0  0  0  0  0  0
  -21.4200  -26.1932   23.5279 N   0  0  0  0  0  0  0  0  0  0  0  0
  -22.9411  -32.1489   22.9920 N   0  0  0  0  0  0  0  0  0  0  0  0
  -29.1833  -25.1794   18.1925 N   0  3  0  0  0  0  0  0  0  0  0  0
  -25.6982  -34.2056   24.1039 N   0  3  0  0  0  0  0  0  0  0  0  0
  -27.3895  -18.5030   21.4999 N   0  3  1  0  0  0  0  0  0  0  0  0
  -22.0835  -13.9558   20.4657 O   0  0  0  0  0  0  0  0  0  0  0  0
  -23.1289  -26.1983   21.9460 O   0  0  0  0  0  0  0  0  0  0  0  0
  -21.6858  -29.8293   24.1111 O   0  0  0  0  0  0  0  0  0  0  0  0
  -25.0093  -32.4748   21.9953 O   0  0  0  0  0  0  0  0  0  0  0  0
  -30.8321  -16.0476   18.2410 O   0  0  0  0  0  0  0  0  0  0  0  0
  -23.3934   -7.9954   25.2973 O   0  0  0  0  0  0  0  0  0  0  0  0
  -28.7253  -27.0242   20.3117 O   0  0  0  0  0  0  0  0  0  1  0  0
  -25.1034   -2.8050   24.5633 F   0  0  0  0  0  0  0  0  0  0  0  0
  -21.5774   -5.9274   25.0361 F   0  0  0  0  0  0  0  0  0  0  0  0
  1  2  1  0  0  0  0
  1  5  2  0  0  0  0
  2  6  2  0  0  0  0
  3  8  2  0  0  0  0
  3 17  1  0  0  0  0
  4  9  1  0  0  0  0
  4 17  2  0  0  0  0
  5 19  1  0  0  0  0
  6 21  1  0  0  0  0
  7 10  2  0  0  0  0
  7 20  1  0  0  0  0
  8 27  1  0  0  0  0
  9 27  2  0  0  0  0
 10 28  1  0  0  0  0
 11 12  2  0  0  0  0
 11 29  1  0  0  0  0
 12 30  1  0  0  0  0
 13 22  1  0  0  0  0
 13 24  2  0  0  0  0
 14 22  2  0  0  0  0
 14 25  1  0  0  0  0
 15 23  1  0  0  0  0
 15 28  2  0  0  0  0
 16 30  2  0  0  0  0
 16 31  1  0  0  0  0
 17 32  1  0  0  0  0
 18 32  1  0  0  0  0
 18 33  2  0  0  0  0
 18 34  1  0  0  0  0
 19 21  2  0  0  0  0
 19 39  1  0  0  0  0
 20 23  2  0  0  0  0
 20 40  1  0  0  0  0
 21 53  1  0  0  0  0
 22 52  1  0  0  0  0
 23 41  1  0  0  0  0
 24 26  1  0  0  0  0
 24 56  1  0  0  0  0
 25 26  2  0  0  0  0
 25 64  1  0  0  0  0
 26 78  1  0  0  0  0
 27 89  1  0  0  0  0
 28 90  1  0  0  0  0
 29 31  2  0  0  0  0
 29 89  1  0  0  0  0
 30 91  1  0  0  0  0
 31 92  1  0  0  0  0
 32 72  2  0  0  0  0
 33 73  1  0  0  0  0
 33 76  1  0  0  0  0
 34 77  1  0  0  0  0
 34 84  2  0  0  0  0
 35 54  1  0  0  0  0
 35 79  1  0  0  0  0
 35 85  2  0  0  0  0
 36 69  1  0  0  0  0
 36 74  1  0  0  0  0
 36 86  2  0  0  0  0
 37 70  1  0  0  0  0
 37 80  1  0  0  0  0
 37 87  2  0  0  0  0
 38 75  1  0  0  0  0
 38 78  1  0  0  0  0
 38 88  2  0  0  0  0
 39 42  1  0  0  0  0
 40 54  1  0  0  0  0
 41 74  1  0  0  0  0
 42 44  1  0  0  0  0
 43 45  1  0  0  0  0
 43 48  1  0  0  0  0
 44 53  1  0  0  0  0
 45 55  1  0  0  0  0
 46 50  1  0  0  0  0
 46 52  1  0  0  0  0
 47 51  1  0  0  0  0
 47 52  1  0  0  0  0
 48 75  1  0  0  0  0
 49 55  1  0  0  0  0
 49 75  1  0  0  0  0
 50 81  1  0  0  0  0
 51 81  1  0  0  0  0
 53 79  1  0  0  0  0
 54 74  1  0  0  0  0
 55 73  1  0  0  0  0
 57 65  1  0  0  0  0
 58 70  1  0  0  0  0
 59 71  1  0  0  0  0
 60 71  1  0  0  0  0
 61 71  1  0  0  0  0
 62 82  1  0  0  0  0
 63 83  1  0  0  0  0
 64 83  1  0  0  0  0
 65 67  1  0  0  0  0
 66 68  1  0  0  0  0
 66 81  1  0  0  0  0
 67 83  1  0  0  0  0
 68 90  1  0  0  0  0
 69 71  1  0  0  0  0
 69 80  1  0  0  0  0
 70 82  1  0  0  0  0
 72 73  1  0  0  0  0
M  CHG  3  81   1  82   1  83   1
M  ISO  4  38 100  68 101  78 100  90 101
M  END
> <Batch ID>
0006

> <Smiles>
CCCN(C)Cc1cc(C2CCN(C[101CH2:1][101O:1]c3ccc4c(c3)CN(C(=O)C(NC(=O)C(C)NC)C(C)(C)C)C(C(=O)NC3CCCc5ccccc53)C4)CC2)cc(C)c1[100NH:0][100C:0](=O)N1CCCC(n2nc(-c3ccc(Oc4ccc(F)cc4F)cc3)c(C(N)=O)c2N)C1

> <Shape>
0.278

> <Color>
0.102

> <Negative vol penalty>
0.000

$$$$

  -OEChem-04042320292D

  0  0  0     0  0  0  0  0  0999 V2000
M  END
$$$$

  -OEChem-04042320293D

 80 88  0     1  0  0  0  0  0999 V2000
  -16.6173  -30.0186   23.5923 C   0  0  0  0  0  0  0  0  0  0  0  0
  -17.7185  -30.7175   24.0764 C   0  0  0  0  0  0  0  0  0  0  0  0
  -29.2257  -24.3219   12.7105 C   0  0  0  0  0  0  0  0  0  0  0  0
  -29.9896  -26.2794   13.9028 C   0  0  0  0  0  0  0  0  0  0  0  0
  -16.7945  -28.7794   22.9784 C   0  0  0  0  0  0  0  0  0  0  0  0
  -18.9975  -30.1770   23.9478 C   0  0  0  0  0  0  0  0  0  0  0  0
  -25.8178  -32.1430   22.9809 C   0  0  0  0  0  0  0  0  0  0  0  0
  -32.4556  -27.7407   21.2974 C   0  0  0  0  0  0  0  0  0  0  0  0
  -28.8508  -25.1244   11.6330 C   0  0  0  0  0  0  0  0  0  0  0  0
  -29.6148  -27.0820   12.8253 C   0  0  0  0  0  0  0  0  0  0  0  0
  -27.0815  -31.9586   23.5402 C   0  0  0  0  0  0  0  0  0  0  0  0
  -30.8448  -27.9027    9.7865 C   0  0  0  0  0  0  0  0  0  0  0  0
  -32.9161  -28.8839   21.9505 C   0  0  0  0  0  0  0  0  0  0  0  0
  -31.7429  -28.8846    9.3685 C   0  0  0  0  0  0  0  0  0  0  0  0
  -27.2751  -29.8464   22.3910 C   0  0  0  0  0  0  0  0  0  0  0  0
  -30.7066  -27.5027   22.9471 C   0  0  0  0  0  0  0  0  0  0  0  0
  -30.0921  -30.5888    9.8247 C   0  0  0  0  0  0  0  0  0  0  0  0
  -29.7950  -24.8994   13.8455 C   0  0  0  0  0  0  0  0  0  0  0  0
  -31.1169  -23.0187   14.9513 C   0  0  0  0  0  0  0  0  0  0  0  0
  -18.0772  -28.2279   22.8336 C   0  0  0  0  0  0  0  0  0  0  0  0
  -25.2677  -31.1739   22.1297 C   0  0  0  0  0  0  0  0  0  0  0  0
  -19.1918  -28.9287   23.3326 C   0  0  0  0  0  0  0  0  0  0  0  0
  -26.0053  -30.0222   21.8202 C   0  0  0  0  0  0  0  0  0  0  0  0
  -31.1672  -28.6459   23.6003 C   0  0  0  0  0  0  0  0  0  0  0  0
  -31.3508  -27.0501   21.7957 C   0  0  0  0  0  0  0  0  0  0  0  0
  -29.0454  -26.5044   11.6903 C   0  0  0  0  0  0  0  0  0  0  0  0
  -27.8091  -30.8088   23.2475 C   0  0  0  0  0  0  0  0  0  0  0  0
  -29.5703  -28.2638   10.2236 C   0  0  0  0  0  0  0  0  0  0  0  0
  -31.3666  -30.2277    9.3876 C   0  0  0  0  0  0  0  0  0  0  0  0
  -32.2720  -29.3365   23.1019 C   0  0  0  0  0  0  0  0  0  0  0  0
  -29.1940  -29.6068   10.2427 C   0  0  0  0  0  0  0  0  0  0  0  0
  -30.1819  -24.0710   14.9591 C   0  0  0  0  0  0  0  0  0  0  0  0
  -31.1238  -22.5560   16.2445 C   0  0  0  0  0  0  0  0  0  0  0  0
  -31.9085  -22.5053   13.8717 C   0  0  0  0  0  0  0  0  0  0  0  0
  -22.6944  -29.3101   22.2193 C   0  0  0  0  0  0  0  0  0  0  0  0
  -23.6368  -28.5267   19.2159 C   0  0  0  0  0  0  0  0  0  0  0  0
  -26.1694  -28.3061   16.9390 C   0  0  0  0  0  0  0  0  0  0  0  0
  -29.8007  -25.0875   21.4930 C   0  0  0  0  0  0  0  0  0  0  0  0
  -18.2142  -26.8636   22.2053 C   0  0  0  0  0  0  0  0  0  0  0  0
  -23.9145  -31.4003   21.5134 C   0  0  0  0  0  0  0  0  0  0  0  0
  -25.4681  -28.9611   20.8961 C   0  0  0  0  0  0  0  0  0  0  0  0
  -19.6403  -26.5324   21.7732 C   0  0  0  0  0  0  0  0  0  0  0  0
  -28.3081  -22.1708   20.0991 C   0  0  0  0  0  0  0  0  0  0  0  0
  -20.6290  -26.8853   22.8800 C   0  0  0  0  0  0  0  0  0  0  0  0
  -28.7094  -22.2281   18.6234 C   0  0  0  0  0  0  0  0  0  0  0  0
  -28.0234  -23.5614   20.6638 C   0  0  0  0  0  0  0  0  0  0  0  0
  -29.4960  -24.6024   18.9855 C   0  0  0  0  0  0  0  0  0  0  0  0
  -20.5975  -28.3868   23.1897 C   0  0  1  0  0  0  0  0  0  0  0  0
  -23.2371  -30.1081   21.0676 C   0  0  1  0  0  0  0  0  0  0  0  0
  -29.8558  -23.2316   18.3897 C   0  0  2  0  0  0  0  0  0  0  0  0
  -26.6405  -27.5933   14.5795 C   0  0  0  0  0  0  0  0  0  0  0  0
  -23.5372  -25.6026   20.0820 C   0  0  0  0  0  0  0  0  0  0  0  0
  -24.8951  -25.0294   18.0582 C   0  0  0  0  0  0  0  0  0  0  0  0
  -22.6318  -26.0441   17.7929 C   0  0  0  0  0  0  0  0  0  0  0  0
  -27.0333  -31.0291   16.1659 C   0  0  0  0  0  0  0  0  0  0  0  0
  -30.4697  -29.1334   24.8423 C   0  0  0  0  0  0  0  0  0  0  0  0
  -24.5435  -27.4773   18.6195 C   0  0  1  0  0  0  0  0  0  0  0  0
  -26.2634  -28.7510   15.4906 C   0  0  2  0  0  0  0  0  0  0  0  0
  -23.9115  -26.0572   18.6571 C   0  0  0  0  0  0  0  0  0  0  0  0
  -29.6344  -24.2655   16.1618 N   0  0  0  0  0  0  0  0  0  0  0  0
  -30.2272  -23.3290   16.9218 N   0  0  0  0  0  0  0  0  0  0  0  0
  -24.1378  -29.2254   20.3234 N   0  0  0  0  0  0  0  0  0  0  0  0
  -29.1543  -24.4564   20.4091 N   0  0  0  0  0  0  0  0  0  0  0  0
  -31.8093  -21.5674   16.8570 N   0  0  0  0  0  0  0  0  0  0  0  0
  -33.1753  -23.0619   13.6486 N   0  0  0  0  0  0  0  0  0  0  0  0
  -30.8827  -25.8893   21.1314 N   0  0  0  0  0  0  0  0  0  0  0  0
  -21.3254  -29.1263   22.1808 N   0  0  0  0  0  0  0  0  0  0  0  0
  -24.8831  -27.9449   17.2799 N   0  0  0  0  0  0  0  0  0  0  0  0
  -29.0603  -29.4069   24.6005 N   0  0  0  0  0  0  0  0  0  1  0  0
  -27.2914  -29.8197   15.3427 N   0  3  0  0  0  0  0  0  0  0  0  0
  -31.4977  -21.5917   13.1167 O   0  0  0  0  0  0  0  0  0  0  0  0
  -23.4611  -28.8909   23.0784 O   0  0  0  0  0  0  0  0  0  0  0  0
  -22.5279  -28.7242   18.7131 O   0  0  0  0  0  0  0  0  0  0  0  0
  -27.1407  -28.2781   17.6916 O   0  0  0  0  0  0  0  0  0  0  0  0
  -29.4391  -24.9068   22.6586 O   0  0  0  0  0  0  0  0  0  0  0  0
  -28.6800  -27.2878   10.6390 O   0  0  0  0  0  0  0  0  0  0  0  0
  -29.0426  -30.6259   23.7925 O   0  0  0  0  0  0  0  0  0  1  0  0
  -32.2298  -31.1706    8.9876 F   0  0  0  0  0  0  0  0  0  0  0  0
  -32.7227  -30.4352   23.7232 F   0  0  0  0  0  0  0  0  0  0  0  0
  -27.9714  -29.9599   10.6626 F   0  0  0  0  0  0  0  0  0  0  0  0
  1  2  1  0  0  0  0
  1  5  2  0  0  0  0
  2  6  2  0  0  0  0
  3  9  2  0  0  0  0
  3 18  1  0  0  0  0
  4 10  1  0  0  0  0
  4 18  2  0  0  0  0
  5 20  1  0  0  0  0
  6 22  1  0  0  0  0
  7 11  2  0  0  0  0
  7 21  1  0  0  0  0
  8 13  2  0  0  0  0
  8 25  1  0  0  0  0
  9 26  1  0  0  0  0
 10 26  2  0  0  0  0
 11 27  1  0  0  0  0
 12 14  2  0  0  0  0
 12 28  1  0  0  0  0
 13 30  1  0  0  0  0
 14 29  1  0  0  0  0
 15 23  1  0  0  0  0
 15 27  2  0  0  0  0
 16 24  1  0  0  0  0
 16 25  2  0  0  0  0
 17 29  2  0  0  0  0
 17 31  1  0  0  0  0
 18 32  1  0  0  0  0
 19 32  1  0  0  0  0
 19 33  2  0  0  0  0
 19 34  1  0  0  0  0
 20 22  2  0  0  0  0
 20 39  1  0  0  0  0
 21 23  2  0  0  0  0
 21 40  1  0  0  0  0
 22 48  1  0  0  0  0
 23 41  1  0  0  0  0
 24 30  2  0  0  0  0
 24 56  1  0  0  0  0
 25 66  1  0  0  0  0
 26 76  1  0  0  0  0
 27 77  1  0  0  0  0
 28 31  2  0  0  0  0
 28 76  1  0  0  0  0
 29 78  1  0  0  0  0
 30 79  1  0  0  0  0
 31 80  1  0  0  0  0
 32 60  2  0  0  0  0
 33 61  1  0  0  0  0
 33 64  1  0  0  0  0
 34 65  1  0  0  0  0
 34 71  2  0  0  0  0
 35 49  1  0  0  0  0
 35 67  1  0  0  0  0
 35 72  2  0  0  0  0
 36 57  1  0  0  0  0
 36 62  1  0  0  0  0
 36 73  2  0  0  0  0
 37 58  1  0  0  0  0
 37 68  1  0  0  0  0
 37 74  2  0  0  0  0
 38 63  1  0  0  0  0
 38 66  1  0  0  0  0
 38 75  2  0  0  0  0
 39 42  1  0  0  0  0
 40 49  1  0  0  0  0
 41 62  1  0  0  0  0
 42 44  1  0  0  0  0
 43 45  1  0  0  0  0
 43 46  1  0  0  0  0
 44 48  1  0  0  0  0
 45 50  1  0  0  0  0
 46 63  1  0  0  0  0
 47 50  1  0  0  0  0
 47 63  1  0  0  0  0
 48 67  1  0  0  0  0
 49 62  1  0  0  0  0
 50 61  1  0  0  0  0
 51 58  1  0  0  0  0
 52 59  1  0  0  0  0
 53 59  1  0  0  0  0
 54 59  1  0  0  0  0
 55 70  1  0  0  0  0
 56 69  1  0  0  0  0
 57 59  1  0  0  0  0
 57 68  1  0  0  0  0
 58 70  1  0  0  0  0
 60 61  1  0  0  0  0
 69 77  1  0  0  0  0
M  CHG  1  70   1
M  ISO  4  38 100  66 100  69 101  77 101
M  END
> <Batch ID>
0006

> <Smiles>
CNC(C)C(=O)NC(C(=O)N1Cc2cc([101O:1][101NH:1]Cc3cc([100NH:0][100C:0](=O)N4CCCC(n5nc(-c6ccc(Oc7ccc(F)cc7F)cc6)c(C(N)=O)c5N)C4)ccc3F)ccc2CC1C(=O)NC1CCCc2ccccc21)C(C)(C)C

> <Shape>
0.199

> <Color>
0.099

> <Negative vol penalty>
0.000

$$$$

  -OEChem-04042320293D

 91100  0     1  0  0  0  0  0999 V2000
  -27.6492  -19.1439   16.3130 C   0  0  0  0  0  0  0  0  0  0  0  0
  -26.7333  -20.1854   16.2038 C   0  0  0  0  0  0  0  0  0  0  0  0
  -25.3629  -15.7394   17.8114 C   0  0  0  0  0  0  0  0  0  0  0  0
  -25.2471  -17.1709   19.7542 C   0  0  0  0  0  0  0  0  0  0  0  0
  -28.4405  -19.0299   17.4552 C   0  0  0  0  0  0  0  0  0  0  0  0
  -26.6075  -21.1129   17.2374 C   0  0  0  0  0  0  0  0  0  0  0  0
  -25.1502  -28.0326   18.3821 C   0  0  0  0  0  0  0  0  0  0  0  0
  -26.6421  -15.3309   18.1886 C   0  0  0  0  0  0  0  0  0  0  0  0
  -26.5264  -16.7624   20.1315 C   0  0  0  0  0  0  0  0  0  0  0  0
  -24.3091  -28.8449   19.1415 C   0  0  0  0  0  0  0  0  0  0  0  0
  -28.0179  -13.1842   20.4094 C   0  0  0  0  0  0  0  0  0  0  0  0
  -28.3079  -11.8213   20.3467 C   0  0  0  0  0  0  0  0  0  0  0  0
  -25.7847  -28.5940   21.0333 C   0  0  0  0  0  0  0  0  0  0  0  0
  -20.6228  -26.7258   18.2579 C   0  0  0  0  0  0  0  0  0  0  0  0
  -20.1977  -25.3867   20.2234 C   0  0  0  0  0  0  0  0  0  0  0  0
  -30.0838  -12.2717   18.7718 C   0  0  0  0  0  0  0  0  0  0  0  0
  -24.6654  -16.6595   18.5942 C   0  0  0  0  0  0  0  0  0  0  0  0
  -22.1202  -16.4897   18.5688 C   0  0  0  0  0  0  0  0  0  0  0  0
  -28.3312  -19.9621   18.4991 C   0  0  0  0  0  0  0  0  0  0  0  0
  -26.3111  -27.4851   18.9468 C   0  0  0  0  0  0  0  0  0  0  0  0
  -27.3972  -21.0105   18.3952 C   0  0  0  0  0  0  0  0  0  0  0  0
  -26.6402  -27.7772   20.2782 C   0  0  0  0  0  0  0  0  0  0  0  0
  -20.2447  -26.6323   19.5973 C   0  0  0  0  0  0  0  0  0  0  0  0
  -20.9068  -24.3282   18.1706 C   0  0  0  0  0  0  0  0  0  0  0  0
  -27.2239  -15.8424   19.3486 C   0  0  0  0  0  0  0  0  0  0  0  0
  -24.6248  -29.1233   20.4681 C   0  0  0  0  0  0  0  0  0  0  0  0
  -28.7607  -14.0909   19.6532 C   0  0  0  0  0  0  0  0  0  0  0  0
  -29.3409  -11.3651   19.5280 C   0  0  0  0  0  0  0  0  0  0  0  0
  -20.9538  -25.5737   17.5446 C   0  0  0  0  0  0  0  0  0  0  0  0
  -20.5287  -24.2346   19.5100 C   0  0  0  0  0  0  0  0  0  0  0  0
  -29.7937  -13.6347   18.8344 C   0  0  0  0  0  0  0  0  0  0  0  0
  -23.3442  -17.0823   18.2048 C   0  0  0  0  0  0  0  0  0  0  0  0
  -21.1677  -17.2589   17.9463 C   0  0  0  0  0  0  0  0  0  0  0  0
  -17.2710  -29.2180   23.8051 C   0  0  0  0  0  0  0  0  0  0  0  0
  -18.2463  -28.8459   24.6458 C   0  0  0  0  0  0  0  0  0  0  0  0
  -21.8668  -15.3461   19.3957 C   0  0  0  0  0  0  0  0  0  0  0  0
  -19.0138  -27.9123   21.3780 C   0  0  0  0  0  0  0  0  0  0  0  0
  -27.3609  -24.5363   19.5000 C   0  0  0  0  0  0  0  0  0  0  0  0
  -30.0686  -26.0855   20.3890 C   0  0  0  0  0  0  0  0  0  0  0  0
  -31.5248  -28.9563   21.5224 C   0  0  0  0  0  0  0  0  0  0  0  0
  -21.0851  -22.9346   16.0796 C   0  0  0  0  0  0  0  0  0  0  0  0
  -29.1744  -19.7704   19.7348 C   0  0  0  0  0  0  0  0  0  0  0  0
  -27.2219  -26.6326   18.1065 C   0  0  0  0  0  0  0  0  0  0  0  0
  -27.8855  -27.2306   20.9255 C   0  0  0  0  0  0  0  0  0  0  0  0
  -17.5142  -29.6278   22.3793 C   0  0  0  0  0  0  0  0  0  0  0  0
  -19.6978  -28.8283   24.2652 C   0  0  0  0  0  0  0  0  0  0  0  0
  -29.2451  -21.0104   20.6223 C   0  0  0  0  0  0  0  0  0  0  0  0
  -20.5242  -20.0320   14.0953 C   0  0  0  0  0  0  0  0  0  0  0  0
  -27.8543  -21.6047   20.8209 C   0  0  0  0  0  0  0  0  0  0  0  0
  -21.0668  -18.8916   14.9596 C   0  0  0  0  0  0  0  0  0  0  0  0
  -21.3685  -21.2979   14.2314 C   0  0  0  0  0  0  0  0  0  0  0  0
  -22.1252  -20.6156   16.4744 C   0  0  0  0  0  0  0  0  0  0  0  0
  -27.2490  -22.0507   19.4844 C   0  0  1  0  0  0  0  0  0  0  0  0
  -18.9373  -29.3304   21.8763 C   0  0  1  0  0  0  0  0  0  0  0  0
  -28.1101  -25.7100   18.9355 C   0  0  1  0  0  0  0  0  0  0  0  0
  -21.2700  -19.3392   16.4204 C   0  0  2  0  0  0  0  0  0  0  0  0
  -19.9668  -29.6125   22.9767 C   0  0  2  0  0  0  0  0  0  0  0  0
  -33.7495  -29.9058   22.1905 C   0  0  0  0  0  0  0  0  0  0  0  0
  -29.9205  -24.5671   23.0314 C   0  0  0  0  0  0  0  0  0  0  0  0
  -31.5498  -26.2105   23.9869 C   0  0  0  0  0  0  0  0  0  0  0  0
  -32.2203  -24.7636   22.0687 C   0  0  0  0  0  0  0  0  0  0  0  0
  -31.4128  -31.0168   19.4010 C   0  0  0  0  0  0  0  0  0  0  0  0
  -22.4109  -30.0912   23.1629 C   0  0  0  0  0  0  0  0  0  0  0  0
  -23.7589  -29.6650   22.6158 C   0  0  0  0  0  0  0  0  0  1  0  0
  -30.5956  -26.6615   21.6810 C   0  0  1  0  0  0  0  0  0  0  0  0
  -32.7549  -29.7139   21.0562 C   0  0  2  0  0  0  0  0  0  0  0  0
  -31.0470  -25.5596   22.6807 C   0  0  0  0  0  0  0  0  0  0  0  0
  -23.1866  -18.1459   17.4124 N   0  0  0  0  0  0  0  0  0  0  0  0
  -21.8524  -18.2276   17.2732 N   0  0  0  0  0  0  0  0  0  0  0  0
  -28.7407  -26.3970   20.0645 N   0  0  0  0  0  0  0  0  0  0  0  0
  -21.5146  -21.6639   15.6419 N   0  0  0  0  0  0  0  0  0  0  0  0
  -19.8197  -17.1944   17.9144 N   0  0  0  0  0  0  0  0  0  0  0  0
  -22.9600  -14.6719   19.9567 N   0  0  0  0  0  0  0  0  0  0  0  0
  -19.9083  -27.8008   20.3211 N   0  0  0  0  0  0  0  0  0  0  0  0
  -21.2441  -23.1576   17.4469 N   0  0  0  0  0  0  0  0  0  0  0  0
  -27.8250  -23.3100   19.0638 N   0  0  0  0  0  0  0  0  0  0  0  0
  -31.6495  -27.5996   21.3099 N   0  0  0  0  0  0  0  0  0  0  0  0
  -21.3414  -29.3033   22.4998 N   0  3  0  0  0  0  0  0  0  0  0  0
  -32.3702  -31.0565   20.5362 N   0  3  0  0  0  0  0  0  0  0  0  0
  -20.7063  -14.9246   19.6168 O   0  0  0  0  0  0  0  0  0  0  0  0
  -18.3414  -27.0271   21.8968 O   0  0  0  0  0  0  0  0  0  0  0  0
  -26.4315  -24.7289   20.2752 O   0  0  0  0  0  0  0  0  0  0  0  0
  -30.8102  -25.3907   19.6897 O   0  0  0  0  0  0  0  0  0  0  0  0
  -30.5523  -29.5120   22.0283 O   0  0  0  0  0  0  0  0  0  0  0  0
  -20.5860  -23.7537   15.3037 O   0  0  0  0  0  0  0  0  0  0  0  0
  -28.4720  -15.4438   19.7171 O   0  0  0  0  0  0  0  0  0  0  0  0
  -23.8053  -29.9153   21.2117 O   0  0  0  0  0  0  0  0  0  1  0  0
  -29.6204  -10.0564   19.4691 F   0  0  0  0  0  0  0  0  0  0  0  0
  -21.3153  -25.6757   16.2574 F   0  0  0  0  0  0  0  0  0  0  0  0
  -20.4794  -23.0428   20.1222 F   0  0  0  0  0  0  0  0  0  0  0  0
  -30.5117  -14.5010   18.1066 F   0  0  0  0  0  0  0  0  0  0  0  0
  1  2  1  0  0  0  0
  1  5  2  0  0  0  0
  2  6  2  0  0  0  0
  3  8  2  0  0  0  0
  3 17  1  0  0  0  0
  4  9  1  0  0  0  0
  4 17  2  0  0  0  0
  5 19  1  0  0  0  0
  6 21  1  0  0  0  0
  7 10  2  0  0  0  0
  7 20  1  0  0  0  0
  8 25  1  0  0  0  0
  9 25  2  0  0  0  0
 10 26  1  0  0  0  0
 11 12  2  0  0  0  0
 11 27  1  0  0  0  0
 12 28  1  0  0  0  0
 13 22  1  0  0  0  0
 13 26  2  0  0  0  0
 14 23  1  0  0  0  0
 14 29  2  0  0  0  0
 15 23  2  0  0  0  0
 15 30  1  0  0  0  0
 16 28  2  0  0  0  0
 16 31  1  0  0  0  0
 17 32  1  0  0  0  0
 18 32  1  0  0  0  0
 18 33  2  0  0  0  0
 18 36  1  0  0  0  0
 19 21  2  0  0  0  0
 19 42  1  0  0  0  0
 20 22  2  0  0  0  0
 20 43  1  0  0  0  0
 21 53  1  0  0  0  0
 22 44  1  0  0  0  0
 23 74  1  0  0  0  0
 24 29  1  0  0  0  0
 24 30  2  0  0  0  0
 24 75  1  0  0  0  0
 25 86  1  0  0  0  0
 26 87  1  0  0  0  0
 27 31  2  0  0  0  0
 27 86  1  0  0  0  0
 28 88  1  0  0  0  0
 29 89  1  0  0  0  0
 30 90  1  0  0  0  0
 31 91  1  0  0  0  0
 32 68  2  0  0  0  0
 33 69  1  0  0  0  0
 33 72  1  0  0  0  0
 34 35  2  0  0  0  0
 34 45  1  0  0  0  0
 35 46  1  0  0  0  0
 36 73  1  0  0  0  0
 36 80  2  0  0  0  0
 37 54  1  0  0  0  0
 37 74  1  0  0  0  0
 37 81  2  0  0  0  0
 38 55  1  0  0  0  0
 38 76  1  0  0  0  0
 38 82  2  0  0  0  0
 39 65  1  0  0  0  0
 39 70  1  0  0  0  0
 39 83  2  0  0  0  0
 40 66  1  0  0  0  0
 40 77  1  0  0  0  0
 40 84  2  0  0  0  0
 41 71  1  0  0  0  0
 41 75  1  0  0  0  0
 41 85  2  0  0  0  0
 42 47  1  0  0  0  0
 43 55  1  0  0  0  0
 44 70  1  0  0  0  0
 45 54  1  0  0  0  0
 46 57  1  0  0  0  0
 47 49  1  0  0  0  0
 48 50  1  0  0  0  0
 48 51  1  0  0  0  0
 49 53  1  0  0  0  0
 50 56  1  0  0  0  0
 51 71  1  0  0  0  0
 52 56  1  0  0  0  0
 52 71  1  0  0  0  0
 53 76  1  0  0  0  0
 54 57  1  0  0  0  0
 55 70  1  0  0  0  0
 56 69  1  0  0  0  0
 57 78  1  0  0  0  0
 58 66  1  0  0  0  0
 59 67  1  0  0  0  0
 60 67  1  0  0  0  0
 61 67  1  0  0  0  0
 62 79  1  0  0  0  0
 63 64  1  0  0  0  0
 63 78  1  0  0  0  0
 64 87  1  0  0  0  0
 65 67  1  0  0  0  0
 65 77  1  0  0  0  0
 66 79  1  0  0  0  0
 68 69  1  0  0  0  0
M  CHG  2  78   1  79   1
M  ISO  4  41 100  64 101  75 100  87 101
M  END
> <Batch ID>
0006

> <Smiles>
CNC(C)C(=O)NC(C(=O)N1Cc2cc([101O:1][101CH2:1]CNC3CC=CCC3C(=O)Nc3cc(F)c([100NH:0][100C:0](=O)N4CCCC(n5nc(-c6ccc(Oc7ccc(F)cc7F)cc6)c(C(N)=O)c5N)C4)c(F)c3)ccc2CC1C(=O)NC1CCCc2ccccc21)C(C)(C)C

> <Shape>
0.207

> <Color>
0.075

> <Negative vol penalty>
0.000

$$$$

  -OEChem-04042320293D

 83 91  0     1  0  0  0  0  0999 V2000
  -27.9288  -36.5423   26.9486 C   0  0  0  0  0  0  0  0  0  0  0  0
  -26.9628  -35.6726   27.4443 C   0  0  0  0  0  0  0  0  0  0  0  0
  -23.9575   -9.7849   21.9855 C   0  0  0  0  0  0  0  0  0  0  0  0
  -22.0949  -10.4777   20.6115 C   0  0  0  0  0  0  0  0  0  0  0  0
  -22.3433  -22.2128   25.2180 C   0  0  0  0  0  0  0  0  0  0  0  0
  -20.2708  -22.6941   24.0733 C   0  0  0  0  0  0  0  0  0  0  0  0
  -28.0232  -36.7684   25.5760 C   0  0  0  0  0  0  0  0  0  0  0  0
  -26.0898  -35.0292   26.5678 C   0  0  0  0  0  0  0  0  0  0  0  0
  -23.7910  -29.3823   27.1456 C   0  0  0  0  0  0  0  0  0  0  0  0
  -22.0011  -23.1214   26.2195 C   0  0  0  0  0  0  0  0  0  0  0  0
  -19.9286  -23.6027   25.0749 C   0  0  0  0  0  0  0  0  0  0  0  0
  -23.4750   -8.4762   21.9798 C   0  0  0  0  0  0  0  0  0  0  0  0
  -21.6124   -9.1690   20.6058 C   0  0  0  0  0  0  0  0  0  0  0  0
  -22.5664  -28.9118   27.6177 C   0  0  0  0  0  0  0  0  0  0  0  0
  -21.0706   -6.7015   23.5591 C   0  0  0  0  0  0  0  0  0  0  0  0
  -21.0521   -6.0131   24.7721 C   0  0  0  0  0  0  0  0  0  0  0  0
  -21.7355  -28.8221   25.3548 C   0  0  0  0  0  0  0  0  0  0  0  0
  -22.5192   -4.3342   23.8416 C   0  0  0  0  0  0  0  0  0  0  0  0
  -23.2674  -10.7857   21.3014 C   0  0  0  0  0  0  0  0  0  0  0  0
  -21.4781  -21.9992   24.1448 C   0  0  0  0  0  0  0  0  0  0  0  0
  -24.6590  -12.7188   20.3881 C   0  0  0  0  0  0  0  0  0  0  0  0
  -27.1573  -36.1200   24.6814 C   0  0  0  0  0  0  0  0  0  0  0  0
  -23.9938  -29.5868   25.7732 C   0  0  0  0  0  0  0  0  0  0  0  0
  -26.1719  -35.2478   25.1820 C   0  0  0  0  0  0  0  0  0  0  0  0
  -22.9645  -29.2927   24.8677 C   0  0  0  0  0  0  0  0  0  0  0  0
  -20.7938  -23.8163   26.1480 C   0  0  0  0  0  0  0  0  0  0  0  0
  -22.3024   -8.1682   21.2899 C   0  0  0  0  0  0  0  0  0  0  0  0
  -21.5375  -28.6344   26.7225 C   0  0  0  0  0  0  0  0  0  0  0  0
  -21.8134   -6.2062   22.4873 C   0  0  0  0  0  0  0  0  0  0  0  0
  -21.7764   -4.8295   24.9134 C   0  0  0  0  0  0  0  0  0  0  0  0
  -22.5377   -5.0226   22.6286 C   0  0  0  0  0  0  0  0  0  0  0  0
  -23.7651  -12.1379   21.3074 C   0  0  0  0  0  0  0  0  0  0  0  0
  -24.8134  -14.0105   20.8287 C   0  0  0  0  0  0  0  0  0  0  0  0
  -21.8403  -21.0365   23.0836 C   0  0  0  0  0  0  0  0  0  0  0  0
  -25.2932  -12.1423   19.2386 C   0  0  0  0  0  0  0  0  0  0  0  0
  -24.6583  -32.1082   23.9553 C   0  0  0  0  0  0  0  0  0  0  0  0
  -24.8982  -29.8708   21.6188 C   0  0  0  0  0  0  0  0  0  0  0  0
  -24.0422  -26.7706   20.4773 C   0  0  0  0  0  0  0  0  0  0  0  0
  -22.3981  -18.6758   22.5428 C   0  0  0  0  0  0  0  0  0  0  0  0
  -27.2667  -36.4323   23.2100 C   0  0  0  0  0  0  0  0  0  0  0  0
  -25.3295  -30.0694   25.2778 C   0  0  0  0  0  0  0  0  0  0  0  0
  -23.1381  -29.4761   23.3828 C   0  0  0  0  0  0  0  0  0  0  0  0
  -26.5478  -35.4234   22.3180 C   0  0  0  0  0  0  0  0  0  0  0  0
  -23.4327  -16.2290   25.1314 C   0  0  0  0  0  0  0  0  0  0  0  0
  -25.1522  -35.1311   22.8599 C   0  0  0  0  0  0  0  0  0  0  0  0
  -23.6070  -14.9737   24.2839 C   0  0  0  0  0  0  0  0  0  0  0  0
  -22.3395  -17.1470   24.5861 C   0  0  0  0  0  0  0  0  0  0  0  0
  -22.7121  -16.2474   22.2997 C   0  0  0  0  0  0  0  0  0  0  0  0
  -25.2229  -34.5120   24.2610 C   0  0  1  0  0  0  0  0  0  0  0  0
  -25.2544  -30.7298   23.9046 C   0  0  1  0  0  0  0  0  0  0  0  0
  -23.8455  -15.3483   22.8142 C   0  0  2  0  0  0  0  0  0  0  0  0
  -24.3603  -25.2359   18.5175 C   0  0  0  0  0  0  0  0  0  0  0  0
  -22.9070  -31.5248   20.0035 C   0  0  0  0  0  0  0  0  0  0  0  0
  -22.5450  -29.5285   18.5366 C   0  0  0  0  0  0  0  0  0  0  0  0
  -24.8022  -30.5817   18.6720 C   0  0  0  0  0  0  0  0  0  0  0  0
  -25.3509  -24.7123   22.1535 C   0  0  0  0  0  0  0  0  0  0  0  0
  -19.1863  -26.4243   28.3460 C   0  0  0  0  0  0  0  0  0  0  0  0
  -19.2282  -25.4805   27.1503 C   0  0  0  0  0  0  0  0  0  0  0  0
  -20.3585  -27.3980   28.3769 C   0  0  0  0  0  0  0  0  0  1  0  0
  -23.9388  -29.2442   20.6361 C   0  0  1  0  0  0  0  0  0  0  0  0
  -24.8771  -25.6487   19.8869 C   0  0  2  0  0  0  0  0  0  0  0  0
  -23.5440  -30.2181   19.4901 C   0  0  0  0  0  0  0  0  0  0  0  0
  -23.3788  -12.9905   22.2602 N   0  0  0  0  0  0  0  0  0  0  0  0
  -24.0332  -14.1204   21.9419 N   0  0  0  0  0  0  0  0  0  0  0  0
  -24.4603  -29.9561   22.9480 N   0  0  0  0  0  0  0  0  0  0  0  0
  -22.5141  -17.4236   23.1536 N   0  0  0  0  0  0  0  0  0  0  0  0
  -25.5391  -15.0517   20.3686 N   0  0  0  0  0  0  0  0  0  0  0  0
  -25.0241  -10.8022   18.9289 N   0  0  0  0  0  0  0  0  0  0  0  0
  -20.4541  -24.7194   27.1432 N   0  0  0  0  0  0  0  0  0  0  0  0
  -22.0393  -19.7568   23.4355 N   0  0  0  0  0  0  0  0  0  0  0  0
  -25.5812  -33.1124   24.1777 N   0  0  0  0  0  0  0  0  0  0  0  0
  -24.5691  -28.0098   20.1806 N   0  0  0  0  0  0  0  0  0  0  0  0
  -21.9524  -21.5028   21.8401 N   0  3  0  0  0  0  0  0  0  0  0  0
  -24.8472  -24.4557   20.7796 N   0  3  0  0  0  0  0  0  0  0  0  0
  -26.0879  -12.7916   18.5173 O   0  0  0  0  0  0  0  0  0  0  0  0
  -23.4508  -32.2503   23.8024 O   0  0  0  0  0  0  0  0  0  0  0  0
  -25.9986  -30.2634   21.2231 O   0  0  0  0  0  0  0  0  0  0  0  0
  -23.0225  -26.5681   21.1327 O   0  0  0  0  0  0  0  0  0  0  0  0
  -22.5447  -18.9023   21.3465 O   0  0  0  0  0  0  0  0  0  0  0  0
  -21.8314   -6.8912   21.2839 O   0  0  0  0  0  0  0  0  0  0  0  0
  -20.3410  -28.1757   27.1806 O   0  0  0  0  0  0  0  0  0  1  0  0
  -21.7597   -4.1693   26.0787 F   0  0  0  0  0  0  0  0  0  0  0  0
  -23.2541   -4.5424   21.6029 F   0  0  0  0  0  0  0  0  0  0  0  0
  1  2  1  0  0  0  0
  1  7  2  0  0  0  0
  2  8  2  0  0  0  0
  3 12  2  0  0  0  0
  3 19  1  0  0  0  0
  4 13  1  0  0  0  0
  4 19  2  0  0  0  0
  5 10  2  0  0  0  0
  5 20  1  0  0  0  0
  6 11  1  0  0  0  0
  6 20  2  0  0  0  0
  7 22  1  0  0  0  0
  8 24  1  0  0  0  0
  9 14  2  0  0  0  0
  9 23  1  0  0  0  0
 10 26  1  0  0  0  0
 11 26  2  0  0  0  0
 12 27  1  0  0  0  0
 13 27  2  0  0  0  0
 14 28  1  0  0  0  0
 15 16  2  0  0  0  0
 15 29  1  0  0  0  0
 16 30  1  0  0  0  0
 17 25  1  0  0  0  0
 17 28  2  0  0  0  0
 18 30  2  0  0  0  0
 18 31  1  0  0  0  0
 19 32  1  0  0  0  0
 20 34  1  0  0  0  0
 21 32  1  0  0  0  0
 21 33  2  0  0  0  0
 21 35  1  0  0  0  0
 22 24  2  0  0  0  0
 22 40  1  0  0  0  0
 23 25  2  0  0  0  0
 23 41  1  0  0  0  0
 24 49  1  0  0  0  0
 25 42  1  0  0  0  0
 26 69  1  0  0  0  0
 27 80  1  0  0  0  0
 28 81  1  0  0  0  0
 29 31  2  0  0  0  0
 29 80  1  0  0  0  0
 30 82  1  0  0  0  0
 31 83  1  0  0  0  0
 32 63  2  0  0  0  0
 33 64  1  0  0  0  0
 33 67  1  0  0  0  0
 34 70  1  0  0  0  0
 34 73  2  0  0  0  0
 35 68  1  0  0  0  0
 35 75  2  0  0  0  0
 36 50  1  0  0  0  0
 36 71  1  0  0  0  0
 36 76  2  0  0  0  0
 37 60  1  0  0  0  0
 37 65  1  0  0  0  0
 37 77  2  0  0  0  0
 38 61  1  0  0  0  0
 38 72  1  0  0  0  0
 38 78  2  0  0  0  0
 39 66  1  0  0  0  0
 39 70  1  0  0  0  0
 39 79  2  0  0  0  0
 40 43  1  0  0  0  0
 41 50  1  0  0  0  0
 42 65  1  0  0  0  0
 43 45  1  0  0  0  0
 44 46  1  0  0  0  0
 44 47  1  0  0  0  0
 45 49  1  0  0  0  0
 46 51  1  0  0  0  0
 47 66  1  0  0  0  0
 48 51  1  0  0  0  0
 48 66  1  0  0  0  0
 49 71  1  0  0  0  0
 50 65  1  0  0  0  0
 51 64  1  0  0  0  0
 52 61  1  0  0  0  0
 53 62  1  0  0  0  0
 54 62  1  0  0  0  0
 55 62  1  0  0  0  0
 56 74  1  0  0  0  0
 57 58  1  0  0  0  0
 57 59  1  0  0  0  0
 58 69  1  0  0  0  0
 59 81  1  0  0  0  0
 60 62  1  0  0  0  0
 60 72  1  0  0  0  0
 61 74  1  0  0  0  0
 63 64  1  0  0  0  0
M  CHG  2  73   1  74   1
M  ISO  4  39 100  59 101  70 100  81 101
M  END
> <Batch ID>
0006

> <Smiles>
CNC(C)C(=O)NC(C(=O)N1Cc2cc([101O:1][101CH2:1]CCNc3ccc(C(N)=[100N:0][100C:0](=O)N4CCCC(n5nc(-c6ccc(Oc7ccc(F)cc7F)cc6)c(C(N)=O)c5N)C4)cc3)ccc2CC1C(=O)NC1CCCc2ccccc21)C(C)(C)C

> <Shape>
0.228

> <Color>
0.125

> <Negative vol penalty>
0.000

$$$$

  -OEChem-04042320293D

 90100  0     1  0  0  0  0  0999 V2000
  -23.6341  -20.3711   24.6393 C   0  0  0  0  0  0  0  0  0  0  0  0
  -23.3848  -21.6843   24.2459 C   0  0  0  0  0  0  0  0  0  0  0  0
  -25.3427  -37.0098   18.3669 C   0  0  0  0  0  0  0  0  0  0  0  0
  -25.9015  -35.7704   18.0718 C   0  0  0  0  0  0  0  0  0  0  0  0
  -24.3876   -9.9261   20.9178 C   0  0  0  0  0  0  0  0  0  0  0  0
  -24.8145  -10.7208   23.1591 C   0  0  0  0  0  0  0  0  0  0  0  0
  -24.6741  -19.6501   24.0518 C   0  0  0  0  0  0  0  0  0  0  0  0
  -24.1743  -22.2824   23.2633 C   0  0  0  0  0  0  0  0  0  0  0  0
  -25.0350  -37.3381   19.6865 C   0  0  0  0  0  0  0  0  0  0  0  0
  -26.1539  -34.8590   19.0965 C   0  0  0  0  0  0  0  0  0  0  0  0
  -25.7311  -28.7574   18.7832 C   0  0  0  0  0  0  0  0  0  0  0  0
  -29.2326  -19.9950   19.8345 C   0  0  0  0  0  0  0  0  0  0  0  0
  -28.9832  -21.3084   19.4412 C   0  0  0  0  0  0  0  0  0  0  0  0
  -24.0540   -8.6709   21.4264 C   0  0  0  0  0  0  0  0  0  0  0  0
  -24.4808   -9.4656   23.6677 C   0  0  0  0  0  0  0  0  0  0  0  0
  -26.6863  -27.7594   18.5951 C   0  0  0  0  0  0  0  0  0  0  0  0
  -22.7418   -5.3618   22.1639 C   0  0  0  0  0  0  0  0  0  0  0  0
  -21.5995   -4.7404   21.6594 C   0  0  0  0  0  0  0  0  0  0  0  0
  -26.8202  -27.4457   20.9831 C   0  0  0  0  0  0  0  0  0  0  0  0
  -20.2530   -6.5951   22.4236 C   0  0  0  0  0  0  0  0  0  0  0  0
  -24.7680  -10.9510   21.7841 C   0  0  0  0  0  0  0  0  0  0  0  0
  -25.4688  -20.2464   23.0654 C   0  0  0  0  0  0  0  0  0  0  0  0
  -25.2190  -21.5626   22.6712 C   0  0  0  0  0  0  0  0  0  0  0  0
  -27.3985  -20.1168   21.4094 C   0  0  0  0  0  0  0  0  0  0  0  0
  -27.1486  -21.4330   21.0152 C   0  0  0  0  0  0  0  0  0  0  0  0
  -24.2458  -13.3344   21.0394 C   0  0  0  0  0  0  0  0  0  0  0  0
  -25.2749  -36.4265   20.7267 C   0  0  0  0  0  0  0  0  0  0  0  0
  -25.3206  -29.1152   20.0754 C   0  0  0  0  0  0  0  0  0  0  0  0
  -25.8504  -35.1759   20.4315 C   0  0  0  0  0  0  0  0  0  0  0  0
  -25.8578  -28.4468   21.1849 C   0  0  0  0  0  0  0  0  0  0  0  0
  -28.4431  -19.3970   20.8172 C   0  0  0  0  0  0  0  0  0  0  0  0
  -27.9434  -22.0293   20.0288 C   0  0  0  0  0  0  0  0  0  0  0  0
  -24.1005   -8.4406   22.8014 C   0  0  0  0  0  0  0  0  0  0  0  0
  -27.2331  -27.1054   19.6952 C   0  0  0  0  0  0  0  0  0  0  0  0
  -22.6397   -6.5999   22.7984 C   0  0  0  0  0  0  0  0  0  0  0  0
  -20.3551   -5.3570   21.7892 C   0  0  0  0  0  0  0  0  0  0  0  0
  -21.3953   -7.2165   22.9282 C   0  0  0  0  0  0  0  0  0  0  0  0
  -25.1133  -12.2477   21.2593 C   0  0  0  0  0  0  0  0  0  0  0  0
  -25.0550  -14.3232   20.5355 C   0  0  0  0  0  0  0  0  0  0  0  0
  -26.5677  -19.4755   22.4489 C   0  0  0  0  0  0  0  0  0  0  0  0
  -26.0497  -22.2039   21.6317 C   0  0  0  0  0  0  0  0  0  0  0  0
  -22.8347  -13.4405   21.2701 C   0  0  0  0  0  0  0  0  0  0  0  0
  -25.4479  -31.7731   21.8141 C   0  0  0  0  0  0  0  0  0  0  0  0
  -23.6769  -30.0298   23.8990 C   0  0  0  0  0  0  0  0  0  0  0  0
  -22.7467  -26.9520   25.0429 C   0  0  0  0  0  0  0  0  0  0  0  0
  -29.7787  -17.2695   20.6263 C   0  0  0  0  0  0  0  0  0  0  0  0
  -24.9694  -36.8446   22.1433 C   0  0  0  0  0  0  0  0  0  0  0  0
  -24.2697  -30.1753   20.2602 C   0  0  0  0  0  0  0  0  0  0  0  0
  -25.4359  -28.7795   22.5919 C   0  0  0  0  0  0  0  0  0  0  0  0
  -24.9213  -35.6774   23.1259 C   0  0  0  0  0  0  0  0  0  0  0  0
  -29.8458  -14.1502   18.9109 C   0  0  0  0  0  0  0  0  0  0  0  0
  -26.1204  -34.7572   22.9209 C   0  0  0  0  0  0  0  0  0  0  0  0
  -28.5492  -13.4666   19.3508 C   0  0  0  0  0  0  0  0  0  0  0  0
  -30.4755  -14.9560   20.0458 C   0  0  0  0  0  0  0  0  0  0  0  0
  -28.2826  -15.2394   21.1321 C   0  0  0  0  0  0  0  0  0  0  0  0
  -26.1161  -34.1508   21.5125 C   0  0  1  0  0  0  0  0  0  0  0  0
  -24.3031  -30.8148   21.6449 C   0  0  1  0  0  0  0  0  0  0  0  0
  -27.5774  -14.4687   20.0042 C   0  0  2  0  0  0  0  0  0  0  0  0
  -21.3144  -25.8470   26.7822 C   0  0  0  0  0  0  0  0  0  0  0  0
  -25.7483  -30.7102   26.0336 C   0  0  0  0  0  0  0  0  0  0  0  0
  -24.8115  -28.8582   27.4338 C   0  0  0  0  0  0  0  0  0  0  0  0
  -23.3748  -30.8017   26.8164 C   0  0  0  0  0  0  0  0  0  0  0  0
  -21.0955  -25.6010   22.9917 C   0  0  0  0  0  0  0  0  0  0  0  0
  -28.5685  -23.9549   18.5704 C   0  0  0  0  0  0  0  0  0  0  0  0
  -28.0873  -25.3722   18.3087 C   0  0  0  0  0  0  0  0  0  1  0  0
  -23.9860  -29.1010   25.0483 C   0  0  1  0  0  0  0  0  0  0  0  0
  -21.3825  -26.3627   25.3531 C   0  0  2  0  0  0  0  0  0  0  0  0
  -24.4897  -29.8626   26.3067 C   0  0  0  0  0  0  0  0  0  0  0  0
  -26.3768  -12.5202   20.9225 N   0  0  0  0  0  0  0  0  0  0  0  0
  -26.3091  -13.7894   20.4858 N   0  0  0  0  0  0  0  0  0  0  0  0
  -24.4099  -29.8276   22.7210 N   0  0  0  0  0  0  0  0  0  0  0  0
  -29.4977  -15.8869   20.6134 N   0  0  0  0  0  0  0  0  0  0  0  0
  -24.8090  -15.5886   20.1345 N   0  0  0  0  0  0  0  0  0  0  0  0
  -22.1576  -12.3299   21.7921 N   0  0  0  0  0  0  0  0  0  0  0  0
  -28.7616  -18.0597   21.1607 N   0  0  0  0  0  0  0  0  0  0  0  0
  -27.7553  -23.3286   19.5874 N   0  0  0  0  0  0  0  0  0  0  0  0
  -25.1584  -33.0688   21.4310 N   0  0  0  0  0  0  0  0  0  0  0  0
  -22.7796  -28.3114   25.2709 N   0  0  0  0  0  0  0  0  0  0  0  0
  -21.0853  -25.2308   24.4304 N   0  3  0  0  0  0  0  0  0  0  0  0
  -26.7577  -18.3241   22.8205 O   0  0  0  0  0  0  0  0  0  0  0  0
  -25.8013  -23.3599   21.3128 O   0  0  0  0  0  0  0  0  0  0  0  0
  -22.1903  -14.4836   21.0053 O   0  0  0  0  0  0  0  0  0  0  0  0
  -26.5145  -31.3673   22.2607 O   0  0  0  0  0  0  0  0  0  0  0  0
  -22.8118  -30.8979   24.0389 O   0  0  0  0  0  0  0  0  0  0  0  0
  -23.6899  -26.2735   24.6423 O   0  0  0  0  0  0  0  0  0  0  0  0
  -30.8319  -17.7220   20.1701 O   0  0  0  0  0  0  0  0  0  0  0  0
  -23.7748   -7.2160   23.2981 O   0  0  0  0  0  0  0  0  0  0  0  0
  -28.1661  -26.1314   19.5144 O   0  0  0  0  0  0  0  0  0  1  0  0
  -19.2585   -4.7608   21.3032 F   0  0  0  0  0  0  0  0  0  0  0  0
  -21.2910   -8.4064   23.5356 F   0  0  0  0  0  0  0  0  0  0  0  0
  1  2  1  0  0  0  0
  1  7  2  0  0  0  0
  2  8  2  0  0  0  0
  3  4  1  0  0  0  0
  3  9  2  0  0  0  0
  4 10  2  0  0  0  0
  5 14  2  0  0  0  0
  5 21  1  0  0  0  0
  6 15  1  0  0  0  0
  6 21  2  0  0  0  0
  7 22  1  0  0  0  0
  8 23  1  0  0  0  0
  9 27  1  0  0  0  0
 10 29  1  0  0  0  0
 11 16  2  0  0  0  0
 11 28  1  0  0  0  0
 12 13  2  0  0  0  0
 12 31  1  0  0  0  0
 13 32  1  0  0  0  0
 14 33  1  0  0  0  0
 15 33  2  0  0  0  0
 16 34  1  0  0  0  0
 17 18  2  0  0  0  0
 17 35  1  0  0  0  0
 18 36  1  0  0  0  0
 19 30  1  0  0  0  0
 19 34  2  0  0  0  0
 20 36  2  0  0  0  0
 20 37  1  0  0  0  0
 21 38  1  0  0  0  0
 22 23  2  0  0  0  0
 22 40  1  0  0  0  0
 23 41  1  0  0  0  0
 24 25  1  0  0  0  0
 24 31  2  0  0  0  0
 24 40  1  0  0  0  0
 25 32  2  0  0  0  0
 25 41  1  0  0  0  0
 26 38  1  0  0  0  0
 26 39  2  0  0  0  0
 26 42  1  0  0  0  0
 27 29  2  0  0  0  0
 27 47  1  0  0  0  0
 28 30  2  0  0  0  0
 28 48  1  0  0  0  0
 29 56  1  0  0  0  0
 30 49  1  0  0  0  0
 31 75  1  0  0  0  0
 32 76  1  0  0  0  0
 33 87  1  0  0  0  0
 34 88  1  0  0  0  0
 35 37  2  0  0  0  0
 35 87  1  0  0  0  0
 36 89  1  0  0  0  0
 37 90  1  0  0  0  0
 38 69  2  0  0  0  0
 39 70  1  0  0  0  0
 39 73  1  0  0  0  0
 40 80  2  0  0  0  0
 41 81  2  0  0  0  0
 42 74  1  0  0  0  0
 42 82  2  0  0  0  0
 43 57  1  0  0  0  0
 43 77  1  0  0  0  0
 43 83  2  0  0  0  0
 44 66  1  0  0  0  0
 44 71  1  0  0  0  0
 44 84  2  0  0  0  0
 45 67  1  0  0  0  0
 45 78  1  0  0  0  0
 45 85  2  0  0  0  0
 46 72  1  0  0  0  0
 46 75  1  0  0  0  0
 46 86  2  0  0  0  0
 47 50  1  0  0  0  0
 48 57  1  0  0  0  0
 49 71  1  0  0  0  0
 50 52  1  0  0  0  0
 51 53  1  0  0  0  0
 51 54  1  0  0  0  0
 52 56  1  0  0  0  0
 53 58  1  0  0  0  0
 54 72  1  0  0  0  0
 55 58  1  0  0  0  0
 55 72  1  0  0  0  0
 56 77  1  0  0  0  0
 57 71  1  0  0  0  0
 58 70  1  0  0  0  0
 59 67  1  0  0  0  0
 60 68  1  0  0  0  0
 61 68  1  0  0  0  0
 62 68  1  0  0  0  0
 63 79  1  0  0  0  0
 64 65  1  0  0  0  0
 64 76  1  0  0  0  0
 65 88  1  0  0  0  0
 66 68  1  0  0  0  0
 66 78  1  0  0  0  0
 67 79  1  0  0  0  0
 69 70  1  0  0  0  0
M  CHG  1  79   1
M  ISO  4  46 100  65 101  75 100  88 101
M  END
> <Batch ID>
0006

> <Smiles>
CNC(C)C(=O)NC(C(=O)N1Cc2cc([101O:1][101CH2:1]CNc3ccc([100NH:0][100C:0](=O)N4CCCC(n5nc(-c6ccc(Oc7ccc(F)cc7F)cc6)c(C(N)=O)c5N)C4)c4c3C(=O)c3ccccc3C4=O)ccc2CC1C(=O)NC1CCCc2ccccc21)C(C)(C)C

> <Shape>
0.288

> <Color>
0.129

> <Negative vol penalty>
0.000

$$$$

  -OEChem-04042320293D

 87 96  0     1  0  0  0  0  0999 V2000
  -32.3568  -14.4354   20.2201 C   0  0  0  0  0  0  0  0  0  0  0  0
  -31.4891  -15.5106   20.0581 C   0  0  0  0  0  0  0  0  0  0  0  0
  -17.4021  -28.7308   24.2393 C   0  0  0  0  0  0  0  0  0  0  0  0
  -18.2666  -29.6929   24.7614 C   0  0  0  0  0  0  0  0  0  0  0  0
  -28.0032  -26.0123   18.2558 C   0  0  0  0  0  0  0  0  0  0  0  0
  -26.3192  -24.6158   19.2809 C   0  0  0  0  0  0  0  0  0  0  0  0
  -31.8775  -13.1310   20.1068 C   0  0  0  0  0  0  0  0  0  0  0  0
  -30.1416  -15.2821   19.7815 C   0  0  0  0  0  0  0  0  0  0  0  0
  -25.3746  -18.6214   21.6869 C   0  0  0  0  0  0  0  0  0  0  0  0
  -17.6925  -28.1210   23.0188 C   0  0  0  0  0  0  0  0  0  0  0  0
  -19.4214  -30.0455   24.0629 C   0  0  0  0  0  0  0  0  0  0  0  0
  -28.9324  -24.9788   18.3741 C   0  0  0  0  0  0  0  0  0  0  0  0
  -27.2484  -23.5822   19.3992 C   0  0  0  0  0  0  0  0  0  0  0  0
  -24.6213  -19.6188   21.0692 C   0  0  0  0  0  0  0  0  0  0  0  0
  -28.6222  -21.2292   17.4001 C   0  0  0  0  0  0  0  0  0  0  0  0
  -28.2121  -19.9464   17.0369 C   0  0  0  0  0  0  0  0  0  0  0  0
  -22.9789  -17.9725   20.4275 C   0  0  0  0  0  0  0  0  0  0  0  0
  -28.6679  -19.1664   19.2777 C   0  0  0  0  0  0  0  0  0  0  0  0
  -26.6966  -25.8308   18.7093 C   0  0  0  0  0  0  0  0  0  0  0  0
  -24.8721  -27.1451   17.5045 C   0  0  0  0  0  0  0  0  0  0  0  0
  -30.5216  -12.8863   19.8383 C   0  0  0  0  0  0  0  0  0  0  0  0
  -24.9404  -17.2881   21.6701 C   0  0  0  0  0  0  0  0  0  0  0  0
  -29.6439  -13.9733   19.6632 C   0  0  0  0  0  0  0  0  0  0  0  0
  -23.7272  -16.9605   21.0480 C   0  0  0  0  0  0  0  0  0  0  0  0
  -18.8472  -28.4736   22.3203 C   0  0  0  0  0  0  0  0  0  0  0  0
  -19.7117  -29.4358   22.8423 C   0  0  0  0  0  0  0  0  0  0  0  0
  -28.5550  -23.7637   18.9458 C   0  0  0  0  0  0  0  0  0  0  0  0
  -23.4247  -19.2940   20.4369 C   0  0  0  0  0  0  0  0  0  0  0  0
  -29.0552  -21.4806   18.7020 C   0  0  0  0  0  0  0  0  0  0  0  0
  -28.2349  -18.9150   17.9757 C   0  0  0  0  0  0  0  0  0  0  0  0
  -29.0780  -20.4492   19.6408 C   0  0  0  0  0  0  0  0  0  0  0  0
  -25.7365  -26.8983   18.5879 C   0  0  0  0  0  0  0  0  0  0  0  0
  -24.1680  -28.2646   17.8751 C   0  0  0  0  0  0  0  0  0  0  0  0
  -24.7192  -26.4265   16.2733 C   0  0  0  0  0  0  0  0  0  0  0  0
  -26.0940  -14.5679   20.4982 C   0  0  0  0  0  0  0  0  0  0  0  0
  -23.5604  -13.2753   22.0577 C   0  0  0  0  0  0  0  0  0  0  0  0
  -20.4403  -13.7056   23.3717 C   0  0  0  0  0  0  0  0  0  0  0  0
  -21.8417  -30.7472   22.5426 C   0  0  0  0  0  0  0  0  0  0  0  0
  -30.0593  -11.4597   19.6779 C   0  0  0  0  0  0  0  0  0  0  0  0
  -25.7511  -16.2282   22.3642 C   0  0  0  0  0  0  0  0  0  0  0  0
  -23.2069  -15.5474   21.0195 C   0  0  0  0  0  0  0  0  0  0  0  0
  -28.5432  -11.2984   19.7543 C   0  0  0  0  0  0  0  0  0  0  0  0
  -24.8939  -31.9183   21.1320 C   0  0  0  0  0  0  0  0  0  0  0  0
  -27.8504  -12.3497   18.8931 C   0  0  0  0  0  0  0  0  0  0  0  0
  -25.3392  -30.7683   20.2257 C   0  0  0  0  0  0  0  0  0  0  0  0
  -20.2765  -25.8804   19.8423 C   0  0  0  0  0  0  0  0  0  0  0  0
  -19.2395  -25.5389   22.1124 C   0  0  0  0  0  0  0  0  0  0  0  0
  -24.2334  -31.4087   22.4118 C   0  0  0  0  0  0  0  0  0  0  0  0
  -23.5762  -29.3108   21.3001 C   0  0  0  0  0  0  0  0  0  0  0  0
  -21.0505  -24.5796   20.0074 C   0  0  0  0  0  0  0  0  0  0  0  0
  -20.0191  -24.2401   22.2659 C   0  0  0  0  0  0  0  0  0  0  0  0
  -28.1706  -13.7657   19.3869 C   0  0  1  0  0  0  0  0  0  0  0  0
  -25.4702  -14.8229   21.8411 C   0  0  1  0  0  0  0  0  0  0  0  0
  -19.9635  -26.5310   21.1947 C   0  0  0  0  0  0  0  0  0  0  0  0
  -24.1887  -29.7754   19.9687 C   0  0  2  0  0  0  0  0  0  0  0  0
  -18.6089  -12.4570   24.5483 C   0  0  0  0  0  0  0  0  0  0  0  0
  -22.7746  -11.9506   19.4237 C   0  0  0  0  0  0  0  0  0  0  0  0
  -20.5052  -11.5289   20.3932 C   0  0  0  0  0  0  0  0  0  0  0  0
  -22.5189  -10.4944   21.4408 C   0  0  0  0  0  0  0  0  0  0  0  0
  -20.6101  -15.4626   25.7472 C   0  0  0  0  0  0  0  0  0  0  0  0
  -19.1347  -27.7998   21.0068 C   0  0  0  0  0  0  0  0  0  0  0  0
  -20.5993  -21.4440   19.7883 C   0  0  0  0  0  0  0  0  0  0  0  0
  -20.9363  -22.2967   21.0022 C   0  0  0  0  0  0  0  0  0  0  0  0
  -21.2738  -20.0777   19.7924 C   0  0  0  0  0  0  0  0  0  1  0  0
  -22.1239  -12.9780   21.7012 C   0  0  1  0  0  0  0  0  0  0  0  0
  -19.8512  -13.3180   24.7160 C   0  0  2  0  0  0  0  0  0  0  0  0
  -21.9911  -11.7644   20.7384 C   0  0  0  0  0  0  0  0  0  0  0  0
  -25.5962  -27.7895   19.5728 N   0  0  0  0  0  0  0  0  0  0  0  0
  -24.6355  -28.6073   19.1097 N   0  0  0  0  0  0  0  0  0  0  0  0
  -24.0387  -14.5456   21.7066 N   0  0  0  0  0  0  0  0  0  0  0  0
  -23.1505  -30.4767   22.0902 N   0  0  0  0  0  0  0  0  0  0  0  0
  -23.2009  -28.9796   17.2620 N   0  0  0  0  0  0  0  0  0  0  0  0
  -25.5219  -25.2987   16.0537 N   0  0  0  0  0  0  0  0  0  0  0  0
  -20.8896  -29.8078   22.1481 N   0  0  0  0  0  0  0  0  0  0  0  0
  -27.3857  -14.0810   20.5612 N   0  0  0  0  0  0  0  0  0  0  0  0
  -21.4142  -12.8179   22.9658 N   0  0  0  0  0  0  0  0  0  0  0  0
  -20.2754  -23.6440   20.9030 N   0  3  0  0  0  0  0  0  0  0  0  0
  -19.4777  -14.5364   25.4886 N   0  3  0  0  0  0  0  0  0  0  0  0
  -23.9067  -26.7837   15.3868 O   0  0  0  0  0  0  0  0  0  0  0  0
  -25.4506  -14.7947   19.4802 O   0  0  0  0  0  0  0  0  0  0  0  0
  -24.2312  -12.4147   22.6330 O   0  0  0  0  0  0  0  0  0  0  0  0
  -20.0706  -14.6947   22.7427 O   0  0  0  0  0  0  0  0  0  0  0  0
  -21.5795  -31.7535   23.2064 O   0  0  0  0  0  0  0  0  0  0  0  0
  -29.4613  -22.7548   19.0612 O   0  0  0  0  0  0  0  0  0  0  0  0
  -22.6879  -20.2654   19.8326 O   0  0  0  0  0  0  0  0  0  1  0  0
  -27.8395  -17.6835   17.6273 F   0  0  0  0  0  0  0  0  0  0  0  0
  -29.4919  -20.6849   20.8934 F   0  0  0  0  0  0  0  0  0  0  0  0
  1  2  1  0  0  0  0
  1  7  2  0  0  0  0
  2  8  2  0  0  0  0
  3  4  1  0  0  0  0
  3 10  2  0  0  0  0
  4 11  2  0  0  0  0
  5 12  2  0  0  0  0
  5 19  1  0  0  0  0
  6 13  1  0  0  0  0
  6 19  2  0  0  0  0
  7 21  1  0  0  0  0
  8 23  1  0  0  0  0
  9 14  2  0  0  0  0
  9 22  1  0  0  0  0
 10 25  1  0  0  0  0
 11 26  1  0  0  0  0
 12 27  1  0  0  0  0
 13 27  2  0  0  0  0
 14 28  1  0  0  0  0
 15 16  2  0  0  0  0
 15 29  1  0  0  0  0
 16 30  1  0  0  0  0
 17 24  1  0  0  0  0
 17 28  2  0  0  0  0
 18 30  2  0  0  0  0
 18 31  1  0  0  0  0
 19 32  1  0  0  0  0
 20 32  1  0  0  0  0
 20 33  2  0  0  0  0
 20 34  1  0  0  0  0
 21 23  2  0  0  0  0
 21 39  1  0  0  0  0
 22 24  2  0  0  0  0
 22 40  1  0  0  0  0
 23 52  1  0  0  0  0
 24 41  1  0  0  0  0
 25 26  2  0  0  0  0
 25 61  1  0  0  0  0
 26 74  1  0  0  0  0
 27 84  1  0  0  0  0
 28 85  1  0  0  0  0
 29 31  2  0  0  0  0
 29 84  1  0  0  0  0
 30 86  1  0  0  0  0
 31 87  1  0  0  0  0
 32 68  2  0  0  0  0
 33 69  1  0  0  0  0
 33 72  1  0  0  0  0
 34 73  1  0  0  0  0
 34 79  2  0  0  0  0
 35 53  1  0  0  0  0
 35 75  1  0  0  0  0
 35 80  2  0  0  0  0
 36 65  1  0  0  0  0
 36 70  1  0  0  0  0
 36 81  2  0  0  0  0
 37 66  1  0  0  0  0
 37 76  1  0  0  0  0
 37 82  2  0  0  0  0
 38 71  1  0  0  0  0
 38 74  1  0  0  0  0
 38 83  2  0  0  0  0
 39 42  1  0  0  0  0
 40 53  1  0  0  0  0
 41 70  1  0  0  0  0
 42 44  1  0  0  0  0
 43 45  1  0  0  0  0
 43 48  1  0  0  0  0
 44 52  1  0  0  0  0
 45 55  1  0  0  0  0
 46 50  1  0  0  0  0
 46 54  1  0  0  0  0
 47 51  1  0  0  0  0
 47 54  1  0  0  0  0
 48 71  1  0  0  0  0
 49 55  1  0  0  0  0
 49 71  1  0  0  0  0
 50 77  1  0  0  0  0
 51 77  1  0  0  0  0
 52 75  1  0  0  0  0
 53 70  1  0  0  0  0
 54 61  1  0  0  0  0
 55 69  1  0  0  0  0
 56 66  1  0  0  0  0
 57 67  1  0  0  0  0
 58 67  1  0  0  0  0
 59 67  1  0  0  0  0
 60 78  1  0  0  0  0
 62 63  1  0  0  0  0
 62 64  1  0  0  0  0
 63 77  1  0  0  0  0
 64 85  1  0  0  0  0
 65 67  1  0  0  0  0
 65 76  1  0  0  0  0
 66 78  1  0  0  0  0
 68 69  1  0  0  0  0
M  CHG  2  77   1  78   1
M  ISO  4  38 100  64 101  74 100  85 101
M  END
> <Batch ID>
0006

> <Smiles>
CNC(C)C(=O)NC(C(=O)N1Cc2cc([101O:1][101CH2:1]CCN3CCC(Cc4ccccc4[100NH:0][100C:0](=O)N4CCCC(n5nc(-c6ccc(Oc7ccc(F)cc7F)cc6)c(C(N)=O)c5N)C4)CC3)ccc2CC1C(=O)NC1CCCc2ccccc21)C(C)(C)C

> <Shape>
0.270

> <Color>
0.077

> <Negative vol penalty>
0.000

$$$$

  -OEChem-04042320293D

 95105  0     1  0  0  0  0  0999 V2000
  -26.5247  -33.2193   25.9715 C   0  0  0  0  0  0  0  0  0  0  0  0
  -27.0235  -32.5288   24.8716 C   0  0  0  0  0  0  0  0  0  0  0  0
  -26.8372  -12.3055   21.8817 C   0  0  0  0  0  0  0  0  0  0  0  0
  -25.9997  -14.1007   20.4987 C   0  0  0  0  0  0  0  0  0  0  0  0
  -25.9853  -32.5167   27.0482 C   0  0  0  0  0  0  0  0  0  0  0  0
  -26.9842  -31.1351   24.8483 C   0  0  0  0  0  0  0  0  0  0  0  0
  -25.3899  -29.3107   20.4014 C   0  0  0  0  0  0  0  0  0  0  0  0
  -29.8498  -22.6433   19.8153 C   0  0  0  0  0  0  0  0  0  0  0  0
  -29.5591  -21.5526   20.6347 C   0  0  0  0  0  0  0  0  0  0  0  0
  -25.5559  -11.7584   21.9476 C   0  0  0  0  0  0  0  0  0  0  0  0
  -24.7183  -13.5535   20.5645 C   0  0  0  0  0  0  0  0  0  0  0  0
  -26.3089  -29.2951   19.3532 C   0  0  0  0  0  0  0  0  0  0  0  0
  -22.5746   -9.6914   22.1815 C   0  0  0  0  0  0  0  0  0  0  0  0
  -22.4471   -8.3145   21.9988 C   0  0  0  0  0  0  0  0  0  0  0  0
  -31.5644  -21.9786   21.9131 C   0  0  0  0  0  0  0  0  0  0  0  0
  -26.7133  -26.9504   19.7506 C   0  0  0  0  0  0  0  0  0  0  0  0
  -23.4095   -8.5183   19.7921 C   0  0  0  0  0  0  0  0  0  0  0  0
  -27.0592  -13.4767   21.1573 C   0  0  0  0  0  0  0  0  0  0  0  0
  -31.8550  -23.0694   21.0938 C   0  0  0  0  0  0  0  0  0  0  0  0
  -29.3763  -13.7681   20.1309 C   0  0  0  0  0  0  0  0  0  0  0  0
  -25.9305  -31.1141   27.0339 C   0  0  0  0  0  0  0  0  0  0  0  0
  -25.1332  -28.1468   21.1404 C   0  0  0  0  0  0  0  0  0  0  0  0
  -26.4448  -30.4130   25.9264 C   0  0  0  0  0  0  0  0  0  0  0  0
  -25.7886  -26.9532   20.8061 C   0  0  0  0  0  0  0  0  0  0  0  0
  -30.9977  -23.4018   20.0448 C   0  0  0  0  0  0  0  0  0  0  0  0
  -30.4164  -21.2202   21.6836 C   0  0  0  0  0  0  0  0  0  0  0  0
  -24.4964  -12.3824   21.2890 C   0  0  0  0  0  0  0  0  0  0  0  0
  -26.9730  -28.1155   19.0295 C   0  0  0  0  0  0  0  0  0  0  0  0
  -23.1194  -10.4819   21.1695 C   0  0  0  0  0  0  0  0  0  0  0  0
  -22.8646   -7.7279   20.8041 C   0  0  0  0  0  0  0  0  0  0  0  0
  -23.5369   -9.8953   19.9748 C   0  0  0  0  0  0  0  0  0  0  0  0
  -28.3825  -14.0426   21.0894 C   0  0  0  0  0  0  0  0  0  0  0  0
  -30.4397  -14.5531   20.5044 C   0  0  0  0  0  0  0  0  0  0  0  0
  -30.5787  -27.2622   16.8207 C   0  0  0  0  0  0  0  0  0  0  0  0
  -33.0535  -23.8412   21.3527 C   0  0  0  0  0  0  0  0  0  0  0  0
  -29.3413  -12.8827   19.0037 C   0  0  0  0  0  0  0  0  0  0  0  0
  -25.4809  -27.3003   24.1844 C   0  0  0  0  0  0  0  0  0  0  0  0
  -23.9466  -24.6145   23.2073 C   0  0  0  0  0  0  0  0  0  0  0  0
  -22.5953  -21.9736   21.5202 C   0  0  0  0  0  0  0  0  0  0  0  0
  -30.8653  -19.6468   23.5991 C   0  0  0  0  0  0  0  0  0  0  0  0
  -25.3813  -30.3966   28.2415 C   0  0  0  0  0  0  0  0  0  0  0  0
  -24.1191  -28.1738   22.2509 C   0  0  0  0  0  0  0  0  0  0  0  0
  -25.5337  -25.6718   21.5554 C   0  0  0  0  0  0  0  0  0  0  0  0
  -25.0354  -28.9338   27.9758 C   0  0  0  0  0  0  0  0  0  0  0  0
  -32.4456  -16.5501   24.3673 C   0  0  0  0  0  0  0  0  0  0  0  0
  -32.6954  -29.2345   17.3862 C   0  0  0  0  0  0  0  0  0  0  0  0
  -26.1680  -28.2461   27.2201 C   0  0  0  0  0  0  0  0  0  0  0  0
  -31.6774  -15.5316   23.5220 C   0  0  0  0  0  0  0  0  0  0  0  0
  -33.0299  -27.7784   17.1228 C   0  0  0  0  0  0  0  0  0  0  0  0
  -32.2935  -25.3989   17.1571 C   0  0  0  0  0  0  0  0  0  0  0  0
  -31.6465  -26.9183   19.0699 C   0  0  0  0  0  0  0  0  0  0  0  0
  -31.4421  -29.6226   16.6304 C   0  0  0  0  0  0  0  0  0  0  0  0
  -31.5275  -17.6432   24.9114 C   0  0  0  0  0  0  0  0  0  0  0  0
  -31.4550  -24.2787   17.7783 C   0  0  0  0  0  0  0  0  0  0  0  0
  -30.7560  -25.8022   19.6146 C   0  0  0  0  0  0  0  0  0  0  0  0
  -29.9418  -17.3085   23.0559 C   0  0  0  0  0  0  0  0  0  0  0  0
  -26.3973  -28.9022   25.8532 C   0  0  1  0  0  0  0  0  0  0  0  0
  -24.3164  -27.0536   23.2675 C   0  0  1  0  0  0  0  0  0  0  0  0
  -30.8356  -16.2241   22.4324 C   0  0  2  0  0  0  0  0  0  0  0  0
  -31.8788  -26.8402   17.5426 C   0  0  0  0  0  0  0  0  0  0  0  0
  -21.7766  -19.6266   21.8649 C   0  0  0  0  0  0  0  0  0  0  0  0
  -26.8317  -23.6342   23.3670 C   0  0  0  0  0  0  0  0  0  0  0  0
  -26.0153  -21.3478   22.7552 C   0  0  0  0  0  0  0  0  0  0  0  0
  -25.2349  -22.4258   24.8651 C   0  0  0  0  0  0  0  0  0  0  0  0
  -35.2523  -24.6858   20.5368 C   0  0  0  0  0  0  0  0  0  0  0  0
  -19.8605  -22.6733   20.6312 C   0  0  0  0  0  0  0  0  0  0  0  0
  -29.0737  -29.1011   16.1773 C   0  0  0  0  0  0  0  0  0  0  0  0
  -28.0852  -29.3222   17.3082 C   0  0  0  0  0  0  0  0  0  1  0  0
  -24.3779  -23.2812   22.6457 C   0  0  1  0  0  0  0  0  0  0  0  0
  -21.3921  -21.0972   21.8181 C   0  0  2  0  0  0  0  0  0  0  0  0
  -25.6097  -22.6945   23.3913 C   0  0  0  0  0  0  0  0  0  0  0  0
  -28.7792  -14.9324   22.0032 N   0  0  0  0  0  0  0  0  0  0  0  0
  -30.0341  -15.2237   21.6206 N   0  0  0  0  0  0  0  0  0  0  0  0
  -31.2730  -24.4929   19.2128 N   0  0  0  0  0  0  0  0  0  0  0  0
  -30.3645  -28.6363   16.6691 N   0  0  0  0  0  0  0  0  0  0  0  0
  -24.5380  -25.7507   22.6370 N   0  0  0  0  0  0  0  0  0  0  0  0
  -30.7650  -18.2572   23.8222 N   0  0  0  0  0  0  0  0  0  0  0  0
  -31.6728  -14.7281   19.9836 N   0  0  0  0  0  0  0  0  0  0  0  0
  -33.1983  -24.4473   22.5463 N   0  0  0  0  0  0  0  0  0  0  0  0
  -28.1700  -12.1512   18.7648 N   0  0  0  0  0  0  0  0  0  0  0  0
  -30.1207  -20.1121   22.5157 N   0  0  0  0  0  0  0  0  0  0  0  0
  -25.3870  -28.4723   24.9104 N   0  0  0  0  0  0  0  0  0  0  0  0
  -23.1974  -22.4245   22.6757 N   0  0  0  0  0  0  0  0  0  0  0  0
  -33.9998  -23.9395   20.3925 N   0  3  0  0  0  0  0  0  0  0  0  0
  -20.3481  -21.2769   20.7699 N   0  3  0  0  0  0  0  0  0  0  0  0
  -29.7392  -26.4196   16.4915 O   0  0  0  0  0  0  0  0  0  0  0  0
  -30.3256  -12.7321   18.2407 O   0  0  0  0  0  0  0  0  0  0  0  0
  -26.3962  -26.4867   24.2309 O   0  0  0  0  0  0  0  0  0  0  0  0
  -23.1104  -24.6470   24.1136 O   0  0  0  0  0  0  0  0  0  0  0  0
  -22.9662  -22.2293   20.3767 O   0  0  0  0  0  0  0  0  0  0  0  0
  -31.5817  -20.3665   24.2997 O   0  0  0  0  0  0  0  0  0  0  0  0
  -23.2460  -11.8486   21.3528 O   0  0  0  0  0  0  0  0  0  0  0  0
  -27.8774  -28.0976   18.0000 O   0  0  0  0  0  0  0  0  0  1  0  0
  -22.7437   -6.4055   20.6293 F   0  0  0  0  0  0  0  0  0  0  0  0
  -24.0622  -10.6493   18.9995 F   0  0  0  0  0  0  0  0  0  0  0  0
  1  2  1  0  0  0  0
  1  5  2  0  0  0  0
  2  6  2  0  0  0  0
  3 10  2  0  0  0  0
  3 18  1  0  0  0  0
  4 11  1  0  0  0  0
  4 18  2  0  0  0  0
  5 21  1  0  0  0  0
  6 23  1  0  0  0  0
  7 12  2  0  0  0  0
  7 22  1  0  0  0  0
  8  9  2  0  0  0  0
  8 25  1  0  0  0  0
  9 26  1  0  0  0  0
 10 27  1  0  0  0  0
 11 27  2  0  0  0  0
 12 28  1  0  0  0  0
 13 14  2  0  0  0  0
 13 29  1  0  0  0  0
 14 30  1  0  0  0  0
 15 19  1  0  0  0  0
 15 26  2  0  0  0  0
 16 24  1  0  0  0  0
 16 28  2  0  0  0  0
 17 30  2  0  0  0  0
 17 31  1  0  0  0  0
 18 32  1  0  0  0  0
 19 25  2  0  0  0  0
 19 35  1  0  0  0  0
 20 32  1  0  0  0  0
 20 33  2  0  0  0  0
 20 36  1  0  0  0  0
 21 23  2  0  0  0  0
 21 41  1  0  0  0  0
 22 24  2  0  0  0  0
 22 42  1  0  0  0  0
 23 57  1  0  0  0  0
 24 43  1  0  0  0  0
 25 74  1  0  0  0  0
 26 81  1  0  0  0  0
 27 92  1  0  0  0  0
 28 93  1  0  0  0  0
 29 31  2  0  0  0  0
 29 92  1  0  0  0  0
 30 94  1  0  0  0  0
 31 95  1  0  0  0  0
 32 72  2  0  0  0  0
 33 73  1  0  0  0  0
 33 78  1  0  0  0  0
 34 60  1  0  0  0  0
 34 75  1  0  0  0  0
 34 86  2  0  0  0  0
 35 79  1  0  0  0  0
 35 84  2  0  0  0  0
 36 80  1  0  0  0  0
 36 87  2  0  0  0  0
 37 58  1  0  0  0  0
 37 82  1  0  0  0  0
 37 88  2  0  0  0  0
 38 69  1  0  0  0  0
 38 76  1  0  0  0  0
 38 89  2  0  0  0  0
 39 70  1  0  0  0  0
 39 83  1  0  0  0  0
 39 90  2  0  0  0  0
 40 77  1  0  0  0  0
 40 81  1  0  0  0  0
 40 91  2  0  0  0  0
 41 44  1  0  0  0  0
 42 58  1  0  0  0  0
 43 76  1  0  0  0  0
 44 47  1  0  0  0  0
 45 48  1  0  0  0  0
 45 53  1  0  0  0  0
 46 49  1  0  0  0  0
 46 52  1  0  0  0  0
 47 57  1  0  0  0  0
 48 59  1  0  0  0  0
 49 60  1  0  0  0  0
 50 54  1  0  0  0  0
 50 60  1  0  0  0  0
 51 55  1  0  0  0  0
 51 60  1  0  0  0  0
 52 75  1  0  0  0  0
 53 77  1  0  0  0  0
 54 74  1  0  0  0  0
 55 74  1  0  0  0  0
 56 59  1  0  0  0  0
 56 77  1  0  0  0  0
 57 82  1  0  0  0  0
 58 76  1  0  0  0  0
 59 73  1  0  0  0  0
 61 70  1  0  0  0  0
 62 71  1  0  0  0  0
 63 71  1  0  0  0  0
 64 71  1  0  0  0  0
 65 84  1  0  0  0  0
 66 85  1  0  0  0  0
 67 68  1  0  0  0  0
 67 75  1  0  0  0  0
 68 93  1  0  0  0  0
 69 71  1  0  0  0  0
 69 83  1  0  0  0  0
 70 85  1  0  0  0  0
 72 73  1  0  0  0  0
M  CHG  2  84   1  85   1
M  ISO  4  40 100  68 101  81 100  93 101
M  END
> <Batch ID>
0006

> <Smiles>
CNC(=N)c1cc([100NH:0][100C:0](=O)N2CCCC(n3nc(-c4ccc(Oc5ccc(F)cc5F)cc4)c(C(N)=O)c3N)C2)ccc1N1CCC2(CCCN(C[101CH2:1][101O:1]c3ccc4c(c3)CN(C(=O)C(NC(=O)C(C)NC)C(C)(C)C)C(C(=O)NC3CCCc5ccccc53)C4)C2=O)CC1

> <Shape>
0.230

> <Color>
0.060

> <Negative vol penalty>
0.000

$$$$

  -OEChem-04042320293D

 82 90  0     1  0  0  0  0  0999 V2000
  -31.1363  -34.0120   22.4405 C   0  0  0  0  0  0  0  0  0  0  0  0
  -31.5885  -32.8659   23.0868 C   0  0  0  0  0  0  0  0  0  0  0  0
  -23.0306   -9.9835   19.8963 C   0  0  0  0  0  0  0  0  0  0  0  0
  -23.8546   -9.8454   22.1633 C   0  0  0  0  0  0  0  0  0  0  0  0
  -29.8958  -34.0085   21.8041 C   0  0  0  0  0  0  0  0  0  0  0  0
  -30.7998  -31.7160   23.0979 C   0  0  0  0  0  0  0  0  0  0  0  0
  -32.7491  -25.9130   22.9227 C   0  0  0  0  0  0  0  0  0  0  0  0
  -32.8735  -17.1930   23.5433 C   0  0  0  0  0  0  0  0  0  0  0  0
  -32.2385  -16.3744   22.6095 C   0  0  0  0  0  0  0  0  0  0  0  0
  -22.2681   -8.8341   20.1035 C   0  0  0  0  0  0  0  0  0  0  0  0
  -23.0919   -8.6960   22.3705 C   0  0  0  0  0  0  0  0  0  0  0  0
  -32.9414  -24.9576   23.9197 C   0  0  0  0  0  0  0  0  0  0  0  0
  -19.8647   -7.9339   23.0220 C   0  0  0  0  0  0  0  0  0  0  0  0
  -19.1402   -7.8441   24.2105 C   0  0  0  0  0  0  0  0  0  0  0  0
  -30.7558  -24.0462   23.4596 C   0  0  0  0  0  0  0  0  0  0  0  0
  -30.7289  -18.0560   24.2453 C   0  0  0  0  0  0  0  0  0  0  0  0
  -20.3574   -5.8425   24.8014 C   0  0  0  0  0  0  0  0  0  0  0  0
  -23.8239  -10.4891   20.9263 C   0  0  0  0  0  0  0  0  0  0  0  0
  -24.2196  -13.0092   20.9369 C   0  0  0  0  0  0  0  0  0  0  0  0
  -29.0958  -32.8550   21.7992 C   0  0  0  0  0  0  0  0  0  0  0  0
  -31.5522  -25.9491   22.1929 C   0  0  0  0  0  0  0  0  0  0  0  0
  -29.5468  -31.6976   22.4620 C   0  0  0  0  0  0  0  0  0  0  0  0
  -30.5518  -25.0014   22.4521 C   0  0  0  0  0  0  0  0  0  0  0  0
  -32.1187  -18.0338   24.3613 C   0  0  0  0  0  0  0  0  0  0  0  0
  -30.8486  -16.3965   22.4935 C   0  0  0  0  0  0  0  0  0  0  0  0
  -22.2987   -8.1903   21.3405 C   0  0  0  0  0  0  0  0  0  0  0  0
  -31.9436  -24.0258   24.1903 C   0  0  0  0  0  0  0  0  0  0  0  0
  -20.8355   -6.9779   22.7231 C   0  0  0  0  0  0  0  0  0  0  0  0
  -19.3866   -6.7985   25.1002 C   0  0  0  0  0  0  0  0  0  0  0  0
  -30.0938  -17.2373   23.3114 C   0  0  0  0  0  0  0  0  0  0  0  0
  -21.0819   -5.9323   23.6128 C   0  0  0  0  0  0  0  0  0  0  0  0
  -24.6124  -11.6761   20.7127 C   0  0  0  0  0  0  0  0  0  0  0  0
  -25.3178  -13.7547   20.5841 C   0  0  0  0  0  0  0  0  0  0  0  0
  -22.9734  -13.5274   21.4209 C   0  0  0  0  0  0  0  0  0  0  0  0
  -29.2196  -28.0747   21.8132 C   0  0  0  0  0  0  0  0  0  0  0  0
  -28.1541  -25.9335   19.6218 C   0  0  0  0  0  0  0  0  0  0  0  0
  -28.0985  -22.7062   18.5137 C   0  0  0  0  0  0  0  0  0  0  0  0
  -30.8091  -14.6732   20.6564 C   0  0  0  0  0  0  0  0  0  0  0  0
  -27.7413  -32.9138   21.1384 C   0  0  0  0  0  0  0  0  0  0  0  0
  -31.3710  -26.9691   21.1024 C   0  0  0  0  0  0  0  0  0  0  0  0
  -29.2568  -24.9847   21.6832 C   0  0  0  0  0  0  0  0  0  0  0  0
  -27.1316  -31.5392   20.8756 C   0  0  0  0  0  0  0  0  0  0  0  0
  -29.5741  -12.4205   18.1912 C   0  0  0  0  0  0  0  0  0  0  0  0
  -27.2593  -30.6536   22.1110 C   0  0  0  0  0  0  0  0  0  0  0  0
  -28.1408  -12.1357   18.6459 C   0  0  0  0  0  0  0  0  0  0  0  0
  -30.5276  -12.5619   19.3764 C   0  0  0  0  0  0  0  0  0  0  0  0
  -28.6771  -13.2477   20.8511 C   0  0  0  0  0  0  0  0  0  0  0  0
  -28.7310  -30.4230   22.4748 C   0  0  1  0  0  0  0  0  0  0  0  0
  -29.9059  -27.2366   20.7719 C   0  0  1  0  0  0  0  0  0  0  0  0
  -27.6679  -13.1615   19.6945 C   0  0  2  0  0  0  0  0  0  0  0  0
  -27.1096  -21.2559   16.7204 C   0  0  0  0  0  0  0  0  0  0  0  0
  -25.4714  -25.9701   21.0750 C   0  0  0  0  0  0  0  0  0  0  0  0
  -24.8662  -23.8634   19.8652 C   0  0  0  0  0  0  0  0  0  0  0  0
  -25.3060  -25.9554   18.5797 C   0  0  0  0  0  0  0  0  0  0  0  0
  -30.7694  -21.9835   17.4634 C   0  0  0  0  0  0  0  0  0  0  0  0
  -32.8016  -18.9153   25.3650 C   0  0  0  0  0  0  0  0  0  0  0  0
  -33.4587  -21.2520   25.9540 C   0  0  0  0  0  0  0  0  0  0  0  0
  -33.4681  -22.6662   25.4081 C   0  0  0  0  0  0  0  0  0  1  0  0
  -27.2392  -24.7332   19.6570 C   0  0  1  0  0  0  0  0  0  0  0  0
  -28.2973  -22.1124   17.1308 C   0  0  2  0  0  0  0  0  0  0  0  0
  -25.7442  -25.1318   19.8102 C   0  0  0  0  0  0  0  0  0  0  0  0
  -25.8625  -11.5773   20.2529 N   0  0  0  0  0  0  0  0  0  0  0  0
  -26.2647  -12.8578   20.1852 N   0  0  0  0  0  0  0  0  0  0  0  0
  -29.1245  -26.0062   20.6312 N   0  0  0  0  0  0  0  0  0  0  0  0
  -30.0170  -13.5533   20.3257 N   0  0  0  0  0  0  0  0  0  0  0  0
  -25.5563  -15.0835   20.5791 N   0  0  0  0  0  0  0  0  0  0  0  0
  -21.9510  -12.6223   21.7366 N   0  0  0  0  0  0  0  0  0  0  0  0
  -30.2062  -15.5642   21.5436 N   0  0  0  0  0  0  0  0  0  0  0  0
  -29.3202  -29.4357   21.5959 N   0  0  0  0  0  0  0  0  0  0  0  0
  -27.5316  -23.9617   18.4538 N   0  0  0  0  0  0  0  0  0  0  0  0
  -29.5214  -21.2629   17.1029 N   0  3  0  0  0  0  0  0  0  0  0  0
  -32.8419  -20.3447   24.9537 N   0  3  0  0  0  0  0  0  0  0  0  0
  -22.7669  -14.7575   21.5535 O   0  0  0  0  0  0  0  0  0  0  0  0
  -28.6404  -27.5272   22.7441 O   0  0  0  0  0  0  0  0  0  0  0  0
  -28.0175  -26.7720   18.7274 O   0  0  0  0  0  0  0  0  0  0  0  0
  -28.4112  -22.1138   19.5442 O   0  0  0  0  0  0  0  0  0  0  0  0
  -31.9282  -14.8440   20.1660 O   0  0  0  0  0  0  0  0  0  0  0  0
  -21.5545   -7.0688   21.5430 O   0  0  0  0  0  0  0  0  0  0  0  0
  -32.1285  -23.0927   25.1633 O   0  0  0  0  0  0  0  0  0  1  0  0
  -18.6918   -6.7133   26.2423 F   0  0  0  0  0  0  0  0  0  0  0  0
  -28.7575  -17.2679   23.2075 F   0  0  0  0  0  0  0  0  0  0  0  0
  -22.0141   -5.0116   23.3316 F   0  0  0  0  0  0  0  0  0  0  0  0
  1  2  1  0  0  0  0
  1  5  2  0  0  0  0
  2  6  2  0  0  0  0
  3 10  2  0  0  0  0
  3 18  1  0  0  0  0
  4 11  1  0  0  0  0
  4 18  2  0  0  0  0
  5 20  1  0  0  0  0
  6 22  1  0  0  0  0
  7 12  2  0  0  0  0
  7 21  1  0  0  0  0
  8  9  2  0  0  0  0
  8 24  1  0  0  0  0
  9 25  1  0  0  0  0
 10 26  1  0  0  0  0
 11 26  2  0  0  0  0
 12 27  1  0  0  0  0
 13 14  2  0  0  0  0
 13 28  1  0  0  0  0
 14 29  1  0  0  0  0
 15 23  1  0  0  0  0
 15 27  2  0  0  0  0
 16 24  2  0  0  0  0
 16 30  1  0  0  0  0
 17 29  2  0  0  0  0
 17 31  1  0  0  0  0
 18 32  1  0  0  0  0
 19 32  1  0  0  0  0
 19 33  2  0  0  0  0
 19 34  1  0  0  0  0
 20 22  2  0  0  0  0
 20 39  1  0  0  0  0
 21 23  2  0  0  0  0
 21 40  1  0  0  0  0
 22 48  1  0  0  0  0
 23 41  1  0  0  0  0
 24 56  1  0  0  0  0
 25 30  2  0  0  0  0
 25 68  1  0  0  0  0
 26 78  1  0  0  0  0
 27 79  1  0  0  0  0
 28 31  2  0  0  0  0
 28 78  1  0  0  0  0
 29 80  1  0  0  0  0
 30 81  1  0  0  0  0
 31 82  1  0  0  0  0
 32 62  2  0  0  0  0
 33 63  1  0  0  0  0
 33 66  1  0  0  0  0
 34 67  1  0  0  0  0
 34 73  2  0  0  0  0
 35 49  1  0  0  0  0
 35 69  1  0  0  0  0
 35 74  2  0  0  0  0
 36 59  1  0  0  0  0
 36 64  1  0  0  0  0
 36 75  2  0  0  0  0
 37 60  1  0  0  0  0
 37 70  1  0  0  0  0
 37 76  2  0  0  0  0
 38 65  1  0  0  0  0
 38 68  1  0  0  0  0
 38 77  2  0  0  0  0
 39 42  1  0  0  0  0
 40 49  1  0  0  0  0
 41 64  1  0  0  0  0
 42 44  1  0  0  0  0
 43 45  1  0  0  0  0
 43 46  1  0  0  0  0
 44 48  1  0  0  0  0
 45 50  1  0  0  0  0
 46 65  1  0  0  0  0
 47 50  1  0  0  0  0
 47 65  1  0  0  0  0
 48 69  1  0  0  0  0
 49 64  1  0  0  0  0
 50 63  1  0  0  0  0
 51 60  1  0  0  0  0
 52 61  1  0  0  0  0
 53 61  1  0  0  0  0
 54 61  1  0  0  0  0
 55 71  1  0  0  0  0
 56 72  1  0  0  0  0
 57 58  1  0  0  0  0
 57 72  1  0  0  0  0
 58 79  1  0  0  0  0
 59 61  1  0  0  0  0
 59 70  1  0  0  0  0
 60 71  1  0  0  0  0
 62 63  1  0  0  0  0
M  CHG  2  71   1  72   1
M  ISO  4  38 100  58 101  68 100  79 101
M  END
> <Batch ID>
0006

> <Smiles>
CNC(C)C(=O)NC(C(=O)N1Cc2cc([101O:1][101CH2:1]CNCc3ccc([100NH:0][100C:0](=O)N4CCCC(n5nc(-c6ccc(Oc7ccc(F)cc7F)cc6)c(C(N)=O)c5N)C4)c(F)c3)ccc2CC1C(=O)NC1CCCc2ccccc21)C(C)(C)C

> <Shape>
0.246

> <Color>
0.198

> <Negative vol penalty>
0.000

$$$$

  -OEChem-04042320293D

 89 99  0     1  0  0  0  0  0999 V2000
  -29.3428  -22.6586   23.7201 C   0  0  0  0  0  0  0  0  0  0  0  0
  -29.1077  -35.8161   24.1518 C   0  0  0  0  0  0  0  0  0  0  0  0
  -29.4383  -35.0246   23.0565 C   0  0  0  0  0  0  0  0  0  0  0  0
  -29.7415  -21.4192   24.2196 C   0  0  0  0  0  0  0  0  0  0  0  0
  -29.1961  -22.8482   22.3444 C   0  0  0  0  0  0  0  0  0  0  0  0
  -22.0726  -10.6137   20.4845 C   0  0  0  0  0  0  0  0  0  0  0  0
  -24.2322   -9.6360   20.9510 C   0  0  0  0  0  0  0  0  0  0  0  0
  -28.3666  -35.2764   25.2022 C   0  0  0  0  0  0  0  0  0  0  0  0
  -29.0288  -33.6924   23.0116 C   0  0  0  0  0  0  0  0  0  0  0  0
  -26.9903  -28.6320   18.3690 C   0  0  0  0  0  0  0  0  0  0  0  0
  -29.9960  -20.3616   23.3474 C   0  0  0  0  0  0  0  0  0  0  0  0
  -21.4587   -9.3944   20.7712 C   0  0  0  0  0  0  0  0  0  0  0  0
  -23.6183   -8.4167   21.2376 C   0  0  0  0  0  0  0  0  0  0  0  0
  -27.2878  -27.3187   18.0080 C   0  0  0  0  0  0  0  0  0  0  0  0
  -21.9325   -7.0236   23.8140 C   0  0  0  0  0  0  0  0  0  0  0  0
  -22.3537   -6.3400   24.9546 C   0  0  0  0  0  0  0  0  0  0  0  0
  -25.9440  -26.5161   19.8435 C   0  0  0  0  0  0  0  0  0  0  0  0
  -29.5784  -20.8566   19.2243 C   0  0  0  0  0  0  0  0  0  0  0  0
  -23.0113   -4.4611   23.5856 C   0  0  0  0  0  0  0  0  0  0  0  0
  -29.4480  -21.7951   21.4511 C   0  0  0  0  0  0  0  0  0  0  0  0
  -23.4594  -10.7345   20.5744 C   0  0  0  0  0  0  0  0  0  0  0  0
  -24.3727  -13.0383   21.1794 C   0  0  0  0  0  0  0  0  0  0  0  0
  -27.9396  -33.9396   25.1656 C   0  0  0  0  0  0  0  0  0  0  0  0
  -26.1749  -28.8979   19.4784 C   0  0  0  0  0  0  0  0  0  0  0  0
  -28.2825  -33.1339   24.0631 C   0  0  0  0  0  0  0  0  0  0  0  0
  -25.6356  -27.8337   20.2150 C   0  0  0  0  0  0  0  0  0  0  0  0
  -29.8512  -20.5442   21.9686 C   0  0  0  0  0  0  0  0  0  0  0  0
  -29.3156  -21.9343   20.0629 C   0  0  0  0  0  0  0  0  0  0  0  0
  -22.2315   -8.2960   21.1477 C   0  0  0  0  0  0  0  0  0  0  0  0
  -26.7670  -26.2605   18.7470 C   0  0  0  0  0  0  0  0  0  0  0  0
  -22.0507   -6.4259   22.5592 C   0  0  0  0  0  0  0  0  0  0  0  0
  -22.8931   -5.0588   24.8404 C   0  0  0  0  0  0  0  0  0  0  0  0
  -22.5901   -5.1446   22.4450 C   0  0  0  0  0  0  0  0  0  0  0  0
  -24.0942  -11.9935   20.2779 C   0  0  0  0  0  0  0  0  0  0  0  0
  -24.9765  -14.0032   20.4108 C   0  0  0  0  0  0  0  0  0  0  0  0
  -29.9706  -19.6530   19.7859 C   0  0  0  0  0  0  0  0  0  0  0  0
  -30.6242  -17.3150   19.2314 C   0  0  0  0  0  0  0  0  0  0  0  0
  -24.1092  -13.1284   22.5858 C   0  0  0  0  0  0  0  0  0  0  0  0
  -26.5774  -30.4038   22.2486 C   0  0  0  0  0  0  0  0  0  0  0  0
  -23.3951  -29.8588   22.5618 C   0  0  0  0  0  0  0  0  0  0  0  0
  -20.6783  -27.9823   21.6988 C   0  0  0  0  0  0  0  0  0  0  0  0
  -28.6249  -15.5215   16.4783 C   0  0  0  0  0  0  0  0  0  0  0  0
  -27.1810  -33.3873   26.3464 C   0  0  0  0  0  0  0  0  0  0  0  0
  -25.8416  -30.3197   19.8387 C   0  0  0  0  0  0  0  0  0  0  0  0
  -24.7384  -28.0653   21.4024 C   0  0  0  0  0  0  0  0  0  0  0  0
  -26.4654  -32.0720   26.0494 C   0  0  0  0  0  0  0  0  0  0  0  0
  -25.4357  -14.4024   15.3882 C   0  0  0  0  0  0  0  0  0  0  0  0
  -27.3963  -31.1115   25.3163 C   0  0  0  0  0  0  0  0  0  0  0  0
  -24.8253  -13.7604   16.6353 C   0  0  0  0  0  0  0  0  0  0  0  0
  -26.9385  -14.1457   15.2995 C   0  0  0  0  0  0  0  0  0  0  0  0
  -29.8275  -18.3361   17.5783 C   0  0  0  0  0  0  0  0  0  0  0  0
  -27.0958  -13.8883   17.7440 C   0  0  0  0  0  0  0  0  0  0  0  0
  -27.8354  -31.6913   23.9663 C   0  0  1  0  0  0  0  0  0  0  0  0
  -30.2829  -16.8745   17.7931 C   0  0  2  0  0  0  0  0  0  0  0  0
  -25.4187  -30.4836   21.2953 C   0  0  1  0  0  0  0  0  0  0  0  0
  -25.5918  -14.1671   17.9084 C   0  0  2  0  0  0  0  0  0  0  0  0
  -18.2196  -27.7536   22.1460 C   0  0  0  0  0  0  0  0  0  0  0  0
  -24.0079  -28.5724   25.2598 C   0  0  0  0  0  0  0  0  0  0  0  0
  -21.7259  -27.5439   25.2093 C   0  0  0  0  0  0  0  0  0  0  0  0
  -21.9730  -30.0260   25.2354 C   0  0  0  0  0  0  0  0  0  0  0  0
  -19.9976  -28.4879   18.8633 C   0  0  0  0  0  0  0  0  0  0  0  0
  -28.7735  -23.3252   18.0636 C   0  0  0  0  0  0  0  0  0  0  0  0
  -28.3163  -24.7441   17.7692 C   0  0  0  0  0  0  0  0  0  1  0  0
  -22.5524  -28.7447   23.1343 C   0  0  1  0  0  0  0  0  0  0  0  0
  -19.2817  -28.3770   21.2537 C   0  0  2  0  0  0  0  0  0  0  0  0
  -22.5833  -28.7171   24.6885 C   0  0  0  0  0  0  0  0  0  0  0  0
  -24.4885  -12.2688   19.0318 N   0  0  0  0  0  0  0  0  0  0  0  0
  -25.0209  -13.4976   19.1448 N   0  0  0  0  0  0  0  0  0  0  0  0
  -30.0936  -19.5320   21.1144 N   0  3  0  0  0  0  0  0  0  0  0  0
  -30.2349  -18.5697   18.9443 N   0  0  0  0  0  0  0  0  0  0  0  0
  -24.4470  -29.4733   21.7188 N   0  0  0  0  0  0  0  0  0  0  0  0
  -27.6045  -14.5593   16.5373 N   0  0  0  0  0  0  0  0  0  0  0  0
  -25.4683  -15.2264   20.7010 N   0  0  0  0  0  0  0  0  0  0  0  0
  -23.4819  -12.0466   23.2188 N   0  0  0  0  0  0  0  0  0  0  0  0
  -28.9243  -23.1319   19.4877 N   0  0  0  0  0  0  0  0  0  0  0  0
  -26.7772  -31.5535   22.9888 N   0  0  0  0  0  0  0  0  0  0  0  0
  -21.2188  -28.9081   22.5659 N   0  0  0  0  0  0  0  0  0  0  0  0
  -29.2039  -15.8702   17.6940 N   0  0  0  0  0  0  0  0  0  0  0  0
  -19.0392  -27.9311   19.8525 N   0  3  0  0  0  0  0  0  0  0  0  0
  -31.0280  -16.7744   20.2357 O   0  0  0  0  0  0  0  0  0  0  0  0
  -24.4060  -14.1450   23.2581 O   0  0  0  0  0  0  0  0  0  0  0  0
  -27.2401  -29.3748   22.3093 O   0  0  0  0  0  0  0  0  0  0  0  0
  -23.1253  -31.0284   22.8461 O   0  0  0  0  0  0  0  0  0  0  0  0
  -21.2328  -26.9535   21.3184 O   0  0  0  0  0  0  0  0  0  0  0  0
  -28.9942  -16.0436   15.4207 O   0  0  0  0  0  0  0  0  0  0  0  0
  -21.6328   -7.1062   21.4277 O   0  0  0  0  0  0  0  0  0  0  0  0
  -27.0564  -24.9776   18.3972 O   0  0  0  0  0  0  0  0  0  1  0  0
  -23.2990   -4.4031   25.9356 F   0  0  0  0  0  0  0  0  0  0  0  0
  -22.7073   -4.5657   21.2421 F   0  0  0  0  0  0  0  0  0  0  0  0
  1  4  1  0  0  0  0
  1  5  2  0  0  0  0
  2  3  1  0  0  0  0
  2  8  2  0  0  0  0
  3  9  2  0  0  0  0
  4 11  2  0  0  0  0
  5 20  1  0  0  0  0
  6 12  2  0  0  0  0
  6 21  1  0  0  0  0
  7 13  1  0  0  0  0
  7 21  2  0  0  0  0
  8 23  1  0  0  0  0
  9 25  1  0  0  0  0
 10 14  2  0  0  0  0
 10 24  1  0  0  0  0
 11 27  1  0  0  0  0
 12 29  1  0  0  0  0
 13 29  2  0  0  0  0
 14 30  1  0  0  0  0
 15 16  2  0  0  0  0
 15 31  1  0  0  0  0
 16 32  1  0  0  0  0
 17 26  1  0  0  0  0
 17 30  2  0  0  0  0
 18 28  1  0  0  0  0
 18 36  2  0  0  0  0
 19 32  2  0  0  0  0
 19 33  1  0  0  0  0
 20 27  1  0  0  0  0
 20 28  2  0  0  0  0
 21 34  1  0  0  0  0
 22 34  1  0  0  0  0
 22 35  2  0  0  0  0
 22 38  1  0  0  0  0
 23 25  2  0  0  0  0
 23 43  1  0  0  0  0
 24 26  2  0  0  0  0
 24 44  1  0  0  0  0
 25 53  1  0  0  0  0
 26 45  1  0  0  0  0
 27 69  2  0  0  0  0
 28 75  1  0  0  0  0
 29 86  1  0  0  0  0
 30 87  1  0  0  0  0
 31 33  2  0  0  0  0
 31 86  1  0  0  0  0
 32 88  1  0  0  0  0
 33 89  1  0  0  0  0
 34 67  2  0  0  0  0
 35 68  1  0  0  0  0
 35 73  1  0  0  0  0
 36 69  1  0  0  0  0
 36 70  1  0  0  0  0
 37 54  1  0  0  0  0
 37 70  1  0  0  0  0
 37 80  2  0  0  0  0
 38 74  1  0  0  0  0
 38 81  2  0  0  0  0
 39 55  1  0  0  0  0
 39 76  1  0  0  0  0
 39 82  2  0  0  0  0
 40 64  1  0  0  0  0
 40 71  1  0  0  0  0
 40 83  2  0  0  0  0
 41 65  1  0  0  0  0
 41 77  1  0  0  0  0
 41 84  2  0  0  0  0
 42 72  1  0  0  0  0
 42 78  1  0  0  0  0
 42 85  2  0  0  0  0
 43 46  1  0  0  0  0
 44 55  1  0  0  0  0
 45 71  1  0  0  0  0
 46 48  1  0  0  0  0
 47 49  1  0  0  0  0
 47 50  1  0  0  0  0
 48 53  1  0  0  0  0
 49 56  1  0  0  0  0
 50 72  1  0  0  0  0
 51 54  1  0  0  0  0
 51 70  1  0  0  0  0
 52 56  1  0  0  0  0
 52 72  1  0  0  0  0
 53 76  1  0  0  0  0
 54 78  1  0  0  0  0
 55 71  1  0  0  0  0
 56 68  1  0  0  0  0
 57 65  1  0  0  0  0
 58 66  1  0  0  0  0
 59 66  1  0  0  0  0
 60 66  1  0  0  0  0
 61 79  1  0  0  0  0
 62 63  1  0  0  0  0
 62 75  1  0  0  0  0
 63 87  1  0  0  0  0
 64 66  1  0  0  0  0
 64 77  1  0  0  0  0
 65 79  1  0  0  0  0
 67 68  1  0  0  0  0
M  CHG  2  69   1  79   1
M  ISO  4  42 100  63 101  78 100  87 101
M  END
> <Batch ID>
0006

> <Smiles>
CNC(C)C(=O)NC(C(=O)N1Cc2cc([101O:1][101CH2:1]CNc3cc(N4CC([100NH:0][100C:0](=O)N5CCCC(n6nc(-c7ccc(Oc8ccc(F)cc8F)cc7)c(C(N)=O)c6N)C5)C4=O)nc4ccccc34)ccc2CC1C(=O)NC1CCCc2ccccc21)C(C)(C)C

> <Shape>
0.306

> <Color>
0.115

> <Negative vol penalty>
0.000

$$$$

  -OEChem-04042320293D

 86 95  0     1  0  0  0  0  0999 V2000
  -23.6375  -15.8617   24.7271 C   0  0  0  0  0  0  0  0  0  0  0  0
  -24.1953  -16.9864   24.1277 C   0  0  0  0  0  0  0  0  0  0  0  0
  -22.9989   -9.8935   19.9829 C   0  0  0  0  0  0  0  0  0  0  0  0
  -23.7216   -9.9488   22.2876 C   0  0  0  0  0  0  0  0  0  0  0  0
  -22.2724  -15.6090   24.5978 C   0  0  0  0  0  0  0  0  0  0  0  0
  -23.3886  -17.8586   23.3978 C   0  0  0  0  0  0  0  0  0  0  0  0
  -24.3267  -22.7205   24.4593 C   0  0  0  0  0  0  0  0  0  0  0  0
  -30.8692  -19.0018   20.1751 C   0  0  0  0  0  0  0  0  0  0  0  0
  -30.6517  -17.6289   20.2434 C   0  0  0  0  0  0  0  0  0  0  0  0
  -22.2315   -8.7600   20.2507 C   0  0  0  0  0  0  0  0  0  0  0  0
  -22.9541   -8.8153   22.5555 C   0  0  0  0  0  0  0  0  0  0  0  0
  -25.4579  -23.2923   23.8784 C   0  0  0  0  0  0  0  0  0  0  0  0
  -23.1970   -5.4752   22.0907 C   0  0  0  0  0  0  0  0  0  0  0  0
  -23.7832   -4.4593   22.8456 C   0  0  0  0  0  0  0  0  0  0  0  0
  -24.0683  -24.3126   22.1910 C   0  0  0  0  0  0  0  0  0  0  0  0
  -22.0576   -4.7066   24.5184 C   0  0  0  0  0  0  0  0  0  0  0  0
  -23.7440  -10.4879   21.0013 C   0  0  0  0  0  0  0  0  0  0  0  0
  -24.1309  -13.0029   20.8206 C   0  0  0  0  0  0  0  0  0  0  0  0
  -21.4468  -16.4838   23.8740 C   0  0  0  0  0  0  0  0  0  0  0  0
  -23.0570  -22.9320   23.9030 C   0  0  0  0  0  0  0  0  0  0  0  0
  -22.0114  -17.6167   23.2576 C   0  0  0  0  0  0  0  0  0  0  0  0
  -22.9224  -23.7445   22.7682 C   0  0  0  0  0  0  0  0  0  0  0  0
  -30.3384  -19.2112   22.5376 C   0  0  0  0  0  0  0  0  0  0  0  0
  -30.0983  -17.8260   22.6017 C   0  0  0  0  0  0  0  0  0  0  0  0
  -30.7110  -19.7897   21.3148 C   0  0  0  0  0  0  0  0  0  0  0  0
  -30.2711  -17.0431   21.4503 C   0  0  0  0  0  0  0  0  0  0  0  0
  -22.2090   -8.2209   21.5370 C   0  0  0  0  0  0  0  0  0  0  0  0
  -25.3291  -24.0860   22.7424 C   0  0  0  0  0  0  0  0  0  0  0  0
  -22.0412   -6.1070   22.5497 C   0  0  0  0  0  0  0  0  0  0  0  0
  -23.2134   -4.0749   24.0594 C   0  0  0  0  0  0  0  0  0  0  0  0
  -21.4715   -5.7226   23.7635 C   0  0  0  0  0  0  0  0  0  0  0  0
  -24.5375  -11.6585   20.7252 C   0  0  0  0  0  0  0  0  0  0  0  0
  -25.2415  -13.7241   20.4559 C   0  0  0  0  0  0  0  0  0  0  0  0
  -22.8628  -13.5508   21.2046 C   0  0  0  0  0  0  0  0  0  0  0  0
  -20.8244  -21.0596   22.6327 C   0  0  0  0  0  0  0  0  0  0  0  0
  -19.1029  -23.8084   22.5782 C   0  0  0  0  0  0  0  0  0  0  0  0
  -19.0939  -27.2208   22.5317 C   0  0  0  0  0  0  0  0  0  0  0  0
  -30.7212  -14.6826   20.6940 C   0  0  0  0  0  0  0  0  0  0  0  0
  -19.9853  -16.1437   23.7222 C   0  0  0  0  0  0  0  0  0  0  0  0
  -21.8436  -22.3300   24.5571 C   0  0  0  0  0  0  0  0  0  0  0  0
  -30.1446  -20.1013   23.7398 C   0  0  0  0  0  0  0  0  0  0  0  0
  -29.7183  -17.1510   23.8960 C   0  0  0  0  0  0  0  0  0  0  0  0
  -21.5793  -24.0190   22.1442 C   0  0  0  0  0  0  0  0  0  0  0  0
  -19.1330  -17.3174   23.2465 C   0  0  0  0  0  0  0  0  0  0  0  0
  -30.1172  -19.3340   25.0604 C   0  0  0  0  0  0  0  0  0  0  0  0
  -29.1990  -18.1233   24.9535 C   0  0  0  0  0  0  0  0  0  0  0  0
  -29.6042  -12.2256   18.3719 C   0  0  0  0  0  0  0  0  0  0  0  0
  -19.8036  -18.0223   22.0716 C   0  0  0  0  0  0  0  0  0  0  0  0
  -28.1530  -11.9696   18.7850 C   0  0  0  0  0  0  0  0  0  0  0  0
  -30.5035  -12.4710   19.5822 C   0  0  0  0  0  0  0  0  0  0  0  0
  -28.5871  -13.2636   20.9120 C   0  0  0  0  0  0  0  0  0  0  0  0
  -21.1646  -18.5997   22.4786 C   0  0  1  0  0  0  0  0  0  0  0  0
  -20.6587  -22.1921   23.6062 C   0  0  1  0  0  0  0  0  0  0  0  0
  -27.6306  -13.0754   19.7231 C   0  0  2  0  0  0  0  0  0  0  0  0
  -17.5350  -29.1857   22.4502 C   0  0  0  0  0  0  0  0  0  0  0  0
  -18.6260  -23.3037   19.6071 C   0  0  0  0  0  0  0  0  0  0  0  0
  -17.9147  -25.6940   19.3865 C   0  0  0  0  0  0  0  0  0  0  0  0
  -16.6285  -24.1424   20.8565 C   0  0  0  0  0  0  0  0  0  0  0  0
  -20.0561  -28.2400   25.1383 C   0  0  0  0  0  0  0  0  0  0  0  0
  -30.9433  -21.2661   21.1832 C   0  0  0  0  0  0  0  0  0  0  0  0
  -28.5383  -24.2443   21.0983 C   0  0  0  0  0  0  0  0  0  0  0  0
  -29.8783  -23.5243   21.1134 C   0  0  0  0  0  0  0  0  0  0  0  0
  -27.6620  -23.9340   22.3057 C   0  0  0  0  0  0  0  0  0  1  0  0
  -18.9156  -24.9331   21.5888 C   0  0  1  0  0  0  0  0  0  0  0  0
  -18.3153  -28.2373   23.3471 C   0  0  2  0  0  0  0  0  0  0  0  0
  -18.0469  -24.5117   20.3701 C   0  0  0  0  0  0  0  0  0  0  0  0
  -25.8071  -11.5304   20.3307 N   0  0  0  0  0  0  0  0  0  0  0  0
  -26.2079  -12.8037   20.1749 N   0  0  0  0  0  0  0  0  0  0  0  0
  -20.4237  -23.4028   22.8168 N   0  0  0  0  0  0  0  0  0  0  0  0
  -29.9481  -13.5340   20.4227 N   0  0  0  0  0  0  0  0  0  0  0  0
  -25.4758  -15.0495   20.3514 N   0  0  0  0  0  0  0  0  0  0  0  0
  -21.8302  -12.6679   21.5488 N   0  0  0  0  0  0  0  0  0  0  0  0
  -30.0766  -15.6398   21.4769 N   0  0  0  0  0  0  0  0  0  0  0  0
  -20.9900  -19.8244   23.2296 N   0  0  0  0  0  0  0  0  0  0  0  0
  -18.3770  -26.0576   22.3463 N   0  0  0  0  0  0  0  0  0  0  0  0
  -19.2419  -29.0439   24.1908 N   0  3  0  0  0  0  0  0  0  0  0  0
  -29.6817  -22.0571   21.1783 N   0  3  0  0  0  0  0  0  0  0  0  0
  -22.6468  -14.7863   21.2255 O   0  0  0  0  0  0  0  0  0  0  0  0
  -20.8021  -21.2892   21.4292 O   0  0  0  0  0  0  0  0  0  0  0  0
  -18.1143  -23.3129   23.1249 O   0  0  0  0  0  0  0  0  0  0  0  0
  -20.2235  -27.4384   22.0990 O   0  0  0  0  0  0  0  0  0  0  0  0
  -31.8605  -14.8200   20.2410 O   0  0  0  0  0  0  0  0  0  0  0  0
  -21.4600   -7.1149   21.7987 O   0  0  0  0  0  0  0  0  0  0  0  0
  -26.4317  -24.6448   22.1731 O   0  0  0  0  0  0  0  0  0  1  0  0
  -23.7755   -3.0982   24.7834 F   0  0  0  0  0  0  0  0  0  0  0  0
  -20.3604   -6.3250   24.2090 F   0  0  0  0  0  0  0  0  0  0  0  0
  1  2  1  0  0  0  0
  1  5  2  0  0  0  0
  2  6  2  0  0  0  0
  3 10  2  0  0  0  0
  3 17  1  0  0  0  0
  4 11  1  0  0  0  0
  4 17  2  0  0  0  0
  5 19  1  0  0  0  0
  6 21  1  0  0  0  0
  7 12  2  0  0  0  0
  7 20  1  0  0  0  0
  8  9  2  0  0  0  0
  8 25  1  0  0  0  0
  9 26  1  0  0  0  0
 10 27  1  0  0  0  0
 11 27  2  0  0  0  0
 12 28  1  0  0  0  0
 13 14  2  0  0  0  0
 13 29  1  0  0  0  0
 14 30  1  0  0  0  0
 15 22  1  0  0  0  0
 15 28  2  0  0  0  0
 16 30  2  0  0  0  0
 16 31  1  0  0  0  0
 17 32  1  0  0  0  0
 18 32  1  0  0  0  0
 18 33  2  0  0  0  0
 18 34  1  0  0  0  0
 19 21  2  0  0  0  0
 19 39  1  0  0  0  0
 20 22  2  0  0  0  0
 20 40  1  0  0  0  0
 21 52  1  0  0  0  0
 22 43  1  0  0  0  0
 23 24  1  0  0  0  0
 23 25  2  0  0  0  0
 23 41  1  0  0  0  0
 24 26  2  0  0  0  0
 24 42  1  0  0  0  0
 25 60  1  0  0  0  0
 26 73  1  0  0  0  0
 27 83  1  0  0  0  0
 28 84  1  0  0  0  0
 29 31  2  0  0  0  0
 29 83  1  0  0  0  0
 30 85  1  0  0  0  0
 31 86  1  0  0  0  0
 32 67  2  0  0  0  0
 33 68  1  0  0  0  0
 33 71  1  0  0  0  0
 34 72  1  0  0  0  0
 34 78  2  0  0  0  0
 35 53  1  0  0  0  0
 35 74  1  0  0  0  0
 35 79  2  0  0  0  0
 36 64  1  0  0  0  0
 36 69  1  0  0  0  0
 36 80  2  0  0  0  0
 37 65  1  0  0  0  0
 37 75  1  0  0  0  0
 37 81  2  0  0  0  0
 38 70  1  0  0  0  0
 38 73  1  0  0  0  0
 38 82  2  0  0  0  0
 39 44  1  0  0  0  0
 40 53  1  0  0  0  0
 41 45  1  0  0  0  0
 42 46  1  0  0  0  0
 43 69  1  0  0  0  0
 44 48  1  0  0  0  0
 45 46  1  0  0  0  0
 47 49  1  0  0  0  0
 47 50  1  0  0  0  0
 48 52  1  0  0  0  0
 49 54  1  0  0  0  0
 50 70  1  0  0  0  0
 51 54  1  0  0  0  0
 51 70  1  0  0  0  0
 52 74  1  0  0  0  0
 53 69  1  0  0  0  0
 54 68  1  0  0  0  0
 55 65  1  0  0  0  0
 56 66  1  0  0  0  0
 57 66  1  0  0  0  0
 58 66  1  0  0  0  0
 59 76  1  0  0  0  0
 60 77  1  0  0  0  0
 61 62  1  0  0  0  0
 61 63  1  0  0  0  0
 62 77  1  0  0  0  0
 63 84  1  0  0  0  0
 64 66  1  0  0  0  0
 64 75  1  0  0  0  0
 65 76  1  0  0  0  0
 67 68  1  0  0  0  0
M  CHG  2  76   1  77   1
M  ISO  4  38 100  63 101  73 100  84 101
M  END
> <Batch ID>
0006

> <Smiles>
CNC(C)C(=O)NC(C(=O)N1Cc2cc([101O:1][101CH2:1]CCNCc3ccc([100NH:0][100C:0](=O)N4CCCC(n5nc(-c6ccc(Oc7ccc(F)cc7F)cc6)c(C(N)=O)c5N)C4)c4c3CCCC4)ccc2CC1C(=O)NC1CCCc2ccccc21)C(C)(C)C

> <Shape>
0.248

> <Color>
0.193

> <Negative vol penalty>
0.000

$$$$

  -OEChem-04042320293D

 85 93  0     1  0  0  0  0  0999 V2000
  -31.6849  -26.6399   32.7910 C   0  0  0  0  0  0  0  0  0  0  0  0
  -32.2823  -25.3864   32.7060 C   0  0  0  0  0  0  0  0  0  0  0  0
  -23.2885   -9.8003   19.9135 C   0  0  0  0  0  0  0  0  0  0  0  0
  -23.7426   -9.9400   22.2823 C   0  0  0  0  0  0  0  0  0  0  0  0
  -30.3046  -26.7648   32.6397 C   0  0  0  0  0  0  0  0  0  0  0  0
  -31.4994  -24.2567   32.4706 C   0  0  0  0  0  0  0  0  0  0  0  0
  -33.0638  -19.3044   29.2252 C   0  0  0  0  0  0  0  0  0  0  0  0
  -22.5629   -8.6273   20.1218 C   0  0  0  0  0  0  0  0  0  0  0  0
  -23.0171   -8.7671   22.4906 C   0  0  0  0  0  0  0  0  0  0  0  0
  -33.5392  -18.0486   29.6006 C   0  0  0  0  0  0  0  0  0  0  0  0
  -20.9809   -6.0055   23.6932 C   0  0  0  0  0  0  0  0  0  0  0  0
  -20.0809   -5.9794   24.7585 C   0  0  0  0  0  0  0  0  0  0  0  0
  -31.2921  -17.1765   29.5064 C   0  0  0  0  0  0  0  0  0  0  0  0
  -32.5235  -14.0815   23.7606 C   0  0  0  0  0  0  0  0  0  0  0  0
  -31.9683  -12.8170   26.1845 C   0  0  0  0  0  0  0  0  0  0  0  0
  -18.8691   -7.8264   23.7800 C   0  0  0  0  0  0  0  0  0  0  0  0
  -23.8784  -10.4566   20.9938 C   0  0  0  0  0  0  0  0  0  0  0  0
  -24.1363  -12.9868   20.7959 C   0  0  0  0  0  0  0  0  0  0  0  0
  -29.5055  -25.6373   32.3927 C   0  0  0  0  0  0  0  0  0  0  0  0
  -31.6952  -19.5085   28.9979 C   0  0  0  0  0  0  0  0  0  0  0  0
  -30.1068  -24.3665   32.3171 C   0  0  0  0  0  0  0  0  0  0  0  0
  -30.8022  -18.4351   29.1258 C   0  0  0  0  0  0  0  0  0  0  0  0
  -33.3039  -14.3540   24.8841 C   0  0  0  0  0  0  0  0  0  0  0  0
  -31.1879  -12.5446   25.0610 C   0  0  0  0  0  0  0  0  0  0  0  0
  -33.0264  -13.7217   26.0960 C   0  0  0  0  0  0  0  0  0  0  0  0
  -31.4654  -13.1769   23.8490 C   0  0  0  0  0  0  0  0  0  0  0  0
  -22.4272   -8.1108   21.4103 C   0  0  0  0  0  0  0  0  0  0  0  0
  -32.6529  -16.9851   29.7441 C   0  0  0  0  0  0  0  0  0  0  0  0
  -20.8251   -6.9422   22.6713 C   0  0  0  0  0  0  0  0  0  0  0  0
  -19.0250   -6.8898   24.8019 C   0  0  0  0  0  0  0  0  0  0  0  0
  -19.7692   -7.8525   22.7148 C   0  0  0  0  0  0  0  0  0  0  0  0
  -24.6285  -11.6680   20.7792 C   0  0  0  0  0  0  0  0  0  0  0  0
  -25.2371  -13.7673   20.5397 C   0  0  0  0  0  0  0  0  0  0  0  0
  -22.8034  -13.4637   21.0229 C   0  0  0  0  0  0  0  0  0  0  0  0
  -29.4490  -21.3290   30.3186 C   0  0  0  0  0  0  0  0  0  0  0  0
  -27.6402  -20.1890   27.8792 C   0  0  0  0  0  0  0  0  0  0  0  0
  -27.1014  -17.7294   25.5756 C   0  0  0  0  0  0  0  0  0  0  0  0
  -31.0990  -12.9553   21.3665 C   0  0  0  0  0  0  0  0  0  0  0  0
  -28.0120  -25.8160   32.2831 C   0  0  0  0  0  0  0  0  0  0  0  0
  -31.2019  -20.8627   28.5676 C   0  0  0  0  0  0  0  0  0  0  0  0
  -29.3262  -18.5971   28.8735 C   0  0  0  0  0  0  0  0  0  0  0  0
  -27.2989  -24.6170   31.6631 C   0  0  0  0  0  0  0  0  0  0  0  0
  -29.4607  -13.6603   18.2849 C   0  0  0  0  0  0  0  0  0  0  0  0
  -27.7947  -23.3181   32.2906 C   0  0  0  0  0  0  0  0  0  0  0  0
  -27.9900  -13.3553   18.5782 C   0  0  0  0  0  0  0  0  0  0  0  0
  -30.3954  -12.6852   18.9986 C   0  0  0  0  0  0  0  0  0  0  0  0
  -28.7049  -12.2556   20.7384 C   0  0  0  0  0  0  0  0  0  0  0  0
  -29.2943  -23.1206   32.0382 C   0  0  1  0  0  0  0  0  0  0  0  0
  -29.7209  -21.0804   28.8619 C   0  0  1  0  0  0  0  0  0  0  0  0
  -27.7272  -13.2514   20.0933 C   0  0  2  0  0  0  0  0  0  0  0  0
  -34.4305  -15.3279   24.7620 C   0  0  0  0  0  0  0  0  0  0  0  0
  -28.9879  -12.0425   26.1843 C   0  0  0  0  0  0  0  0  0  0  0  0
  -30.5433  -10.1594   25.5600 C   0  0  0  0  0  0  0  0  0  0  0  0
  -25.5221  -17.0563   23.7453 C   0  0  0  0  0  0  0  0  0  0  0  0
  -25.5919  -19.3231   29.9684 C   0  0  0  0  0  0  0  0  0  0  0  0
  -24.5429  -17.8571   28.2310 C   0  0  0  0  0  0  0  0  0  0  0  0
  -24.6106  -20.3286   27.8995 C   0  0  0  0  0  0  0  0  0  0  0  0
  -29.2462  -17.8072   23.5377 C   0  0  0  0  0  0  0  0  0  0  0  0
  -34.5331  -13.9070   29.5475 C   0  0  0  0  0  0  0  0  0  0  0  0
  -33.5609  -13.3646   28.5069 C   0  0  0  0  0  0  0  0  0  0  0  0
  -34.4426  -15.4192   29.7153 C   0  0  0  0  0  0  0  0  0  1  0  0
  -30.0602  -11.5720   25.1851 C   0  0  0  0  0  0  0  0  0  0  0  0
  -26.7444  -18.9900   27.6822 C   0  0  1  0  0  0  0  0  0  0  0  0
  -26.8097  -17.7898   24.0870 C   0  0  2  0  0  0  0  0  0  0  0  0
  -25.3999  -19.1218   28.4520 C   0  0  0  0  0  0  0  0  0  0  0  0
  -25.9397  -11.6100   20.5317 N   0  0  0  0  0  0  0  0  0  0  0  0
  -26.2809  -12.9022   20.3905 N   0  0  0  0  0  0  0  0  0  0  0  0
  -28.8917  -19.9420   28.4611 N   0  0  0  0  0  0  0  0  0  0  0  0
  -30.0907  -12.6425   20.4304 N   0  0  0  0  0  0  0  0  0  0  0  0
  -25.4043  -15.1024   20.4296 N   0  0  0  0  0  0  0  0  0  0  0  0
  -21.7916  -12.5263   21.2714 N   0  0  0  0  0  0  0  0  0  0  0  0
  -30.6837  -12.9130   22.6971 N   0  0  0  0  0  0  0  0  0  0  0  0
  -33.7912  -13.9809   27.2227 N   0  0  0  0  0  0  0  0  0  0  0  0
  -29.5227  -22.6591   30.6857 N   0  0  0  0  0  0  0  0  0  0  0  0
  -26.5937  -18.8255   26.2404 N   0  0  0  0  0  0  0  0  0  0  0  0
  -27.9233  -17.1690   23.3153 N   0  3  0  0  0  0  0  0  0  0  0  0
  -22.5149  -14.6841   20.9896 O   0  0  0  0  0  0  0  0  0  0  0  0
  -29.1901  -20.3841   31.0548 O   0  0  0  0  0  0  0  0  0  0  0  0
  -27.2470  -21.3027   27.5232 O   0  0  0  0  0  0  0  0  0  0  0  0
  -27.7149  -16.8007   26.0970 O   0  0  0  0  0  0  0  0  0  0  0  0
  -32.2392  -13.2662   21.0126 O   0  0  0  0  0  0  0  0  0  0  0  0
  -21.7191   -6.9664   21.6140 O   0  0  0  0  0  0  0  0  0  0  0  0
  -33.1142  -15.7586   30.1110 O   0  0  0  0  0  0  0  0  0  1  0  0
  -18.1599   -6.8635   25.8242 F   0  0  0  0  0  0  0  0  0  0  0  0
  -19.6137   -8.7539   21.7354 F   0  0  0  0  0  0  0  0  0  0  0  0
  1  2  1  0  0  0  0
  1  5  2  0  0  0  0
  2  6  2  0  0  0  0
  3  8  2  0  0  0  0
  3 17  1  0  0  0  0
  4  9  1  0  0  0  0
  4 17  2  0  0  0  0
  5 19  1  0  0  0  0
  6 21  1  0  0  0  0
  7 10  2  0  0  0  0
  7 20  1  0  0  0  0
  8 27  1  0  0  0  0
  9 27  2  0  0  0  0
 10 28  1  0  0  0  0
 11 12  2  0  0  0  0
 11 29  1  0  0  0  0
 12 30  1  0  0  0  0
 13 22  1  0  0  0  0
 13 28  2  0  0  0  0
 14 23  1  0  0  0  0
 14 26  2  0  0  0  0
 15 24  2  0  0  0  0
 15 25  1  0  0  0  0
 16 30  2  0  0  0  0
 16 31  1  0  0  0  0
 17 32  1  0  0  0  0
 18 32  1  0  0  0  0
 18 33  2  0  0  0  0
 18 34  1  0  0  0  0
 19 21  2  0  0  0  0
 19 39  1  0  0  0  0
 20 22  2  0  0  0  0
 20 40  1  0  0  0  0
 21 48  1  0  0  0  0
 22 41  1  0  0  0  0
 23 25  2  0  0  0  0
 23 51  1  0  0  0  0
 24 26  1  0  0  0  0
 24 62  1  0  0  0  0
 25 73  1  0  0  0  0
 26 72  1  0  0  0  0
 27 82  1  0  0  0  0
 28 83  1  0  0  0  0
 29 31  2  0  0  0  0
 29 82  1  0  0  0  0
 30 84  1  0  0  0  0
 31 85  1  0  0  0  0
 32 66  2  0  0  0  0
 33 67  1  0  0  0  0
 33 70  1  0  0  0  0
 34 71  1  0  0  0  0
 34 77  2  0  0  0  0
 35 49  1  0  0  0  0
 35 74  1  0  0  0  0
 35 78  2  0  0  0  0
 36 63  1  0  0  0  0
 36 68  1  0  0  0  0
 36 79  2  0  0  0  0
 37 64  1  0  0  0  0
 37 75  1  0  0  0  0
 37 80  2  0  0  0  0
 38 69  1  0  0  0  0
 38 72  1  0  0  0  0
 38 81  2  0  0  0  0
 39 42  1  0  0  0  0
 40 49  1  0  0  0  0
 41 68  1  0  0  0  0
 42 44  1  0  0  0  0
 43 45  1  0  0  0  0
 43 46  1  0  0  0  0
 44 48  1  0  0  0  0
 45 50  1  0  0  0  0
 46 69  1  0  0  0  0
 47 50  1  0  0  0  0
 47 69  1  0  0  0  0
 48 74  1  0  0  0  0
 49 68  1  0  0  0  0
 50 67  1  0  0  0  0
 52 62  1  0  0  0  0
 53 62  1  0  0  0  0
 54 64  1  0  0  0  0
 55 65  1  0  0  0  0
 56 65  1  0  0  0  0
 57 65  1  0  0  0  0
 58 76  1  0  0  0  0
 59 60  1  0  0  0  0
 59 61  1  0  0  0  0
 60 73  1  0  0  0  0
 61 83  1  0  0  0  0
 63 65  1  0  0  0  0
 63 75  1  0  0  0  0
 64 76  1  0  0  0  0
 66 67  1  0  0  0  0
M  CHG  1  76   1
M  ISO  4  38 100  61 101  72 100  83 101
M  END
> <Batch ID>
0006

> <Smiles>
CNC(C)C(=O)NC(C(=O)N1Cc2cc([101O:1][101CH2:1]CCNc3cc(C(C)C)c([100NH:0][100C:0](=O)N4CCCC(n5nc(-c6ccc(Oc7ccc(F)cc7F)cc6)c(C(N)=O)c5N)C4)cc3C)ccc2CC1C(=O)NC1CCCc2ccccc21)C(C)(C)C

> <Shape>
0.130

> <Color>
0.174

> <Negative vol penalty>
0.000

$$$$

  -OEChem-04042320293D

 89 98  0     1  0  0  0  0  0999 V2000
  -24.6507  -20.6531   17.5485 C   0  0  0  0  0  0  0  0  0  0  0  0
  -24.5755  -19.2822   17.7674 C   0  0  0  0  0  0  0  0  0  0  0  0
  -28.5467  -20.0360   25.7336 C   0  0  0  0  0  0  0  0  0  0  0  0
  -26.2280  -28.0484   18.9099 C   0  0  0  0  0  0  0  0  0  0  0  0
  -26.4943  -27.7745   21.2955 C   0  0  0  0  0  0  0  0  0  0  0  0
  -24.3593  -21.5375   18.5849 C   0  0  0  0  0  0  0  0  0  0  0  0
  -24.1975  -18.7954   19.0192 C   0  0  0  0  0  0  0  0  0  0  0  0
  -23.4929  -13.9421   19.4102 C   0  0  0  0  0  0  0  0  0  0  0  0
  -28.1264  -18.7062   25.7138 C   0  0  0  0  0  0  0  0  0  0  0  0
  -28.8386  -20.6931   24.5382 C   0  0  0  0  0  0  0  0  0  0  0  0
  -25.1240  -28.8726   19.1277 C   0  0  0  0  0  0  0  0  0  0  0  0
  -25.3903  -28.5988   21.5134 C   0  0  0  0  0  0  0  0  0  0  0  0
  -24.5423  -13.0244   19.3929 C   0  0  0  0  0  0  0  0  0  0  0  0
  -24.7188  -31.9108   21.5172 C   0  0  0  0  0  0  0  0  0  0  0  0
  -24.8292  -32.8925   22.5020 C   0  0  0  0  0  0  0  0  0  0  0  0
  -24.3533  -12.7722   21.7845 C   0  0  0  0  0  0  0  0  0  0  0  0
  -28.2899  -18.6902   23.3034 C   0  0  0  0  0  0  0  0  0  0  0  0
  -22.9735  -31.9056   23.6935 C   0  0  0  0  0  0  0  0  0  0  0  0
  -26.9131  -27.4993   19.9938 C   0  0  0  0  0  0  0  0  0  0  0  0
  -29.4008  -27.0407   19.6644 C   0  0  0  0  0  0  0  0  0  0  0  0
  -23.9897  -21.0604   19.8532 C   0  0  0  0  0  0  0  0  0  0  0  0
  -22.8720  -14.2906   20.6183 C   0  0  0  0  0  0  0  0  0  0  0  0
  -23.8763  -19.6722   20.0712 C   0  0  0  0  0  0  0  0  0  0  0  0
  -23.2945  -13.6928   21.8142 C   0  0  0  0  0  0  0  0  0  0  0  0
  -27.9980  -18.0333   24.4988 C   0  0  0  0  0  0  0  0  0  0  0  0
  -28.7102  -20.0201   23.3231 C   0  0  0  0  0  0  0  0  0  0  0  0
  -24.7052  -29.1478   20.4294 C   0  0  0  0  0  0  0  0  0  0  0  0
  -24.9745  -12.4414   20.5805 C   0  0  0  0  0  0  0  0  0  0  0  0
  -23.7358  -30.9266   21.6205 C   0  0  0  0  0  0  0  0  0  0  0  0
  -23.9565  -32.8899   23.5901 C   0  0  0  0  0  0  0  0  0  0  0  0
  -22.8632  -30.9240   22.7087 C   0  0  0  0  0  0  0  0  0  0  0  0
  -28.0532  -26.6473   19.7694 C   0  0  0  0  0  0  0  0  0  0  0  0
  -30.0853  -25.8686   19.4543 C   0  0  0  0  0  0  0  0  0  0  0  0
  -29.9820  -28.3487   19.7492 C   0  0  0  0  0  0  0  0  0  0  0  0
  -22.5322  -16.9850   22.2701 C   0  0  0  0  0  0  0  0  0  0  0  0
  -28.2696  -14.9714   22.7461 C   0  0  0  0  0  0  0  0  0  0  0  0
  -20.6234  -15.1422   24.1363 C   0  0  0  0  0  0  0  0  0  0  0  0
  -19.7872  -12.0212   25.2350 C   0  0  0  0  0  0  0  0  0  0  0  0
  -28.9310  -20.1666   20.8179 C   0  0  0  0  0  0  0  0  0  0  0  0
  -23.6776  -22.0621   20.9368 C   0  0  0  0  0  0  0  0  0  0  0  0
  -21.7237  -15.2622   20.6166 C   0  0  0  0  0  0  0  0  0  0  0  0
  -22.6478  -14.0177   23.1350 C   0  0  0  0  0  0  0  0  0  0  0  0
  -23.7202  -21.4569   22.3362 C   0  0  0  0  0  0  0  0  0  0  0  0
  -29.5391  -21.4988   17.5725 C   0  0  0  0  0  0  0  0  0  0  0  0
  -30.5327  -15.0085   20.3192 C   0  0  0  0  0  0  0  0  0  0  0  0
  -22.9015  -20.1751   22.3732 C   0  0  0  0  0  0  0  0  0  0  0  0
  -30.6069  -15.0087   21.8362 C   0  0  0  0  0  0  0  0  0  0  0  0
  -29.3557  -23.0066   17.7594 C   0  0  0  0  0  0  0  0  0  0  0  0
  -28.5521  -20.6981   18.4202 C   0  0  0  0  0  0  0  0  0  0  0  0
  -28.3564  -22.5483   20.0350 C   0  0  0  0  0  0  0  0  0  0  0  0
  -30.0823  -13.5999   20.0034 C   0  0  0  0  0  0  0  0  0  0  0  0
  -23.4969  -19.1194   21.4331 C   0  0  1  0  0  0  0  0  0  0  0  0
  -21.5046  -15.9306   21.9703 C   0  0  1  0  0  0  0  0  0  0  0  0
  -29.4300  -14.1492   22.2892 C   0  0  2  0  0  0  0  0  0  0  0  0
  -29.3715  -23.3957   19.2507 C   0  0  2  0  0  0  0  0  0  0  0  0
  -18.2112  -10.8358   26.7869 C   0  0  0  0  0  0  0  0  0  0  0  0
  -22.3020  -16.0382   26.5215 C   0  0  0  0  0  0  0  0  0  0  0  0
  -21.3239  -14.1432   27.8330 C   0  0  0  0  0  0  0  0  0  0  0  0
  -19.8405  -15.9459   26.9540 C   0  0  0  0  0  0  0  0  0  0  0  0
  -18.5646  -10.4943   23.0141 C   0  0  0  0  0  0  0  0  0  0  0  0
  -27.5456  -16.6018   24.4781 C   0  0  0  0  0  0  0  0  0  0  0  0
  -28.3178  -11.1793   20.0747 C   0  0  0  0  0  0  0  0  0  0  0  0
  -28.8028  -11.8858   21.3316 C   0  0  0  0  0  0  0  0  0  0  0  0
  -26.9876  -11.7057   19.5500 C   0  0  0  0  0  0  0  0  0  1  0  0
  -20.8361  -14.2666   25.3475 C   0  0  1  0  0  0  0  0  0  0  0  0
  -18.4442  -11.3258   25.3662 C   0  0  2  0  0  0  0  0  0  0  0  0
  -21.0893  -15.0936   26.6395 C   0  0  0  0  0  0  0  0  0  0  0  0
  -27.8893  -25.3284   19.6368 N   0  0  0  0  0  0  0  0  0  0  0  0
  -29.1427  -24.8828   19.4462 N   0  0  0  0  0  0  0  0  0  0  0  0
  -21.5332  -14.9782   23.0822 N   0  0  0  0  0  0  0  0  0  0  0  0
  -28.6262  -21.1177   19.8214 N   0  0  0  0  0  0  0  0  0  0  0  0
  -31.3954  -25.5953   19.2774 N   0  0  0  0  0  0  0  0  0  0  0  0
  -29.1346  -29.4433   19.9687 N   0  0  0  0  0  0  0  0  0  0  0  0
  -29.0061  -20.6881   22.1090 N   0  0  0  0  0  0  0  0  0  0  0  0
  -22.5823  -18.0031   21.3371 N   0  0  0  0  0  0  0  0  0  0  0  0
  -28.5275  -15.7329   23.8699 N   0  0  0  0  0  0  0  0  0  0  0  0
  -19.6775  -13.3831   25.4210 N   0  0  0  0  0  0  0  0  0  0  0  0
  -29.0379  -13.3378   21.0623 N   0  3  2  0  0  0  0  0  0  0  0  0
  -18.3757  -10.1542   24.4478 N   0  3  0  0  0  0  0  0  0  0  0  0
  -31.2142  -28.5429   19.6175 O   0  0  0  0  0  0  0  0  0  0  0  0
  -23.2270  -16.8833   23.2744 O   0  0  0  0  0  0  0  0  0  0  0  0
  -27.2137  -14.9234   22.1260 O   0  0  0  0  0  0  0  0  0  0  0  0
  -19.6803  -15.9372   24.1229 O   0  0  0  0  0  0  0  0  0  0  0  0
  -20.8299  -11.4164   24.9954 O   0  0  0  0  0  0  0  0  0  0  0  0
  -29.1388  -18.9821   20.5426 O   0  0  0  0  0  0  0  0  0  0  0  0
  -23.6281  -29.9523   20.6424 O   0  0  0  0  0  0  0  0  0  0  0  0
  -25.9990  -11.5458   20.5665 O   0  0  0  0  0  0  0  0  0  1  0  0
  -24.0636  -33.8317   24.5365 F   0  0  0  0  0  0  0  0  0  0  0  0
  -21.9175  -29.9803   22.8140 F   0  0  0  0  0  0  0  0  0  0  0  0
  1  2  1  0  0  0  0
  1  6  2  0  0  0  0
  2  7  2  0  0  0  0
  3  9  2  0  0  0  0
  3 10  1  0  0  0  0
  4 11  2  0  0  0  0
  4 19  1  0  0  0  0
  5 12  1  0  0  0  0
  5 19  2  0  0  0  0
  6 21  1  0  0  0  0
  7 23  1  0  0  0  0
  8 13  2  0  0  0  0
  8 22  1  0  0  0  0
  9 25  1  0  0  0  0
 10 26  2  0  0  0  0
 11 27  1  0  0  0  0
 12 27  2  0  0  0  0
 13 28  1  0  0  0  0
 14 15  2  0  0  0  0
 14 29  1  0  0  0  0
 15 30  1  0  0  0  0
 16 24  1  0  0  0  0
 16 28  2  0  0  0  0
 17 25  2  0  0  0  0
 17 26  1  0  0  0  0
 18 30  2  0  0  0  0
 18 31  1  0  0  0  0
 19 32  1  0  0  0  0
 20 32  1  0  0  0  0
 20 33  2  0  0  0  0
 20 34  1  0  0  0  0
 21 23  2  0  0  0  0
 21 40  1  0  0  0  0
 22 24  2  0  0  0  0
 22 41  1  0  0  0  0
 23 52  1  0  0  0  0
 24 42  1  0  0  0  0
 25 61  1  0  0  0  0
 26 74  1  0  0  0  0
 27 86  1  0  0  0  0
 28 87  1  0  0  0  0
 29 31  2  0  0  0  0
 29 86  1  0  0  0  0
 30 88  1  0  0  0  0
 31 89  1  0  0  0  0
 32 68  2  0  0  0  0
 33 69  1  0  0  0  0
 33 72  1  0  0  0  0
 34 73  1  0  0  0  0
 34 80  2  0  0  0  0
 35 53  1  0  0  0  0
 35 75  1  0  0  0  0
 35 81  2  0  0  0  0
 36 54  1  0  0  0  0
 36 76  1  0  0  0  0
 36 82  2  0  0  0  0
 37 65  1  0  0  0  0
 37 70  1  0  0  0  0
 37 83  2  0  0  0  0
 38 66  1  0  0  0  0
 38 77  1  0  0  0  0
 38 84  2  0  0  0  0
 39 71  1  0  0  0  0
 39 74  1  0  0  0  0
 39 85  2  0  0  0  0
 40 43  1  0  0  0  0
 41 53  1  0  0  0  0
 42 70  1  0  0  0  0
 43 46  1  0  0  0  0
 44 48  1  0  0  0  0
 44 49  1  0  0  0  0
 45 47  1  0  0  0  0
 45 51  1  0  0  0  0
 46 52  1  0  0  0  0
 47 54  1  0  0  0  0
 48 55  1  0  0  0  0
 49 71  1  0  0  0  0
 50 55  1  0  0  0  0
 50 71  1  0  0  0  0
 51 78  1  0  0  0  0
 52 75  1  0  0  0  0
 53 70  1  0  0  0  0
 54 78  1  0  0  0  0
 55 69  1  0  0  0  0
 56 66  1  0  0  0  0
 57 67  1  0  0  0  0
 58 67  1  0  0  0  0
 59 67  1  0  0  0  0
 60 79  1  0  0  0  0
 61 76  1  0  0  0  0
 62 63  1  0  0  0  0
 62 64  1  0  0  0  0
 63 78  1  0  0  0  0
 64 87  1  0  0  0  0
 65 67  1  0  0  0  0
 65 77  1  0  0  0  0
 66 79  1  0  0  0  0
 68 69  1  0  0  0  0
M  CHG  2  78   1  79   1
M  ISO  4  39 100  64 101  74 100  87 101
M  END
> <Batch ID>
0006

> <Smiles>
CNC(C)C(=O)NC(C(=O)N1Cc2cc([101O:1][101CH2:1]CCN3CCCC3C(=O)NCc3cccc([100NH:0][100C:0](=O)N4CCCC(n5nc(-c6ccc(Oc7ccc(F)cc7F)cc6)c(C(N)=O)c5N)C4)c3)ccc2CC1C(=O)NC1CCCc2ccccc21)C(C)(C)C

> <Shape>
0.220

> <Color>
0.051

> <Negative vol penalty>
0.000

$$$$

  -OEChem-04042320293D

 83 92  0     1  0  0  0  0  0999 V2000
  -40.2660  -27.3159   19.4659 C   0  0  0  0  0  0  0  0  0  0  0  0
  -39.3850  -26.6977   20.3474 C   0  0  0  0  0  0  0  0  0  0  0  0
  -23.0852   -9.8389   20.0624 C   0  0  0  0  0  0  0  0  0  0  0  0
  -23.7991  -10.0135   22.3639 C   0  0  0  0  0  0  0  0  0  0  0  0
  -39.7781  -28.1770   18.4838 C   0  0  0  0  0  0  0  0  0  0  0  0
  -38.0156  -26.9412   20.2481 C   0  0  0  0  0  0  0  0  0  0  0  0
  -35.2592  -22.7076   20.5998 C   0  0  0  0  0  0  0  0  0  0  0  0
  -32.6779  -17.6296   23.1795 C   0  0  0  0  0  0  0  0  0  0  0  0
  -32.0708  -16.6941   22.3367 C   0  0  0  0  0  0  0  0  0  0  0  0
  -22.3274   -8.7126   20.3829 C   0  0  0  0  0  0  0  0  0  0  0  0
  -23.0413   -8.8872   22.6844 C   0  0  0  0  0  0  0  0  0  0  0  0
  -35.0652  -22.1782   21.8749 C   0  0  0  0  0  0  0  0  0  0  0  0
  -19.7955   -8.1576   23.2787 C   0  0  0  0  0  0  0  0  0  0  0  0
  -19.0150   -8.2107   24.4335 C   0  0  0  0  0  0  0  0  0  0  0  0
  -29.8707  -17.6025   22.8174 C   0  0  0  0  0  0  0  0  0  0  0  0
  -29.9524  -19.6113   24.4795 C   0  0  0  0  0  0  0  0  0  0  0  0
  -32.8690  -23.1734   21.9475 C   0  0  0  0  0  0  0  0  0  0  0  0
  -20.2260   -6.3263   25.3386 C   0  0  0  0  0  0  0  0  0  0  0  0
  -30.4600  -18.5551   23.6722 C   0  0  0  0  0  0  0  0  0  0  0  0
  -23.8212  -10.4893   21.0529 C   0  0  0  0  0  0  0  0  0  0  0  0
  -24.1853  -12.9960   20.7507 C   0  0  0  0  0  0  0  0  0  0  0  0
  -38.4012  -28.4236   18.3662 C   0  0  0  0  0  0  0  0  0  0  0  0
  -34.2621  -23.4843   19.9924 C   0  0  0  0  0  0  0  0  0  0  0  0
  -37.5090  -27.8075   19.2644 C   0  0  0  0  0  0  0  0  0  0  0  0
  -33.0517  -23.7094   20.6636 C   0  0  0  0  0  0  0  0  0  0  0  0
  -31.8472  -18.5467   23.8332 C   0  0  0  0  0  0  0  0  0  0  0  0
  -30.6891  -16.6790   22.1570 C   0  0  0  0  0  0  0  0  0  0  0  0
  -22.3054   -8.2367   21.6939 C   0  0  0  0  0  0  0  0  0  0  0  0
  -33.8712  -22.4135   22.5501 C   0  0  0  0  0  0  0  0  0  0  0  0
  -20.7912   -7.1888   23.1538 C   0  0  0  0  0  0  0  0  0  0  0  0
  -19.2303   -7.2951   25.4635 C   0  0  0  0  0  0  0  0  0  0  0  0
  -21.0065   -6.2731   24.1838 C   0  0  0  0  0  0  0  0  0  0  0  0
  -24.6047  -11.6525   20.7223 C   0  0  0  0  0  0  0  0  0  0  0  0
  -25.2904  -13.7091   20.3546 C   0  0  0  0  0  0  0  0  0  0  0  0
  -31.0212  -20.2122   25.1035 C   0  0  0  0  0  0  0  0  0  0  0  0
  -22.9108  -13.5500   21.1035 C   0  0  0  0  0  0  0  0  0  0  0  0
  -34.0705  -26.4875   18.9687 C   0  0  0  0  0  0  0  0  0  0  0  0
  -31.1839  -25.5128   17.8551 C   0  0  0  0  0  0  0  0  0  0  0  0
  -28.5743  -23.3265   18.0938 C   0  0  0  0  0  0  0  0  0  0  0  0
  -30.7601  -14.7299   20.5626 C   0  0  0  0  0  0  0  0  0  0  0  0
  -37.9252  -29.3990   17.3190 C   0  0  0  0  0  0  0  0  0  0  0  0
  -34.4762  -24.0259   18.6056 C   0  0  0  0  0  0  0  0  0  0  0  0
  -31.9418  -24.5197   20.0471 C   0  0  0  0  0  0  0  0  0  0  0  0
  -36.4266  -29.3120   17.0418 C   0  0  0  0  0  0  0  0  0  0  0  0
  -29.6742  -12.1519   18.3598 C   0  0  0  0  0  0  0  0  0  0  0  0
  -35.6435  -29.2669   18.3501 C   0  0  0  0  0  0  0  0  0  0  0  0
  -28.2240  -11.9027   18.7804 C   0  0  0  0  0  0  0  0  0  0  0  0
  -30.5669  -12.4646   19.5594 C   0  0  0  0  0  0  0  0  0  0  0  0
  -28.6385  -13.3031   20.8429 C   0  0  0  0  0  0  0  0  0  0  0  0
  -36.0145  -28.0270   19.1727 C   0  0  1  0  0  0  0  0  0  0  0  0
  -33.5962  -25.2322   18.2927 C   0  0  1  0  0  0  0  0  0  0  0  0
  -27.6881  -13.0480   19.6617 C   0  0  2  0  0  0  0  0  0  0  0  0
  -26.3422  -22.8044   17.0727 C   0  0  0  0  0  0  0  0  0  0  0  0
  -29.9513  -27.8697   19.3504 C   0  0  0  0  0  0  0  0  0  0  0  0
  -27.7155  -26.7721   19.0958 C   0  0  0  0  0  0  0  0  0  0  0  0
  -28.9998  -27.4663   17.0730 C   0  0  0  0  0  0  0  0  0  0  0  0
  -29.4656  -20.6378   17.2361 C   0  0  0  0  0  0  0  0  0  0  0  0
  -33.5555  -19.9126   25.1636 C   0  0  0  0  0  0  0  0  0  0  0  0
  -34.3408  -20.6710   24.0990 C   0  0  0  0  0  0  0  0  0  1  0  0
  -29.7818  -25.4700   18.4129 C   0  0  1  0  0  0  0  0  0  0  0  0
  -27.8359  -22.5205   17.0404 C   0  0  2  0  0  0  0  0  0  0  0  0
  -29.1336  -26.8809   18.4957 C   0  0  0  0  0  0  0  0  0  0  0  0
  -25.8768  -11.5174   20.3384 N   0  0  0  0  0  0  0  0  0  0  0  0
  -32.1598  -19.5633   24.7073 N   0  0  0  0  0  0  0  0  0  0  0  0
  -26.2664  -12.7852   20.1219 N   0  0  0  0  0  0  0  0  0  0  0  0
  -32.2015  -25.0331   18.6919 N   0  0  0  0  0  0  0  0  0  0  0  0
  -29.9987  -13.5621   20.3453 N   0  0  0  0  0  0  0  0  0  0  0  0
  -25.5128  -15.0299   20.1862 N   0  0  0  0  0  0  0  0  0  0  0  0
  -21.8852  -12.6753   21.4872 N   0  0  0  0  0  0  0  0  0  0  0  0
  -30.1039  -15.7180   21.2957 N   0  0  0  0  0  0  0  0  0  0  0  0
  -35.3617  -26.8515   18.6374 N   0  0  0  0  0  0  0  0  0  0  0  0
  -29.0430  -24.5205   17.5877 N   0  0  0  0  0  0  0  0  0  0  0  0
  -28.0421  -21.0619   17.2655 N   0  3  0  0  0  0  0  0  0  0  0  0
  -22.6832  -14.7830   21.0634 O   0  0  0  0  0  0  0  0  0  0  0  0
  -33.3200  -27.0826   19.7331 O   0  0  0  0  0  0  0  0  0  0  0  0
  -31.3686  -25.9490   16.7161 O   0  0  0  0  0  0  0  0  0  0  0  0
  -28.7175  -22.9376   19.2508 O   0  0  0  0  0  0  0  0  0  0  0  0
  -31.8997  -14.8557   20.1069 O   0  0  0  0  0  0  0  0  0  0  0  0
  -31.0681  -21.2331   25.9493 O   0  0  0  0  0  0  0  0  0  0  0  0
  -21.5658   -7.1379   22.0070 O   0  0  0  0  0  0  0  0  0  0  0  0
  -33.6795  -21.8985   23.7951 O   0  0  0  0  0  0  0  0  0  1  0  0
  -18.4817   -7.3472   26.5730 F   0  0  0  0  0  0  0  0  0  0  0  0
  -21.9624   -5.3409   24.0701 F   0  0  0  0  0  0  0  0  0  0  0  0
  1  2  1  0  0  0  0
  1  5  2  0  0  0  0
  2  6  2  0  0  0  0
  3 10  2  0  0  0  0
  3 20  1  0  0  0  0
  4 11  1  0  0  0  0
  4 20  2  0  0  0  0
  5 22  1  0  0  0  0
  6 24  1  0  0  0  0
  7 12  2  0  0  0  0
  7 23  1  0  0  0  0
  8  9  2  0  0  0  0
  8 26  1  0  0  0  0
  9 27  1  0  0  0  0
 10 28  1  0  0  0  0
 11 28  2  0  0  0  0
 12 29  1  0  0  0  0
 13 14  2  0  0  0  0
 13 30  1  0  0  0  0
 14 31  1  0  0  0  0
 15 19  1  0  0  0  0
 15 27  2  0  0  0  0
 16 19  1  0  0  0  0
 16 35  2  0  0  0  0
 17 25  1  0  0  0  0
 17 29  2  0  0  0  0
 18 31  2  0  0  0  0
 18 32  1  0  0  0  0
 19 26  2  0  0  0  0
 20 33  1  0  0  0  0
 21 33  1  0  0  0  0
 21 34  2  0  0  0  0
 21 36  1  0  0  0  0
 22 24  2  0  0  0  0
 22 41  1  0  0  0  0
 23 25  2  0  0  0  0
 23 42  1  0  0  0  0
 24 50  1  0  0  0  0
 25 43  1  0  0  0  0
 26 64  1  0  0  0  0
 27 70  1  0  0  0  0
 28 80  1  0  0  0  0
 29 81  1  0  0  0  0
 30 32  2  0  0  0  0
 30 80  1  0  0  0  0
 31 82  1  0  0  0  0
 32 83  1  0  0  0  0
 33 63  2  0  0  0  0
 34 65  1  0  0  0  0
 34 68  1  0  0  0  0
 35 64  1  0  0  0  0
 35 79  1  0  0  0  0
 36 69  1  0  0  0  0
 36 74  2  0  0  0  0
 37 51  1  0  0  0  0
 37 71  1  0  0  0  0
 37 75  2  0  0  0  0
 38 60  1  0  0  0  0
 38 66  1  0  0  0  0
 38 76  2  0  0  0  0
 39 61  1  0  0  0  0
 39 72  1  0  0  0  0
 39 77  2  0  0  0  0
 40 67  1  0  0  0  0
 40 70  1  0  0  0  0
 40 78  2  0  0  0  0
 41 44  1  0  0  0  0
 42 51  1  0  0  0  0
 43 66  1  0  0  0  0
 44 46  1  0  0  0  0
 45 47  1  0  0  0  0
 45 48  1  0  0  0  0
 46 50  1  0  0  0  0
 47 52  1  0  0  0  0
 48 67  1  0  0  0  0
 49 52  1  0  0  0  0
 49 67  1  0  0  0  0
 50 71  1  0  0  0  0
 51 66  1  0  0  0  0
 52 65  1  0  0  0  0
 53 61  1  0  0  0  0
 54 62  1  0  0  0  0
 55 62  1  0  0  0  0
 56 62  1  0  0  0  0
 57 73  1  0  0  0  0
 58 59  1  0  0  0  0
 58 64  1  0  0  0  0
 59 81  1  0  0  0  0
 60 62  1  0  0  0  0
 60 72  1  0  0  0  0
 61 73  1  0  0  0  0
 63 65  1  0  0  0  0
M  CHG  1  73   1
M  ISO  4  40 100  59 101  70 100  81 101
M  END
> <Batch ID>
0006

> <Smiles>
CNC(C)C(=O)NC(C(=O)N1Cc2cc([101O:1][101CH2:1]CN3C(=O)Cc4cc([100NH:0][100C:0](=O)N5CCCC(n6nc(-c7ccc(Oc8ccc(F)cc8F)cc7)c(C(N)=O)c6N)C5)ccc43)ccc2CC1C(=O)NC1CCCc2ccccc21)C(C)(C)C

> <Shape>
0.217

> <Color>
0.201

> <Negative vol penalty>
0.000

$$$$

  -OEChem-04042320293D

 86 95  0     1  0  0  0  0  0999 V2000
  -21.3481  -27.0794   26.6800 C   0  0  0  0  0  0  0  0  0  0  0  0
  -22.3440  -26.8927   25.7267 C   0  0  0  0  0  0  0  0  0  0  0  0
  -23.9852   -9.3625   21.0158 C   0  0  0  0  0  0  0  0  0  0  0  0
  -25.6428   -9.6529   22.7494 C   0  0  0  0  0  0  0  0  0  0  0  0
  -20.1283  -27.6448   26.3107 C   0  0  0  0  0  0  0  0  0  0  0  0
  -22.1201  -27.2703   24.4032 C   0  0  0  0  0  0  0  0  0  0  0  0
  -26.1003  -29.8282   22.3765 C   0  0  0  0  0  0  0  0  0  0  0  0
  -29.7010  -20.9656   21.0547 C   0  0  0  0  0  0  0  0  0  0  0  0
  -29.7279  -19.5876   20.8405 C   0  0  0  0  0  0  0  0  0  0  0  0
  -23.7229   -8.0745   21.4824 C   0  0  0  0  0  0  0  0  0  0  0  0
  -25.3804   -8.3648   23.2160 C   0  0  0  0  0  0  0  0  0  0  0  0
  -27.2126  -29.0990   21.9582 C   0  0  0  0  0  0  0  0  0  0  0  0
  -21.9859   -6.6452   24.0069 C   0  0  0  0  0  0  0  0  0  0  0  0
  -20.6511   -6.2607   24.1326 C   0  0  0  0  0  0  0  0  0  0  0  0
  -26.4006  -29.1742   19.6882 C   0  0  0  0  0  0  0  0  0  0  0  0
  -27.6093  -19.3691   21.9812 C   0  0  0  0  0  0  0  0  0  0  0  0
  -21.0229   -4.4582   22.5673 C   0  0  0  0  0  0  0  0  0  0  0  0
  -24.9452  -10.1517   21.6493 C   0  0  0  0  0  0  0  0  0  0  0  0
  -24.3097  -12.5544   21.0740 C   0  0  0  0  0  0  0  0  0  0  0  0
  -19.8929  -28.0384   24.9840 C   0  0  0  0  0  0  0  0  0  0  0  0
  -25.1225  -30.2278   21.4541 C   0  0  0  0  0  0  0  0  0  0  0  0
  -20.8955  -27.8402   24.0155 C   0  0  0  0  0  0  0  0  0  0  0  0
  -25.2794  -29.9124   20.0966 C   0  0  0  0  0  0  0  0  0  0  0  0
  -28.6284  -21.5454   21.7322 C   0  0  0  0  0  0  0  0  0  0  0  0
  -28.6820  -18.7893   21.3038 C   0  0  0  0  0  0  0  0  0  0  0  0
  -24.4204   -7.5756   22.5825 C   0  0  0  0  0  0  0  0  0  0  0  0
  -27.3617  -28.7700   20.6142 C   0  0  0  0  0  0  0  0  0  0  0  0
  -22.8393   -5.9363   23.1613 C   0  0  0  0  0  0  0  0  0  0  0  0
  -20.1695   -5.1672   23.4129 C   0  0  0  0  0  0  0  0  0  0  0  0
  -27.5825  -20.7471   22.1954 C   0  0  0  0  0  0  0  0  0  0  0  0
  -22.3577   -4.8428   22.4415 C   0  0  0  0  0  0  0  0  0  0  0  0
  -25.2171  -11.4822   21.1675 C   0  0  0  0  0  0  0  0  0  0  0  0
  -25.0526  -13.5891   20.5603 C   0  0  0  0  0  0  0  0  0  0  0  0
  -22.9195  -12.6101   21.4205 C   0  0  0  0  0  0  0  0  0  0  0  0
  -21.9903  -29.7226   21.0303 C   0  0  0  0  0  0  0  0  0  0  0  0
  -22.4853  -31.9584   18.6200 C   0  0  0  0  0  0  0  0  0  0  0  0
  -19.4549  -33.1645   17.6191 C   0  0  0  0  0  0  0  0  0  0  0  0
  -29.6986  -16.6553   20.4324 C   0  0  0  0  0  0  0  0  0  0  0  0
  -18.5413  -28.6016   24.6228 C   0  0  0  0  0  0  0  0  0  0  0  0
  -23.9451  -31.0401   21.9214 C   0  0  0  0  0  0  0  0  0  0  0  0
  -24.2605  -30.3211   19.0674 C   0  0  0  0  0  0  0  0  0  0  0  0
  -18.5207  -29.3193   23.2757 C   0  0  0  0  0  0  0  0  0  0  0  0
  -29.7005  -13.6294   18.5561 C   0  0  0  0  0  0  0  0  0  0  0  0
  -19.2259  -28.4816   22.2137 C   0  0  0  0  0  0  0  0  0  0  0  0
  -28.4596  -12.8892   19.0605 C   0  0  0  0  0  0  0  0  0  0  0  0
  -30.4002  -14.3939   19.6785 C   0  0  0  0  0  0  0  0  0  0  0  0
  -29.8540  -23.6746   22.0921 C   0  0  0  0  0  0  0  0  0  0  0  0
  -27.4444  -23.7444   21.6035 C   0  0  0  0  0  0  0  0  0  0  0  0
  -28.2955  -14.5621   20.9477 C   0  0  0  0  0  0  0  0  0  0  0  0
  -30.1603  -24.3911   20.7786 C   0  0  0  0  0  0  0  0  0  0  0  0
  -27.6964  -24.4573   20.2802 C   0  0  0  0  0  0  0  0  0  0  0  0
  -20.6996  -28.2598   22.5748 C   0  0  1  0  0  0  0  0  0  0  0  0
  -22.7615  -31.0099   20.9567 C   0  0  1  0  0  0  0  0  0  0  0  0
  -27.5202  -13.8302   19.8400 C   0  0  2  0  0  0  0  0  0  0  0  0
  -18.3555  -35.2392   16.7334 C   0  0  0  0  0  0  0  0  0  0  0  0
  -22.5796  -33.1942   21.4074 C   0  0  0  0  0  0  0  0  0  0  0  0
  -20.7188  -34.7203   20.7168 C   0  0  0  0  0  0  0  0  0  0  0  0
  -22.9132  -34.8175   19.5344 C   0  0  0  0  0  0  0  0  0  0  0  0
  -18.6321  -31.8030   15.1235 C   0  0  0  0  0  0  0  0  0  0  0  0
  -29.2515  -26.0531   19.1487 C   0  0  0  0  0  0  0  0  0  0  0  0
  -28.2753  -27.2101   19.0689 C   0  0  0  0  0  0  0  0  0  1  0  0
  -21.3828  -32.8427   19.1468 C   0  0  1  0  0  0  0  0  0  0  0  0
  -19.0348  -33.9266   16.3752 C   0  0  2  0  0  0  0  0  0  0  0  0
  -21.8955  -33.8654   20.1997 C   0  0  0  0  0  0  0  0  0  0  0  0
  -26.4428  -11.8058   20.7469 N   0  0  0  0  0  0  0  0  0  0  0  0
  -26.3108  -13.0930   20.3840 N   0  0  0  0  0  0  0  0  0  0  0  0
  -28.6052  -22.9196   21.9455 N   0  0  0  0  0  0  0  0  0  0  0  0
  -23.1768  -31.1821   19.5588 N   0  0  0  0  0  0  0  0  0  0  0  0
  -29.4497  -15.2679   20.3694 N   0  0  0  0  0  0  0  0  0  0  0  0
  -24.7458  -14.8658   20.2467 N   0  0  0  0  0  0  0  0  0  0  0  0
  -22.3125  -11.4565   21.9353 N   0  0  0  0  0  0  0  0  0  0  0  0
  -28.7094  -17.3894   21.0860 N   0  0  0  0  0  0  0  0  0  0  0  0
  -21.4756  -29.4459   22.2826 N   0  0  0  0  0  0  0  0  0  0  0  0
  -20.7546  -33.4513   17.9792 N   0  0  0  0  0  0  0  0  0  0  0  0
  -28.9785  -25.2588   20.3949 N   0  3  0  0  0  0  0  0  0  0  0  0
  -18.0858  -33.1122   15.5646 N   0  3  0  0  0  0  0  0  0  0  0  0
  -22.2318  -13.6472   21.2624 O   0  0  0  0  0  0  0  0  0  0  0  0
  -21.8697  -29.0322   20.0251 O   0  0  0  0  0  0  0  0  0  0  0  0
  -22.7336  -31.9598   17.4111 O   0  0  0  0  0  0  0  0  0  0  0  0
  -18.7038  -32.3948   18.2141 O   0  0  0  0  0  0  0  0  0  0  0  0
  -30.7010  -17.1588   19.9189 O   0  0  0  0  0  0  0  0  0  0  0  0
  -24.1645   -6.3189   23.0381 O   0  0  0  0  0  0  0  0  0  0  0  0
  -28.4467  -28.0588   20.2032 O   0  0  0  0  0  0  0  0  0  1  0  0
  -18.8880   -4.7971   23.5349 F   0  0  0  0  0  0  0  0  0  0  0  0
  -26.5476  -21.2941   22.8489 F   0  0  0  0  0  0  0  0  0  0  0  0
  -23.1731   -4.1572   21.6285 F   0  0  0  0  0  0  0  0  0  0  0  0
  1  2  1  0  0  0  0
  1  5  2  0  0  0  0
  2  6  2  0  0  0  0
  3 10  2  0  0  0  0
  3 18  1  0  0  0  0
  4 11  1  0  0  0  0
  4 18  2  0  0  0  0
  5 20  1  0  0  0  0
  6 22  1  0  0  0  0
  7 12  2  0  0  0  0
  7 21  1  0  0  0  0
  8  9  2  0  0  0  0
  8 24  1  0  0  0  0
  9 25  1  0  0  0  0
 10 26  1  0  0  0  0
 11 26  2  0  0  0  0
 12 27  1  0  0  0  0
 13 14  2  0  0  0  0
 13 28  1  0  0  0  0
 14 29  1  0  0  0  0
 15 23  1  0  0  0  0
 15 27  2  0  0  0  0
 16 25  2  0  0  0  0
 16 30  1  0  0  0  0
 17 29  2  0  0  0  0
 17 31  1  0  0  0  0
 18 32  1  0  0  0  0
 19 32  1  0  0  0  0
 19 33  2  0  0  0  0
 19 34  1  0  0  0  0
 20 22  2  0  0  0  0
 20 39  1  0  0  0  0
 21 23  2  0  0  0  0
 21 40  1  0  0  0  0
 22 52  1  0  0  0  0
 23 41  1  0  0  0  0
 24 30  2  0  0  0  0
 24 67  1  0  0  0  0
 25 72  1  0  0  0  0
 26 82  1  0  0  0  0
 27 83  1  0  0  0  0
 28 31  2  0  0  0  0
 28 82  1  0  0  0  0
 29 84  1  0  0  0  0
 30 85  1  0  0  0  0
 31 86  1  0  0  0  0
 32 65  2  0  0  0  0
 33 66  1  0  0  0  0
 33 70  1  0  0  0  0
 34 71  1  0  0  0  0
 34 77  2  0  0  0  0
 35 53  1  0  0  0  0
 35 73  1  0  0  0  0
 35 78  2  0  0  0  0
 36 62  1  0  0  0  0
 36 68  1  0  0  0  0
 36 79  2  0  0  0  0
 37 63  1  0  0  0  0
 37 74  1  0  0  0  0
 37 80  2  0  0  0  0
 38 69  1  0  0  0  0
 38 72  1  0  0  0  0
 38 81  2  0  0  0  0
 39 42  1  0  0  0  0
 40 53  1  0  0  0  0
 41 68  1  0  0  0  0
 42 44  1  0  0  0  0
 43 45  1  0  0  0  0
 43 46  1  0  0  0  0
 44 52  1  0  0  0  0
 45 54  1  0  0  0  0
 46 69  1  0  0  0  0
 47 50  1  0  0  0  0
 47 67  1  0  0  0  0
 48 51  1  0  0  0  0
 48 67  1  0  0  0  0
 49 54  1  0  0  0  0
 49 69  1  0  0  0  0
 50 75  1  0  0  0  0
 51 75  1  0  0  0  0
 52 73  1  0  0  0  0
 53 68  1  0  0  0  0
 54 66  1  0  0  0  0
 55 63  1  0  0  0  0
 56 64  1  0  0  0  0
 57 64  1  0  0  0  0
 58 64  1  0  0  0  0
 59 76  1  0  0  0  0
 60 61  1  0  0  0  0
 60 75  1  0  0  0  0
 61 83  1  0  0  0  0
 62 64  1  0  0  0  0
 62 74  1  0  0  0  0
 63 76  1  0  0  0  0
 65 66  1  0  0  0  0
M  CHG  2  75   1  76   1
M  ISO  4  38 100  61 101  72 100  83 101
M  END
> <Batch ID>
0006

> <Smiles>
CNC(C)C(=O)NC(C(=O)N1Cc2cc([101O:1][101CH2:1]CN3CCN(c4ccc([100NH:0][100C:0](=O)N5CCCC(n6nc(-c7ccc(Oc8ccc(F)cc8F)cc7)c(C(N)=O)c6N)C5)cc4F)CC3)ccc2CC1C(=O)NC1CCCc2ccccc21)C(C)(C)C

> <Shape>
0.304

> <Color>
0.135

> <Negative vol penalty>
0.000

$$$$

  -OEChem-04042320293D

 80 88  0     1  0  0  0  0  0999 V2000
  -18.9924  -27.3975   26.2265 C   0  0  0  0  0  0  0  0  0  0  0  0
  -20.1777  -26.8912   25.7029 C   0  0  0  0  0  0  0  0  0  0  0  0
  -30.1410  -13.6930   19.1107 C   0  0  0  0  0  0  0  0  0  0  0  0
  -28.2916  -13.4323   20.6433 C   0  0  0  0  0  0  0  0  0  0  0  0
  -18.2029  -28.2540   25.4603 C   0  0  0  0  0  0  0  0  0  0  0  0
  -20.5737  -27.2404   24.4122 C   0  0  0  0  0  0  0  0  0  0  0  0
  -26.3043  -28.0678   22.4168 C   0  0  0  0  0  0  0  0  0  0  0  0
  -29.7281  -12.5545   18.4188 C   0  0  0  0  0  0  0  0  0  0  0  0
  -27.8787  -12.2938   19.9514 C   0  0  0  0  0  0  0  0  0  0  0  0
  -27.1837  -27.2400   21.7204 C   0  0  0  0  0  0  0  0  0  0  0  0
  -28.7640   -9.0364   19.7608 C   0  0  0  0  0  0  0  0  0  0  0  0
  -28.4042   -7.9169   20.5111 C   0  0  0  0  0  0  0  0  0  0  0  0
  -26.5066  -28.2736   19.6486 C   0  0  0  0  0  0  0  0  0  0  0  0
  -26.1857   -7.9907   19.5573 C   0  0  0  0  0  0  0  0  0  0  0  0
  -29.4228  -14.1319   20.2231 C   0  0  0  0  0  0  0  0  0  0  0  0
  -31.0852  -15.5102   21.5811 C   0  0  0  0  0  0  0  0  0  0  0  0
  -18.5943  -28.6215   24.1632 C   0  0  0  0  0  0  0  0  0  0  0  0
  -25.5101  -28.9989   21.7320 C   0  0  0  0  0  0  0  0  0  0  0  0
  -19.7880  -28.1016   23.6275 C   0  0  0  0  0  0  0  0  0  0  0  0
  -25.6198  -29.1139   20.3389 C   0  0  0  0  0  0  0  0  0  0  0  0
  -28.5969  -11.8549   18.8391 C   0  0  0  0  0  0  0  0  0  0  0  0
  -27.2829  -27.3408   20.3358 C   0  0  0  0  0  0  0  0  0  0  0  0
  -27.8346   -9.6331   18.9088 C   0  0  0  0  0  0  0  0  0  0  0  0
  -27.1151   -7.3941   20.4094 C   0  0  0  0  0  0  0  0  0  0  0  0
  -26.5455   -9.1102   18.8071 C   0  0  0  0  0  0  0  0  0  0  0  0
  -29.8491  -15.3077   20.9386 C   0  0  0  0  0  0  0  0  0  0  0  0
  -30.9958  -16.7761   22.1064 C   0  0  0  0  0  0  0  0  0  0  0  0
  -32.2135  -14.6325   21.6930 C   0  0  0  0  0  0  0  0  0  0  0  0
  -22.3838  -29.4398   21.3638 C   0  0  0  0  0  0  0  0  0  0  0  0
  -23.3385  -32.1444   19.8485 C   0  0  0  0  0  0  0  0  0  0  0  0
  -23.8666  -34.9334   17.9540 C   0  0  0  0  0  0  0  0  0  0  0  0
  -27.7552  -21.5871   20.6219 C   0  0  0  0  0  0  0  0  0  0  0  0
  -17.6843  -29.5127   23.3555 C   0  0  0  0  0  0  0  0  0  0  0  0
  -24.5859  -29.9030   22.5006 C   0  0  0  0  0  0  0  0  0  0  0  0
  -24.8041  -30.1112   19.5589 C   0  0  0  0  0  0  0  0  0  0  0  0
  -18.3629  -30.1313   22.1361 C   0  0  0  0  0  0  0  0  0  0  0  0
  -29.0078  -23.2356   16.0740 C   0  0  0  0  0  0  0  0  0  0  0  0
  -27.7984  -19.9229   23.7692 C   0  0  0  0  0  0  0  0  0  0  0  0
  -30.4579  -23.7085   16.1145 C   0  0  0  0  0  0  0  0  0  0  0  0
  -19.1515  -29.0737   21.3702 C   0  0  0  0  0  0  0  0  0  0  0  0
  -28.4404  -18.5697   23.4586 C   0  0  0  0  0  0  0  0  0  0  0  0
  -28.7145  -22.1591   17.1190 C   0  0  0  0  0  0  0  0  0  0  0  0
  -26.9076  -20.4009   22.6246 C   0  0  0  0  0  0  0  0  0  0  0  0
  -28.2052  -19.0859   20.9935 C   0  0  0  0  0  0  0  0  0  0  0  0
  -30.7627  -24.8328   17.0962 C   0  0  0  0  0  0  0  0  0  0  0  0
  -29.9231  -23.4081   19.0323 C   0  0  0  0  0  0  0  0  0  0  0  0
  -20.2638  -28.4768   22.2408 C   0  0  1  0  0  0  0  0  0  0  0  0
  -23.4496  -30.4600   21.6485 C   0  0  1  0  0  0  0  0  0  0  0  0
  -29.1569  -18.5887   22.0950 C   0  0  2  0  0  0  0  0  0  0  0  0
  -28.6828  -22.6406   18.5717 C   0  0  2  0  0  0  0  0  0  0  0  0
  -22.7608  -36.3803   16.2273 C   0  0  0  0  0  0  0  0  0  0  0  0
  -23.8954  -30.0282   17.7221 C   0  0  0  0  0  0  0  0  0  0  0  0
  -23.6845  -31.8185   15.9847 C   0  0  0  0  0  0  0  0  0  0  0  0
  -21.7343  -31.2532   17.4338 C   0  0  0  0  0  0  0  0  0  0  0  0
  -23.9660  -37.3105   19.7142 C   0  0  0  0  0  0  0  0  0  0  0  0
  -30.4202  -25.8409   19.3319 C   0  0  0  0  0  0  0  0  0  0  0  0
  -29.3192  -26.1122   20.3379 C   0  0  0  0  0  0  0  0  0  1  0  0
  -23.6946  -32.5041   18.4262 C   0  0  1  0  0  0  0  0  0  0  0  0
  -23.0105  -36.1635   17.7117 C   0  0  2  0  0  0  0  0  0  0  0  0
  -23.2711  -31.4035   17.4129 C   0  0  0  0  0  0  0  0  0  0  0  0
  -29.0342  -16.3605   21.0449 N   0  0  0  0  0  0  0  0  0  0  0  0
  -29.7596  -17.2368   21.7604 N   0  0  0  0  0  0  0  0  0  0  0  0
  -23.9102  -30.9685   20.3549 N   0  0  0  0  0  0  0  0  0  0  0  0
  -27.6474  -20.3971   21.3603 N   0  0  0  0  0  0  0  0  0  0  0  0
  -31.8548  -17.5289   22.8260 N   0  0  0  0  0  0  0  0  0  0  0  0
  -32.2740  -13.7583   22.7868 N   0  0  0  0  0  0  0  0  0  0  0  0
  -21.3870  -29.3861   22.3193 N   0  0  0  0  0  0  0  0  0  0  0  0
  -23.0968  -33.8107   18.1738 N   0  0  0  0  0  0  0  0  0  0  0  0
  -28.4786  -21.4976   19.4389 N   0  0  0  0  0  0  0  0  0  0  0  0
  -29.9640  -24.7694   18.3705 N   0  3  1  0  0  0  0  0  0  0  0  0
  -23.6813  -37.3771   18.2576 N   0  3  0  0  0  0  0  0  0  0  0  0
  -33.1485  -14.6353   20.8569 O   0  0  0  0  0  0  0  0  0  0  0  0
  -22.4594  -28.7534   20.3515 O   0  0  0  0  0  0  0  0  0  0  0  0
  -22.5867  -32.8834   20.4890 O   0  0  0  0  0  0  0  0  0  0  0  0
  -25.0952  -34.9646   17.9451 O   0  0  0  0  0  0  0  0  0  0  0  0
  -27.2491  -22.6518   20.9923 O   0  0  0  0  0  0  0  0  0  0  0  0
  -28.1936  -10.7439   18.1640 O   0  0  0  0  0  0  0  0  0  0  0  0
  -28.1400  -26.5335   19.6535 O   0  0  0  0  0  0  0  0  0  1  0  0
  -26.7702   -6.3181   21.1288 F   0  0  0  0  0  0  0  0  0  0  0  0
  -25.6486   -9.6784   17.9894 F   0  0  0  0  0  0  0  0  0  0  0  0
  1  2  1  0  0  0  0
  1  5  2  0  0  0  0
  2  6  2  0  0  0  0
  3  8  2  0  0  0  0
  3 15  1  0  0  0  0
  4  9  1  0  0  0  0
  4 15  2  0  0  0  0
  5 17  1  0  0  0  0
  6 19  1  0  0  0  0
  7 10  2  0  0  0  0
  7 18  1  0  0  0  0
  8 21  1  0  0  0  0
  9 21  2  0  0  0  0
 10 22  1  0  0  0  0
 11 12  2  0  0  0  0
 11 23  1  0  0  0  0
 12 24  1  0  0  0  0
 13 20  1  0  0  0  0
 13 22  2  0  0  0  0
 14 24  2  0  0  0  0
 14 25  1  0  0  0  0
 15 26  1  0  0  0  0
 16 26  1  0  0  0  0
 16 27  2  0  0  0  0
 16 28  1  0  0  0  0
 17 19  2  0  0  0  0
 17 33  1  0  0  0  0
 18 20  2  0  0  0  0
 18 34  1  0  0  0  0
 19 47  1  0  0  0  0
 20 35  1  0  0  0  0
 21 77  1  0  0  0  0
 22 78  1  0  0  0  0
 23 25  2  0  0  0  0
 23 77  1  0  0  0  0
 24 79  1  0  0  0  0
 25 80  1  0  0  0  0
 26 61  2  0  0  0  0
 27 62  1  0  0  0  0
 27 65  1  0  0  0  0
 28 66  1  0  0  0  0
 28 72  2  0  0  0  0
 29 48  1  0  0  0  0
 29 67  1  0  0  0  0
 29 73  2  0  0  0  0
 30 58  1  0  0  0  0
 30 63  1  0  0  0  0
 30 74  2  0  0  0  0
 31 59  1  0  0  0  0
 31 68  1  0  0  0  0
 31 75  2  0  0  0  0
 32 64  1  0  0  0  0
 32 69  1  0  0  0  0
 32 76  2  0  0  0  0
 33 36  1  0  0  0  0
 34 48  1  0  0  0  0
 35 63  1  0  0  0  0
 36 40  1  0  0  0  0
 37 39  1  0  0  0  0
 37 42  1  0  0  0  0
 38 41  1  0  0  0  0
 38 43  1  0  0  0  0
 39 45  1  0  0  0  0
 40 47  1  0  0  0  0
 41 49  1  0  0  0  0
 42 50  1  0  0  0  0
 43 64  1  0  0  0  0
 44 49  1  0  0  0  0
 44 64  1  0  0  0  0
 45 70  1  0  0  0  0
 46 50  1  0  0  0  0
 46 70  1  0  0  0  0
 47 67  1  0  0  0  0
 48 63  1  0  0  0  0
 49 62  1  0  0  0  0
 50 69  1  0  0  0  0
 51 59  1  0  0  0  0
 52 60  1  0  0  0  0
 53 60  1  0  0  0  0
 54 60  1  0  0  0  0
 55 71  1  0  0  0  0
 56 57  1  0  0  0  0
 56 70  1  0  0  0  0
 57 78  1  0  0  0  0
 58 60  1  0  0  0  0
 58 68  1  0  0  0  0
 59 71  1  0  0  0  0
 61 62  1  0  0  0  0
M  CHG  2  70   1  71   1
M  ISO  4  32 100  57 101  69 100  78 101
M  END
> <Batch ID>
0006

> <Smiles>
CNC(C)C(=O)NC(C(=O)N1Cc2cc([101O:1][101CH2:1]CN3CCCCC([100NH:0][100C:0](=O)N4CCCC(n5nc(-c6ccc(Oc7ccc(F)cc7F)cc6)c(C(N)=O)c5N)C4)C3)ccc2CC1C(=O)NC1CCCc2ccccc21)C(C)(C)C

> <Shape>
0.248

> <Color>
0.086

> <Negative vol penalty>
0.000

$$$$

  -OEChem-04042320293D

 82 90  0     1  0  0  0  0  0999 V2000
  -33.0153  -25.4731   18.4961 C   0  0  0  0  0  0  0  0  0  0  0  0
  -31.6899  -25.2198   18.8346 C   0  0  0  0  0  0  0  0  0  0  0  0
  -23.2207  -10.2846   22.2613 C   0  0  0  0  0  0  0  0  0  0  0  0
  -23.6329   -9.7992   19.9307 C   0  0  0  0  0  0  0  0  0  0  0  0
  -33.7623  -26.3838   19.2420 C   0  0  0  0  0  0  0  0  0  0  0  0
  -31.1111  -25.8764   19.9202 C   0  0  0  0  0  0  0  0  0  0  0  0
  -26.4720  -27.6238   18.8852 C   0  0  0  0  0  0  0  0  0  0  0  0
  -22.4813   -9.1074   22.3757 C   0  0  0  0  0  0  0  0  0  0  0  0
  -22.8934   -8.6220   20.0451 C   0  0  0  0  0  0  0  0  0  0  0  0
  -25.4271  -26.7009   18.8955 C   0  0  0  0  0  0  0  0  0  0  0  0
  -20.7878   -6.0491   23.3728 C   0  0  0  0  0  0  0  0  0  0  0  0
  -21.0192   -5.2437   24.4878 C   0  0  0  0  0  0  0  0  0  0  0  0
  -24.8080  -27.4356   21.1082 C   0  0  0  0  0  0  0  0  0  0  0  0
  -23.3299   -4.9938   23.8278 C   0  0  0  0  0  0  0  0  0  0  0  0
  -23.7965  -10.6305   21.0387 C   0  0  0  0  0  0  0  0  0  0  0  0
  -25.9427  -12.0064   21.1308 C   0  0  0  0  0  0  0  0  0  0  0  0
  -33.1895  -27.0590   20.3313 C   0  0  0  0  0  0  0  0  0  0  0  0
  -26.6999  -28.4533   19.9926 C   0  0  0  0  0  0  0  0  0  0  0  0
  -31.8516  -26.7960   20.6822 C   0  0  0  0  0  0  0  0  0  0  0  0
  -25.8549  -28.3699   21.1085 C   0  0  0  0  0  0  0  0  0  0  0  0
  -22.3176   -8.2761   21.2676 C   0  0  0  0  0  0  0  0  0  0  0  0
  -24.5966  -26.6047   20.0082 C   0  0  0  0  0  0  0  0  0  0  0  0
  -21.8274   -6.3268   22.4851 C   0  0  0  0  0  0  0  0  0  0  0  0
  -22.2902   -4.7161   24.7154 C   0  0  0  0  0  0  0  0  0  0  0  0
  -23.0984   -5.7992   22.7127 C   0  0  0  0  0  0  0  0  0  0  0  0
  -24.5600  -11.8466   20.9198 C   0  0  0  0  0  0  0  0  0  0  0  0
  -26.1745  -13.3392   20.8933 C   0  0  0  0  0  0  0  0  0  0  0  0
  -24.3367  -21.0492   22.1384 C   0  0  0  0  0  0  0  0  0  0  0  0
  -26.9293  -11.0367   21.5077 C   0  0  0  0  0  0  0  0  0  0  0  0
  -23.9205  -21.0189   23.4174 C   0  0  0  0  0  0  0  0  0  0  0  0
  -29.0997  -28.8557   22.0378 C   0  0  0  0  0  0  0  0  0  0  0  0
  -27.2685  -31.3137   23.0995 C   0  0  0  0  0  0  0  0  0  0  0  0
  -24.1633  -32.7006   23.3848 C   0  0  0  0  0  0  0  0  0  0  0  0
  -24.5280  -18.6019   21.9015 C   0  0  0  0  0  0  0  0  0  0  0  0
  -34.0507  -27.9993   21.1368 C   0  0  0  0  0  0  0  0  0  0  0  0
  -27.8149  -29.4622   19.9552 C   0  0  0  0  0  0  0  0  0  0  0  0
  -26.0447  -29.2518   22.3146 C   0  0  0  0  0  0  0  0  0  0  0  0
  -24.6425  -22.3892   21.5099 C   0  0  0  0  0  0  0  0  0  0  0  0
  -33.2513  -28.9326   22.0425 C   0  0  0  0  0  0  0  0  0  0  0  0
  -23.2221  -16.8966   18.8619 C   0  0  0  0  0  0  0  0  0  0  0  0
  -32.1826  -28.1531   22.8022 C   0  0  0  0  0  0  0  0  0  0  0  0
  -23.5258  -15.4341   19.1855 C   0  0  0  0  0  0  0  0  0  0  0  0
  -23.9759  -20.8709   19.0077 C   0  0  0  0  0  0  0  0  0  0  0  0
  -22.9587  -17.6978   20.1307 C   0  0  0  0  0  0  0  0  0  0  0  0
  -24.9035  -20.0723   19.9320 C   0  0  0  0  0  0  0  0  0  0  0  0
  -24.3714  -16.1677   21.4632 C   0  0  0  0  0  0  0  0  0  0  0  0
  -22.9663  -21.8022   19.6644 C   0  0  0  0  0  0  0  0  0  0  0  0
  -31.1809  -27.5068   21.8376 C   0  0  1  0  0  0  0  0  0  0  0  0
  -28.2717  -29.8997   21.3435 C   0  0  1  0  0  0  0  0  0  0  0  0
  -24.6655  -15.3209   20.2131 C   0  0  1  0  0  0  0  0  0  0  0  0
  -23.5977  -19.7318   24.1109 C   0  0  0  0  0  0  0  0  0  0  0  0
  -23.7553  -22.2708   24.2221 C   0  0  0  0  0  0  0  0  0  0  0  0
  -22.9772  -34.6963   24.3374 C   0  0  0  0  0  0  0  0  0  0  0  0
  -27.4976  -30.1126   25.8949 C   0  0  0  0  0  0  0  0  0  0  0  0
  -25.5727  -31.5521   26.5955 C   0  0  0  0  0  0  0  0  0  0  0  0
  -27.6940  -32.6043   25.8109 C   0  0  0  0  0  0  0  0  0  0  0  0
  -23.2250  -33.5632   20.7138 C   0  0  0  0  0  0  0  0  0  0  0  0
  -22.5991  -23.7891   21.1063 C   0  0  0  0  0  0  0  0  0  0  0  0
  -23.1948  -25.1713   21.2874 C   0  0  0  0  0  0  0  0  0  1  0  0
  -26.1808  -31.4670   24.1350 C   0  0  1  0  0  0  0  0  0  0  0  0
  -23.6591  -34.1064   23.1128 C   0  0  2  0  0  0  0  0  0  0  0  0
  -26.7336  -31.4159   25.5873 C   0  0  0  0  0  0  0  0  0  0  0  0
  -23.9559  -12.9868   20.5749 N   0  0  0  0  0  0  0  0  0  0  0  0
  -24.9637  -13.8759   20.5675 N   0  0  0  0  0  0  0  0  0  0  0  0
  -24.4625  -19.9001   21.3323 N   0  0  0  0  0  0  0  0  0  0  0  0
  -27.1525  -30.2179   22.2325 N   0  0  0  0  0  0  0  0  0  0  0  0
  -24.0513  -17.5492   21.0977 N   0  0  0  0  0  0  0  0  0  0  0  0
  -27.2939  -14.0927   20.9336 N   0  0  0  0  0  0  0  0  0  0  0  0
  -26.5201   -9.7119   21.7121 N   0  0  0  0  0  0  0  0  0  0  0  0
  -30.2414  -28.4932   21.3489 N   0  0  0  0  0  0  0  0  0  0  0  0
  -25.4760  -32.7016   23.8070 N   0  0  0  0  0  0  0  0  0  0  0  0
  -23.6310  -22.8794   20.4858 N   0  3  1  0  0  0  0  0  0  0  0  0
  -22.6807  -34.0973   21.9887 N   0  3  0  0  0  0  0  0  0  0  0  0
  -28.1351  -11.3396   21.6748 O   0  0  0  0  0  0  0  0  0  0  0  0
  -28.7309  -28.4129   23.1193 O   0  0  0  0  0  0  0  0  0  0  0  0
  -28.1834  -32.1400   23.0566 O   0  0  0  0  0  0  0  0  0  0  0  0
  -23.4617  -31.7018   23.2410 O   0  0  0  0  0  0  0  0  0  0  0  0
  -25.0100  -18.3955   23.0218 O   0  0  0  0  0  0  0  0  0  0  0  0
  -21.5963   -7.1273   21.3790 O   0  0  0  0  0  0  0  0  0  0  0  0
  -23.5690  -25.6978   20.0212 O   0  0  0  0  0  0  0  0  0  1  0  0
  -22.5127   -3.9439   25.7870 F   0  0  0  0  0  0  0  0  0  0  0  0
  -24.1014   -6.0635   21.8642 F   0  0  0  0  0  0  0  0  0  0  0  0
  1  2  1  0  0  0  0
  1  5  2  0  0  0  0
  2  6  2  0  0  0  0
  3  8  2  0  0  0  0
  3 15  1  0  0  0  0
  4  9  1  0  0  0  0
  4 15  2  0  0  0  0
  5 17  1  0  0  0  0
  6 19  1  0  0  0  0
  7 10  2  0  0  0  0
  7 18  1  0  0  0  0
  8 21  1  0  0  0  0
  9 21  2  0  0  0  0
 10 22  1  0  0  0  0
 11 12  2  0  0  0  0
 11 23  1  0  0  0  0
 12 24  1  0  0  0  0
 13 20  1  0  0  0  0
 13 22  2  0  0  0  0
 14 24  2  0  0  0  0
 14 25  1  0  0  0  0
 15 26  1  0  0  0  0
 16 26  1  0  0  0  0
 16 27  2  0  0  0  0
 16 29  1  0  0  0  0
 17 19  2  0  0  0  0
 17 35  1  0  0  0  0
 18 20  2  0  0  0  0
 18 36  1  0  0  0  0
 19 48  1  0  0  0  0
 20 37  1  0  0  0  0
 21 79  1  0  0  0  0
 22 80  1  0  0  0  0
 23 25  2  0  0  0  0
 23 79  1  0  0  0  0
 24 81  1  0  0  0  0
 25 82  1  0  0  0  0
 26 63  2  0  0  0  0
 27 64  1  0  0  0  0
 27 68  1  0  0  0  0
 28 30  2  0  0  0  0
 28 38  1  0  0  0  0
 28 65  1  0  0  0  0
 29 69  1  0  0  0  0
 29 74  2  0  0  0  0
 30 51  1  0  0  0  0
 30 52  1  0  0  0  0
 31 49  1  0  0  0  0
 31 70  1  0  0  0  0
 31 75  2  0  0  0  0
 32 60  1  0  0  0  0
 32 66  1  0  0  0  0
 32 76  2  0  0  0  0
 33 61  1  0  0  0  0
 33 71  1  0  0  0  0
 33 77  2  0  0  0  0
 34 65  1  0  0  0  0
 34 67  1  0  0  0  0
 34 78  2  0  0  0  0
 35 39  1  0  0  0  0
 36 49  1  0  0  0  0
 37 66  1  0  0  0  0
 38 72  1  0  0  0  0
 39 41  1  0  0  0  0
 40 42  1  0  0  0  0
 40 44  1  0  0  0  0
 41 48  1  0  0  0  0
 42 50  1  0  0  0  0
 43 45  1  0  0  0  0
 43 47  1  0  0  0  0
 44 67  1  0  0  0  0
 45 65  1  0  0  0  0
 46 50  1  0  0  0  0
 46 67  1  0  0  0  0
 47 72  1  0  0  0  0
 48 70  1  0  0  0  0
 49 66  1  0  0  0  0
 50 64  1  0  0  0  0
 53 61  1  0  0  0  0
 54 62  1  0  0  0  0
 55 62  1  0  0  0  0
 56 62  1  0  0  0  0
 57 73  1  0  0  0  0
 58 59  1  0  0  0  0
 58 72  1  0  0  0  0
 59 80  1  0  0  0  0
 60 62  1  0  0  0  0
 60 71  1  0  0  0  0
 61 73  1  0  0  0  0
 63 64  1  0  0  0  0
M  CHG  2  72   1  73   1
M  ISO  4  34 100  59 101  65 100  80 101
M  END
> <Batch ID>
0006

> <Smiles>
CNC(C)C(=O)NC(C(=O)N1Cc2cc([101O:1][101CH2:1]CN3CCC[100N:0]([100C:0](=O)N4CCCC(n5nc(-c6ccc(Oc7ccc(F)cc7F)cc6)c(C(N)=O)c5N)C4)C(=C(C)C)C3)ccc2CC1C(=O)NC1CCCc2ccccc21)C(C)(C)C

> <Shape>
0.234

> <Color>
0.112

> <Negative vol penalty>
0.000

$$$$

  -OEChem-04042320293D

 86 94  0     1  0  0  0  0  0999 V2000
  -25.7420  -26.6876   23.8477 C   0  0  0  0  0  0  0  0  0  0  0  0
  -26.8360  -25.8353   23.9577 C   0  0  0  0  0  0  0  0  0  0  0  0
  -23.0230   -9.8221   19.9973 C   0  0  0  0  0  0  0  0  0  0  0  0
  -23.7316   -9.9290   22.3046 C   0  0  0  0  0  0  0  0  0  0  0  0
  -32.5224  -17.5962   23.3861 C   0  0  0  0  0  0  0  0  0  0  0  0
  -25.1995  -26.9653   22.5937 C   0  0  0  0  0  0  0  0  0  0  0  0
  -27.3875  -25.2593   22.8138 C   0  0  0  0  0  0  0  0  0  0  0  0
  -32.4473  -25.4661   22.7809 C   0  0  0  0  0  0  0  0  0  0  0  0
  -31.9521  -16.6740   22.5088 C   0  0  0  0  0  0  0  0  0  0  0  0
  -22.2734   -8.6804   20.2803 C   0  0  0  0  0  0  0  0  0  0  0  0
  -22.9820   -8.7872   22.5877 C   0  0  0  0  0  0  0  0  0  0  0  0
  -33.1276  -24.5376   23.5676 C   0  0  0  0  0  0  0  0  0  0  0  0
  -23.2843   -5.4444   22.1814 C   0  0  0  0  0  0  0  0  0  0  0  0
  -23.8833   -4.4516   22.9566 C   0  0  0  0  0  0  0  0  0  0  0  0
  -30.3282  -18.4719   23.8922 C   0  0  0  0  0  0  0  0  0  0  0  0
  -33.5387  -23.1892   21.6101 C   0  0  0  0  0  0  0  0  0  0  0  0
  -22.1444   -4.6978   24.6157 C   0  0  0  0  0  0  0  0  0  0  0  0
  -23.7522  -10.4464   21.0094 C   0  0  0  0  0  0  0  0  0  0  0  0
  -31.7105  -18.4951   24.0779 C   0  0  0  0  0  0  0  0  0  0  0  0
  -24.0973  -12.9642   20.7877 C   0  0  0  0  0  0  0  0  0  0  0  0
  -25.7507  -26.4001   21.4329 C   0  0  0  0  0  0  0  0  0  0  0  0
  -32.2979  -25.2573   21.4023 C   0  0  0  0  0  0  0  0  0  0  0  0
  -26.8511  -25.5287   21.5432 C   0  0  0  0  0  0  0  0  0  0  0  0
  -32.8583  -24.1178   20.8077 C   0  0  0  0  0  0  0  0  0  0  0  0
  -30.5698  -16.6507   22.3230 C   0  0  0  0  0  0  0  0  0  0  0  0
  -22.2529   -8.1629   21.5755 C   0  0  0  0  0  0  0  0  0  0  0  0
  -33.6710  -23.3976   22.9828 C   0  0  0  0  0  0  0  0  0  0  0  0
  -22.1153   -6.0640   22.6233 C   0  0  0  0  0  0  0  0  0  0  0  0
  -23.3134   -4.0783   24.1738 C   0  0  0  0  0  0  0  0  0  0  0  0
  -29.7579  -17.5497   23.0147 C   0  0  0  0  0  0  0  0  0  0  0  0
  -21.5453   -5.6907   23.8405 C   0  0  0  0  0  0  0  0  0  0  0  0
  -24.5271  -11.6255   20.7175 C   0  0  0  0  0  0  0  0  0  0  0  0
  -25.1975  -13.6980   20.4167 C   0  0  0  0  0  0  0  0  0  0  0  0
  -31.6906  -19.1684   27.1651 C   0  0  0  0  0  0  0  0  0  0  0  0
  -32.3208  -19.4818   25.0163 C   0  0  0  0  0  0  0  0  0  0  0  0
  -22.8180  -13.4968   21.1555 C   0  0  0  0  0  0  0  0  0  0  0  0
  -29.8216  -24.8654   19.4483 C   0  0  0  0  0  0  0  0  0  0  0  0
  -32.1131  -24.9716   17.1548 C   0  0  0  0  0  0  0  0  0  0  0  0
  -35.3927  -24.5427   16.3139 C   0  0  0  0  0  0  0  0  0  0  0  0
  -30.6587  -14.7539   20.6676 C   0  0  0  0  0  0  0  0  0  0  0  0
  -25.1005  -26.6925   20.1038 C   0  0  0  0  0  0  0  0  0  0  0  0
  -31.5844  -26.2816   20.5632 C   0  0  0  0  0  0  0  0  0  0  0  0
  -32.7432  -23.8571   19.3288 C   0  0  0  0  0  0  0  0  0  0  0  0
  -25.9772  -26.3376   18.9057 C   0  0  0  0  0  0  0  0  0  0  0  0
  -29.5967  -12.2389   18.3820 C   0  0  0  0  0  0  0  0  0  0  0  0
  -26.5902  -24.9523   19.0845 C   0  0  0  0  0  0  0  0  0  0  0  0
  -28.1477  -11.9653   18.7916 C   0  0  0  0  0  0  0  0  0  0  0  0
  -30.4849  -12.5202   19.5927 C   0  0  0  0  0  0  0  0  0  0  0  0
  -28.5478  -13.3026   20.8984 C   0  0  0  0  0  0  0  0  0  0  0  0
  -27.4927  -24.9041   20.3233 C   0  0  1  0  0  0  0  0  0  0  0  0
  -31.0475  -25.7122   19.2537 C   0  0  1  0  0  0  0  0  0  0  0  0
  -27.6014  -13.0778   19.7078 C   0  0  2  0  0  0  0  0  0  0  0  0
  -30.0242  -18.3092   28.7714 C   0  0  0  0  0  0  0  0  0  0  0  0
  -36.9567  -24.6676   14.3554 C   0  0  0  0  0  0  0  0  0  0  0  0
  -31.0180  -22.3205   16.1143 C   0  0  0  0  0  0  0  0  0  0  0  0
  -33.1400  -22.0330   14.8171 C   0  0  0  0  0  0  0  0  0  0  0  0
  -31.6369  -23.9643   14.3340 C   0  0  0  0  0  0  0  0  0  0  0  0
  -37.0192  -26.6547   17.5994 C   0  0  0  0  0  0  0  0  0  0  0  0
  -30.8976  -19.4916   28.3989 C   0  0  0  0  0  0  0  0  0  0  0  0
  -34.2365  -20.9639   25.6099 C   0  0  0  0  0  0  0  0  0  0  0  0
  -33.9220  -22.3608   25.1083 C   0  0  0  0  0  0  0  0  0  1  0  0
  -32.9888  -23.9500   16.4703 C   0  0  1  0  0  0  0  0  0  0  0  0
  -36.3552  -25.4190   15.5328 C   0  0  2  0  0  0  0  0  0  0  0  0
  -32.1966  -23.0706   15.4621 C   0  0  0  0  0  0  0  0  0  0  0  0
  -25.8010  -11.5125   20.3320 N   0  0  0  0  0  0  0  0  0  0  0  0
  -31.5611  -19.8804   26.0927 N   0  0  0  0  0  0  0  0  0  0  0  0
  -26.1810  -12.7896   20.1566 N   0  0  0  0  0  0  0  0  0  0  0  0
  -32.0309  -24.8849   18.5517 N   0  0  0  0  0  0  0  0  0  0  0  0
  -29.9068  -13.5877   20.4119 N   0  0  0  0  0  0  0  0  0  0  0  0
  -25.4099  -15.0252   20.2908 N   0  0  0  0  0  0  0  0  0  0  0  0
  -21.7985  -12.6024   21.5092 N   0  0  0  0  0  0  0  0  0  0  0  0
  -29.9936  -15.7131   21.4306 N   0  0  0  0  0  0  0  0  0  0  0  0
  -28.7673  -25.5304   20.0446 N   0  0  0  0  0  0  0  0  0  0  0  0
  -34.0942  -24.6931   15.8751 N   0  0  0  0  0  0  0  0  0  0  0  0
  -33.5022  -19.9793   24.8073 N   0  3  0  0  0  0  0  0  0  0  0  0
  -37.4659  -25.8807   16.4127 N   0  3  0  0  0  0  0  0  0  0  0  0
  -22.5808  -14.7286   21.1542 O   0  0  0  0  0  0  0  0  0  0  0  0
  -29.8311  -23.6957   19.0831 O   0  0  0  0  0  0  0  0  0  0  0  0
  -31.5293  -25.8198   16.4755 O   0  0  0  0  0  0  0  0  0  0  0  0
  -35.7568  -23.7964   17.2200 O   0  0  0  0  0  0  0  0  0  0  0  0
  -31.7980  -14.9029   20.2184 O   0  0  0  0  0  0  0  0  0  0  0  0
  -21.5213   -7.0490   21.8521 O   0  0  0  0  0  0  0  0  0  0  0  0
  -34.3349  -22.4894   23.7485 O   0  0  0  0  0  0  0  0  0  1  0  0
  -23.8879   -3.1237   24.9174 F   0  0  0  0  0  0  0  0  0  0  0  0
  -28.4280  -17.5370   22.8438 F   0  0  0  0  0  0  0  0  0  0  0  0
  -20.4217   -6.2815   24.2697 F   0  0  0  0  0  0  0  0  0  0  0  0
  1  2  1  0  0  0  0
  1  6  2  0  0  0  0
  2  7  2  0  0  0  0
  3 10  2  0  0  0  0
  3 18  1  0  0  0  0
  4 11  1  0  0  0  0
  4 18  2  0  0  0  0
  5  9  2  0  0  0  0
  5 19  1  0  0  0  0
  6 21  1  0  0  0  0
  7 23  1  0  0  0  0
  8 12  2  0  0  0  0
  8 22  1  0  0  0  0
  9 25  1  0  0  0  0
 10 26  1  0  0  0  0
 11 26  2  0  0  0  0
 12 27  1  0  0  0  0
 13 14  2  0  0  0  0
 13 28  1  0  0  0  0
 14 29  1  0  0  0  0
 15 19  2  0  0  0  0
 15 30  1  0  0  0  0
 16 24  1  0  0  0  0
 16 27  2  0  0  0  0
 17 29  2  0  0  0  0
 17 31  1  0  0  0  0
 18 32  1  0  0  0  0
 19 35  1  0  0  0  0
 20 32  1  0  0  0  0
 20 33  2  0  0  0  0
 20 36  1  0  0  0  0
 21 23  2  0  0  0  0
 21 41  1  0  0  0  0
 22 24  2  0  0  0  0
 22 42  1  0  0  0  0
 23 50  1  0  0  0  0
 24 43  1  0  0  0  0
 25 30  2  0  0  0  0
 25 72  1  0  0  0  0
 26 82  1  0  0  0  0
 27 83  1  0  0  0  0
 28 31  2  0  0  0  0
 28 82  1  0  0  0  0
 29 84  1  0  0  0  0
 30 85  1  0  0  0  0
 31 86  1  0  0  0  0
 32 65  2  0  0  0  0
 33 67  1  0  0  0  0
 33 70  1  0  0  0  0
 34 59  1  0  0  0  0
 34 66  2  0  0  0  0
 35 66  1  0  0  0  0
 35 75  2  0  0  0  0
 36 71  1  0  0  0  0
 36 77  2  0  0  0  0
 37 51  1  0  0  0  0
 37 73  1  0  0  0  0
 37 78  2  0  0  0  0
 38 62  1  0  0  0  0
 38 68  1  0  0  0  0
 38 79  2  0  0  0  0
 39 63  1  0  0  0  0
 39 74  1  0  0  0  0
 39 80  2  0  0  0  0
 40 69  1  0  0  0  0
 40 72  1  0  0  0  0
 40 81  2  0  0  0  0
 41 44  1  0  0  0  0
 42 51  1  0  0  0  0
 43 68  1  0  0  0  0
 44 46  1  0  0  0  0
 45 47  1  0  0  0  0
 45 48  1  0  0  0  0
 46 50  1  0  0  0  0
 47 52  1  0  0  0  0
 48 69  1  0  0  0  0
 49 52  1  0  0  0  0
 49 69  1  0  0  0  0
 50 73  1  0  0  0  0
 51 68  1  0  0  0  0
 52 67  1  0  0  0  0
 53 59  1  0  0  0  0
 54 63  1  0  0  0  0
 55 64  1  0  0  0  0
 56 64  1  0  0  0  0
 57 64  1  0  0  0  0
 58 76  1  0  0  0  0
 60 61  1  0  0  0  0
 60 75  1  0  0  0  0
 61 83  1  0  0  0  0
 62 64  1  0  0  0  0
 62 74  1  0  0  0  0
 63 76  1  0  0  0  0
 65 67  1  0  0  0  0
M  CHG  2  75   1  76   1
M  ISO  4  40 100  61 101  72 100  83 101
M  END
> <Batch ID>
0006

> <Smiles>
CC=CNC(=NC[101CH2:1][101O:1]c1ccc2c(c1)CN(C(=O)C(NC(=O)C(C)NC)C(C)(C)C)C(C(=O)NC1CCCc3ccccc31)C2)c1ccc([100NH:0][100C:0](=O)N2CCCC(n3nc(-c4ccc(Oc5ccc(F)cc5F)cc4)c(C(N)=O)c3N)C2)c(F)c1

> <Shape>
0.227

> <Color>
0.196

> <Negative vol penalty>
0.000

$$$$

  -OEChem-04042320293D

 83 91  0     1  0  0  0  0  0999 V2000
  -32.4055  -32.9071   23.4682 C   0  0  0  0  0  0  0  0  0  0  0  0
  -32.2352  -31.6061   23.9306 C   0  0  0  0  0  0  0  0  0  0  0  0
  -23.0735   -9.9142   19.9445 C   0  0  0  0  0  0  0  0  0  0  0  0
  -23.8295   -9.9233   22.2392 C   0  0  0  0  0  0  0  0  0  0  0  0
  -31.5188  -33.4339   22.5300 C   0  0  0  0  0  0  0  0  0  0  0  0
  -31.1774  -30.8315   23.4559 C   0  0  0  0  0  0  0  0  0  0  0  0
  -32.5969  -26.1133   22.2857 C   0  0  0  0  0  0  0  0  0  0  0  0
  -32.7226  -17.4549   23.4399 C   0  0  0  0  0  0  0  0  0  0  0  0
  -32.1277  -16.5714   22.5393 C   0  0  0  0  0  0  0  0  0  0  0  0
  -22.3169   -8.7702   20.1983 C   0  0  0  0  0  0  0  0  0  0  0  0
  -23.0729   -8.7793   22.4930 C   0  0  0  0  0  0  0  0  0  0  0  0
  -32.7680  -25.2195   23.3419 C   0  0  0  0  0  0  0  0  0  0  0  0
  -19.8353   -8.0188   23.0934 C   0  0  0  0  0  0  0  0  0  0  0  0
  -19.0760   -7.9922   24.2631 C   0  0  0  0  0  0  0  0  0  0  0  0
  -30.5918  -24.2808   22.8921 C   0  0  0  0  0  0  0  0  0  0  0  0
  -29.9514  -17.4463   23.1186 C   0  0  0  0  0  0  0  0  0  0  0  0
  -20.2953   -6.0449   25.0104 C   0  0  0  0  0  0  0  0  0  0  0  0
  -23.8299  -10.4907   20.9649 C   0  0  0  0  0  0  0  0  0  0  0  0
  -24.1989  -13.0115   20.8342 C   0  0  0  0  0  0  0  0  0  0  0  0
  -30.4552  -32.6620   22.0363 C   0  0  0  0  0  0  0  0  0  0  0  0
  -31.4154  -26.1049   21.5304 C   0  0  0  0  0  0  0  0  0  0  0  0
  -30.2749  -31.3489   22.5112 C   0  0  0  0  0  0  0  0  0  0  0  0
  -30.4092  -25.1739   21.8252 C   0  0  0  0  0  0  0  0  0  0  0  0
  -31.9319  -18.3340   24.1800 C   0  0  0  0  0  0  0  0  0  0  0  0
  -30.5463  -18.3297   24.0193 C   0  0  0  0  0  0  0  0  0  0  0  0
  -30.7421  -16.5671   22.3786 C   0  0  0  0  0  0  0  0  0  0  0  0
  -22.3166   -8.2028   21.4725 C   0  0  0  0  0  0  0  0  0  0  0  0
  -31.7642  -24.3050   23.6470 C   0  0  0  0  0  0  0  0  0  0  0  0
  -20.8246   -7.0584   22.8820 C   0  0  0  0  0  0  0  0  0  0  0  0
  -19.3060   -7.0053   25.2216 C   0  0  0  0  0  0  0  0  0  0  0  0
  -21.0547   -6.0715   23.8406 C   0  0  0  0  0  0  0  0  0  0  0  0
  -24.6121  -11.6722   20.7032 C   0  0  0  0  0  0  0  0  0  0  0  0
  -25.2996  -13.7477   20.4696 C   0  0  0  0  0  0  0  0  0  0  0  0
  -22.9333  -13.5428   21.2486 C   0  0  0  0  0  0  0  0  0  0  0  0
  -29.0925  -28.2027   20.9761 C   0  0  0  0  0  0  0  0  0  0  0  0
  -28.0711  -25.9335   18.8953 C   0  0  0  0  0  0  0  0  0  0  0  0
  -28.0364  -22.6456   17.9814 C   0  0  0  0  0  0  0  0  0  0  0  0
  -30.7764  -14.7355   20.6493 C   0  0  0  0  0  0  0  0  0  0  0  0
  -29.4947  -33.2908   21.0582 C   0  0  0  0  0  0  0  0  0  0  0  0
  -31.2574  -27.0578   20.3774 C   0  0  0  0  0  0  0  0  0  0  0  0
  -29.1304  -25.1105   21.0321 C   0  0  0  0  0  0  0  0  0  0  0  0
  -28.6203  -32.2765   20.3257 C   0  0  0  0  0  0  0  0  0  0  0  0
  -29.6403  -12.3232   18.2898 C   0  0  0  0  0  0  0  0  0  0  0  0
  -28.0410  -31.2631   21.3077 C   0  0  0  0  0  0  0  0  0  0  0  0
  -28.1969  -12.0490   18.7181 C   0  0  0  0  0  0  0  0  0  0  0  0
  -30.5557  -12.5476   19.4920 C   0  0  0  0  0  0  0  0  0  0  0  0
  -28.6543  -13.2986   20.8667 C   0  0  0  0  0  0  0  0  0  0  0  0
  -29.1542  -30.4688   22.0016 C   0  0  1  0  0  0  0  0  0  0  0  0
  -29.7996  -27.3041   20.0013 C   0  0  1  0  0  0  0  0  0  0  0  0
  -27.6817  -13.1304   19.6879 C   0  0  2  0  0  0  0  0  0  0  0  0
  -29.2015  -20.4450   23.9610 C   0  0  0  0  0  0  0  0  0  0  0  0
  -27.0838  -21.0899   16.2581 C   0  0  0  0  0  0  0  0  0  0  0  0
  -25.3590  -26.0554   20.2880 C   0  0  0  0  0  0  0  0  0  0  0  0
  -24.7776  -23.8797   19.1942 C   0  0  0  0  0  0  0  0  0  0  0  0
  -25.2451  -25.8913   17.7951 C   0  0  0  0  0  0  0  0  0  0  0  0
  -30.7279  -21.8629   17.0317 C   0  0  0  0  0  0  0  0  0  0  0  0
  -29.6800  -19.2634   24.7992 C   0  0  0  0  0  0  0  0  0  0  0  0
  -32.5945  -19.2745   25.1431 C   0  0  0  0  0  0  0  0  0  0  0  0
  -33.2408  -21.6426   25.6046 C   0  0  0  0  0  0  0  0  0  0  0  0
  -33.2624  -23.0216   24.9753 C   0  0  0  0  0  0  0  0  0  1  0  0
  -27.1549  -24.7369   18.9833 C   0  0  1  0  0  0  0  0  0  0  0  0
  -28.2633  -21.9702   16.6409 C   0  0  2  0  0  0  0  0  0  0  0  0
  -25.6573  -25.1430   19.0815 C   0  0  0  0  0  0  0  0  0  0  0  0
  -25.8766  -11.5609   20.2876 N   0  0  0  0  0  0  0  0  0  0  0  0
  -26.2674  -12.8398   20.1542 N   0  0  0  0  0  0  0  0  0  0  0  0
  -29.0205  -26.0670   19.9183 N   0  0  0  0  0  0  0  0  0  0  0  0
  -30.0063  -13.5882   20.3638 N   0  0  0  0  0  0  0  0  0  0  0  0
  -25.5244  -15.0765   20.3910 N   0  0  0  0  0  0  0  0  0  0  0  0
  -21.9111  -12.6460   21.5882 N   0  0  0  0  0  0  0  0  0  0  0  0
  -30.1375  -15.6711   21.4624 N   0  0  0  0  0  0  0  0  0  0  0  0
  -29.6738  -29.4484   21.1167 N   0  0  0  0  0  0  0  0  0  0  0  0
  -27.4717  -23.8949   17.8348 N   0  0  0  0  0  0  0  0  0  0  0  0
  -29.4871  -21.1212   16.6892 N   0  3  0  0  0  0  0  0  0  0  0  0
  -32.6442  -20.6767   24.6479 N   0  3  0  0  0  0  0  0  0  0  0  0
  -22.7101  -14.7761   21.3001 O   0  0  0  0  0  0  0  0  0  0  0  0
  -28.0927  -27.7965   21.5566 O   0  0  0  0  0  0  0  0  0  0  0  0
  -27.9536  -26.7168   17.9497 O   0  0  0  0  0  0  0  0  0  0  0  0
  -28.3273  -22.1161   19.0517 O   0  0  0  0  0  0  0  0  0  0  0  0
  -31.9080  -14.8901   20.1829 O   0  0  0  0  0  0  0  0  0  0  0  0
  -21.5782   -7.0866   21.7206 O   0  0  0  0  0  0  0  0  0  0  0  0
  -31.9284  -23.4318   24.6778 O   0  0  0  0  0  0  0  0  0  1  0  0
  -18.5778   -6.9808   26.3455 F   0  0  0  0  0  0  0  0  0  0  0  0
  -22.0045   -5.1469   23.6437 F   0  0  0  0  0  0  0  0  0  0  0  0
  1  2  1  0  0  0  0
  1  5  2  0  0  0  0
  2  6  2  0  0  0  0
  3 10  2  0  0  0  0
  3 18  1  0  0  0  0
  4 11  1  0  0  0  0
  4 18  2  0  0  0  0
  5 20  1  0  0  0  0
  6 22  1  0  0  0  0
  7 12  2  0  0  0  0
  7 21  1  0  0  0  0
  8  9  2  0  0  0  0
  8 24  1  0  0  0  0
  9 26  1  0  0  0  0
 10 27  1  0  0  0  0
 11 27  2  0  0  0  0
 12 28  1  0  0  0  0
 13 14  2  0  0  0  0
 13 29  1  0  0  0  0
 14 30  1  0  0  0  0
 15 23  1  0  0  0  0
 15 28  2  0  0  0  0
 16 25  1  0  0  0  0
 16 26  2  0  0  0  0
 17 30  2  0  0  0  0
 17 31  1  0  0  0  0
 18 32  1  0  0  0  0
 19 32  1  0  0  0  0
 19 33  2  0  0  0  0
 19 34  1  0  0  0  0
 20 22  2  0  0  0  0
 20 39  1  0  0  0  0
 21 23  2  0  0  0  0
 21 40  1  0  0  0  0
 22 48  1  0  0  0  0
 23 41  1  0  0  0  0
 24 25  2  0  0  0  0
 24 58  1  0  0  0  0
 25 57  1  0  0  0  0
 26 70  1  0  0  0  0
 27 80  1  0  0  0  0
 28 81  1  0  0  0  0
 29 31  2  0  0  0  0
 29 80  1  0  0  0  0
 30 82  1  0  0  0  0
 31 83  1  0  0  0  0
 32 64  2  0  0  0  0
 33 65  1  0  0  0  0
 33 68  1  0  0  0  0
 34 69  1  0  0  0  0
 34 75  2  0  0  0  0
 35 49  1  0  0  0  0
 35 71  1  0  0  0  0
 35 76  2  0  0  0  0
 36 61  1  0  0  0  0
 36 66  1  0  0  0  0
 36 77  2  0  0  0  0
 37 62  1  0  0  0  0
 37 72  1  0  0  0  0
 37 78  2  0  0  0  0
 38 67  1  0  0  0  0
 38 70  1  0  0  0  0
 38 79  2  0  0  0  0
 39 42  1  0  0  0  0
 40 49  1  0  0  0  0
 41 66  1  0  0  0  0
 42 44  1  0  0  0  0
 43 45  1  0  0  0  0
 43 46  1  0  0  0  0
 44 48  1  0  0  0  0
 45 50  1  0  0  0  0
 46 67  1  0  0  0  0
 47 50  1  0  0  0  0
 47 67  1  0  0  0  0
 48 71  1  0  0  0  0
 49 66  1  0  0  0  0
 50 65  1  0  0  0  0
 51 57  1  0  0  0  0
 52 62  1  0  0  0  0
 53 63  1  0  0  0  0
 54 63  1  0  0  0  0
 55 63  1  0  0  0  0
 56 73  1  0  0  0  0
 58 74  1  0  0  0  0
 59 60  1  0  0  0  0
 59 74  1  0  0  0  0
 60 81  1  0  0  0  0
 61 63  1  0  0  0  0
 61 72  1  0  0  0  0
 62 73  1  0  0  0  0
 64 65  1  0  0  0  0
M  CHG  2  73   1  74   1
M  ISO  4  38 100  60 101  70 100  81 101
M  END
> <Batch ID>
0006

> <Smiles>
CCc1cc([100NH:0][100C:0](=O)N2CCCC(n3nc(-c4ccc(Oc5ccc(F)cc5F)cc4)c(C(N)=O)c3N)C2)ccc1CNC[101CH2:1][101O:1]c1ccc2c(c1)CN(C(=O)C(NC(=O)C(C)NC)C(C)(C)C)C(C(=O)NC1CCCc3ccccc31)C2

> <Shape>
0.238

> <Color>
0.195

> <Negative vol penalty>
0.000

$$$$

  -OEChem-04042320293D

 73 80  0     1  0  0  0  0  0999 V2000
  -28.7807  -11.4027   19.8413 C   0  0  0  0  0  0  0  0  0  0  0  0
  -28.8747  -12.6791   19.2960 C   0  0  0  0  0  0  0  0  0  0  0  0
  -25.9114  -28.9143   20.8188 C   0  0  0  0  0  0  0  0  0  0  0  0
  -25.2447  -26.5922   20.8056 C   0  0  0  0  0  0  0  0  0  0  0  0
  -27.5741  -10.9659   20.3863 C   0  0  0  0  0  0  0  0  0  0  0  0
  -27.7616  -13.5191   19.2943 C   0  0  0  0  0  0  0  0  0  0  0  0
  -28.8908  -18.2435   20.7261 C   0  0  0  0  0  0  0  0  0  0  0  0
  -24.5811  -29.2972   20.6476 C   0  0  0  0  0  0  0  0  0  0  0  0
  -23.9144  -26.9751   20.6344 C   0  0  0  0  0  0  0  0  0  0  0  0
  -29.5037  -19.0657   19.7816 C   0  0  0  0  0  0  0  0  0  0  0  0
  -20.2991  -27.3512   20.5553 C   0  0  0  0  0  0  0  0  0  0  0  0
  -19.3346  -26.7145   21.3363 C   0  0  0  0  0  0  0  0  0  0  0  0
  -27.3782  -20.1087   19.3193 C   0  0  0  0  0  0  0  0  0  0  0  0
  -20.4277  -27.5133   23.3374 C   0  0  0  0  0  0  0  0  0  0  0  0
  -26.2432  -27.5618   20.8978 C   0  0  0  0  0  0  0  0  0  0  0  0
  -28.2943  -26.9641   22.2918 C   0  0  0  0  0  0  0  0  0  0  0  0
  -26.4483  -11.8044   20.4000 C   0  0  0  0  0  0  0  0  0  0  0  0
  -27.5128  -18.3403   20.9669 C   0  0  0  0  0  0  0  0  0  0  0  0
  -26.5384  -13.0925   19.8388 C   0  0  0  0  0  0  0  0  0  0  0  0
  -26.7507  -19.2883   20.2692 C   0  0  0  0  0  0  0  0  0  0  0  0
  -23.5826  -28.3276   20.5554 C   0  0  0  0  0  0  0  0  0  0  0  0
  -28.7469  -19.9965   19.0760 C   0  0  0  0  0  0  0  0  0  0  0  0
  -21.3280  -28.0688   21.1653 C   0  0  0  0  0  0  0  0  0  0  0  0
  -19.3988  -26.7956   22.7274 C   0  0  0  0  0  0  0  0  0  0  0  0
  -21.3923  -28.1499   22.5564 C   0  0  0  0  0  0  0  0  0  0  0  0
  -27.6173  -27.1656   21.0741 C   0  0  0  0  0  0  0  0  0  0  0  0
  -29.5659  -26.6003   21.9215 C   0  0  0  0  0  0  0  0  0  0  0  0
  -27.8165  -27.0941   23.6374 C   0  0  0  0  0  0  0  0  0  0  0  0
  -25.0394  -16.3661   20.6693 C   0  0  0  0  0  0  0  0  0  0  0  0
  -23.4301  -18.7916   22.1009 C   0  0  0  0  0  0  0  0  0  0  0  0
  -23.2352  -22.1273   22.7949 C   0  0  0  0  0  0  0  0  0  0  0  0
  -31.8053  -24.0606   16.9833 C   0  0  0  0  0  0  0  0  0  0  0  0
  -25.1525  -11.2708   20.9575 C   0  0  0  0  0  0  0  0  0  0  0  0
  -26.8716  -17.4645   22.0082 C   0  0  0  0  0  0  0  0  0  0  0  0
  -25.2716  -19.4460   20.5052 C   0  0  0  0  0  0  0  0  0  0  0  0
  -24.1234  -12.3586   21.2544 C   0  0  0  0  0  0  0  0  0  0  0  0
  -32.7528  -27.1859   18.4013 C   0  0  0  0  0  0  0  0  0  0  0  0
  -24.0228  -13.3319   20.0842 C   0  0  0  0  0  0  0  0  0  0  0  0
  -31.6052  -27.5169   19.3570 C   0  0  0  0  0  0  0  0  0  0  0  0
  -32.2517  -26.4924   17.1365 C   0  0  0  0  0  0  0  0  0  0  0  0
  -30.2768  -25.6255   18.3290 C   0  0  0  0  0  0  0  0  0  0  0  0
  -25.3600  -14.0420   19.8407 C   0  0  1  0  0  0  0  0  0  0  0  0
  -25.3693  -17.2948   21.8034 C   0  0  1  0  0  0  0  0  0  0  0  0
  -30.7390  -26.2758   19.6442 C   0  0  2  0  0  0  0  0  0  0  0  0
  -21.7856  -23.8170   23.9528 C   0  0  0  0  0  0  0  0  0  0  0  0
  -21.4554  -18.6861   19.7772 C   0  0  0  0  0  0  0  0  0  0  0  0
  -20.6243  -20.9432   20.4723 C   0  0  0  0  0  0  0  0  0  0  0  0
  -20.4056  -19.0030   22.0249 C   0  0  0  0  0  0  0  0  0  0  0  0
  -25.3980  -22.8660   24.6752 C   0  0  0  0  0  0  0  0  0  0  0  0
  -31.2354  -21.6456   16.9357 C   0  0  0  0  0  0  0  0  0  0  0  0
  -30.7465  -20.6355   17.9583 C   0  0  0  0  0  0  0  0  0  1  0  0
  -22.6870  -20.0136   21.6176 C   0  0  1  0  0  0  0  0  0  0  0  0
  -22.9697  -22.8728   24.0904 C   0  0  2  0  0  0  0  0  0  0  0  0
  -21.3206  -19.6574   20.9669 C   0  0  0  0  0  0  0  0  0  0  0  0
  -28.3944  -26.9480   20.0099 N   0  0  0  0  0  0  0  0  0  0  0  0
  -29.5730  -26.6061   20.5576 N   0  0  0  0  0  0  0  0  0  0  0  0
  -24.6895  -18.5623   21.5289 N   0  0  0  0  0  0  0  0  0  0  0  0
  -31.4385  -25.3228   17.4784 N   0  0  0  0  0  0  0  0  0  0  0  0
  -30.6675  -26.2792   22.6327 N   0  0  0  0  0  0  0  0  0  0  0  0
  -26.4833  -27.4765   23.8389 N   0  0  0  0  0  0  0  0  0  0  0  0
  -25.5584  -15.0937   20.8148 N   0  0  0  0  0  0  0  0  0  0  0  0
  -22.5873  -20.9105   22.7639 N   0  0  0  0  0  0  0  0  0  0  0  0
  -30.9843  -23.0048   17.3602 N   0  0  0  0  0  0  0  0  0  0  0  0
  -24.1650  -23.6719   24.4825 N   0  3  0  0  0  0  0  0  0  0  0  0
  -28.5547  -26.8935   24.6315 O   0  0  0  0  0  0  0  0  0  0  0  0
  -24.3627  -16.7733   19.7323 O   0  0  0  0  0  0  0  0  0  0  0  0
  -22.9152  -18.0710   22.9596 O   0  0  0  0  0  0  0  0  0  0  0  0
  -23.9432  -22.5808   21.8985 O   0  0  0  0  0  0  0  0  0  0  0  0
  -32.7944  -23.8864   16.2633 O   0  0  0  0  0  0  0  0  0  0  0  0
  -22.2844  -28.7009   20.3885 O   0  0  0  0  0  0  0  0  0  0  0  0
  -29.3424  -20.7999   18.1530 O   0  0  0  0  0  0  0  0  0  1  0  0
  -18.4716  -26.1855   23.4772 F   0  0  0  0  0  0  0  0  0  0  0  0
  -22.3777  -28.8388   23.1481 F   0  0  0  0  0  0  0  0  0  0  0  0
  1  2  1  0  0  0  0
  1  5  2  0  0  0  0
  2  6  2  0  0  0  0
  3  8  2  0  0  0  0
  3 15  1  0  0  0  0
  4  9  1  0  0  0  0
  4 15  2  0  0  0  0
  5 17  1  0  0  0  0
  6 19  1  0  0  0  0
  7 10  2  0  0  0  0
  7 18  1  0  0  0  0
  8 21  1  0  0  0  0
  9 21  2  0  0  0  0
 10 22  1  0  0  0  0
 11 12  2  0  0  0  0
 11 23  1  0  0  0  0
 12 24  1  0  0  0  0
 13 20  1  0  0  0  0
 13 22  2  0  0  0  0
 14 24  2  0  0  0  0
 14 25  1  0  0  0  0
 15 26  1  0  0  0  0
 16 26  1  0  0  0  0
 16 27  2  0  0  0  0
 16 28  1  0  0  0  0
 17 19  2  0  0  0  0
 17 33  1  0  0  0  0
 18 20  2  0  0  0  0
 18 34  1  0  0  0  0
 19 42  1  0  0  0  0
 20 35  1  0  0  0  0
 21 70  1  0  0  0  0
 22 71  1  0  0  0  0
 23 25  2  0  0  0  0
 23 70  1  0  0  0  0
 24 72  1  0  0  0  0
 25 73  1  0  0  0  0
 26 55  2  0  0  0  0
 27 56  1  0  0  0  0
 27 59  1  0  0  0  0
 28 60  1  0  0  0  0
 28 65  2  0  0  0  0
 29 43  1  0  0  0  0
 29 61  1  0  0  0  0
 29 66  2  0  0  0  0
 30 52  1  0  0  0  0
 30 57  1  0  0  0  0
 30 67  2  0  0  0  0
 31 53  1  0  0  0  0
 31 62  1  0  0  0  0
 31 68  2  0  0  0  0
 32 58  1  0  0  0  0
 32 63  1  0  0  0  0
 32 69  2  0  0  0  0
 33 36  1  0  0  0  0
 34 43  1  0  0  0  0
 35 57  1  0  0  0  0
 36 38  1  0  0  0  0
 37 39  1  0  0  0  0
 37 40  1  0  0  0  0
 38 42  1  0  0  0  0
 39 44  1  0  0  0  0
 40 58  1  0  0  0  0
 41 44  1  0  0  0  0
 41 58  1  0  0  0  0
 42 61  1  0  0  0  0
 43 57  1  0  0  0  0
 44 56  1  0  0  0  0
 45 53  1  0  0  0  0
 46 54  1  0  0  0  0
 47 54  1  0  0  0  0
 48 54  1  0  0  0  0
 49 64  1  0  0  0  0
 50 51  1  0  0  0  0
 50 63  1  0  0  0  0
 51 71  1  0  0  0  0
 52 54  1  0  0  0  0
 52 62  1  0  0  0  0
 53 64  1  0  0  0  0
 55 56  1  0  0  0  0
M  CHG  1  64   1
M  ISO  4  32 100  51 101  63 100  71 101
M  END
> <Batch ID>
0006

> <Smiles>
CNC(C)C(=O)NC(C(=O)N1Cc2cc([101O:1][101CH2:1]C[100NH:0][100C:0](=O)N3CCCC(n4nc(-c5ccc(Oc6ccc(F)cc6F)cc5)c(C(N)=O)c4N)C3)ccc2CC1C(=O)NC1CCCc2ccccc21)C(C)(C)C

> <Shape>
0.226

> <Color>
0.066

> <Negative vol penalty>
0.000

$$$$

  -OEChem-04042320293D

 90 99  0     1  0  0  0  0  0999 V2000
  -28.8965  -11.0163   18.7370 C   0  0  0  0  0  0  0  0  0  0  0  0
  -28.0535  -12.0342   19.1714 C   0  0  0  0  0  0  0  0  0  0  0  0
  -25.7009  -30.7463   22.8440 C   0  0  0  0  0  0  0  0  0  0  0  0
  -26.1397  -29.0283   24.4849 C   0  0  0  0  0  0  0  0  0  0  0  0
  -30.2783  -11.2019   18.7550 C   0  0  0  0  0  0  0  0  0  0  0  0
  -28.5918  -13.2379   19.6250 C   0  0  0  0  0  0  0  0  0  0  0  0
  -20.3893  -20.2140   24.5341 C   0  0  0  0  0  0  0  0  0  0  0  0
  -26.1587  -17.2746   17.7731 C   0  0  0  0  0  0  0  0  0  0  0  0
  -26.6336  -31.5773   23.4646 C   0  0  0  0  0  0  0  0  0  0  0  0
  -27.0725  -29.8592   25.1055 C   0  0  0  0  0  0  0  0  0  0  0  0
  -20.6804  -19.4878   23.3794 C   0  0  0  0  0  0  0  0  0  0  0  0
  -24.9387  -17.6073   18.3601 C   0  0  0  0  0  0  0  0  0  0  0  0
  -28.6383  -34.2866   24.8300 C   0  0  0  0  0  0  0  0  0  0  0  0
  -28.2858  -35.6205   25.0349 C   0  0  0  0  0  0  0  0  0  0  0  0
  -20.5330  -22.2717   23.2764 C   0  0  0  0  0  0  0  0  0  0  0  0
  -26.0355  -19.3236   19.6526 C   0  0  0  0  0  0  0  0  0  0  0  0
  -26.4127  -34.9173   26.3893 C   0  0  0  0  0  0  0  0  0  0  0  0
  -25.4539  -29.4718   23.3542 C   0  0  0  0  0  0  0  0  0  0  0  0
  -24.7301  -27.6875   21.6809 C   0  0  0  0  0  0  0  0  0  0  0  0
  -20.3155  -21.6060   24.4826 C   0  0  0  0  0  0  0  0  0  0  0  0
  -30.8334  -12.4120   19.2000 C   0  0  0  0  0  0  0  0  0  0  0  0
  -27.3302  -17.9578   18.1301 C   0  0  0  0  0  0  0  0  0  0  0  0
  -29.9823  -13.4393   19.6503 C   0  0  0  0  0  0  0  0  0  0  0  0
  -27.2687  -18.9993   19.0668 C   0  0  0  0  0  0  0  0  0  0  0  0
  -20.8242  -21.5456   22.1216 C   0  0  0  0  0  0  0  0  0  0  0  0
  -27.3195  -31.1338   24.5953 C   0  0  0  0  0  0  0  0  0  0  0  0
  -24.8774  -18.6300   19.3021 C   0  0  0  0  0  0  0  0  0  0  0  0
  -20.8979  -20.1536   22.1731 C   0  0  0  0  0  0  0  0  0  0  0  0
  -27.8781  -33.2680   25.4047 C   0  0  0  0  0  0  0  0  0  0  0  0
  -27.1730  -35.9358   25.8146 C   0  0  0  0  0  0  0  0  0  0  0  0
  -26.7653  -33.5834   26.1843 C   0  0  0  0  0  0  0  0  0  0  0  0
  -24.4901  -28.6132   22.7140 C   0  0  0  0  0  0  0  0  0  0  0  0
  -23.5009  -27.1299   21.4270 C   0  0  0  0  0  0  0  0  0  0  0  0
  -25.9548  -27.3609   21.0107 C   0  0  0  0  0  0  0  0  0  0  0  0
  -30.0909  -17.1282   19.4694 C   0  0  0  0  0  0  0  0  0  0  0  0
  -30.8903  -20.2006   18.8032 C   0  0  0  0  0  0  0  0  0  0  0  0
  -29.8583  -23.3969   18.1989 C   0  0  0  0  0  0  0  0  0  0  0  0
  -18.5691  -26.4446   24.7525 C   0  0  0  0  0  0  0  0  0  0  0  0
  -32.3347  -12.5486   19.2456 C   0  0  0  0  0  0  0  0  0  0  0  0
  -28.6338  -17.6047   17.4680 C   0  0  0  0  0  0  0  0  0  0  0  0
  -28.4941  -19.7770   19.4695 C   0  0  0  0  0  0  0  0  0  0  0  0
  -32.8109  -13.9918   19.3890 C   0  0  0  0  0  0  0  0  0  0  0  0
  -18.8252  -28.1247   21.6239 C   0  0  0  0  0  0  0  0  0  0  0  0
  -32.0190  -14.7097   20.4772 C   0  0  0  0  0  0  0  0  0  0  0  0
  -20.3277  -28.3569   21.4553 C   0  0  0  0  0  0  0  0  0  0  0  0
  -18.7559  -22.0471   26.4971 C   0  0  0  0  0  0  0  0  0  0  0  0
  -18.3925  -28.2649   23.0817 C   0  0  0  0  0  0  0  0  0  0  0  0
  -20.6497  -27.6620   23.8661 C   0  0  0  0  0  0  0  0  0  0  0  0
  -20.0040  -22.3818   25.7161 C   0  0  2  0  0  0  0  0  0  0  0  0
  -30.5274  -14.7684   20.1262 C   0  0  1  0  0  0  0  0  0  0  0  0
  -29.8518  -18.0226   18.2859 C   0  0  1  0  0  0  0  0  0  0  0  0
  -18.8212  -23.3219   25.7099 C   0  0  2  0  0  0  0  0  0  0  0  0
  -21.1430  -27.4761   22.4210 C   0  0  2  0  0  0  0  0  0  0  0  0
  -26.0234  -23.6947   17.2263 C   0  0  0  0  0  0  0  0  0  0  0  0
  -30.0350  -25.8251   17.5903 C   0  0  0  0  0  0  0  0  0  0  0  0
  -31.6521  -20.5080   21.7417 C   0  0  0  0  0  0  0  0  0  0  0  0
  -31.6092  -22.9906   21.4211 C   0  0  0  0  0  0  0  0  0  0  0  0
  -33.2300  -21.5966   20.1356 C   0  0  0  0  0  0  0  0  0  0  0  0
  -29.5560  -22.8151   15.3128 C   0  0  0  0  0  0  0  0  0  0  0  0
  -21.0545  -22.2747   20.8390 C   0  0  0  0  0  0  0  0  0  0  0  0
  -18.9086  -24.6323   26.4137 C   0  0  0  0  0  0  0  0  0  0  0  0
  -24.5324  -23.6914   17.5238 C   0  0  0  0  0  0  0  0  0  0  0  0
  -24.2243  -22.9698   18.8352 C   0  0  0  0  0  0  0  0  0  0  0  0
  -22.7342  -23.0044   19.1405 C   0  0  0  0  0  0  0  0  0  0  0  0
  -22.7287  -17.9101   20.0236 C   0  0  0  0  0  0  0  0  0  1  0  0
  -21.8691  -18.1933   21.2404 C   0  0  0  0  0  0  0  0  0  0  0  0
  -30.7760  -21.5173   19.5327 C   0  0  1  0  0  0  0  0  0  0  0  0
  -30.2456  -24.3938   17.1215 C   0  0  2  0  0  0  0  0  0  0  0  0
  -31.7939  -21.6374   20.7018 C   0  0  0  0  0  0  0  0  0  0  0  0
  -23.2090  -28.6449   23.0905 N   0  0  0  0  0  0  0  0  0  0  0  0
  -22.6330  -27.7322   22.2896 N   0  0  0  0  0  0  0  0  0  0  0  0
  -29.7462  -19.3901   18.7987 N   0  0  0  0  0  0  0  0  0  0  0  0
  -19.2035  -27.4026   23.9446 N   0  0  0  0  0  0  0  0  0  0  0  0
  -23.0885  -26.1880   20.5522 N   0  0  0  0  0  0  0  0  0  0  0  0
  -27.1256  -28.0284   21.3954 N   0  0  0  0  0  0  0  0  0  0  0  0
  -30.2801  -15.7993   19.1411 N   0  0  0  0  0  0  0  0  0  0  0  0
  -30.9050  -22.5583   18.5188 N   0  0  0  0  0  0  0  0  0  0  0  0
  -19.4117  -25.6646   25.5350 N   0  0  0  0  0  0  0  0  0  0  0  0
  -29.4269  -24.1756   15.8955 N   0  3  0  0  0  0  0  0  0  0  0  0
  -22.4881  -22.3323   20.4432 N   0  3  0  0  0  0  0  0  0  0  0  0
  -26.0063  -26.5143   20.0865 O   0  0  0  0  0  0  0  0  0  0  0  0
  -30.1044  -17.6084   20.5967 O   0  0  0  0  0  0  0  0  0  0  0  0
  -31.9533  -19.9053   18.2513 O   0  0  0  0  0  0  0  0  0  0  0  0
  -28.7403  -23.3677   18.7085 O   0  0  0  0  0  0  0  0  0  0  0  0
  -17.3430  -26.2919   24.7709 O   0  0  0  0  0  0  0  0  0  0  0  0
  -28.2299  -31.9442   25.2009 O   0  0  0  0  0  0  0  0  0  0  0  0
  -23.6880  -18.9563   19.8771 O   0  0  0  0  0  0  0  0  0  1  0  0
  -21.1838  -19.4249   21.0486 O   0  0  0  0  0  0  0  0  0  0  0  0
  -26.8354  -37.2169   26.0126 F   0  0  0  0  0  0  0  0  0  0  0  0
  -26.0317  -32.6092   26.7400 F   0  0  0  0  0  0  0  0  0  0  0  0
  1  2  1  0  0  0  0
  1  5  2  0  0  0  0
  2  6  2  0  0  0  0
  3  9  2  0  0  0  0
  3 18  1  0  0  0  0
  4 10  1  0  0  0  0
  4 18  2  0  0  0  0
  5 21  1  0  0  0  0
  6 23  1  0  0  0  0
  7 11  2  0  0  0  0
  7 20  1  0  0  0  0
  8 12  2  0  0  0  0
  8 22  1  0  0  0  0
  9 26  1  0  0  0  0
 10 26  2  0  0  0  0
 11 28  1  0  0  0  0
 12 27  1  0  0  0  0
 13 14  2  0  0  0  0
 13 29  1  0  0  0  0
 14 30  1  0  0  0  0
 15 20  2  0  0  0  0
 15 25  1  0  0  0  0
 16 24  1  0  0  0  0
 16 27  2  0  0  0  0
 17 30  2  0  0  0  0
 17 31  1  0  0  0  0
 18 32  1  0  0  0  0
 19 32  1  0  0  0  0
 19 33  2  0  0  0  0
 19 34  1  0  0  0  0
 20 49  1  0  0  0  0
 21 23  2  0  0  0  0
 21 39  1  0  0  0  0
 22 24  2  0  0  0  0
 22 40  1  0  0  0  0
 23 50  1  0  0  0  0
 24 41  1  0  0  0  0
 25 28  2  0  0  0  0
 25 60  1  0  0  0  0
 26 86  1  0  0  0  0
 27 87  1  0  0  0  0
 28 88  1  0  0  0  0
 29 31  2  0  0  0  0
 29 86  1  0  0  0  0
 30 89  1  0  0  0  0
 31 90  1  0  0  0  0
 32 70  2  0  0  0  0
 33 71  1  0  0  0  0
 33 74  1  0  0  0  0
 34 75  1  0  0  0  0
 34 81  2  0  0  0  0
 35 51  1  0  0  0  0
 35 76  1  0  0  0  0
 35 82  2  0  0  0  0
 36 67  1  0  0  0  0
 36 72  1  0  0  0  0
 36 83  2  0  0  0  0
 37 68  1  0  0  0  0
 37 77  1  0  0  0  0
 37 84  2  0  0  0  0
 38 73  1  0  0  0  0
 38 78  1  0  0  0  0
 38 85  2  0  0  0  0
 39 42  1  0  0  0  0
 40 51  1  0  0  0  0
 41 72  1  0  0  0  0
 42 44  1  0  0  0  0
 43 45  1  0  0  0  0
 43 47  1  0  0  0  0
 44 50  1  0  0  0  0
 45 53  1  0  0  0  0
 46 49  1  0  0  0  0
 46 52  1  0  0  0  0
 47 73  1  0  0  0  0
 48 53  1  0  0  0  0
 48 73  1  0  0  0  0
 49 52  1  0  0  0  0
 50 76  1  0  0  0  0
 51 72  1  0  0  0  0
 52 61  1  0  0  0  0
 53 71  1  0  0  0  0
 54 62  1  0  0  0  0
 55 68  1  0  0  0  0
 56 69  1  0  0  0  0
 57 69  1  0  0  0  0
 58 69  1  0  0  0  0
 59 79  1  0  0  0  0
 60 80  1  0  0  0  0
 61 78  1  0  0  0  0
 62 63  1  0  0  0  0
 63 64  1  0  0  0  0
 64 80  1  0  0  0  0
 65 66  1  0  0  0  0
 65 87  1  0  0  0  0
 66 88  1  0  0  0  0
 67 69  1  0  0  0  0
 67 77  1  0  0  0  0
 68 79  1  0  0  0  0
 70 71  1  0  0  0  0
M  CHG  2  79   1  80   1
M  ISO  4  38 100  65 101  78 100  87 101
M  END
> <Batch ID>
0006

> <Smiles>
CCCCNCc1cc(C2CC2C[100NH:0][100C:0](=O)N2CCCC(n3nc(-c4ccc(Oc5ccc(F)cc5F)cc4)c(C(N)=O)c3N)C2)ccc1OC[101CH2:1][101O:1]c1ccc2c(c1)CN(C(=O)C(NC(=O)C(C)NC)C(C)(C)C)C(C(=O)NC1CCCc3ccccc31)C2

> <Shape>
0.239

> <Color>
0.067

> <Negative vol penalty>
0.000

$$$$

  -OEChem-04042320293D

 83 91  0     1  0  0  0  0  0999 V2000
  -32.0418  -23.5754   18.0447 C   0  0  0  0  0  0  0  0  0  0  0  0
  -30.8106  -23.3853   18.6640 C   0  0  0  0  0  0  0  0  0  0  0  0
  -27.0748  -17.6544   19.0888 C   0  0  0  0  0  0  0  0  0  0  0  0
  -28.0122  -17.2376   21.2762 C   0  0  0  0  0  0  0  0  0  0  0  0
  -32.8279  -24.6764   18.3821 C   0  0  0  0  0  0  0  0  0  0  0  0
  -30.3654  -24.2956   19.6220 C   0  0  0  0  0  0  0  0  0  0  0  0
  -25.5022  -25.5584   18.9895 C   0  0  0  0  0  0  0  0  0  0  0  0
  -19.8813  -16.3134   20.9249 C   0  0  0  0  0  0  0  0  0  0  0  0
  -27.6447  -18.9275   19.0871 C   0  0  0  0  0  0  0  0  0  0  0  0
  -28.5822  -18.5107   21.2745 C   0  0  0  0  0  0  0  0  0  0  0  0
  -24.5449  -24.6430   19.4248 C   0  0  0  0  0  0  0  0  0  0  0  0
  -19.8901  -17.6703   21.2477 C   0  0  0  0  0  0  0  0  0  0  0  0
  -29.9840  -21.7842   22.0018 C   0  0  0  0  0  0  0  0  0  0  0  0
  -29.8681  -22.5480   23.1631 C   0  0  0  0  0  0  0  0  0  0  0  0
  -24.2346  -25.9343   21.4386 C   0  0  0  0  0  0  0  0  0  0  0  0
  -20.7248  -18.1899   19.0408 C   0  0  0  0  0  0  0  0  0  0  0  0
  -27.4605  -22.4566   22.9828 C   0  0  0  0  0  0  0  0  0  0  0  0
  -27.2585  -16.8095   20.1834 C   0  0  0  0  0  0  0  0  0  0  0  0
  -27.2487  -14.3026   19.7108 C   0  0  0  0  0  0  0  0  0  0  0  0
  -32.3877  -25.6058   19.3376 C   0  0  0  0  0  0  0  0  0  0  0  0
  -25.8414  -26.6645   19.7818 C   0  0  0  0  0  0  0  0  0  0  0  0
  -31.1469  -25.4093   19.9734 C   0  0  0  0  0  0  0  0  0  0  0  0
  -25.1947  -26.8636   21.0100 C   0  0  0  0  0  0  0  0  0  0  0  0
  -20.2944  -15.8947   19.6601 C   0  0  0  0  0  0  0  0  0  0  0  0
  -28.3985  -19.3556   20.1799 C   0  0  0  0  0  0  0  0  0  0  0  0
  -23.9130  -24.8293   20.6508 C   0  0  0  0  0  0  0  0  0  0  0  0
  -20.3118  -18.6086   20.3057 C   0  0  0  0  0  0  0  0  0  0  0  0
  -28.8382  -21.3566   21.3309 C   0  0  0  0  0  0  0  0  0  0  0  0
  -28.6064  -22.8842   23.6537 C   0  0  0  0  0  0  0  0  0  0  0  0
  -20.7161  -16.8330   18.7181 C   0  0  0  0  0  0  0  0  0  0  0  0
  -27.5765  -21.6928   21.8214 C   0  0  0  0  0  0  0  0  0  0  0  0
  -26.6695  -15.4945   20.1860 C   0  0  0  0  0  0  0  0  0  0  0  0
  -26.2935  -13.3422   19.9381 C   0  0  0  0  0  0  0  0  0  0  0  0
  -28.5352  -14.0832   19.1172 C   0  0  0  0  0  0  0  0  0  0  0  0
  -28.5005  -27.6790   21.1973 C   0  0  0  0  0  0  0  0  0  0  0  0
  -26.6831  -30.2786   21.8765 C   0  0  0  0  0  0  0  0  0  0  0  0
  -23.5682  -31.5992   22.3239 C   0  0  0  0  0  0  0  0  0  0  0  0
  -20.4843  -13.5027   20.3187 C   0  0  0  0  0  0  0  0  0  0  0  0
  -33.2935  -26.7548   19.7038 C   0  0  0  0  0  0  0  0  0  0  0  0
  -26.8567  -27.6572   19.2859 C   0  0  0  0  0  0  0  0  0  0  0  0
  -25.5083  -28.0459   21.8888 C   0  0  0  0  0  0  0  0  0  0  0  0
  -32.5815  -27.8757   20.4567 C   0  0  0  0  0  0  0  0  0  0  0  0
  -22.6599  -12.2792   22.8510 C   0  0  0  0  0  0  0  0  0  0  0  0
  -31.7101  -27.3018   21.5694 C   0  0  0  0  0  0  0  0  0  0  0  0
  -24.0004  -12.8644   22.4081 C   0  0  0  0  0  0  0  0  0  0  0  0
  -21.5080  -13.2620   22.6383 C   0  0  0  0  0  0  0  0  0  0  0  0
  -22.7561  -14.3749   20.8140 C   0  0  0  0  0  0  0  0  0  0  0  0
  -30.6184  -26.3881   20.9994 C   0  0  1  0  0  0  0  0  0  0  0  0
  -27.4957  -28.4696   20.4080 C   0  0  1  0  0  0  0  0  0  0  0  0
  -23.9241  -13.3875   20.9629 C   0  0  1  0  0  0  0  0  0  0  0  0
  -22.4031  -33.7434   22.9089 C   0  0  0  0  0  0  0  0  0  0  0  0
  -27.4468  -29.8917   24.8052 C   0  0  0  0  0  0  0  0  0  0  0  0
  -25.5561  -31.4107   25.4266 C   0  0  0  0  0  0  0  0  0  0  0  0
  -27.4390  -32.2710   24.0346 C   0  0  0  0  0  0  0  0  0  0  0  0
  -19.8224  -14.0875   17.9959 C   0  0  0  0  0  0  0  0  0  0  0  0
  -22.1520  -31.6736   19.7263 C   0  0  0  0  0  0  0  0  0  0  0  0
  -21.6520  -21.9331   20.8650 C   0  0  0  0  0  0  0  0  0  0  0  0
  -22.6946  -22.8328   20.2203 C   0  0  0  0  0  0  0  0  0  1  0  0
  -21.2977  -20.7482   19.9803 C   0  0  0  0  0  0  0  0  0  0  0  0
  -25.7669  -30.6763   23.0085 C   0  0  1  0  0  0  0  0  0  0  0  0
  -22.9225  -32.8623   21.7835 C   0  0  2  0  0  0  0  0  0  0  0  0
  -26.5475  -31.0390   24.3033 C   0  0  0  0  0  0  0  0  0  0  0  0
  -25.4413  -15.3106   20.6778 N   0  0  0  0  0  0  0  0  0  0  0  0
  -25.2410  -13.9920   20.5129 N   0  0  0  0  0  0  0  0  0  0  0  0
  -26.5127  -28.9851   21.3630 N   0  0  0  0  0  0  0  0  0  0  0  0
  -21.5002  -13.7646   21.2572 N   0  0  0  0  0  0  0  0  0  0  0  0
  -26.2595  -12.0138   19.7003 N   0  0  0  0  0  0  0  0  0  0  0  0
  -29.3932  -15.1799   18.9576 N   0  0  0  0  0  0  0  0  0  0  0  0
  -29.5411  -27.1761   20.4399 N   0  0  0  0  0  0  0  0  0  0  0  0
  -24.9277  -31.7536   22.4951 N   0  0  0  0  0  0  0  0  0  0  0  0
  -20.2843  -14.4891   19.3291 N   0  0  0  0  0  0  0  0  0  0  0  0
  -21.7802  -32.5187   20.8902 N   0  3  0  0  0  0  0  0  0  0  0  0
  -28.9063  -12.9512   18.7244 O   0  0  0  0  0  0  0  0  0  0  0  0
  -28.3441  -27.5370   22.4044 O   0  0  0  0  0  0  0  0  0  0  0  0
  -27.5145  -31.0884   21.4585 O   0  0  0  0  0  0  0  0  0  0  0  0
  -22.9299  -30.5790   22.5731 O   0  0  0  0  0  0  0  0  0  0  0  0
  -19.8245  -12.4568   20.3466 O   0  0  0  0  0  0  0  0  0  0  0  0
  -28.9550  -20.5977   20.1785 O   0  0  0  0  0  0  0  0  0  0  0  0
  -22.9787  -23.9371   21.0784 O   0  0  0  0  0  0  0  0  0  1  0  0
  -20.3192  -19.9421   20.6226 O   0  0  0  0  0  0  0  0  0  0  0  0
  -28.4952  -23.6164   24.7698 F   0  0  0  0  0  0  0  0  0  0  0  0
  -21.1157  -16.4418   17.4995 F   0  0  0  0  0  0  0  0  0  0  0  0
  -26.4721  -21.2840   21.1819 F   0  0  0  0  0  0  0  0  0  0  0  0
  1  2  1  0  0  0  0
  1  5  2  0  0  0  0
  2  6  2  0  0  0  0
  3  9  2  0  0  0  0
  3 18  1  0  0  0  0
  4 10  1  0  0  0  0
  4 18  2  0  0  0  0
  5 20  1  0  0  0  0
  6 22  1  0  0  0  0
  7 11  2  0  0  0  0
  7 21  1  0  0  0  0
  8 12  2  0  0  0  0
  8 24  1  0  0  0  0
  9 25  1  0  0  0  0
 10 25  2  0  0  0  0
 11 26  1  0  0  0  0
 12 27  1  0  0  0  0
 13 14  2  0  0  0  0
 13 28  1  0  0  0  0
 14 29  1  0  0  0  0
 15 23  1  0  0  0  0
 15 26  2  0  0  0  0
 16 27  2  0  0  0  0
 16 30  1  0  0  0  0
 17 29  2  0  0  0  0
 17 31  1  0  0  0  0
 18 32  1  0  0  0  0
 19 32  1  0  0  0  0
 19 33  2  0  0  0  0
 19 34  1  0  0  0  0
 20 22  2  0  0  0  0
 20 39  1  0  0  0  0
 21 23  2  0  0  0  0
 21 40  1  0  0  0  0
 22 48  1  0  0  0  0
 23 41  1  0  0  0  0
 24 30  2  0  0  0  0
 24 71  1  0  0  0  0
 25 78  1  0  0  0  0
 26 79  1  0  0  0  0
 27 80  1  0  0  0  0
 28 31  2  0  0  0  0
 28 78  1  0  0  0  0
 29 81  1  0  0  0  0
 30 82  1  0  0  0  0
 31 83  1  0  0  0  0
 32 63  2  0  0  0  0
 33 64  1  0  0  0  0
 33 67  1  0  0  0  0
 34 68  1  0  0  0  0
 34 73  2  0  0  0  0
 35 49  1  0  0  0  0
 35 69  1  0  0  0  0
 35 74  2  0  0  0  0
 36 60  1  0  0  0  0
 36 65  1  0  0  0  0
 36 75  2  0  0  0  0
 37 61  1  0  0  0  0
 37 70  1  0  0  0  0
 37 76  2  0  0  0  0
 38 66  1  0  0  0  0
 38 71  1  0  0  0  0
 38 77  2  0  0  0  0
 39 42  1  0  0  0  0
 40 49  1  0  0  0  0
 41 65  1  0  0  0  0
 42 44  1  0  0  0  0
 43 45  1  0  0  0  0
 43 46  1  0  0  0  0
 44 48  1  0  0  0  0
 45 50  1  0  0  0  0
 46 66  1  0  0  0  0
 47 50  1  0  0  0  0
 47 66  1  0  0  0  0
 48 69  1  0  0  0  0
 49 65  1  0  0  0  0
 50 64  1  0  0  0  0
 51 61  1  0  0  0  0
 52 62  1  0  0  0  0
 53 62  1  0  0  0  0
 54 62  1  0  0  0  0
 55 71  1  0  0  0  0
 56 72  1  0  0  0  0
 57 58  1  0  0  0  0
 57 59  1  0  0  0  0
 58 79  1  0  0  0  0
 59 80  1  0  0  0  0
 60 62  1  0  0  0  0
 60 70  1  0  0  0  0
 61 72  1  0  0  0  0
 63 64  1  0  0  0  0
M  CHG  1  72   1
M  ISO  4  38 100  58 101  71 100  79 101
M  END
> <Batch ID>
0006

> <Smiles>
CNC(C)C(=O)NC(C(=O)N1Cc2cc([101O:1][101CH2:1]CCOc3ccc([100N:0](C)[100C:0](=O)N4CCCC(n5nc(-c6ccc(Oc7ccc(F)cc7F)cc6)c(C(N)=O)c5N)C4)c(F)c3)ccc2CC1C(=O)NC1CCCc2ccccc21)C(C)(C)C

> <Shape>
0.251

> <Color>
0.064

> <Negative vol penalty>
0.000

$$$$

  -OEChem-04042320293D

 85 94  0     1  0  0  0  0  0999 V2000
  -27.1605  -24.2753   19.1750 C   0  0  0  0  0  0  0  0  0  0  0  0
  -27.0175  -24.9623   20.3762 C   0  0  0  0  0  0  0  0  0  0  0  0
  -26.3751  -12.3209   20.7881 C   0  0  0  0  0  0  0  0  0  0  0  0
  -24.4111  -13.4908   20.0063 C   0  0  0  0  0  0  0  0  0  0  0  0
  -27.9456  -24.8120   18.1555 C   0  0  0  0  0  0  0  0  0  0  0  0
  -27.6605  -26.1860   20.5591 C   0  0  0  0  0  0  0  0  0  0  0  0
  -23.6371  -28.6173   19.0076 C   0  0  0  0  0  0  0  0  0  0  0  0
  -25.5781  -11.2460   21.1819 C   0  0  0  0  0  0  0  0  0  0  0  0
  -23.6141  -12.4159   20.4000 C   0  0  0  0  0  0  0  0  0  0  0  0
  -22.6229  -27.7536   19.4189 C   0  0  0  0  0  0  0  0  0  0  0  0
  -24.0431   -8.6144   19.7151 C   0  0  0  0  0  0  0  0  0  0  0  0
  -24.4800   -7.3302   19.3901 C   0  0  0  0  0  0  0  0  0  0  0  0
  -23.0122  -28.3977   21.7108 C   0  0  0  0  0  0  0  0  0  0  0  0
  -22.8644  -22.8643   20.8028 C   0  0  0  0  0  0  0  0  0  0  0  0
  -24.5386   -6.7565   21.7363 C   0  0  0  0  0  0  0  0  0  0  0  0
  -25.7916  -13.4433   20.2004 C   0  0  0  0  0  0  0  0  0  0  0  0
  -27.2266  -14.7449   18.5408 C   0  0  0  0  0  0  0  0  0  0  0  0
  -28.5908  -26.0476   18.3223 C   0  0  0  0  0  0  0  0  0  0  0  0
  -24.3550  -29.3708   19.9474 C   0  0  0  0  0  0  0  0  0  0  0  0
  -28.4561  -26.7391   19.5413 C   0  0  0  0  0  0  0  0  0  0  0  0
  -24.0333  -29.2721   21.3086 C   0  0  0  0  0  0  0  0  0  0  0  0
  -23.3988  -22.9594   23.1489 C   0  0  0  0  0  0  0  0  0  0  0  0
  -22.5460  -23.3484   22.0870 C   0  0  0  0  0  0  0  0  0  0  0  0
  -24.7679  -21.6365   21.6411 C   0  0  0  0  0  0  0  0  0  0  0  0
  -24.1976  -11.2935   20.9878 C   0  0  0  0  0  0  0  0  0  0  0  0
  -22.3123  -27.6415   20.7709 C   0  0  0  0  0  0  0  0  0  0  0  0
  -23.8541   -8.9697   21.0507 C   0  0  0  0  0  0  0  0  0  0  0  0
  -24.7277   -6.4012   20.4007 C   0  0  0  0  0  0  0  0  0  0  0  0
  -23.9577  -22.0209   20.5817 C   0  0  0  0  0  0  0  0  0  0  0  0
  -24.1017   -8.0407   22.0613 C   0  0  0  0  0  0  0  0  0  0  0  0
  -24.4885  -22.1009   22.9212 C   0  0  0  0  0  0  0  0  0  0  0  0
  -26.6143  -14.5542   19.7940 C   0  0  0  0  0  0  0  0  0  0  0  0
  -27.8903  -15.9413   18.6613 C   0  0  0  0  0  0  0  0  0  0  0  0
  -27.1979  -13.9148   17.3721 C   0  0  0  0  0  0  0  0  0  0  0  0
  -27.4014  -29.5283   20.8411 C   0  0  0  0  0  0  0  0  0  0  0  0
  -26.3433  -32.0202   22.6280 C   0  0  0  0  0  0  0  0  0  0  0  0
  -23.7317  -33.5564   24.1986 C   0  0  0  0  0  0  0  0  0  0  0  0
  -27.0677  -20.7339   22.1340 C   0  0  0  0  0  0  0  0  0  0  0  0
  -29.4672  -26.5650   17.2093 C   0  0  0  0  0  0  0  0  0  0  0  0
  -25.4282  -30.3179   19.4850 C   0  0  0  0  0  0  0  0  0  0  0  0
  -23.1352  -23.4183   24.5627 C   0  0  0  0  0  0  0  0  0  0  0  0
  -24.7605  -30.0744   22.3555 C   0  0  0  0  0  0  0  0  0  0  0  0
  -29.8119  -28.0460   17.3439 C   0  0  0  0  0  0  0  0  0  0  0  0
  -22.2735  -24.6726   24.5821 C   0  0  0  0  0  0  0  0  0  0  0  0
  -30.0078  -18.7369   21.9225 C   0  0  0  0  0  0  0  0  0  0  0  0
  -30.2469  -28.3654   18.7706 C   0  0  0  0  0  0  0  0  0  0  0  0
  -29.5282  -17.4575   21.2331 C   0  0  0  0  0  0  0  0  0  0  0  0
  -21.0541  -24.4716   23.6949 C   0  0  0  0  0  0  0  0  0  0  0  0
  -28.9538  -19.2964   22.8763 C   0  0  0  0  0  0  0  0  0  0  0  0
  -27.1461  -18.2203   21.5945 C   0  0  0  0  0  0  0  0  0  0  0  0
  -29.1178  -28.0811   19.7684 C   0  0  1  0  0  0  0  0  0  0  0  0
  -26.4404  -30.6526   20.5762 C   0  0  1  0  0  0  0  0  0  0  0  0
  -28.1486  -17.6551   20.5750 C   0  0  2  0  0  0  0  0  0  0  0  0
  -23.1833  -35.5582   25.6090 C   0  0  0  0  0  0  0  0  0  0  0  0
  -27.6020  -30.6559   25.0496 C   0  0  0  0  0  0  0  0  0  0  0  0
  -26.2380  -32.1573   26.5171 C   0  0  0  0  0  0  0  0  0  0  0  0
  -27.9268  -33.1340   24.9625 C   0  0  0  0  0  0  0  0  0  0  0  0
  -21.8533  -34.6149   22.1714 C   0  0  0  0  0  0  0  0  0  0  0  0
  -20.5243  -24.5303   21.2531 C   0  0  0  0  0  0  0  0  0  0  0  0
  -21.0964  -25.6352   20.3808 C   0  0  0  0  0  0  0  0  0  1  0  0
  -25.7849  -32.1751   24.0220 C   0  0  1  0  0  0  0  0  0  0  0  0
  -23.2636  -35.0004   24.1965 C   0  0  2  0  0  0  0  0  0  0  0  0
  -26.8753  -32.0139   25.1185 C   0  0  0  0  0  0  0  0  0  0  0  0
  -26.8668  -15.5497   20.6480 N   0  0  0  0  0  0  0  0  0  0  0  0
  -27.6451  -16.3774   19.9302 N   0  0  0  0  0  0  0  0  0  0  0  0
  -21.4580  -24.1922   22.3177 N   0  0  3  0  0  0  0  0  0  0  0  0
  -25.8058  -30.9818   21.8542 N   0  0  0  0  0  0  0  0  0  0  0  0
  -27.6746  -19.4611   22.1826 N   0  0  0  0  0  0  0  0  0  0  0  0
  -28.6540  -16.6523   17.8048 N   0  0  0  0  0  0  0  0  0  0  0  0
  -26.4678  -12.7193   17.4194 N   0  0  0  0  0  0  0  0  0  0  0  0
  -25.8709  -20.7751   21.4193 N   0  0  0  0  0  0  0  0  0  0  0  0
  -28.1347  -29.1427   19.7352 N   0  0  0  0  0  0  0  0  0  0  0  0
  -25.0989  -33.4625   24.0462 N   0  0  0  0  0  0  0  0  0  0  0  0
  -21.9147  -35.1067   23.5719 N   0  3  0  0  0  0  0  0  0  0  0  0
  -27.8152  -14.2159   16.3225 O   0  0  0  0  0  0  0  0  0  0  0  0
  -27.4733  -29.0473   21.9659 O   0  0  0  0  0  0  0  0  0  0  0  0
  -27.2188  -32.7964   22.2375 O   0  0  0  0  0  0  0  0  0  0  0  0
  -22.9620  -32.6068   24.3267 O   0  0  0  0  0  0  0  0  0  0  0  0
  -27.5861  -21.7207   22.6627 O   0  0  0  0  0  0  0  0  0  0  0  0
  -23.4196  -10.2448   21.3716 O   0  0  0  0  0  0  0  0  0  0  0  0
  -21.3232  -26.7987   21.1752 O   0  0  0  0  0  0  0  0  0  1  0  0
  -25.1457   -5.1676   20.0884 F   0  0  0  0  0  0  0  0  0  0  0  0
  -24.2151  -21.5909   19.3377 F   0  0  0  0  0  0  0  0  0  0  0  0
  -23.9208   -8.3758   23.3461 F   0  0  0  0  0  0  0  0  0  0  0  0
  -25.2645  -21.7237   23.9495 F   0  0  0  0  0  0  0  0  0  0  0  0
  1  2  1  0  0  0  0
  1  5  2  0  0  0  0
  2  6  2  0  0  0  0
  3  8  2  0  0  0  0
  3 16  1  0  0  0  0
  4  9  1  0  0  0  0
  4 16  2  0  0  0  0
  5 18  1  0  0  0  0
  6 20  1  0  0  0  0
  7 10  2  0  0  0  0
  7 19  1  0  0  0  0
  8 25  1  0  0  0  0
  9 25  2  0  0  0  0
 10 26  1  0  0  0  0
 11 12  2  0  0  0  0
 11 27  1  0  0  0  0
 12 28  1  0  0  0  0
 13 21  1  0  0  0  0
 13 26  2  0  0  0  0
 14 23  2  0  0  0  0
 14 29  1  0  0  0  0
 15 28  2  0  0  0  0
 15 30  1  0  0  0  0
 16 32  1  0  0  0  0
 17 32  1  0  0  0  0
 17 33  2  0  0  0  0
 17 34  1  0  0  0  0
 18 20  2  0  0  0  0
 18 39  1  0  0  0  0
 19 21  2  0  0  0  0
 19 40  1  0  0  0  0
 20 51  1  0  0  0  0
 21 42  1  0  0  0  0
 22 23  1  0  0  0  0
 22 31  2  0  0  0  0
 22 41  1  0  0  0  0
 23 66  1  0  0  0  0
 24 29  2  0  0  0  0
 24 31  1  0  0  0  0
 24 71  1  0  0  0  0
 25 80  1  0  0  0  0
 26 81  1  0  0  0  0
 27 30  2  0  0  0  0
 27 80  1  0  0  0  0
 28 82  1  0  0  0  0
 29 83  1  0  0  0  0
 30 84  1  0  0  0  0
 31 85  1  0  0  0  0
 32 64  2  0  0  0  0
 33 65  1  0  0  0  0
 33 69  1  0  0  0  0
 34 70  1  0  0  0  0
 34 75  2  0  0  0  0
 35 52  1  0  0  0  0
 35 72  1  0  0  0  0
 35 76  2  0  0  0  0
 36 61  1  0  0  0  0
 36 67  1  0  0  0  0
 36 77  2  0  0  0  0
 37 62  1  0  0  0  0
 37 73  1  0  0  0  0
 37 78  2  0  0  0  0
 38 68  1  0  0  0  0
 38 71  1  0  0  0  0
 38 79  2  0  0  0  0
 39 43  1  0  0  0  0
 40 52  1  0  0  0  0
 41 44  1  0  0  0  0
 42 67  1  0  0  0  0
 43 46  1  0  0  0  0
 44 48  1  0  0  0  0
 45 47  1  0  0  0  0
 45 49  1  0  0  0  0
 46 51  1  0  0  0  0
 47 53  1  0  0  0  0
 48 66  1  0  0  0  0
 49 68  1  0  0  0  0
 50 53  1  0  0  0  0
 50 68  1  0  0  0  0
 51 72  1  0  0  0  0
 52 67  1  0  0  0  0
 53 65  1  0  0  0  0
 54 62  1  0  0  0  0
 55 63  1  0  0  0  0
 56 63  1  0  0  0  0
 57 63  1  0  0  0  0
 58 74  1  0  0  0  0
 59 60  1  0  0  0  0
 59 66  1  0  0  0  0
 60 81  1  0  0  0  0
 61 63  1  0  0  0  0
 61 73  1  0  0  0  0
 62 74  1  0  0  0  0
 64 65  1  0  0  0  0
M  CHG  1  74   1
M  ISO  4  38 100  60 101  71 100  81 101
M  END
> <Batch ID>
0006

> <Smiles>
CNC(C)C(=O)NC(C(=O)N1Cc2cc([101O:1][101CH2:1]CN3CCCc4c3cc(F)c([100NH:0][100C:0](=O)N3CCCC(n5nc(-c6ccc(Oc7ccc(F)cc7F)cc6)c(C(N)=O)c5N)C3)c4F)ccc2CC1C(=O)NC1CCCc2ccccc21)C(C)(C)C

> <Shape>
0.242

> <Color>
0.067

> <Negative vol penalty>
0.000

$$$$

  -OEChem-04042320293D

 86 95  0     1  0  0  0  0  0999 V2000
  -26.5184  -24.0990   18.8876 C   0  0  0  0  0  0  0  0  0  0  0  0
  -26.3782  -24.7484   20.1099 C   0  0  0  0  0  0  0  0  0  0  0  0
  -24.9145  -12.2437   20.9056 C   0  0  0  0  0  0  0  0  0  0  0  0
  -22.9259  -13.4177   20.1954 C   0  0  0  0  0  0  0  0  0  0  0  0
  -27.4161  -24.5873   17.9390 C   0  0  0  0  0  0  0  0  0  0  0  0
  -27.1365  -25.8859   20.3848 C   0  0  0  0  0  0  0  0  0  0  0  0
  -23.4967  -28.8042   18.7292 C   0  0  0  0  0  0  0  0  0  0  0  0
  -24.1225  -11.2453   21.4727 C   0  0  0  0  0  0  0  0  0  0  0  0
  -22.1339  -12.4194   20.7625 C   0  0  0  0  0  0  0  0  0  0  0  0
  -22.3730  -28.0409   19.0433 C   0  0  0  0  0  0  0  0  0  0  0  0
  -22.3681   -8.5556   20.4144 C   0  0  0  0  0  0  0  0  0  0  0  0
  -22.7288   -7.2292   20.1775 C   0  0  0  0  0  0  0  0  0  0  0  0
  -22.6912  -28.5453   21.3807 C   0  0  0  0  0  0  0  0  0  0  0  0
  -21.7922  -22.8947   20.2062 C   0  0  0  0  0  0  0  0  0  0  0  0
  -22.9895   -6.8758   22.5533 C   0  0  0  0  0  0  0  0  0  0  0  0
  -24.3162  -13.3299   20.2669 C   0  0  0  0  0  0  0  0  0  0  0  0
  -25.6309  -14.4080   18.3651 C   0  0  0  0  0  0  0  0  0  0  0  0
  -28.1787  -25.7369   18.1987 C   0  0  0  0  0  0  0  0  0  0  0  0
  -24.2336  -29.4359   19.7413 C   0  0  0  0  0  0  0  0  0  0  0  0
  -28.0462  -26.3892   19.4393 C   0  0  0  0  0  0  0  0  0  0  0  0
  -23.8223  -29.3181   21.0766 C   0  0  0  0  0  0  0  0  0  0  0  0
  -21.6422  -23.5009   21.4648 C   0  0  0  0  0  0  0  0  0  0  0  0
  -22.5339  -23.1648   22.4964 C   0  0  0  0  0  0  0  0  0  0  0  0
  -23.7097  -21.6581   20.9911 C   0  0  0  0  0  0  0  0  0  0  0  0
  -22.7322  -11.3331   21.4012 C   0  0  0  0  0  0  0  0  0  0  0  0
  -21.9718  -27.9090   20.3694 C   0  0  0  0  0  0  0  0  0  0  0  0
  -22.3182   -9.0421   21.7207 C   0  0  0  0  0  0  0  0  0  0  0  0
  -23.0395   -6.3893   21.2469 C   0  0  0  0  0  0  0  0  0  0  0  0
  -22.8164  -21.9748   19.9750 C   0  0  0  0  0  0  0  0  0  0  0  0
  -22.6288   -8.2022   22.7901 C   0  0  0  0  0  0  0  0  0  0  0  0
  -23.5728  -22.2556   22.2422 C   0  0  0  0  0  0  0  0  0  0  0  0
  -25.1338  -14.3618   19.6813 C   0  0  0  0  0  0  0  0  0  0  0  0
  -26.3429  -15.5811   18.3080 C   0  0  0  0  0  0  0  0  0  0  0  0
  -20.4552  -25.0264   22.9967 C   0  0  0  0  0  0  0  0  0  0  0  0
  -25.4639  -13.4740   17.2902 C   0  0  0  0  0  0  0  0  0  0  0  0
  -27.2203  -29.2223   20.8078 C   0  0  0  0  0  0  0  0  0  0  0  0
  -26.3301  -31.7408   22.6481 C   0  0  0  0  0  0  0  0  0  0  0  0
  -23.8088  -33.4892   24.1425 C   0  0  0  0  0  0  0  0  0  0  0  0
  -26.0140  -20.7086   21.3585 C   0  0  0  0  0  0  0  0  0  0  0  0
  -29.1705  -26.1997   17.1610 C   0  0  0  0  0  0  0  0  0  0  0  0
  -25.4277  -30.2776   19.3835 C   0  0  0  0  0  0  0  0  0  0  0  0
  -24.5672  -29.9929   22.1983 C   0  0  0  0  0  0  0  0  0  0  0  0
  -21.1594  -24.3202   24.1316 C   0  0  0  0  0  0  0  0  0  0  0  0
  -29.6631  -27.6274   17.3833 C   0  0  0  0  0  0  0  0  0  0  0  0
  -28.8521  -18.5773   21.0759 C   0  0  0  0  0  0  0  0  0  0  0  0
  -30.0437  -27.8392   18.8452 C   0  0  0  0  0  0  0  0  0  0  0  0
  -28.2667  -17.2605   20.5606 C   0  0  0  0  0  0  0  0  0  0  0  0
  -27.9124  -19.2681   22.0626 C   0  0  0  0  0  0  0  0  0  0  0  0
  -25.9564  -18.1545   21.0610 C   0  0  0  0  0  0  0  0  0  0  0  0
  -28.8329  -27.6403   19.7649 C   0  0  1  0  0  0  0  0  0  0  0  0
  -26.4029  -30.4549   20.5432 C   0  0  1  0  0  0  0  0  0  0  0  0
  -26.8385  -17.4541   20.0145 C   0  0  2  0  0  0  0  0  0  0  0  0
  -23.3945  -35.4804   25.6125 C   0  0  0  0  0  0  0  0  0  0  0  0
  -27.2884  -30.1500   25.0691 C   0  0  0  0  0  0  0  0  0  0  0  0
  -26.0077  -31.7313   26.5276 C   0  0  0  0  0  0  0  0  0  0  0  0
  -27.8813  -32.5791   25.1158 C   0  0  0  0  0  0  0  0  0  0  0  0
  -22.1792  -34.8283   22.0665 C   0  0  0  0  0  0  0  0  0  0  0  0
  -19.8397  -24.9956   20.6083 C   0  0  0  0  0  0  0  0  0  0  0  0
  -20.5736  -26.0654   19.8197 C   0  0  0  0  0  0  0  0  0  1  0  0
  -25.7092  -31.8995   24.0149 C   0  0  1  0  0  0  0  0  0  0  0  0
  -23.4990  -34.9747   24.1820 C   0  0  2  0  0  0  0  0  0  0  0  0
  -26.7085  -31.5756   25.1611 C   0  0  0  0  0  0  0  0  0  0  0  0
  -25.4991  -15.4213   20.4080 N   0  0  0  0  0  0  0  0  0  0  0  0
  -26.2335  -16.1442   19.5454 N   0  0  0  0  0  0  0  0  0  0  0  0
  -22.4283  -23.7616   23.7427 N   0  0  0  0  0  0  0  0  0  0  0  0
  -20.6432  -24.4929   21.7188 N   0  0  0  0  0  0  0  0  0  0  0  0
  -25.7319  -30.7998   21.7982 N   0  0  0  0  0  0  0  0  0  0  0  0
  -26.5796  -19.4213   21.4752 N   0  0  0  0  0  0  0  0  0  0  0  0
  -27.0457  -16.1756   17.3205 N   0  0  0  0  0  0  0  0  0  0  0  0
  -24.7018  -12.3204   17.5197 N   0  0  0  0  0  0  0  0  0  0  0  0
  -24.7572  -20.7336   20.7549 N   0  0  0  0  0  0  0  0  0  0  0  0
  -27.9730  -28.8037   19.7272 N   0  0  0  0  0  0  0  0  0  0  0  0
  -25.1648  -33.2523   24.0614 N   0  0  0  0  0  0  0  0  0  0  0  0
  -22.2090  -35.2534   23.4897 N   0  3  0  0  0  0  0  0  0  0  0  0
  -19.6913  -25.9607   23.2539 O   0  0  0  0  0  0  0  0  0  0  0  0
  -25.9891  -13.6490   16.1645 O   0  0  0  0  0  0  0  0  0  0  0  0
  -27.1729  -28.6912   21.9112 O   0  0  0  0  0  0  0  0  0  0  0  0
  -27.3055  -32.4316   22.3431 O   0  0  0  0  0  0  0  0  0  0  0  0
  -22.9356  -32.6253   24.1836 O   0  0  0  0  0  0  0  0  0  0  0  0
  -26.6130  -21.7176   21.7394 O   0  0  0  0  0  0  0  0  0  0  0  0
  -21.9591  -10.3590   21.9543 O   0  0  0  0  0  0  0  0  0  0  0  0
  -20.8758  -27.1640   20.6788 O   0  0  0  0  0  0  0  0  0  1  0  0
  -23.3843   -5.1151   21.0194 F   0  0  0  0  0  0  0  0  0  0  0  0
  -22.9351  -21.4109   18.7641 F   0  0  0  0  0  0  0  0  0  0  0  0
  -22.5815   -8.6636   24.0474 F   0  0  0  0  0  0  0  0  0  0  0  0
  -24.4395  -21.9521   23.2216 F   0  0  0  0  0  0  0  0  0  0  0  0
  1  2  1  0  0  0  0
  1  5  2  0  0  0  0
  2  6  2  0  0  0  0
  3  8  2  0  0  0  0
  3 16  1  0  0  0  0
  4  9  1  0  0  0  0
  4 16  2  0  0  0  0
  5 18  1  0  0  0  0
  6 20  1  0  0  0  0
  7 10  2  0  0  0  0
  7 19  1  0  0  0  0
  8 25  1  0  0  0  0
  9 25  2  0  0  0  0
 10 26  1  0  0  0  0
 11 12  2  0  0  0  0
 11 27  1  0  0  0  0
 12 28  1  0  0  0  0
 13 21  1  0  0  0  0
 13 26  2  0  0  0  0
 14 22  2  0  0  0  0
 14 29  1  0  0  0  0
 15 28  2  0  0  0  0
 15 30  1  0  0  0  0
 16 32  1  0  0  0  0
 17 32  1  0  0  0  0
 17 33  2  0  0  0  0
 17 35  1  0  0  0  0
 18 20  2  0  0  0  0
 18 40  1  0  0  0  0
 19 21  2  0  0  0  0
 19 41  1  0  0  0  0
 20 50  1  0  0  0  0
 21 42  1  0  0  0  0
 22 23  1  0  0  0  0
 22 66  1  0  0  0  0
 23 31  2  0  0  0  0
 23 65  1  0  0  0  0
 24 29  2  0  0  0  0
 24 31  1  0  0  0  0
 24 71  1  0  0  0  0
 25 81  1  0  0  0  0
 26 82  1  0  0  0  0
 27 30  2  0  0  0  0
 27 81  1  0  0  0  0
 28 83  1  0  0  0  0
 29 84  1  0  0  0  0
 30 85  1  0  0  0  0
 31 86  1  0  0  0  0
 32 63  2  0  0  0  0
 33 64  1  0  0  0  0
 33 69  1  0  0  0  0
 34 43  1  0  0  0  0
 34 66  1  0  0  0  0
 34 75  2  0  0  0  0
 35 70  1  0  0  0  0
 35 76  2  0  0  0  0
 36 51  1  0  0  0  0
 36 72  1  0  0  0  0
 36 77  2  0  0  0  0
 37 60  1  0  0  0  0
 37 67  1  0  0  0  0
 37 78  2  0  0  0  0
 38 61  1  0  0  0  0
 38 73  1  0  0  0  0
 38 79  2  0  0  0  0
 39 68  1  0  0  0  0
 39 71  1  0  0  0  0
 39 80  2  0  0  0  0
 40 44  1  0  0  0  0
 41 51  1  0  0  0  0
 42 67  1  0  0  0  0
 43 65  1  0  0  0  0
 44 46  1  0  0  0  0
 45 47  1  0  0  0  0
 45 48  1  0  0  0  0
 46 50  1  0  0  0  0
 47 52  1  0  0  0  0
 48 68  1  0  0  0  0
 49 52  1  0  0  0  0
 49 68  1  0  0  0  0
 50 72  1  0  0  0  0
 51 67  1  0  0  0  0
 52 64  1  0  0  0  0
 53 61  1  0  0  0  0
 54 62  1  0  0  0  0
 55 62  1  0  0  0  0
 56 62  1  0  0  0  0
 57 74  1  0  0  0  0
 58 59  1  0  0  0  0
 58 66  1  0  0  0  0
 59 82  1  0  0  0  0
 60 62  1  0  0  0  0
 60 73  1  0  0  0  0
 61 74  1  0  0  0  0
 63 64  1  0  0  0  0
M  CHG  1  74   1
M  ISO  4  39 100  59 101  71 100  82 101
M  END
> <Batch ID>
0006

> <Smiles>
CNC(C)C(=O)NC(C(=O)N1Cc2cc([101O:1][101CH2:1]CN3C(=O)CNc4c3cc(F)c([100NH:0][100C:0](=O)N3CCCC(n5nc(-c6ccc(Oc7ccc(F)cc7F)cc6)c(C(N)=O)c5N)C3)c4F)ccc2CC1C(=O)NC1CCCc2ccccc21)C(C)(C)C

> <Shape>
0.247

> <Color>
0.072

> <Negative vol penalty>
0.000

$$$$

  -OEChem-04042320293D

 90100  0     1  0  0  0  0  0999 V2000
  -32.3133  -17.2037   14.8626 C   0  0  0  0  0  0  0  0  0  0  0  0
  -28.3490  -32.1723   26.9356 C   0  0  0  0  0  0  0  0  0  0  0  0
  -28.1814  -30.8086   26.7170 C   0  0  0  0  0  0  0  0  0  0  0  0
  -32.0403  -16.1753   15.7645 C   0  0  0  0  0  0  0  0  0  0  0  0
  -32.2246  -18.5337   15.2737 C   0  0  0  0  0  0  0  0  0  0  0  0
  -22.7415  -10.2988   21.0618 C   0  0  0  0  0  0  0  0  0  0  0  0
  -24.4457  -10.0606   22.7576 C   0  0  0  0  0  0  0  0  0  0  0  0
  -27.3774  -33.0718   26.4988 C   0  0  0  0  0  0  0  0  0  0  0  0
  -27.0413  -30.3436   26.0625 C   0  0  0  0  0  0  0  0  0  0  0  0
  -28.1043  -26.8474   22.5565 C   0  0  0  0  0  0  0  0  0  0  0  0
  -31.6784  -16.4768   17.0774 C   0  0  0  0  0  0  0  0  0  0  0  0
  -31.8628  -18.8352   16.5866 C   0  0  0  0  0  0  0  0  0  0  0  0
  -22.0596   -9.2043   21.5933 C   0  0  0  0  0  0  0  0  0  0  0  0
  -23.7637   -8.9661   23.2892 C   0  0  0  0  0  0  0  0  0  0  0  0
  -28.3652  -25.5537   23.0060 C   0  0  0  0  0  0  0  0  0  0  0  0
  -22.3073   -5.8345   21.5073 C   0  0  0  0  0  0  0  0  0  0  0  0
  -21.8238   -4.8775   20.6151 C   0  0  0  0  0  0  0  0  0  0  0  0
  -26.1122  -24.9075   22.4352 C   0  0  0  0  0  0  0  0  0  0  0  0
  -19.5735   -5.2908   21.3912 C   0  0  0  0  0  0  0  0  0  0  0  0
  -23.9346  -10.7270   21.6439 C   0  0  0  0  0  0  0  0  0  0  0  0
  -24.1616  -13.1745   20.9615 C   0  0  0  0  0  0  0  0  0  0  0  0
  -26.2295  -32.6183   25.8301 C   0  0  0  0  0  0  0  0  0  0  0  0
  -26.8399  -27.1843   22.0522 C   0  0  0  0  0  0  0  0  0  0  0  0
  -26.0528  -31.2377   25.6176 C   0  0  0  0  0  0  0  0  0  0  0  0
  -25.8386  -26.2055   21.9775 C   0  0  0  0  0  0  0  0  0  0  0  0
  -31.5897  -17.8068   17.4885 C   0  0  0  0  0  0  0  0  0  0  0  0
  -22.5706   -8.5379   22.7071 C   0  0  0  0  0  0  0  0  0  0  0  0
  -27.3682  -24.5843   22.9481 C   0  0  0  0  0  0  0  0  0  0  0  0
  -21.4239   -6.5196   22.3415 C   0  0  0  0  0  0  0  0  0  0  0  0
  -20.4570   -4.6057   20.5570 C   0  0  0  0  0  0  0  0  0  0  0  0
  -20.0570   -6.2478   22.2834 C   0  0  0  0  0  0  0  0  0  0  0  0
  -24.6398  -11.8572   21.0949 C   0  0  0  0  0  0  0  0  0  0  0  0
  -25.2038  -13.8618   20.3889 C   0  0  0  0  0  0  0  0  0  0  0  0
  -22.8891  -13.7275   21.3230 C   0  0  0  0  0  0  0  0  0  0  0  0
  -24.5582  -29.2281   22.9008 C   0  0  0  0  0  0  0  0  0  0  0  0
  -23.1938  -28.2541   20.1238 C   0  0  0  0  0  0  0  0  0  0  0  0
  -22.9072  -25.8422   17.7264 C   0  0  0  0  0  0  0  0  0  0  0  0
  -30.7951  -14.8762   20.5500 C   0  0  0  0  0  0  0  0  0  0  0  0
  -25.1841  -33.6244   25.4184 C   0  0  0  0  0  0  0  0  0  0  0  0
  -26.5826  -28.5773   21.5466 C   0  0  0  0  0  0  0  0  0  0  0  0
  -24.4708  -26.5108   21.4260 C   0  0  0  0  0  0  0  0  0  0  0  0
  -24.1840  -33.0820   24.4006 C   0  0  0  0  0  0  0  0  0  0  0  0
  -29.5054  -12.2241   18.3129 C   0  0  0  0  0  0  0  0  0  0  0  0
  -23.6867  -31.7033   24.8233 C   0  0  0  0  0  0  0  0  0  0  0  0
  -28.1119  -11.9585   18.8800 C   0  0  0  0  0  0  0  0  0  0  0  0
  -30.4681  -12.7250   19.3853 C   0  0  0  0  0  0  0  0  0  0  0  0
  -28.5852  -13.6556   20.6901 C   0  0  0  0  0  0  0  0  0  0  0  0
  -28.9932  -21.1162   20.6301 C   0  0  0  0  0  0  0  0  0  0  0  0
  -27.6594  -19.5327   21.9334 C   0  0  0  0  0  0  0  0  0  0  0  0
  -29.1860  -19.6156   18.5719 C   0  0  0  0  0  0  0  0  0  0  0  0
  -24.8416  -30.6966   24.8893 C   0  0  1  0  0  0  0  0  0  0  0  0
  -25.1016  -28.9427   21.5293 C   0  0  1  0  0  0  0  0  0  0  0  0
  -28.3007  -20.1521   19.6820 C   0  0  1  0  0  0  0  0  0  0  0  0
  -27.9727  -18.9554   20.5598 C   0  0  1  0  0  0  0  0  0  0  0  0
  -27.5784  -13.1941   19.6258 C   0  0  2  0  0  0  0  0  0  0  0  0
  -29.2474  -18.1116   20.5149 C   0  0  1  0  0  0  0  0  0  0  0  0
  -21.6852  -25.3147   15.5990 C   0  0  0  0  0  0  0  0  0  0  0  0
  -20.6803  -27.6112   21.7298 C   0  0  0  0  0  0  0  0  0  0  0  0
  -19.8771  -26.2429   19.7931 C   0  0  0  0  0  0  0  0  0  0  0  0
  -20.2551  -28.6929   19.5154 C   0  0  0  0  0  0  0  0  0  0  0  0
  -31.0195  -16.6640   22.2332 C   0  0  0  0  0  0  0  0  0  0  0  0
  -25.4263  -25.6917   16.1803 C   0  0  0  0  0  0  0  0  0  0  0  0
  -31.2003  -18.1318   18.9005 C   0  0  0  0  0  0  0  0  0  0  0  0
  -29.0015  -16.6414   20.8144 C   0  0  0  0  0  0  0  0  0  0  0  0
  -28.9633  -21.3374   23.1389 C   0  0  0  0  0  0  0  0  0  0  0  0
  -28.9601  -22.8474   23.2724 C   0  0  0  0  0  0  0  0  0  1  0  0
  -22.2451  -27.1481   19.7290 C   0  0  1  0  0  0  0  0  0  0  0  0
  -22.9392  -25.9198   16.2106 C   0  0  2  0  0  0  0  0  0  0  0  0
  -20.7895  -27.4182   20.2041 C   0  0  0  0  0  0  0  0  0  0  0  0
  -25.8886  -11.7138   20.6433 N   0  0  0  0  0  0  0  0  0  0  0  0
  -26.2039  -12.9498   20.2204 N   0  0  0  0  0  0  0  0  0  0  0  0
  -24.2661  -27.8889   20.9499 N   0  0  0  0  0  0  0  0  0  0  0  0
  -29.9179  -13.8726   20.1073 N   0  0  0  0  0  0  0  0  0  0  0  0
  -25.3532  -15.1512   20.0181 N   0  0  0  0  0  0  0  0  0  0  0  0
  -22.7322  -14.2569   22.6112 N   0  0  0  0  0  0  0  0  0  0  0  0
  -25.2049  -30.2565   23.5594 N   0  0  0  0  0  0  0  0  0  0  0  0
  -22.3825  -26.9883   18.2854 N   0  0  0  0  0  0  0  0  0  0  0  0
  -30.2295  -15.9663   21.2287 N   0  0  0  0  0  0  0  0  0  0  0  0
  -28.2081  -20.9493   21.9093 N   0  3  1  0  0  0  0  0  0  0  0  0
  -29.7211  -18.2851   19.0810 N   0  3  2  0  0  0  0  0  0  0  0  0
  -24.1224  -25.1859   15.6793 N   0  3  0  0  0  0  0  0  0  0  0  0
  -21.9150  -13.7366   20.5327 O   0  0  0  0  0  0  0  0  0  0  0  0
  -23.6206  -28.5655   23.3292 O   0  0  0  0  0  0  0  0  0  0  0  0
  -22.9948  -29.3984   19.7084 O   0  0  0  0  0  0  0  0  0  0  0  0
  -23.3042  -24.8615   18.3517 O   0  0  0  0  0  0  0  0  0  0  0  0
  -32.0132  -14.8068   20.3417 O   0  0  0  0  0  0  0  0  0  0  0  0
  -21.9054   -7.4700   23.2262 O   0  0  0  0  0  0  0  0  0  0  0  0
  -27.6218  -23.3119   23.3899 O   0  0  0  0  0  0  0  0  0  1  0  0
  -19.9927   -3.6877   19.6991 F   0  0  0  0  0  0  0  0  0  0  0  0
  -19.2033   -6.9037   23.0815 F   0  0  0  0  0  0  0  0  0  0  0  0
  1  4  1  0  0  0  0
  1  5  2  0  0  0  0
  2  3  1  0  0  0  0
  2  8  2  0  0  0  0
  3  9  2  0  0  0  0
  4 11  2  0  0  0  0
  5 12  1  0  0  0  0
  6 13  2  0  0  0  0
  6 20  1  0  0  0  0
  7 14  1  0  0  0  0
  7 20  2  0  0  0  0
  8 22  1  0  0  0  0
  9 24  1  0  0  0  0
 10 15  2  0  0  0  0
 10 23  1  0  0  0  0
 11 26  1  0  0  0  0
 12 26  2  0  0  0  0
 13 27  1  0  0  0  0
 14 27  2  0  0  0  0
 15 28  1  0  0  0  0
 16 17  2  0  0  0  0
 16 29  1  0  0  0  0
 17 30  1  0  0  0  0
 18 25  1  0  0  0  0
 18 28  2  0  0  0  0
 19 30  2  0  0  0  0
 19 31  1  0  0  0  0
 20 32  1  0  0  0  0
 21 32  1  0  0  0  0
 21 33  2  0  0  0  0
 21 34  1  0  0  0  0
 22 24  2  0  0  0  0
 22 39  1  0  0  0  0
 23 25  2  0  0  0  0
 23 40  1  0  0  0  0
 24 51  1  0  0  0  0
 25 41  1  0  0  0  0
 26 63  1  0  0  0  0
 27 87  1  0  0  0  0
 28 88  1  0  0  0  0
 29 31  2  0  0  0  0
 29 87  1  0  0  0  0
 30 89  1  0  0  0  0
 31 90  1  0  0  0  0
 32 70  2  0  0  0  0
 33 71  1  0  0  0  0
 33 74  1  0  0  0  0
 34 75  1  0  0  0  0
 34 82  2  0  0  0  0
 35 52  1  0  0  0  0
 35 76  1  0  0  0  0
 35 83  2  0  0  0  0
 36 67  1  0  0  0  0
 36 72  1  0  0  0  0
 36 84  2  0  0  0  0
 37 68  1  0  0  0  0
 37 77  1  0  0  0  0
 37 85  2  0  0  0  0
 38 73  1  0  0  0  0
 38 78  1  0  0  0  0
 38 86  2  0  0  0  0
 39 42  1  0  0  0  0
 40 52  1  0  0  0  0
 41 72  1  0  0  0  0
 42 44  1  0  0  0  0
 43 45  1  0  0  0  0
 43 46  1  0  0  0  0
 44 51  1  0  0  0  0
 45 55  1  0  0  0  0
 46 73  1  0  0  0  0
 47 55  1  0  0  0  0
 47 73  1  0  0  0  0
 48 53  1  0  0  0  0
 48 79  1  0  0  0  0
 49 54  1  0  0  0  0
 49 79  1  0  0  0  0
 50 53  1  0  0  0  0
 50 80  1  0  0  0  0
 51 76  1  0  0  0  0
 52 72  1  0  0  0  0
 53 54  1  0  0  0  0
 54 56  1  0  0  0  0
 55 71  1  0  0  0  0
 56 64  1  0  0  0  0
 56 80  1  0  0  0  0
 57 68  1  0  0  0  0
 58 69  1  0  0  0  0
 59 69  1  0  0  0  0
 60 69  1  0  0  0  0
 61 78  1  0  0  0  0
 62 81  1  0  0  0  0
 63 80  1  0  0  0  0
 64 78  1  0  0  0  0
 65 66  1  0  0  0  0
 65 79  1  0  0  0  0
 66 88  1  0  0  0  0
 67 69  1  0  0  0  0
 67 77  1  0  0  0  0
 68 81  1  0  0  0  0
 70 71  1  0  0  0  0
M  CHG  3  79   1  80   1  81   1
M  ISO  4  38 100  66 101  78 100  88 101
M  END
> <Batch ID>
0006

> <Smiles>
CNC(C)C(=O)NC(C(=O)N1Cc2cc([101O:1][101CH2:1]CN3CC4CN(Cc5ccccc5)C(C[100N:0](C)[100C:0](=O)N5CCCC(n6nc(-c7ccc(Oc8ccc(F)cc8F)cc7)c(C(N)=O)c6N)C5)C4C3)ccc2CC1C(=O)NC1CCCc2ccccc21)C(C)(C)C

> <Shape>
0.309

> <Color>
0.141

> <Negative vol penalty>
0.000

$$$$

  -OEChem-04042320293D

 90100  0     1  0  0  0  0  0999 V2000
  -29.1825  -19.6760   27.2435 C   0  0  0  0  0  0  0  0  0  0  0  0
  -28.9770  -18.3027   27.3282 C   0  0  0  0  0  0  0  0  0  0  0  0
  -20.7470  -15.3503   24.9155 C   0  0  0  0  0  0  0  0  0  0  0  0
  -21.8195  -16.2091   24.6972 C   0  0  0  0  0  0  0  0  0  0  0  0
  -29.5625  -20.2507   26.0305 C   0  0  0  0  0  0  0  0  0  0  0  0
  -29.1509  -17.5006   26.2002 C   0  0  0  0  0  0  0  0  0  0  0  0
  -22.9967   -9.8958   19.9832 C   0  0  0  0  0  0  0  0  0  0  0  0
  -23.7213   -9.9482   22.2874 C   0  0  0  0  0  0  0  0  0  0  0  0
  -19.5423  -15.5568   24.2446 C   0  0  0  0  0  0  0  0  0  0  0  0
  -21.6882  -17.2743   23.8070 C   0  0  0  0  0  0  0  0  0  0  0  0
  -24.2712  -22.8070   24.2797 C   0  0  0  0  0  0  0  0  0  0  0  0
  -30.8597  -18.9875   20.1542 C   0  0  0  0  0  0  0  0  0  0  0  0
  -30.6543  -17.6142   20.2390 C   0  0  0  0  0  0  0  0  0  0  0  0
  -22.2288   -8.7624   20.2504 C   0  0  0  0  0  0  0  0  0  0  0  0
  -22.9534   -8.8148   22.5546 C   0  0  0  0  0  0  0  0  0  0  0  0
  -25.4112  -23.3626   23.7003 C   0  0  0  0  0  0  0  0  0  0  0  0
  -21.4681   -5.7246   23.7607 C   0  0  0  0  0  0  0  0  0  0  0  0
  -22.0527   -4.7089   24.5170 C   0  0  0  0  0  0  0  0  0  0  0  0
  -30.1243  -20.0209   23.6564 C   0  0  0  0  0  0  0  0  0  0  0  0
  -29.7125  -17.2692   23.8262 C   0  0  0  0  0  0  0  0  0  0  0  0
  -24.0457  -24.3481   21.9731 C   0  0  0  0  0  0  0  0  0  0  0  0
  -23.7792   -4.4581   22.8456 C   0  0  0  0  0  0  0  0  0  0  0  0
  -29.7419  -19.4573   24.8851 C   0  0  0  0  0  0  0  0  0  0  0  0
  -29.5332  -18.0633   24.9712 C   0  0  0  0  0  0  0  0  0  0  0  0
  -30.3035  -19.2268   22.5114 C   0  0  0  0  0  0  0  0  0  0  0  0
  -30.0949  -17.8328   22.5974 C   0  0  0  0  0  0  0  0  0  0  0  0
  -23.7430  -10.4886   21.0016 C   0  0  0  0  0  0  0  0  0  0  0  0
  -24.1313  -13.0036   20.8233 C   0  0  0  0  0  0  0  0  0  0  0  0
  -19.3932  -16.6307   23.3529 C   0  0  0  0  0  0  0  0  0  0  0  0
  -23.0091  -23.0091   23.7029 C   0  0  0  0  0  0  0  0  0  0  0  0
  -20.4809  -17.4945   23.1224 C   0  0  0  0  0  0  0  0  0  0  0  0
  -22.8910  -23.7962   22.5485 C   0  0  0  0  0  0  0  0  0  0  0  0
  -30.6858  -19.7896   21.2823 C   0  0  0  0  0  0  0  0  0  0  0  0
  -30.2744  -17.0394   21.4521 C   0  0  0  0  0  0  0  0  0  0  0  0
  -22.2071   -8.2220   21.5361 C   0  0  0  0  0  0  0  0  0  0  0  0
  -25.2989  -24.1309   22.5453 C   0  0  0  0  0  0  0  0  0  0  0  0
  -22.0389   -6.1071   22.5467 C   0  0  0  0  0  0  0  0  0  0  0  0
  -23.2083   -4.0757   24.0595 C   0  0  0  0  0  0  0  0  0  0  0  0
  -23.1945   -5.4739   22.0892 C   0  0  0  0  0  0  0  0  0  0  0  0
  -24.5369  -11.6591   20.7261 C   0  0  0  0  0  0  0  0  0  0  0  0
  -25.2420  -13.7246   20.4584 C   0  0  0  0  0  0  0  0  0  0  0  0
  -22.8639  -13.5519   21.2089 C   0  0  0  0  0  0  0  0  0  0  0  0
  -20.7872  -21.1144   22.4472 C   0  0  0  0  0  0  0  0  0  0  0  0
  -19.0744  -23.8656   22.3093 C   0  0  0  0  0  0  0  0  0  0  0  0
  -19.0758  -27.2762   22.1858 C   0  0  0  0  0  0  0  0  0  0  0  0
  -30.7225  -14.6795   20.6928 C   0  0  0  0  0  0  0  0  0  0  0  0
  -18.0870  -16.7856   22.6151 C   0  0  0  0  0  0  0  0  0  0  0  0
  -21.7860  -22.4252   24.3552 C   0  0  0  0  0  0  0  0  0  0  0  0
  -21.5566  -24.0600   21.9017 C   0  0  0  0  0  0  0  0  0  0  0  0
  -17.9101  -18.1585   21.9714 C   0  0  0  0  0  0  0  0  0  0  0  0
  -29.6020  -12.2257   18.3690 C   0  0  0  0  0  0  0  0  0  0  0  0
  -19.1769  -18.5656   21.2256 C   0  0  0  0  0  0  0  0  0  0  0  0
  -28.1510  -11.9701   18.7831 C   0  0  0  0  0  0  0  0  0  0  0  0
  -30.5025  -12.4692   19.5788 C   0  0  0  0  0  0  0  0  0  0  0  0
  -28.5877  -13.2616   20.9111 C   0  0  0  0  0  0  0  0  0  0  0  0
  -20.3695  -18.6758   22.1831 C   0  0  1  0  0  0  0  0  0  0  0  0
  -20.6126  -22.2690   23.3928 C   0  0  1  0  0  0  0  0  0  0  0  0
  -27.6301  -13.0752   19.7228 C   0  0  2  0  0  0  0  0  0  0  0  0
  -17.5237  -29.2427   22.0406 C   0  0  0  0  0  0  0  0  0  0  0  0
  -18.6332  -23.2954   19.3445 C   0  0  0  0  0  0  0  0  0  0  0  0
  -17.9315  -25.6819   19.0613 C   0  0  0  0  0  0  0  0  0  0  0  0
  -16.6227  -24.1671   20.5496 C   0  0  0  0  0  0  0  0  0  0  0  0
  -20.0082  -28.3513   24.7807 C   0  0  0  0  0  0  0  0  0  0  0  0
  -30.9240  -21.2620   21.1204 C   0  0  0  0  0  0  0  0  0  0  0  0
  -28.5287  -24.2437   20.9384 C   0  0  0  0  0  0  0  0  0  0  0  0
  -29.8664  -23.5208   20.9865 C   0  0  0  0  0  0  0  0  0  0  0  0
  -27.6365  -23.9630   22.1413 C   0  0  0  0  0  0  0  0  0  1  0  0
  -18.9027  -24.9682   21.2925 C   0  0  1  0  0  0  0  0  0  0  0  0
  -18.2899  -28.3127   22.9684 C   0  0  2  0  0  0  0  0  0  0  0  0
  -18.0481  -24.5218   20.0728 C   0  0  0  0  0  0  0  0  0  0  0  0
  -25.8061  -11.5307   20.3303 N   0  0  0  0  0  0  0  0  0  0  0  0
  -26.2076  -12.8039   20.1756 N   0  0  0  0  0  0  0  0  0  0  0  0
  -20.3909  -23.4621   22.5734 N   0  0  0  0  0  0  0  0  0  0  0  0
  -29.9484  -13.5316   20.4209 N   0  0  0  0  0  0  0  0  0  0  0  0
  -25.4770  -15.0499   20.3551 N   0  0  0  0  0  0  0  0  0  0  0  0
  -21.8310  -12.6692   21.5531 N   0  0  0  0  0  0  0  0  0  0  0  0
  -30.0791  -15.6362   21.4773 N   0  0  0  0  0  0  0  0  0  0  0  0
  -20.3047  -19.9132   22.9308 N   0  0  0  0  0  0  0  0  0  0  0  0
  -18.3579  -26.1110   22.0177 N   0  0  0  0  0  0  0  0  0  0  0  0
  -19.2082  -29.1358   23.8052 N   0  3  0  0  0  0  0  0  0  0  0  0
  -29.6648  -22.0560   21.0819 N   0  3  0  0  0  0  0  0  0  0  0  0
  -22.6486  -14.7874   21.2314 O   0  0  0  0  0  0  0  0  0  0  0  0
  -21.3190  -21.2998   21.3589 O   0  0  0  0  0  0  0  0  0  0  0  0
  -18.0776  -23.3852   22.8545 O   0  0  0  0  0  0  0  0  0  0  0  0
  -20.2113  -27.4810   21.7626 O   0  0  0  0  0  0  0  0  0  0  0  0
  -31.8614  -14.8167   20.2390 O   0  0  0  0  0  0  0  0  0  0  0  0
  -21.4577   -7.1162   21.7974 O   0  0  0  0  0  0  0  0  0  0  0  0
  -26.4100  -24.6738   21.9774 O   0  0  0  0  0  0  0  0  0  1  0  0
  -23.7705   -3.1014   24.7867 F   0  0  0  0  0  0  0  0  0  0  0  0
  -23.7481   -5.8377   20.9244 F   0  0  0  0  0  0  0  0  0  0  0  0
  1  2  1  0  0  0  0
  1  5  2  0  0  0  0
  2  6  2  0  0  0  0
  3  4  1  0  0  0  0
  3  9  2  0  0  0  0
  4 10  2  0  0  0  0
  5 23  1  0  0  0  0
  6 24  1  0  0  0  0
  7 14  2  0  0  0  0
  7 27  1  0  0  0  0
  8 15  1  0  0  0  0
  8 27  2  0  0  0  0
  9 29  1  0  0  0  0
 10 31  1  0  0  0  0
 11 16  2  0  0  0  0
 11 30  1  0  0  0  0
 12 13  2  0  0  0  0
 12 33  1  0  0  0  0
 13 34  1  0  0  0  0
 14 35  1  0  0  0  0
 15 35  2  0  0  0  0
 16 36  1  0  0  0  0
 17 18  2  0  0  0  0
 17 37  1  0  0  0  0
 18 38  1  0  0  0  0
 19 23  2  0  0  0  0
 19 25  1  0  0  0  0
 20 24  2  0  0  0  0
 20 26  1  0  0  0  0
 21 32  1  0  0  0  0
 21 36  2  0  0  0  0
 22 38  2  0  0  0  0
 22 39  1  0  0  0  0
 23 24  1  0  0  0  0
 25 26  1  0  0  0  0
 25 33  2  0  0  0  0
 26 34  2  0  0  0  0
 27 40  1  0  0  0  0
 28 40  1  0  0  0  0
 28 41  2  0  0  0  0
 28 42  1  0  0  0  0
 29 31  2  0  0  0  0
 29 47  1  0  0  0  0
 30 32  2  0  0  0  0
 30 48  1  0  0  0  0
 31 56  1  0  0  0  0
 32 49  1  0  0  0  0
 33 64  1  0  0  0  0
 34 77  1  0  0  0  0
 35 87  1  0  0  0  0
 36 88  1  0  0  0  0
 37 39  2  0  0  0  0
 37 87  1  0  0  0  0
 38 89  1  0  0  0  0
 39 90  1  0  0  0  0
 40 71  2  0  0  0  0
 41 72  1  0  0  0  0
 41 75  1  0  0  0  0
 42 76  1  0  0  0  0
 42 82  2  0  0  0  0
 43 57  1  0  0  0  0
 43 78  1  0  0  0  0
 43 83  2  0  0  0  0
 44 68  1  0  0  0  0
 44 73  1  0  0  0  0
 44 84  2  0  0  0  0
 45 69  1  0  0  0  0
 45 79  1  0  0  0  0
 45 85  2  0  0  0  0
 46 74  1  0  0  0  0
 46 77  1  0  0  0  0
 46 86  2  0  0  0  0
 47 50  1  0  0  0  0
 48 57  1  0  0  0  0
 49 73  1  0  0  0  0
 50 52  1  0  0  0  0
 51 53  1  0  0  0  0
 51 54  1  0  0  0  0
 52 56  1  0  0  0  0
 53 58  1  0  0  0  0
 54 74  1  0  0  0  0
 55 58  1  0  0  0  0
 55 74  1  0  0  0  0
 56 78  1  0  0  0  0
 57 73  1  0  0  0  0
 58 72  1  0  0  0  0
 59 69  1  0  0  0  0
 60 70  1  0  0  0  0
 61 70  1  0  0  0  0
 62 70  1  0  0  0  0
 63 80  1  0  0  0  0
 64 81  1  0  0  0  0
 65 66  1  0  0  0  0
 65 67  1  0  0  0  0
 66 81  1  0  0  0  0
 67 88  1  0  0  0  0
 68 70  1  0  0  0  0
 68 79  1  0  0  0  0
 69 80  1  0  0  0  0
 71 72  1  0  0  0  0
M  CHG  2  80   1  81   1
M  ISO  4  46 100  67 101  77 100  88 101
M  END
> <Batch ID>
0006

> <Smiles>
CNC(C)C(=O)NC(C(=O)N1Cc2cc([101O:1][101CH2:1]CCNCc3ccc([100NH:0][100C:0](=O)N4CCCC(n5nc(-c6ccc(Oc7ccc(F)cc7F)cc6)c(C(N)=O)c5N)C4)c4cc5ccccc5cc34)ccc2CC1C(=O)NC1CCCc2ccccc21)C(C)(C)C

> <Shape>
0.243

> <Color>
0.190

> <Negative vol penalty>
0.000

$$$$

  -OEChem-04042320293D

 82 91  0     1  0  0  0  0  0999 V2000
  -23.2420  -30.4966   24.5323 C   0  0  0  0  0  0  0  0  0  0  0  0
  -23.0049  -29.1258   24.5174 C   0  0  0  0  0  0  0  0  0  0  0  0
  -23.1996   -9.7890   19.9891 C   0  0  0  0  0  0  0  0  0  0  0  0
  -23.5141  -10.1056   22.3636 C   0  0  0  0  0  0  0  0  0  0  0  0
  -23.7815  -31.1218   23.4090 C   0  0  0  0  0  0  0  0  0  0  0  0
  -23.3061  -28.3797   23.3785 C   0  0  0  0  0  0  0  0  0  0  0  0
  -25.5552  -21.8721   21.4013 C   0  0  0  0  0  0  0  0  0  0  0  0
  -22.4248   -8.6573   20.2426 C   0  0  0  0  0  0  0  0  0  0  0  0
  -22.7392   -8.9738   22.6171 C   0  0  0  0  0  0  0  0  0  0  0  0
  -25.2048  -20.8234   20.5521 C   0  0  0  0  0  0  0  0  0  0  0  0
  -23.1378   -5.6170   22.5568 C   0  0  0  0  0  0  0  0  0  0  0  0
  -23.6096   -4.7072   23.5030 C   0  0  0  0  0  0  0  0  0  0  0  0
  -26.2071  -21.9974   18.6985 C   0  0  0  0  0  0  0  0  0  0  0  0
  -21.6169   -5.0494   24.8256 C   0  0  0  0  0  0  0  0  0  0  0  0
  -23.7443  -10.5132   21.0496 C   0  0  0  0  0  0  0  0  0  0  0  0
  -24.0966  -13.0112   20.6709 C   0  0  0  0  0  0  0  0  0  0  0  0
  -24.0984  -30.3814   22.2592 C   0  0  0  0  0  0  0  0  0  0  0  0
  -26.2257  -22.9982   20.9025 C   0  0  0  0  0  0  0  0  0  0  0  0
  -23.8490  -28.9958   22.2382 C   0  0  0  0  0  0  0  0  0  0  0  0
  -26.5672  -23.0580   19.5439 C   0  0  0  0  0  0  0  0  0  0  0  0
  -22.1945   -8.2497   21.5566 C   0  0  0  0  0  0  0  0  0  0  0  0
  -25.5282  -20.8872   19.1999 C   0  0  0  0  0  0  0  0  0  0  0  0
  -21.9056   -6.2430   22.7450 C   0  0  0  0  0  0  0  0  0  0  0  0
  -22.8492   -4.4234   24.6374 C   0  0  0  0  0  0  0  0  0  0  0  0
  -21.1452   -5.9592   23.8793 C   0  0  0  0  0  0  0  0  0  0  0  0
  -24.5453  -11.6821   20.7884 C   0  0  0  0  0  0  0  0  0  0  0  0
  -25.2358  -13.7377   20.4240 C   0  0  0  0  0  0  0  0  0  0  0  0
  -22.7687  -13.5418   20.7755 C   0  0  0  0  0  0  0  0  0  0  0  0
  -25.5627  -26.1009   20.7099 C   0  0  0  0  0  0  0  0  0  0  0  0
  -28.6141  -26.2878   19.6252 C   0  0  0  0  0  0  0  0  0  0  0  0
  -31.2622  -24.7279   18.1417 C   0  0  0  0  0  0  0  0  0  0  0  0
  -29.9537  -14.1375   17.5419 C   0  0  0  0  0  0  0  0  0  0  0  0
  -24.6359  -31.1090   21.0524 C   0  0  0  0  0  0  0  0  0  0  0  0
  -26.6203  -24.1090   21.8367 C   0  0  0  0  0  0  0  0  0  0  0  0
  -27.3046  -24.2356   18.9626 C   0  0  0  0  0  0  0  0  0  0  0  0
  -25.2760  -30.1854   20.0193 C   0  0  0  0  0  0  0  0  0  0  0  0
  -30.0119  -12.3453   20.6845 C   0  0  0  0  0  0  0  0  0  0  0  0
  -25.3920  -14.4635   14.5341 C   0  0  0  0  0  0  0  0  0  0  0  0
  -24.3817  -28.9780   19.7560 C   0  0  0  0  0  0  0  0  0  0  0  0
  -26.5891  -13.8568   13.8183 C   0  0  0  0  0  0  0  0  0  0  0  0
  -28.5322  -12.1160   20.9790 C   0  0  0  0  0  0  0  0  0  0  0  0
  -30.2826  -12.2756   19.1877 C   0  0  0  0  0  0  0  0  0  0  0  0
  -28.2181  -13.5812   15.7819 C   0  0  0  0  0  0  0  0  0  0  0  0
  -27.9870  -13.0689   18.6795 C   0  0  0  0  0  0  0  0  0  0  0  0
  -29.2453  -15.7513   15.7259 C   0  0  0  0  0  0  0  0  0  0  0  0
  -25.5420  -15.9661   14.6824 C   0  0  0  0  0  0  0  0  0  0  0  0
  -24.1856  -28.1482   21.0306 C   0  0  1  0  0  0  0  0  0  0  0  0
  -26.8464  -25.4381   21.1228 C   0  0  1  0  0  0  0  0  0  0  0  0
  -27.9188  -14.2593   14.4409 C   0  0  2  0  0  0  0  0  0  0  0  0
  -27.6639  -13.1057   20.1873 C   0  0  1  0  0  0  0  0  0  0  0  0
  -28.0567  -15.7562   14.7634 C   0  0  1  0  0  0  0  0  0  0  0  0
  -33.6066  -25.1491   17.3519 C   0  0  0  0  0  0  0  0  0  0  0  0
  -27.5250  -27.7680   17.1894 C   0  0  0  0  0  0  0  0  0  0  0  0
  -29.6996  -27.3205   16.0321 C   0  0  0  0  0  0  0  0  0  0  0  0
  -29.6553  -28.7000   18.1100 C   0  0  0  0  0  0  0  0  0  0  0  0
  -32.3736  -22.7059   19.9952 C   0  0  0  0  0  0  0  0  0  0  0  0
  -25.9831  -18.1498   16.8872 C   0  0  0  0  0  0  0  0  0  0  0  0
  -26.8727  -17.7737   15.7119 C   0  0  0  0  0  0  0  0  0  0  0  0
  -26.0338  -19.6299   17.2456 C   0  0  0  0  0  0  0  0  0  1  0  0
  -29.2738  -26.2058   18.2698 C   0  0  1  0  0  0  0  0  0  0  0  0
  -32.7351  -24.6782   18.5058 C   0  0  2  0  0  0  0  0  0  0  0  0
  -29.0228  -27.4771   17.4106 C   0  0  0  0  0  0  0  0  0  0  0  0
  -25.8665  -11.5679   20.6291 N   0  0  0  0  0  0  0  0  0  0  0  0
  -26.2578  -12.8346   20.4089 N   0  0  0  0  0  0  0  0  0  0  0  0
  -27.6630  -25.2994   19.9153 N   0  0  0  0  0  0  0  0  0  0  0  0
  -29.4293  -13.1968   18.4352 N   0  0  0  0  0  0  0  0  0  0  0  0
  -29.1895  -14.4691   16.4232 N   0  0  0  0  0  0  0  0  0  0  0  0
  -25.4530  -15.0544   20.2204 N   0  0  0  0  0  0  0  0  0  0  0  0
  -21.7136  -12.6558   21.0326 N   0  0  0  0  0  0  0  0  0  0  0  0
  -25.3558  -27.3375   21.2909 N   0  0  0  0  0  0  0  0  0  0  0  0
  -30.6829  -25.9211   18.5183 N   0  0  0  0  0  0  0  0  0  0  0  0
  -26.8071  -16.2869   15.4490 N   0  3  1  0  0  0  0  0  0  0  0  0
  -33.1347  -23.2867   18.8591 N   0  3  0  0  0  0  0  0  0  0  0  0
  -22.5229  -14.7631   20.6287 O   0  0  0  0  0  0  0  0  0  0  0  0
  -24.8160  -25.5332   19.9214 O   0  0  0  0  0  0  0  0  0  0  0  0
  -28.9361  -27.1913   20.4008 O   0  0  0  0  0  0  0  0  0  0  0  0
  -30.6843  -23.8023   17.5761 O   0  0  0  0  0  0  0  0  0  0  0  0
  -31.0773  -14.6296   17.7118 O   0  0  0  0  0  0  0  0  0  0  0  0
  -21.4383   -7.1454   21.8043 O   0  0  0  0  0  0  0  0  0  0  0  0
  -25.1844  -19.8581   18.3629 O   0  0  0  0  0  0  0  0  0  1  0  0
  -23.3016   -3.5485   25.5452 F   0  0  0  0  0  0  0  0  0  0  0  0
  -19.9601   -6.5567   24.0650 F   0  0  0  0  0  0  0  0  0  0  0  0
  1  2  1  0  0  0  0
  1  5  2  0  0  0  0
  2  6  2  0  0  0  0
  3  8  2  0  0  0  0
  3 15  1  0  0  0  0
  4  9  1  0  0  0  0
  4 15  2  0  0  0  0
  5 17  1  0  0  0  0
  6 19  1  0  0  0  0
  7 10  2  0  0  0  0
  7 18  1  0  0  0  0
  8 21  1  0  0  0  0
  9 21  2  0  0  0  0
 10 22  1  0  0  0  0
 11 12  2  0  0  0  0
 11 23  1  0  0  0  0
 12 24  1  0  0  0  0
 13 20  1  0  0  0  0
 13 22  2  0  0  0  0
 14 24  2  0  0  0  0
 14 25  1  0  0  0  0
 15 26  1  0  0  0  0
 16 26  1  0  0  0  0
 16 27  2  0  0  0  0
 16 28  1  0  0  0  0
 17 19  2  0  0  0  0
 17 33  1  0  0  0  0
 18 20  2  0  0  0  0
 18 34  1  0  0  0  0
 19 47  1  0  0  0  0
 20 35  1  0  0  0  0
 21 79  1  0  0  0  0
 22 80  1  0  0  0  0
 23 25  2  0  0  0  0
 23 79  1  0  0  0  0
 24 81  1  0  0  0  0
 25 82  1  0  0  0  0
 26 63  2  0  0  0  0
 27 64  1  0  0  0  0
 27 68  1  0  0  0  0
 28 69  1  0  0  0  0
 28 74  2  0  0  0  0
 29 48  1  0  0  0  0
 29 70  1  0  0  0  0
 29 75  2  0  0  0  0
 30 60  1  0  0  0  0
 30 65  1  0  0  0  0
 30 76  2  0  0  0  0
 31 61  1  0  0  0  0
 31 71  1  0  0  0  0
 31 77  2  0  0  0  0
 32 66  1  0  0  0  0
 32 67  1  0  0  0  0
 32 78  2  0  0  0  0
 33 36  1  0  0  0  0
 34 48  1  0  0  0  0
 35 65  1  0  0  0  0
 36 39  1  0  0  0  0
 37 41  1  0  0  0  0
 37 42  1  0  0  0  0
 38 40  1  0  0  0  0
 38 46  1  0  0  0  0
 39 47  1  0  0  0  0
 40 49  1  0  0  0  0
 41 50  1  0  0  0  0
 42 66  1  0  0  0  0
 43 49  1  0  0  0  0
 43 67  1  0  0  0  0
 44 50  1  0  0  0  0
 44 66  1  0  0  0  0
 45 51  1  0  0  0  0
 45 67  1  0  0  0  0
 46 72  1  0  0  0  0
 47 70  1  0  0  0  0
 48 65  1  0  0  0  0
 49 51  1  0  0  0  0
 50 64  1  0  0  0  0
 51 72  1  0  0  0  0
 52 61  1  0  0  0  0
 53 62  1  0  0  0  0
 54 62  1  0  0  0  0
 55 62  1  0  0  0  0
 56 73  1  0  0  0  0
 57 58  1  0  0  0  0
 57 59  1  0  0  0  0
 58 72  1  0  0  0  0
 59 80  1  0  0  0  0
 60 62  1  0  0  0  0
 60 71  1  0  0  0  0
 61 73  1  0  0  0  0
 63 64  1  0  0  0  0
M  CHG  2  72   1  73   1
M  ISO  4  32 100  59 101  67 100  80 101
M  END
> <Batch ID>
0006

> <Smiles>
CNC(C)C(=O)NC(C(=O)N1Cc2cc([101O:1][101CH2:1]CCN3CCCC4C[100N:0]([100C:0](=O)N5CCCC(n6nc(-c7ccc(Oc8ccc(F)cc8F)cc7)c(C(N)=O)c6N)C5)CC43)ccc2CC1C(=O)NC1CCCc2ccccc21)C(C)(C)C

> <Shape>
0.248

> <Color>
0.208

> <Negative vol penalty>
0.000

$$$$

  -OEChem-04042320293D

 80 88  0     1  0  0  0  0  0999 V2000
  -40.5188  -26.0778   18.4892 C   0  0  0  0  0  0  0  0  0  0  0  0
  -39.7448  -25.0902   19.0900 C   0  0  0  0  0  0  0  0  0  0  0  0
  -23.0777   -9.8645   19.9438 C   0  0  0  0  0  0  0  0  0  0  0  0
  -23.8341   -9.8783   22.2382 C   0  0  0  0  0  0  0  0  0  0  0  0
  -40.3499  -27.4127   18.8544 C   0  0  0  0  0  0  0  0  0  0  0  0
  -38.8022  -25.4369   20.0573 C   0  0  0  0  0  0  0  0  0  0  0  0
  -33.3755  -22.7709   21.0314 C   0  0  0  0  0  0  0  0  0  0  0  0
  -30.4582  -18.3548   24.0317 C   0  0  0  0  0  0  0  0  0  0  0  0
  -29.8725  -17.4663   23.1299 C   0  0  0  0  0  0  0  0  0  0  0  0
  -22.3339   -8.7117   20.1959 C   0  0  0  0  0  0  0  0  0  0  0  0
  -23.0903   -8.7256   22.4904 C   0  0  0  0  0  0  0  0  0  0  0  0
  -32.9525  -21.8137   21.9526 C   0  0  0  0  0  0  0  0  0  0  0  0
  -19.8616   -7.9281   23.0903 C   0  0  0  0  0  0  0  0  0  0  0  0
  -19.1029   -7.8911   24.2602 C   0  0  0  0  0  0  0  0  0  0  0  0
  -32.1449  -23.5692   23.3967 C   0  0  0  0  0  0  0  0  0  0  0  0
  -32.0581  -16.6188   22.5453 C   0  0  0  0  0  0  0  0  0  0  0  0
  -20.3441   -5.9563   25.0040 C   0  0  0  0  0  0  0  0  0  0  0  0
  -23.8278  -10.4478   20.9649 C   0  0  0  0  0  0  0  0  0  0  0  0
  -24.1687  -12.9727   20.8382 C   0  0  0  0  0  0  0  0  0  0  0  0
  -39.3980  -27.7770   19.8197 C   0  0  0  0  0  0  0  0  0  0  0  0
  -33.1958  -24.1371   21.2913 C   0  0  0  0  0  0  0  0  0  0  0  0
  -38.6213  -26.7778   20.4367 C   0  0  0  0  0  0  0  0  0  0  0  0
  -32.5641  -24.5416   22.4760 C   0  0  0  0  0  0  0  0  0  0  0  0
  -31.8439  -18.3753   24.1902 C   0  0  0  0  0  0  0  0  0  0  0  0
  -30.6724  -16.5983   22.3867 C   0  0  0  0  0  0  0  0  0  0  0  0
  -22.3402   -8.1423   21.4692 C   0  0  0  0  0  0  0  0  0  0  0  0
  -32.3398  -22.2129   23.1368 C   0  0  0  0  0  0  0  0  0  0  0  0
  -20.8615   -6.9791   22.8772 C   0  0  0  0  0  0  0  0  0  0  0  0
  -19.3442   -6.9053   25.2171 C   0  0  0  0  0  0  0  0  0  0  0  0
  -32.6439  -17.5073   23.4471 C   0  0  0  0  0  0  0  0  0  0  0  0
  -21.1027   -5.9932   23.8341 C   0  0  0  0  0  0  0  0  0  0  0  0
  -24.5968  -11.6382   20.7050 C   0  0  0  0  0  0  0  0  0  0  0  0
  -25.2611  -13.7216   20.4745 C   0  0  0  0  0  0  0  0  0  0  0  0
  -22.8974  -13.4892   21.2538 C   0  0  0  0  0  0  0  0  0  0  0  0
  -35.1400  -26.6239   21.6652 C   0  0  0  0  0  0  0  0  0  0  0  0
  -32.3581  -28.2903   21.7461 C   0  0  0  0  0  0  0  0  0  0  0  0
  -28.9974  -28.2909   22.3399 C   0  0  0  0  0  0  0  0  0  0  0  0
  -30.7266  -14.7701   20.6544 C   0  0  0  0  0  0  0  0  0  0  0  0
  -39.2845  -29.2278   20.2160 C   0  0  0  0  0  0  0  0  0  0  0  0
  -33.6335  -25.1562   20.2752 C   0  0  0  0  0  0  0  0  0  0  0  0
  -32.3295  -25.9951   22.7932 C   0  0  0  0  0  0  0  0  0  0  0  0
  -38.0025  -29.5524   20.9786 C   0  0  0  0  0  0  0  0  0  0  0  0
  -29.6168  -12.3491   18.2913 C   0  0  0  0  0  0  0  0  0  0  0  0
  -37.7543  -28.5168   22.0707 C   0  0  0  0  0  0  0  0  0  0  0  0
  -28.1766  -12.0581   18.7196 C   0  0  0  0  0  0  0  0  0  0  0  0
  -30.5300  -12.5817   19.4937 C   0  0  0  0  0  0  0  0  0  0  0  0
  -28.6206  -13.3093   20.8700 C   0  0  0  0  0  0  0  0  0  0  0  0
  -37.5711  -27.1169   21.4722 C   0  0  1  0  0  0  0  0  0  0  0  0
  -33.8637  -26.5391   20.8768 C   0  0  1  0  0  0  0  0  0  0  0  0
  -27.6497  -13.1322   19.6912 C   0  0  2  0  0  0  0  0  0  0  0  0
  -27.0006  -29.8108   22.3591 C   0  0  0  0  0  0  0  0  0  0  0  0
  -33.2959  -29.4850   24.3924 C   0  0  0  0  0  0  0  0  0  0  0  0
  -30.9392  -30.2150   24.8180 C   0  0  0  0  0  0  0  0  0  0  0  0
  -32.1841  -31.1097   22.8502 C   0  0  0  0  0  0  0  0  0  0  0  0
  -27.6304  -26.7124   20.2427 C   0  0  0  0  0  0  0  0  0  0  0  0
  -32.4719  -19.3345   25.1661 C   0  0  0  0  0  0  0  0  0  0  0  0
  -31.3933  -28.7084   22.8294 C   0  0  1  0  0  0  0  0  0  0  0  0
  -27.8325  -28.8397   21.5359 C   0  0  2  0  0  0  0  0  0  0  0  0
  -31.9591  -29.8521   23.7177 C   0  0  0  0  0  0  0  0  0  0  0  0
  -25.8623  -11.5418   20.2888 N   0  0  0  0  0  0  0  0  0  0  0  0
  -26.2388  -12.8251   20.1574 N   0  0  0  0  0  0  0  0  0  0  0  0
  -32.7809  -26.9538   21.7711 N   0  0  0  0  0  0  0  0  0  0  0  0
  -29.9692  -13.6148   20.3673 N   0  0  0  0  0  0  0  0  0  0  0  0
  -25.4711  -15.0530   20.3980 N   0  0  0  0  0  0  0  0  0  0  0  0
  -21.8854  -12.5805   21.5921 N   0  0  0  0  0  0  0  0  0  0  0  0
  -30.0776  -15.6972   21.4692 N   0  0  0  0  0  0  0  0  0  0  0  0
  -36.2439  -26.9762   20.9125 N   0  0  0  0  0  0  0  0  0  0  0  0
  -30.1417  -29.0381   22.1563 N   0  0  0  0  0  0  0  0  0  0  0  0
  -33.0640  -20.4820   24.4935 N   0  0  0  0  0  0  0  0  0  1  0  0
  -26.9474  -27.7297   21.0827 N   0  3  0  0  0  0  0  0  0  0  0  0
  -22.6605  -14.7198   21.3073 O   0  0  0  0  0  0  0  0  0  0  0  0
  -35.1240  -26.3887   22.8678 O   0  0  0  0  0  0  0  0  0  0  0  0
  -32.7175  -29.1173   20.9043 O   0  0  0  0  0  0  0  0  0  0  0  0
  -28.9008  -27.3009   23.0617 O   0  0  0  0  0  0  0  0  0  0  0  0
  -31.8563  -14.9380   20.1880 O   0  0  0  0  0  0  0  0  0  0  0  0
  -21.6144   -7.0176   21.7156 O   0  0  0  0  0  0  0  0  0  0  0  0
  -31.9266  -21.2807   24.0380 O   0  0  0  0  0  0  0  0  0  1  0  0
  -18.6166   -6.8709   26.3411 F   0  0  0  0  0  0  0  0  0  0  0  0
  -33.9762  -17.5195   23.5926 F   0  0  0  0  0  0  0  0  0  0  0  0
  -22.0628   -5.0796   23.6355 F   0  0  0  0  0  0  0  0  0  0  0  0
  1  2  1  0  0  0  0
  1  5  2  0  0  0  0
  2  6  2  0  0  0  0
  3 10  2  0  0  0  0
  3 18  1  0  0  0  0
  4 11  1  0  0  0  0
  4 18  2  0  0  0  0
  5 20  1  0  0  0  0
  6 22  1  0  0  0  0
  7 12  2  0  0  0  0
  7 21  1  0  0  0  0
  8  9  2  0  0  0  0
  8 24  1  0  0  0  0
  9 25  1  0  0  0  0
 10 26  1  0  0  0  0
 11 26  2  0  0  0  0
 12 27  1  0  0  0  0
 13 14  2  0  0  0  0
 13 28  1  0  0  0  0
 14 29  1  0  0  0  0
 15 23  1  0  0  0  0
 15 27  2  0  0  0  0
 16 25  2  0  0  0  0
 16 30  1  0  0  0  0
 17 29  2  0  0  0  0
 17 31  1  0  0  0  0
 18 32  1  0  0  0  0
 19 32  1  0  0  0  0
 19 33  2  0  0  0  0
 19 34  1  0  0  0  0
 20 22  2  0  0  0  0
 20 39  1  0  0  0  0
 21 23  2  0  0  0  0
 21 40  1  0  0  0  0
 22 48  1  0  0  0  0
 23 41  1  0  0  0  0
 24 30  2  0  0  0  0
 24 56  1  0  0  0  0
 25 66  1  0  0  0  0
 26 76  1  0  0  0  0
 27 77  1  0  0  0  0
 28 31  2  0  0  0  0
 28 76  1  0  0  0  0
 29 78  1  0  0  0  0
 30 79  1  0  0  0  0
 31 80  1  0  0  0  0
 32 60  2  0  0  0  0
 33 61  1  0  0  0  0
 33 64  1  0  0  0  0
 34 65  1  0  0  0  0
 34 71  2  0  0  0  0
 35 49  1  0  0  0  0
 35 67  1  0  0  0  0
 35 72  2  0  0  0  0
 36 57  1  0  0  0  0
 36 62  1  0  0  0  0
 36 73  2  0  0  0  0
 37 58  1  0  0  0  0
 37 68  1  0  0  0  0
 37 74  2  0  0  0  0
 38 63  1  0  0  0  0
 38 66  1  0  0  0  0
 38 75  2  0  0  0  0
 39 42  1  0  0  0  0
 40 49  1  0  0  0  0
 41 62  1  0  0  0  0
 42 44  1  0  0  0  0
 43 45  1  0  0  0  0
 43 46  1  0  0  0  0
 44 48  1  0  0  0  0
 45 50  1  0  0  0  0
 46 63  1  0  0  0  0
 47 50  1  0  0  0  0
 47 63  1  0  0  0  0
 48 67  1  0  0  0  0
 49 62  1  0  0  0  0
 50 61  1  0  0  0  0
 51 58  1  0  0  0  0
 52 59  1  0  0  0  0
 53 59  1  0  0  0  0
 54 59  1  0  0  0  0
 55 70  1  0  0  0  0
 56 69  1  0  0  0  0
 57 59  1  0  0  0  0
 57 68  1  0  0  0  0
 58 70  1  0  0  0  0
 60 61  1  0  0  0  0
 69 77  1  0  0  0  0
M  CHG  1  70   1
M  ISO  4  38 100  66 100  69 101  77 101
M  END
> <Batch ID>
0006

> <Smiles>
CNC(C)C(=O)NC(C(=O)N1Cc2cc([101O:1][101NH:1]Cc3ccc([100NH:0][100C:0](=O)N4CCCC(n5nc(-c6ccc(Oc7ccc(F)cc7F)cc6)c(C(N)=O)c5N)C4)cc3F)ccc2CC1C(=O)NC1CCCc2ccccc21)C(C)(C)C

> <Shape>
0.197

> <Color>
0.205

> <Negative vol penalty>
0.000

$$$$

  -OEChem-04042320293D

 90100  0     1  0  0  0  0  0999 V2000
  -20.4173  -28.5510   14.9047 C   0  0  0  0  0  0  0  0  0  0  0  0
  -21.7183  -28.3530   15.3560 C   0  0  0  0  0  0  0  0  0  0  0  0
  -30.6898   -9.7100   19.4341 C   0  0  0  0  0  0  0  0  0  0  0  0
  -30.3978   -8.7175   21.6174 C   0  0  0  0  0  0  0  0  0  0  0  0
  -19.7738  -29.7639   15.1467 C   0  0  0  0  0  0  0  0  0  0  0  0
  -22.3769  -29.3683   16.0487 C   0  0  0  0  0  0  0  0  0  0  0  0
  -30.8931  -23.1262   18.1946 C   0  0  0  0  0  0  0  0  0  0  0  0
  -30.4552  -21.9205   18.7424 C   0  0  0  0  0  0  0  0  0  0  0  0
  -24.8116  -27.6606   20.1476 C   0  0  0  0  0  0  0  0  0  0  0  0
  -31.3696   -8.5696   19.0065 C   0  0  0  0  0  0  0  0  0  0  0  0
  -31.0776   -7.5770   21.1898 C   0  0  0  0  0  0  0  0  0  0  0  0
  -26.0322  -27.0191   19.9419 C   0  0  0  0  0  0  0  0  0  0  0  0
  -34.4676   -7.2541   19.3170 C   0  0  0  0  0  0  0  0  0  0  0  0
  -35.6447   -7.4361   18.5912 C   0  0  0  0  0  0  0  0  0  0  0  0
  -28.6579  -23.5746   17.3947 C   0  0  0  0  0  0  0  0  0  0  0  0
  -27.1926  -29.0442   20.5516 C   0  0  0  0  0  0  0  0  0  0  0  0
  -34.6765   -6.2487   16.7231 C   0  0  0  0  0  0  0  0  0  0  0  0
  -30.2039   -9.7840   20.7395 C   0  0  0  0  0  0  0  0  0  0  0  0
  -28.1174  -11.2049   21.1073 C   0  0  0  0  0  0  0  0  0  0  0  0
  -29.9944  -23.9533   17.5207 C   0  0  0  0  0  0  0  0  0  0  0  0
  -20.4214  -30.7911   15.8511 C   0  0  0  0  0  0  0  0  0  0  0  0
  -24.7722  -29.0043   20.5470 C   0  0  0  0  0  0  0  0  0  0  0  0
  -21.7419  -30.5966   16.2992 C   0  0  0  0  0  0  0  0  0  0  0  0
  -29.1186  -21.5419   18.6164 C   0  0  0  0  0  0  0  0  0  0  0  0
  -25.9702  -29.6998   20.7641 C   0  0  0  0  0  0  0  0  0  0  0  0
  -28.2199  -22.3689   17.9425 C   0  0  0  0  0  0  0  0  0  0  0  0
  -31.5635   -7.5031   19.8844 C   0  0  0  0  0  0  0  0  0  0  0  0
  -27.2229  -27.7117   20.1411 C   0  0  0  0  0  0  0  0  0  0  0  0
  -33.3949   -6.5692   18.7459 C   0  0  0  0  0  0  0  0  0  0  0  0
  -35.7492   -6.9335   17.2943 C   0  0  0  0  0  0  0  0  0  0  0  0
  -33.4994   -6.0666   17.4490 C   0  0  0  0  0  0  0  0  0  0  0  0
  -29.5020  -10.9620   21.1819 C   0  0  0  0  0  0  0  0  0  0  0  0
  -27.9579  -12.4543   21.6549 C   0  0  0  0  0  0  0  0  0  0  0  0
  -27.0690  -10.3751   20.5895 C   0  0  0  0  0  0  0  0  0  0  0  0
  -23.6280  -31.6872   19.2835 C   0  0  0  0  0  0  0  0  0  0  0  0
  -24.4889  -32.9432   22.1477 C   0  0  0  0  0  0  0  0  0  0  0  0
  -26.4626  -32.7406   24.9245 C   0  0  0  0  0  0  0  0  0  0  0  0
  -29.4375  -17.6844   22.3462 C   0  0  0  0  0  0  0  0  0  0  0  0
  -19.7021  -32.1021   16.0474 C   0  0  0  0  0  0  0  0  0  0  0  0
  -23.4477  -29.6741   20.7904 C   0  0  0  0  0  0  0  0  0  0  0  0
  -25.9824  -31.1376   21.2125 C   0  0  0  0  0  0  0  0  0  0  0  0
  -20.3353  -32.9904   17.1152 C   0  0  0  0  0  0  0  0  0  0  0  0
  -31.1832  -15.3686   24.2270 C   0  0  0  0  0  0  0  0  0  0  0  0
  -30.3768  -26.8868   15.2004 C   0  0  0  0  0  0  0  0  0  0  0  0
  -21.8479  -33.0539   16.9286 C   0  0  0  0  0  0  0  0  0  0  0  0
  -30.2217  -25.3958   15.4261 C   0  0  0  0  0  0  0  0  0  0  0  0
  -30.7938  -14.0277   23.6052 C   0  0  0  0  0  0  0  0  0  0  0  0
  -29.7772  -19.1607   19.1803 C   0  0  0  0  0  0  0  0  0  0  0  0
  -28.1330  -20.4003   20.6532 C   0  0  0  0  0  0  0  0  0  0  0  0
  -31.4108  -16.4237   23.1506 C   0  0  0  0  0  0  0  0  0  0  0  0
  -29.3245  -17.8450   19.8198 C   0  0  0  0  0  0  0  0  0  0  0  0
  -27.7020  -19.0580   21.2371 C   0  0  0  0  0  0  0  0  0  0  0  0
  -29.8387  -15.2900   21.6139 C   0  0  0  0  0  0  0  0  0  0  0  0
  -29.6429  -27.5078   16.3733 C   0  0  0  0  0  0  0  0  0  0  0  0
  -28.6662  -20.2254   19.2196 C   0  0  0  0  0  0  0  0  0  0  0  0
  -22.4807  -31.6649   17.0758 C   0  0  1  0  0  0  0  0  0  0  0  0
  -30.4682  -25.2565   16.9281 C   0  0  1  0  0  0  0  0  0  0  0  0
  -23.5216  -31.1952   20.6992 C   0  0  1  0  0  0  0  0  0  0  0  0
  -29.5891  -14.1852   22.6606 C   0  0  1  0  0  0  0  0  0  0  0  0
  -26.7844  -21.9841   17.7949 C   0  0  0  0  0  0  0  0  0  0  0  0
  -26.9658  -33.9324   27.0748 C   0  0  0  0  0  0  0  0  0  0  0  0
  -26.0717  -35.0487   20.6075 C   0  0  0  0  0  0  0  0  0  0  0  0
  -27.2808  -35.5926   22.7313 C   0  0  0  0  0  0  0  0  0  0  0  0
  -24.8133  -35.9272   22.5822 C   0  0  0  0  0  0  0  0  0  0  0  0
  -25.6375  -30.4065   26.5462 C   0  0  0  0  0  0  0  0  0  0  0  0
  -30.4879  -27.0598   18.7134 C   0  0  0  0  0  0  0  0  0  0  0  0
  -29.5092  -27.8971   19.5129 C   0  0  0  0  0  0  0  0  0  1  0  0
  -25.7405  -33.5783   22.7038 C   0  0  1  0  0  0  0  0  0  0  0  0
  -26.1356  -32.8499   26.4029 C   0  0  2  0  0  0  0  0  0  0  0  0
  -25.9767  -35.0102   22.1459 C   0  0  0  0  0  0  0  0  0  0  0  0
  -30.1743  -11.9759   21.7333 N   0  0  0  0  0  0  0  0  0  0  0  0
  -29.2080  -12.8680   22.0101 N   0  0  0  0  0  0  0  0  0  0  0  0
  -24.6618  -31.7506   21.4311 N   0  0  0  0  0  0  0  0  0  0  0  0
  -30.2466  -16.5406   22.2727 N   0  0  0  0  0  0  0  0  0  0  0  0
  -28.7878  -18.0805   21.1674 N   0  0  0  0  0  0  0  0  0  0  0  0
  -26.8716  -13.2286   21.8624 N   0  0  0  0  0  0  0  0  0  0  0  0
  -27.4077   -9.1208   20.0638 N   0  0  0  0  0  0  0  0  0  0  0  0
  -22.5784  -31.2994   18.4727 N   0  0  0  0  0  0  0  0  0  0  0  0
  -25.6194  -33.5154   24.1563 N   0  0  0  0  0  0  0  0  0  0  0  0
  -29.7943  -26.5067   17.5059 N   0  3  1  0  0  0  0  0  0  0  0  0
  -26.4061  -31.5555   27.0902 N   0  3  0  0  0  0  0  0  0  0  0  0
  -25.8696  -10.7421   20.5778 O   0  0  0  0  0  0  0  0  0  0  0  0
  -24.5904  -32.3695   18.9517 O   0  0  0  0  0  0  0  0  0  0  0  0
  -23.3973  -33.4816   22.3480 O   0  0  0  0  0  0  0  0  0  0  0  0
  -27.3771  -32.0411   24.4945 O   0  0  0  0  0  0  0  0  0  0  0  0
  -29.3023  -18.3147   23.4024 O   0  0  0  0  0  0  0  0  0  0  0  0
  -32.2266   -6.3900   19.4675 O   0  0  0  0  0  0  0  0  0  0  0  0
  -28.4242  -27.0835   19.9390 O   0  0  0  0  0  0  0  0  0  1  0  0
  -36.8791   -7.1098   16.5968 F   0  0  0  0  0  0  0  0  0  0  0  0
  -32.4719   -5.4089   16.8945 F   0  0  0  0  0  0  0  0  0  0  0  0
  1  2  1  0  0  0  0
  1  5  2  0  0  0  0
  2  6  2  0  0  0  0
  3 10  2  0  0  0  0
  3 18  1  0  0  0  0
  4 11  1  0  0  0  0
  4 18  2  0  0  0  0
  5 21  1  0  0  0  0
  6 23  1  0  0  0  0
  7  8  2  0  0  0  0
  7 20  1  0  0  0  0
  8 24  1  0  0  0  0
  9 12  2  0  0  0  0
  9 22  1  0  0  0  0
 10 27  1  0  0  0  0
 11 27  2  0  0  0  0
 12 28  1  0  0  0  0
 13 14  2  0  0  0  0
 13 29  1  0  0  0  0
 14 30  1  0  0  0  0
 15 20  2  0  0  0  0
 15 26  1  0  0  0  0
 16 25  1  0  0  0  0
 16 28  2  0  0  0  0
 17 30  2  0  0  0  0
 17 31  1  0  0  0  0
 18 32  1  0  0  0  0
 19 32  1  0  0  0  0
 19 33  2  0  0  0  0
 19 34  1  0  0  0  0
 20 57  1  0  0  0  0
 21 23  2  0  0  0  0
 21 39  1  0  0  0  0
 22 25  2  0  0  0  0
 22 40  1  0  0  0  0
 23 56  1  0  0  0  0
 24 26  2  0  0  0  0
 24 55  1  0  0  0  0
 25 41  1  0  0  0  0
 26 60  1  0  0  0  0
 27 87  1  0  0  0  0
 28 88  1  0  0  0  0
 29 31  2  0  0  0  0
 29 87  1  0  0  0  0
 30 89  1  0  0  0  0
 31 90  1  0  0  0  0
 32 71  2  0  0  0  0
 33 72  1  0  0  0  0
 33 76  1  0  0  0  0
 34 77  1  0  0  0  0
 34 82  2  0  0  0  0
 35 58  1  0  0  0  0
 35 78  1  0  0  0  0
 35 83  2  0  0  0  0
 36 68  1  0  0  0  0
 36 73  1  0  0  0  0
 36 84  2  0  0  0  0
 37 69  1  0  0  0  0
 37 79  1  0  0  0  0
 37 85  2  0  0  0  0
 38 74  1  0  0  0  0
 38 75  1  0  0  0  0
 38 86  2  0  0  0  0
 39 42  1  0  0  0  0
 40 58  1  0  0  0  0
 41 73  1  0  0  0  0
 42 45  1  0  0  0  0
 43 47  1  0  0  0  0
 43 50  1  0  0  0  0
 44 46  1  0  0  0  0
 44 54  1  0  0  0  0
 45 56  1  0  0  0  0
 46 57  1  0  0  0  0
 47 59  1  0  0  0  0
 48 51  1  0  0  0  0
 48 55  1  0  0  0  0
 49 52  1  0  0  0  0
 49 55  1  0  0  0  0
 50 74  1  0  0  0  0
 51 75  1  0  0  0  0
 52 75  1  0  0  0  0
 53 59  1  0  0  0  0
 53 74  1  0  0  0  0
 54 80  1  0  0  0  0
 56 78  1  0  0  0  0
 57 80  1  0  0  0  0
 58 73  1  0  0  0  0
 59 72  1  0  0  0  0
 61 69  1  0  0  0  0
 62 70  1  0  0  0  0
 63 70  1  0  0  0  0
 64 70  1  0  0  0  0
 65 81  1  0  0  0  0
 66 67  1  0  0  0  0
 66 80  1  0  0  0  0
 67 88  1  0  0  0  0
 68 70  1  0  0  0  0
 68 79  1  0  0  0  0
 69 81  1  0  0  0  0
 71 72  1  0  0  0  0
M  CHG  2  80   1  81   1
M  ISO  4  38 100  67 101  75 100  88 101
M  END
> <Batch ID>
0006

> <Smiles>
CNC(C)C(=O)NC(C(=O)N1Cc2cc([101O:1][101CH2:1]CN3CCCC3c3ccc(C4CC[100N:0]([100C:0](=O)N5CCCC(n6nc(-c7ccc(Oc8ccc(F)cc8F)cc7)c(C(N)=O)c6N)C5)CC4)c(C)c3)ccc2CC1C(=O)NC1CCCc2ccccc21)C(C)(C)C

> <Shape>
0.245

> <Color>
0.077

> <Negative vol penalty>
0.000

$$$$

  -OEChem-04042320293D

 85 93  0     1  0  0  0  0  0999 V2000
  -33.2164  -26.1254   18.9538 C   0  0  0  0  0  0  0  0  0  0  0  0
  -32.0701  -25.5387   19.4802 C   0  0  0  0  0  0  0  0  0  0  0  0
  -24.5589   -8.7592   21.3841 C   0  0  0  0  0  0  0  0  0  0  0  0
  -23.4120  -10.7528   22.1238 C   0  0  0  0  0  0  0  0  0  0  0  0
  -33.4623  -27.4819   19.1620 C   0  0  0  0  0  0  0  0  0  0  0  0
  -31.1694  -26.3080   20.2161 C   0  0  0  0  0  0  0  0  0  0  0  0
  -26.3531  -25.4289   18.9217 C   0  0  0  0  0  0  0  0  0  0  0  0
  -29.4288  -18.0723   22.2088 C   0  0  0  0  0  0  0  0  0  0  0  0
  -23.9353   -8.0259   22.3936 C   0  0  0  0  0  0  0  0  0  0  0  0
  -22.7884  -10.0195   23.1332 C   0  0  0  0  0  0  0  0  0  0  0  0
  -25.7607  -24.2701   19.4218 C   0  0  0  0  0  0  0  0  0  0  0  0
  -29.3447  -19.2048   23.0188 C   0  0  0  0  0  0  0  0  0  0  0  0
  -20.9091   -6.6227   22.9466 C   0  0  0  0  0  0  0  0  0  0  0  0
  -20.3699   -5.3818   22.6078 C   0  0  0  0  0  0  0  0  0  0  0  0
  -24.6746  -25.5729   21.1371 C   0  0  0  0  0  0  0  0  0  0  0  0
  -27.0219  -18.0413   22.0020 C   0  0  0  0  0  0  0  0  0  0  0  0
  -21.8271   -4.3111   24.2101 C   0  0  0  0  0  0  0  0  0  0  0  0
  -24.2973  -10.1227   21.2493 C   0  0  0  0  0  0  0  0  0  0  0  0
  -24.4714  -11.0963   18.8978 C   0  0  0  0  0  0  0  0  0  0  0  0
  -32.5594  -28.2704   19.8925 C   0  0  0  0  0  0  0  0  0  0  0  0
  -26.1189  -26.6689   19.5332 C   0  0  0  0  0  0  0  0  0  0  0  0
  -31.4041  -27.6761   20.4353 C   0  0  0  0  0  0  0  0  0  0  0  0
  -25.2631  -26.7463   20.6413 C   0  0  0  0  0  0  0  0  0  0  0  0
  -26.9377  -19.1738   22.8121 C   0  0  0  0  0  0  0  0  0  0  0  0
  -28.2674  -17.4906   21.7004 C   0  0  0  0  0  0  0  0  0  0  0  0
  -23.0500   -8.6560   23.2681 C   0  0  0  0  0  0  0  0  0  0  0  0
  -24.9236  -24.3416   20.5314 C   0  0  0  0  0  0  0  0  0  0  0  0
  -28.0991  -19.7555   23.3204 C   0  0  0  0  0  0  0  0  0  0  0  0
  -21.9074   -6.7079   23.9172 C   0  0  0  0  0  0  0  0  0  0  0  0
  -20.8288   -4.2259   23.2395 C   0  0  0  0  0  0  0  0  0  0  0  0
  -22.3663   -5.5521   24.5489 C   0  0  0  0  0  0  0  0  0  0  0  0
  -24.9417  -10.8808   20.2071 C   0  0  0  0  0  0  0  0  0  0  0  0
  -25.4393  -11.8726   18.3087 C   0  0  0  0  0  0  0  0  0  0  0  0
  -23.2673  -10.6359   18.2702 C   0  0  0  0  0  0  0  0  0  0  0  0
  -27.9383  -28.8325   20.9866 C   0  0  0  0  0  0  0  0  0  0  0  0
  -25.1875  -30.5512   21.0225 C   0  0  0  0  0  0  0  0  0  0  0  0
  -21.7758  -30.5606   20.9379 C   0  0  0  0  0  0  0  0  0  0  0  0
  -29.5099  -15.6689   20.4822 C   0  0  0  0  0  0  0  0  0  0  0  0
  -32.8916  -29.7220   20.1314 C   0  0  0  0  0  0  0  0  0  0  0  0
  -26.7442  -27.9135   18.9653 C   0  0  0  0  0  0  0  0  0  0  0  0
  -24.9632  -28.0561   21.3217 C   0  0  0  0  0  0  0  0  0  0  0  0
  -31.6995  -30.5499   20.6043 C   0  0  0  0  0  0  0  0  0  0  0  0
  -30.1375  -12.7819   18.4951 C   0  0  0  0  0  0  0  0  0  0  0  0
  -30.9506  -29.8211   21.7155 C   0  0  0  0  0  0  0  0  0  0  0  0
  -28.8313  -11.9893   18.5845 C   0  0  0  0  0  0  0  0  0  0  0  0
  -30.4706  -13.4767   19.8142 C   0  0  0  0  0  0  0  0  0  0  0  0
  -28.0914  -13.5236   20.4515 C   0  0  0  0  0  0  0  0  0  0  0  0
  -30.3909  -28.4829   21.2179 C   0  0  1  0  0  0  0  0  0  0  0  0
  -26.8440  -29.0484   19.9799 C   0  0  1  0  0  0  0  0  0  0  0  0
  -27.6805  -12.8590   19.1274 C   0  0  2  0  0  0  0  0  0  0  0  0
  -19.8075  -32.1148   21.0228 C   0  0  0  0  0  0  0  0  0  0  0  0
  -25.5768  -30.8760   24.0313 C   0  0  0  0  0  0  0  0  0  0  0  0
  -23.1789  -31.5771   24.1955 C   0  0  0  0  0  0  0  0  0  0  0  0
  -24.7845  -32.9351   22.8537 C   0  0  0  0  0  0  0  0  0  0  0  0
  -20.8590  -29.7330   18.2484 C   0  0  0  0  0  0  0  0  0  0  0  0
  -25.5898  -19.7529   23.1263 C   0  0  0  0  0  0  0  0  0  0  0  0
  -24.0928  -21.7402   22.9070 C   0  0  0  0  0  0  0  0  0  0  0  0
  -24.0738  -23.1766   22.4226 C   0  0  0  0  0  0  0  0  0  1  0  0
  -29.1408  -21.7610   24.0612 C   0  0  0  0  0  0  0  0  0  0  0  0
  -28.6467  -23.1585   24.3606 C   0  0  0  0  0  0  0  0  0  0  0  0
  -24.0253  -30.6889   21.9761 C   0  0  1  0  0  0  0  0  0  0  0  0
  -20.7906  -31.3805   20.1245 C   0  0  2  0  0  0  0  0  0  0  0  0
  -24.3984  -31.4942   23.2527 C   0  0  0  0  0  0  0  0  0  0  0  0
  -26.1170  -11.4724   20.4367 N   0  0  0  0  0  0  0  0  0  0  0  0
  -26.3934  -12.0671   19.2637 N   0  0  0  0  0  0  0  0  0  0  0  0
  -25.6035  -29.2440   20.7330 N   0  0  0  0  0  0  0  0  0  0  0  0
  -29.3361  -14.2857   20.2649 N   0  0  0  0  0  0  0  0  0  0  0  0
  -25.5588  -12.4010   17.0722 N   0  0  0  0  0  0  0  0  0  0  0  0
  -22.3826   -9.8481   19.0192 N   0  0  0  0  0  0  0  0  0  0  0  0
  -28.3533  -16.3403   20.8776 N   0  0  0  0  0  0  0  0  0  0  0  0
  -29.1959  -28.6965   20.4301 N   0  0  0  0  0  0  0  0  0  0  0  0
  -22.9301  -31.2662   21.2042 N   0  0  0  0  0  0  0  0  0  0  0  0
  -20.0182  -30.4986   19.2044 N   0  3  0  0  0  0  0  0  0  0  0  0
  -25.4370  -21.1587   22.6637 N   0  3  0  0  0  0  0  0  0  0  0  0
  -22.9922  -10.9011   17.0754 O   0  0  0  0  0  0  0  0  0  0  0  0
  -27.6625  -28.7938   22.1799 O   0  0  0  0  0  0  0  0  0  0  0  0
  -25.7025  -31.5659   20.5464 O   0  0  0  0  0  0  0  0  0  0  0  0
  -21.5430  -29.4106   21.3039 O   0  0  0  0  0  0  0  0  0  0  0  0
  -30.5977  -16.2224   20.3024 O   0  0  0  0  0  0  0  0  0  0  0  0
  -22.4411   -7.9407   24.2531 O   0  0  0  0  0  0  0  0  0  0  0  0
  -24.3447  -23.2120   21.0220 O   0  0  0  0  0  0  0  0  0  1  0  0
  -28.0350  -20.8619   24.1131 O   0  0  0  0  0  0  0  0  0  0  0  0
  -20.3099   -3.0345   22.9151 F   0  0  0  0  0  0  0  0  0  0  0  0
  -23.3243   -5.6277   25.4829 F   0  0  0  0  0  0  0  0  0  0  0  0
  -27.6958  -23.4889   23.4443 F   0  0  0  0  0  0  0  0  0  0  0  0
  1  2  1  0  0  0  0
  1  5  2  0  0  0  0
  2  6  2  0  0  0  0
  3  9  2  0  0  0  0
  3 18  1  0  0  0  0
  4 10  1  0  0  0  0
  4 18  2  0  0  0  0
  5 20  1  0  0  0  0
  6 22  1  0  0  0  0
  7 11  2  0  0  0  0
  7 21  1  0  0  0  0
  8 12  2  0  0  0  0
  8 25  1  0  0  0  0
  9 26  1  0  0  0  0
 10 26  2  0  0  0  0
 11 27  1  0  0  0  0
 12 28  1  0  0  0  0
 13 14  2  0  0  0  0
 13 29  1  0  0  0  0
 14 30  1  0  0  0  0
 15 23  1  0  0  0  0
 15 27  2  0  0  0  0
 16 24  1  0  0  0  0
 16 25  2  0  0  0  0
 17 30  2  0  0  0  0
 17 31  1  0  0  0  0
 18 32  1  0  0  0  0
 19 32  1  0  0  0  0
 19 33  2  0  0  0  0
 19 34  1  0  0  0  0
 20 22  2  0  0  0  0
 20 39  1  0  0  0  0
 21 23  2  0  0  0  0
 21 40  1  0  0  0  0
 22 48  1  0  0  0  0
 23 41  1  0  0  0  0
 24 28  2  0  0  0  0
 24 56  1  0  0  0  0
 25 70  1  0  0  0  0
 26 80  1  0  0  0  0
 27 81  1  0  0  0  0
 28 82  1  0  0  0  0
 29 31  2  0  0  0  0
 29 80  1  0  0  0  0
 30 83  1  0  0  0  0
 31 84  1  0  0  0  0
 32 64  2  0  0  0  0
 33 65  1  0  0  0  0
 33 68  1  0  0  0  0
 34 69  1  0  0  0  0
 34 75  2  0  0  0  0
 35 49  1  0  0  0  0
 35 71  1  0  0  0  0
 35 76  2  0  0  0  0
 36 61  1  0  0  0  0
 36 66  1  0  0  0  0
 36 77  2  0  0  0  0
 37 62  1  0  0  0  0
 37 72  1  0  0  0  0
 37 78  2  0  0  0  0
 38 67  1  0  0  0  0
 38 70  1  0  0  0  0
 38 79  2  0  0  0  0
 39 42  1  0  0  0  0
 40 49  1  0  0  0  0
 41 66  1  0  0  0  0
 42 44  1  0  0  0  0
 43 45  1  0  0  0  0
 43 46  1  0  0  0  0
 44 48  1  0  0  0  0
 45 50  1  0  0  0  0
 46 67  1  0  0  0  0
 47 50  1  0  0  0  0
 47 67  1  0  0  0  0
 48 71  1  0  0  0  0
 49 66  1  0  0  0  0
 50 65  1  0  0  0  0
 51 62  1  0  0  0  0
 52 63  1  0  0  0  0
 53 63  1  0  0  0  0
 54 63  1  0  0  0  0
 55 73  1  0  0  0  0
 56 74  1  0  0  0  0
 57 58  1  0  0  0  0
 57 74  1  0  0  0  0
 58 81  1  0  0  0  0
 59 60  1  0  0  0  0
 59 82  1  0  0  0  0
 60 85  1  0  0  0  0
 61 63  1  0  0  0  0
 61 72  1  0  0  0  0
 62 73  1  0  0  0  0
 64 65  1  0  0  0  0
M  CHG  2  73   1  74   1
M  ISO  4  38 100  58 101  70 100  81 101
M  END
> <Batch ID>
0006

> <Smiles>
CNC(C)C(=O)NC(C(=O)N1Cc2cc([101O:1][101CH2:1]CNCc3cc([100NH:0][100C:0](=O)N4CCCC(n5nc(-c6ccc(Oc7ccc(F)cc7F)cc6)c(C(N)=O)c5N)C4)ccc3OCCF)ccc2CC1C(=O)NC1CCCc2ccccc21)C(C)(C)C

> <Shape>
0.249

> <Color>
0.074

> <Negative vol penalty>
0.000

$$$$

  -OEChem-04042320293D

 88 97  0     1  0  0  0  0  0999 V2000
  -30.8980  -22.5044   21.1485 C   0  0  0  0  0  0  0  0  0  0  0  0
  -29.5970  -22.9910   21.0715 C   0  0  0  0  0  0  0  0  0  0  0  0
  -25.7931  -13.2816   20.4012 C   0  0  0  0  0  0  0  0  0  0  0  0
  -23.9823  -14.4072   19.2650 C   0  0  0  0  0  0  0  0  0  0  0  0
  -31.8032  -23.0764   22.0415 C   0  0  0  0  0  0  0  0  0  0  0  0
  -29.2001  -24.0493   21.8882 C   0  0  0  0  0  0  0  0  0  0  0  0
  -26.5425  -27.5518   19.3753 C   0  0  0  0  0  0  0  0  0  0  0  0
  -21.7578  -22.0661   21.4130 C   0  0  0  0  0  0  0  0  0  0  0  0
  -22.9850  -23.3278   23.0680 C   0  0  0  0  0  0  0  0  0  0  0  0
  -21.2584  -23.2535   20.8780 C   0  0  0  0  0  0  0  0  0  0  0  0
  -22.4856  -24.5153   22.5330 C   0  0  0  0  0  0  0  0  0  0  0  0
  -20.3820  -27.9956   21.2805 C   0  0  0  0  0  0  0  0  0  0  0  0
  -25.1883  -12.0509   20.1458 C   0  0  0  0  0  0  0  0  0  0  0  0
  -23.3775  -13.1765   19.0095 C   0  0  0  0  0  0  0  0  0  0  0  0
  -25.2044  -27.2655   19.1083 C   0  0  0  0  0  0  0  0  0  0  0  0
  -22.6527  -10.2111   21.4146 C   0  0  0  0  0  0  0  0  0  0  0  0
  -19.6101  -28.9206   21.9835 C   0  0  0  0  0  0  0  0  0  0  0  0
  -22.5889   -9.2915   22.4614 C   0  0  0  0  0  0  0  0  0  0  0  0
  -24.5437  -28.6386   20.9784 C   0  0  0  0  0  0  0  0  0  0  0  0
  -19.4872  -26.2128   22.6435 C   0  0  0  0  0  0  0  0  0  0  0  0
  -23.8742   -7.7163   21.1561 C   0  0  0  0  0  0  0  0  0  0  0  0
  -25.1900  -14.4598   19.9608 C   0  0  0  0  0  0  0  0  0  0  0  0
  -26.7438  -16.4072   19.4121 C   0  0  0  0  0  0  0  0  0  0  0  0
  -31.4200  -24.1485   22.8627 C   0  0  0  0  0  0  0  0  0  0  0  0
  -26.8924  -28.3762   20.4543 C   0  0  0  0  0  0  0  0  0  0  0  0
  -30.1006  -24.6352   22.7939 C   0  0  0  0  0  0  0  0  0  0  0  0
  -25.8868  -28.9358   21.2554 C   0  0  0  0  0  0  0  0  0  0  0  0
  -22.6211  -22.1032   22.5081 C   0  0  0  0  0  0  0  0  0  0  0  0
  -21.6222  -24.4781   21.4380 C   0  0  0  0  0  0  0  0  0  0  0  0
  -20.3206  -26.6417   21.6105 C   0  0  0  0  0  0  0  0  0  0  0  0
  -23.9806  -11.9983   19.4499 C   0  0  0  0  0  0  0  0  0  0  0  0
  -24.2049  -27.8065   19.9116 C   0  0  0  0  0  0  0  0  0  0  0  0
  -23.3272   -9.8832   20.2384 C   0  0  0  0  0  0  0  0  0  0  0  0
  -23.1996   -8.0441   22.3322 C   0  0  0  0  0  0  0  0  0  0  0  0
  -18.7767  -28.4916   23.0165 C   0  0  0  0  0  0  0  0  0  0  0  0
  -18.7152  -27.1377   23.3466 C   0  0  0  0  0  0  0  0  0  0  0  0
  -23.9380   -8.6359   20.1092 C   0  0  0  0  0  0  0  0  0  0  0  0
  -25.8140  -15.7314   20.2249 C   0  0  0  0  0  0  0  0  0  0  0  0
  -27.0275  -17.5610   20.1012 C   0  0  0  0  0  0  0  0  0  0  0  0
  -27.3011  -16.0261   18.1473 C   0  0  0  0  0  0  0  0  0  0  0  0
  -28.5796  -27.9868   23.1199 C   0  0  0  0  0  0  0  0  0  0  0  0
  -28.0916  -31.1785   23.4321 C   0  0  0  0  0  0  0  0  0  0  0  0
  -26.1898  -33.9070   22.6672 C   0  0  0  0  0  0  0  0  0  0  0  0
  -23.9927  -20.7567   24.1364 C   0  0  0  0  0  0  0  0  0  0  0  0
  -32.4200  -24.7032   23.8461 C   0  0  0  0  0  0  0  0  0  0  0  0
  -28.3390  -28.6969   20.7129 C   0  0  0  0  0  0  0  0  0  0  0  0
  -26.2087  -29.8432   22.4136 C   0  0  0  0  0  0  0  0  0  0  0  0
  -32.0283  -26.0669   24.4093 C   0  0  0  0  0  0  0  0  0  0  0  0
  -27.2199  -19.3118   24.5545 C   0  0  0  0  0  0  0  0  0  0  0  0
  -30.5646  -26.0666   24.8388 C   0  0  0  0  0  0  0  0  0  0  0  0
  -27.3126  -18.2955   23.4140 C   0  0  0  0  0  0  0  0  0  0  0  0
  -25.8088  -19.3856   25.1350 C   0  0  0  0  0  0  0  0  0  0  0  0
  -24.8369  -18.6036   23.0106 C   0  0  0  0  0  0  0  0  0  0  0  0
  -29.6395  -25.7980   23.6457 C   0  0  1  0  0  0  0  0  0  0  0  0
  -28.6066  -29.1339   22.1498 C   0  0  1  0  0  0  0  0  0  0  0  0
  -26.2241  -18.5407   22.3508 C   0  0  2  0  0  0  0  0  0  0  0  0
  -26.0188  -36.3730   23.1000 C   0  0  0  0  0  0  0  0  0  0  0  0
  -26.9861  -30.6102   26.2186 C   0  0  0  0  0  0  0  0  0  0  0  0
  -25.9812  -32.9033   26.2116 C   0  0  0  0  0  0  0  0  0  0  0  0
  -28.4565  -32.6278   26.0711 C   0  0  0  0  0  0  0  0  0  0  0  0
  -26.5078  -34.5507   19.7960 C   0  0  0  0  0  0  0  0  0  0  0  0
  -21.2083  -25.8267   19.4537 C   0  0  0  0  0  0  0  0  0  0  0  0
  -22.6086  -26.2642   19.0578 C   0  0  0  0  0  0  0  0  0  1  0  0
  -27.0284  -32.0401   24.0693 C   0  0  1  0  0  0  0  0  0  0  0  0
  -26.5682  -35.2940   22.1798 C   0  0  2  0  0  0  0  0  0  0  0  0
  -27.1067  -32.0268   25.6221 C   0  0  0  0  0  0  0  0  0  0  0  0
  -25.5262  -16.4001   21.3447 N   0  0  0  0  0  0  0  0  0  0  0  0
  -26.2797  -17.5080   21.2406 N   0  0  0  0  0  0  0  0  0  0  0  0
  -27.6381  -30.1218   22.6298 N   0  0  0  0  0  0  0  0  0  0  0  0
  -24.8316  -19.6241   24.0706 N   0  0  0  0  0  0  0  0  0  0  0  0
  -27.8411  -18.6054   19.8376 N   0  0  0  0  0  0  0  0  0  0  0  0
  -26.9009  -14.8084   17.5804 N   0  0  0  0  0  0  0  0  0  0  0  0
  -23.1270  -20.8967   23.0523 N   0  0  0  0  0  0  0  0  0  0  0  0
  -29.4956  -26.9910   22.8392 N   0  0  0  0  0  0  0  0  0  0  0  0
  -27.1669  -33.3655   23.4754 N   0  0  0  0  0  0  0  0  0  0  0  0
  -21.1112  -25.6938   20.8893 N   0  0  0  0  0  0  0  0  0  0  0  0
  -26.0303  -35.5263   20.8096 N   0  3  0  0  0  0  0  0  0  0  0  0
  -28.1420  -16.7364   17.5456 O   0  0  0  0  0  0  0  0  0  0  0  0
  -27.7876  -28.0046   24.0548 O   0  0  0  0  0  0  0  0  0  0  0  0
  -29.2808  -31.4379   23.6328 O   0  0  0  0  0  0  0  0  0  0  0  0
  -25.1315  -33.3604   22.3644 O   0  0  0  0  0  0  0  0  0  0  0  0
  -24.0579  -21.5590   25.0713 O   0  0  0  0  0  0  0  0  0  0  0  0
  -23.3903  -10.7976   19.2003 O   0  0  0  0  0  0  0  0  0  0  0  0
  -22.8981  -27.5282   19.6535 O   0  0  0  0  0  0  0  0  0  1  0  0
  -23.1396   -7.1618   23.3382 F   0  0  0  0  0  0  0  0  0  0  0  0
  -18.0368  -29.3804   23.6921 F   0  0  0  0  0  0  0  0  0  0  0  0
  -17.9139  -26.7263   24.3378 F   0  0  0  0  0  0  0  0  0  0  0  0
  -24.5884   -8.3157   18.9822 F   0  0  0  0  0  0  0  0  0  0  0  0
  1  2  1  0  0  0  0
  1  5  2  0  0  0  0
  2  6  2  0  0  0  0
  3 13  2  0  0  0  0
  3 22  1  0  0  0  0
  4 14  1  0  0  0  0
  4 22  2  0  0  0  0
  5 24  1  0  0  0  0
  6 26  1  0  0  0  0
  7 15  2  0  0  0  0
  7 25  1  0  0  0  0
  8 10  2  0  0  0  0
  8 28  1  0  0  0  0
  9 11  1  0  0  0  0
  9 28  2  0  0  0  0
 10 29  1  0  0  0  0
 11 29  2  0  0  0  0
 12 17  2  0  0  0  0
 12 30  1  0  0  0  0
 13 31  1  0  0  0  0
 14 31  2  0  0  0  0
 15 32  1  0  0  0  0
 16 18  2  0  0  0  0
 16 33  1  0  0  0  0
 17 35  1  0  0  0  0
 18 34  1  0  0  0  0
 19 27  1  0  0  0  0
 19 32  2  0  0  0  0
 20 30  2  0  0  0  0
 20 36  1  0  0  0  0
 21 34  2  0  0  0  0
 21 37  1  0  0  0  0
 22 38  1  0  0  0  0
 23 38  1  0  0  0  0
 23 39  2  0  0  0  0
 23 40  1  0  0  0  0
 24 26  2  0  0  0  0
 24 45  1  0  0  0  0
 25 27  2  0  0  0  0
 25 46  1  0  0  0  0
 26 54  1  0  0  0  0
 27 47  1  0  0  0  0
 28 73  1  0  0  0  0
 29 76  1  0  0  0  0
 30 76  1  0  0  0  0
 31 83  1  0  0  0  0
 32 84  1  0  0  0  0
 33 37  2  0  0  0  0
 33 83  1  0  0  0  0
 34 85  1  0  0  0  0
 35 36  2  0  0  0  0
 35 86  1  0  0  0  0
 36 87  1  0  0  0  0
 37 88  1  0  0  0  0
 38 67  2  0  0  0  0
 39 68  1  0  0  0  0
 39 71  1  0  0  0  0
 40 72  1  0  0  0  0
 40 78  2  0  0  0  0
 41 55  1  0  0  0  0
 41 74  1  0  0  0  0
 41 79  2  0  0  0  0
 42 64  1  0  0  0  0
 42 69  1  0  0  0  0
 42 80  2  0  0  0  0
 43 65  1  0  0  0  0
 43 75  1  0  0  0  0
 43 81  2  0  0  0  0
 44 70  1  0  0  0  0
 44 73  1  0  0  0  0
 44 82  2  0  0  0  0
 45 48  1  0  0  0  0
 46 55  1  0  0  0  0
 47 69  1  0  0  0  0
 48 50  1  0  0  0  0
 49 51  1  0  0  0  0
 49 52  1  0  0  0  0
 50 54  1  0  0  0  0
 51 56  1  0  0  0  0
 52 70  1  0  0  0  0
 53 56  1  0  0  0  0
 53 70  1  0  0  0  0
 54 74  1  0  0  0  0
 55 69  1  0  0  0  0
 56 68  1  0  0  0  0
 57 65  1  0  0  0  0
 58 66  1  0  0  0  0
 59 66  1  0  0  0  0
 60 66  1  0  0  0  0
 61 77  1  0  0  0  0
 62 63  1  0  0  0  0
 62 76  1  0  0  0  0
 63 84  1  0  0  0  0
 64 66  1  0  0  0  0
 64 75  1  0  0  0  0
 65 77  1  0  0  0  0
 67 68  1  0  0  0  0
M  CHG  1  77   1
M  ISO  4  44 100  63 101  73 100  84 101
M  END
> <Batch ID>
0006

> <Smiles>
CNC(C)C(=O)NC(C(=O)N1Cc2cc([101O:1][101CH2:1]CN(c3ccc([100NH:0][100C:0](=O)N4CCCC(n5nc(-c6ccc(Oc7ccc(F)cc7F)cc6)c(C(N)=O)c5N)C4)cc3)c3ccc(F)c(F)c3)ccc2CC1C(=O)NC1CCCc2ccccc21)C(C)(C)C

> <Shape>
0.235

> <Color>
0.063

> <Negative vol penalty>
0.000

$$$$

  -OEChem-04042320293D

 82 90  0     1  0  0  0  0  0999 V2000
  -23.2610  -31.1702   24.2825 C   0  0  0  0  0  0  0  0  0  0  0  0
  -22.4948  -30.2133   23.6248 C   0  0  0  0  0  0  0  0  0  0  0  0
  -27.7872  -19.1034   13.3719 C   0  0  0  0  0  0  0  0  0  0  0  0
  -26.8661  -18.8798   12.3487 C   0  0  0  0  0  0  0  0  0  0  0  0
  -26.9822  -12.7575   20.9648 C   0  0  0  0  0  0  0  0  0  0  0  0
  -27.0584  -12.8993   18.5542 C   0  0  0  0  0  0  0  0  0  0  0  0
  -24.3657  -31.7348   23.6462 C   0  0  0  0  0  0  0  0  0  0  0  0
  -22.8323  -29.8211   22.3299 C   0  0  0  0  0  0  0  0  0  0  0  0
  -22.6909  -24.1070   18.0118 C   0  0  0  0  0  0  0  0  0  0  0  0
  -27.4042  -19.8073   14.5137 C   0  0  0  0  0  0  0  0  0  0  0  0
  -25.5619  -19.3601   12.4671 C   0  0  0  0  0  0  0  0  0  0  0  0
  -26.3898  -11.4981   20.8720 C   0  0  0  0  0  0  0  0  0  0  0  0
  -26.4659  -11.6399   18.4614 C   0  0  0  0  0  0  0  0  0  0  0  0
  -22.2543  -23.7258   16.7438 C   0  0  0  0  0  0  0  0  0  0  0  0
  -24.5281   -8.3995   21.2674 C   0  0  0  0  0  0  0  0  0  0  0  0
  -23.4356   -8.1327   22.0926 C   0  0  0  0  0  0  0  0  0  0  0  0
  -24.2307  -24.7113   15.7735 C   0  0  0  0  0  0  0  0  0  0  0  0
  -22.2240   -9.9612   21.0798 C   0  0  0  0  0  0  0  0  0  0  0  0
  -27.3165  -13.4581   19.8059 C   0  0  0  0  0  0  0  0  0  0  0  0
  -29.3042  -15.0495   19.9614 C   0  0  0  0  0  0  0  0  0  0  0  0
  -24.7226  -31.3422   22.3465 C   0  0  0  0  0  0  0  0  0  0  0  0
  -23.8974  -24.8041   18.1694 C   0  0  0  0  0  0  0  0  0  0  0  0
  -23.9420  -30.3819   21.6752 C   0  0  0  0  0  0  0  0  0  0  0  0
  -24.6817  -25.0980   17.0448 C   0  0  0  0  0  0  0  0  0  0  0  0
  -26.1000  -20.2876   14.6321 C   0  0  0  0  0  0  0  0  0  0  0  0
  -26.1316  -10.9394   19.6203 C   0  0  0  0  0  0  0  0  0  0  0  0
  -23.0228  -24.0304   15.6242 C   0  0  0  0  0  0  0  0  0  0  0  0
  -25.1788  -20.0640   13.6088 C   0  0  0  0  0  0  0  0  0  0  0  0
  -24.4686   -9.4472   20.3485 C   0  0  0  0  0  0  0  0  0  0  0  0
  -22.2836   -8.9135   21.9988 C   0  0  0  0  0  0  0  0  0  0  0  0
  -23.3166  -10.2280   20.2547 C   0  0  0  0  0  0  0  0  0  0  0  0
  -27.9280  -14.7593   19.9011 C   0  0  0  0  0  0  0  0  0  0  0  0
  -29.3631  -16.4193   20.0430 C   0  0  0  0  0  0  0  0  0  0  0  0
  -30.4289  -14.1603   19.9451 C   0  0  0  0  0  0  0  0  0  0  0  0
  -24.7034  -27.6696   19.2842 C   0  0  0  0  0  0  0  0  0  0  0  0
  -27.7202  -26.5590   18.8507 C   0  0  0  0  0  0  0  0  0  0  0  0
  -29.8078  -24.4007   17.2289 C   0  0  0  0  0  0  0  0  0  0  0  0
  -25.6251  -20.7705   18.3267 C   0  0  0  0  0  0  0  0  0  0  0  0
  -25.8974  -32.0151   21.6818 C   0  0  0  0  0  0  0  0  0  0  0  0
  -24.3675  -25.1847   19.5465 C   0  0  0  0  0  0  0  0  0  0  0  0
  -25.9946  -25.8267   17.1621 C   0  0  0  0  0  0  0  0  0  0  0  0
  -26.4084  -31.2716   20.4504 C   0  0  0  0  0  0  0  0  0  0  0  0
  -26.8672  -20.1875   21.6122 C   0  0  0  0  0  0  0  0  0  0  0  0
  -25.2452  -30.8661   19.5508 C   0  0  0  0  0  0  0  0  0  0  0  0
  -27.4041  -18.7564   21.5516 C   0  0  0  0  0  0  0  0  0  0  0  0
  -25.6052  -20.3530   20.7684 C   0  0  0  0  0  0  0  0  0  0  0  0
  -26.2735  -18.4860   19.3050 C   0  0  0  0  0  0  0  0  0  0  0  0
  -24.2907  -29.9124   20.2794 C   0  0  1  0  0  0  0  0  0  0  0  0
  -25.3606  -26.3428   19.5400 C   0  0  1  0  0  0  0  0  0  0  0  0
  -27.5774  -18.2836   20.0957 C   0  0  2  0  0  0  0  0  0  0  0  0
  -32.2264  -23.7537   17.0580 C   0  0  0  0  0  0  0  0  0  0  0  0
  -28.2714  -29.0648   17.1994 C   0  0  0  0  0  0  0  0  0  0  0  0
  -30.3125  -27.9337   16.2924 C   0  0  0  0  0  0  0  0  0  0  0  0
  -30.1285  -28.3989   18.7362 C   0  0  0  0  0  0  0  0  0  0  0  0
  -29.2518  -21.6363   18.1277 C   0  0  0  0  0  0  0  0  0  0  0  0
  -25.7078  -21.0391   15.8609 C   0  0  0  0  0  0  0  0  0  0  0  0
  -22.0081  -21.8176   12.9437 C   0  0  0  0  0  0  0  0  0  0  0  0
  -21.8028  -22.4788   14.2975 C   0  0  0  0  0  0  0  0  0  1  0  0
  -23.4629  -21.4427   12.7084 C   0  0  0  0  0  0  0  0  0  0  0  0
  -28.7113  -26.5729   17.7120 C   0  0  1  0  0  0  0  0  0  0  0  0
  -30.8968  -23.4758   17.7418 C   0  0  2  0  0  0  0  0  0  0  0  0
  -29.3303  -27.9805   17.4823 C   0  0  0  0  0  0  0  0  0  0  0  0
  -27.1675  -15.8566   19.9411 N   0  0  0  0  0  0  0  0  0  0  0  0
  -28.0689  -16.8495   20.0276 N   0  0  0  0  0  0  0  0  0  0  0  0
  -26.4082  -26.1833   18.5293 N   0  0  0  0  0  0  0  0  0  0  0  0
  -25.8370  -19.8879   19.3988 N   0  0  0  0  0  0  0  0  0  0  0  0
  -30.3950  -17.2856   20.1259 N   0  0  0  0  0  0  0  0  0  0  0  0
  -30.1897  -12.7821   19.8572 N   0  0  0  0  0  0  0  0  0  0  0  0
  -24.8439  -28.5756   20.3181 N   0  0  0  0  0  0  0  0  0  0  0  0
  -29.6888  -25.5314   18.0089 N   0  0  0  0  0  0  0  0  0  0  0  0
  -25.8742  -20.2515   17.0621 N   0  0  0  0  0  0  0  0  0  0  0  0
  -30.5283  -22.0535   17.4926 N   0  3  0  0  0  0  0  0  0  0  0  0
  -31.6103  -14.5746   20.0231 O   0  0  0  0  0  0  0  0  0  0  0  0
  -24.1139  -27.8579   18.2266 O   0  0  0  0  0  0  0  0  0  0  0  0
  -28.0980  -26.8631   19.9849 O   0  0  0  0  0  0  0  0  0  0  0  0
  -29.1330  -24.1473   16.2334 O   0  0  0  0  0  0  0  0  0  0  0  0
  -25.2474  -21.9363   18.4853 O   0  0  0  0  0  0  0  0  0  0  0  0
  -25.5537   -9.7104   19.5294 O   0  0  0  0  0  0  0  0  0  0  0  0
  -22.5986  -23.6600   14.3853 O   0  0  0  0  0  0  0  0  0  1  0  0
  -23.8937  -20.5298   13.7089 O   0  0  0  0  0  0  0  0  0  0  0  0
  -21.2340   -8.6562   22.7902 F   0  0  0  0  0  0  0  0  0  0  0  0
  -23.2530  -11.2352   19.3729 F   0  0  0  0  0  0  0  0  0  0  0  0
  1  2  1  0  0  0  0
  1  7  2  0  0  0  0
  2  8  2  0  0  0  0
  3  4  1  0  0  0  0
  3 10  2  0  0  0  0
  4 11  2  0  0  0  0
  5 12  2  0  0  0  0
  5 19  1  0  0  0  0
  6 13  1  0  0  0  0
  6 19  2  0  0  0  0
  7 21  1  0  0  0  0
  8 23  1  0  0  0  0
  9 14  2  0  0  0  0
  9 22  1  0  0  0  0
 10 25  1  0  0  0  0
 11 28  1  0  0  0  0
 12 26  1  0  0  0  0
 13 26  2  0  0  0  0
 14 27  1  0  0  0  0
 15 16  2  0  0  0  0
 15 29  1  0  0  0  0
 16 30  1  0  0  0  0
 17 24  1  0  0  0  0
 17 27  2  0  0  0  0
 18 30  2  0  0  0  0
 18 31  1  0  0  0  0
 19 32  1  0  0  0  0
 20 32  1  0  0  0  0
 20 33  2  0  0  0  0
 20 34  1  0  0  0  0
 21 23  2  0  0  0  0
 21 39  1  0  0  0  0
 22 24  2  0  0  0  0
 22 40  1  0  0  0  0
 23 48  1  0  0  0  0
 24 41  1  0  0  0  0
 25 28  2  0  0  0  0
 25 56  1  0  0  0  0
 26 78  1  0  0  0  0
 27 79  1  0  0  0  0
 28 80  1  0  0  0  0
 29 31  2  0  0  0  0
 29 78  1  0  0  0  0
 30 81  1  0  0  0  0
 31 82  1  0  0  0  0
 32 63  2  0  0  0  0
 33 64  1  0  0  0  0
 33 67  1  0  0  0  0
 34 68  1  0  0  0  0
 34 73  2  0  0  0  0
 35 49  1  0  0  0  0
 35 69  1  0  0  0  0
 35 74  2  0  0  0  0
 36 60  1  0  0  0  0
 36 65  1  0  0  0  0
 36 75  2  0  0  0  0
 37 61  1  0  0  0  0
 37 70  1  0  0  0  0
 37 76  2  0  0  0  0
 38 66  1  0  0  0  0
 38 71  1  0  0  0  0
 38 77  2  0  0  0  0
 39 42  1  0  0  0  0
 40 49  1  0  0  0  0
 41 65  1  0  0  0  0
 42 44  1  0  0  0  0
 43 45  1  0  0  0  0
 43 46  1  0  0  0  0
 44 48  1  0  0  0  0
 45 50  1  0  0  0  0
 46 66  1  0  0  0  0
 47 50  1  0  0  0  0
 47 66  1  0  0  0  0
 48 69  1  0  0  0  0
 49 65  1  0  0  0  0
 50 64  1  0  0  0  0
 51 61  1  0  0  0  0
 52 62  1  0  0  0  0
 53 62  1  0  0  0  0
 54 62  1  0  0  0  0
 55 72  1  0  0  0  0
 56 71  1  0  0  0  0
 57 58  1  0  0  0  0
 57 59  1  0  0  0  0
 58 79  1  0  0  0  0
 59 80  1  0  0  0  0
 60 62  1  0  0  0  0
 60 70  1  0  0  0  0
 61 72  1  0  0  0  0
 63 64  1  0  0  0  0
M  CHG  1  72   1
M  ISO  4  38 100  58 101  71 100  79 101
M  END
> <Batch ID>
0006

> <Smiles>
CNC(C)C(=O)NC(C(=O)N1Cc2cc([101O:1][101CH2:1]CCOc3ccccc3C[100NH:0][100C:0](=O)N3CCCC(n4nc(-c5ccc(Oc6ccc(F)cc6F)cc5)c(C(N)=O)c4N)C3)ccc2CC1C(=O)NC1CCCc2ccccc21)C(C)(C)C

> <Shape>
0.218

> <Color>
0.082

> <Negative vol penalty>
0.000

$$$$

  -OEChem-04042320293D

 93103  0     1  0  0  0  0  0999 V2000
  -20.8538  -26.5339   25.9244 C   0  0  0  0  0  0  0  0  0  0  0  0
  -21.9089  -26.2402   25.0667 C   0  0  0  0  0  0  0  0  0  0  0  0
  -22.4762  -13.5553   21.3028 C   0  0  0  0  0  0  0  0  0  0  0  0
  -24.3396  -12.2744   20.4518 C   0  0  0  0  0  0  0  0  0  0  0  0
  -19.6940  -27.1244   25.4243 C   0  0  0  0  0  0  0  0  0  0  0  0
  -21.8044  -26.5358   23.7080 C   0  0  0  0  0  0  0  0  0  0  0  0
  -25.9890  -28.7135   21.8662 C   0  0  0  0  0  0  0  0  0  0  0  0
  -21.6032  -12.5339   20.9287 C   0  0  0  0  0  0  0  0  0  0  0  0
  -23.4665  -11.2529   20.0777 C   0  0  0  0  0  0  0  0  0  0  0  0
  -27.0733  -27.8804   21.5942 C   0  0  0  0  0  0  0  0  0  0  0  0
  -31.6684  -23.1277   19.0681 C   0  0  0  0  0  0  0  0  0  0  0  0
  -21.8243   -8.7083   21.5774 C   0  0  0  0  0  0  0  0  0  0  0  0
  -32.7956  -22.5183   19.6193 C   0  0  0  0  0  0  0  0  0  0  0  0
  -22.1944   -7.3981   21.8806 C   0  0  0  0  0  0  0  0  0  0  0  0
  -26.4852  -27.8888   19.2547 C   0  0  0  0  0  0  0  0  0  0  0  0
  -31.8899  -22.8472   21.8349 C   0  0  0  0  0  0  0  0  0  0  0  0
  -22.1426   -6.8396   19.5306 C   0  0  0  0  0  0  0  0  0  0  0  0
  -23.8445  -13.4256   21.0643 C   0  0  0  0  0  0  0  0  0  0  0  0
  -24.9592  -14.9860   22.7466 C   0  0  0  0  0  0  0  0  0  0  0  0
  -19.5790  -27.4362   24.0604 C   0  0  0  0  0  0  0  0  0  0  0  0
  -25.1368  -29.1323   20.8343 C   0  0  0  0  0  0  0  0  0  0  0  0
  -20.6415  -27.1298   23.1889 C   0  0  0  0  0  0  0  0  0  0  0  0
  -25.3922  -28.7293   19.5159 C   0  0  0  0  0  0  0  0  0  0  0  0
  -30.7628  -23.4566   21.2837 C   0  0  0  0  0  0  0  0  0  0  0  0
  -22.0983  -11.3826   20.3162 C   0  0  0  0  0  0  0  0  0  0  0  0
  -27.3199  -27.4656   20.2887 C   0  0  0  0  0  0  0  0  0  0  0  0
  -30.6520  -23.5969   19.9003 C   0  0  0  0  0  0  0  0  0  0  0  0
  -21.6133   -9.0842   20.2507 C   0  0  0  0  0  0  0  0  0  0  0  0
  -32.9063  -22.3781   21.0027 C   0  0  0  0  0  0  0  0  0  0  0  0
  -22.3536   -6.4638   20.8572 C   0  0  0  0  0  0  0  0  0  0  0  0
  -21.7725   -8.1499   19.2274 C   0  0  0  0  0  0  0  0  0  0  0  0
  -24.7468  -14.4807   21.4500 C   0  0  0  0  0  0  0  0  0  0  0  0
  -25.9039  -15.9692   22.5815 C   0  0  0  0  0  0  0  0  0  0  0  0
  -24.3565  -14.6010   23.9893 C   0  0  0  0  0  0  0  0  0  0  0  0
  -27.9705  -22.0593   22.4032 C   0  0  0  0  0  0  0  0  0  0  0  0
  -22.0483  -28.7555   20.1838 C   0  0  0  0  0  0  0  0  0  0  0  0
  -22.7062  -30.8146   17.7652 C   0  0  0  0  0  0  0  0  0  0  0  0
  -25.3623  -31.3047   15.3731 C   0  0  0  0  0  0  0  0  0  0  0  0
  -27.9407  -20.3268   19.8227 C   0  0  0  0  0  0  0  0  0  0  0  0
  -18.2872  -28.0308   23.5581 C   0  0  0  0  0  0  0  0  0  0  0  0
  -23.9870  -30.0526   21.1404 C   0  0  0  0  0  0  0  0  0  0  0  0
  -24.5192  -29.1674   18.3694 C   0  0  0  0  0  0  0  0  0  0  0  0
  -18.4032  -28.6551   22.1699 C   0  0  0  0  0  0  0  0  0  0  0  0
  -30.7600  -24.6676   24.4240 C   0  0  0  0  0  0  0  0  0  0  0  0
  -29.8261  -23.7091   25.1445 C   0  0  0  0  0  0  0  0  0  0  0  0
  -25.2714  -22.7367   20.0902 C   0  0  0  0  0  0  0  0  0  0  0  0
  -28.7943  -17.1446   18.6175 C   0  0  0  0  0  0  0  0  0  0  0  0
  -30.1291  -25.1192   23.1141 C   0  0  0  0  0  0  0  0  0  0  0  0
  -19.1459  -27.7175   21.2233 C   0  0  0  0  0  0  0  0  0  0  0  0
  -26.1998  -23.3074   21.1548 C   0  0  0  0  0  0  0  0  0  0  0  0
  -27.8276  -16.2028   19.3319 C   0  0  0  0  0  0  0  0  0  0  0  0
  -29.4930  -22.5034   24.2785 C   0  0  0  0  0  0  0  0  0  0  0  0
  -28.0991  -18.4430   18.2288 C   0  0  0  0  0  0  0  0  0  0  0  0
  -25.5846  -21.2500   20.1199 C   0  0  0  0  0  0  0  0  0  0  0  0
  -26.5217  -18.2394   20.1276 C   0  0  0  0  0  0  0  0  0  0  0  0
  -29.6588  -23.9650   22.2117 C   0  0  2  0  0  0  0  0  0  0  0  0
  -20.5757  -27.4580   21.7131 C   0  0  1  0  0  0  0  0  0  0  0  0
  -27.4487  -22.4364   21.0529 C   0  0  2  0  0  0  0  0  0  0  0  0
  -22.8838  -30.0007   20.0880 C   0  0  1  0  0  0  0  0  0  0  0  0
  -27.1728  -16.9016   20.5347 C   0  0  1  0  0  0  0  0  0  0  0  0
  -26.1312  -33.3807   14.1914 C   0  0  0  0  0  0  0  0  0  0  0  0
  -20.8356  -29.8911   15.5385 C   0  0  0  0  0  0  0  0  0  0  0  0
  -22.5321  -30.6870   13.8782 C   0  0  0  0  0  0  0  0  0  0  0  0
  -21.4604  -32.3107   15.4396 C   0  0  0  0  0  0  0  0  0  0  0  0
  -28.1394  -30.9653   16.3383 C   0  0  0  0  0  0  0  0  0  0  0  0
  -28.5712  -26.2654   18.6609 C   0  0  0  0  0  0  0  0  0  1  0  0
  -29.7849  -25.3617   18.5626 C   0  0  0  0  0  0  0  0  0  0  0  0
  -23.1646  -30.6713   16.3340 C   0  0  1  0  0  0  0  0  0  0  0  0
  -26.3745  -32.4360   15.3581 C   0  0  2  0  0  0  0  0  0  0  0  0
  -22.0052  -30.8709   15.3175 C   0  0  0  0  0  0  0  0  0  0  0  0
  -25.4961  -15.0925   20.5290 N   0  0  0  0  0  0  0  0  0  0  0  0
  -26.1886  -15.9924   21.2479 N   0  0  0  0  0  0  0  0  0  0  0  0
  -28.9866  -22.8613   22.9459 N   0  0  0  0  0  0  0  0  0  0  0  0
  -23.4037  -30.0619   18.7205 N   0  0  0  0  0  0  0  0  0  0  0  0
  -27.4694  -19.0822   19.3852 N   0  0  0  0  0  0  0  0  0  0  0  0
  -27.0172  -21.1959   20.4107 N   0  0  0  0  0  0  0  0  0  0  0  0
  -26.5105  -16.8076   23.4484 N   0  0  0  0  0  0  0  0  0  0  0  0
  -23.4044  -13.5725   23.9797 N   0  0  0  0  0  0  0  0  0  0  0  0
  -21.4276  -28.5872   21.4068 N   0  0  0  0  0  0  0  0  0  0  0  0
  -24.2742  -31.6035   16.1655 N   0  0  0  0  0  0  0  0  0  0  0  0
  -27.7572  -31.8924   15.2422 N   0  3  0  0  0  0  0  0  0  0  0  0
  -24.6414  -15.1638   25.0735 O   0  0  0  0  0  0  0  0  0  0  0  0
  -27.4836  -21.0805   22.9769 O   0  0  0  0  0  0  0  0  0  0  0  0
  -21.9714  -28.0039   19.2190 O   0  0  0  0  0  0  0  0  0  0  0  0
  -21.7685  -31.5721   18.0268 O   0  0  0  0  0  0  0  0  0  0  0  0
  -25.5194  -30.2619   14.7419 O   0  0  0  0  0  0  0  0  0  0  0  0
  -29.1252  -20.6553   19.6758 O   0  0  0  0  0  0  0  0  0  0  0  0
  -21.2467  -10.3856   19.9513 O   0  0  0  0  0  0  0  0  0  0  0  0
  -28.3844  -26.6464   20.0187 O   0  0  0  0  0  0  0  0  0  1  0  0
  -29.5587  -24.1912   19.3453 O   0  0  0  0  0  0  0  0  0  0  0  0
  -33.9887  -21.7930   21.5325 F   0  0  0  0  0  0  0  0  0  0  0  0
  -22.7105   -5.2060   21.1484 F   0  0  0  0  0  0  0  0  0  0  0  0
  -21.5723   -8.5054   17.9509 F   0  0  0  0  0  0  0  0  0  0  0  0
  1  2  1  0  0  0  0
  1  5  2  0  0  0  0
  2  6  2  0  0  0  0
  3  8  2  0  0  0  0
  3 18  1  0  0  0  0
  4  9  1  0  0  0  0
  4 18  2  0  0  0  0
  5 20  1  0  0  0  0
  6 22  1  0  0  0  0
  7 10  2  0  0  0  0
  7 21  1  0  0  0  0
  8 25  1  0  0  0  0
  9 25  2  0  0  0  0
 10 26  1  0  0  0  0
 11 13  2  0  0  0  0
 11 27  1  0  0  0  0
 12 14  2  0  0  0  0
 12 28  1  0  0  0  0
 13 29  1  0  0  0  0
 14 30  1  0  0  0  0
 15 23  1  0  0  0  0
 15 26  2  0  0  0  0
 16 24  1  0  0  0  0
 16 29  2  0  0  0  0
 17 30  2  0  0  0  0
 17 31  1  0  0  0  0
 18 32  1  0  0  0  0
 19 32  1  0  0  0  0
 19 33  2  0  0  0  0
 19 34  1  0  0  0  0
 20 22  2  0  0  0  0
 20 40  1  0  0  0  0
 21 23  2  0  0  0  0
 21 41  1  0  0  0  0
 22 57  1  0  0  0  0
 23 42  1  0  0  0  0
 24 27  2  0  0  0  0
 24 56  1  0  0  0  0
 25 88  1  0  0  0  0
 26 89  1  0  0  0  0
 27 90  1  0  0  0  0
 28 31  2  0  0  0  0
 28 88  1  0  0  0  0
 29 91  1  0  0  0  0
 30 92  1  0  0  0  0
 31 93  1  0  0  0  0
 32 71  2  0  0  0  0
 33 72  1  0  0  0  0
 33 77  1  0  0  0  0
 34 78  1  0  0  0  0
 34 82  2  0  0  0  0
 35 58  1  0  0  0  0
 35 73  1  0  0  0  0
 35 83  2  0  0  0  0
 36 59  1  0  0  0  0
 36 79  1  0  0  0  0
 36 84  2  0  0  0  0
 37 68  1  0  0  0  0
 37 74  1  0  0  0  0
 37 85  2  0  0  0  0
 38 69  1  0  0  0  0
 38 80  1  0  0  0  0
 38 86  2  0  0  0  0
 39 75  1  0  0  0  0
 39 76  1  0  0  0  0
 39 87  2  0  0  0  0
 40 43  1  0  0  0  0
 41 59  1  0  0  0  0
 42 74  1  0  0  0  0
 43 49  1  0  0  0  0
 44 45  1  0  0  0  0
 44 48  1  0  0  0  0
 45 52  1  0  0  0  0
 46 50  1  0  0  0  0
 46 54  1  0  0  0  0
 47 51  1  0  0  0  0
 47 53  1  0  0  0  0
 48 56  1  0  0  0  0
 49 57  1  0  0  0  0
 50 58  1  0  0  0  0
 51 60  1  0  0  0  0
 52 73  1  0  0  0  0
 53 75  1  0  0  0  0
 54 76  1  0  0  0  0
 55 60  1  0  0  0  0
 55 75  1  0  0  0  0
 56 73  1  0  0  0  0
 57 79  1  0  0  0  0
 58 76  1  0  0  0  0
 59 74  1  0  0  0  0
 60 72  1  0  0  0  0
 61 69  1  0  0  0  0
 62 70  1  0  0  0  0
 63 70  1  0  0  0  0
 64 70  1  0  0  0  0
 65 81  1  0  0  0  0
 66 67  1  0  0  0  0
 66 89  1  0  0  0  0
 67 90  1  0  0  0  0
 68 70  1  0  0  0  0
 68 80  1  0  0  0  0
 69 81  1  0  0  0  0
 71 72  1  0  0  0  0
M  CHG  1  81   1
M  ISO  4  39 100  66 101  76 100  89 101
M  END
> <Batch ID>
0006

> <Smiles>
CNC(C)C(=O)NC(C(=O)N1Cc2cc([101O:1][101CH2:1]COc3ccc(F)cc3C3CCCCN3C(=O)C3CCC[100N:0]3[100C:0](=O)N3CCCC(n4nc(-c5ccc(Oc6ccc(F)cc6F)cc5)c(C(N)=O)c4N)C3)ccc2CC1C(=O)NC1CCCc2ccccc21)C(C)(C)C

> <Shape>
0.228

> <Color>
0.099

> <Negative vol penalty>
0.000

$$$$

  -OEChem-04042320293D

 83 92  0     1  0  0  0  0  0999 V2000
  -27.8979  -38.4312   25.3120 C   0  0  0  0  0  0  0  0  0  0  0  0
  -28.2203  -37.5466   24.2877 C   0  0  0  0  0  0  0  0  0  0  0  0
  -24.1452   -9.4175   22.2062 C   0  0  0  0  0  0  0  0  0  0  0  0
  -23.2494   -9.6289   19.9724 C   0  0  0  0  0  0  0  0  0  0  0  0
  -27.1018  -38.0053   26.3744 C   0  0  0  0  0  0  0  0  0  0  0  0
  -27.7477  -36.2353   24.3259 C   0  0  0  0  0  0  0  0  0  0  0  0
  -25.5966  -30.9480   19.9977 C   0  0  0  0  0  0  0  0  0  0  0  0
  -27.2327  -24.7793   19.9506 C   0  0  0  0  0  0  0  0  0  0  0  0
  -25.7864  -24.8658   18.0172 C   0  0  0  0  0  0  0  0  0  0  0  0
  -27.3350  -23.3952   19.8122 C   0  0  0  0  0  0  0  0  0  0  0  0
  -25.8888  -23.4816   17.8787 C   0  0  0  0  0  0  0  0  0  0  0  0
  -23.1570   -8.4825   22.5141 C   0  0  0  0  0  0  0  0  0  0  0  0
  -22.2612   -8.6939   20.2802 C   0  0  0  0  0  0  0  0  0  0  0  0
  -25.8396  -29.5992   19.7420 C   0  0  0  0  0  0  0  0  0  0  0  0
  -22.5723   -5.1997   21.9532 C   0  0  0  0  0  0  0  0  0  0  0  0
  -22.9616   -4.0443   22.6306 C   0  0  0  0  0  0  0  0  0  0  0  0
  -24.4067  -28.9974   21.5869 C   0  0  0  0  0  0  0  0  0  0  0  0
  -21.4794   -4.6128   24.4519 C   0  0  0  0  0  0  0  0  0  0  0  0
  -24.1914   -9.9908   20.9354 C   0  0  0  0  0  0  0  0  0  0  0  0
  -26.4878  -10.7006   20.0808 C   0  0  0  0  0  0  0  0  0  0  0  0
  -26.6112  -36.6909   26.4208 C   0  0  0  0  0  0  0  0  0  0  0  0
  -24.7640  -31.3326   21.0585 C   0  0  0  0  0  0  0  0  0  0  0  0
  -26.9454  -35.7911   25.3907 C   0  0  0  0  0  0  0  0  0  0  0  0
  -24.1526  -30.3517   21.8524 C   0  0  0  0  0  0  0  0  0  0  0  0
  -26.4583  -25.5147   19.0532 C   0  0  0  0  0  0  0  0  0  0  0  0
  -26.6631  -22.7463   18.7762 C   0  0  0  0  0  0  0  0  0  0  0  0
  -22.2150   -8.1207   21.5511 C   0  0  0  0  0  0  0  0  0  0  0  0
  -25.2470  -28.6237   20.5384 C   0  0  0  0  0  0  0  0  0  0  0  0
  -21.6367   -6.0618   22.5252 C   0  0  0  0  0  0  0  0  0  0  0  0
  -22.4151   -3.7507   23.8800 C   0  0  0  0  0  0  0  0  0  0  0  0
  -21.0902   -5.7683   23.7745 C   0  0  0  0  0  0  0  0  0  0  0  0
  -25.2117  -10.9571   20.6170 C   0  0  0  0  0  0  0  0  0  0  0  0
  -27.0671  -11.9405   19.9650 C   0  0  0  0  0  0  0  0  0  0  0  0
  -27.0952   -9.4531   19.7196 C   0  0  0  0  0  0  0  0  0  0  0  0
  -25.1609  -33.0176   23.7244 C   0  0  0  0  0  0  0  0  0  0  0  0
  -21.9482  -32.6464   23.9745 C   0  0  0  0  0  0  0  0  0  0  0  0
  -19.1685  -30.8404   23.1629 C   0  0  0  0  0  0  0  0  0  0  0  0
  -27.0104  -17.1350   18.6019 C   0  0  0  0  0  0  0  0  0  0  0  0
  -25.7933  -36.2630   27.6135 C   0  0  0  0  0  0  0  0  0  0  0  0
  -24.4906  -32.7910   21.3046 C   0  0  0  0  0  0  0  0  0  0  0  0
  -23.2346  -30.7117   22.9908 C   0  0  0  0  0  0  0  0  0  0  0  0
  -25.0229  -34.9643   27.3895 C   0  0  0  0  0  0  0  0  0  0  0  0
  -25.6278  -16.4391   21.7552 C   0  0  0  0  0  0  0  0  0  0  0  0
  -25.9262  -33.9100   26.7576 C   0  0  0  0  0  0  0  0  0  0  0  0
  -25.4954  -14.9175   21.6997 C   0  0  0  0  0  0  0  0  0  0  0  0
  -25.2521  -17.0959   20.4260 C   0  0  0  0  0  0  0  0  0  0  0  0
  -27.9938  -20.6797   19.0709 C   0  0  0  0  0  0  0  0  0  0  0  0
  -25.5267  -20.5706   18.6867 C   0  0  0  0  0  0  0  0  0  0  0  0
  -28.1404  -19.3179   18.3973 C   0  0  0  0  0  0  0  0  0  0  0  0
  -25.7184  -19.2182   18.0093 C   0  0  0  0  0  0  0  0  0  0  0  0
  -25.8508  -15.0303   19.2041 C   0  0  0  0  0  0  0  0  0  0  0  0
  -26.4312  -34.3678   25.3839 C   0  0  1  0  0  0  0  0  0  0  0  0
  -24.0351  -33.0811   22.7314 C   0  0  1  0  0  0  0  0  0  0  0  0
  -26.2777  -14.3381   20.5078 C   0  0  2  0  0  0  0  0  0  0  0  0
  -16.6899  -30.7603   23.5469 C   0  0  0  0  0  0  0  0  0  0  0  0
  -22.4206  -31.5347   26.7764 C   0  0  0  0  0  0  0  0  0  0  0  0
  -20.0933  -30.6129   26.7276 C   0  0  0  0  0  0  0  0  0  0  0  0
  -20.4607  -33.0760   26.5824 C   0  0  0  0  0  0  0  0  0  0  0  0
  -18.5939  -31.1674   20.2782 C   0  0  0  0  0  0  0  0  0  0  0  0
  -26.3479  -26.9946   19.2006 C   0  0  0  0  0  0  0  0  0  1  0  0
  -21.0362  -31.6180   24.5987 C   0  0  1  0  0  0  0  0  0  0  0  0
  -17.8060  -31.2661   22.6463 C   0  0  2  0  0  0  0  0  0  0  0  0
  -21.0215  -31.7033   26.1511 C   0  0  0  0  0  0  0  0  0  0  0  0
  -24.9927  -12.2578   20.8275 N   0  0  0  0  0  0  0  0  0  0  0  0
  -26.1391  -12.8297   20.4214 N   0  0  0  0  0  0  0  0  0  0  0  0
  -26.7672  -21.3565   18.6357 N   0  0  0  0  0  0  0  0  0  0  0  0
  -23.0035  -32.1512   23.1954 N   0  0  0  0  0  0  0  0  0  0  0  0
  -25.9929  -16.4836   19.3149 N   0  0  0  0  0  0  0  0  0  0  0  0
  -26.9167  -18.5316   18.4961 N   0  0  0  0  0  0  0  0  0  0  0  0
  -28.2748  -12.3461   19.5183 N   0  0  0  0  0  0  0  0  0  0  0  0
  -26.3601   -8.2740   19.9036 N   0  0  0  0  0  0  0  0  0  0  0  0
  -25.3957  -34.2080   24.3857 N   0  0  0  0  0  0  0  0  0  0  0  0
  -19.7288  -31.8013   23.9778 N   0  0  0  0  0  0  0  0  0  0  0  0
  -17.5818  -30.7302   21.2739 N   0  3  0  0  0  0  0  0  0  0  0  0
  -28.2615   -9.3845   19.2631 O   0  0  0  0  0  0  0  0  0  0  0  0
  -25.7706  -31.9660   23.8801 O   0  0  0  0  0  0  0  0  0  0  0  0
  -21.7279  -33.8450   24.1651 O   0  0  0  0  0  0  0  0  0  0  0  0
  -19.6825  -29.7616   22.8756 O   0  0  0  0  0  0  0  0  0  0  0  0
  -27.9483  -16.5092   18.0924 O   0  0  0  0  0  0  0  0  0  0  0  0
  -21.2506   -7.2082   21.8510 O   0  0  0  0  0  0  0  0  0  0  0  0
  -25.4846  -27.2974   20.2897 O   0  0  0  0  0  0  0  0  0  1  0  0
  -22.7879   -2.6403   24.5297 F   0  0  0  0  0  0  0  0  0  0  0  0
  -20.1900   -6.5920   24.3285 F   0  0  0  0  0  0  0  0  0  0  0  0
  1  2  1  0  0  0  0
  1  5  2  0  0  0  0
  2  6  2  0  0  0  0
  3 12  2  0  0  0  0
  3 19  1  0  0  0  0
  4 13  1  0  0  0  0
  4 19  2  0  0  0  0
  5 21  1  0  0  0  0
  6 23  1  0  0  0  0
  7 14  2  0  0  0  0
  7 22  1  0  0  0  0
  8 10  2  0  0  0  0
  8 25  1  0  0  0  0
  9 11  1  0  0  0  0
  9 25  2  0  0  0  0
 10 26  1  0  0  0  0
 11 26  2  0  0  0  0
 12 27  1  0  0  0  0
 13 27  2  0  0  0  0
 14 28  1  0  0  0  0
 15 16  2  0  0  0  0
 15 29  1  0  0  0  0
 16 30  1  0  0  0  0
 17 24  1  0  0  0  0
 17 28  2  0  0  0  0
 18 30  2  0  0  0  0
 18 31  1  0  0  0  0
 19 32  1  0  0  0  0
 20 32  1  0  0  0  0
 20 33  2  0  0  0  0
 20 34  1  0  0  0  0
 21 23  2  0  0  0  0
 21 39  1  0  0  0  0
 22 24  2  0  0  0  0
 22 40  1  0  0  0  0
 23 52  1  0  0  0  0
 24 41  1  0  0  0  0
 25 60  1  0  0  0  0
 26 66  1  0  0  0  0
 27 80  1  0  0  0  0
 28 81  1  0  0  0  0
 29 31  2  0  0  0  0
 29 80  1  0  0  0  0
 30 82  1  0  0  0  0
 31 83  1  0  0  0  0
 32 64  2  0  0  0  0
 33 65  1  0  0  0  0
 33 70  1  0  0  0  0
 34 71  1  0  0  0  0
 34 75  2  0  0  0  0
 35 53  1  0  0  0  0
 35 72  1  0  0  0  0
 35 76  2  0  0  0  0
 36 61  1  0  0  0  0
 36 67  1  0  0  0  0
 36 77  2  0  0  0  0
 37 62  1  0  0  0  0
 37 73  1  0  0  0  0
 37 78  2  0  0  0  0
 38 68  1  0  0  0  0
 38 69  1  0  0  0  0
 38 79  2  0  0  0  0
 39 42  1  0  0  0  0
 40 53  1  0  0  0  0
 41 67  1  0  0  0  0
 42 44  1  0  0  0  0
 43 45  1  0  0  0  0
 43 46  1  0  0  0  0
 44 52  1  0  0  0  0
 45 54  1  0  0  0  0
 46 68  1  0  0  0  0
 47 49  1  0  0  0  0
 47 66  1  0  0  0  0
 48 50  1  0  0  0  0
 48 66  1  0  0  0  0
 49 69  1  0  0  0  0
 50 69  1  0  0  0  0
 51 54  1  0  0  0  0
 51 68  1  0  0  0  0
 52 72  1  0  0  0  0
 53 67  1  0  0  0  0
 54 65  1  0  0  0  0
 55 62  1  0  0  0  0
 56 63  1  0  0  0  0
 57 63  1  0  0  0  0
 58 63  1  0  0  0  0
 59 74  1  0  0  0  0
 60 81  1  0  0  0  0
 61 63  1  0  0  0  0
 61 73  1  0  0  0  0
 62 74  1  0  0  0  0
 64 65  1  0  0  0  0
M  CHG  1  74   1
M  ISO  4  38 100  60 101  69 100  81 101
M  END
> <Batch ID>
0006

> <Smiles>
CNC(C)C(=O)NC(C(=O)N1Cc2cc([101O:1][101CH2:1]c3ccc(N4CC[100N:0]([100C:0](=O)N5CCCC(n6nc(-c7ccc(Oc8ccc(F)cc8F)cc7)c(C(N)=O)c6N)C5)CC4)cc3)ccc2CC1C(=O)NC1CCCc2ccccc21)C(C)(C)C

> <Shape>
0.274

> <Color>
0.092

> <Negative vol penalty>
0.000

$$$$

  -OEChem-04042320293D

 96107  0     1  0  0  0  0  0999 V2000
  -24.3211  -18.7026   15.5374 C   0  0  0  0  0  0  0  0  0  0  0  0
  -23.7808  -18.7691   16.8177 C   0  0  0  0  0  0  0  0  0  0  0  0
  -23.0743   -9.8708   19.9382 C   0  0  0  0  0  0  0  0  0  0  0  0
  -23.8356   -9.8722   22.2311 C   0  0  0  0  0  0  0  0  0  0  0  0
  -31.3547  -19.0713   20.5829 C   0  0  0  0  0  0  0  0  0  0  0  0
  -25.5164  -19.3609   15.2514 C   0  0  0  0  0  0  0  0  0  0  0  0
  -24.4362  -19.4931   17.8130 C   0  0  0  0  0  0  0  0  0  0  0  0
  -23.1018  -23.4742   23.6171 C   0  0  0  0  0  0  0  0  0  0  0  0
  -30.3573  -23.1629   27.3918 C   0  0  0  0  0  0  0  0  0  0  0  0
  -31.1654  -17.6887   20.5949 C   0  0  0  0  0  0  0  0  0  0  0  0
  -22.3299   -8.7176   20.1860 C   0  0  0  0  0  0  0  0  0  0  0  0
  -23.0911   -8.7190   22.4790 C   0  0  0  0  0  0  0  0  0  0  0  0
  -23.4602  -23.5733   24.9608 C   0  0  0  0  0  0  0  0  0  0  0  0
  -19.8628   -7.9220   23.0817 C   0  0  0  0  0  0  0  0  0  0  0  0
  -31.3534  -22.8814   26.4568 C   0  0  0  0  0  0  0  0  0  0  0  0
  -19.1065   -7.8799   24.2530 C   0  0  0  0  0  0  0  0  0  0  0  0
  -29.5180  -17.8734   22.3871 C   0  0  0  0  0  0  0  0  0  0  0  0
  -25.4778  -24.7358   24.3307 C   0  0  0  0  0  0  0  0  0  0  0  0
  -28.7117  -23.2128   25.6236 C   0  0  0  0  0  0  0  0  0  0  0  0
  -20.3471   -5.9401   24.9844 C   0  0  0  0  0  0  0  0  0  0  0  0
  -23.8273  -10.4481   20.9607 C   0  0  0  0  0  0  0  0  0  0  0  0
  -30.6148  -19.8171   21.4797 C   0  0  0  0  0  0  0  0  0  0  0  0
  -24.1707  -12.9733   20.8460 C   0  0  0  0  0  0  0  0  0  0  0  0
  -26.1817  -20.1013   16.2412 C   0  0  0  0  0  0  0  0  0  0  0  0
  -23.9355  -23.9964   22.6177 C   0  0  0  0  0  0  0  0  0  0  0  0
  -25.6422  -20.1608   17.5403 C   0  0  0  0  0  0  0  0  0  0  0  0
  -29.7089  -19.2420   22.3720 C   0  0  0  0  0  0  0  0  0  0  0  0
  -25.1266  -24.6443   22.9753 C   0  0  0  0  0  0  0  0  0  0  0  0
  -29.0364  -23.3285   26.9752 C   0  0  0  0  0  0  0  0  0  0  0  0
  -29.7078  -22.9313   24.6886 C   0  0  0  0  0  0  0  0  0  0  0  0
  -30.2553  -17.0947   21.4888 C   0  0  0  0  0  0  0  0  0  0  0  0
  -22.3382   -8.1417   21.4564 C   0  0  0  0  0  0  0  0  0  0  0  0
  -24.6497  -24.2017   25.3176 C   0  0  0  0  0  0  0  0  0  0  0  0
  -20.8612   -6.9730   22.8617 C   0  0  0  0  0  0  0  0  0  0  0  0
  -19.3487   -6.8890   25.2043 C   0  0  0  0  0  0  0  0  0  0  0  0
  -31.0287  -22.7656   25.1052 C   0  0  0  0  0  0  0  0  0  0  0  0
  -21.1034   -5.9821   23.8131 C   0  0  0  0  0  0  0  0  0  0  0  0
  -24.5970  -11.6390   20.7051 C   0  0  0  0  0  0  0  0  0  0  0  0
  -25.2631  -13.7229   20.4837 C   0  0  0  0  0  0  0  0  0  0  0  0
  -30.6094  -21.2694   21.6880 C   0  0  0  0  0  0  0  0  0  0  0  0
  -22.9008  -13.4890   21.2668 C   0  0  0  0  0  0  0  0  0  0  0  0
  -25.5283  -22.7674   20.1567 C   0  0  0  0  0  0  0  0  0  0  0  0
  -26.1505  -25.8835   19.5048 C   0  0  0  0  0  0  0  0  0  0  0  0
  -26.4374  -29.0831   20.6567 C   0  0  0  0  0  0  0  0  0  0  0  0
  -30.7301  -14.7645   20.6574 C   0  0  0  0  0  0  0  0  0  0  0  0
  -27.4957  -20.7569   15.8970 C   0  0  0  0  0  0  0  0  0  0  0  0
  -23.5218  -23.9049   21.1745 C   0  0  0  0  0  0  0  0  0  0  0  0
  -29.0645  -20.2930   23.2099 C   0  0  0  0  0  0  0  0  0  0  0  0
  -26.0466  -25.2394   21.9419 C   0  0  0  0  0  0  0  0  0  0  0  0
  -27.9333  -21.8123   16.9094 C   0  0  0  0  0  0  0  0  0  0  0  0
  -29.6126  -12.3567   18.2845 C   0  0  0  0  0  0  0  0  0  0  0  0
  -25.9468  -20.7629   29.1820 C   0  0  0  0  0  0  0  0  0  0  0  0
  -27.7766  -21.2849   18.3320 C   0  0  0  0  0  0  0  0  0  0  0  0
  -28.1731  -12.0651   18.7143 C   0  0  0  0  0  0  0  0  0  0  0  0
  -25.1778  -21.9960   29.6207 C   0  0  0  0  0  0  0  0  0  0  0  0
  -30.5286  -12.5822   19.4861 C   0  0  0  0  0  0  0  0  0  0  0  0
  -28.6230  -13.3049   20.8701 C   0  0  0  0  0  0  0  0  0  0  0  0
  -27.2780  -21.3336   28.7477 C   0  0  0  0  0  0  0  0  0  0  0  0
  -26.3107  -20.9566   18.6403 C   0  0  1  0  0  0  0  0  0  0  0  0
  -24.6965  -24.0177   20.2078 C   0  0  1  0  0  0  0  0  0  0  0  0
  -27.6493  -13.1348   19.6925 C   0  0  2  0  0  0  0  0  0  0  0  0
  -25.5700  -23.0824   28.6195 C   0  0  2  0  0  0  0  0  0  0  0  0
  -26.9954  -31.4083   19.8953 C   0  0  0  0  0  0  0  0  0  0  0  0
  -29.1111  -25.1485   19.4377 C   0  0  0  0  0  0  0  0  0  0  0  0
  -29.6491  -27.5863   19.6280 C   0  0  0  0  0  0  0  0  0  0  0  0
  -28.3904  -26.7394   17.6478 C   0  0  0  0  0  0  0  0  0  0  0  0
  -23.7617  -30.0974   21.4122 C   0  0  0  0  0  0  0  0  0  0  0  0
  -29.3580  -22.8092   23.2439 C   0  0  0  0  0  0  0  0  0  0  0  0
  -27.9651  -23.6310   27.9810 C   0  0  0  0  0  0  0  0  0  0  0  0
  -24.5543  -23.2621   27.5003 C   0  0  0  0  0  0  0  0  0  1  0  0
  -27.2334  -26.8613   19.8924 C   0  0  1  0  0  0  0  0  0  0  0  0
  -25.8853  -30.3961   20.1315 C   0  0  2  0  0  0  0  0  0  0  0  0
  -28.5799  -26.5710   19.1711 C   0  0  0  0  0  0  0  0  0  0  0  0
  -25.8615  -11.5433   20.2858 N   0  0  0  0  0  0  0  0  0  0  0  0
  -26.2392  -12.8269   20.1601 N   0  0  0  0  0  0  0  0  0  0  0  0
  -29.6906  -21.5139   22.7074 N   0  0  0  0  0  0  0  0  0  0  0  0
  -25.6013  -25.1189   20.5438 N   0  0  0  0  0  0  0  0  0  0  0  0
  -29.9709  -13.6115   20.3661 N   0  0  0  0  0  0  0  0  0  0  0  0
  -25.4743  -15.0543   20.4135 N   0  0  0  0  0  0  0  0  0  0  0  0
  -21.8885  -12.5798   21.6027 N   0  0  0  0  0  0  0  0  0  0  0  0
  -30.0838  -15.6882   21.4782 N   0  0  0  0  0  0  0  0  0  0  0  0
  -25.5677  -22.1684   18.9121 N   0  0  0  0  0  0  0  0  0  0  0  0
  -26.6929  -28.1918   19.6361 N   0  0  0  0  0  0  0  0  0  0  0  0
  -26.8856  -22.5962   28.0166 N   0  3  1  0  0  0  0  0  0  0  0  0
  -24.9183  -30.9777   21.1050 N   0  3  0  0  0  0  0  0  0  0  0  0
  -31.2980  -22.0514   21.0587 O   0  0  0  0  0  0  0  0  0  0  0  0
  -22.6654  -14.7196   21.3270 O   0  0  0  0  0  0  0  0  0  0  0  0
  -26.0936  -22.3760   21.1710 O   0  0  0  0  0  0  0  0  0  0  0  0
  -25.7997  -25.8062   18.3247 O   0  0  0  0  0  0  0  0  0  0  0  0
  -26.6270  -28.8709   21.8523 O   0  0  0  0  0  0  0  0  0  0  0  0
  -31.8590  -14.9335   20.1895 O   0  0  0  0  0  0  0  0  0  0  0  0
  -21.6117   -7.0165   21.6987 O   0  0  0  0  0  0  0  0  0  0  0  0
  -25.0021  -24.2992   26.6284 O   0  0  0  0  0  0  0  0  0  1  0  0
  -18.6234   -6.8497   26.3298 F   0  0  0  0  0  0  0  0  0  0  0  0
  -31.9931  -22.4965   24.2140 F   0  0  0  0  0  0  0  0  0  0  0  0
  -22.0620   -5.0684   23.6078 F   0  0  0  0  0  0  0  0  0  0  0  0
  1  2  1  0  0  0  0
  1  6  2  0  0  0  0
  2  7  2  0  0  0  0
  3 11  2  0  0  0  0
  3 21  1  0  0  0  0
  4 12  1  0  0  0  0
  4 21  2  0  0  0  0
  5 10  2  0  0  0  0
  5 22  1  0  0  0  0
  6 24  1  0  0  0  0
  7 26  1  0  0  0  0
  8 13  2  0  0  0  0
  8 25  1  0  0  0  0
  9 15  2  0  0  0  0
  9 29  1  0  0  0  0
 10 31  1  0  0  0  0
 11 32  1  0  0  0  0
 12 32  2  0  0  0  0
 13 33  1  0  0  0  0
 14 16  2  0  0  0  0
 14 34  1  0  0  0  0
 15 36  1  0  0  0  0
 16 35  1  0  0  0  0
 17 27  1  0  0  0  0
 17 31  2  0  0  0  0
 18 28  1  0  0  0  0
 18 33  2  0  0  0  0
 19 29  2  0  0  0  0
 19 30  1  0  0  0  0
 20 35  2  0  0  0  0
 20 37  1  0  0  0  0
 21 38  1  0  0  0  0
 22 27  2  0  0  0  0
 22 40  1  0  0  0  0
 23 38  1  0  0  0  0
 23 39  2  0  0  0  0
 23 41  1  0  0  0  0
 24 26  2  0  0  0  0
 24 46  1  0  0  0  0
 25 28  2  0  0  0  0
 25 47  1  0  0  0  0
 26 59  1  0  0  0  0
 27 48  1  0  0  0  0
 28 49  1  0  0  0  0
 29 69  1  0  0  0  0
 30 36  2  0  0  0  0
 30 68  1  0  0  0  0
 31 81  1  0  0  0  0
 32 92  1  0  0  0  0
 33 93  1  0  0  0  0
 34 37  2  0  0  0  0
 34 92  1  0  0  0  0
 35 94  1  0  0  0  0
 36 95  1  0  0  0  0
 37 96  1  0  0  0  0
 38 74  2  0  0  0  0
 39 75  1  0  0  0  0
 39 79  1  0  0  0  0
 40 76  1  0  0  0  0
 40 86  2  0  0  0  0
 41 80  1  0  0  0  0
 41 87  2  0  0  0  0
 42 60  1  0  0  0  0
 42 82  1  0  0  0  0
 42 88  2  0  0  0  0
 43 71  1  0  0  0  0
 43 77  1  0  0  0  0
 43 89  2  0  0  0  0
 44 72  1  0  0  0  0
 44 83  1  0  0  0  0
 44 90  2  0  0  0  0
 45 78  1  0  0  0  0
 45 81  1  0  0  0  0
 45 91  2  0  0  0  0
 46 50  1  0  0  0  0
 47 60  1  0  0  0  0
 48 76  1  0  0  0  0
 49 77  1  0  0  0  0
 50 53  1  0  0  0  0
 51 54  1  0  0  0  0
 51 56  1  0  0  0  0
 52 55  1  0  0  0  0
 52 58  1  0  0  0  0
 53 59  1  0  0  0  0
 54 61  1  0  0  0  0
 55 62  1  0  0  0  0
 56 78  1  0  0  0  0
 57 61  1  0  0  0  0
 57 78  1  0  0  0  0
 58 84  1  0  0  0  0
 59 82  1  0  0  0  0
 60 77  1  0  0  0  0
 61 75  1  0  0  0  0
 62 70  1  0  0  0  0
 62 84  1  0  0  0  0
 63 72  1  0  0  0  0
 64 73  1  0  0  0  0
 65 73  1  0  0  0  0
 66 73  1  0  0  0  0
 67 85  1  0  0  0  0
 68 76  1  0  0  0  0
 69 84  1  0  0  0  0
 70 93  1  0  0  0  0
 71 73  1  0  0  0  0
 71 83  1  0  0  0  0
 72 85  1  0  0  0  0
 74 75  1  0  0  0  0
M  CHG  2  84   1  85   1
M  ISO  4  45 100  70 101  81 100  93 101
M  END
> <Batch ID>
0006

> <Smiles>
CNC(C)C(=O)NC(C(=O)N1Cc2cc([101O:1][101CH2:1]C3CCCN3Cc3ccc(F)c(CN4Cc5cc([100NH:0][100C:0](=O)N6CCCC(n7nc(-c8ccc(Oc9ccc(F)cc9F)cc8)c(C(N)=O)c7N)C6)ccc5C4=O)c3)ccc2CC1C(=O)NC1CCCc2ccccc21)C(C)(C)C

> <Shape>
0.248

> <Color>
0.176

> <Negative vol penalty>
0.000

$$$$

  -OEChem-04042320293D

 86 95  0     1  0  0  0  0  0999 V2000
  -28.8150  -32.1232   21.2099 C   0  0  0  0  0  0  0  0  0  0  0  0
  -28.9134  -30.7357   21.1833 C   0  0  0  0  0  0  0  0  0  0  0  0
  -22.9798   -9.9818   19.9775 C   0  0  0  0  0  0  0  0  0  0  0  0
  -23.6294   -9.9722   22.3045 C   0  0  0  0  0  0  0  0  0  0  0  0
  -28.2725  -32.7612   22.3246 C   0  0  0  0  0  0  0  0  0  0  0  0
  -28.4702  -29.9855   22.2720 C   0  0  0  0  0  0  0  0  0  0  0  0
  -25.7369  -25.9586   20.8728 C   0  0  0  0  0  0  0  0  0  0  0  0
  -22.1476   -8.8859   20.2052 C   0  0  0  0  0  0  0  0  0  0  0  0
  -22.7971   -8.8762   22.5323 C   0  0  0  0  0  0  0  0  0  0  0  0
  -26.4351  -24.8480   20.4009 C   0  0  0  0  0  0  0  0  0  0  0  0
  -22.8854   -5.5340   22.0295 C   0  0  0  0  0  0  0  0  0  0  0  0
  -23.3945   -4.4803   22.7885 C   0  0  0  0  0  0  0  0  0  0  0  0
  -26.2027  -23.7929   22.5577 C   0  0  0  0  0  0  0  0  0  0  0  0
  -29.3486  -17.3865   21.4448 C   0  0  0  0  0  0  0  0  0  0  0  0
  -30.8459  -19.5996   20.6429 C   0  0  0  0  0  0  0  0  0  0  0  0
  -21.6304   -4.7952   24.4090 C   0  0  0  0  0  0  0  0  0  0  0  0
  -23.7208  -10.5250   21.0271 C   0  0  0  0  0  0  0  0  0  0  0  0
  -24.2404  -13.0189   20.8934 C   0  0  0  0  0  0  0  0  0  0  0  0
  -27.8136  -32.0179   23.4235 C   0  0  0  0  0  0  0  0  0  0  0  0
  -25.2750  -25.9994   22.1962 C   0  0  0  0  0  0  0  0  0  0  0  0
  -27.9223  -30.6143   23.4030 C   0  0  0  0  0  0  0  0  0  0  0  0
  -25.4967  -24.9042   23.0433 C   0  0  0  0  0  0  0  0  0  0  0  0
  -30.7156  -17.4395   21.7172 C   0  0  0  0  0  0  0  0  0  0  0  0
  -22.0563   -8.3331   21.4826 C   0  0  0  0  0  0  0  0  0  0  0  0
  -26.6706  -23.7661   21.2442 C   0  0  0  0  0  0  0  0  0  0  0  0
  -21.7488   -6.2184   22.4603 C   0  0  0  0  0  0  0  0  0  0  0  0
  -29.4789  -19.5466   20.3704 C   0  0  0  0  0  0  0  0  0  0  0  0
  -22.7671   -4.1109   23.9782 C   0  0  0  0  0  0  0  0  0  0  0  0
  -28.7303  -18.4400   20.7713 C   0  0  0  0  0  0  0  0  0  0  0  0
  -31.4642  -18.5461   21.3163 C   0  0  0  0  0  0  0  0  0  0  0  0
  -21.1213   -5.8490   23.6500 C   0  0  0  0  0  0  0  0  0  0  0  0
  -24.5811  -11.6568   20.7924 C   0  0  0  0  0  0  0  0  0  0  0  0
  -25.3973  -13.6868   20.5741 C   0  0  0  0  0  0  0  0  0  0  0  0
  -22.9899  -13.6263   21.2445 C   0  0  0  0  0  0  0  0  0  0  0  0
  -25.8388  -27.8580   24.7125 C   0  0  0  0  0  0  0  0  0  0  0  0
  -23.4605  -26.1042   26.0503 C   0  0  0  0  0  0  0  0  0  0  0  0
  -21.6778  -23.1943   26.0913 C   0  0  0  0  0  0  0  0  0  0  0  0
  -30.8650  -14.3660   20.9450 C   0  0  0  0  0  0  0  0  0  0  0  0
  -27.2783  -32.7547   24.6256 C   0  0  0  0  0  0  0  0  0  0  0  0
  -24.5002  -27.1936   22.6820 C   0  0  0  0  0  0  0  0  0  0  0  0
  -25.0041  -24.8900   24.4665 C   0  0  0  0  0  0  0  0  0  0  0  0
  -26.4874  -31.8661   25.5822 C   0  0  0  0  0  0  0  0  0  0  0  0
  -31.3041  -15.0297   24.4828 C   0  0  0  0  0  0  0  0  0  0  0  0
  -29.7349  -12.0366   18.5943 C   0  0  0  0  0  0  0  0  0  0  0  0
  -31.3322  -16.4646   23.9718 C   0  0  0  0  0  0  0  0  0  0  0  0
  -27.2393  -30.5657   25.8478 C   0  0  0  0  0  0  0  0  0  0  0  0
  -28.2694  -11.8176   18.9648 C   0  0  0  0  0  0  0  0  0  0  0  0
  -30.5967  -12.1676   19.8438 C   0  0  0  0  0  0  0  0  0  0  0  0
  -30.4350  -14.3223   23.4546 C   0  0  0  0  0  0  0  0  0  0  0  0
  -28.6903  -13.0722   21.1400 C   0  0  0  0  0  0  0  0  0  0  0  0
  -31.3825  -16.2960   22.4475 C   0  0  1  0  0  0  0  0  0  0  0  0
  -27.4297  -29.7645   24.5542 C   0  0  1  0  0  0  0  0  0  0  0  0
  -24.5233  -27.3436   24.2000 C   0  0  1  0  0  0  0  0  0  0  0  0
  -27.7733  -12.9258   19.9083 C   0  0  2  0  0  0  0  0  0  0  0  0
  -19.8224  -22.0380   27.3233 C   0  0  0  0  0  0  0  0  0  0  0  0
  -25.3656  -25.5124   28.3591 C   0  0  0  0  0  0  0  0  0  0  0  0
  -23.8452  -23.6446   29.0432 C   0  0  0  0  0  0  0  0  0  0  0  0
  -23.0103  -25.9953   29.0476 C   0  0  0  0  0  0  0  0  0  0  0  0
  -20.0036  -23.0352   23.6560 C   0  0  0  0  0  0  0  0  0  0  0  0
  -28.3281  -22.9080   19.7703 C   0  0  0  0  0  0  0  0  0  1  0  0
  -29.4325  -21.8763   19.8949 C   0  0  0  0  0  0  0  0  0  0  0  0
  -23.3943  -24.8205   26.8421 C   0  0  1  0  0  0  0  0  0  0  0  0
  -20.1842  -22.9287   26.1450 C   0  0  2  0  0  0  0  0  0  0  0  0
  -23.9149  -24.9940   28.2968 C   0  0  0  0  0  0  0  0  0  0  0  0
  -25.8547  -11.4688   20.4366 N   0  0  0  0  0  0  0  0  0  0  0  0
  -26.3244  -12.7217   20.3112 N   0  0  0  0  0  0  0  0  0  0  0  0
  -24.2570  -26.0835   24.8967 N   0  0  0  0  0  0  0  0  0  0  0  0
  -30.0947  -13.2156   20.7332 N   0  0  0  0  0  0  0  0  0  0  0  0
  -30.7572  -14.9892   22.1916 N   0  0  0  0  0  0  0  0  0  0  0  0
  -25.7018  -14.9996   20.4953 N   0  0  0  0  0  0  0  0  0  0  0  0
  -21.9032  -12.7932   21.5436 N   0  0  0  0  0  0  0  0  0  0  0  0
  -26.2029  -29.0863   24.1946 N   0  0  0  0  0  0  0  0  0  0  0  0
  -22.0140  -24.3565   26.7527 N   0  0  0  0  0  0  0  0  0  0  0  0
  -19.7319  -22.2586   24.8930 N   0  3  0  0  0  0  0  0  0  0  0  0
  -22.8362  -14.8708   21.2756 O   0  0  0  0  0  0  0  0  0  0  0  0
  -26.4756  -27.1906   25.5192 O   0  0  0  0  0  0  0  0  0  0  0  0
  -22.8230  -27.0868   26.4372 O   0  0  0  0  0  0  0  0  0  0  0  0
  -22.4678  -22.4437   25.5230 O   0  0  0  0  0  0  0  0  0  0  0  0
  -31.6273  -14.8031   20.0733 O   0  0  0  0  0  0  0  0  0  0  0  0
  -21.2441   -7.2638   21.7052 O   0  0  0  0  0  0  0  0  0  0  0  0
  -27.3571  -22.6737   20.7832 O   0  0  0  0  0  0  0  0  0  1  0  0
  -28.8771  -20.5747   19.7123 O   0  0  0  0  0  0  0  0  0  0  0  0
  -23.2552   -3.0980   24.7062 F   0  0  0  0  0  0  0  0  0  0  0  0
  -27.4167  -18.3830   20.5119 F   0  0  0  0  0  0  0  0  0  0  0  0
  -32.7781  -18.6064   21.5744 F   0  0  0  0  0  0  0  0  0  0  0  0
  -20.0284   -6.5019   24.0683 F   0  0  0  0  0  0  0  0  0  0  0  0
  1  2  1  0  0  0  0
  1  5  2  0  0  0  0
  2  6  2  0  0  0  0
  3  8  2  0  0  0  0
  3 17  1  0  0  0  0
  4  9  1  0  0  0  0
  4 17  2  0  0  0  0
  5 19  1  0  0  0  0
  6 21  1  0  0  0  0
  7 10  2  0  0  0  0
  7 20  1  0  0  0  0
  8 24  1  0  0  0  0
  9 24  2  0  0  0  0
 10 25  1  0  0  0  0
 11 12  2  0  0  0  0
 11 26  1  0  0  0  0
 12 28  1  0  0  0  0
 13 22  1  0  0  0  0
 13 25  2  0  0  0  0
 14 23  2  0  0  0  0
 14 29  1  0  0  0  0
 15 27  1  0  0  0  0
 15 30  2  0  0  0  0
 16 28  2  0  0  0  0
 16 31  1  0  0  0  0
 17 32  1  0  0  0  0
 18 32  1  0  0  0  0
 18 33  2  0  0  0  0
 18 34  1  0  0  0  0
 19 21  2  0  0  0  0
 19 39  1  0  0  0  0
 20 22  2  0  0  0  0
 20 40  1  0  0  0  0
 21 52  1  0  0  0  0
 22 41  1  0  0  0  0
 23 30  1  0  0  0  0
 23 51  1  0  0  0  0
 24 80  1  0  0  0  0
 25 81  1  0  0  0  0
 26 31  2  0  0  0  0
 26 80  1  0  0  0  0
 27 29  2  0  0  0  0
 27 82  1  0  0  0  0
 28 83  1  0  0  0  0
 29 84  1  0  0  0  0
 30 85  1  0  0  0  0
 31 86  1  0  0  0  0
 32 65  2  0  0  0  0
 33 66  1  0  0  0  0
 33 70  1  0  0  0  0
 34 71  1  0  0  0  0
 34 75  2  0  0  0  0
 35 53  1  0  0  0  0
 35 72  1  0  0  0  0
 35 76  2  0  0  0  0
 36 62  1  0  0  0  0
 36 67  1  0  0  0  0
 36 77  2  0  0  0  0
 37 63  1  0  0  0  0
 37 73  1  0  0  0  0
 37 78  2  0  0  0  0
 38 68  1  0  0  0  0
 38 69  1  0  0  0  0
 38 79  2  0  0  0  0
 39 42  1  0  0  0  0
 40 53  1  0  0  0  0
 41 67  1  0  0  0  0
 42 46  1  0  0  0  0
 43 45  1  0  0  0  0
 43 49  1  0  0  0  0
 44 47  1  0  0  0  0
 44 48  1  0  0  0  0
 45 51  1  0  0  0  0
 46 52  1  0  0  0  0
 47 54  1  0  0  0  0
 48 68  1  0  0  0  0
 49 69  1  0  0  0  0
 50 54  1  0  0  0  0
 50 68  1  0  0  0  0
 51 69  1  0  0  0  0
 52 72  1  0  0  0  0
 53 67  1  0  0  0  0
 54 66  1  0  0  0  0
 55 63  1  0  0  0  0
 56 64  1  0  0  0  0
 57 64  1  0  0  0  0
 58 64  1  0  0  0  0
 59 74  1  0  0  0  0
 60 61  1  0  0  0  0
 60 81  1  0  0  0  0
 61 82  1  0  0  0  0
 62 64  1  0  0  0  0
 62 73  1  0  0  0  0
 63 74  1  0  0  0  0
 65 66  1  0  0  0  0
M  CHG  1  74   1
M  ISO  4  38 100  60 101  69 100  81 101
M  END
> <Batch ID>
0006

> <Smiles>
CNC(C)C(=O)NC(C(=O)N1Cc2cc([101O:1][101CH2:1]COc3cc(F)c(C4CCC[100N:0]4[100C:0](=O)N4CCCC(n5nc(-c6ccc(Oc7ccc(F)cc7F)cc6)c(C(N)=O)c5N)C4)cc3F)ccc2CC1C(=O)NC1CCCc2ccccc21)C(C)(C)C

> <Shape>
0.281

> <Color>
0.214

> <Negative vol penalty>
0.000

$$$$

  -OEChem-04042320293D

 92102  0     1  0  0  0  0  0999 V2000
  -16.9959  -31.6795   18.5910 C   0  0  0  0  0  0  0  0  0  0  0  0
  -18.2388  -31.7169   17.9673 C   0  0  0  0  0  0  0  0  0  0  0  0
  -29.9350  -23.2466   16.7546 C   0  0  0  0  0  0  0  0  0  0  0  0
  -22.8892  -14.9153   20.8826 C   0  0  0  0  0  0  0  0  0  0  0  0
  -25.2548  -15.3360   21.1352 C   0  0  0  0  0  0  0  0  0  0  0  0
  -16.8829  -32.0194   19.9385 C   0  0  0  0  0  0  0  0  0  0  0  0
  -19.3694  -32.0952   18.6905 C   0  0  0  0  0  0  0  0  0  0  0  0
  -28.6808  -22.8523   17.2254 C   0  0  0  0  0  0  0  0  0  0  0  0
  -25.0144  -27.6665   19.3323 C   0  0  0  0  0  0  0  0  0  0  0  0
  -30.9725  -23.5536   17.6501 C   0  0  0  0  0  0  0  0  0  0  0  0
  -35.2191  -23.6066   20.5969 C   0  0  0  0  0  0  0  0  0  0  0  0
  -35.6583  -25.6564   19.3959 C   0  0  0  0  0  0  0  0  0  0  0  0
  -23.0516  -13.6556   21.4591 C   0  0  0  0  0  0  0  0  0  0  0  0
  -25.4173  -14.0763   21.7118 C   0  0  0  0  0  0  0  0  0  0  0  0
  -26.2177  -26.9607   19.3246 C   0  0  0  0  0  0  0  0  0  0  0  0
  -24.1519  -10.6045   20.5079 C   0  0  0  0  0  0  0  0  0  0  0  0
  -23.5180   -9.5247   19.8933 C   0  0  0  0  0  0  0  0  0  0  0  0
  -36.4181  -23.0729   20.1245 C   0  0  0  0  0  0  0  0  0  0  0  0
  -36.8573  -25.1227   18.9235 C   0  0  0  0  0  0  0  0  0  0  0  0
  -27.2215  -28.6354   20.7515 C   0  0  0  0  0  0  0  0  0  0  0  0
  -22.2700   -9.1043   21.9189 C   0  0  0  0  0  0  0  0  0  0  0  0
  -23.9908  -15.7554   20.7206 C   0  0  0  0  0  0  0  0  0  0  0  0
  -23.3377  -17.3449   18.8352 C   0  0  0  0  0  0  0  0  0  0  0  0
  -18.0142  -32.3927   20.6811 C   0  0  0  0  0  0  0  0  0  0  0  0
  -24.9054  -28.8529   20.0631 C   0  0  0  0  0  0  0  0  0  0  0  0
  -28.4911  -22.7771   18.5939 C   0  0  0  0  0  0  0  0  0  0  0  0
  -19.2713  -32.4417   20.0488 C   0  0  0  0  0  0  0  0  0  0  0  0
  -26.0150  -29.3402   20.7731 C   0  0  0  0  0  0  0  0  0  0  0  0
  -29.5240  -23.0825   19.4857 C   0  0  0  0  0  0  0  0  0  0  0  0
  -34.8392  -24.8983   20.2326 C   0  0  0  0  0  0  0  0  0  0  0  0
  -30.7709  -23.4718   19.0297 C   0  0  0  0  0  0  0  0  0  0  0  0
  -24.3156  -13.2361   21.8737 C   0  0  0  0  0  0  0  0  0  0  0  0
  -27.3186  -27.4441   20.0322 C   0  0  0  0  0  0  0  0  0  0  0  0
  -23.8449  -10.9342   21.8281 C   0  0  0  0  0  0  0  0  0  0  0  0
  -22.5771   -8.7746   20.5987 C   0  0  0  0  0  0  0  0  0  0  0  0
  -22.9040  -10.1841   22.5335 C   0  0  0  0  0  0  0  0  0  0  0  0
  -37.2372  -23.8309   19.2878 C   0  0  0  0  0  0  0  0  0  0  0  0
  -23.8237  -17.0566   20.1245 C   0  0  0  0  0  0  0  0  0  0  0  0
  -23.3734  -18.7155   18.7534 C   0  0  0  0  0  0  0  0  0  0  0  0
  -22.8936  -16.4536   17.8037 C   0  0  0  0  0  0  0  0  0  0  0  0
  -22.7247  -31.7096   21.1400 C   0  0  0  0  0  0  0  0  0  0  0  0
  -24.3987  -30.8977   23.5791 C   0  0  0  0  0  0  0  0  0  0  0  0
  -26.1196  -29.4248   26.1298 C   0  0  0  0  0  0  0  0  0  0  0  0
  -26.7679  -22.6858   21.8422 C   0  0  0  0  0  0  0  0  0  0  0  0
  -17.8351  -32.7971   22.1230 C   0  0  0  0  0  0  0  0  0  0  0  0
  -23.6473  -29.6780   20.0500 C   0  0  0  0  0  0  0  0  0  0  0  0
  -27.2648  -22.3642   19.3412 C   0  0  0  0  0  0  0  0  0  0  0  0
  -25.8619  -30.6387   21.5169 C   0  0  0  0  0  0  0  0  0  0  0  0
  -29.0559  -22.9267   20.8932 C   0  0  0  0  0  0  0  0  0  0  0  0
  -19.1402  -32.8255   22.9142 C   0  0  0  0  0  0  0  0  0  0  0  0
  -23.1175  -22.6464   21.4804 C   0  0  0  0  0  0  0  0  0  0  0  0
  -20.2276  -33.5472   22.1246 C   0  0  0  0  0  0  0  0  0  0  0  0
  -22.8436  -21.2137   21.0175 C   0  0  0  0  0  0  0  0  0  0  0  0
  -24.3560  -22.7345   22.3700 C   0  0  0  0  0  0  0  0  0  0  0  0
  -25.2897  -20.7011   21.3406 C   0  0  0  0  0  0  0  0  0  0  0  0
  -20.5248  -32.8230   20.8061 C   0  0  1  0  0  0  0  0  0  0  0  0
  -23.3716  -30.3794   21.3921 C   0  0  1  0  0  0  0  0  0  0  0  0
  -24.0977  -20.5830   20.3819 C   0  0  1  0  0  0  0  0  0  0  0  0
  -26.5530  -29.6343   28.5927 C   0  0  0  0  0  0  0  0  0  0  0  0
  -26.2743  -33.2433   23.0458 C   0  0  0  0  0  0  0  0  0  0  0  0
  -27.3543  -32.7909   25.2587 C   0  0  0  0  0  0  0  0  0  0  0  0
  -24.9450  -33.4289   25.1560 C   0  0  0  0  0  0  0  0  0  0  0  0
  -24.9685  -26.7539   26.6774 C   0  0  0  0  0  0  0  0  0  0  0  0
  -33.5504  -25.4734   20.7418 C   0  0  0  0  0  0  0  0  0  0  0  0
  -31.8764  -23.7984   19.9718 C   0  0  0  0  0  0  0  0  0  0  0  0
  -30.3722  -26.1783   18.7993 C   0  0  0  0  0  0  0  0  0  0  0  0
  -31.2891  -26.2180   20.0111 C   0  0  0  0  0  0  0  0  0  0  0  0
  -25.6513  -31.1265   24.3864 C   0  0  1  0  0  0  0  0  0  0  0  0
  -25.6873  -28.9928   27.5194 C   0  0  2  0  0  0  0  0  0  0  0  0
  -26.0548  -32.6270   24.4419 C   0  0  0  0  0  0  0  0  0  0  0  0
  -24.1448  -18.1556   20.8123 N   0  0  0  0  0  0  0  0  0  0  0  0
  -23.8601  -19.1479   19.9519 N   0  0  0  0  0  0  0  0  0  0  0  0
  -24.5629  -30.6722   22.2070 N   0  0  0  0  0  0  0  0  0  0  0  0
  -27.6396  -22.5473   20.7591 N   0  0  0  0  0  0  0  0  0  0  0  0
  -25.5040  -22.0989   21.7255 N   0  0  0  0  0  0  0  0  0  0  0  0
  -23.0358  -19.5810   17.7738 N   0  0  0  0  0  0  0  0  0  0  0  0
  -22.9227  -15.0749   18.0539 N   0  0  0  0  0  0  0  0  0  0  0  0
  -21.3472  -31.6563   21.0445 N   0  0  0  0  0  0  0  0  0  0  0  0
  -25.4106  -30.5239   25.6931 N   0  0  0  0  0  0  0  0  0  0  0  0
  -29.3267  -27.1895   18.9105 N   0  0  0  0  0  0  0  0  0  1  0  0
  -25.7888  -27.5123   27.6566 N   0  3  0  0  0  0  0  0  0  0  0  0
  -32.3802  -25.1941   19.8349 N   0  3  1  0  0  0  0  0  0  0  0  0
  -22.4986  -16.8667   16.6871 O   0  0  0  0  0  0  0  0  0  0  0  0
  -23.4229  -32.7118   21.0408 O   0  0  0  0  0  0  0  0  0  0  0  0
  -23.3026  -30.9233   24.1460 O   0  0  0  0  0  0  0  0  0  0  0  0
  -27.0008  -28.8476   25.4968 O   0  0  0  0  0  0  0  0  0  0  0  0
  -27.0808  -23.3475   22.8402 O   0  0  0  0  0  0  0  0  0  0  0  0
  -24.4745  -12.0070   22.4366 O   0  0  0  0  0  0  0  0  0  0  0  0
  -28.5007  -26.7408   20.0240 O   0  0  0  0  0  0  0  0  0  1  0  0
  -21.9673   -7.7386   20.0079 F   0  0  0  0  0  0  0  0  0  0  0  0
  -22.6040  -10.4968   23.8016 F   0  0  0  0  0  0  0  0  0  0  0  0
  -38.7163  -23.1724   18.7053 Cl  0  0  0  0  0  0  0  0  0  0  0  0
  1  2  1  0  0  0  0
  1  6  2  0  0  0  0
  2  7  2  0  0  0  0
  3  8  1  0  0  0  0
  3 10  2  0  0  0  0
  4 13  2  0  0  0  0
  4 22  1  0  0  0  0
  5 14  1  0  0  0  0
  5 22  2  0  0  0  0
  6 24  1  0  0  0  0
  7 27  1  0  0  0  0
  8 26  2  0  0  0  0
  9 15  2  0  0  0  0
  9 25  1  0  0  0  0
 10 31  1  0  0  0  0
 11 18  2  0  0  0  0
 11 30  1  0  0  0  0
 12 19  1  0  0  0  0
 12 30  2  0  0  0  0
 13 32  1  0  0  0  0
 14 32  2  0  0  0  0
 15 33  1  0  0  0  0
 16 17  2  0  0  0  0
 16 34  1  0  0  0  0
 17 35  1  0  0  0  0
 18 37  1  0  0  0  0
 19 37  2  0  0  0  0
 20 28  1  0  0  0  0
 20 33  2  0  0  0  0
 21 35  2  0  0  0  0
 21 36  1  0  0  0  0
 22 38  1  0  0  0  0
 23 38  1  0  0  0  0
 23 39  2  0  0  0  0
 23 40  1  0  0  0  0
 24 27  2  0  0  0  0
 24 45  1  0  0  0  0
 25 28  2  0  0  0  0
 25 46  1  0  0  0  0
 26 29  1  0  0  0  0
 26 47  1  0  0  0  0
 27 56  1  0  0  0  0
 28 48  1  0  0  0  0
 29 31  2  0  0  0  0
 29 49  1  0  0  0  0
 30 64  1  0  0  0  0
 31 65  1  0  0  0  0
 32 88  1  0  0  0  0
 33 89  1  0  0  0  0
 34 36  2  0  0  0  0
 34 88  1  0  0  0  0
 35 90  1  0  0  0  0
 36 91  1  0  0  0  0
 37 92  1  0  0  0  0
 38 71  2  0  0  0  0
 39 72  1  0  0  0  0
 39 76  1  0  0  0  0
 40 77  1  0  0  0  0
 40 83  2  0  0  0  0
 41 57  1  0  0  0  0
 41 78  1  0  0  0  0
 41 84  2  0  0  0  0
 42 68  1  0  0  0  0
 42 73  1  0  0  0  0
 42 85  2  0  0  0  0
 43 69  1  0  0  0  0
 43 79  1  0  0  0  0
 43 86  2  0  0  0  0
 44 74  1  0  0  0  0
 44 75  1  0  0  0  0
 44 87  2  0  0  0  0
 45 50  1  0  0  0  0
 46 57  1  0  0  0  0
 47 74  1  0  0  0  0
 48 73  1  0  0  0  0
 49 74  1  0  0  0  0
 50 52  1  0  0  0  0
 51 53  1  0  0  0  0
 51 54  1  0  0  0  0
 52 56  1  0  0  0  0
 53 58  1  0  0  0  0
 54 75  1  0  0  0  0
 55 58  1  0  0  0  0
 55 75  1  0  0  0  0
 56 78  1  0  0  0  0
 57 73  1  0  0  0  0
 58 72  1  0  0  0  0
 59 69  1  0  0  0  0
 60 70  1  0  0  0  0
 61 70  1  0  0  0  0
 62 70  1  0  0  0  0
 63 81  1  0  0  0  0
 64 82  1  0  0  0  0
 65 82  1  0  0  0  0
 66 67  1  0  0  0  0
 66 80  1  0  0  0  0
 67 82  1  0  0  0  0
 68 70  1  0  0  0  0
 68 79  1  0  0  0  0
 69 81  1  0  0  0  0
 71 72  1  0  0  0  0
 80 89  1  0  0  0  0
M  CHG  2  81   1  82   1
M  ISO  4  44 100  74 100  80 101  89 101
M  END
> <Batch ID>
0006

> <Smiles>
CNC(C)C(=O)NC(C(=O)N1Cc2cc([101O:1][101NH:1]CCN(Cc3ccc(Cl)cc3)Cc3cccc4c3C[100N:0]([100C:0](=O)N3CCCC(n5nc(-c6ccc(Oc7ccc(F)cc7F)cc6)c(C(N)=O)c5N)C3)C4)ccc2CC1C(=O)NC1CCCc2ccccc21)C(C)(C)C

> <Shape>
0.236

> <Color>
0.054

> <Negative vol penalty>
0.000

$$$$

  -OEChem-04042320293D

 85 94  0     1  0  0  0  0  0999 V2000
  -31.3506  -23.4988   17.9548 C   0  0  0  0  0  0  0  0  0  0  0  0
  -30.0480  -23.9847   17.9594 C   0  0  0  0  0  0  0  0  0  0  0  0
  -24.5110  -13.8275   20.6323 C   0  0  0  0  0  0  0  0  0  0  0  0
  -26.6335  -13.2473   19.6345 C   0  0  0  0  0  0  0  0  0  0  0  0
  -32.2365  -23.8809   18.9599 C   0  0  0  0  0  0  0  0  0  0  0  0
  -29.6344  -24.8622   18.9623 C   0  0  0  0  0  0  0  0  0  0  0  0
  -24.4121  -22.7122   24.9631 C   0  0  0  0  0  0  0  0  0  0  0  0
  -25.1623  -26.8557   18.4831 C   0  0  0  0  0  0  0  0  0  0  0  0
  -23.4956  -22.7169   23.9137 C   0  0  0  0  0  0  0  0  0  0  0  0
  -24.4288  -12.5549   21.1975 C   0  0  0  0  0  0  0  0  0  0  0  0
  -26.5513  -11.9747   20.1996 C   0  0  0  0  0  0  0  0  0  0  0  0
  -23.9883  -26.1261   18.6656 C   0  0  0  0  0  0  0  0  0  0  0  0
  -23.6119   -9.4324   20.1940 C   0  0  0  0  0  0  0  0  0  0  0  0
  -22.3923   -8.7615   20.1036 C   0  0  0  0  0  0  0  0  0  0  0  0
  -25.2813  -22.2365   22.3646 C   0  0  0  0  0  0  0  0  0  0  0  0
  -23.6984  -27.1462   20.8323 C   0  0  0  0  0  0  0  0  0  0  0  0
  -22.2664   -8.6657   22.5144 C   0  0  0  0  0  0  0  0  0  0  0  0
  -25.6133  -14.1737   19.8508 C   0  0  0  0  0  0  0  0  0  0  0  0
  -24.7953  -16.0756   18.3604 C   0  0  0  0  0  0  0  0  0  0  0  0
  -31.8291  -24.7538   19.9822 C   0  0  0  0  0  0  0  0  0  0  0  0
  -25.7757  -22.4757   24.7240 C   0  0  0  0  0  0  0  0  0  0  0  0
  -25.6196  -27.7294   19.4801 C   0  0  0  0  0  0  0  0  0  0  0  0
  -30.5207  -25.2786   19.9721 C   0  0  0  0  0  0  0  0  0  0  0  0
  -26.2180  -22.2037   23.4133 C   0  0  0  0  0  0  0  0  0  0  0  0
  -24.8770  -27.8877   20.6589 C   0  0  0  0  0  0  0  0  0  0  0  0
  -23.9311  -22.4851   22.6140 C   0  0  0  0  0  0  0  0  0  0  0  0
  -25.4490  -11.6285   20.9812 C   0  0  0  0  0  0  0  0  0  0  0  0
  -23.2577  -26.2691   19.8416 C   0  0  0  0  0  0  0  0  0  0  0  0
  -24.1587   -9.7199   21.4446 C   0  0  0  0  0  0  0  0  0  0  0  0
  -21.7195   -8.3782   21.2638 C   0  0  0  0  0  0  0  0  0  0  0  0
  -23.4860   -9.3366   22.6048 C   0  0  0  0  0  0  0  0  0  0  0  0
  -25.6986  -15.4879   19.2663 C   0  0  0  0  0  0  0  0  0  0  0  0
  -25.3200  -17.3202   18.1110 C   0  0  0  0  0  0  0  0  0  0  0  0
  -23.5897  -15.5440   17.7950 C   0  0  0  0  0  0  0  0  0  0  0  0
  -28.2285  -27.9011   21.2878 C   0  0  0  0  0  0  0  0  0  0  0  0
  -26.9186  -30.7157   22.2282 C   0  0  0  0  0  0  0  0  0  0  0  0
  -24.1394  -32.8106   23.1795 C   0  0  0  0  0  0  0  0  0  0  0  0
  -28.9369  -20.9221   21.2408 C   0  0  0  0  0  0  0  0  0  0  0  0
  -32.8314  -25.1407   21.0410 C   0  0  0  0  0  0  0  0  0  0  0  0
  -26.7233  -22.4749   25.8976 C   0  0  0  0  0  0  0  0  0  0  0  0
  -26.8737  -28.5292   19.2566 C   0  0  0  0  0  0  0  0  0  0  0  0
  -25.3143  -28.8278   21.7514 C   0  0  0  0  0  0  0  0  0  0  0  0
  -32.1798  -25.7135   22.2954 C   0  0  0  0  0  0  0  0  0  0  0  0
  -28.1825  -22.6377   25.4845 C   0  0  0  0  0  0  0  0  0  0  0  0
  -29.4881  -19.6641   17.9559 C   0  0  0  0  0  0  0  0  0  0  0  0
  -31.1792  -26.7943   21.9141 C   0  0  0  0  0  0  0  0  0  0  0  0
  -28.5197  -21.6601   24.3671 C   0  0  0  0  0  0  0  0  0  0  0  0
  -28.4979  -18.5042   17.8375 C   0  0  0  0  0  0  0  0  0  0  0  0
  -30.0696  -19.7682   19.3641 C   0  0  0  0  0  0  0  0  0  0  0  0
  -28.0776  -18.6814   20.3256 C   0  0  0  0  0  0  0  0  0  0  0  0
  -30.0395  -26.2100   21.0699 C   0  0  1  0  0  0  0  0  0  0  0  0
  -27.6867  -21.9626   23.1151 C   0  0  1  0  0  0  0  0  0  0  0  0
  -27.5188  -29.0042   20.5549 C   0  0  1  0  0  0  0  0  0  0  0  0
  -27.4222  -18.5706   18.9383 C   0  0  2  0  0  0  0  0  0  0  0  0
  -24.0594  -35.2507   23.7598 C   0  0  0  0  0  0  0  0  0  0  0  0
  -27.2053  -29.7439   25.1063 C   0  0  0  0  0  0  0  0  0  0  0  0
  -25.6074  -31.5424   25.7992 C   0  0  0  0  0  0  0  0  0  0  0  0
  -27.7897  -32.1499   24.7545 C   0  0  0  0  0  0  0  0  0  0  0  0
  -22.0795  -33.3507   21.1243 C   0  0  0  0  0  0  0  0  0  0  0  0
  -21.1657  -23.3627   20.2368 C   0  0  0  0  0  0  0  0  0  0  0  0
  -21.7319  -23.1397   21.6340 C   0  0  0  0  0  0  0  0  0  0  0  0
  -22.0306  -24.2839   19.3845 C   0  0  0  0  0  0  0  0  0  1  0  0
  -25.9680  -31.1401   23.3215 C   0  0  1  0  0  0  0  0  0  0  0  0
  -23.8410  -34.2100   22.6725 C   0  0  2  0  0  0  0  0  0  0  0  0
  -26.6351  -31.1248   24.7258 C   0  0  0  0  0  0  0  0  0  0  0  0
  -26.7197  -16.2929   19.5716 N   0  0  0  0  0  0  0  0  0  0  0  0
  -26.4614  -17.3991   18.8535 N   0  0  0  0  0  0  0  0  0  0  0  0
  -26.5505  -29.5830   21.4884 N   0  0  0  0  0  0  0  0  0  0  0  0
  -28.9976  -19.8291   20.3606 N   0  0  0  0  0  0  0  0  0  0  0  0
  -24.9119  -18.3437   17.3312 N   0  0  0  0  0  0  0  0  0  0  0  0
  -22.3825  -15.7574   18.4742 N   0  0  0  0  0  0  0  0  0  0  0  0
  -23.0247  -22.5023   21.5654 N   0  0  0  0  0  0  0  0  0  0  0  0
  -29.2301  -27.2927   20.5555 N   0  0  0  0  0  0  0  0  0  0  0  0
  -25.4432  -32.4418   22.9234 N   0  0  0  0  0  0  0  0  0  0  0  0
  -27.8860  -20.9049   22.1496 N   0  0  0  0  0  0  0  0  0  0  0  0
  -22.4273  -34.3030   22.2101 N   0  3  0  0  0  0  0  0  0  0  0  0
  -23.5855  -14.8848   16.7277 O   0  0  0  0  0  0  0  0  0  0  0  0
  -27.8933  -27.6235   22.4333 O   0  0  0  0  0  0  0  0  0  0  0  0
  -27.9463  -31.3694   22.0329 O   0  0  0  0  0  0  0  0  0  0  0  0
  -23.3010  -32.1156   23.7492 O   0  0  0  0  0  0  0  0  0  0  0  0
  -29.7554  -21.8475   21.2149 O   0  0  0  0  0  0  0  0  0  0  0  0
  -25.3692  -10.3867   21.5327 O   0  0  0  0  0  0  0  0  0  0  0  0
  -22.1119  -25.5577   20.0226 O   0  0  0  0  0  0  0  0  0  1  0  0
  -20.5477   -7.7353   21.1769 F   0  0  0  0  0  0  0  0  0  0  0  0
  -24.0058   -9.6111   23.8091 F   0  0  0  0  0  0  0  0  0  0  0  0
  1  2  1  0  0  0  0
  1  5  2  0  0  0  0
  2  6  2  0  0  0  0
  3 10  2  0  0  0  0
  3 18  1  0  0  0  0
  4 11  1  0  0  0  0
  4 18  2  0  0  0  0
  5 20  1  0  0  0  0
  6 23  1  0  0  0  0
  7  9  2  0  0  0  0
  7 21  1  0  0  0  0
  8 12  2  0  0  0  0
  8 22  1  0  0  0  0
  9 26  1  0  0  0  0
 10 27  1  0  0  0  0
 11 27  2  0  0  0  0
 12 28  1  0  0  0  0
 13 14  2  0  0  0  0
 13 29  1  0  0  0  0
 14 30  1  0  0  0  0
 15 24  1  0  0  0  0
 15 26  2  0  0  0  0
 16 25  1  0  0  0  0
 16 28  2  0  0  0  0
 17 30  2  0  0  0  0
 17 31  1  0  0  0  0
 18 32  1  0  0  0  0
 19 32  1  0  0  0  0
 19 33  2  0  0  0  0
 19 34  1  0  0  0  0
 20 23  2  0  0  0  0
 20 39  1  0  0  0  0
 21 24  2  0  0  0  0
 21 40  1  0  0  0  0
 22 25  2  0  0  0  0
 22 41  1  0  0  0  0
 23 51  1  0  0  0  0
 24 52  1  0  0  0  0
 25 42  1  0  0  0  0
 26 72  1  0  0  0  0
 27 82  1  0  0  0  0
 28 83  1  0  0  0  0
 29 31  2  0  0  0  0
 29 82  1  0  0  0  0
 30 84  1  0  0  0  0
 31 85  1  0  0  0  0
 32 66  2  0  0  0  0
 33 67  1  0  0  0  0
 33 70  1  0  0  0  0
 34 71  1  0  0  0  0
 34 77  2  0  0  0  0
 35 53  1  0  0  0  0
 35 73  1  0  0  0  0
 35 78  2  0  0  0  0
 36 63  1  0  0  0  0
 36 68  1  0  0  0  0
 36 79  2  0  0  0  0
 37 64  1  0  0  0  0
 37 74  1  0  0  0  0
 37 80  2  0  0  0  0
 38 69  1  0  0  0  0
 38 75  1  0  0  0  0
 38 81  2  0  0  0  0
 39 43  1  0  0  0  0
 40 44  1  0  0  0  0
 41 53  1  0  0  0  0
 42 68  1  0  0  0  0
 43 46  1  0  0  0  0
 44 47  1  0  0  0  0
 45 48  1  0  0  0  0
 45 49  1  0  0  0  0
 46 51  1  0  0  0  0
 47 52  1  0  0  0  0
 48 54  1  0  0  0  0
 49 69  1  0  0  0  0
 50 54  1  0  0  0  0
 50 69  1  0  0  0  0
 51 73  1  0  0  0  0
 52 75  1  0  0  0  0
 53 68  1  0  0  0  0
 54 67  1  0  0  0  0
 55 64  1  0  0  0  0
 56 65  1  0  0  0  0
 57 65  1  0  0  0  0
 58 65  1  0  0  0  0
 59 76  1  0  0  0  0
 60 61  1  0  0  0  0
 60 62  1  0  0  0  0
 61 72  1  0  0  0  0
 62 83  1  0  0  0  0
 63 65  1  0  0  0  0
 63 74  1  0  0  0  0
 64 76  1  0  0  0  0
 66 67  1  0  0  0  0
M  CHG  1  76   1
M  ISO  4  38 100  62 101  75 100  83 101
M  END
> <Batch ID>
0006

> <Smiles>
CNC(C)C(=O)NC(C(=O)N1Cc2cc([101O:1][101CH2:1]CCNc3ccc4c(c3)C([100NH:0][100C:0](=O)N3CCCC(n5nc(-c6ccc(Oc7ccc(F)cc7F)cc6)c(C(N)=O)c5N)C3)CCC4)ccc2CC1C(=O)NC1CCCc2ccccc21)C(C)(C)C

> <Shape>
0.264

> <Color>
0.085

> <Negative vol penalty>
0.000

$$$$

  -OEChem-04042320293D

 99109  0     1  0  0  0  0  0999 V2000
  -24.8679  -37.4080   30.5167 C   0  0  0  0  0  0  0  0  0  0  0  0
  -25.7556  -36.3963   30.1686 C   0  0  0  0  0  0  0  0  0  0  0  0
  -28.6056  -28.0040   16.4480 C   0  0  0  0  0  0  0  0  0  0  0  0
  -22.7676  -10.4160   20.4103 C   0  0  0  0  0  0  0  0  0  0  0  0
  -24.4005   -8.9179   21.3729 C   0  0  0  0  0  0  0  0  0  0  0  0
  -23.5271  -37.3099   30.1509 C   0  0  0  0  0  0  0  0  0  0  0  0
  -25.3054  -35.2918   29.4445 C   0  0  0  0  0  0  0  0  0  0  0  0
  -29.2244  -31.1285   25.4604 C   0  0  0  0  0  0  0  0  0  0  0  0
  -29.6843  -27.9605   17.3312 C   0  0  0  0  0  0  0  0  0  0  0  0
  -29.7595  -19.2488   20.0308 C   0  0  0  0  0  0  0  0  0  0  0  0
  -29.8166  -17.8560   20.0770 C   0  0  0  0  0  0  0  0  0  0  0  0
  -27.4583  -27.2553   16.7108 C   0  0  0  0  0  0  0  0  0  0  0  0
  -21.8105   -9.9527   21.3130 C   0  0  0  0  0  0  0  0  0  0  0  0
  -23.4434   -8.4546   22.2756 C   0  0  0  0  0  0  0  0  0  0  0  0
  -30.0017  -30.2078   24.7574 C   0  0  0  0  0  0  0  0  0  0  0  0
  -19.8007   -7.2556   21.6458 C   0  0  0  0  0  0  0  0  0  0  0  0
  -18.5313   -6.9604   21.1486 C   0  0  0  0  0  0  0  0  0  0  0  0
  -28.0239  -28.9151   24.2424 C   0  0  0  0  0  0  0  0  0  0  0  0
  -27.3523  -19.1442   19.8521 C   0  0  0  0  0  0  0  0  0  0  0  0
  -17.5680   -8.6088   22.6291 C   0  0  0  0  0  0  0  0  0  0  0  0
  -24.0627   -9.8986   20.4402 C   0  0  0  0  0  0  0  0  0  0  0  0
  -24.9947  -10.3152   18.1024 C   0  0  0  0  0  0  0  0  0  0  0  0
  -23.0585  -36.1974   29.4328 C   0  0  0  0  0  0  0  0  0  0  0  0
  -27.8403  -30.9541   25.5442 C   0  0  0  0  0  0  0  0  0  0  0  0
  -23.9608  -35.1859   29.0453 C   0  0  0  0  0  0  0  0  0  0  0  0
  -27.2386  -29.8408   24.9347 C   0  0  0  0  0  0  0  0  0  0  0  0
  -29.6158  -27.1684   18.4772 C   0  0  0  0  0  0  0  0  0  0  0  0
  -28.4686  -26.4197   18.7401 C   0  0  0  0  0  0  0  0  0  0  0  0
  -28.5273  -19.8930   19.9184 C   0  0  0  0  0  0  0  0  0  0  0  0
  -28.6416  -17.1071   20.0107 C   0  0  0  0  0  0  0  0  0  0  0  0
  -22.1483   -8.9720   22.2456 C   0  0  0  0  0  0  0  0  0  0  0  0
  -29.4029  -29.1037   24.1502 C   0  0  0  0  0  0  0  0  0  0  0  0
  -27.3899  -26.4632   17.8569 C   0  0  0  0  0  0  0  0  0  0  0  0
  -19.9537   -8.2274   22.6347 C   0  0  0  0  0  0  0  0  0  0  0  0
  -17.4150   -7.6370   21.6402 C   0  0  0  0  0  0  0  0  0  0  0  0
  -27.4095  -17.7513   19.8982 C   0  0  0  0  0  0  0  0  0  0  0  0
  -18.8374   -8.9040   23.1263 C   0  0  0  0  0  0  0  0  0  0  0  0
  -25.0517  -10.3764   19.5077 C   0  0  0  0  0  0  0  0  0  0  0  0
  -26.1667  -10.8974   17.6855 C   0  0  0  0  0  0  0  0  0  0  0  0
  -23.9735   -9.7800   17.2501 C   0  0  0  0  0  0  0  0  0  0  0  0
  -24.5633  -32.2645   26.8170 C   0  0  0  0  0  0  0  0  0  0  0  0
  -24.0629  -31.2219   23.9757 C   0  0  0  0  0  0  0  0  0  0  0  0
  -24.2484  -30.8863   20.8523 C   0  0  0  0  0  0  0  0  0  0  0  0
  -29.8450  -14.8995   20.1672 C   0  0  0  0  0  0  0  0  0  0  0  0
  -21.5988  -36.1460   29.0559 C   0  0  0  0  0  0  0  0  0  0  0  0
  -26.9715  -31.8875   26.3429 C   0  0  0  0  0  0  0  0  0  0  0  0
  -25.7505  -29.6752   25.0803 C   0  0  0  0  0  0  0  0  0  0  0  0
  -21.1301  -34.7433   28.6831 C   0  0  0  0  0  0  0  0  0  0  0  0
  -30.6922  -11.6176   19.0769 C   0  0  0  0  0  0  0  0  0  0  0  0
  -22.0889  -34.1253   27.6764 C   0  0  0  0  0  0  0  0  0  0  0  0
  -29.3363  -10.9231   18.9299 C   0  0  0  0  0  0  0  0  0  0  0  0
  -30.7136  -12.5735   20.2684 C   0  0  0  0  0  0  0  0  0  0  0  0
  -27.2700  -21.9409   20.4154 C   0  0  0  0  0  0  0  0  0  0  0  0
  -29.1581  -22.0089   18.7951 C   0  0  0  0  0  0  0  0  0  0  0  0
  -28.2705  -12.8658   20.1453 C   0  0  0  0  0  0  0  0  0  0  0  0
  -27.5766  -23.3735   20.8303 C   0  0  0  0  0  0  0  0  0  0  0  0
  -29.4574  -23.4438   19.2100 C   0  0  0  0  0  0  0  0  0  0  0  0
  -23.4876  -33.9606   28.2843 C   0  0  1  0  0  0  0  0  0  0  0  0
  -25.5770  -32.0917   25.7243 C   0  0  1  0  0  0  0  0  0  0  0  0
  -28.1796  -11.9417   18.9199 C   0  0  2  0  0  0  0  0  0  0  0  0
  -24.1118  -26.3551   19.9467 C   0  0  0  0  0  0  0  0  0  0  0  0
  -23.9735  -30.6210   18.3721 C   0  0  0  0  0  0  0  0  0  0  0  0
  -22.8744  -28.6678   25.1454 C   0  0  0  0  0  0  0  0  0  0  0  0
  -22.1176  -28.0488   22.8405 C   0  0  0  0  0  0  0  0  0  0  0  0
  -21.2403  -30.1162   23.9264 C   0  0  0  0  0  0  0  0  0  0  0  0
  -23.8723  -33.7963   20.4657 C   0  0  0  0  0  0  0  0  0  0  0  0
  -28.3902  -25.5672   19.9663 C   0  0  0  0  0  0  0  0  0  0  0  0
  -30.7898  -27.1393   19.4110 C   0  0  0  0  0  0  0  0  0  0  0  0
  -23.9061  -25.8416   18.5330 C   0  0  0  0  0  0  0  0  0  0  0  0
  -31.6840  -27.8606   21.6289 C   0  0  0  0  0  0  0  0  0  0  0  0
  -25.0329  -26.2704   17.6056 C   0  0  0  0  0  0  0  0  0  0  0  0
  -31.3463  -28.7145   22.8351 C   0  0  0  0  0  0  0  0  0  1  0  0
  -23.6327  -30.0644   23.1105 C   0  0  1  0  0  0  0  0  0  0  0  0
  -23.6395  -31.4689   19.5896 C   0  0  2  0  0  0  0  0  0  0  0  0
  -22.4937  -29.2295   23.7610 C   0  0  0  0  0  0  0  0  0  0  0  0
  -26.1714  -10.9519   19.9537 N   0  0  0  0  0  0  0  0  0  0  0  0
  -26.8289  -11.2576   18.8222 N   0  0  0  0  0  0  0  0  0  0  0  0
  -28.4700  -21.2908   19.8726 N   0  0  0  0  0  0  0  0  0  0  0  0
  -25.0810  -30.9734   24.9043 N   0  0  0  0  0  0  0  0  0  0  0  0
  -29.5918  -13.5116   20.1894 N   0  0  0  0  0  0  0  0  0  0  0  0
  -26.6852  -11.1312   16.4613 N   0  0  0  0  0  0  0  0  0  0  0  0
  -22.8345   -9.2187   17.8432 N   0  0  0  0  0  0  0  0  0  0  0  0
  -28.7031  -15.6923   20.0574 N   0  0  0  0  0  0  0  0  0  0  0  0
  -24.4121  -33.5704   27.2427 N   0  0  0  0  0  0  0  0  0  0  0  0
  -23.2904  -30.6315   21.8107 N   0  0  0  0  0  0  0  0  0  0  0  0
  -28.1836  -24.1098   19.6631 N   0  3  0  0  0  0  0  0  0  0  0  0
  -24.1520  -32.8487   19.3563 N   0  3  0  0  0  0  0  0  0  0  0  0
  -30.5626  -27.9192   20.6576 N   0  3  0  0  0  0  0  0  0  0  0  0
  -24.0757   -9.7843   15.9998 O   0  0  0  0  0  0  0  0  0  0  0  0
  -23.9607  -31.2860   27.2425 O   0  0  0  0  0  0  0  0  0  0  0  0
  -23.5091  -32.3162   23.8381 O   0  0  0  0  0  0  0  0  0  0  0  0
  -25.4529  -30.6748   20.9747 O   0  0  0  0  0  0  0  0  0  0  0  0
  -30.9924  -15.3506   20.2127 O   0  0  0  0  0  0  0  0  0  0  0  0
  -21.2147   -8.5199   23.1267 O   0  0  0  0  0  0  0  0  0  0  0  0
  -30.1671  -28.2112   23.4616 O   0  0  0  0  0  0  0  0  0  1  0  0
  -26.2615  -25.7379   18.0961 O   0  0  0  0  0  0  0  0  0  0  0  0
  -16.1963   -7.3545   21.1615 F   0  0  0  0  0  0  0  0  0  0  0  0
  -26.2740  -17.0414   19.8333 F   0  0  0  0  0  0  0  0  0  0  0  0
  -18.9783   -9.8394   24.0755 F   0  0  0  0  0  0  0  0  0  0  0  0
  1  2  1  0  0  0  0
  1  6  2  0  0  0  0
  2  7  2  0  0  0  0
  3  9  1  0  0  0  0
  3 12  2  0  0  0  0
  4 13  2  0  0  0  0
  4 21  1  0  0  0  0
  5 14  1  0  0  0  0
  5 21  2  0  0  0  0
  6 23  1  0  0  0  0
  7 25  1  0  0  0  0
  8 15  2  0  0  0  0
  8 24  1  0  0  0  0
  9 27  2  0  0  0  0
 10 11  2  0  0  0  0
 10 29  1  0  0  0  0
 11 30  1  0  0  0  0
 12 33  1  0  0  0  0
 13 31  1  0  0  0  0
 14 31  2  0  0  0  0
 15 32  1  0  0  0  0
 16 17  2  0  0  0  0
 16 34  1  0  0  0  0
 17 35  1  0  0  0  0
 18 26  1  0  0  0  0
 18 32  2  0  0  0  0
 19 29  2  0  0  0  0
 19 36  1  0  0  0  0
 20 35  2  0  0  0  0
 20 37  1  0  0  0  0
 21 38  1  0  0  0  0
 22 38  1  0  0  0  0
 22 39  2  0  0  0  0
 22 40  1  0  0  0  0
 23 25  2  0  0  0  0
 23 45  1  0  0  0  0
 24 26  2  0  0  0  0
 24 46  1  0  0  0  0
 25 58  1  0  0  0  0
 26 47  1  0  0  0  0
 27 28  1  0  0  0  0
 27 68  1  0  0  0  0
 28 33  2  0  0  0  0
 28 67  1  0  0  0  0
 29 78  1  0  0  0  0
 30 36  2  0  0  0  0
 30 83  1  0  0  0  0
 31 94  1  0  0  0  0
 32 95  1  0  0  0  0
 33 96  1  0  0  0  0
 34 37  2  0  0  0  0
 34 94  1  0  0  0  0
 35 97  1  0  0  0  0
 36 98  1  0  0  0  0
 37 99  1  0  0  0  0
 38 76  2  0  0  0  0
 39 77  1  0  0  0  0
 39 81  1  0  0  0  0
 40 82  1  0  0  0  0
 40 89  2  0  0  0  0
 41 59  1  0  0  0  0
 41 84  1  0  0  0  0
 41 90  2  0  0  0  0
 42 73  1  0  0  0  0
 42 79  1  0  0  0  0
 42 91  2  0  0  0  0
 43 74  1  0  0  0  0
 43 85  1  0  0  0  0
 43 92  2  0  0  0  0
 44 80  1  0  0  0  0
 44 83  1  0  0  0  0
 44 93  2  0  0  0  0
 45 48  1  0  0  0  0
 46 59  1  0  0  0  0
 47 79  1  0  0  0  0
 48 50  1  0  0  0  0
 49 51  1  0  0  0  0
 49 52  1  0  0  0  0
 50 58  1  0  0  0  0
 51 60  1  0  0  0  0
 52 80  1  0  0  0  0
 53 56  1  0  0  0  0
 53 78  1  0  0  0  0
 54 57  1  0  0  0  0
 54 78  1  0  0  0  0
 55 60  1  0  0  0  0
 55 80  1  0  0  0  0
 56 86  1  0  0  0  0
 57 86  1  0  0  0  0
 58 84  1  0  0  0  0
 59 79  1  0  0  0  0
 60 77  1  0  0  0  0
 61 69  1  0  0  0  0
 62 74  1  0  0  0  0
 63 75  1  0  0  0  0
 64 75  1  0  0  0  0
 65 75  1  0  0  0  0
 66 87  1  0  0  0  0
 67 86  1  0  0  0  0
 68 88  1  0  0  0  0
 69 71  1  0  0  0  0
 70 72  1  0  0  0  0
 70 88  1  0  0  0  0
 71 96  1  0  0  0  0
 72 95  1  0  0  0  0
 73 75  1  0  0  0  0
 73 85  1  0  0  0  0
 74 87  1  0  0  0  0
 76 77  1  0  0  0  0
M  CHG  3  86   1  87   1  88   1
M  ISO  4  44 100  72 101  83 100  95 101
M  END
> <Batch ID>
0006

> <Smiles>
CCCOc1cccc(CNC[101CH2:1][101O:1]c2ccc3c(c2)CN(C(=O)C(NC(=O)C(C)NC)C(C)(C)C)C(C(=O)NC2CCCc4ccccc42)C3)c1CN1CCN(c2ccc([100NH:0][100C:0](=O)N3CCCC(n4nc(-c5ccc(Oc6ccc(F)cc6F)cc5)c(C(N)=O)c4N)C3)c(F)c2)CC1

> <Shape>
0.271

> <Color>
0.055

> <Negative vol penalty>
0.000

$$$$

  -OEChem-04042320293D

 84 92  0     1  0  0  0  0  0999 V2000
  -18.1388  -26.8788   23.3420 C   0  0  0  0  0  0  0  0  0  0  0  0
  -22.3404  -11.6720   18.6919 C   0  0  0  0  0  0  0  0  0  0  0  0
  -22.1263  -13.0356   18.5187 C   0  0  0  0  0  0  0  0  0  0  0  0
  -18.7638  -27.8973   24.0614 C   0  0  0  0  0  0  0  0  0  0  0  0
  -29.5065  -26.9352   18.2012 C   0  0  0  0  0  0  0  0  0  0  0  0
  -28.0424  -25.1335   18.8702 C   0  0  0  0  0  0  0  0  0  0  0  0
  -18.6334  -26.5022   22.0932 C   0  0  0  0  0  0  0  0  0  0  0  0
  -23.3001  -11.2281   19.6007 C   0  0  0  0  0  0  0  0  0  0  0  0
  -22.8711  -13.9563   19.2550 C   0  0  0  0  0  0  0  0  0  0  0  0
  -24.7991  -19.4625   17.3923 C   0  0  0  0  0  0  0  0  0  0  0  0
  -19.8832  -28.5395   23.5320 C   0  0  0  0  0  0  0  0  0  0  0  0
  -30.6027  -26.0772   18.2896 C   0  0  0  0  0  0  0  0  0  0  0  0
  -29.1386  -24.2755   18.9585 C   0  0  0  0  0  0  0  0  0  0  0  0
  -24.2987  -20.7484   17.5916 C   0  0  0  0  0  0  0  0  0  0  0  0
  -33.7416  -24.2682   17.9894 C   0  0  0  0  0  0  0  0  0  0  0  0
  -34.6737  -24.2981   16.9522 C   0  0  0  0  0  0  0  0  0  0  0  0
  -25.8159  -21.0451   19.4435 C   0  0  0  0  0  0  0  0  0  0  0  0
  -32.9479  -23.6682   15.3831 C   0  0  0  0  0  0  0  0  0  0  0  0
  -28.2263  -26.4633   18.4916 C   0  0  0  0  0  0  0  0  0  0  0  0
  -19.7528  -27.1444   21.5639 C   0  0  0  0  0  0  0  0  0  0  0  0
  -26.2870  -27.5851   17.2717 C   0  0  0  0  0  0  0  0  0  0  0  0
  -24.0637  -12.1439   20.3415 C   0  0  0  0  0  0  0  0  0  0  0  0
  -25.8057  -18.9534   18.2253 C   0  0  0  0  0  0  0  0  0  0  0  0
  -23.8409  -13.5242   20.1756 C   0  0  0  0  0  0  0  0  0  0  0  0
  -26.3291  -19.7534   19.2510 C   0  0  0  0  0  0  0  0  0  0  0  0
  -20.3777  -28.1630   22.2833 C   0  0  0  0  0  0  0  0  0  0  0  0
  -30.4188  -24.7473   18.6681 C   0  0  0  0  0  0  0  0  0  0  0  0
  -24.8050  -21.5389   18.6192 C   0  0  0  0  0  0  0  0  0  0  0  0
  -32.4126  -23.9383   17.7235 C   0  0  0  0  0  0  0  0  0  0  0  0
  -34.2769  -23.9982   15.6490 C   0  0  0  0  0  0  0  0  0  0  0  0
  -32.0158  -23.6383   16.4203 C   0  0  0  0  0  0  0  0  0  0  0  0
  -27.0936  -27.3493   18.4011 C   0  0  0  0  0  0  0  0  0  0  0  0
  -25.3558  -28.4996   17.6997 C   0  0  0  0  0  0  0  0  0  0  0  0
  -23.2963  -25.4605   19.0810 C   0  0  0  0  0  0  0  0  0  0  0  0
  -20.2535  -26.7187   20.2311 C   0  0  0  0  0  0  0  0  0  0  0  0
  -26.3718  -27.0275   15.9536 C   0  0  0  0  0  0  0  0  0  0  0  0
  -26.0251  -16.5039   20.2392 C   0  0  0  0  0  0  0  0  0  0  0  0
  -29.1325  -17.4202   20.4025 C   0  0  0  0  0  0  0  0  0  0  0  0
  -31.4429  -19.9057   20.0406 C   0  0  0  0  0  0  0  0  0  0  0  0
  -22.2367  -29.8611   22.3664 C   0  0  0  0  0  0  0  0  0  0  0  0
  -25.0566  -11.6158   21.3465 C   0  0  0  0  0  0  0  0  0  0  0  0
  -26.3535  -17.5741   17.9803 C   0  0  0  0  0  0  0  0  0  0  0  0
  -27.4243  -19.2611   20.1602 C   0  0  0  0  0  0  0  0  0  0  0  0
  -26.0651  -12.6620   21.8141 C   0  0  0  0  0  0  0  0  0  0  0  0
  -25.1131  -31.7398   21.4314 C   0  0  0  0  0  0  0  0  0  0  0  0
  -25.3571  -13.9673   22.1632 C   0  0  0  0  0  0  0  0  0  0  0  0
  -25.8394  -30.8235   20.4440 C   0  0  0  0  0  0  0  0  0  0  0  0
  -24.4618  -30.9494   22.5649 C   0  0  0  0  0  0  0  0  0  0  0  0
  -24.3057  -28.9415   21.1461 C   0  0  0  0  0  0  0  0  0  0  0  0
  -24.6462  -14.5542   20.9378 C   0  0  1  0  0  0  0  0  0  0  0  0
  -27.0187  -16.9679   19.2121 C   0  0  1  0  0  0  0  0  0  0  0  0
  -24.9226  -29.6867   19.9512 C   0  0  2  0  0  0  0  0  0  0  0  0
  -33.7066  -20.9844   19.9435 C   0  0  0  0  0  0  0  0  0  0  0  0
  -28.8125  -17.5237   23.4351 C   0  0  0  0  0  0  0  0  0  0  0  0
  -30.9236  -18.8652   23.5423 C   0  0  0  0  0  0  0  0  0  0  0  0
  -30.9713  -16.5374   22.6469 C   0  0  0  0  0  0  0  0  0  0  0  0
  -31.7423  -19.2874   17.1619 C   0  0  0  0  0  0  0  0  0  0  0  0
  -24.0180  -24.9898   17.8460 C   0  0  0  0  0  0  0  0  0  0  0  0
  -23.8346  -23.4910   17.6687 C   0  0  0  0  0  0  0  0  0  1  0  0
  -29.9214  -18.3757   21.2648 C   0  0  1  0  0  0  0  0  0  0  0  0
  -32.7870  -19.9367   19.3357 C   0  0  2  0  0  0  0  0  0  0  0  0
  -30.1352  -17.8344   22.7065 C   0  0  0  0  0  0  0  0  0  0  0  0
  -26.7087  -28.0569   19.4665 N   0  0  0  0  0  0  0  0  0  0  0  0
  -22.0697  -25.8584   19.0097 N   0  0  0  0  0  0  0  0  0  0  0  0
  -25.6501  -28.7465   19.0084 N   0  0  0  0  0  0  0  0  0  0  0  0
  -27.9225  -17.9034   19.8844 N   0  0  0  0  0  0  0  0  0  0  0  0
  -23.6048  -29.8929   22.0227 N   0  0  0  0  0  0  0  0  0  0  0  0
  -24.3223  -29.1086   17.0806 N   0  0  0  0  0  0  0  0  0  0  0  0
  -27.3889  -26.1018   15.6839 N   0  0  0  0  0  0  0  0  0  0  0  0
  -21.5148  -28.8308   21.7648 N   0  0  0  0  0  0  0  0  0  0  0  0
  -21.5511  -26.2433   20.1997 N   0  0  0  0  0  0  0  0  0  0  0  0
  -25.5995  -15.2012   20.0620 N   0  0  0  0  0  0  0  0  0  0  0  0
  -31.1575  -18.6530   20.5412 N   0  0  0  0  0  0  0  0  0  0  0  0
  -32.6068  -20.2513   17.8902 N   0  3  0  0  0  0  0  0  0  0  0  0
  -19.5204  -26.8222   19.2507 O   0  0  0  0  0  0  0  0  0  0  0  0
  -25.5793  -27.3531   15.0373 O   0  0  0  0  0  0  0  0  0  0  0  0
  -25.6717  -17.2705   21.1275 O   0  0  0  0  0  0  0  0  0  0  0  0
  -29.5769  -16.2893   20.1903 O   0  0  0  0  0  0  0  0  0  0  0  0
  -30.7203  -20.8948   20.1407 O   0  0  0  0  0  0  0  0  0  0  0  0
  -21.7362  -30.7034   23.1160 O   0  0  0  0  0  0  0  0  0  0  0  0
  -31.4882  -23.9098   18.7542 O   0  0  0  0  0  0  0  0  0  0  0  0
  -24.3179  -22.7942   18.8164 O   0  0  0  0  0  0  0  0  0  1  0  0
  -35.1718  -24.0284   14.6529 F   0  0  0  0  0  0  0  0  0  0  0  0
  -30.7402  -23.3218   16.1585 F   0  0  0  0  0  0  0  0  0  0  0  0
  1  4  1  0  0  0  0
  1  7  2  0  0  0  0
  2  3  1  0  0  0  0
  2  8  2  0  0  0  0
  3  9  2  0  0  0  0
  4 11  2  0  0  0  0
  5 12  2  0  0  0  0
  5 19  1  0  0  0  0
  6 13  1  0  0  0  0
  6 19  2  0  0  0  0
  7 20  1  0  0  0  0
  8 22  1  0  0  0  0
  9 24  1  0  0  0  0
 10 14  2  0  0  0  0
 10 23  1  0  0  0  0
 11 26  1  0  0  0  0
 12 27  1  0  0  0  0
 13 27  2  0  0  0  0
 14 28  1  0  0  0  0
 15 16  2  0  0  0  0
 15 29  1  0  0  0  0
 16 30  1  0  0  0  0
 17 25  1  0  0  0  0
 17 28  2  0  0  0  0
 18 30  2  0  0  0  0
 18 31  1  0  0  0  0
 19 32  1  0  0  0  0
 20 26  2  0  0  0  0
 20 35  1  0  0  0  0
 21 32  1  0  0  0  0
 21 33  2  0  0  0  0
 21 36  1  0  0  0  0
 22 24  2  0  0  0  0
 22 41  1  0  0  0  0
 23 25  2  0  0  0  0
 23 42  1  0  0  0  0
 24 50  1  0  0  0  0
 25 43  1  0  0  0  0
 26 70  1  0  0  0  0
 27 81  1  0  0  0  0
 28 82  1  0  0  0  0
 29 31  2  0  0  0  0
 29 81  1  0  0  0  0
 30 83  1  0  0  0  0
 31 84  1  0  0  0  0
 32 63  2  0  0  0  0
 33 65  1  0  0  0  0
 33 68  1  0  0  0  0
 34 58  1  0  0  0  0
 34 64  2  0  0  0  0
 35 71  1  0  0  0  0
 35 75  2  0  0  0  0
 36 69  1  0  0  0  0
 36 76  2  0  0  0  0
 37 51  1  0  0  0  0
 37 72  1  0  0  0  0
 37 77  2  0  0  0  0
 38 60  1  0  0  0  0
 38 66  1  0  0  0  0
 38 78  2  0  0  0  0
 39 61  1  0  0  0  0
 39 73  1  0  0  0  0
 39 79  2  0  0  0  0
 40 67  1  0  0  0  0
 40 70  1  0  0  0  0
 40 80  2  0  0  0  0
 41 44  1  0  0  0  0
 42 51  1  0  0  0  0
 43 66  1  0  0  0  0
 44 46  1  0  0  0  0
 45 47  1  0  0  0  0
 45 48  1  0  0  0  0
 46 50  1  0  0  0  0
 47 52  1  0  0  0  0
 48 67  1  0  0  0  0
 49 52  1  0  0  0  0
 49 67  1  0  0  0  0
 50 72  1  0  0  0  0
 51 66  1  0  0  0  0
 52 65  1  0  0  0  0
 53 61  1  0  0  0  0
 54 62  1  0  0  0  0
 55 62  1  0  0  0  0
 56 62  1  0  0  0  0
 57 74  1  0  0  0  0
 58 59  1  0  0  0  0
 59 82  1  0  0  0  0
 60 62  1  0  0  0  0
 60 73  1  0  0  0  0
 61 74  1  0  0  0  0
 63 65  1  0  0  0  0
 64 71  1  0  0  0  0
M  CHG  1  74   1
M  ISO  4  40 100  59 101  70 100  82 101
M  END
> <Batch ID>
0006

> <Smiles>
CNC(C)C(=O)NC(C(=O)N1Cc2cc([101O:1][101CH2:1]CC=NNC(=O)c3ccccc3[100NH:0][100C:0](=O)N3CCCC(n4nc(-c5ccc(Oc6ccc(F)cc6F)cc5)c(C(N)=O)c4N)C3)ccc2CC1C(=O)NC1CCCc2ccccc21)C(C)(C)C

> <Shape>
0.223

> <Color>
0.077

> <Negative vol penalty>
0.000

$$$$

  -OEChem-04042320293D

 82 90  0     1  0  0  0  0  0999 V2000
  -24.6122  -34.0114   28.0639 C   0  0  0  0  0  0  0  0  0  0  0  0
  -25.4919  -33.1965   27.3586 C   0  0  0  0  0  0  0  0  0  0  0  0
  -24.2567   -9.1059   21.4812 C   0  0  0  0  0  0  0  0  0  0  0  0
  -24.7683  -10.3935   23.4604 C   0  0  0  0  0  0  0  0  0  0  0  0
  -23.2367  -33.8149   27.9481 C   0  0  0  0  0  0  0  0  0  0  0  0
  -24.9966  -32.1839   26.5377 C   0  0  0  0  0  0  0  0  0  0  0  0
  -27.3828  -30.2386   21.2437 C   0  0  0  0  0  0  0  0  0  0  0  0
  -30.2159  -18.8786   20.0778 C   0  0  0  0  0  0  0  0  0  0  0  0
  -23.9218   -8.0121   22.2793 C   0  0  0  0  0  0  0  0  0  0  0  0
  -24.4333   -9.2997   24.2585 C   0  0  0  0  0  0  0  0  0  0  0  0
  -28.1972  -29.1529   20.9246 C   0  0  0  0  0  0  0  0  0  0  0  0
  -30.3965  -20.2134   20.4399 C   0  0  0  0  0  0  0  0  0  0  0  0
  -21.2944   -7.0103   24.1570 C   0  0  0  0  0  0  0  0  0  0  0  0
  -20.1253   -6.3155   23.8470 C   0  0  0  0  0  0  0  0  0  0  0  0
  -26.2451  -27.8791   20.3032 C   0  0  0  0  0  0  0  0  0  0  0  0
  -28.0127  -20.4509   20.7535 C   0  0  0  0  0  0  0  0  0  0  0  0
  -21.4143   -4.3017   23.4998 C   0  0  0  0  0  0  0  0  0  0  0  0
  -24.6800  -10.2966   22.0717 C   0  0  0  0  0  0  0  0  0  0  0  0
  -24.1683  -12.4504   20.8040 C   0  0  0  0  0  0  0  0  0  0  0  0
  -22.7241  -32.8057   27.1179 C   0  0  0  0  0  0  0  0  0  0  0  0
  -25.9903  -30.1489   21.1050 C   0  0  0  0  0  0  0  0  0  0  0  0
  -23.6130  -31.9729   26.4117 C   0  0  0  0  0  0  0  0  0  0  0  0
  -25.4155  -28.9660   20.6188 C   0  0  0  0  0  0  0  0  0  0  0  0
  -28.9336  -18.3299   20.0534 C   0  0  0  0  0  0  0  0  0  0  0  0
  -24.0101   -8.1090   23.6679 C   0  0  0  0  0  0  0  0  0  0  0  0
  -27.6281  -27.9719   20.4571 C   0  0  0  0  0  0  0  0  0  0  0  0
  -29.2950  -20.9996   20.7778 C   0  0  0  0  0  0  0  0  0  0  0  0
  -22.5234   -6.3509   24.1383 C   0  0  0  0  0  0  0  0  0  0  0  0
  -20.1853   -4.9612   23.5185 C   0  0  0  0  0  0  0  0  0  0  0  0
  -27.8321  -19.1160   20.3913 C   0  0  0  0  0  0  0  0  0  0  0  0
  -22.5834   -4.9966   23.8098 C   0  0  0  0  0  0  0  0  0  0  0  0
  -25.0267  -11.4267   21.2478 C   0  0  0  0  0  0  0  0  0  0  0  0
  -24.9747  -13.2760   20.0594 C   0  0  0  0  0  0  0  0  0  0  0  0
  -22.7672  -12.6382   21.0434 C   0  0  0  0  0  0  0  0  0  0  0  0
  -23.5206  -30.3437   23.0966 C   0  0  0  0  0  0  0  0  0  0  0  0
  -21.7957  -30.1726   20.3547 C   0  0  0  0  0  0  0  0  0  0  0  0
  -21.6387  -29.2028   17.0865 C   0  0  0  0  0  0  0  0  0  0  0  0
  -29.7411  -16.0584   19.3221 C   0  0  0  0  0  0  0  0  0  0  0  0
  -21.2309  -32.6009   27.0614 C   0  0  0  0  0  0  0  0  0  0  0  0
  -25.1278  -31.3381   21.4281 C   0  0  0  0  0  0  0  0  0  0  0  0
  -23.9275  -28.8254   20.4328 C   0  0  0  0  0  0  0  0  0  0  0  0
  -20.7774  -31.7478   25.8795 C   0  0  0  0  0  0  0  0  0  0  0  0
  -29.7068  -12.6236   18.3850 C   0  0  0  0  0  0  0  0  0  0  0  0
  -21.6503  -30.5032   25.7534 C   0  0  0  0  0  0  0  0  0  0  0  0
  -28.4155  -12.0902   19.0097 C   0  0  0  0  0  0  0  0  0  0  0  0
  -30.3849  -13.6587   19.2809 C   0  0  0  0  0  0  0  0  0  0  0  0
  -28.2331  -14.2360   20.3323 C   0  0  0  0  0  0  0  0  0  0  0  0
  -23.1136  -30.8799   25.4919 C   0  0  1  0  0  0  0  0  0  0  0  0
  -23.6820  -30.9615   21.7365 C   0  0  1  0  0  0  0  0  0  0  0  0
  -27.4802  -13.2383   19.4372 C   0  0  2  0  0  0  0  0  0  0  0  0
  -20.0851  -29.1624   15.1161 C   0  0  0  0  0  0  0  0  0  0  0  0
  -20.2767  -27.8395   21.6034 C   0  0  0  0  0  0  0  0  0  0  0  0
  -19.4426  -27.2500   19.3175 C   0  0  0  0  0  0  0  0  0  0  0  0
  -18.8500  -29.4513   20.3303 C   0  0  0  0  0  0  0  0  0  0  0  0
  -23.4541  -30.8939   15.4731 C   0  0  0  0  0  0  0  0  0  0  0  0
  -28.9589  -24.6088   20.6297 C   0  0  0  0  0  0  0  0  0  0  0  0
  -27.8587  -25.6093   20.3123 C   0  0  0  0  0  0  0  0  0  1  0  0
  -28.4097  -23.2060   20.8371 C   0  0  0  0  0  0  0  0  0  0  0  0
  -21.2136  -29.0531   19.5260 C   0  0  1  0  0  0  0  0  0  0  0  0
  -21.1770  -29.9352   15.8395 C   0  0  2  0  0  0  0  0  0  0  0  0
  -19.9736  -28.4001   20.1995 C   0  0  0  0  0  0  0  0  0  0  0  0
  -26.2823  -11.5853   20.8207 N   0  0  0  0  0  0  0  0  0  0  0  0
  -26.2187  -12.7183   20.1006 N   0  0  0  0  0  0  0  0  0  0  0  0
  -23.1260  -30.0139   20.7684 N   0  0  0  0  0  0  0  0  0  0  0  0
  -29.4398  -14.7176   19.6419 N   0  0  0  0  0  0  0  0  0  0  0  0
  -24.7340  -14.4175   19.3799 N   0  0  0  0  0  0  0  0  0  0  0  0
  -22.0916  -11.6955   21.8304 N   0  0  0  0  0  0  0  0  0  0  0  0
  -28.7535  -16.9736   19.6850 N   0  0  0  0  0  0  0  0  0  0  0  0
  -23.2983  -31.2591   24.1075 N   0  0  0  0  0  0  0  0  0  0  0  0
  -20.9493  -29.6168   18.2066 N   0  0  0  0  0  0  0  0  0  0  0  0
  -22.3176  -30.1280   14.8999 N   0  3  0  0  0  0  0  0  0  0  0  0
  -22.1296  -13.6042   20.5598 O   0  0  0  0  0  0  0  0  0  0  0  0
  -23.5911  -29.1265   23.2195 O   0  0  0  0  0  0  0  0  0  0  0  0
  -21.0982  -31.1551   20.6191 O   0  0  0  0  0  0  0  0  0  0  0  0
  -22.5198  -28.3462   17.0680 O   0  0  0  0  0  0  0  0  0  0  0  0
  -30.7851  -16.3685   18.7427 O   0  0  0  0  0  0  0  0  0  0  0  0
  -23.6831   -7.0420   24.4471 O   0  0  0  0  0  0  0  0  0  0  0  0
  -28.4206  -26.9104   20.1455 O   0  0  0  0  0  0  0  0  0  1  0  0
  -29.4727  -22.3109   21.1348 O   0  0  0  0  0  0  0  0  0  0  0  0
  -19.0624   -4.2937   23.2223 F   0  0  0  0  0  0  0  0  0  0  0  0
  -26.5952  -18.5992   20.3709 F   0  0  0  0  0  0  0  0  0  0  0  0
  -23.7611   -4.3575   23.7913 F   0  0  0  0  0  0  0  0  0  0  0  0
  1  2  1  0  0  0  0
  1  5  2  0  0  0  0
  2  6  2  0  0  0  0
  3  9  2  0  0  0  0
  3 18  1  0  0  0  0
  4 10  1  0  0  0  0
  4 18  2  0  0  0  0
  5 20  1  0  0  0  0
  6 22  1  0  0  0  0
  7 11  2  0  0  0  0
  7 21  1  0  0  0  0
  8 12  2  0  0  0  0
  8 24  1  0  0  0  0
  9 25  1  0  0  0  0
 10 25  2  0  0  0  0
 11 26  1  0  0  0  0
 12 27  1  0  0  0  0
 13 14  2  0  0  0  0
 13 28  1  0  0  0  0
 14 29  1  0  0  0  0
 15 23  1  0  0  0  0
 15 26  2  0  0  0  0
 16 27  2  0  0  0  0
 16 30  1  0  0  0  0
 17 29  2  0  0  0  0
 17 31  1  0  0  0  0
 18 32  1  0  0  0  0
 19 32  1  0  0  0  0
 19 33  2  0  0  0  0
 19 34  1  0  0  0  0
 20 22  2  0  0  0  0
 20 39  1  0  0  0  0
 21 23  2  0  0  0  0
 21 40  1  0  0  0  0
 22 48  1  0  0  0  0
 23 41  1  0  0  0  0
 24 30  2  0  0  0  0
 24 68  1  0  0  0  0
 25 77  1  0  0  0  0
 26 78  1  0  0  0  0
 27 79  1  0  0  0  0
 28 31  2  0  0  0  0
 28 77  1  0  0  0  0
 29 80  1  0  0  0  0
 30 81  1  0  0  0  0
 31 82  1  0  0  0  0
 32 62  2  0  0  0  0
 33 63  1  0  0  0  0
 33 66  1  0  0  0  0
 34 67  1  0  0  0  0
 34 72  2  0  0  0  0
 35 49  1  0  0  0  0
 35 69  1  0  0  0  0
 35 73  2  0  0  0  0
 36 59  1  0  0  0  0
 36 64  1  0  0  0  0
 36 74  2  0  0  0  0
 37 60  1  0  0  0  0
 37 70  1  0  0  0  0
 37 75  2  0  0  0  0
 38 65  1  0  0  0  0
 38 68  1  0  0  0  0
 38 76  2  0  0  0  0
 39 42  1  0  0  0  0
 40 49  1  0  0  0  0
 41 64  1  0  0  0  0
 42 44  1  0  0  0  0
 43 45  1  0  0  0  0
 43 46  1  0  0  0  0
 44 48  1  0  0  0  0
 45 50  1  0  0  0  0
 46 65  1  0  0  0  0
 47 50  1  0  0  0  0
 47 65  1  0  0  0  0
 48 69  1  0  0  0  0
 49 64  1  0  0  0  0
 50 63  1  0  0  0  0
 51 60  1  0  0  0  0
 52 61  1  0  0  0  0
 53 61  1  0  0  0  0
 54 61  1  0  0  0  0
 55 71  1  0  0  0  0
 56 57  1  0  0  0  0
 56 58  1  0  0  0  0
 57 78  1  0  0  0  0
 58 79  1  0  0  0  0
 59 61  1  0  0  0  0
 59 70  1  0  0  0  0
 60 71  1  0  0  0  0
 62 63  1  0  0  0  0
M  CHG  1  71   1
M  ISO  4  38 100  57 101  68 100  78 101
M  END
> <Batch ID>
0006

> <Smiles>
CNC(C)C(=O)NC(C(=O)N1Cc2cc([101O:1][101CH2:1]CCOc3ccc([100NH:0][100C:0](=O)N4CCCC(n5nc(-c6ccc(Oc7ccc(F)cc7F)cc6)c(C(N)=O)c5N)C4)c(F)c3)ccc2CC1C(=O)NC1CCCc2ccccc21)C(C)(C)C

> <Shape>
0.303

> <Color>
0.145

> <Negative vol penalty>
0.000

$$$$

  -OEChem-04042320293D

 81 89  0     1  0  0  0  0  0999 V2000
  -30.7684  -21.2938   21.4004 C   0  0  0  0  0  0  0  0  0  0  0  0
  -30.9176  -22.4851   21.3777 C   0  0  0  0  0  0  0  0  0  1  0  0
  -34.4637  -32.9759   15.6777 C   0  0  0  0  0  0  0  0  0  0  0  0
  -34.2071  -32.1286   16.7509 C   0  0  0  0  0  0  0  0  0  0  0  0
  -23.0781   -9.8640   19.9421 C   0  0  0  0  0  0  0  0  0  0  0  0
  -23.8361   -9.8750   22.2361 C   0  0  0  0  0  0  0  0  0  0  0  0
  -33.7779  -32.8042   14.4760 C   0  0  0  0  0  0  0  0  0  0  0  0
  -33.2636  -31.1098   16.6233 C   0  0  0  0  0  0  0  0  0  0  0  0
  -33.4678  -25.5591   19.2027 C   0  0  0  0  0  0  0  0  0  0  0  0
  -22.3355   -8.7103   20.1930 C   0  0  0  0  0  0  0  0  0  0  0  0
  -23.0934   -8.7212   22.4870 C   0  0  0  0  0  0  0  0  0  0  0  0
  -32.8662  -25.0329   20.3451 C   0  0  0  0  0  0  0  0  0  0  0  0
  -19.8657   -7.9202   23.0879 C   0  0  0  0  0  0  0  0  0  0  0  0
  -19.1079   -7.8808   24.2583 C   0  0  0  0  0  0  0  0  0  0  0  0
  -30.7677  -19.1281   20.2626 C   0  0  0  0  0  0  0  0  0  0  0  0
  -30.2393  -19.2371   22.6175 C   0  0  0  0  0  0  0  0  0  0  0  0
  -31.0854  -24.1365   18.9870 C   0  0  0  0  0  0  0  0  0  0  0  0
  -20.3511   -5.9459   24.9983 C   0  0  0  0  0  0  0  0  0  0  0  0
  -30.5903  -19.8745   21.4274 C   0  0  0  0  0  0  0  0  0  0  0  0
  -23.8285  -10.4463   20.9637 C   0  0  0  0  0  0  0  0  0  0  0  0
  -24.1672  -12.9718   20.8406 C   0  0  0  0  0  0  0  0  0  0  0  0
  -32.8326  -31.7767   14.3305 C   0  0  0  0  0  0  0  0  0  0  0  0
  -32.8760  -25.3869   17.9431 C   0  0  0  0  0  0  0  0  0  0  0  0
  -32.5635  -30.9250   15.4189 C   0  0  0  0  0  0  0  0  0  0  0  0
  -31.6828  -24.6592   17.8299 C   0  0  0  0  0  0  0  0  0  0  0  0
  -30.2431  -17.1069   21.4777 C   0  0  0  0  0  0  0  0  0  0  0  0
  -22.3431   -8.1389   21.4654 C   0  0  0  0  0  0  0  0  0  0  0  0
  -31.6733  -24.3240   20.2377 C   0  0  0  0  0  0  0  0  0  0  0  0
  -20.8662   -6.9723   22.8727 C   0  0  0  0  0  0  0  0  0  0  0  0
  -19.3505   -6.8937   25.2134 C   0  0  0  0  0  0  0  0  0  0  0  0
  -30.5941  -17.7443   20.2876 C   0  0  0  0  0  0  0  0  0  0  0  0
  -21.1089   -5.9852   23.8279 C   0  0  0  0  0  0  0  0  0  0  0  0
  -30.0657  -17.8533   22.6426 C   0  0  0  0  0  0  0  0  0  0  0  0
  -24.5963  -11.6378   20.7050 C   0  0  0  0  0  0  0  0  0  0  0  0
  -25.2588  -13.7221   20.4773 C   0  0  0  0  0  0  0  0  0  0  0  0
  -22.8958  -13.4865   21.2578 C   0  0  0  0  0  0  0  0  0  0  0  0
  -31.7078  -27.3438   15.7273 C   0  0  0  0  0  0  0  0  0  0  0  0
  -31.4236  -24.6038   14.0144 C   0  0  0  0  0  0  0  0  0  0  0  0
  -31.1282  -21.2039   14.0153 C   0  0  0  0  0  0  0  0  0  0  0  0
  -30.7235  -14.7747   20.6551 C   0  0  0  0  0  0  0  0  0  0  0  0
  -32.0821  -31.6598   13.0274 C   0  0  0  0  0  0  0  0  0  0  0  0
  -33.5515  -25.9378   16.7173 C   0  0  0  0  0  0  0  0  0  0  0  0
  -31.0177  -24.4291   16.4983 C   0  0  0  0  0  0  0  0  0  0  0  0
  -31.3692  -30.3213   12.8530 C   0  0  0  0  0  0  0  0  0  0  0  0
  -29.6141  -12.3564   18.2891 C   0  0  0  0  0  0  0  0  0  0  0  0
  -30.6093  -29.9518   14.1230 C   0  0  0  0  0  0  0  0  0  0  0  0
  -28.1744  -12.0636   18.7179 C   0  0  0  0  0  0  0  0  0  0  0  0
  -30.5279  -12.5879   19.4912 C   0  0  0  0  0  0  0  0  0  0  0  0
  -28.6189  -13.3118   20.8699 C   0  0  0  0  0  0  0  0  0  0  0  0
  -31.5653  -29.7928   15.3114 C   0  0  1  0  0  0  0  0  0  0  0  0
  -32.5931  -26.1430   15.5482 C   0  0  1  0  0  0  0  0  0  0  0  0
  -27.6473  -13.1358   19.6915 C   0  0  2  0  0  0  0  0  0  0  0  0
  -30.8770  -19.2479   12.4634 C   0  0  0  0  0  0  0  0  0  0  0  0
  -28.4895  -25.3232   13.5864 C   0  0  0  0  0  0  0  0  0  0  0  0
  -28.0831  -22.9544   12.8853 C   0  0  0  0  0  0  0  0  0  0  0  0
  -29.6402  -24.3927   11.5704 C   0  0  0  0  0  0  0  0  0  0  0  0
  -33.6695  -19.9986   14.9361 C   0  0  0  0  0  0  0  0  0  0  0  0
  -30.3518  -23.5540   13.8468 C   0  0  1  0  0  0  0  0  0  0  0  0
  -31.8539  -20.1295   13.2258 C   0  0  2  0  0  0  0  0  0  0  0  0
  -29.1524  -24.0619   12.9977 C   0  0  0  0  0  0  0  0  0  0  0  0
  -25.8616  -11.5430   20.2879 N   0  0  0  0  0  0  0  0  0  0  0  0
  -26.2370  -12.8269   20.1582 N   0  0  0  0  0  0  0  0  0  0  0  0
  -31.7136  -24.9928   15.3298 N   0  0  0  0  0  0  0  0  0  0  0  0
  -29.9669  -13.6192   20.3668 N   0  0  0  0  0  0  0  0  0  0  0  0
  -25.4676  -15.0537   20.4027 N   0  0  0  0  0  0  0  0  0  0  0  0
  -21.8847  -12.5765   21.5954 N   0  0  0  0  0  0  0  0  0  0  0  0
  -30.0743  -15.7001   21.4718 N   0  0  0  0  0  0  0  0  0  0  0  0
  -32.2493  -28.5192   15.2429 N   0  0  0  0  0  0  0  0  0  0  0  0
  -31.0159  -22.3764   13.2986 N   0  0  0  0  0  0  0  0  0  0  0  0
  -32.6522  -19.2648   14.1402 N   0  3  0  0  0  0  0  0  0  0  0  0
  -22.6579  -14.7169   21.3133 O   0  0  0  0  0  0  0  0  0  0  0  0
  -30.6138  -27.2132   16.2638 O   0  0  0  0  0  0  0  0  0  0  0  0
  -31.9880  -25.0566   13.0153 O   0  0  0  0  0  0  0  0  0  0  0  0
  -30.7001  -21.0201   15.1527 O   0  0  0  0  0  0  0  0  0  0  0  0
  -31.8528  -14.9442   20.1882 O   0  0  0  0  0  0  0  0  0  0  0  0
  -31.0836  -23.8099   21.3512 O   0  0  0  0  0  0  0  0  0  1  0  0
  -21.6183   -7.0132   21.7107 O   0  0  0  0  0  0  0  0  0  0  0  0
  -18.6237   -6.8570   26.3380 F   0  0  0  0  0  0  0  0  0  0  0  0
  -30.7675  -17.0387   19.1607 F   0  0  0  0  0  0  0  0  0  0  0  0
  -22.0696   -5.0727   23.6273 F   0  0  0  0  0  0  0  0  0  0  0  0
  -29.6312  -17.1038   24.1375 Cl  0  0  0  0  0  0  0  0  0  0  0  0
  1  2  3  0  0  0  0
  1 19  1  0  0  0  0
  2 76  1  0  0  0  0
  3  4  1  0  0  0  0
  3  7  2  0  0  0  0
  4  8  2  0  0  0  0
  5 10  2  0  0  0  0
  5 20  1  0  0  0  0
  6 11  1  0  0  0  0
  6 20  2  0  0  0  0
  7 22  1  0  0  0  0
  8 24  1  0  0  0  0
  9 12  2  0  0  0  0
  9 23  1  0  0  0  0
 10 27  1  0  0  0  0
 11 27  2  0  0  0  0
 12 28  1  0  0  0  0
 13 14  2  0  0  0  0
 13 29  1  0  0  0  0
 14 30  1  0  0  0  0
 15 19  1  0  0  0  0
 15 31  2  0  0  0  0
 16 19  2  0  0  0  0
 16 33  1  0  0  0  0
 17 25  1  0  0  0  0
 17 28  2  0  0  0  0
 18 30  2  0  0  0  0
 18 32  1  0  0  0  0
 20 34  1  0  0  0  0
 21 34  1  0  0  0  0
 21 35  2  0  0  0  0
 21 36  1  0  0  0  0
 22 24  2  0  0  0  0
 22 41  1  0  0  0  0
 23 25  2  0  0  0  0
 23 42  1  0  0  0  0
 24 50  1  0  0  0  0
 25 43  1  0  0  0  0
 26 31  1  0  0  0  0
 26 33  2  0  0  0  0
 26 67  1  0  0  0  0
 27 77  1  0  0  0  0
 28 76  1  0  0  0  0
 29 32  2  0  0  0  0
 29 77  1  0  0  0  0
 30 78  1  0  0  0  0
 31 79  1  0  0  0  0
 32 80  1  0  0  0  0
 33 81  1  0  0  0  0
 34 61  2  0  0  0  0
 35 62  1  0  0  0  0
 35 65  1  0  0  0  0
 36 66  1  0  0  0  0
 36 71  2  0  0  0  0
 37 51  1  0  0  0  0
 37 68  1  0  0  0  0
 37 72  2  0  0  0  0
 38 58  1  0  0  0  0
 38 63  1  0  0  0  0
 38 73  2  0  0  0  0
 39 59  1  0  0  0  0
 39 69  1  0  0  0  0
 39 74  2  0  0  0  0
 40 64  1  0  0  0  0
 40 67  1  0  0  0  0
 40 75  2  0  0  0  0
 41 44  1  0  0  0  0
 42 51  1  0  0  0  0
 43 63  1  0  0  0  0
 44 46  1  0  0  0  0
 45 47  1  0  0  0  0
 45 48  1  0  0  0  0
 46 50  1  0  0  0  0
 47 52  1  0  0  0  0
 48 64  1  0  0  0  0
 49 52  1  0  0  0  0
 49 64  1  0  0  0  0
 50 68  1  0  0  0  0
 51 63  1  0  0  0  0
 52 62  1  0  0  0  0
 53 59  1  0  0  0  0
 54 60  1  0  0  0  0
 55 60  1  0  0  0  0
 56 60  1  0  0  0  0
 57 70  1  0  0  0  0
 58 60  1  0  0  0  0
 58 69  1  0  0  0  0
 59 70  1  0  0  0  0
 61 62  1  0  0  0  0
M  CHG  1  70   1
M  ISO  4   2 101  40 100  67 100  76 101
M  END
> <Batch ID>
0006

> <Smiles>
CNC(C)C(=O)NC(C(=O)N1Cc2cc([101O:1][101C:1]#Cc3cc(F)c([100NH:0][100C:0](=O)N4CCCC(n5nc(-c6ccc(Oc7ccc(F)cc7F)cc6)c(C(N)=O)c5N)C4)c(Cl)c3)ccc2CC1C(=O)NC1CCCc2ccccc21)C(C)(C)C

> <Shape>
0.206

> <Color>
0.200

> <Negative vol penalty>
0.000

$$$$

  -OEChem-04042320293D

 82 90  0     1  0  0  0  0  0999 V2000
  -40.0633  -23.6973   19.7985 C   0  0  0  0  0  0  0  0  0  0  0  0
  -38.7050  -23.4670   19.9920 C   0  0  0  0  0  0  0  0  0  0  0  0
  -23.0959   -9.8268   19.9552 C   0  0  0  0  0  0  0  0  0  0  0  0
  -23.8450   -9.8732   22.2517 C   0  0  0  0  0  0  0  0  0  0  0  0
  -40.5675  -24.9946   19.8790 C   0  0  0  0  0  0  0  0  0  0  0  0
  -37.8503  -24.5339   20.2672 C   0  0  0  0  0  0  0  0  0  0  0  0
  -33.5601  -24.3281   17.5845 C   0  0  0  0  0  0  0  0  0  0  0  0
  -22.3662   -8.6671   20.2166 C   0  0  0  0  0  0  0  0  0  0  0  0
  -23.1152   -8.7136   22.5131 C   0  0  0  0  0  0  0  0  0  0  0  0
  -32.5787  -23.4389   18.0203 C   0  0  0  0  0  0  0  0  0  0  0  0
  -19.8952   -7.8806   23.1114 C   0  0  0  0  0  0  0  0  0  0  0  0
  -19.1334   -7.8456   24.2793 C   0  0  0  0  0  0  0  0  0  0  0  0
  -31.4001  -25.2635   19.0697 C   0  0  0  0  0  0  0  0  0  0  0  0
  -31.0639  -17.7684   20.5461 C   0  0  0  0  0  0  0  0  0  0  0  0
  -29.5741  -19.3503   22.2955 C   0  0  0  0  0  0  0  0  0  0  0  0
  -20.3970   -5.9344   25.0462 C   0  0  0  0  0  0  0  0  0  0  0  0
  -23.8353  -10.4298   20.9727 C   0  0  0  0  0  0  0  0  0  0  0  0
  -24.1442  -12.9576   20.8218 C   0  0  0  0  0  0  0  0  0  0  0  0
  -39.7171  -26.0792   20.1457 C   0  0  0  0  0  0  0  0  0  0  0  0
  -33.4744  -25.6923   17.8979 C   0  0  0  0  0  0  0  0  0  0  0  0
  -38.3439  -25.8468   20.3526 C   0  0  0  0  0  0  0  0  0  0  0  0
  -32.3804  -26.1683   18.6345 C   0  0  0  0  0  0  0  0  0  0  0  0
  -30.1674  -17.1728   21.4333 C   0  0  0  0  0  0  0  0  0  0  0  0
  -22.3759   -8.1105   21.4956 C   0  0  0  0  0  0  0  0  0  0  0  0
  -31.5000  -23.9061   18.7654 C   0  0  0  0  0  0  0  0  0  0  0  0
  -20.9078   -6.9425   22.9108 C   0  0  0  0  0  0  0  0  0  0  0  0
  -30.4706  -19.9459   21.4083 C   0  0  0  0  0  0  0  0  0  0  0  0
  -19.3843   -6.8725   25.2467 C   0  0  0  0  0  0  0  0  0  0  0  0
  -31.2155  -19.1550   20.5336 C   0  0  0  0  0  0  0  0  0  0  0  0
  -29.4225  -17.9637   22.3080 C   0  0  0  0  0  0  0  0  0  0  0  0
  -21.1587   -5.9694   23.8782 C   0  0  0  0  0  0  0  0  0  0  0  0
  -24.5897  -11.6275   20.7031 C   0  0  0  0  0  0  0  0  0  0  0  0
  -25.2280  -13.7168   20.4538 C   0  0  0  0  0  0  0  0  0  0  0  0
  -22.8650  -13.4617   21.2283 C   0  0  0  0  0  0  0  0  0  0  0  0
  -35.2702  -27.7323   19.5462 C   0  0  0  0  0  0  0  0  0  0  0  0
  -33.1470  -29.9091   18.4167 C   0  0  0  0  0  0  0  0  0  0  0  0
  -30.0229  -30.5484   17.2009 C   0  0  0  0  0  0  0  0  0  0  0  0
  -30.6790  -14.8373   20.6395 C   0  0  0  0  0  0  0  0  0  0  0  0
  -40.3159  -27.4578   20.2699 C   0  0  0  0  0  0  0  0  0  0  0  0
  -34.5274  -26.6427   17.3975 C   0  0  0  0  0  0  0  0  0  0  0  0
  -32.2313  -27.6267   18.9801 C   0  0  0  0  0  0  0  0  0  0  0  0
  -39.2832  -28.5795   20.1945 C   0  0  0  0  0  0  0  0  0  0  0  0
  -29.6077  -12.3787   18.2975 C   0  0  0  0  0  0  0  0  0  0  0  0
  -38.0861  -28.2638   21.0858 C   0  0  0  0  0  0  0  0  0  0  0  0
  -28.1701  -12.0735   18.7243 C   0  0  0  0  0  0  0  0  0  0  0  0
  -30.5141  -12.6350   19.5002 C   0  0  0  0  0  0  0  0  0  0  0  0
  -28.5913  -13.3517   20.8635 C   0  0  0  0  0  0  0  0  0  0  0  0
  -37.3810  -26.9811   20.6285 C   0  0  1  0  0  0  0  0  0  0  0  0
  -34.6066  -27.9298   18.2127 C   0  0  1  0  0  0  0  0  0  0  0  0
  -27.6263  -13.1504   19.6836 C   0  0  2  0  0  0  0  0  0  0  0  0
  -28.5673  -32.4295   16.4010 C   0  0  0  0  0  0  0  0  0  0  0  0
  -32.7107  -30.7957   21.3034 C   0  0  0  0  0  0  0  0  0  0  0  0
  -30.6228  -31.9585   20.5573 C   0  0  0  0  0  0  0  0  0  0  0  0
  -32.8349  -32.6641   19.6457 C   0  0  0  0  0  0  0  0  0  0  0  0
  -29.7537  -29.3494   14.5086 C   0  0  0  0  0  0  0  0  0  0  0  0
  -29.8739  -23.3603   20.4128 C   0  0  0  0  0  0  0  0  0  1  0  0
  -29.4565  -22.0750   21.1009 C   0  0  0  0  0  0  0  0  0  0  0  0
  -31.8300  -30.4678   18.8987 C   0  0  1  0  0  0  0  0  0  0  0  0
  -29.5542  -31.3453   15.9969 C   0  0  2  0  0  0  0  0  0  0  0  0
  -32.0031  -31.4437   20.0966 C   0  0  0  0  0  0  0  0  0  0  0  0
  -25.8577  -11.5431   20.2918 N   0  0  0  0  0  0  0  0  0  0  0  0
  -26.2181  -12.8299   20.1487 N   0  0  0  0  0  0  0  0  0  0  0  0
  -33.2901  -28.5155   18.4736 N   0  0  0  0  0  0  0  0  0  0  0  0
  -29.9374  -13.6695   20.3617 N   0  0  0  0  0  0  0  0  0  0  0  0
  -25.4211  -15.0499   20.3646 N   0  0  0  0  0  0  0  0  0  0  0  0
  -21.8637  -12.5436   21.5727 N   0  0  0  0  0  0  0  0  0  0  0  0
  -30.0156  -15.7640   21.4431 N   0  0  0  0  0  0  0  0  0  0  0  0
  -36.5599  -27.2428   19.4658 N   0  0  0  0  0  0  0  0  0  0  0  0
  -31.1872  -31.0622   17.7317 N   0  0  0  0  0  0  0  0  0  0  0  0
  -28.8893  -30.4489   15.0094 N   0  3  0  0  0  0  0  0  0  0  0  0
  -22.6122  -14.6897   21.2688 O   0  0  0  0  0  0  0  0  0  0  0  0
  -34.6580  -28.0053   20.5721 O   0  0  0  0  0  0  0  0  0  0  0  0
  -34.0142  -30.6802   17.9982 O   0  0  0  0  0  0  0  0  0  0  0  0
  -29.4149  -29.5703   17.6301 O   0  0  0  0  0  0  0  0  0  0  0  0
  -31.8079  -15.0150   20.1748 O   0  0  0  0  0  0  0  0  0  0  0  0
  -21.6638   -6.9791   21.7511 O   0  0  0  0  0  0  0  0  0  0  0  0
  -30.5410  -23.0402   19.1926 O   0  0  0  0  0  0  0  0  0  1  0  0
  -30.6174  -21.3080   21.3964 O   0  0  0  0  0  0  0  0  0  0  0  0
  -18.6537   -6.8400   26.3689 F   0  0  0  0  0  0  0  0  0  0  0  0
  -32.0780  -19.7218   19.6791 F   0  0  0  0  0  0  0  0  0  0  0  0
  -28.5584  -17.4016   23.1655 F   0  0  0  0  0  0  0  0  0  0  0  0
  -22.1310   -5.0663   23.6916 F   0  0  0  0  0  0  0  0  0  0  0  0
  1  2  1  0  0  0  0
  1  5  2  0  0  0  0
  2  6  2  0  0  0  0
  3  8  2  0  0  0  0
  3 17  1  0  0  0  0
  4  9  1  0  0  0  0
  4 17  2  0  0  0  0
  5 19  1  0  0  0  0
  6 21  1  0  0  0  0
  7 10  2  0  0  0  0
  7 20  1  0  0  0  0
  8 24  1  0  0  0  0
  9 24  2  0  0  0  0
 10 25  1  0  0  0  0
 11 12  2  0  0  0  0
 11 26  1  0  0  0  0
 12 28  1  0  0  0  0
 13 22  1  0  0  0  0
 13 25  2  0  0  0  0
 14 23  2  0  0  0  0
 14 29  1  0  0  0  0
 15 27  1  0  0  0  0
 15 30  2  0  0  0  0
 16 28  2  0  0  0  0
 16 31  1  0  0  0  0
 17 32  1  0  0  0  0
 18 32  1  0  0  0  0
 18 33  2  0  0  0  0
 18 34  1  0  0  0  0
 19 21  2  0  0  0  0
 19 39  1  0  0  0  0
 20 22  2  0  0  0  0
 20 40  1  0  0  0  0
 21 48  1  0  0  0  0
 22 41  1  0  0  0  0
 23 30  1  0  0  0  0
 23 67  1  0  0  0  0
 24 76  1  0  0  0  0
 25 77  1  0  0  0  0
 26 31  2  0  0  0  0
 26 76  1  0  0  0  0
 27 29  2  0  0  0  0
 27 78  1  0  0  0  0
 28 79  1  0  0  0  0
 29 80  1  0  0  0  0
 30 81  1  0  0  0  0
 31 82  1  0  0  0  0
 32 61  2  0  0  0  0
 33 62  1  0  0  0  0
 33 65  1  0  0  0  0
 34 66  1  0  0  0  0
 34 71  2  0  0  0  0
 35 49  1  0  0  0  0
 35 68  1  0  0  0  0
 35 72  2  0  0  0  0
 36 58  1  0  0  0  0
 36 63  1  0  0  0  0
 36 73  2  0  0  0  0
 37 59  1  0  0  0  0
 37 69  1  0  0  0  0
 37 74  2  0  0  0  0
 38 64  1  0  0  0  0
 38 67  1  0  0  0  0
 38 75  2  0  0  0  0
 39 42  1  0  0  0  0
 40 49  1  0  0  0  0
 41 63  1  0  0  0  0
 42 44  1  0  0  0  0
 43 45  1  0  0  0  0
 43 46  1  0  0  0  0
 44 48  1  0  0  0  0
 45 50  1  0  0  0  0
 46 64  1  0  0  0  0
 47 50  1  0  0  0  0
 47 64  1  0  0  0  0
 48 68  1  0  0  0  0
 49 63  1  0  0  0  0
 50 62  1  0  0  0  0
 51 59  1  0  0  0  0
 52 60  1  0  0  0  0
 53 60  1  0  0  0  0
 54 60  1  0  0  0  0
 55 70  1  0  0  0  0
 56 57  1  0  0  0  0
 56 77  1  0  0  0  0
 57 78  1  0  0  0  0
 58 60  1  0  0  0  0
 58 69  1  0  0  0  0
 59 70  1  0  0  0  0
 61 62  1  0  0  0  0
M  CHG  1  70   1
M  ISO  4  38 100  56 101  67 100  77 101
M  END
> <Batch ID>
0006

> <Smiles>
CNC(C)C(=O)NC(C(=O)N1Cc2cc([101O:1][101CH2:1]COc3cc(F)c([100NH:0][100C:0](=O)N4CCCC(n5nc(-c6ccc(Oc7ccc(F)cc7F)cc6)c(C(N)=O)c5N)C4)cc3F)ccc2CC1C(=O)NC1CCCc2ccccc21)C(C)(C)C

> <Shape>
0.216

> <Color>
0.197

> <Negative vol penalty>
0.000

$$$$

  -OEChem-04042320293D

 85 94  0     1  0  0  0  0  0999 V2000
  -28.5059  -19.3241   24.6129 C   0  0  0  0  0  0  0  0  0  0  0  0
  -27.8544  -18.4592   23.7386 C   0  0  0  0  0  0  0  0  0  0  0  0
  -29.7657  -34.3604   19.3963 C   0  0  0  0  0  0  0  0  0  0  0  0
  -30.7235  -33.6243   20.0864 C   0  0  0  0  0  0  0  0  0  0  0  0
  -29.8932  -19.2658   24.7486 C   0  0  0  0  0  0  0  0  0  0  0  0
  -28.5876  -17.5328   22.9966 C   0  0  0  0  0  0  0  0  0  0  0  0
  -22.9975   -9.9533   19.9810 C   0  0  0  0  0  0  0  0  0  0  0  0
  -23.7285   -9.9924   22.2834 C   0  0  0  0  0  0  0  0  0  0  0  0
  -28.4677  -33.8676   19.2691 C   0  0  0  0  0  0  0  0  0  0  0  0
  -30.3834  -32.3953   20.6507 C   0  0  0  0  0  0  0  0  0  0  0  0
  -33.1719  -25.9608   22.1130 C   0  0  0  0  0  0  0  0  0  0  0  0
  -32.7775  -17.3406   23.3917 C   0  0  0  0  0  0  0  0  0  0  0  0
  -32.1259  -16.4757   22.5174 C   0  0  0  0  0  0  0  0  0  0  0  0
  -22.2210   -8.8255   20.2466 C   0  0  0  0  0  0  0  0  0  0  0  0
  -22.9520   -8.8645   22.5491 C   0  0  0  0  0  0  0  0  0  0  0  0
  -33.3228  -25.0681   23.1732 C   0  0  0  0  0  0  0  0  0  0  0  0
  -23.1640   -5.5245   22.0692 C   0  0  0  0  0  0  0  0  0  0  0  0
  -23.7438   -4.5002   22.8177 C   0  0  0  0  0  0  0  0  0  0  0  0
  -31.0702  -24.2795   22.8220 C   0  0  0  0  0  0  0  0  0  0  0  0
  -22.0262   -4.7555   24.4975 C   0  0  0  0  0  0  0  0  0  0  0  0
  -30.6472  -18.3396   24.0096 C   0  0  0  0  0  0  0  0  0  0  0  0
  -29.9846  -17.4602   23.1206 C   0  0  0  0  0  0  0  0  0  0  0  0
  -23.7513  -10.5368   20.9993 C   0  0  0  0  0  0  0  0  0  0  0  0
  -24.1597  -13.0490   20.8280 C   0  0  0  0  0  0  0  0  0  0  0  0
  -28.1141  -32.6275   19.8238 C   0  0  0  0  0  0  0  0  0  0  0  0
  -31.9632  -26.0274   21.4051 C   0  0  0  0  0  0  0  0  0  0  0  0
  -29.0791  -31.8860   20.5319 C   0  0  0  0  0  0  0  0  0  0  0  0
  -30.9074  -25.1722   21.7516 C   0  0  0  0  0  0  0  0  0  0  0  0
  -32.0443  -18.2671   24.1336 C   0  0  0  0  0  0  0  0  0  0  0  0
  -30.7386  -16.5339   22.3817 C   0  0  0  0  0  0  0  0  0  0  0  0
  -22.1982   -8.2811   21.5306 C   0  0  0  0  0  0  0  0  0  0  0  0
  -32.2709  -24.2293   23.5297 C   0  0  0  0  0  0  0  0  0  0  0  0
  -22.0153   -6.1644   22.5349 C   0  0  0  0  0  0  0  0  0  0  0  0
  -23.1749   -4.1156   24.0318 C   0  0  0  0  0  0  0  0  0  0  0  0
  -21.4464   -5.7799   23.7490 C   0  0  0  0  0  0  0  0  0  0  0  0
  -24.5540  -11.7015   20.7254 C   0  0  0  0  0  0  0  0  0  0  0  0
  -25.2753  -13.7620   20.4625 C   0  0  0  0  0  0  0  0  0  0  0  0
  -22.8978  -13.6064   21.2187 C   0  0  0  0  0  0  0  0  0  0  0  0
  -29.7714  -28.2768   20.9155 C   0  0  0  0  0  0  0  0  0  0  0  0
  -28.5117  -26.0634   18.9065 C   0  0  0  0  0  0  0  0  0  0  0  0
  -28.2116  -22.7768   18.0377 C   0  0  0  0  0  0  0  0  0  0  0  0
  -30.7641  -14.6714   20.6857 C   0  0  0  0  0  0  0  0  0  0  0  0
  -26.6861  -32.1580   19.7010 C   0  0  0  0  0  0  0  0  0  0  0  0
  -31.8256  -26.9771   20.2469 C   0  0  0  0  0  0  0  0  0  0  0  0
  -29.5964  -25.1903   21.0104 C   0  0  0  0  0  0  0  0  0  0  0  0
  -26.5046  -30.6733   20.0063 C   0  0  0  0  0  0  0  0  0  0  0  0
  -29.6174  -12.2342   18.3570 C   0  0  0  0  0  0  0  0  0  0  0  0
  -27.2479  -30.2963   21.2839 C   0  0  0  0  0  0  0  0  0  0  0  0
  -28.1655  -11.9892   18.7740 C   0  0  0  0  0  0  0  0  0  0  0  0
  -30.5230  -12.4665   19.5651 C   0  0  0  0  0  0  0  0  0  0  0  0
  -28.6183  -13.2703   20.9049 C   0  0  0  0  0  0  0  0  0  0  0  0
  -28.7552  -30.5372   21.1367 C   0  0  1  0  0  0  0  0  0  0  0  0
  -30.3744  -27.3210   19.9254 C   0  0  1  0  0  0  0  0  0  0  0  0
  -27.6561  -13.0955   19.7186 C   0  0  2  0  0  0  0  0  0  0  0  0
  -27.0845  -21.2740   16.3738 C   0  0  0  0  0  0  0  0  0  0  0  0
  -25.8729  -26.3892   20.4033 C   0  0  0  0  0  0  0  0  0  0  0  0
  -25.0980  -24.2484   19.3618 C   0  0  0  0  0  0  0  0  0  0  0  0
  -25.6476  -26.2079   17.9192 C   0  0  0  0  0  0  0  0  0  0  0  0
  -30.8018  -21.7979   16.9928 C   0  0  0  0  0  0  0  0  0  0  0  0
  -32.8089  -19.1686   25.0574 C   0  0  0  0  0  0  0  0  0  0  0  0
  -33.6364  -21.4903   25.4621 C   0  0  0  0  0  0  0  0  0  0  0  0
  -33.7285  -22.8579   24.8145 C   0  0  0  0  0  0  0  0  0  1  0  0
  -27.5188  -24.9349   19.0462 C   0  0  1  0  0  0  0  0  0  0  0  0
  -28.3369  -22.0735   16.6983 C   0  0  2  0  0  0  0  0  0  0  0  0
  -26.0583  -25.4459   19.1980 C   0  0  0  0  0  0  0  0  0  0  0  0
  -25.8211  -11.5641   20.3260 N   0  0  0  0  0  0  0  0  0  0  0  0
  -26.2327  -12.8344   20.1742 N   0  0  0  0  0  0  0  0  0  0  0  0
  -29.5085  -26.1407   19.8894 N   0  0  0  0  0  0  0  0  0  0  0  0
  -29.9799  -13.5307   20.4121 N   0  0  0  0  0  0  0  0  0  0  0  0
  -25.5209  -15.0857   20.3628 N   0  0  0  0  0  0  0  0  0  0  0  0
  -21.8586  -12.7312   21.5627 N   0  0  0  0  0  0  0  0  0  0  0  0
  -30.1306  -15.6308   21.4748 N   0  0  0  0  0  0  0  0  0  0  0  0
  -29.3634  -29.4760   20.3632 N   0  0  0  0  0  0  0  0  0  0  0  0
  -27.7297  -24.0610   17.8972 N   0  0  0  0  0  0  0  0  0  0  0  0
  -29.4997  -21.1414   16.7093 N   0  3  0  0  0  0  0  0  0  0  0  0
  -32.9360  -20.5588   24.5424 N   0  3  0  0  0  0  0  0  0  0  0  0
  -22.6927  -14.8436   21.2457 O   0  0  0  0  0  0  0  0  0  0  0  0
  -29.6815  -27.9500   22.0931 O   0  0  0  0  0  0  0  0  0  0  0  0
  -28.4109  -26.8433   17.9560 O   0  0  0  0  0  0  0  0  0  0  0  0
  -28.5079  -22.2393   19.1025 O   0  0  0  0  0  0  0  0  0  0  0  0
  -31.9029  -14.8007   20.2292 O   0  0  0  0  0  0  0  0  0  0  0  0
  -21.4405   -7.1806   21.7903 O   0  0  0  0  0  0  0  0  0  0  0  0
  -32.4154  -23.3574   24.5645 O   0  0  0  0  0  0  0  0  0  1  0  0
  -23.7308   -3.1309   24.7497 F   0  0  0  0  0  0  0  0  0  0  0  0
  -20.3423   -6.3901   24.2010 F   0  0  0  0  0  0  0  0  0  0  0  0
  1  2  1  0  0  0  0
  1  5  2  0  0  0  0
  2  6  2  0  0  0  0
  3  4  1  0  0  0  0
  3  9  2  0  0  0  0
  4 10  2  0  0  0  0
  5 21  1  0  0  0  0
  6 22  1  0  0  0  0
  7 14  2  0  0  0  0
  7 23  1  0  0  0  0
  8 15  1  0  0  0  0
  8 23  2  0  0  0  0
  9 25  1  0  0  0  0
 10 27  1  0  0  0  0
 11 16  2  0  0  0  0
 11 26  1  0  0  0  0
 12 13  2  0  0  0  0
 12 29  1  0  0  0  0
 13 30  1  0  0  0  0
 14 31  1  0  0  0  0
 15 31  2  0  0  0  0
 16 32  1  0  0  0  0
 17 18  2  0  0  0  0
 17 33  1  0  0  0  0
 18 34  1  0  0  0  0
 19 28  1  0  0  0  0
 19 32  2  0  0  0  0
 20 34  2  0  0  0  0
 20 35  1  0  0  0  0
 21 22  1  0  0  0  0
 21 29  2  0  0  0  0
 22 30  2  0  0  0  0
 23 36  1  0  0  0  0
 24 36  1  0  0  0  0
 24 37  2  0  0  0  0
 24 38  1  0  0  0  0
 25 27  2  0  0  0  0
 25 43  1  0  0  0  0
 26 28  2  0  0  0  0
 26 44  1  0  0  0  0
 27 52  1  0  0  0  0
 28 45  1  0  0  0  0
 29 60  1  0  0  0  0
 30 72  1  0  0  0  0
 31 82  1  0  0  0  0
 32 83  1  0  0  0  0
 33 35  2  0  0  0  0
 33 82  1  0  0  0  0
 34 84  1  0  0  0  0
 35 85  1  0  0  0  0
 36 66  2  0  0  0  0
 37 67  1  0  0  0  0
 37 70  1  0  0  0  0
 38 71  1  0  0  0  0
 38 77  2  0  0  0  0
 39 53  1  0  0  0  0
 39 73  1  0  0  0  0
 39 78  2  0  0  0  0
 40 63  1  0  0  0  0
 40 68  1  0  0  0  0
 40 79  2  0  0  0  0
 41 64  1  0  0  0  0
 41 74  1  0  0  0  0
 41 80  2  0  0  0  0
 42 69  1  0  0  0  0
 42 72  1  0  0  0  0
 42 81  2  0  0  0  0
 43 46  1  0  0  0  0
 44 53  1  0  0  0  0
 45 68  1  0  0  0  0
 46 48  1  0  0  0  0
 47 49  1  0  0  0  0
 47 50  1  0  0  0  0
 48 52  1  0  0  0  0
 49 54  1  0  0  0  0
 50 69  1  0  0  0  0
 51 54  1  0  0  0  0
 51 69  1  0  0  0  0
 52 73  1  0  0  0  0
 53 68  1  0  0  0  0
 54 67  1  0  0  0  0
 55 64  1  0  0  0  0
 56 65  1  0  0  0  0
 57 65  1  0  0  0  0
 58 65  1  0  0  0  0
 59 75  1  0  0  0  0
 60 76  1  0  0  0  0
 61 62  1  0  0  0  0
 61 76  1  0  0  0  0
 62 83  1  0  0  0  0
 63 65  1  0  0  0  0
 63 74  1  0  0  0  0
 64 75  1  0  0  0  0
 66 67  1  0  0  0  0
M  CHG  2  75   1  76   1
M  ISO  4  42 100  62 101  72 100  83 101
M  END
> <Batch ID>
0006

> <Smiles>
CNC(C)C(=O)NC(C(=O)N1Cc2cc([101O:1][101CH2:1]CNCc3ccc([100NH:0][100C:0](=O)N4CCCC(n5nc(-c6ccc(Oc7ccc(F)cc7F)cc6)c(C(N)=O)c5N)C4)c4ccccc34)ccc2CC1C(=O)NC1CCCc2ccccc21)C(C)(C)C

> <Shape>
0.259

> <Color>
0.204

> <Negative vol penalty>
0.000

$$$$

  -OEChem-04042320293D

 86 95  0     1  0  0  0  0  0999 V2000
  -35.1274  -22.5406   15.9546 C   0  0  0  0  0  0  0  0  0  0  0  0
  -34.5155  -21.8238   14.9306 C   0  0  0  0  0  0  0  0  0  0  0  0
  -26.7850  -33.4838   27.5473 C   0  0  0  0  0  0  0  0  0  0  0  0
  -27.3430  -32.6234   26.6072 C   0  0  0  0  0  0  0  0  0  0  0  0
  -34.3767  -23.4164   16.7394 C   0  0  0  0  0  0  0  0  0  0  0  0
  -33.1506  -21.9800   14.6875 C   0  0  0  0  0  0  0  0  0  0  0  0
  -26.1167  -15.3386   21.2037 C   0  0  0  0  0  0  0  0  0  0  0  0
  -27.3100  -14.8912   19.1512 C   0  0  0  0  0  0  0  0  0  0  0  0
  -25.4325  -33.3799   27.8695 C   0  0  0  0  0  0  0  0  0  0  0  0
  -26.5489  -31.6578   25.9895 C   0  0  0  0  0  0  0  0  0  0  0  0
  -27.0219  -29.6383   20.2273 C   0  0  0  0  0  0  0  0  0  0  0  0
  -25.8391  -13.9784   21.3389 C   0  0  0  0  0  0  0  0  0  0  0  0
  -27.0324  -13.5309   19.2864 C   0  0  0  0  0  0  0  0  0  0  0  0
  -27.6207  -28.5063   19.6763 C   0  0  0  0  0  0  0  0  0  0  0  0
  -23.6670  -11.7387   20.0387 C   0  0  0  0  0  0  0  0  0  0  0  0
  -22.3670  -11.3751   20.3897 C   0  0  0  0  0  0  0  0  0  0  0  0
  -32.2308  -24.4632   17.2890 C   0  0  0  0  0  0  0  0  0  0  0  0
  -25.4915  -27.3728   19.7062 C   0  0  0  0  0  0  0  0  0  0  0  0
  -23.2056  -10.3035   22.3861 C   0  0  0  0  0  0  0  0  0  0  0  0
  -33.0018  -23.5861   16.5089 C   0  0  0  0  0  0  0  0  0  0  0  0
  -32.3796  -22.8571   15.4675 C   0  0  0  0  0  0  0  0  0  0  0  0
  -26.8521  -15.7950   20.1098 C   0  0  0  0  0  0  0  0  0  0  0  0
  -28.2575  -17.8936   20.4684 C   0  0  0  0  0  0  0  0  0  0  0  0
  -24.6193  -32.4189   27.2484 C   0  0  0  0  0  0  0  0  0  0  0  0
  -25.6533  -29.6424   20.5325 C   0  0  0  0  0  0  0  0  0  0  0  0
  -25.1846  -31.5401   26.3047 C   0  0  0  0  0  0  0  0  0  0  0  0
  -24.8772  -28.5071   20.2587 C   0  0  0  0  0  0  0  0  0  0  0  0
  -30.8659  -24.6195   17.0458 C   0  0  0  0  0  0  0  0  0  0  0  0
  -30.2540  -23.9026   16.0218 C   0  0  0  0  0  0  0  0  0  0  0  0
  -31.0047  -23.0268   15.2369 C   0  0  0  0  0  0  0  0  0  0  0  0
  -26.2970  -13.0745   20.3802 C   0  0  0  0  0  0  0  0  0  0  0  0
  -26.8562  -27.3723   19.4183 C   0  0  0  0  0  0  0  0  0  0  0  0
  -24.7365  -11.3847   20.8614 C   0  0  0  0  0  0  0  0  0  0  0  0
  -22.1363  -10.6575   21.5634 C   0  0  0  0  0  0  0  0  0  0  0  0
  -24.5057  -10.6671   22.0351 C   0  0  0  0  0  0  0  0  0  0  0  0
  -27.1387  -17.2001   19.9693 C   0  0  0  0  0  0  0  0  0  0  0  0
  -28.0616  -19.1934   20.0701 C   0  0  0  0  0  0  0  0  0  0  0  0
  -29.3742  -17.4063   21.2243 C   0  0  0  0  0  0  0  0  0  0  0  0
  -23.9501  -29.9695   23.1963 C   0  0  0  0  0  0  0  0  0  0  0  0
  -21.4462  -29.9527   21.1341 C   0  0  0  0  0  0  0  0  0  0  0  0
  -20.2093  -29.0436   18.0861 C   0  0  0  0  0  0  0  0  0  0  0  0
  -26.6276  -22.9274   16.1783 C   0  0  0  0  0  0  0  0  0  0  0  0
  -23.1733  -32.3135   27.6640 C   0  0  0  0  0  0  0  0  0  0  0  0
  -25.0170  -30.8807   21.1017 C   0  0  0  0  0  0  0  0  0  0  0  0
  -23.3999  -28.4673   20.5492 C   0  0  0  0  0  0  0  0  0  0  0  0
  -22.3165  -31.5096   26.6894 C   0  0  0  0  0  0  0  0  0  0  0  0
  -23.9990  -21.4467   18.0690 C   0  0  0  0  0  0  0  0  0  0  0  0
  -23.0205  -30.2124   26.3042 C   0  0  0  0  0  0  0  0  0  0  0  0
  -24.6723  -20.2641   18.7677 C   0  0  0  0  0  0  0  0  0  0  0  0
  -24.5540  -21.6618   16.6627 C   0  0  0  0  0  0  0  0  0  0  0  0
  -26.6943  -20.6121   17.2881 C   0  0  0  0  0  0  0  0  0  0  0  0
  -24.3502  -30.4959   25.5950 C   0  0  1  0  0  0  0  0  0  0  0  0
  -23.7186  -30.5954   21.8501 C   0  0  1  0  0  0  0  0  0  0  0  0
  -26.2072  -20.3905   18.7303 C   0  0  2  0  0  0  0  0  0  0  0  0
  -18.1179  -29.1345   16.7021 C   0  0  0  0  0  0  0  0  0  0  0  0
  -20.2416  -27.7062   22.8112 C   0  0  0  0  0  0  0  0  0  0  0  0
  -18.6963  -27.2066   20.9057 C   0  0  0  0  0  0  0  0  0  0  0  0
  -18.5995  -29.4269   22.0386 C   0  0  0  0  0  0  0  0  0  0  0  0
  -21.5374  -30.6355   15.9741 C   0  0  0  0  0  0  0  0  0  0  0  0
  -30.0777  -25.5728   17.9083 C   0  0  0  0  0  0  0  0  0  0  0  0
  -28.7885  -24.0777   15.7701 C   0  0  0  0  0  0  0  0  0  0  0  0
  -29.2509  -24.8282   18.9562 C   0  0  0  0  0  0  0  0  0  0  0  0
  -20.5602  -28.8862   20.5369 C   0  0  1  0  0  0  0  0  0  0  0  0
  -19.4306  -29.8231   17.0418 C   0  0  2  0  0  0  0  0  0  0  0  0
  -19.5526  -28.3062   21.5693 C   0  0  0  0  0  0  0  0  0  0  0  0
  -26.2944  -17.9937   19.3049 N   0  0  0  0  0  0  0  0  0  0  0  0
  -26.8830  -19.1993   19.3838 N   0  0  0  0  0  0  0  0  0  0  0  0
  -22.8253  -29.7008   21.1112 N   0  0  0  0  0  0  0  0  0  0  0  0
  -26.0141  -21.7753   16.6972 N   0  0  0  0  0  0  0  0  0  0  0  0
  -30.3498  -22.3119   14.2009 N   0  0  0  0  0  0  0  0  0  0  0  0
  -28.7842  -20.3204   20.2437 N   0  0  0  0  0  0  0  0  0  0  0  0
  -29.4183  -16.0434   21.5479 N   0  0  0  0  0  0  0  0  0  0  0  0
  -24.1172  -30.8826   24.2200 N   0  0  0  0  0  0  0  0  0  0  0  0
  -19.9346  -29.4854   19.3631 N   0  0  0  0  0  0  0  0  0  0  0  0
  -28.0147  -22.9571   16.2560 N   0  0  0  0  0  0  0  0  0  0  0  0
  -28.4941  -25.7729   19.7652 N   0  0  0  0  0  0  0  0  0  1  0  0
  -20.2299  -29.9544   15.7909 N   0  3  0  0  0  0  0  0  0  0  0  0
  -30.2971  -18.1604   21.6157 O   0  0  0  0  0  0  0  0  0  0  0  0
  -23.9737  -28.7486   23.2990 O   0  0  0  0  0  0  0  0  0  0  0  0
  -20.9340  -30.9748   21.5973 O   0  0  0  0  0  0  0  0  0  0  0  0
  -20.9809  -28.1314   17.7982 O   0  0  0  0  0  0  0  0  0  0  0  0
  -25.9865  -23.8628   15.6874 O   0  0  0  0  0  0  0  0  0  0  0  0
  -26.0265  -11.7471   20.5120 O   0  0  0  0  0  0  0  0  0  0  0  0
  -27.4383  -26.2657   18.8812 O   0  0  0  0  0  0  0  0  0  1  0  0
  -20.8876  -10.3098   21.9011 F   0  0  0  0  0  0  0  0  0  0  0  0
  -25.5289  -10.3252   22.8300 F   0  0  0  0  0  0  0  0  0  0  0  0
  1  2  1  0  0  0  0
  1  5  2  0  0  0  0
  2  6  2  0  0  0  0
  3  4  1  0  0  0  0
  3  9  2  0  0  0  0
  4 10  2  0  0  0  0
  5 20  1  0  0  0  0
  6 21  1  0  0  0  0
  7 12  2  0  0  0  0
  7 22  1  0  0  0  0
  8 13  1  0  0  0  0
  8 22  2  0  0  0  0
  9 24  1  0  0  0  0
 10 26  1  0  0  0  0
 11 14  2  0  0  0  0
 11 25  1  0  0  0  0
 12 31  1  0  0  0  0
 13 31  2  0  0  0  0
 14 32  1  0  0  0  0
 15 16  2  0  0  0  0
 15 33  1  0  0  0  0
 16 34  1  0  0  0  0
 17 20  2  0  0  0  0
 17 28  1  0  0  0  0
 18 27  1  0  0  0  0
 18 32  2  0  0  0  0
 19 34  2  0  0  0  0
 19 35  1  0  0  0  0
 20 21  1  0  0  0  0
 21 30  2  0  0  0  0
 22 36  1  0  0  0  0
 23 36  1  0  0  0  0
 23 37  2  0  0  0  0
 23 38  1  0  0  0  0
 24 26  2  0  0  0  0
 24 43  1  0  0  0  0
 25 27  2  0  0  0  0
 25 44  1  0  0  0  0
 26 52  1  0  0  0  0
 27 45  1  0  0  0  0
 28 29  2  0  0  0  0
 28 60  1  0  0  0  0
 29 30  1  0  0  0  0
 29 61  1  0  0  0  0
 30 70  1  0  0  0  0
 31 83  1  0  0  0  0
 32 84  1  0  0  0  0
 33 35  2  0  0  0  0
 33 83  1  0  0  0  0
 34 85  1  0  0  0  0
 35 86  1  0  0  0  0
 36 66  2  0  0  0  0
 37 67  1  0  0  0  0
 37 71  1  0  0  0  0
 38 72  1  0  0  0  0
 38 78  2  0  0  0  0
 39 53  1  0  0  0  0
 39 73  1  0  0  0  0
 39 79  2  0  0  0  0
 40 63  1  0  0  0  0
 40 68  1  0  0  0  0
 40 80  2  0  0  0  0
 41 64  1  0  0  0  0
 41 74  1  0  0  0  0
 41 81  2  0  0  0  0
 42 69  1  0  0  0  0
 42 75  1  0  0  0  0
 42 82  2  0  0  0  0
 43 46  1  0  0  0  0
 44 53  1  0  0  0  0
 45 68  1  0  0  0  0
 46 48  1  0  0  0  0
 47 49  1  0  0  0  0
 47 50  1  0  0  0  0
 48 52  1  0  0  0  0
 49 54  1  0  0  0  0
 50 69  1  0  0  0  0
 51 54  1  0  0  0  0
 51 69  1  0  0  0  0
 52 73  1  0  0  0  0
 53 68  1  0  0  0  0
 54 67  1  0  0  0  0
 55 64  1  0  0  0  0
 56 65  1  0  0  0  0
 57 65  1  0  0  0  0
 58 65  1  0  0  0  0
 59 77  1  0  0  0  0
 60 62  1  0  0  0  0
 61 75  1  0  0  0  0
 62 76  1  0  0  0  0
 63 65  1  0  0  0  0
 63 74  1  0  0  0  0
 64 77  1  0  0  0  0
 66 67  1  0  0  0  0
 76 84  1  0  0  0  0
M  CHG  1  77   1
M  ISO  4  42 100  75 100  76 101  84 101
M  END
> <Batch ID>
0006

> <Smiles>
CNC(C)C(=O)NC(C(=O)N1Cc2cc([101O:1][101NH:1]CCc3cc4ccccc4c(N)c3C[100NH:0][100C:0](=O)N3CCCC(n4nc(-c5ccc(Oc6ccc(F)cc6F)cc5)c(C(N)=O)c4N)C3)ccc2CC1C(=O)NC1CCCc2ccccc21)C(C)(C)C

> <Shape>
0.258

> <Color>
0.076

> <Negative vol penalty>
0.000

$$$$

  -OEChem-04042320293D

 83 92  0     1  0  0  0  0  0999 V2000
  -26.7286  -25.3941   11.6321 C   0  0  0  0  0  0  0  0  0  0  0  0
  -27.1742  -24.7634   12.7893 C   0  0  0  0  0  0  0  0  0  0  0  0
  -27.9217  -18.2237   24.1527 C   0  0  0  0  0  0  0  0  0  0  0  0
  -31.3847  -19.0099   20.5474 C   0  0  0  0  0  0  0  0  0  0  0  0
  -28.6231  -17.3872   23.2839 C   0  0  0  0  0  0  0  0  0  0  0  0
  -30.6832  -19.8464   21.4162 C   0  0  0  0  0  0  0  0  0  0  0  0
  -23.0702   -9.8752   19.9408 C   0  0  0  0  0  0  0  0  0  0  0  0
  -23.8321   -9.8768   22.2335 C   0  0  0  0  0  0  0  0  0  0  0  0
  -25.9050  -26.5154   11.7238 C   0  0  0  0  0  0  0  0  0  0  0  0
  -26.7974  -25.2542   14.0389 C   0  0  0  0  0  0  0  0  0  0  0  0
  -25.6846  -21.9842   19.0960 C   0  0  0  0  0  0  0  0  0  0  0  0
  -28.1324  -19.5989   24.1179 C   0  0  0  0  0  0  0  0  0  0  0  0
  -31.1739  -17.6346   20.5823 C   0  0  0  0  0  0  0  0  0  0  0  0
  -22.3243   -8.7231   20.1894 C   0  0  0  0  0  0  0  0  0  0  0  0
  -23.0862   -8.7246   22.4822 C   0  0  0  0  0  0  0  0  0  0  0  0
  -26.4647  -21.6902   20.2135 C   0  0  0  0  0  0  0  0  0  0  0  0
  -19.3758   -7.9297   21.6419 C   0  0  0  0  0  0  0  0  0  0  0  0
  -18.0684   -7.8869   21.1577 C   0  0  0  0  0  0  0  0  0  0  0  0
  -25.4495  -23.5296   21.3988 C   0  0  0  0  0  0  0  0  0  0  0  0
  -18.6232   -5.9450   19.8317 C   0  0  0  0  0  0  0  0  0  0  0  0
  -29.7604  -19.3160   22.3323 C   0  0  0  0  0  0  0  0  0  0  0  0
  -29.5460  -17.9175   22.3678 C   0  0  0  0  0  0  0  0  0  0  0  0
  -23.8242  -10.4521   20.9628 C   0  0  0  0  0  0  0  0  0  0  0  0
  -24.1708  -12.9767   20.8469 C   0  0  0  0  0  0  0  0  0  0  0  0
  -25.5100  -27.0144   12.9750 C   0  0  0  0  0  0  0  0  0  0  0  0
  -24.7874  -23.0617   19.1179 C   0  0  0  0  0  0  0  0  0  0  0  0
  -25.9688  -26.3840   14.1473 C   0  0  0  0  0  0  0  0  0  0  0  0
  -24.6572  -23.8337   20.2812 C   0  0  0  0  0  0  0  0  0  0  0  0
  -29.0455  -20.1429   23.2142 C   0  0  0  0  0  0  0  0  0  0  0  0
  -30.2609  -17.0906   21.4861 C   0  0  0  0  0  0  0  0  0  0  0  0
  -22.3323   -8.1478   21.4601 C   0  0  0  0  0  0  0  0  0  0  0  0
  -26.3494  -22.4647   21.3641 C   0  0  0  0  0  0  0  0  0  0  0  0
  -20.3070   -6.9803   21.2209 C   0  0  0  0  0  0  0  0  0  0  0  0
  -17.6921   -6.8945   20.2526 C   0  0  0  0  0  0  0  0  0  0  0  0
  -19.9306   -5.9879   20.3158 C   0  0  0  0  0  0  0  0  0  0  0  0
  -24.5953  -11.6419   20.7065 C   0  0  0  0  0  0  0  0  0  0  0  0
  -25.2641  -13.7247   20.4839 C   0  0  0  0  0  0  0  0  0  0  0  0
  -22.9017  -13.4943   21.2678 C   0  0  0  0  0  0  0  0  0  0  0  0
  -24.4926  -25.7689   17.4783 C   0  0  0  0  0  0  0  0  0  0  0  0
  -21.7350  -26.0347   19.1657 C   0  0  0  0  0  0  0  0  0  0  0  0
  -19.9510  -25.1969   21.9518 C   0  0  0  0  0  0  0  0  0  0  0  0
  -30.7324  -14.7594   20.6556 C   0  0  0  0  0  0  0  0  0  0  0  0
  -24.6572  -28.2574   13.0244 C   0  0  0  0  0  0  0  0  0  0  0  0
  -23.9336  -23.3493   17.9134 C   0  0  0  0  0  0  0  0  0  0  0  0
  -23.6941  -24.9888   20.3628 C   0  0  0  0  0  0  0  0  0  0  0  0
  -23.9984  -28.4905   14.3815 C   0  0  0  0  0  0  0  0  0  0  0  0
  -29.6113  -12.3519   18.2842 C   0  0  0  0  0  0  0  0  0  0  0  0
  -25.0118  -28.3033   15.5061 C   0  0  0  0  0  0  0  0  0  0  0  0
  -28.1714  -12.0623   18.7145 C   0  0  0  0  0  0  0  0  0  0  0  0
  -30.5279  -12.5768   19.4854 C   0  0  0  0  0  0  0  0  0  0  0  0
  -28.6236  -13.3026   20.8696 C   0  0  0  0  0  0  0  0  0  0  0  0
  -25.5614  -26.8718   15.5208 C   0  0  1  0  0  0  0  0  0  0  0  0
  -23.4252  -24.7871   17.8709 C   0  0  1  0  0  0  0  0  0  0  0  0
  -27.6494  -13.1333   19.6923 C   0  0  2  0  0  0  0  0  0  0  0  0
  -17.7408  -25.5985   23.0702 C   0  0  0  0  0  0  0  0  0  0  0  0
  -22.6812  -28.8016   20.0366 C   0  0  0  0  0  0  0  0  0  0  0  0
  -20.9524  -28.7466   21.8467 C   0  0  0  0  0  0  0  0  0  0  0  0
  -20.2531  -28.6651   19.4535 C   0  0  0  0  0  0  0  0  0  0  0  0
  -19.2388  -22.3267   21.8343 C   0  0  0  0  0  0  0  0  0  0  0  0
  -29.2237  -21.6379   23.2284 C   0  0  0  0  0  0  0  0  0  0  0  0
  -21.3486  -26.6382   20.4944 C   0  0  1  0  0  0  0  0  0  0  0  0
  -18.5260  -24.7030   22.1246 C   0  0  2  0  0  0  0  0  0  0  0  0
  -21.3284  -28.1924   20.4559 C   0  0  0  0  0  0  0  0  0  0  0  0
  -25.8596  -11.5443   20.2869 N   0  0  0  0  0  0  0  0  0  0  0  0
  -26.2389  -12.8274   20.1605 N   0  0  0  0  0  0  0  0  0  0  0  0
  -22.8860  -25.2341   19.1569 N   0  0  0  0  0  0  0  0  0  0  0  0
  -29.9717  -13.6072   20.3650 N   0  0  0  0  0  0  0  0  0  0  0  0
  -25.4770  -15.0559   20.4130 N   0  0  0  0  0  0  0  0  0  0  0  0
  -21.8883  -12.5865   21.6044 N   0  0  0  0  0  0  0  0  0  0  0  0
  -30.0876  -15.6843   21.4762 N   0  0  0  0  0  0  0  0  0  0  0  0
  -24.6005  -25.9675   16.1151 N   0  0  0  0  0  0  0  0  0  0  0  0
  -20.0731  -26.0330   20.8621 N   0  0  0  0  0  0  0  0  0  0  0  0
  -28.5302  -22.2770   22.1192 N   0  0  0  0  0  0  0  0  0  1  0  0
  -18.5211  -23.3184   22.6759 N   0  3  0  0  0  0  0  0  0  0  0  0
  -22.6679  -14.7253   21.3275 O   0  0  0  0  0  0  0  0  0  0  0  0
  -25.1674  -26.3076   18.3479 O   0  0  0  0  0  0  0  0  0  0  0  0
  -21.0371  -26.2593   18.1736 O   0  0  0  0  0  0  0  0  0  0  0  0
  -20.8637  -24.8764   22.7099 O   0  0  0  0  0  0  0  0  0  0  0  0
  -31.8615  -14.9268   20.1873 O   0  0  0  0  0  0  0  0  0  0  0  0
  -21.6044   -7.0237   21.7031 O   0  0  0  0  0  0  0  0  0  0  0  0
  -27.1102  -22.1803   22.4560 O   0  0  0  0  0  0  0  0  0  1  0  0
  -16.4361   -6.8525   19.7889 F   0  0  0  0  0  0  0  0  0  0  0  0
  -20.8204   -5.0723   19.9086 F   0  0  0  0  0  0  0  0  0  0  0  0
  1  2  1  0  0  0  0
  1  9  2  0  0  0  0
  2 10  2  0  0  0  0
  3  5  1  0  0  0  0
  3 12  2  0  0  0  0
  4  6  2  0  0  0  0
  4 13  1  0  0  0  0
  5 22  2  0  0  0  0
  6 21  1  0  0  0  0
  7 14  2  0  0  0  0
  7 23  1  0  0  0  0
  8 15  1  0  0  0  0
  8 23  2  0  0  0  0
  9 25  1  0  0  0  0
 10 27  1  0  0  0  0
 11 16  2  0  0  0  0
 11 26  1  0  0  0  0
 12 29  1  0  0  0  0
 13 30  2  0  0  0  0
 14 31  1  0  0  0  0
 15 31  2  0  0  0  0
 16 32  1  0  0  0  0
 17 18  2  0  0  0  0
 17 33  1  0  0  0  0
 18 34  1  0  0  0  0
 19 28  1  0  0  0  0
 19 32  2  0  0  0  0
 20 34  2  0  0  0  0
 20 35  1  0  0  0  0
 21 22  1  0  0  0  0
 21 29  2  0  0  0  0
 22 30  1  0  0  0  0
 23 36  1  0  0  0  0
 24 36  1  0  0  0  0
 24 37  2  0  0  0  0
 24 38  1  0  0  0  0
 25 27  2  0  0  0  0
 25 43  1  0  0  0  0
 26 28  2  0  0  0  0
 26 44  1  0  0  0  0
 27 52  1  0  0  0  0
 28 45  1  0  0  0  0
 29 60  1  0  0  0  0
 30 70  1  0  0  0  0
 31 80  1  0  0  0  0
 32 81  1  0  0  0  0
 33 35  2  0  0  0  0
 33 80  1  0  0  0  0
 34 82  1  0  0  0  0
 35 83  1  0  0  0  0
 36 64  2  0  0  0  0
 37 65  1  0  0  0  0
 37 68  1  0  0  0  0
 38 69  1  0  0  0  0
 38 75  2  0  0  0  0
 39 53  1  0  0  0  0
 39 71  1  0  0  0  0
 39 76  2  0  0  0  0
 40 61  1  0  0  0  0
 40 66  1  0  0  0  0
 40 77  2  0  0  0  0
 41 62  1  0  0  0  0
 41 72  1  0  0  0  0
 41 78  2  0  0  0  0
 42 67  1  0  0  0  0
 42 70  1  0  0  0  0
 42 79  2  0  0  0  0
 43 46  1  0  0  0  0
 44 53  1  0  0  0  0
 45 66  1  0  0  0  0
 46 48  1  0  0  0  0
 47 49  1  0  0  0  0
 47 50  1  0  0  0  0
 48 52  1  0  0  0  0
 49 54  1  0  0  0  0
 50 67  1  0  0  0  0
 51 54  1  0  0  0  0
 51 67  1  0  0  0  0
 52 71  1  0  0  0  0
 53 66  1  0  0  0  0
 54 65  1  0  0  0  0
 55 62  1  0  0  0  0
 56 63  1  0  0  0  0
 57 63  1  0  0  0  0
 58 63  1  0  0  0  0
 59 74  1  0  0  0  0
 60 73  1  0  0  0  0
 61 63  1  0  0  0  0
 61 72  1  0  0  0  0
 62 74  1  0  0  0  0
 64 65  1  0  0  0  0
 73 81  1  0  0  0  0
M  CHG  1  74   1
M  ISO  4  42 100  70 100  73 101  81 101
M  END
> <Batch ID>
0006

> <Smiles>
CNC(C)C(=O)NC(C(=O)N1Cc2cc([101O:1][101NH:1]Cc3cccc4c([100NH:0][100C:0](=O)N5CCCC(n6nc(-c7ccc(Oc8ccc(F)cc8F)cc7)c(C(N)=O)c6N)C5)cccc34)ccc2CC1C(=O)NC1CCCc2ccccc21)C(C)(C)C

> <Shape>
0.205

> <Color>
0.200

> <Negative vol penalty>
0.000

$$$$

  -OEChem-04042320293D

 83 92  0     1  0  0  0  0  0999 V2000
  -40.2326  -27.3966   19.5573 C   0  0  0  0  0  0  0  0  0  0  0  0
  -39.3507  -26.7682   20.4308 C   0  0  0  0  0  0  0  0  0  0  0  0
  -23.0861   -9.8393   20.0601 C   0  0  0  0  0  0  0  0  0  0  0  0
  -23.8004  -10.0121   22.3616 C   0  0  0  0  0  0  0  0  0  0  0  0
  -39.7443  -28.2569   18.5747 C   0  0  0  0  0  0  0  0  0  0  0  0
  -37.9800  -27.0007   20.3228 C   0  0  0  0  0  0  0  0  0  0  0  0
  -35.2566  -22.7432   20.6418 C   0  0  0  0  0  0  0  0  0  0  0  0
  -32.6749  -17.6308   23.1842 C   0  0  0  0  0  0  0  0  0  0  0  0
  -32.0685  -16.6973   22.3389 C   0  0  0  0  0  0  0  0  0  0  0  0
  -22.3289   -8.7123   20.3797 C   0  0  0  0  0  0  0  0  0  0  0  0
  -23.0432   -8.8851   22.6812 C   0  0  0  0  0  0  0  0  0  0  0  0
  -35.0584  -22.2079   21.9139 C   0  0  0  0  0  0  0  0  0  0  0  0
  -19.7979   -8.1533   23.2755 C   0  0  0  0  0  0  0  0  0  0  0  0
  -19.0176   -8.2049   24.4305 C   0  0  0  0  0  0  0  0  0  0  0  0
  -29.8677  -17.6024   22.8227 C   0  0  0  0  0  0  0  0  0  0  0  0
  -32.8535  -23.1847   21.9746 C   0  0  0  0  0  0  0  0  0  0  0  0
  -20.2299   -6.3203   25.3337 C   0  0  0  0  0  0  0  0  0  0  0  0
  -31.0165  -20.2065   25.1161 C   0  0  0  0  0  0  0  0  0  0  0  0
  -30.4564  -18.5530   23.6801 C   0  0  0  0  0  0  0  0  0  0  0  0
  -23.8219  -10.4892   21.0510 C   0  0  0  0  0  0  0  0  0  0  0  0
  -24.1847  -12.9964   20.7510 C   0  0  0  0  0  0  0  0  0  0  0  0
  -38.3661  -28.4925   18.4485 C   0  0  0  0  0  0  0  0  0  0  0  0
  -34.2573  -23.5136   20.0302 C   0  0  0  0  0  0  0  0  0  0  0  0
  -37.4730  -27.8659   19.3385 C   0  0  0  0  0  0  0  0  0  0  0  0
  -33.0406  -23.7264   20.6938 C   0  0  0  0  0  0  0  0  0  0  0  0
  -31.8437  -18.5453   23.8408 C   0  0  0  0  0  0  0  0  0  0  0  0
  -30.6868  -16.6815   22.1594 C   0  0  0  0  0  0  0  0  0  0  0  0
  -22.3074   -8.2352   21.6902 C   0  0  0  0  0  0  0  0  0  0  0  0
  -33.8578  -22.4311   22.5817 C   0  0  0  0  0  0  0  0  0  0  0  0
  -20.7941   -7.1851   23.1495 C   0  0  0  0  0  0  0  0  0  0  0  0
  -29.9481  -19.6064   24.4905 C   0  0  0  0  0  0  0  0  0  0  0  0
  -19.2336   -7.2885   25.4596 C   0  0  0  0  0  0  0  0  0  0  0  0
  -21.0101   -6.2687   24.1786 C   0  0  0  0  0  0  0  0  0  0  0  0
  -24.6047  -11.6531   20.7213 C   0  0  0  0  0  0  0  0  0  0  0  0
  -25.2893  -13.7104   20.3554 C   0  0  0  0  0  0  0  0  0  0  0  0
  -22.9100  -13.5494   21.1046 C   0  0  0  0  0  0  0  0  0  0  0  0
  -34.0477  -26.5185   19.0150 C   0  0  0  0  0  0  0  0  0  0  0  0
  -31.1770  -25.5235   17.8785 C   0  0  0  0  0  0  0  0  0  0  0  0
  -28.5841  -23.3149   18.0921 C   0  0  0  0  0  0  0  0  0  0  0  0
  -30.7585  -14.7338   20.5632 C   0  0  0  0  0  0  0  0  0  0  0  0
  -37.8892  -29.4673   17.4012 C   0  0  0  0  0  0  0  0  0  0  0  0
  -34.4764  -24.0615   18.6466 C   0  0  0  0  0  0  0  0  0  0  0  0
  -31.9282  -24.5294   20.0723 C   0  0  0  0  0  0  0  0  0  0  0  0
  -36.3933  -29.3687   17.1135 C   0  0  0  0  0  0  0  0  0  0  0  0
  -29.6735  -12.1574   18.3583 C   0  0  0  0  0  0  0  0  0  0  0  0
  -35.6017  -29.3128   18.4162 C   0  0  0  0  0  0  0  0  0  0  0  0
  -28.2235  -11.9070   18.7789 C   0  0  0  0  0  0  0  0  0  0  0  0
  -30.5663  -12.4694   19.5580 C   0  0  0  0  0  0  0  0  0  0  0  0
  -28.6377  -13.3057   20.8427 C   0  0  0  0  0  0  0  0  0  0  0  0
  -35.9774  -28.0734   19.2373 C   0  0  1  0  0  0  0  0  0  0  0  0
  -33.5885  -25.2615   18.3317 C   0  0  1  0  0  0  0  0  0  0  0  0
  -27.6872  -13.0512   19.6614 C   0  0  2  0  0  0  0  0  0  0  0  0
  -26.3635  -22.7776   17.0540 C   0  0  0  0  0  0  0  0  0  0  0  0
  -29.9146  -27.8651   19.3728 C   0  0  0  0  0  0  0  0  0  0  0  0
  -27.6899  -26.7499   19.0994 C   0  0  0  0  0  0  0  0  0  0  0  0
  -28.9821  -27.4614   17.0877 C   0  0  0  0  0  0  0  0  0  0  0  0
  -29.5036  -20.6365   17.2318 C   0  0  0  0  0  0  0  0  0  0  0  0
  -33.5452  -19.9190   25.1847 C   0  0  0  0  0  0  0  0  0  0  0  0
  -34.3314  -20.6874   24.1280 C   0  0  0  0  0  0  0  0  0  1  0  0
  -29.7715  -25.4672   18.4265 C   0  0  1  0  0  0  0  0  0  0  0  0
  -27.8597  -22.5063   17.0310 C   0  0  2  0  0  0  0  0  0  0  0  0
  -29.1110  -26.8723   18.5094 C   0  0  0  0  0  0  0  0  0  0  0  0
  -25.8769  -11.5190   20.3371 N   0  0  0  0  0  0  0  0  0  0  0  0
  -32.1555  -19.5597   24.7177 N   0  0  0  0  0  0  0  0  0  0  0  0
  -26.2657  -12.7872   20.1216 N   0  0  0  0  0  0  0  0  0  0  0  0
  -32.1928  -25.0495   18.7206 N   0  0  0  0  0  0  0  0  0  0  0  0
  -29.9976  -13.5658   20.3450 N   0  0  0  0  0  0  0  0  0  0  0  0
  -25.5109  -15.0315   20.1882 N   0  0  0  0  0  0  0  0  0  0  0  0
  -21.8849  -12.6737   21.4877 N   0  0  0  0  0  0  0  0  0  0  0  0
  -30.1019  -15.7209   21.2974 N   0  0  0  0  0  0  0  0  0  0  0  0
  -35.3380  -26.8943   18.6937 N   0  0  0  0  0  0  0  0  0  0  0  0
  -29.0463  -24.5143   17.5931 N   0  0  0  0  0  0  0  0  0  0  0  0
  -28.0765  -21.0486   17.2528 N   0  3  0  0  0  0  0  0  0  0  0  0
  -22.6817  -14.7822   21.0657 O   0  0  0  0  0  0  0  0  0  0  0  0
  -33.2870  -27.1048   19.7761 O   0  0  0  0  0  0  0  0  0  0  0  0
  -31.3658  -25.9650   16.7422 O   0  0  0  0  0  0  0  0  0  0  0  0
  -28.7227  -22.9233   19.2488 O   0  0  0  0  0  0  0  0  0  0  0  0
  -31.8979  -14.8607   20.1074 O   0  0  0  0  0  0  0  0  0  0  0  0
  -28.6702  -19.9817   24.6470 O   0  0  0  0  0  0  0  0  0  0  0  0
  -21.5685   -7.1357   22.0025 O   0  0  0  0  0  0  0  0  0  0  0  0
  -33.6620  -21.9103   23.8236 O   0  0  0  0  0  0  0  0  0  1  0  0
  -18.4852   -7.3391   26.5694 F   0  0  0  0  0  0  0  0  0  0  0  0
  -21.9665   -5.3370   24.0639 F   0  0  0  0  0  0  0  0  0  0  0  0
  1  2  1  0  0  0  0
  1  5  2  0  0  0  0
  2  6  2  0  0  0  0
  3 10  2  0  0  0  0
  3 20  1  0  0  0  0
  4 11  1  0  0  0  0
  4 20  2  0  0  0  0
  5 22  1  0  0  0  0
  6 24  1  0  0  0  0
  7 12  2  0  0  0  0
  7 23  1  0  0  0  0
  8  9  2  0  0  0  0
  8 26  1  0  0  0  0
  9 27  1  0  0  0  0
 10 28  1  0  0  0  0
 11 28  2  0  0  0  0
 12 29  1  0  0  0  0
 13 14  2  0  0  0  0
 13 30  1  0  0  0  0
 14 32  1  0  0  0  0
 15 19  1  0  0  0  0
 15 27  2  0  0  0  0
 16 25  1  0  0  0  0
 16 29  2  0  0  0  0
 17 32  2  0  0  0  0
 17 33  1  0  0  0  0
 18 31  2  0  0  0  0
 18 64  1  0  0  0  0
 19 26  2  0  0  0  0
 19 31  1  0  0  0  0
 20 34  1  0  0  0  0
 21 34  1  0  0  0  0
 21 35  2  0  0  0  0
 21 36  1  0  0  0  0
 22 24  2  0  0  0  0
 22 41  1  0  0  0  0
 23 25  2  0  0  0  0
 23 42  1  0  0  0  0
 24 50  1  0  0  0  0
 25 43  1  0  0  0  0
 26 64  1  0  0  0  0
 27 70  1  0  0  0  0
 28 80  1  0  0  0  0
 29 81  1  0  0  0  0
 30 33  2  0  0  0  0
 30 80  1  0  0  0  0
 31 79  1  0  0  0  0
 32 82  1  0  0  0  0
 33 83  1  0  0  0  0
 34 63  2  0  0  0  0
 35 65  1  0  0  0  0
 35 68  1  0  0  0  0
 36 69  1  0  0  0  0
 36 74  2  0  0  0  0
 37 51  1  0  0  0  0
 37 71  1  0  0  0  0
 37 75  2  0  0  0  0
 38 60  1  0  0  0  0
 38 66  1  0  0  0  0
 38 76  2  0  0  0  0
 39 61  1  0  0  0  0
 39 72  1  0  0  0  0
 39 77  2  0  0  0  0
 40 67  1  0  0  0  0
 40 70  1  0  0  0  0
 40 78  2  0  0  0  0
 41 44  1  0  0  0  0
 42 51  1  0  0  0  0
 43 66  1  0  0  0  0
 44 46  1  0  0  0  0
 45 47  1  0  0  0  0
 45 48  1  0  0  0  0
 46 50  1  0  0  0  0
 47 52  1  0  0  0  0
 48 67  1  0  0  0  0
 49 52  1  0  0  0  0
 49 67  1  0  0  0  0
 50 71  1  0  0  0  0
 51 66  1  0  0  0  0
 52 65  1  0  0  0  0
 53 61  1  0  0  0  0
 54 62  1  0  0  0  0
 55 62  1  0  0  0  0
 56 62  1  0  0  0  0
 57 73  1  0  0  0  0
 58 59  1  0  0  0  0
 58 64  1  0  0  0  0
 59 81  1  0  0  0  0
 60 62  1  0  0  0  0
 60 72  1  0  0  0  0
 61 73  1  0  0  0  0
 63 65  1  0  0  0  0
M  CHG  1  73   1
M  ISO  4  40 100  59 101  70 100  81 101
M  END
> <Batch ID>
0006

> <Smiles>
CNC(C)C(=O)NC(C(=O)N1Cc2cc([101O:1][101CH2:1]CN3CC(=O)c4cc([100NH:0][100C:0](=O)N5CCCC(n6nc(-c7ccc(Oc8ccc(F)cc8F)cc7)c(C(N)=O)c6N)C5)ccc43)ccc2CC1C(=O)NC1CCCc2ccccc21)C(C)(C)C

> <Shape>
0.218

> <Color>
0.201

> <Negative vol penalty>
0.000

$$$$

  -OEChem-04042320293D

 86 95  0     1  0  0  0  0  0999 V2000
  -21.3932  -27.1800   26.7222 C   0  0  0  0  0  0  0  0  0  0  0  0
  -22.3770  -26.9781   25.7595 C   0  0  0  0  0  0  0  0  0  0  0  0
  -23.9994   -9.3151   21.0214 C   0  0  0  0  0  0  0  0  0  0  0  0
  -25.6662   -9.6142   22.7446 C   0  0  0  0  0  0  0  0  0  0  0  0
  -20.1739  -27.7523   26.3619 C   0  0  0  0  0  0  0  0  0  0  0  0
  -22.1418  -27.3475   24.4357 C   0  0  0  0  0  0  0  0  0  0  0  0
  -26.1198  -29.8580   22.3466 C   0  0  0  0  0  0  0  0  0  0  0  0
  -29.6342  -20.9547   21.0534 C   0  0  0  0  0  0  0  0  0  0  0  0
  -29.6442  -19.5751   20.8485 C   0  0  0  0  0  0  0  0  0  0  0  0
  -23.7545   -8.0218   21.4826 C   0  0  0  0  0  0  0  0  0  0  0  0
  -25.4213   -8.3208   23.2059 C   0  0  0  0  0  0  0  0  0  0  0  0
  -27.2217  -29.1168   21.9218 C   0  0  0  0  0  0  0  0  0  0  0  0
  -22.0517   -6.5597   24.0116 C   0  0  0  0  0  0  0  0  0  0  0  0
  -20.7220   -6.1599   24.1447 C   0  0  0  0  0  0  0  0  0  0  0  0
  -26.3855  -29.1814   19.6602 C   0  0  0  0  0  0  0  0  0  0  0  0
  -27.5253  -20.7667   22.2171 C   0  0  0  0  0  0  0  0  0  0  0  0
  -21.1022   -4.3702   22.5668 C   0  0  0  0  0  0  0  0  0  0  0  0
  -24.9553  -10.1114   21.6523 C   0  0  0  0  0  0  0  0  0  0  0  0
  -24.2893  -12.5100   21.0948 C   0  0  0  0  0  0  0  0  0  0  0  0
  -19.9273  -28.1378   25.0348 C   0  0  0  0  0  0  0  0  0  0  0  0
  -25.1353  -30.2586   21.4318 C   0  0  0  0  0  0  0  0  0  0  0  0
  -20.9176  -27.9244   24.0570 C   0  0  0  0  0  0  0  0  0  0  0  0
  -25.2748  -29.9317   20.0752 C   0  0  0  0  0  0  0  0  0  0  0  0
  -28.5747  -21.5506   21.7378 C   0  0  0  0  0  0  0  0  0  0  0  0
  -28.5947  -18.7912   21.3278 C   0  0  0  0  0  0  0  0  0  0  0  0
  -24.4654   -7.5246   22.5749 C   0  0  0  0  0  0  0  0  0  0  0  0
  -27.3534  -28.7765   20.5788 C   0  0  0  0  0  0  0  0  0  0  0  0
  -22.9066   -5.8649   23.1560 C   0  0  0  0  0  0  0  0  0  0  0  0
  -20.2473   -5.0651   23.4224 C   0  0  0  0  0  0  0  0  0  0  0  0
  -22.4318   -4.7701   22.4336 C   0  0  0  0  0  0  0  0  0  0  0  0
  -27.5352  -19.3870   22.0122 C   0  0  0  0  0  0  0  0  0  0  0  0
  -25.2091  -11.4473   21.1759 C   0  0  0  0  0  0  0  0  0  0  0  0
  -25.0171  -13.5556   20.5816 C   0  0  0  0  0  0  0  0  0  0  0  0
  -22.9012  -12.5485   21.4516 C   0  0  0  0  0  0  0  0  0  0  0  0
  -21.9947  -29.7754   21.0459 C   0  0  0  0  0  0  0  0  0  0  0  0
  -22.4811  -31.9890   18.6135 C   0  0  0  0  0  0  0  0  0  0  0  0
  -19.4497  -33.2119   17.6364 C   0  0  0  0  0  0  0  0  0  0  0  0
  -29.6282  -16.6733   20.4374 C   0  0  0  0  0  0  0  0  0  0  0  0
  -18.5763  -28.7092   24.6840 C   0  0  0  0  0  0  0  0  0  0  0  0
  -23.9696  -31.0838   21.9057 C   0  0  0  0  0  0  0  0  0  0  0  0
  -24.2480  -30.3409   19.0540 C   0  0  0  0  0  0  0  0  0  0  0  0
  -18.5467  -29.4169   23.3318 C   0  0  0  0  0  0  0  0  0  0  0  0
  -29.6497  -13.6579   18.5444 C   0  0  0  0  0  0  0  0  0  0  0  0
  -19.2336  -28.5656   22.2686 C   0  0  0  0  0  0  0  0  0  0  0  0
  -28.4207  -12.9014   19.0536 C   0  0  0  0  0  0  0  0  0  0  0  0
  -30.3491  -14.4239   19.6659 C   0  0  0  0  0  0  0  0  0  0  0  0
  -29.8211  -23.6725   22.0683 C   0  0  0  0  0  0  0  0  0  0  0  0
  -27.4069  -23.7580   21.6053 C   0  0  0  0  0  0  0  0  0  0  0  0
  -28.2519  -14.5621   20.9511 C   0  0  0  0  0  0  0  0  0  0  0  0
  -30.1188  -24.3766   20.7461 C   0  0  0  0  0  0  0  0  0  0  0  0
  -27.6502  -24.4588   20.2740 C   0  0  0  0  0  0  0  0  0  0  0  0
  -20.7093  -28.3347   22.6153 C   0  0  1  0  0  0  0  0  0  0  0  0
  -22.7752  -31.0559   20.9541 C   0  0  1  0  0  0  0  0  0  0  0  0
  -27.4767  -13.8277   19.8450 C   0  0  2  0  0  0  0  0  0  0  0  0
  -18.3573  -35.2886   16.7469 C   0  0  0  0  0  0  0  0  0  0  0  0
  -22.6157  -33.2449   21.3902 C   0  0  0  0  0  0  0  0  0  0  0  0
  -20.7597  -34.7807   20.7082 C   0  0  0  0  0  0  0  0  0  0  0  0
  -22.9418  -34.8513   19.5014 C   0  0  0  0  0  0  0  0  0  0  0  0
  -18.5890  -31.8383   15.1602 C   0  0  0  0  0  0  0  0  0  0  0  0
  -29.2055  -26.0336   19.1136 C   0  0  0  0  0  0  0  0  0  0  0  0
  -28.2377  -27.1978   19.0355 C   0  0  0  0  0  0  0  0  0  1  0  0
  -21.3916  -32.8861   19.1455 C   0  0  1  0  0  0  0  0  0  0  0  0
  -19.0222  -33.9679   16.3913 C   0  0  2  0  0  0  0  0  0  0  0  0
  -21.9239  -33.9125   20.1849 C   0  0  0  0  0  0  0  0  0  0  0  0
  -26.4281  -11.7867   20.7483 N   0  0  0  0  0  0  0  0  0  0  0  0
  -26.2793  -13.0743   20.3935 N   0  0  0  0  0  0  0  0  0  0  0  0
  -28.5649  -22.9265   21.9410 N   0  0  0  0  0  0  0  0  0  0  0  0
  -23.1766  -31.2142   19.5505 N   0  0  0  0  0  0  0  0  0  0  0  0
  -29.3941  -15.2837   20.3685 N   0  0  0  0  0  0  0  0  0  0  0  0
  -24.6942  -14.8306   20.2773 N   0  0  0  0  0  0  0  0  0  0  0  0
  -22.3106  -11.3855   21.9644 N   0  0  0  0  0  0  0  0  0  0  0  0
  -28.6358  -17.3929   21.1022 N   0  0  0  0  0  0  0  0  0  0  0  0
  -21.4915  -29.5123   22.3057 N   0  0  0  0  0  0  0  0  0  0  0  0
  -20.7556  -33.4909   17.9801 N   0  0  0  0  0  0  0  0  0  0  0  0
  -28.9398  -25.2509   20.3687 N   0  3  0  0  0  0  0  0  0  0  0  0
  -18.0580  -33.1551   15.5973 N   0  3  0  0  0  0  0  0  0  0  0  0
  -22.2011  -13.5789   21.3042 O   0  0  0  0  0  0  0  0  0  0  0  0
  -21.8576  -29.0784   20.0473 O   0  0  0  0  0  0  0  0  0  0  0  0
  -22.7162  -31.9793   17.4020 O   0  0  0  0  0  0  0  0  0  0  0  0
  -18.6991  -32.4528   18.2453 O   0  0  0  0  0  0  0  0  0  0  0  0
  -30.6213  -17.1906   19.9195 O   0  0  0  0  0  0  0  0  0  0  0  0
  -24.2266   -6.2626   23.0254 O   0  0  0  0  0  0  0  0  0  0  0  0
  -28.4282  -28.0536   20.1614 O   0  0  0  0  0  0  0  0  0  1  0  0
  -18.9708   -4.6803   23.5516 F   0  0  0  0  0  0  0  0  0  0  0  0
  -23.2487   -4.0979   21.6110 F   0  0  0  0  0  0  0  0  0  0  0  0
  -26.2153  -18.4535   22.6220 Cl  0  0  0  0  0  0  0  0  0  0  0  0
  1  2  1  0  0  0  0
  1  5  2  0  0  0  0
  2  6  2  0  0  0  0
  3 10  2  0  0  0  0
  3 18  1  0  0  0  0
  4 11  1  0  0  0  0
  4 18  2  0  0  0  0
  5 20  1  0  0  0  0
  6 22  1  0  0  0  0
  7 12  2  0  0  0  0
  7 21  1  0  0  0  0
  8  9  2  0  0  0  0
  8 24  1  0  0  0  0
  9 25  1  0  0  0  0
 10 26  1  0  0  0  0
 11 26  2  0  0  0  0
 12 27  1  0  0  0  0
 13 14  2  0  0  0  0
 13 28  1  0  0  0  0
 14 29  1  0  0  0  0
 15 23  1  0  0  0  0
 15 27  2  0  0  0  0
 16 24  2  0  0  0  0
 16 31  1  0  0  0  0
 17 29  2  0  0  0  0
 17 30  1  0  0  0  0
 18 32  1  0  0  0  0
 19 32  1  0  0  0  0
 19 33  2  0  0  0  0
 19 34  1  0  0  0  0
 20 22  2  0  0  0  0
 20 39  1  0  0  0  0
 21 23  2  0  0  0  0
 21 40  1  0  0  0  0
 22 52  1  0  0  0  0
 23 41  1  0  0  0  0
 24 67  1  0  0  0  0
 25 31  2  0  0  0  0
 25 72  1  0  0  0  0
 26 82  1  0  0  0  0
 27 83  1  0  0  0  0
 28 30  2  0  0  0  0
 28 82  1  0  0  0  0
 29 84  1  0  0  0  0
 30 85  1  0  0  0  0
 31 86  1  0  0  0  0
 32 65  2  0  0  0  0
 33 66  1  0  0  0  0
 33 70  1  0  0  0  0
 34 71  1  0  0  0  0
 34 77  2  0  0  0  0
 35 53  1  0  0  0  0
 35 73  1  0  0  0  0
 35 78  2  0  0  0  0
 36 62  1  0  0  0  0
 36 68  1  0  0  0  0
 36 79  2  0  0  0  0
 37 63  1  0  0  0  0
 37 74  1  0  0  0  0
 37 80  2  0  0  0  0
 38 69  1  0  0  0  0
 38 72  1  0  0  0  0
 38 81  2  0  0  0  0
 39 42  1  0  0  0  0
 40 53  1  0  0  0  0
 41 68  1  0  0  0  0
 42 44  1  0  0  0  0
 43 45  1  0  0  0  0
 43 46  1  0  0  0  0
 44 52  1  0  0  0  0
 45 54  1  0  0  0  0
 46 69  1  0  0  0  0
 47 50  1  0  0  0  0
 47 67  1  0  0  0  0
 48 51  1  0  0  0  0
 48 67  1  0  0  0  0
 49 54  1  0  0  0  0
 49 69  1  0  0  0  0
 50 75  1  0  0  0  0
 51 75  1  0  0  0  0
 52 73  1  0  0  0  0
 53 68  1  0  0  0  0
 54 66  1  0  0  0  0
 55 63  1  0  0  0  0
 56 64  1  0  0  0  0
 57 64  1  0  0  0  0
 58 64  1  0  0  0  0
 59 76  1  0  0  0  0
 60 61  1  0  0  0  0
 60 75  1  0  0  0  0
 61 83  1  0  0  0  0
 62 64  1  0  0  0  0
 62 74  1  0  0  0  0
 63 76  1  0  0  0  0
 65 66  1  0  0  0  0
M  CHG  2  75   1  76   1
M  ISO  4  38 100  61 101  72 100  83 101
M  END
> <Batch ID>
0006

> <Smiles>
CNC(C)C(=O)NC(C(=O)N1Cc2cc([101O:1][101CH2:1]CN3CCN(c4ccc([100NH:0][100C:0](=O)N5CCCC(n6nc(-c7ccc(Oc8ccc(F)cc8F)cc7)c(C(N)=O)c6N)C5)c(Cl)c4)CC3)ccc2CC1C(=O)NC1CCCc2ccccc21)C(C)(C)C

> <Shape>
0.302

> <Color>
0.132

> <Negative vol penalty>
0.000

$$$$

  -OEChem-04042320293D

 86 95  0     1  0  0  0  0  0999 V2000
  -27.4397  -37.6444   22.4859 C   0  0  0  0  0  0  0  0  0  0  0  0
  -27.9452  -36.6311   21.6777 C   0  0  0  0  0  0  0  0  0  0  0  0
  -24.0866   -9.7114   22.3152 C   0  0  0  0  0  0  0  0  0  0  0  0
  -23.3259   -9.9015   20.0300 C   0  0  0  0  0  0  0  0  0  0  0  0
  -26.7080  -37.3236   23.6285 C   0  0  0  0  0  0  0  0  0  0  0  0
  -27.7201  -35.2963   22.0124 C   0  0  0  0  0  0  0  0  0  0  0  0
  -29.2646  -22.3729   23.2525 C   0  0  0  0  0  0  0  0  0  0  0  0
  -26.6875  -28.8818   18.9949 C   0  0  0  0  0  0  0  0  0  0  0  0
  -29.0468  -23.6664   22.7806 C   0  0  0  0  0  0  0  0  0  0  0  0
  -23.0720   -8.7905   22.5764 C   0  0  0  0  0  0  0  0  0  0  0  0
  -22.3113   -8.9806   20.2911 C   0  0  0  0  0  0  0  0  0  0  0  0
  -27.1803  -27.5784   19.0401 C   0  0  0  0  0  0  0  0  0  0  0  0
  -22.4860   -5.5065   22.0245 C   0  0  0  0  0  0  0  0  0  0  0  0
  -22.8224   -4.3565   22.7386 C   0  0  0  0  0  0  0  0  0  0  0  0
  -27.4238  -22.8043   21.2302 C   0  0  0  0  0  0  0  0  0  0  0  0
  -25.8347  -27.1439   20.9946 C   0  0  0  0  0  0  0  0  0  0  0  0
  -21.2420   -4.9643   24.4620 C   0  0  0  0  0  0  0  0  0  0  0  0
  -24.2135  -10.2669   21.0420 C   0  0  0  0  0  0  0  0  0  0  0  0
  -26.5636  -10.9421   20.3149 C   0  0  0  0  0  0  0  0  0  0  0  0
  -26.4656  -35.9843   23.9721 C   0  0  0  0  0  0  0  0  0  0  0  0
  -25.7714  -29.3302   19.9573 C   0  0  0  0  0  0  0  0  0  0  0  0
  -28.5616  -21.2684   22.7272 C   0  0  0  0  0  0  0  0  0  0  0  0
  -26.9856  -34.9573   23.1614 C   0  0  0  0  0  0  0  0  0  0  0  0
  -27.6252  -21.4907   21.6994 C   0  0  0  0  0  0  0  0  0  0  0  0
  -25.3299  -28.4527   20.9579 C   0  0  0  0  0  0  0  0  0  0  0  0
  -28.1240  -23.8825   21.7679 C   0  0  0  0  0  0  0  0  0  0  0  0
  -22.1843   -8.4251   21.5643 C   0  0  0  0  0  0  0  0  0  0  0  0
  -26.7561  -26.7101   20.0417 C   0  0  0  0  0  0  0  0  0  0  0  0
  -21.5277   -6.3855   22.5292 C   0  0  0  0  0  0  0  0  0  0  0  0
  -22.2004   -4.0854   23.9573 C   0  0  0  0  0  0  0  0  0  0  0  0
  -20.9057   -6.1144   23.7480 C   0  0  0  0  0  0  0  0  0  0  0  0
  -25.2611  -11.2186   20.7717 C   0  0  0  0  0  0  0  0  0  0  0  0
  -27.1621  -12.1746   20.2174 C   0  0  0  0  0  0  0  0  0  0  0  0
  -27.1777   -9.6839   20.0063 C   0  0  0  0  0  0  0  0  0  0  0  0
  -25.7836  -31.6045   22.1779 C   0  0  0  0  0  0  0  0  0  0  0  0
  -22.6880  -30.7113   22.5540 C   0  0  0  0  0  0  0  0  0  0  0  0
  -20.3084  -28.2899   22.2055 C   0  0  0  0  0  0  0  0  0  0  0  0
  -26.3798  -17.2275   22.9377 C   0  0  0  0  0  0  0  0  0  0  0  0
  -25.7094  -35.6862   25.2425 C   0  0  0  0  0  0  0  0  0  0  0  0
  -25.2290  -30.7309   19.8789 C   0  0  0  0  0  0  0  0  0  0  0  0
  -26.8527  -20.3800   21.0327 C   0  0  0  0  0  0  0  0  0  0  0  0
  -24.3323  -28.8788   22.0027 C   0  0  0  0  0  0  0  0  0  0  0  0
  -25.1963  -34.2508   25.3234 C   0  0  0  0  0  0  0  0  0  0  0  0
  -26.1593  -16.7825   19.4483 C   0  0  0  0  0  0  0  0  0  0  0  0
  -26.2936  -33.2684   24.9262 C   0  0  0  0  0  0  0  0  0  0  0  0
  -26.0243  -15.2641   19.3433 C   0  0  0  0  0  0  0  0  0  0  0  0
  -26.0074  -19.5264   21.9736 C   0  0  0  0  0  0  0  0  0  0  0  0
  -25.3587  -17.3506   20.6212 C   0  0  0  0  0  0  0  0  0  0  0  0
  -27.6302  -19.1589   23.8298 C   0  0  0  0  0  0  0  0  0  0  0  0
  -25.5246  -15.1917   21.8145 C   0  0  0  0  0  0  0  0  0  0  0  0
  -28.8702  -19.9002   23.3073 C   0  0  1  0  0  0  0  0  0  0  0  0
  -26.7414  -33.4976   23.4777 C   0  0  1  0  0  0  0  0  0  0  0  0
  -24.6912  -31.2390   21.2131 C   0  0  1  0  0  0  0  0  0  0  0  0
  -26.3680  -14.5870   20.6817 C   0  0  1  0  0  0  0  0  0  0  0  0
  -17.8774  -27.8404   22.6363 C   0  0  0  0  0  0  0  0  0  0  0  0
  -23.2836  -30.3506   25.5247 C   0  0  0  0  0  0  0  0  0  0  0  0
  -21.1668  -29.0276   25.7172 C   0  0  0  0  0  0  0  0  0  0  0  0
  -21.0800  -31.4227   25.0252 C   0  0  0  0  0  0  0  0  0  0  0  0
  -19.7585  -27.8618   19.3291 C   0  0  0  0  0  0  0  0  0  0  0  0
  -29.7359  -19.0461   22.3766 C   0  0  0  0  0  0  0  0  0  0  0  0
  -31.0577  -19.7388   22.0660 C   0  0  0  0  0  0  0  0  0  0  0  0
  -31.9227  -18.8666   21.1683 C   0  0  0  0  0  0  0  0  0  0  0  0
  -21.9642  -29.6954   23.4044 C   0  0  1  0  0  0  0  0  0  0  0  0
  -18.9048  -28.3325   21.6288 C   0  0  2  0  0  0  0  0  0  0  0  0
  -21.8939  -30.1163   24.8995 C   0  0  0  0  0  0  0  0  0  0  0  0
  -25.0441  -12.5241   20.9521 N   0  0  0  0  0  0  0  0  0  0  0  0
  -26.2184  -13.0790   20.6068 N   0  0  0  0  0  0  0  0  0  0  0  0
  -23.8360  -30.2601   21.8874 N   0  0  0  0  0  0  0  0  0  0  0  0
  -26.7729  -18.5770   22.7945 N   0  0  0  0  0  0  0  0  0  0  0  0
  -25.6836  -16.6469   21.8667 N   0  0  0  0  0  0  0  0  0  0  0  0
  -28.3982  -12.5620   19.8374 N   0  0  0  0  0  0  0  0  0  0  0  0
  -26.4205   -8.5148   20.1619 N   0  0  0  0  0  0  0  0  0  0  0  0
  -27.8979  -25.1861   21.2814 N   0  0  0  0  0  0  0  0  0  1  0  0
  -25.7789  -32.9337   22.5558 N   0  0  0  0  0  0  0  0  0  0  0  0
  -20.6618  -29.4930   22.7788 N   0  0  0  0  0  0  0  0  0  0  0  0
  -31.2202  -18.6471   19.8812 N   0  3  0  0  0  0  0  0  0  0  0  0
  -18.8183  -27.4756   20.4126 N   0  3  0  0  0  0  0  0  0  0  0  0
  -28.3681   -9.5974   19.6201 O   0  0  0  0  0  0  0  0  0  0  0  0
  -26.5714  -30.7441   22.5528 O   0  0  0  0  0  0  0  0  0  0  0  0
  -22.2469  -31.8607   22.4781 O   0  0  0  0  0  0  0  0  0  0  0  0
  -21.0188  -27.2881   22.1558 O   0  0  0  0  0  0  0  0  0  0  0  0
  -26.6251  -16.5824   23.9651 O   0  0  0  0  0  0  0  0  0  0  0  0
  -21.1943   -7.5264   21.8188 O   0  0  0  0  0  0  0  0  0  0  0  0
  -27.2414  -25.4231   20.0891 O   0  0  0  0  0  0  0  0  0  1  0  0
  -22.5224   -2.9802   24.6421 F   0  0  0  0  0  0  0  0  0  0  0  0
  -19.9835   -6.9545   24.2373 F   0  0  0  0  0  0  0  0  0  0  0  0
  1  2  1  0  0  0  0
  1  5  2  0  0  0  0
  2  6  2  0  0  0  0
  3 10  2  0  0  0  0
  3 18  1  0  0  0  0
  4 11  1  0  0  0  0
  4 18  2  0  0  0  0
  5 20  1  0  0  0  0
  6 23  1  0  0  0  0
  7  9  2  0  0  0  0
  7 22  1  0  0  0  0
  8 12  2  0  0  0  0
  8 21  1  0  0  0  0
  9 26  1  0  0  0  0
 10 27  1  0  0  0  0
 11 27  2  0  0  0  0
 12 28  1  0  0  0  0
 13 14  2  0  0  0  0
 13 29  1  0  0  0  0
 14 30  1  0  0  0  0
 15 24  1  0  0  0  0
 15 26  2  0  0  0  0
 16 25  1  0  0  0  0
 16 28  2  0  0  0  0
 17 30  2  0  0  0  0
 17 31  1  0  0  0  0
 18 32  1  0  0  0  0
 19 32  1  0  0  0  0
 19 33  2  0  0  0  0
 19 34  1  0  0  0  0
 20 23  2  0  0  0  0
 20 39  1  0  0  0  0
 21 25  2  0  0  0  0
 21 40  1  0  0  0  0
 22 24  2  0  0  0  0
 22 51  1  0  0  0  0
 23 52  1  0  0  0  0
 24 41  1  0  0  0  0
 25 42  1  0  0  0  0
 26 73  1  0  0  0  0
 27 83  1  0  0  0  0
 28 84  1  0  0  0  0
 29 31  2  0  0  0  0
 29 83  1  0  0  0  0
 30 85  1  0  0  0  0
 31 86  1  0  0  0  0
 32 66  2  0  0  0  0
 33 67  1  0  0  0  0
 33 71  1  0  0  0  0
 34 72  1  0  0  0  0
 34 78  2  0  0  0  0
 35 53  1  0  0  0  0
 35 74  1  0  0  0  0
 35 79  2  0  0  0  0
 36 63  1  0  0  0  0
 36 68  1  0  0  0  0
 36 80  2  0  0  0  0
 37 64  1  0  0  0  0
 37 75  1  0  0  0  0
 37 81  2  0  0  0  0
 38 69  1  0  0  0  0
 38 70  1  0  0  0  0
 38 82  2  0  0  0  0
 39 43  1  0  0  0  0
 40 53  1  0  0  0  0
 41 47  1  0  0  0  0
 42 68  1  0  0  0  0
 43 45  1  0  0  0  0
 44 46  1  0  0  0  0
 44 48  1  0  0  0  0
 45 52  1  0  0  0  0
 46 54  1  0  0  0  0
 47 69  1  0  0  0  0
 48 70  1  0  0  0  0
 49 51  1  0  0  0  0
 49 69  1  0  0  0  0
 50 54  1  0  0  0  0
 50 70  1  0  0  0  0
 51 60  1  0  0  0  0
 52 74  1  0  0  0  0
 53 68  1  0  0  0  0
 54 67  1  0  0  0  0
 55 64  1  0  0  0  0
 56 65  1  0  0  0  0
 57 65  1  0  0  0  0
 58 65  1  0  0  0  0
 59 77  1  0  0  0  0
 60 61  1  0  0  0  0
 61 62  1  0  0  0  0
 62 76  1  0  0  0  0
 63 65  1  0  0  0  0
 63 75  1  0  0  0  0
 64 77  1  0  0  0  0
 66 67  1  0  0  0  0
 73 84  1  0  0  0  0
M  CHG  2  76   1  77   1
M  ISO  4  38 100  69 100  73 101  84 101
M  END
> <Batch ID>
0006

> <Smiles>
CNC(C)C(=O)NC(C(=O)N1Cc2cc([101O:1][101NH:1]c3ccc4c(c3)CC[100N:0]([100C:0](=O)N3CCCC(n5nc(-c6ccc(Oc7ccc(F)cc7F)cc6)c(C(N)=O)c5N)C3)CC4CCCN)ccc2CC1C(=O)NC1CCCc2ccccc21)C(C)(C)C

> <Shape>
0.313

> <Color>
0.101

> <Negative vol penalty>
0.000

$$$$

  -OEChem-04042320293D

 84 93  0     1  0  0  0  0  0999 V2000
  -26.5743  -37.1247   25.0759 C   0  0  0  0  0  0  0  0  0  0  0  0
  -27.5232  -36.2168   24.6169 C   0  0  0  0  0  0  0  0  0  0  0  0
  -22.7974  -10.2909   20.2395 C   0  0  0  0  0  0  0  0  0  0  0  0
  -24.5630   -9.2333   21.5049 C   0  0  0  0  0  0  0  0  0  0  0  0
  -25.4094  -36.6642   25.6881 C   0  0  0  0  0  0  0  0  0  0  0  0
  -27.3082  -34.8476   24.7710 C   0  0  0  0  0  0  0  0  0  0  0  0
  -27.2009  -29.1670   19.4095 C   0  0  0  0  0  0  0  0  0  0  0  0
  -25.7618  -19.6314   19.0667 C   0  0  0  0  0  0  0  0  0  0  0  0
  -26.0674  -18.2871   19.2787 C   0  0  0  0  0  0  0  0  0  0  0  0
  -21.8498   -9.7444   21.1048 C   0  0  0  0  0  0  0  0  0  0  0  0
  -23.6153   -8.6867   22.3703 C   0  0  0  0  0  0  0  0  0  0  0  0
  -27.0012  -28.0996   18.5339 C   0  0  0  0  0  0  0  0  0  0  0  0
  -21.4472   -6.0924   22.3732 C   0  0  0  0  0  0  0  0  0  0  0  0
  -21.5863   -4.7490   22.7215 C   0  0  0  0  0  0  0  0  0  0  0  0
  -25.5485  -27.0341   20.1471 C   0  0  0  0  0  0  0  0  0  0  0  0
  -28.3825  -18.8716   19.6475 C   0  0  0  0  0  0  0  0  0  0  0  0
  -21.7771   -5.3719   25.0481 C   0  0  0  0  0  0  0  0  0  0  0  0
  -24.1540  -10.0353   20.4395 C   0  0  0  0  0  0  0  0  0  0  0  0
  -25.2367  -10.3908   18.1571 C   0  0  0  0  0  0  0  0  0  0  0  0
  -25.1755  -35.2885   25.8411 C   0  0  0  0  0  0  0  0  0  0  0  0
  -26.5622  -29.1794   20.6526 C   0  0  0  0  0  0  0  0  0  0  0  0
  -26.1397  -34.3683   25.3871 C   0  0  0  0  0  0  0  0  0  0  0  0
  -25.7349  -28.1066   21.0233 C   0  0  0  0  0  0  0  0  0  0  0  0
  -26.7665  -20.5958   19.1449 C   0  0  0  0  0  0  0  0  0  0  0  0
  -27.3777  -17.9072   19.5692 C   0  0  0  0  0  0  0  0  0  0  0  0
  -22.2587   -8.9423   22.1702 C   0  0  0  0  0  0  0  0  0  0  0  0
  -26.1772  -27.0356   18.9019 C   0  0  0  0  0  0  0  0  0  0  0  0
  -21.4732   -7.0757   23.3623 C   0  0  0  0  0  0  0  0  0  0  0  0
  -21.7511   -4.3887   24.0589 C   0  0  0  0  0  0  0  0  0  0  0  0
  -28.0768  -20.2159   19.4354 C   0  0  0  0  0  0  0  0  0  0  0  0
  -21.6381   -6.7154   24.6997 C   0  0  0  0  0  0  0  0  0  0  0  0
  -25.1334  -10.5992   19.5456 C   0  0  0  0  0  0  0  0  0  0  0  0
  -26.3219  -11.1421   17.7771 C   0  0  0  0  0  0  0  0  0  0  0  0
  -24.4244   -9.5899   17.2886 C   0  0  0  0  0  0  0  0  0  0  0  0
  -25.9646  -31.0000   23.8782 C   0  0  0  0  0  0  0  0  0  0  0  0
  -23.2745  -29.8012   23.0200 C   0  0  0  0  0  0  0  0  0  0  0  0
  -20.4292  -28.6752   21.5121 C   0  0  0  0  0  0  0  0  0  0  0  0
  -28.9361  -15.9956   20.0826 C   0  0  0  0  0  0  0  0  0  0  0  0
  -23.9233  -34.8397   26.5517 C   0  0  0  0  0  0  0  0  0  0  0  0
  -26.7970  -30.2790   21.6524 C   0  0  0  0  0  0  0  0  0  0  0  0
  -25.0958  -28.1461   22.3846 C   0  0  0  0  0  0  0  0  0  0  0  0
  -23.5986  -33.3632   26.3397 C   0  0  0  0  0  0  0  0  0  0  0  0
  -30.4711  -12.8446   19.4564 C   0  0  0  0  0  0  0  0  0  0  0  0
  -24.8471  -32.5087   26.5347 C   0  0  0  0  0  0  0  0  0  0  0  0
  -29.2859  -11.8934   19.2758 C   0  0  0  0  0  0  0  0  0  0  0  0
  -25.5230  -23.7126   17.4904 C   0  0  0  0  0  0  0  0  0  0  0  0
  -26.9135  -24.3034   19.4814 C   0  0  0  0  0  0  0  0  0  0  0  0
  -30.1941  -13.8991   20.5264 C   0  0  0  0  0  0  0  0  0  0  0  0
  -25.3550  -22.2932   18.0257 C   0  0  0  0  0  0  0  0  0  0  0  0
  -26.7431  -22.8868   20.0212 C   0  0  0  0  0  0  0  0  0  0  0  0
  -27.7652  -13.7068   20.1624 C   0  0  0  0  0  0  0  0  0  0  0  0
  -25.9311  -32.8748   25.5137 C   0  0  1  0  0  0  0  0  0  0  0  0
  -25.5488  -30.6094   22.4904 C   0  0  1  0  0  0  0  0  0  0  0  0
  -27.9721  -12.6668   19.0492 C   0  0  2  0  0  0  0  0  0  0  0  0
  -25.7325  -24.7209   18.6128 C   0  0  0  0  0  0  0  0  0  1  0  0
  -17.9463  -28.5323   21.8475 C   0  0  0  0  0  0  0  0  0  0  0  0
  -23.6780  -27.5255   25.0106 C   0  0  0  0  0  0  0  0  0  0  0  0
  -21.3145  -26.8223   24.5775 C   0  0  0  0  0  0  0  0  0  0  0  0
  -21.7864  -29.0672   25.5575 C   0  0  0  0  0  0  0  0  0  0  0  0
  -19.8925  -30.2948   19.0939 C   0  0  0  0  0  0  0  0  0  0  0  0
  -22.3161  -28.6416   23.1223 C   0  0  1  0  0  0  0  0  0  0  0  0
  -19.0901  -29.3443   21.2599 C   0  0  2  0  0  0  0  0  0  0  0  0
  -22.2924  -28.0162   24.5456 C   0  0  0  0  0  0  0  0  0  0  0  0
  -26.0777  -11.4184   20.0157 N   0  0  0  0  0  0  0  0  0  0  0  0
  -26.7848  -11.7315   18.9166 N   0  0  0  0  0  0  0  0  0  0  0  0
  -26.4568  -21.9449   18.9299 N   0  0  0  0  0  0  0  0  0  0  0  0
  -24.5953  -29.5008   22.6654 N   0  0  0  0  0  0  0  0  0  0  0  0
  -28.9363  -14.5939   20.2438 N   0  0  0  0  0  0  0  0  0  0  0  0
  -26.9159  -11.3494   16.5826 N   0  0  0  0  0  0  0  0  0  0  0  0
  -23.3492   -8.8826   17.8436 N   0  0  0  0  0  0  0  0  0  0  0  0
  -27.6879  -16.5415   19.7847 N   0  0  0  0  0  0  0  0  0  0  0  0
  -25.6265  -32.2947   24.2233 N   0  0  0  0  0  0  0  0  0  0  0  0
  -21.0227  -29.1396   22.6668 N   0  0  0  0  0  0  0  0  0  0  0  0
  -18.8548  -29.4968   19.7962 N   0  3  0  0  0  0  0  0  0  0  0  0
  -24.6553   -9.4910   16.0597 O   0  0  0  0  0  0  0  0  0  0  0  0
  -26.5479  -30.1870   24.5855 O   0  0  0  0  0  0  0  0  0  0  0  0
  -22.8671  -30.9427   23.2532 O   0  0  0  0  0  0  0  0  0  0  0  0
  -20.8997  -27.8229   20.7620 O   0  0  0  0  0  0  0  0  0  0  0  0
  -29.9720  -16.6593   20.1731 O   0  0  0  0  0  0  0  0  0  0  0  0
  -21.3343   -8.4090   23.0150 O   0  0  0  0  0  0  0  0  0  0  0  0
  -25.9830  -25.9989   18.0404 O   0  0  0  0  0  0  0  0  0  1  0  0
  -21.8831   -3.0984   24.3934 F   0  0  0  0  0  0  0  0  0  0  0  0
  -29.0502  -21.1347   19.5115 F   0  0  0  0  0  0  0  0  0  0  0  0
  -21.6626   -7.6554   25.6545 F   0  0  0  0  0  0  0  0  0  0  0  0
  1  2  1  0  0  0  0
  1  5  2  0  0  0  0
  2  6  2  0  0  0  0
  3 10  2  0  0  0  0
  3 18  1  0  0  0  0
  4 11  1  0  0  0  0
  4 18  2  0  0  0  0
  5 20  1  0  0  0  0
  6 22  1  0  0  0  0
  7 12  2  0  0  0  0
  7 21  1  0  0  0  0
  8  9  2  0  0  0  0
  8 24  1  0  0  0  0
  9 25  1  0  0  0  0
 10 26  1  0  0  0  0
 11 26  2  0  0  0  0
 12 27  1  0  0  0  0
 13 14  2  0  0  0  0
 13 28  1  0  0  0  0
 14 29  1  0  0  0  0
 15 23  1  0  0  0  0
 15 27  2  0  0  0  0
 16 25  2  0  0  0  0
 16 30  1  0  0  0  0
 17 29  2  0  0  0  0
 17 31  1  0  0  0  0
 18 32  1  0  0  0  0
 19 32  1  0  0  0  0
 19 33  2  0  0  0  0
 19 34  1  0  0  0  0
 20 22  2  0  0  0  0
 20 39  1  0  0  0  0
 21 23  2  0  0  0  0
 21 40  1  0  0  0  0
 22 52  1  0  0  0  0
 23 41  1  0  0  0  0
 24 30  2  0  0  0  0
 24 66  1  0  0  0  0
 25 71  1  0  0  0  0
 26 80  1  0  0  0  0
 27 81  1  0  0  0  0
 28 31  2  0  0  0  0
 28 80  1  0  0  0  0
 29 82  1  0  0  0  0
 30 83  1  0  0  0  0
 31 84  1  0  0  0  0
 32 64  2  0  0  0  0
 33 65  1  0  0  0  0
 33 69  1  0  0  0  0
 34 70  1  0  0  0  0
 34 75  2  0  0  0  0
 35 53  1  0  0  0  0
 35 72  1  0  0  0  0
 35 76  2  0  0  0  0
 36 61  1  0  0  0  0
 36 67  1  0  0  0  0
 36 77  2  0  0  0  0
 37 62  1  0  0  0  0
 37 73  1  0  0  0  0
 37 78  2  0  0  0  0
 38 68  1  0  0  0  0
 38 71  1  0  0  0  0
 38 79  2  0  0  0  0
 39 42  1  0  0  0  0
 40 53  1  0  0  0  0
 41 67  1  0  0  0  0
 42 44  1  0  0  0  0
 43 45  1  0  0  0  0
 43 48  1  0  0  0  0
 44 52  1  0  0  0  0
 45 54  1  0  0  0  0
 46 49  1  0  0  0  0
 46 55  1  0  0  0  0
 47 50  1  0  0  0  0
 47 55  1  0  0  0  0
 48 68  1  0  0  0  0
 49 66  1  0  0  0  0
 50 66  1  0  0  0  0
 51 54  1  0  0  0  0
 51 68  1  0  0  0  0
 52 72  1  0  0  0  0
 53 67  1  0  0  0  0
 54 65  1  0  0  0  0
 55 81  1  0  0  0  0
 56 62  1  0  0  0  0
 57 63  1  0  0  0  0
 58 63  1  0  0  0  0
 59 63  1  0  0  0  0
 60 74  1  0  0  0  0
 61 63  1  0  0  0  0
 61 73  1  0  0  0  0
 62 74  1  0  0  0  0
 64 65  1  0  0  0  0
M  CHG  1  74   1
M  ISO  4  38 100  55 101  71 100  81 101
M  END
> <Batch ID>
0006

> <Smiles>
CNC(C)C(=O)NC(C(=O)N1Cc2cc([101O:1][101CH:1]3CCN(c4ccc([100NH:0][100C:0](=O)N5CCCC(n6nc(-c7ccc(Oc8ccc(F)cc8F)cc7)c(C(N)=O)c6N)C5)cc4F)CC3)ccc2CC1C(=O)NC1CCCc2ccccc21)C(C)(C)C

> <Shape>
0.316

> <Color>
0.105

> <Negative vol penalty>
0.000

$$$$

  -OEChem-04042320293D

 84 93  0     1  0  0  0  0  0999 V2000
  -28.1197  -32.7534   15.4742 C   0  0  0  0  0  0  0  0  0  0  0  0
  -28.6883  -31.6368   16.0787 C   0  0  0  0  0  0  0  0  0  0  0  0
  -22.9272  -10.2182   19.9499 C   0  0  0  0  0  0  0  0  0  0  0  0
  -24.0355   -9.6469   22.0193 C   0  0  0  0  0  0  0  0  0  0  0  0
  -27.2284  -33.5532   16.1882 C   0  0  0  0  0  0  0  0  0  0  0  0
  -28.3668  -31.3201   17.3980 C   0  0  0  0  0  0  0  0  0  0  0  0
  -27.4195  -26.3864   18.0359 C   0  0  0  0  0  0  0  0  0  0  0  0
  -31.7956  -18.3446   20.7340 C   0  0  0  0  0  0  0  0  0  0  0  0
  -31.4965  -19.5716   20.1204 C   0  0  0  0  0  0  0  0  0  0  0  0
  -22.1748   -9.0464   20.0293 C   0  0  0  0  0  0  0  0  0  0  0  0
  -23.2830   -8.4751   22.0987 C   0  0  0  0  0  0  0  0  0  0  0  0
  -28.5182  -25.5310   18.1059 C   0  0  0  0  0  0  0  0  0  0  0  0
  -20.1529   -7.5837   23.0087 C   0  0  0  0  0  0  0  0  0  0  0  0
  -19.5872   -7.2610   24.2421 C   0  0  0  0  0  0  0  0  0  0  0  0
  -28.3327  -25.4994   20.5109 C   0  0  0  0  0  0  0  0  0  0  0  0
  -20.8299   -5.1893   24.2701 C   0  0  0  0  0  0  0  0  0  0  0  0
  -23.8576  -10.5184   20.9448 C   0  0  0  0  0  0  0  0  0  0  0  0
  -24.3023  -12.9906   21.3902 C   0  0  0  0  0  0  0  0  0  0  0  0
  -26.8883  -33.2406   17.5138 C   0  0  0  0  0  0  0  0  0  0  0  0
  -26.7748  -26.8142   19.2055 C   0  0  0  0  0  0  0  0  0  0  0  0
  -27.4711  -32.1172   18.1309 C   0  0  0  0  0  0  0  0  0  0  0  0
  -27.2245  -26.3582   20.4529 C   0  0  0  0  0  0  0  0  0  0  0  0
  -29.7411  -18.4560   21.9350 C   0  0  0  0  0  0  0  0  0  0  0  0
  -30.9082  -17.7717   21.6463 C   0  0  0  0  0  0  0  0  0  0  0  0
  -29.4470  -19.6868   21.3428 C   0  0  0  0  0  0  0  0  0  0  0  0
  -30.3085  -20.2461   20.4156 C   0  0  0  0  0  0  0  0  0  0  0  0
  -22.3527   -8.1748   21.1037 C   0  0  0  0  0  0  0  0  0  0  0  0
  -28.9767  -25.0896   19.3437 C   0  0  0  0  0  0  0  0  0  0  0  0
  -21.0571   -6.7092   22.4059 C   0  0  0  0  0  0  0  0  0  0  0  0
  -19.9257   -6.0638   24.8728 C   0  0  0  0  0  0  0  0  0  0  0  0
  -21.3956   -5.5120   23.0366 C   0  0  0  0  0  0  0  0  0  0  0  0
  -24.6355  -11.7285   20.8631 C   0  0  0  0  0  0  0  0  0  0  0  0
  -25.3604  -13.7963   21.0469 C   0  0  0  0  0  0  0  0  0  0  0  0
  -23.1403  -13.3982   22.1246 C   0  0  0  0  0  0  0  0  0  0  0  0
  -26.2789  -29.6316   20.5912 C   0  0  0  0  0  0  0  0  0  0  0  0
  -24.4668  -27.8730   22.6274 C   0  0  0  0  0  0  0  0  0  0  0  0
  -23.7999  -24.8303   24.0215 C   0  0  0  0  0  0  0  0  0  0  0  0
  -30.8502  -14.6833   20.5774 C   0  0  0  0  0  0  0  0  0  0  0  0
  -25.9566  -34.1618   18.2607 C   0  0  0  0  0  0  0  0  0  0  0  0
  -25.5745  -27.7157   19.1115 C   0  0  0  0  0  0  0  0  0  0  0  0
  -28.6066  -18.0494   22.8173 C   0  0  0  0  0  0  0  0  0  0  0  0
  -26.5549  -26.7719   21.7370 C   0  0  0  0  0  0  0  0  0  0  0  0
  -25.3799  -33.5447   19.5323 C   0  0  0  0  0  0  0  0  0  0  0  0
  -29.2358  -12.9789   17.9006 C   0  0  0  0  0  0  0  0  0  0  0  0
  -26.4803  -32.8689   20.3443 C   0  0  0  0  0  0  0  0  0  0  0  0
  -27.8708  -12.6006   18.4782 C   0  0  0  0  0  0  0  0  0  0  0  0
  -27.7663  -19.3442   22.8542 C   0  0  0  0  0  0  0  0  0  0  0  0
  -30.3392  -12.8850   18.9521 C   0  0  0  0  0  0  0  0  0  0  0  0
  -28.7165  -13.2664   20.7674 C   0  0  0  0  0  0  0  0  0  0  0  0
  -27.1282  -31.7268   19.5522 C   0  0  1  0  0  0  0  0  0  0  0  0
  -25.3126  -28.4978   20.3950 C   0  0  1  0  0  0  0  0  0  0  0  0
  -27.5628  -13.3998   19.7587 C   0  0  2  0  0  0  0  0  0  0  0  0
  -22.2852  -23.7134   25.6815 C   0  0  0  0  0  0  0  0  0  0  0  0
  -26.0825  -29.0857   24.9141 C   0  0  0  0  0  0  0  0  0  0  0  0
  -25.2050  -27.2738   26.4024 C   0  0  0  0  0  0  0  0  0  0  0  0
  -23.6280  -28.8986   25.3556 C   0  0  0  0  0  0  0  0  0  0  0  0
  -22.6738  -23.0317   21.9586 C   0  0  0  0  0  0  0  0  0  0  0  0
  -31.2160  -16.4576   22.2736 C   0  0  0  0  0  0  0  0  0  0  0  0
  -30.8796  -22.0766   18.8191 C   0  0  0  0  0  0  0  0  0  0  0  0
  -30.2560  -23.3679   18.3165 C   0  0  0  0  0  0  0  0  0  1  0  0
  -24.7223  -27.1309   23.9169 C   0  0  1  0  0  0  0  0  0  0  0  0
  -22.4969  -24.0771   24.2201 C   0  0  2  0  0  0  0  0  0  0  0  0
  -24.9235  -28.0908   25.1233 C   0  0  0  0  0  0  0  0  0  0  0  0
  -25.8131  -11.7275   20.2327 N   0  0  0  0  0  0  0  0  0  0  0  0
  -26.2290  -12.9989   20.3615 N   0  0  0  0  0  0  0  0  0  0  0  0
  -28.1976  -20.1672   21.7309 N   0  0  0  0  0  0  0  0  0  0  0  0
  -25.3890  -27.6595   21.5932 N   0  0  0  0  0  0  0  0  0  0  0  0
  -29.9860  -13.6660   20.1401 N   0  0  0  0  0  0  0  0  0  0  0  0
  -25.6231  -15.1019   21.2675 N   0  0  0  0  0  0  0  0  0  0  0  0
  -22.1493  -12.4435   22.3909 N   0  0  0  0  0  0  0  0  0  0  0  0
  -30.0149  -21.4467   19.7905 N   0  0  0  0  0  0  0  0  0  0  0  0
  -26.2767  -30.5566   19.5647 N   0  0  0  0  0  0  0  0  0  0  0  0
  -23.6141  -26.1955   24.0760 N   0  0  0  0  0  0  0  0  0  0  0  0
  -30.4372  -15.3791   21.7071 N   0  0  0  0  0  0  0  0  0  0  0  0
  -22.4975  -22.8207   23.4185 N   0  3  0  0  0  0  0  0  0  0  0  0
  -22.9778  -14.5781   22.5183 O   0  0  0  0  0  0  0  0  0  0  0  0
  -26.9738  -29.6655   21.6000 O   0  0  0  0  0  0  0  0  0  0  0  0
  -23.4811  -28.6094   22.5386 O   0  0  0  0  0  0  0  0  0  0  0  0
  -24.8756  -24.2641   23.8402 O   0  0  0  0  0  0  0  0  0  0  0  0
  -31.9087  -14.9551   20.0006 O   0  0  0  0  0  0  0  0  0  0  0  0
  -21.6185   -7.0314   21.1817 O   0  0  0  0  0  0  0  0  0  0  0  0
  -30.0493  -24.2551   19.4149 O   0  0  0  0  0  0  0  0  0  1  0  0
  -19.3835   -5.7547   26.0580 F   0  0  0  0  0  0  0  0  0  0  0  0
  -22.2646   -4.6684   22.4629 F   0  0  0  0  0  0  0  0  0  0  0  0
  1  2  1  0  0  0  0
  1  5  2  0  0  0  0
  2  6  2  0  0  0  0
  3 10  2  0  0  0  0
  3 17  1  0  0  0  0
  4 11  1  0  0  0  0
  4 17  2  0  0  0  0
  5 19  1  0  0  0  0
  6 21  1  0  0  0  0
  7 12  2  0  0  0  0
  7 20  1  0  0  0  0
  8  9  2  0  0  0  0
  8 24  1  0  0  0  0
  9 26  1  0  0  0  0
 10 27  1  0  0  0  0
 11 27  2  0  0  0  0
 12 28  1  0  0  0  0
 13 14  2  0  0  0  0
 13 29  1  0  0  0  0
 14 30  1  0  0  0  0
 15 22  1  0  0  0  0
 15 28  2  0  0  0  0
 16 30  2  0  0  0  0
 16 31  1  0  0  0  0
 17 32  1  0  0  0  0
 18 32  1  0  0  0  0
 18 33  2  0  0  0  0
 18 34  1  0  0  0  0
 19 21  2  0  0  0  0
 19 39  1  0  0  0  0
 20 22  2  0  0  0  0
 20 40  1  0  0  0  0
 21 50  1  0  0  0  0
 22 42  1  0  0  0  0
 23 24  2  0  0  0  0
 23 25  1  0  0  0  0
 23 41  1  0  0  0  0
 24 58  1  0  0  0  0
 25 26  2  0  0  0  0
 25 66  1  0  0  0  0
 26 71  1  0  0  0  0
 27 81  1  0  0  0  0
 28 82  1  0  0  0  0
 29 31  2  0  0  0  0
 29 81  1  0  0  0  0
 30 83  1  0  0  0  0
 31 84  1  0  0  0  0
 32 64  2  0  0  0  0
 33 65  1  0  0  0  0
 33 69  1  0  0  0  0
 34 70  1  0  0  0  0
 34 76  2  0  0  0  0
 35 51  1  0  0  0  0
 35 72  1  0  0  0  0
 35 77  2  0  0  0  0
 36 61  1  0  0  0  0
 36 67  1  0  0  0  0
 36 78  2  0  0  0  0
 37 62  1  0  0  0  0
 37 73  1  0  0  0  0
 37 79  2  0  0  0  0
 38 68  1  0  0  0  0
 38 74  1  0  0  0  0
 38 80  2  0  0  0  0
 39 43  1  0  0  0  0
 40 51  1  0  0  0  0
 41 47  1  0  0  0  0
 42 67  1  0  0  0  0
 43 45  1  0  0  0  0
 44 46  1  0  0  0  0
 44 48  1  0  0  0  0
 45 50  1  0  0  0  0
 46 52  1  0  0  0  0
 47 66  1  0  0  0  0
 48 68  1  0  0  0  0
 49 52  1  0  0  0  0
 49 68  1  0  0  0  0
 50 72  1  0  0  0  0
 51 67  1  0  0  0  0
 52 65  1  0  0  0  0
 53 62  1  0  0  0  0
 54 63  1  0  0  0  0
 55 63  1  0  0  0  0
 56 63  1  0  0  0  0
 57 75  1  0  0  0  0
 58 74  1  0  0  0  0
 59 60  1  0  0  0  0
 59 71  1  0  0  0  0
 60 82  1  0  0  0  0
 61 63  1  0  0  0  0
 61 73  1  0  0  0  0
 62 75  1  0  0  0  0
 64 65  1  0  0  0  0
M  CHG  1  75   1
M  ISO  4  38 100  60 101  74 100  82 101
M  END
> <Batch ID>
0006

> <Smiles>
CNC(C)C(=O)NC(C(=O)N1Cc2cc([101O:1][101CH2:1]CNc3ccc(C[100NH:0][100C:0](=O)N4CCCC(n5nc(-c6ccc(Oc7ccc(F)cc7F)cc6)c(C(N)=O)c5N)C4)c4c3NCC4)ccc2CC1C(=O)NC1CCCc2ccccc21)C(C)(C)C

> <Shape>
0.286

> <Color>
0.171

> <Negative vol penalty>
0.000

$$$$

  -OEChem-04042320293D

 78 86  0     1  0  0  0  0  0999 V2000
  -18.7570  -27.7116   26.2306 C   0  0  0  0  0  0  0  0  0  0  0  0
  -20.1246  -27.4788   26.1271 C   0  0  0  0  0  0  0  0  0  0  0  0
  -25.9928  -13.4467   22.0115 C   0  0  0  0  0  0  0  0  0  0  0  0
  -24.6837  -13.1658   20.0004 C   0  0  0  0  0  0  0  0  0  0  0  0
  -18.0015  -27.9429   25.0818 C   0  0  0  0  0  0  0  0  0  0  0  0
  -20.7374  -27.4760   24.8746 C   0  0  0  0  0  0  0  0  0  0  0  0
  -26.3906  -29.4150   23.5376 C   0  0  0  0  0  0  0  0  0  0  0  0
  -25.2757  -12.4178   22.6220 C   0  0  0  0  0  0  0  0  0  0  0  0
  -23.9666  -12.1368   20.6109 C   0  0  0  0  0  0  0  0  0  0  0  0
  -27.5977  -28.7391   23.3649 C   0  0  0  0  0  0  0  0  0  0  0  0
  -22.0333   -9.1938   21.5157 C   0  0  0  0  0  0  0  0  0  0  0  0
  -21.8059   -8.0332   20.7761 C   0  0  0  0  0  0  0  0  0  0  0  0
  -27.2374  -28.7174   20.9798 C   0  0  0  0  0  0  0  0  0  0  0  0
  -24.1896   -7.6982   20.5691 C   0  0  0  0  0  0  0  0  0  0  0  0
  -25.6968  -13.8207   20.7007 C   0  0  0  0  0  0  0  0  0  0  0  0
  -27.6199  -14.7652   19.3159 C   0  0  0  0  0  0  0  0  0  0  0  0
  -18.6070  -27.9525   23.8154 C   0  0  0  0  0  0  0  0  0  0  0  0
  -25.5912  -29.7381   22.4317 C   0  0  0  0  0  0  0  0  0  0  0  0
  -19.9891  -27.7063   23.7077 C   0  0  0  0  0  0  0  0  0  0  0  0
  -26.0218  -29.3996   21.1409 C   0  0  0  0  0  0  0  0  0  0  0  0
  -24.2626  -11.7628   21.9217 C   0  0  0  0  0  0  0  0  0  0  0  0
  -28.0199  -28.3876   22.0861 C   0  0  0  0  0  0  0  0  0  0  0  0
  -23.3388   -9.6066   21.7819 C   0  0  0  0  0  0  0  0  0  0  0  0
  -22.8841   -7.2854   20.3028 C   0  0  0  0  0  0  0  0  0  0  0  0
  -24.4170   -8.8588   21.3087 C   0  0  0  0  0  0  0  0  0  0  0  0
  -26.4368  -14.8839   20.0697 C   0  0  0  0  0  0  0  0  0  0  0  0
  -27.9185  -16.0522   18.9407 C   0  0  0  0  0  0  0  0  0  0  0  0
  -28.3807  -13.5960   18.9845 C   0  0  0  0  0  0  0  0  0  0  0  0
  -22.6566  -28.9678   21.4838 C   0  0  0  0  0  0  0  0  0  0  0  0
  -23.2577  -31.1453   19.1557 C   0  0  0  0  0  0  0  0  0  0  0  0
  -25.5665  -32.8331   17.2936 C   0  0  0  0  0  0  0  0  0  0  0  0
  -28.4985  -21.3003   19.9110 C   0  0  0  0  0  0  0  0  0  0  0  0
  -17.7410  -28.1602   22.5982 C   0  0  0  0  0  0  0  0  0  0  0  0
  -24.3047  -30.4910   22.6327 C   0  0  0  0  0  0  0  0  0  0  0  0
  -25.2100  -29.7414   19.9191 C   0  0  0  0  0  0  0  0  0  0  0  0
  -18.5319  -28.5121   21.3408 C   0  0  0  0  0  0  0  0  0  0  0  0
  -25.1981  -20.2976   19.2436 C   0  0  0  0  0  0  0  0  0  0  0  0
  -19.7295  -27.5803   21.1853 C   0  0  0  0  0  0  0  0  0  0  0  0
  -25.3180  -18.7770   19.3394 C   0  0  0  0  0  0  0  0  0  0  0  0
  -26.0151  -21.0065   20.3253 C   0  0  0  0  0  0  0  0  0  0  0  0
  -27.6342  -23.3253   21.1668 C   0  0  0  0  0  0  0  0  0  0  0  0
  -29.3400  -23.5722   19.4012 C   0  0  0  0  0  0  0  0  0  0  0  0
  -27.5569  -19.0770   20.4634 C   0  0  0  0  0  0  0  0  0  0  0  0
  -28.5611  -24.0036   22.1704 C   0  0  0  0  0  0  0  0  0  0  0  0
  -30.2994  -24.2291   20.3802 C   0  0  0  0  0  0  0  0  0  0  0  0
  -20.6945  -27.7199   22.3689 C   0  0  1  0  0  0  0  0  0  0  0  0
  -23.3227  -30.3147   21.4785 C   0  0  1  0  0  0  0  0  0  0  0  0
  -26.7933  -18.3391   19.3529 C   0  0  1  0  0  0  0  0  0  0  0  0
  -25.7543  -34.5181   15.4435 C   0  0  0  0  0  0  0  0  0  0  0  0
  -22.5071  -28.9954   17.1248 C   0  0  0  0  0  0  0  0  0  0  0  0
  -23.6032  -30.3845   15.3536 C   0  0  0  0  0  0  0  0  0  0  0  0
  -21.6345  -31.2790   16.5973 C   0  0  0  0  0  0  0  0  0  0  0  0
  -27.0154  -34.7458   19.0259 C   0  0  0  0  0  0  0  0  0  0  0  0
  -30.3853  -25.6899   22.4015 C   0  0  0  0  0  0  0  0  0  0  0  0
  -29.6219  -26.8691   22.9714 C   0  0  0  0  0  0  0  0  0  1  0  0
  -23.8643  -31.0936   17.7743 C   0  0  1  0  0  0  0  0  0  0  0  0
  -25.7008  -34.3052   16.9484 C   0  0  2  0  0  0  0  0  0  0  0  0
  -22.9169  -30.4298   16.7355 C   0  0  0  0  0  0  0  0  0  0  0  0
  -26.0129  -16.1466   20.1685 N   0  0  0  0  0  0  0  0  0  0  0  0
  -26.9347  -16.8332   19.4721 N   0  0  0  0  0  0  0  0  0  0  0  0
  -23.9566  -30.4724   20.1680 N   0  0  0  0  0  0  0  0  0  0  0  0
  -27.4042  -20.5271   20.3267 N   0  0  0  0  0  0  0  0  0  0  0  0
  -28.4023  -22.6882   20.0903 N   0  0  0  0  0  0  0  0  0  0  0  0
  -28.9241  -16.5807   18.2115 N   0  0  0  0  0  0  0  0  0  0  0  0
  -27.9324  -12.3527   19.4509 N   0  0  0  0  0  0  0  0  0  0  0  0
  -21.4947  -28.9177   22.2300 N   0  0  0  0  0  0  0  0  0  0  0  0
  -24.2471  -32.4623   17.4451 N   0  0  0  0  0  0  0  0  0  0  0  0
  -29.4992  -24.9397   21.4469 N   0  3  0  0  0  0  0  0  0  0  0  0
  -26.9449  -34.8663   17.5469 N   0  3  0  0  0  0  0  0  0  0  0  0
  -29.4361  -13.6541   18.3091 O   0  0  0  0  0  0  0  0  0  0  0  0
  -23.1588  -28.0430   20.8559 O   0  0  0  0  0  0  0  0  0  0  0  0
  -22.2063  -31.7660   19.3317 O   0  0  0  0  0  0  0  0  0  0  0  0
  -26.5350  -32.0859   17.4130 O   0  0  0  0  0  0  0  0  0  0  0  0
  -29.5034  -20.7806   19.4095 O   0  0  0  0  0  0  0  0  0  0  0  0
  -23.5629  -10.7586   22.5170 O   0  0  0  0  0  0  0  0  0  0  0  0
  -29.2058  -27.7226   21.9135 O   0  0  0  0  0  0  0  0  0  1  0  0
  -22.6656   -6.1701   19.5939 F   0  0  0  0  0  0  0  0  0  0  0  0
  -25.6734   -9.2498   21.5623 F   0  0  0  0  0  0  0  0  0  0  0  0
  1  2  1  0  0  0  0
  1  5  2  0  0  0  0
  2  6  2  0  0  0  0
  3  8  2  0  0  0  0
  3 15  1  0  0  0  0
  4  9  1  0  0  0  0
  4 15  2  0  0  0  0
  5 17  1  0  0  0  0
  6 19  1  0  0  0  0
  7 10  2  0  0  0  0
  7 18  1  0  0  0  0
  8 21  1  0  0  0  0
  9 21  2  0  0  0  0
 10 22  1  0  0  0  0
 11 12  2  0  0  0  0
 11 23  1  0  0  0  0
 12 24  1  0  0  0  0
 13 20  1  0  0  0  0
 13 22  2  0  0  0  0
 14 24  2  0  0  0  0
 14 25  1  0  0  0  0
 15 26  1  0  0  0  0
 16 26  1  0  0  0  0
 16 27  2  0  0  0  0
 16 28  1  0  0  0  0
 17 19  2  0  0  0  0
 17 33  1  0  0  0  0
 18 20  2  0  0  0  0
 18 34  1  0  0  0  0
 19 46  1  0  0  0  0
 20 35  1  0  0  0  0
 21 75  1  0  0  0  0
 22 76  1  0  0  0  0
 23 25  2  0  0  0  0
 23 75  1  0  0  0  0
 24 77  1  0  0  0  0
 25 78  1  0  0  0  0
 26 59  2  0  0  0  0
 27 60  1  0  0  0  0
 27 64  1  0  0  0  0
 28 65  1  0  0  0  0
 28 70  2  0  0  0  0
 29 47  1  0  0  0  0
 29 66  1  0  0  0  0
 29 71  2  0  0  0  0
 30 56  1  0  0  0  0
 30 61  1  0  0  0  0
 30 72  2  0  0  0  0
 31 57  1  0  0  0  0
 31 67  1  0  0  0  0
 31 73  2  0  0  0  0
 32 62  1  0  0  0  0
 32 63  1  0  0  0  0
 32 74  2  0  0  0  0
 33 36  1  0  0  0  0
 34 47  1  0  0  0  0
 35 61  1  0  0  0  0
 36 38  1  0  0  0  0
 37 39  1  0  0  0  0
 37 40  1  0  0  0  0
 38 46  1  0  0  0  0
 39 48  1  0  0  0  0
 40 62  1  0  0  0  0
 41 44  1  0  0  0  0
 41 63  1  0  0  0  0
 42 45  1  0  0  0  0
 42 63  1  0  0  0  0
 43 48  1  0  0  0  0
 43 62  1  0  0  0  0
 44 68  1  0  0  0  0
 45 68  1  0  0  0  0
 46 66  1  0  0  0  0
 47 61  1  0  0  0  0
 48 60  1  0  0  0  0
 49 57  1  0  0  0  0
 50 58  1  0  0  0  0
 51 58  1  0  0  0  0
 52 58  1  0  0  0  0
 53 69  1  0  0  0  0
 54 55  1  0  0  0  0
 54 68  1  0  0  0  0
 55 76  1  0  0  0  0
 56 58  1  0  0  0  0
 56 67  1  0  0  0  0
 57 69  1  0  0  0  0
 59 60  1  0  0  0  0
M  CHG  2  68   1  69   1
M  ISO  4  32 100  55 101  63 100  76 101
M  END
> <Batch ID>
0006

> <Smiles>
CNC(C)C(=O)NC(C(=O)N1Cc2cc([101O:1][101CH2:1]CN3CC[100N:0]([100C:0](=O)N4CCCC(n5nc(-c6ccc(Oc7ccc(F)cc7F)cc6)c(C(N)=O)c5N)C4)CC3)ccc2CC1C(=O)NC1CCCc2ccccc21)C(C)(C)C

> <Shape>
0.253

> <Color>
0.093

> <Negative vol penalty>
0.000

$$$$

  -OEChem-04042320293D

 86 95  0     1  0  0  0  0  0999 V2000
  -30.6577  -22.8000   18.8657 C   0  0  0  0  0  0  0  0  0  0  0  0
  -29.2955  -23.0809   18.8398 C   0  0  0  0  0  0  0  0  0  0  0  0
  -27.3909  -14.5089   21.9837 C   0  0  0  0  0  0  0  0  0  0  0  0
  -26.2123  -15.1206   19.9653 C   0  0  0  0  0  0  0  0  0  0  0  0
  -31.4070  -23.0919   20.0047 C   0  0  0  0  0  0  0  0  0  0  0  0
  -28.6814  -23.6529   19.9534 C   0  0  0  0  0  0  0  0  0  0  0  0
  -24.0658  -27.6781   19.9505 C   0  0  0  0  0  0  0  0  0  0  0  0
  -18.6343  -22.0375   20.8739 C   0  0  0  0  0  0  0  0  0  0  0  0
  -26.9780  -13.1862   21.8240 C   0  0  0  0  0  0  0  0  0  0  0  0
  -25.7994  -13.7978   19.8056 C   0  0  0  0  0  0  0  0  0  0  0  0
  -22.6912  -27.5292   20.1292 C   0  0  0  0  0  0  0  0  0  0  0  0
  -24.1361  -10.6532   19.0608 C   0  0  0  0  0  0  0  0  0  0  0  0
  -19.5425  -21.1428   20.3080 C   0  0  0  0  0  0  0  0  0  0  0  0
  -22.8014  -10.4267   18.7245 C   0  0  0  0  0  0  0  0  0  0  0  0
  -20.4302  -23.6004   21.2852 C   0  0  0  0  0  0  0  0  0  0  0  0
  -22.9397  -28.0914   22.4619 C   0  0  0  0  0  0  0  0  0  0  0  0
  -22.1024  -11.5244   20.7601 C   0  0  0  0  0  0  0  0  0  0  0  0
  -27.0080  -15.4761   21.0544 C   0  0  0  0  0  0  0  0  0  0  0  0
  -28.6066  -17.4346   20.7132 C   0  0  0  0  0  0  0  0  0  0  0  0
  -19.0781  -23.2663   21.3625 C   0  0  0  0  0  0  0  0  0  0  0  0
  -30.8037  -23.6767   21.1293 C   0  0  0  0  0  0  0  0  0  0  0  0
  -24.8906  -28.0248   21.0303 C   0  0  0  0  0  0  0  0  0  0  0  0
  -29.4230  -23.9517   21.1091 C   0  0  0  0  0  0  0  0  0  0  0  0
  -24.3241  -28.2467   22.2936 C   0  0  0  0  0  0  0  0  0  0  0  0
  -21.3384  -22.7057   20.7193 C   0  0  0  0  0  0  0  0  0  0  0  0
  -26.1823  -12.8306   20.7350 C   0  0  0  0  0  0  0  0  0  0  0  0
  -22.1283  -27.7330   21.3857 C   0  0  0  0  0  0  0  0  0  0  0  0
  -24.4539  -11.3152   20.2467 C   0  0  0  0  0  0  0  0  0  0  0  0
  -21.7846  -10.8623   19.5742 C   0  0  0  0  0  0  0  0  0  0  0  0
  -20.8945  -21.4769   20.2306 C   0  0  0  0  0  0  0  0  0  0  0  0
  -23.4370  -11.7508   21.0964 C   0  0  0  0  0  0  0  0  0  0  0  0
  -27.4338  -16.8428   21.2191 C   0  0  0  0  0  0  0  0  0  0  0  0
  -28.5462  -18.7379   21.1424 C   0  0  0  0  0  0  0  0  0  0  0  0
  -18.1897  -25.6394   21.3086 C   0  0  0  0  0  0  0  0  0  0  0  0
  -29.6568  -16.8579   19.9257 C   0  0  0  0  0  0  0  0  0  0  0  0
  -27.3169  -26.6305   22.5378 C   0  0  0  0  0  0  0  0  0  0  0  0
  -27.4637  -29.4663   24.1058 C   0  0  0  0  0  0  0  0  0  0  0  0
  -25.8577  -32.2996   25.1255 C   0  0  0  0  0  0  0  0  0  0  0  0
  -23.9987  -22.3212   22.6693 C   0  0  0  0  0  0  0  0  0  0  0  0
  -31.6452  -23.9306   22.3549 C   0  0  0  0  0  0  0  0  0  0  0  0
  -26.3679  -28.2078   20.8151 C   0  0  0  0  0  0  0  0  0  0  0  0
  -25.1632  -28.6401   23.4809 C   0  0  0  0  0  0  0  0  0  0  0  0
  -30.9929  -24.8812   23.3554 C   0  0  0  0  0  0  0  0  0  0  0  0
  -26.7969  -21.4362   24.6851 C   0  0  0  0  0  0  0  0  0  0  0  0
  -29.5354  -24.4950   23.5865 C   0  0  0  0  0  0  0  0  0  0  0  0
  -27.3833  -20.2120   23.9797 C   0  0  0  0  0  0  0  0  0  0  0  0
  -25.2718  -21.4545   24.6095 C   0  0  0  0  0  0  0  0  0  0  0  0
  -18.4604  -24.9944   23.2908 C   0  0  0  0  0  0  0  0  0  0  0  0
  -25.3042  -20.1130   22.5423 C   0  0  0  0  0  0  0  0  0  0  0  0
  -18.0826  -24.2463   21.9823 C   0  0  2  0  0  0  0  0  0  0  0  0
  -28.7257  -24.5949   22.2881 C   0  0  1  0  0  0  0  0  0  0  0  0
  -27.1813  -28.0606   22.0974 C   0  0  1  0  0  0  0  0  0  0  0  0
  -26.8421  -20.0797   22.5435 C   0  0  2  0  0  0  0  0  0  0  0  0
  -26.2283  -34.4154   26.4231 C   0  0  0  0  0  0  0  0  0  0  0  0
  -27.3207  -27.8891   26.7138 C   0  0  0  0  0  0  0  0  0  0  0  0
  -26.7406  -30.0216   27.8904 C   0  0  0  0  0  0  0  0  0  0  0  0
  -28.9397  -29.7952   26.7348 C   0  0  0  0  0  0  0  0  0  0  0  0
  -25.2543  -33.9869   22.7701 C   0  0  0  0  0  0  0  0  0  0  0  0
  -22.7834  -23.0657   20.6375 C   0  0  0  0  0  0  0  0  0  0  0  0
  -18.7812  -27.5545   22.8885 C   0  0  0  0  0  0  0  0  0  0  0  0
  -20.2775  -27.8116   22.8771 C   0  0  0  0  0  0  0  0  0  1  0  0
  -26.8335  -30.0305   25.3562 C   0  0  1  0  0  0  0  0  0  0  0  0
  -26.2516  -33.7637   25.0492 C   0  0  2  0  0  0  0  0  0  0  0  0
  -27.4428  -29.4248   26.6521 C   0  0  0  0  0  0  0  0  0  0  0  0
  -26.6832  -17.6997   21.9164 N   0  0  0  0  0  0  0  0  0  0  0  0
  -27.3862  -18.8433   21.8519 N   0  0  0  0  0  0  0  0  0  0  0  0
  -18.4674  -26.2057   22.4979 N   0  0  0  0  0  0  0  0  0  0  0  0
  -26.6035  -28.8005   23.2212 N   0  0  0  0  0  0  0  0  0  0  0  0
  -24.8237  -21.3270   23.2207 N   0  0  0  0  0  0  0  0  0  0  0  0
  -29.3728  -19.7926   20.9785 N   0  0  0  0  0  0  0  0  0  0  0  0
  -29.5611  -15.5049   19.5725 N   0  0  0  0  0  0  0  0  0  0  0  0
  -28.4068  -25.9760   21.9963 N   0  0  0  0  0  0  0  0  0  0  0  0
  -26.9591  -31.4807   25.2580 N   0  0  0  0  0  0  0  0  0  0  0  0
  -23.6248  -22.1266   21.3453 N   0  0  0  0  0  0  0  0  0  0  0  0
  -25.3140  -34.5067   24.1605 N   0  3  0  0  0  0  0  0  0  0  0  0
  -18.0793  -26.0832   20.1886 O   0  0  0  0  0  0  0  0  0  0  0  0
  -30.6587  -17.5184   19.5603 O   0  0  0  0  0  0  0  0  0  0  0  0
  -26.4945  -26.1563   23.3127 O   0  0  0  0  0  0  0  0  0  0  0  0
  -28.6734  -29.6173   23.9173 O   0  0  0  0  0  0  0  0  0  0  0  0
  -24.6896  -31.9207   25.0766 O   0  0  0  0  0  0  0  0  0  0  0  0
  -23.6276  -23.3119   23.3079 O   0  0  0  0  0  0  0  0  0  0  0  0
  -25.7794  -11.5400   20.5787 O   0  0  0  0  0  0  0  0  0  0  0  0
  -20.7869  -27.5875   21.5631 O   0  0  0  0  0  0  0  0  0  1  0  0
  -20.5029  -10.6461   19.2504 F   0  0  0  0  0  0  0  0  0  0  0  0
  -21.7597  -20.6107   19.6849 F   0  0  0  0  0  0  0  0  0  0  0  0
  -23.7361  -12.3884   22.2365 F   0  0  0  0  0  0  0  0  0  0  0  0
  1  2  1  0  0  0  0
  1  5  2  0  0  0  0
  2  6  2  0  0  0  0
  3  9  2  0  0  0  0
  3 18  1  0  0  0  0
  4 10  1  0  0  0  0
  4 18  2  0  0  0  0
  5 21  1  0  0  0  0
  6 23  1  0  0  0  0
  7 11  2  0  0  0  0
  7 22  1  0  0  0  0
  8 13  2  0  0  0  0
  8 20  1  0  0  0  0
  9 26  1  0  0  0  0
 10 26  2  0  0  0  0
 11 27  1  0  0  0  0
 12 14  2  0  0  0  0
 12 28  1  0  0  0  0
 13 30  1  0  0  0  0
 14 29  1  0  0  0  0
 15 20  2  0  0  0  0
 15 25  1  0  0  0  0
 16 24  1  0  0  0  0
 16 27  2  0  0  0  0
 17 29  2  0  0  0  0
 17 31  1  0  0  0  0
 18 32  1  0  0  0  0
 19 32  1  0  0  0  0
 19 33  2  0  0  0  0
 19 35  1  0  0  0  0
 20 50  1  0  0  0  0
 21 23  2  0  0  0  0
 21 40  1  0  0  0  0
 22 24  2  0  0  0  0
 22 41  1  0  0  0  0
 23 51  1  0  0  0  0
 24 42  1  0  0  0  0
 25 30  2  0  0  0  0
 25 59  1  0  0  0  0
 26 82  1  0  0  0  0
 27 83  1  0  0  0  0
 28 31  2  0  0  0  0
 28 82  1  0  0  0  0
 29 84  1  0  0  0  0
 30 85  1  0  0  0  0
 31 86  1  0  0  0  0
 32 65  2  0  0  0  0
 33 66  1  0  0  0  0
 33 70  1  0  0  0  0
 34 50  1  0  0  0  0
 34 67  1  0  0  0  0
 34 76  2  0  0  0  0
 35 71  1  0  0  0  0
 35 77  2  0  0  0  0
 36 52  1  0  0  0  0
 36 72  1  0  0  0  0
 36 78  2  0  0  0  0
 37 62  1  0  0  0  0
 37 68  1  0  0  0  0
 37 79  2  0  0  0  0
 38 63  1  0  0  0  0
 38 73  1  0  0  0  0
 38 80  2  0  0  0  0
 39 69  1  0  0  0  0
 39 74  1  0  0  0  0
 39 81  2  0  0  0  0
 40 43  1  0  0  0  0
 41 52  1  0  0  0  0
 42 68  1  0  0  0  0
 43 45  1  0  0  0  0
 44 46  1  0  0  0  0
 44 47  1  0  0  0  0
 45 51  1  0  0  0  0
 46 53  1  0  0  0  0
 47 69  1  0  0  0  0
 48 50  1  0  0  0  0
 48 67  1  0  0  0  0
 49 53  1  0  0  0  0
 49 69  1  0  0  0  0
 51 72  1  0  0  0  0
 52 68  1  0  0  0  0
 53 66  1  0  0  0  0
 54 63  1  0  0  0  0
 55 64  1  0  0  0  0
 56 64  1  0  0  0  0
 57 64  1  0  0  0  0
 58 75  1  0  0  0  0
 59 74  1  0  0  0  0
 60 61  1  0  0  0  0
 60 67  1  0  0  0  0
 61 83  1  0  0  0  0
 62 64  1  0  0  0  0
 62 73  1  0  0  0  0
 63 75  1  0  0  0  0
 65 66  1  0  0  0  0
M  CHG  1  75   1
M  ISO  4  39 100  61 101  74 100  83 101
M  END
> <Batch ID>
0006

> <Smiles>
CNC(C)C(=O)NC(C(=O)N1Cc2cc([101O:1][101CH2:1]CN3CC(c4ccc(F)c(C[100NH:0][100C:0](=O)N5CCCC(n6nc(-c7ccc(Oc8ccc(F)cc8F)cc7)c(C(N)=O)c6N)C5)c4)C3=O)ccc2CC1C(=O)NC1CCCc2ccccc21)C(C)(C)C

> <Shape>
0.232

> <Color>
0.050

> <Negative vol penalty>
0.000

$$$$

  -OEChem-04042320293D

 81 89  0     1  0  0  0  0  0999 V2000
  -28.8483  -36.7651   23.2335 C   0  0  0  0  0  0  0  0  0  0  0  0
  -29.1659  -35.4565   22.8839 C   0  0  0  0  0  0  0  0  0  0  0  0
  -24.3257   -9.7629   22.0480 C   0  0  0  0  0  0  0  0  0  0  0  0
  -24.8477  -11.3497   23.7934 C   0  0  0  0  0  0  0  0  0  0  0  0
  -30.0279  -20.7730   19.1454 C   0  0  0  0  0  0  0  0  0  0  0  0
  -27.6321  -37.0436   23.8556 C   0  0  0  0  0  0  0  0  0  0  0  0
  -28.2678  -34.4255   23.1572 C   0  0  0  0  0  0  0  0  0  0  0  0
  -27.2713  -29.4179   19.7753 C   0  0  0  0  0  0  0  0  0  0  0  0
  -29.8855  -19.3937   18.9943 C   0  0  0  0  0  0  0  0  0  0  0  0
  -24.0536   -8.7921   23.0119 C   0  0  0  0  0  0  0  0  0  0  0  0
  -24.5756  -10.3790   24.7574 C   0  0  0  0  0  0  0  0  0  0  0  0
  -27.7391  -28.1086   19.8777 C   0  0  0  0  0  0  0  0  0  0  0  0
  -21.5195   -8.0034   25.1069 C   0  0  0  0  0  0  0  0  0  0  0  0
  -20.3678   -7.2336   24.9445 C   0  0  0  0  0  0  0  0  0  0  0  0
  -27.6470  -20.9800   19.5000 C   0  0  0  0  0  0  0  0  0  0  0  0
  -25.7289  -27.4893   21.0588 C   0  0  0  0  0  0  0  0  0  0  0  0
  -21.7179   -5.2318   24.8592 C   0  0  0  0  0  0  0  0  0  0  0  0
  -24.7228  -11.0417   22.4387 C   0  0  0  0  0  0  0  0  0  0  0  0
  -28.9086  -21.5662   19.3983 C   0  0  0  0  0  0  0  0  0  0  0  0
  -24.0972  -12.9625   20.8808 C   0  0  0  0  0  0  0  0  0  0  0  0
  -26.7144  -36.0167   24.1280 C   0  0  0  0  0  0  0  0  0  0  0  0
  -26.0317  -29.7759   20.3244 C   0  0  0  0  0  0  0  0  0  0  0  0
  -27.0387  -34.6903   23.7848 C   0  0  0  0  0  0  0  0  0  0  0  0
  -25.2466  -28.8033   20.9598 C   0  0  0  0  0  0  0  0  0  0  0  0
  -28.6239  -18.8075   19.0961 C   0  0  0  0  0  0  0  0  0  0  0  0
  -24.1785   -9.1001   24.3666 C   0  0  0  0  0  0  0  0  0  0  0  0
  -26.9692  -27.1446   20.5221 C   0  0  0  0  0  0  0  0  0  0  0  0
  -22.7705   -7.3875   25.1454 C   0  0  0  0  0  0  0  0  0  0  0  0
  -20.4669   -5.8478   24.8207 C   0  0  0  0  0  0  0  0  0  0  0  0
  -27.5046  -19.6006   19.3489 C   0  0  0  0  0  0  0  0  0  0  0  0
  -22.8696   -6.0017   25.0216 C   0  0  0  0  0  0  0  0  0  0  0  0
  -25.0045  -12.0448   21.4435 C   0  0  0  0  0  0  0  0  0  0  0  0
  -24.8515  -13.6912   19.9940 C   0  0  0  0  0  0  0  0  0  0  0  0
  -29.0586  -23.0224   19.5569 C   0  0  0  0  0  0  0  0  0  0  0  0
  -28.0711  -23.9214   19.4233 C   0  0  0  0  0  0  0  0  0  0  0  0
  -22.6978  -13.1404   21.1370 C   0  0  0  0  0  0  0  0  0  0  0  0
  -25.0796  -31.7955   22.5868 C   0  0  0  0  0  0  0  0  0  0  0  0
  -22.1233  -30.9232   21.5759 C   0  0  0  0  0  0  0  0  0  0  0  0
  -20.1573  -28.5976   20.0355 C   0  0  0  0  0  0  0  0  0  0  0  0
  -29.4911  -16.4780   18.6862 C   0  0  0  0  0  0  0  0  0  0  0  0
  -25.4326  -36.3600   24.8448 C   0  0  0  0  0  0  0  0  0  0  0  0
  -25.5294  -31.1865   20.1820 C   0  0  0  0  0  0  0  0  0  0  0  0
  -23.8996  -29.1318   21.5483 C   0  0  0  0  0  0  0  0  0  0  0  0
  -24.3750  -35.2623   24.7608 C   0  0  0  0  0  0  0  0  0  0  0  0
  -29.5535  -12.9418   18.2759 C   0  0  0  0  0  0  0  0  0  0  0  0
  -24.9930  -33.9013   25.0648 C   0  0  0  0  0  0  0  0  0  0  0  0
  -28.3009  -12.4687   19.0171 C   0  0  0  0  0  0  0  0  0  0  0  0
  -30.2195  -14.1208   18.9830 C   0  0  0  0  0  0  0  0  0  0  0  0
  -28.0797  -14.7827   20.0088 C   0  0  0  0  0  0  0  0  0  0  0  0
  -26.0799  -33.5481   24.0423 C   0  0  1  0  0  0  0  0  0  0  0  0
  -24.4829  -31.5566   21.2286 C   0  0  1  0  0  0  0  0  0  0  0  0
  -27.3376  -13.6383   19.2994 C   0  0  2  0  0  0  0  0  0  0  0  0
  -17.7738  -28.1484   19.3914 C   0  0  0  0  0  0  0  0  0  0  0  0
  -21.4726  -30.2319   24.4757 C   0  0  0  0  0  0  0  0  0  0  0  0
  -19.4969  -28.9345   23.6499 C   0  0  0  0  0  0  0  0  0  0  0  0
  -19.6324  -31.3916   23.2415 C   0  0  0  0  0  0  0  0  0  0  0  0
  -20.8332  -28.4939   17.1561 C   0  0  0  0  0  0  0  0  0  0  0  0
  -28.2751  -25.3942   19.5805 C   0  0  0  0  0  0  0  0  0  1  0  0
  -21.1451  -29.8345   21.9457 C   0  0  1  0  0  0  0  0  0  0  0  0
  -19.1076  -28.7280   18.9467 C   0  0  2  0  0  0  0  0  0  0  0  0
  -20.4629  -30.0921   23.3189 C   0  0  0  0  0  0  0  0  0  0  0  0
  -26.2406  -12.1764   20.9549 N   0  0  0  0  0  0  0  0  0  0  0  0
  -26.1154  -13.1852   20.0758 N   0  0  0  0  0  0  0  0  0  0  0  0
  -23.4550  -30.5262   21.3891 N   0  0  0  0  0  0  0  0  0  0  0  0
  -29.2478  -15.1921   19.2134 N   0  0  0  0  0  0  0  0  0  0  0  0
  -24.5502  -14.7089   19.1598 N   0  0  0  0  0  0  0  0  0  0  0  0
  -22.0797  -12.3066   22.0789 N   0  0  0  0  0  0  0  0  0  0  0  0
  -28.4821  -17.4062   18.9414 N   0  0  0  0  0  0  0  0  0  0  0  0
  -25.4816  -33.0997   22.8032 N   0  0  0  0  0  0  0  0  0  0  0  0
  -20.2145  -29.7249   20.8274 N   0  0  0  0  0  0  0  0  0  0  0  0
  -19.5454  -28.0097   17.7165 N   0  3  0  0  0  0  0  0  0  0  0  0
  -22.0120  -14.0019   20.5362 O   0  0  0  0  0  0  0  0  0  0  0  0
  -25.1673  -30.8657   23.3802 O   0  0  0  0  0  0  0  0  0  0  0  0
  -21.7195  -32.0820   21.4503 O   0  0  0  0  0  0  0  0  0  0  0  0
  -20.8540  -27.5944   20.1724 O   0  0  0  0  0  0  0  0  0  0  0  0
  -30.5061  -16.7297   18.0317 O   0  0  0  0  0  0  0  0  0  0  0  0
  -23.9129   -8.1531   25.3074 O   0  0  0  0  0  0  0  0  0  0  0  0
  -27.4236  -25.8660   20.6240 O   0  0  0  0  0  0  0  0  0  1  0  0
  -19.3607   -5.1085   24.6663 F   0  0  0  0  0  0  0  0  0  0  0  0
  -26.2871  -19.0480   19.4476 F   0  0  0  0  0  0  0  0  0  0  0  0
  -24.0685   -5.4042   25.0590 F   0  0  0  0  0  0  0  0  0  0  0  0
  1  2  1  0  0  0  0
  1  6  2  0  0  0  0
  2  7  2  0  0  0  0
  3 10  2  0  0  0  0
  3 18  1  0  0  0  0
  4 11  1  0  0  0  0
  4 18  2  0  0  0  0
  5  9  2  0  0  0  0
  5 19  1  0  0  0  0
  6 21  1  0  0  0  0
  7 23  1  0  0  0  0
  8 12  2  0  0  0  0
  8 22  1  0  0  0  0
  9 25  1  0  0  0  0
 10 26  1  0  0  0  0
 11 26  2  0  0  0  0
 12 27  1  0  0  0  0
 13 14  2  0  0  0  0
 13 28  1  0  0  0  0
 14 29  1  0  0  0  0
 15 19  2  0  0  0  0
 15 30  1  0  0  0  0
 16 24  1  0  0  0  0
 16 27  2  0  0  0  0
 17 29  2  0  0  0  0
 17 31  1  0  0  0  0
 18 32  1  0  0  0  0
 19 34  1  0  0  0  0
 20 32  1  0  0  0  0
 20 33  2  0  0  0  0
 20 36  1  0  0  0  0
 21 23  2  0  0  0  0
 21 41  1  0  0  0  0
 22 24  2  0  0  0  0
 22 42  1  0  0  0  0
 23 50  1  0  0  0  0
 24 43  1  0  0  0  0
 25 30  2  0  0  0  0
 25 68  1  0  0  0  0
 26 77  1  0  0  0  0
 27 78  1  0  0  0  0
 28 31  2  0  0  0  0
 28 77  1  0  0  0  0
 29 79  1  0  0  0  0
 30 80  1  0  0  0  0
 31 81  1  0  0  0  0
 32 62  2  0  0  0  0
 33 63  1  0  0  0  0
 33 66  1  0  0  0  0
 34 35  2  0  0  0  0
 35 58  1  0  0  0  0
 36 67  1  0  0  0  0
 36 72  2  0  0  0  0
 37 51  1  0  0  0  0
 37 69  1  0  0  0  0
 37 73  2  0  0  0  0
 38 59  1  0  0  0  0
 38 64  1  0  0  0  0
 38 74  2  0  0  0  0
 39 60  1  0  0  0  0
 39 70  1  0  0  0  0
 39 75  2  0  0  0  0
 40 65  1  0  0  0  0
 40 68  1  0  0  0  0
 40 76  2  0  0  0  0
 41 44  1  0  0  0  0
 42 51  1  0  0  0  0
 43 64  1  0  0  0  0
 44 46  1  0  0  0  0
 45 47  1  0  0  0  0
 45 48  1  0  0  0  0
 46 50  1  0  0  0  0
 47 52  1  0  0  0  0
 48 65  1  0  0  0  0
 49 52  1  0  0  0  0
 49 65  1  0  0  0  0
 50 69  1  0  0  0  0
 51 64  1  0  0  0  0
 52 63  1  0  0  0  0
 53 60  1  0  0  0  0
 54 61  1  0  0  0  0
 55 61  1  0  0  0  0
 56 61  1  0  0  0  0
 57 71  1  0  0  0  0
 58 78  1  0  0  0  0
 59 61  1  0  0  0  0
 59 70  1  0  0  0  0
 60 71  1  0  0  0  0
 62 63  1  0  0  0  0
M  CHG  1  71   1
M  ISO  4  40 100  58 101  68 100  78 101
M  END
> <Batch ID>
0006

> <Smiles>
CNC(C)C(=O)NC(C(=O)N1Cc2cc([101O:1][101CH2:1]C=Cc3ccc([100NH:0][100C:0](=O)N4CCCC(n5nc(-c6ccc(Oc7ccc(F)cc7F)cc6)c(C(N)=O)c5N)C4)c(F)c3)ccc2CC1C(=O)NC1CCCc2ccccc21)C(C)(C)C

> <Shape>
0.323

> <Color>
0.110

> <Negative vol penalty>
0.000

$$$$

  -OEChem-04042320293D

 88 97  0     1  0  0  0  0  0999 V2000
  -16.8915  -24.6831   22.0529 C   0  0  0  0  0  0  0  0  0  0  0  0
  -32.6323  -14.9471   20.8683 C   0  0  0  0  0  0  0  0  0  0  0  0
  -31.7753  -16.0251   21.0652 C   0  0  0  0  0  0  0  0  0  0  0  0
  -17.2639  -23.4875   21.4384 C   0  0  0  0  0  0  0  0  0  0  0  0
  -17.8356  -25.6917   22.2459 C   0  0  0  0  0  0  0  0  0  0  0  0
  -20.8553  -26.6116   23.2179 C   0  0  0  0  0  0  0  0  0  0  0  0
  -20.2981  -27.5471   21.0612 C   0  0  0  0  0  0  0  0  0  0  0  0
  -29.9831  -23.5804   19.6113 C   0  0  0  0  0  0  0  0  0  0  0  0
  -27.6415  -23.3522   19.0620 C   0  0  0  0  0  0  0  0  0  0  0  0
  -32.1512  -13.7715   20.2934 C   0  0  0  0  0  0  0  0  0  0  0  0
  -30.4368  -15.9285   20.6863 C   0  0  0  0  0  0  0  0  0  0  0  0
  -25.6237  -18.4712   23.4926 C   0  0  0  0  0  0  0  0  0  0  0  0
  -18.5804  -23.3005   21.0171 C   0  0  0  0  0  0  0  0  0  0  0  0
  -21.7811  -27.6346   23.4225 C   0  0  0  0  0  0  0  0  0  0  0  0
  -21.2239  -28.5702   21.2658 C   0  0  0  0  0  0  0  0  0  0  0  0
  -30.1056  -22.1920   19.6660 C   0  0  0  0  0  0  0  0  0  0  0  0
  -27.7640  -21.9638   19.1167 C   0  0  0  0  0  0  0  0  0  0  0  0
  -24.8960  -19.6330   23.2388 C   0  0  0  0  0  0  0  0  0  0  0  0
  -28.9301  -19.4879   17.1342 C   0  0  0  0  0  0  0  0  0  0  0  0
  -28.3416  -18.7461   16.1100 C   0  0  0  0  0  0  0  0  0  0  0  0
  -23.2687  -18.3393   22.0152 C   0  0  0  0  0  0  0  0  0  0  0  0
  -26.9540  -17.6108   17.7295 C   0  0  0  0  0  0  0  0  0  0  0  0
  -20.1139  -26.5678   22.0372 C   0  0  0  0  0  0  0  0  0  0  0  0
  -28.7510  -24.1605   19.3094 C   0  0  0  0  0  0  0  0  0  0  0  0
  -19.1520  -25.5046   21.8246 C   0  0  0  0  0  0  0  0  0  0  0  0
  -28.8069  -26.4210   18.1284 C   0  0  0  0  0  0  0  0  0  0  0  0
  -30.8039  -13.6571   19.9162 C   0  0  0  0  0  0  0  0  0  0  0  0
  -25.1843  -17.2342   22.9995 C   0  0  0  0  0  0  0  0  0  0  0  0
  -29.9375  -14.7508   20.1046 C   0  0  0  0  0  0  0  0  0  0  0  0
  -23.9913  -17.1629   22.2663 C   0  0  0  0  0  0  0  0  0  0  0  0
  -21.9654  -28.6140   22.4465 C   0  0  0  0  0  0  0  0  0  0  0  0
  -19.5245  -24.3090   21.2101 C   0  0  0  0  0  0  0  0  0  0  0  0
  -28.9961  -21.3837   19.4187 C   0  0  0  0  0  0  0  0  0  0  0  0
  -23.7198  -19.5676   22.4976 C   0  0  0  0  0  0  0  0  0  0  0  0
  -28.5306  -19.2911   18.4561 C   0  0  0  0  0  0  0  0  0  0  0  0
  -27.3535  -17.8076   16.4076 C   0  0  0  0  0  0  0  0  0  0  0  0
  -27.5426  -18.3526   18.7538 C   0  0  0  0  0  0  0  0  0  0  0  0
  -28.6237  -25.5947   19.2533 C   0  0  0  0  0  0  0  0  0  0  0  0
  -28.5729  -27.6918   18.5941 C   0  0  0  0  0  0  0  0  0  0  0  0
  -29.1570  -26.0712   16.7827 C   0  0  0  0  0  0  0  0  0  0  0  0
  -26.3643  -15.0740   20.9883 C   0  0  0  0  0  0  0  0  0  0  0  0
  -23.7741  -13.3597   21.9234 C   0  0  0  0  0  0  0  0  0  0  0  0
  -20.6137  -13.3554   23.2114 C   0  0  0  0  0  0  0  0  0  0  0  0
  -25.3789  -29.8279   23.1861 C   0  0  0  0  0  0  0  0  0  0  0  0
  -30.3408  -12.3830   19.2551 C   0  0  0  0  0  0  0  0  0  0  0  0
  -25.9666  -15.9862   23.3046 C   0  0  0  0  0  0  0  0  0  0  0  0
  -23.4658  -15.8565   21.7318 C   0  0  0  0  0  0  0  0  0  0  0  0
  -28.8223  -12.2293   19.2254 C   0  0  0  0  0  0  0  0  0  0  0  0
  -28.8502  -30.3309   22.5752 C   0  0  0  0  0  0  0  0  0  0  0  0
  -28.1635  -13.5254   18.7641 C   0  0  0  0  0  0  0  0  0  0  0  0
  -29.2024  -29.2487   21.5531 C   0  0  0  0  0  0  0  0  0  0  0  0
  -27.8228  -29.8354   23.5905 C   0  0  0  0  0  0  0  0  0  0  0  0
  -26.9458  -28.1885   21.9804 C   0  0  0  0  0  0  0  0  0  0  0  0
  -28.4733  -14.6758   19.7296 C   0  0  1  0  0  0  0  0  0  0  0  0
  -25.6970  -14.8555   22.3167 C   0  0  1  0  0  0  0  0  0  0  0  0
  -27.9367  -28.6591   20.9021 C   0  0  2  0  0  0  0  0  0  0  0  0
  -18.7384  -11.8045   23.8242 C   0  0  0  0  0  0  0  0  0  0  0  0
  -23.0710  -13.0472   18.9708 C   0  0  0  0  0  0  0  0  0  0  0  0
  -20.7685  -12.3506   19.6646 C   0  0  0  0  0  0  0  0  0  0  0  0
  -22.7414  -10.9843   20.3457 C   0  0  0  0  0  0  0  0  0  0  0  0
  -20.7119  -14.1729   26.0541 C   0  0  0  0  0  0  0  0  0  0  0  0
  -22.9554  -29.7077   22.6652 C   0  0  0  0  0  0  0  0  0  0  0  0
  -20.9306  -24.0716   20.7439 C   0  0  0  0  0  0  0  0  0  0  0  0
  -23.0657  -22.8438   21.1597 C   0  0  0  0  0  0  0  0  0  0  0  0
  -23.7412  -21.9209   22.1547 C   0  0  0  0  0  0  0  0  0  1  0  0
  -22.3490  -13.2280   21.4431 C   0  0  1  0  0  0  0  0  0  0  0  0
  -19.9783  -12.5335   24.3183 C   0  0  2  0  0  0  0  0  0  0  0  0
  -22.2431  -12.4276   20.1143 C   0  0  0  0  0  0  0  0  0  0  0  0
  -28.2987  -26.2826   20.3510 N   0  0  0  0  0  0  0  0  0  0  0  0
  -28.2758  -27.5547   19.9182 N   0  0  0  0  0  0  0  0  0  0  0  0
  -24.2696  -14.6651   22.0513 N   0  0  0  0  0  0  0  0  0  0  0  0
  -26.6465  -29.2903   22.9084 N   0  0  0  0  0  0  0  0  0  0  0  0
  -28.5945  -28.9019   17.9961 N   0  0  0  0  0  0  0  0  0  0  0  0
  -29.3616  -24.7191   16.4756 N   0  0  0  0  0  0  0  0  0  0  0  0
  -27.6509  -14.5751   20.9161 N   0  0  0  0  0  0  0  0  0  0  0  0
  -21.5967  -12.6491   22.5509 N   0  0  0  0  0  0  0  0  0  0  0  0
  -24.3187  -29.2580   22.4918 N   0  0  0  0  0  0  0  0  0  0  0  0
  -19.5846  -13.4127   25.4555 N   0  3  0  0  0  0  0  0  0  0  0  0
  -21.6894  -23.1457   21.6276 N   0  3  0  0  0  0  0  0  0  0  0  0
  -29.3008  -26.9337   15.8833 O   0  0  0  0  0  0  0  0  0  0  0  0
  -25.7563  -15.6510   20.0944 O   0  0  0  0  0  0  0  0  0  0  0  0
  -24.4214  -12.3422   22.1827 O   0  0  0  0  0  0  0  0  0  0  0  0
  -20.2698  -14.5072   22.9557 O   0  0  0  0  0  0  0  0  0  0  0  0
  -25.2055  -30.7511   23.9889 O   0  0  0  0  0  0  0  0  0  0  0  0
  -29.1153  -20.0289   19.4717 O   0  0  0  0  0  0  0  0  0  0  0  0
  -23.0080  -20.7002   22.2479 O   0  0  0  0  0  0  0  0  0  1  0  0
  -26.7874  -17.0964   15.4238 F   0  0  0  0  0  0  0  0  0  0  0  0
  -27.1538  -18.1600   20.0217 F   0  0  0  0  0  0  0  0  0  0  0  0
  1  4  1  0  0  0  0
  1  5  2  0  0  0  0
  2  3  1  0  0  0  0
  2 10  2  0  0  0  0
  3 11  2  0  0  0  0
  4 13  2  0  0  0  0
  5 25  1  0  0  0  0
  6 14  2  0  0  0  0
  6 23  1  0  0  0  0
  7 15  1  0  0  0  0
  7 23  2  0  0  0  0
  8 16  2  0  0  0  0
  8 24  1  0  0  0  0
  9 17  1  0  0  0  0
  9 24  2  0  0  0  0
 10 27  1  0  0  0  0
 11 29  1  0  0  0  0
 12 18  2  0  0  0  0
 12 28  1  0  0  0  0
 13 32  1  0  0  0  0
 14 31  1  0  0  0  0
 15 31  2  0  0  0  0
 16 33  1  0  0  0  0
 17 33  2  0  0  0  0
 18 34  1  0  0  0  0
 19 20  2  0  0  0  0
 19 35  1  0  0  0  0
 20 36  1  0  0  0  0
 21 30  1  0  0  0  0
 21 34  2  0  0  0  0
 22 36  2  0  0  0  0
 22 37  1  0  0  0  0
 23 25  1  0  0  0  0
 24 38  1  0  0  0  0
 25 32  2  0  0  0  0
 26 38  1  0  0  0  0
 26 39  2  0  0  0  0
 26 40  1  0  0  0  0
 27 29  2  0  0  0  0
 27 45  1  0  0  0  0
 28 30  2  0  0  0  0
 28 46  1  0  0  0  0
 29 54  1  0  0  0  0
 30 47  1  0  0  0  0
 31 62  1  0  0  0  0
 32 63  1  0  0  0  0
 33 85  1  0  0  0  0
 34 86  1  0  0  0  0
 35 37  2  0  0  0  0
 35 85  1  0  0  0  0
 36 87  1  0  0  0  0
 37 88  1  0  0  0  0
 38 69  2  0  0  0  0
 39 70  1  0  0  0  0
 39 73  1  0  0  0  0
 40 74  1  0  0  0  0
 40 80  2  0  0  0  0
 41 55  1  0  0  0  0
 41 75  1  0  0  0  0
 41 81  2  0  0  0  0
 42 66  1  0  0  0  0
 42 71  1  0  0  0  0
 42 82  2  0  0  0  0
 43 67  1  0  0  0  0
 43 76  1  0  0  0  0
 43 83  2  0  0  0  0
 44 72  1  0  0  0  0
 44 77  1  0  0  0  0
 44 84  2  0  0  0  0
 45 48  1  0  0  0  0
 46 55  1  0  0  0  0
 47 71  1  0  0  0  0
 48 50  1  0  0  0  0
 49 51  1  0  0  0  0
 49 52  1  0  0  0  0
 50 54  1  0  0  0  0
 51 56  1  0  0  0  0
 52 72  1  0  0  0  0
 53 56  1  0  0  0  0
 53 72  1  0  0  0  0
 54 75  1  0  0  0  0
 55 71  1  0  0  0  0
 56 70  1  0  0  0  0
 57 67  1  0  0  0  0
 58 68  1  0  0  0  0
 59 68  1  0  0  0  0
 60 68  1  0  0  0  0
 61 78  1  0  0  0  0
 62 77  1  0  0  0  0
 63 79  1  0  0  0  0
 64 65  1  0  0  0  0
 64 79  1  0  0  0  0
 65 86  1  0  0  0  0
 66 68  1  0  0  0  0
 66 76  1  0  0  0  0
 67 78  1  0  0  0  0
 69 70  1  0  0  0  0
M  CHG  2  78   1  79   1
M  ISO  4  44 100  65 101  77 100  86 101
M  END
> <Batch ID>
0006

> <Smiles>
CNC(C)C(=O)NC(C(=O)N1Cc2cc([101O:1][101CH2:1]CNCc3ccccc3-c3ccc(C[100NH:0][100C:0](=O)N4CCCC(n5nc(-c6ccc(Oc7ccc(F)cc7F)cc6)c(C(N)=O)c5N)C4)cc3)ccc2CC1C(=O)NC1CCCc2ccccc21)C(C)(C)C

> <Shape>
0.248

> <Color>
0.058

> <Negative vol penalty>
0.000

$$$$

  -OEChem-04042320293D

 99109  0     1  0  0  0  0  0999 V2000
  -28.0678  -34.3377   26.2964 C   0  0  0  0  0  0  0  0  0  0  0  0
  -27.5792  -33.0375   26.3759 C   0  0  0  0  0  0  0  0  0  0  0  0
  -23.0686   -9.8523   19.9638 C   0  0  0  0  0  0  0  0  0  0  0  0
  -23.8118   -9.8968   22.2622 C   0  0  0  0  0  0  0  0  0  0  0  0
  -28.1691  -34.9685   25.0572 C   0  0  0  0  0  0  0  0  0  0  0  0
  -27.1905  -32.3679   25.2162 C   0  0  0  0  0  0  0  0  0  0  0  0
  -28.8909  -27.6002   25.0634 C   0  0  0  0  0  0  0  0  0  0  0  0
  -30.6686  -19.8222   21.3557 C   0  0  0  0  0  0  0  0  0  0  0  0
  -29.7537  -19.2658   22.2494 C   0  0  0  0  0  0  0  0  0  0  0  0
  -25.0289  -19.4052   21.4517 C   0  0  0  0  0  0  0  0  0  0  0  0
  -26.1412  -18.6647   21.8621 C   0  0  0  0  0  0  0  0  0  0  0  0
  -22.3144   -8.7095   20.2298 C   0  0  0  0  0  0  0  0  0  0  0  0
  -23.0576   -8.7540   22.5282 C   0  0  0  0  0  0  0  0  0  0  0  0
  -28.2082  -26.6559   25.8288 C   0  0  0  0  0  0  0  0  0  0  0  0
  -19.8193   -7.9911   23.1216 C   0  0  0  0  0  0  0  0  0  0  0  0
  -19.0536   -7.9786   24.2873 C   0  0  0  0  0  0  0  0  0  0  0  0
  -24.9620  -20.5885   23.5712 C   0  0  0  0  0  0  0  0  0  0  0  0
  -27.0385  -25.9106   23.8551 C   0  0  0  0  0  0  0  0  0  0  0  0
  -31.2007  -17.6161   20.5268 C   0  0  0  0  0  0  0  0  0  0  0  0
  -20.2752   -6.0464   25.0691 C   0  0  0  0  0  0  0  0  0  0  0  0
  -26.0828  -19.8540   24.0070 C   0  0  0  0  0  0  0  0  0  0  0  0
  -23.8174  -10.4460   20.9800 C   0  0  0  0  0  0  0  0  0  0  0  0
  -24.1787  -12.9659   20.8153 C   0  0  0  0  0  0  0  0  0  0  0  0
  -27.7905  -34.3028   23.8807 C   0  0  0  0  0  0  0  0  0  0  0  0
  -28.6442  -27.7144   23.6877 C   0  0  0  0  0  0  0  0  0  0  0  0
  -27.2856  -32.9909   23.9602 C   0  0  0  0  0  0  0  0  0  0  0  0
  -27.7213  -26.8555   23.0740 C   0  0  0  0  0  0  0  0  0  0  0  0
  -24.4468  -20.3527   22.2914 C   0  0  0  0  0  0  0  0  0  0  0  0
  -31.3921  -18.9974   20.4943 C   0  0  0  0  0  0  0  0  0  0  0  0
  -29.5623  -17.8845   22.2819 C   0  0  0  0  0  0  0  0  0  0  0  0
  -26.8480  -19.8314   25.2064 C   0  0  0  0  0  0  0  0  0  0  0  0
  -26.6453  -18.9110   23.1441 C   0  0  0  0  0  0  0  0  0  0  0  0
  -30.2858  -17.0596   21.4206 C   0  0  0  0  0  0  0  0  0  0  0  0
  -22.3089   -8.1603   21.5120 C   0  0  0  0  0  0  0  0  0  0  0  0
  -27.2797  -25.8129   25.2253 C   0  0  0  0  0  0  0  0  0  0  0  0
  -20.8130   -7.0311   22.9295 C   0  0  0  0  0  0  0  0  0  0  0  0
  -19.2815   -7.0063   25.2611 C   0  0  0  0  0  0  0  0  0  0  0  0
  -21.0409   -6.0588   23.9033 C   0  0  0  0  0  0  0  0  0  0  0  0
  -24.5971  -11.6262   20.7058 C   0  0  0  0  0  0  0  0  0  0  0  0
  -27.8417  -18.8925   25.0516 C   0  0  0  0  0  0  0  0  0  0  0  0
  -25.2790  -13.7005   20.4462 C   0  0  0  0  0  0  0  0  0  0  0  0
  -22.9091  -13.4987   21.2151 C   0  0  0  0  0  0  0  0  0  0  0  0
  -27.5301  -30.0093   21.7915 C   0  0  0  0  0  0  0  0  0  0  0  0
  -28.3071  -27.9095   19.4444 C   0  0  0  0  0  0  0  0  0  0  0  0
  -28.8700  -24.6720   18.5231 C   0  0  0  0  0  0  0  0  0  0  0  0
  -30.7514  -14.7094   20.6419 C   0  0  0  0  0  0  0  0  0  0  0  0
  -27.8737  -35.0427   22.5691 C   0  0  0  0  0  0  0  0  0  0  0  0
  -29.4084  -28.7202   22.8712 C   0  0  0  0  0  0  0  0  0  0  0  0
  -27.4349  -26.9240   21.5969 C   0  0  0  0  0  0  0  0  0  0  0  0
  -27.7926  -34.1296   21.3485 C   0  0  0  0  0  0  0  0  0  0  0  0
  -29.6364  -12.2598   18.3110 C   0  0  0  0  0  0  0  0  0  0  0  0
  -26.6523  -33.1286   21.5055 C   0  0  0  0  0  0  0  0  0  0  0  0
  -28.1916  -11.9868   18.7353 C   0  0  0  0  0  0  0  0  0  0  0  0
  -30.5444  -12.5044   19.5150 C   0  0  0  0  0  0  0  0  0  0  0  0
  -28.6329  -13.2685   20.8682 C   0  0  0  0  0  0  0  0  0  0  0  0
  -26.8772  -32.2226   22.7221 C   0  0  1  0  0  0  0  0  0  0  0  0
  -28.7024  -29.0955   21.5720 C   0  0  1  0  0  0  0  0  0  0  0  0
  -27.6674  -13.0802   19.6866 C   0  0  2  0  0  0  0  0  0  0  0  0
  -28.9067  -18.4708   25.9866 C   0  0  0  0  0  0  0  0  0  0  0  0
  -23.5372  -22.6391   21.7449 C   0  0  0  0  0  0  0  0  0  0  0  0
  -22.0109  -20.8672   22.6861 C   0  0  0  0  0  0  0  0  0  0  0  0
  -29.4496  -23.2638   16.5285 C   0  0  0  0  0  0  0  0  0  0  0  0
  -25.4482  -28.1927   18.4167 C   0  0  0  0  0  0  0  0  0  0  0  0
  -25.8011  -26.1133   17.0677 C   0  0  0  0  0  0  0  0  0  0  0  0
  -27.1977  -28.1335   16.6306 C   0  0  0  0  0  0  0  0  0  0  0  0
  -31.3727  -23.7153   19.7802 C   0  0  0  0  0  0  0  0  0  0  0  0
  -34.7585  -19.9979   18.9613 C   0  0  0  0  0  0  0  0  0  0  0  0
  -34.0576  -19.8773   21.3477 C   0  0  0  0  0  0  0  0  0  0  0  0
  -28.5694  -17.3120   23.2571 C   0  0  0  0  0  0  0  0  0  0  0  0
  -32.3700  -19.5933   19.5388 C   0  0  0  0  0  0  0  0  0  0  0  0
  -26.6143  -20.6789   26.4223 C   0  0  0  0  0  0  0  0  0  0  0  0
  -26.7747  -22.9689   27.4064 C   0  0  0  0  0  0  0  0  0  0  0  0
  -27.2871  -24.3649   27.1119 C   0  0  0  0  0  0  0  0  0  1  0  0
  -23.2594  -21.1265   21.8227 C   0  0  0  0  0  0  0  0  0  0  0  0
  -27.5903  -26.7868   18.7340 C   0  0  1  0  0  0  0  0  0  0  0  0
  -29.9910  -24.0325   17.7238 C   0  0  2  0  0  0  0  0  0  0  0  0
  -26.5131  -27.3063   17.7405 C   0  0  0  0  0  0  0  0  0  0  0  0
  -25.8642  -11.5133   20.2988 N   0  0  0  0  0  0  0  0  0  0  0  0
  -27.7114  -18.3428   23.8044 N   0  0  0  0  0  0  0  0  0  0  0  0
  -26.2515  -12.7915   20.1493 N   0  0  0  0  0  0  0  0  0  0  0  0
  -28.2030  -27.9281   20.8424 N   0  0  0  0  0  0  0  0  0  0  0  0
  -29.9867  -13.5556   20.3687 N   0  0  0  0  0  0  0  0  0  0  0  0
  -25.4998  -15.0288   20.3499 N   0  0  0  0  0  0  0  0  0  0  0  0
  -21.8880  -12.6034   21.5618 N   0  0  0  0  0  0  0  0  0  0  0  0
  -30.1049  -15.6544   21.4381 N   0  0  0  0  0  0  0  0  0  0  0  0
  -27.8532  -31.1988   22.4163 N   0  0  0  0  0  0  0  0  0  0  0  0
  -28.6269  -25.9668   18.1163 N   0  0  0  0  0  0  0  0  0  0  0  0
  -30.7636  -23.0880   18.5792 N   0  3  0  0  0  0  0  0  0  0  0  0
  -27.0478  -22.0906   26.2410 N   0  3  0  0  0  0  0  0  0  0  0  0
  -33.7888  -19.3956   19.9452 N   0  3  0  0  0  0  0  0  0  0  0  0
  -22.6815  -14.7318   21.2476 O   0  0  0  0  0  0  0  0  0  0  0  0
  -26.4152  -29.6618   21.4201 O   0  0  0  0  0  0  0  0  0  0  0  0
  -28.9422  -28.7352   18.7837 O   0  0  0  0  0  0  0  0  0  0  0  0
  -28.2676  -24.0806   19.4164 O   0  0  0  0  0  0  0  0  0  0  0  0
  -31.8850  -14.8612   20.1796 O   0  0  0  0  0  0  0  0  0  0  0  0
  -21.5729   -7.0453   21.7719 O   0  0  0  0  0  0  0  0  0  0  0  0
  -26.6115  -24.8907   25.9702 O   0  0  0  0  0  0  0  0  0  1  0  0
  -18.5471   -6.9954   26.3813 F   0  0  0  0  0  0  0  0  0  0  0  0
  -21.9949   -5.1348   23.7249 F   0  0  0  0  0  0  0  0  0  0  0  0
  1  2  1  0  0  0  0
  1  5  2  0  0  0  0
  2  6  2  0  0  0  0
  3 12  2  0  0  0  0
  3 22  1  0  0  0  0
  4 13  1  0  0  0  0
  4 22  2  0  0  0  0
  5 24  1  0  0  0  0
  6 26  1  0  0  0  0
  7 14  2  0  0  0  0
  7 25  1  0  0  0  0
  8  9  2  0  0  0  0
  8 29  1  0  0  0  0
  9 30  1  0  0  0  0
 10 11  2  0  0  0  0
 10 28  1  0  0  0  0
 11 32  1  0  0  0  0
 12 34  1  0  0  0  0
 13 34  2  0  0  0  0
 14 35  1  0  0  0  0
 15 16  2  0  0  0  0
 15 36  1  0  0  0  0
 16 37  1  0  0  0  0
 17 21  1  0  0  0  0
 17 28  2  0  0  0  0
 18 27  1  0  0  0  0
 18 35  2  0  0  0  0
 19 29  2  0  0  0  0
 19 33  1  0  0  0  0
 20 37  2  0  0  0  0
 20 38  1  0  0  0  0
 21 31  1  0  0  0  0
 21 32  2  0  0  0  0
 22 39  1  0  0  0  0
 23 39  1  0  0  0  0
 23 41  2  0  0  0  0
 23 42  1  0  0  0  0
 24 26  2  0  0  0  0
 24 47  1  0  0  0  0
 25 27  2  0  0  0  0
 25 48  1  0  0  0  0
 26 56  1  0  0  0  0
 27 49  1  0  0  0  0
 28 74  1  0  0  0  0
 29 70  1  0  0  0  0
 30 33  2  0  0  0  0
 30 69  1  0  0  0  0
 31 40  2  0  0  0  0
 31 71  1  0  0  0  0
 32 79  1  0  0  0  0
 33 85  1  0  0  0  0
 34 96  1  0  0  0  0
 35 97  1  0  0  0  0
 36 38  2  0  0  0  0
 36 96  1  0  0  0  0
 37 98  1  0  0  0  0
 38 99  1  0  0  0  0
 39 78  2  0  0  0  0
 40 59  1  0  0  0  0
 40 79  1  0  0  0  0
 41 80  1  0  0  0  0
 41 83  1  0  0  0  0
 42 84  1  0  0  0  0
 42 91  2  0  0  0  0
 43 57  1  0  0  0  0
 43 86  1  0  0  0  0
 43 92  2  0  0  0  0
 44 75  1  0  0  0  0
 44 81  1  0  0  0  0
 44 93  2  0  0  0  0
 45 76  1  0  0  0  0
 45 87  1  0  0  0  0
 45 94  2  0  0  0  0
 46 82  1  0  0  0  0
 46 85  1  0  0  0  0
 46 95  2  0  0  0  0
 47 50  1  0  0  0  0
 48 57  1  0  0  0  0
 49 81  1  0  0  0  0
 50 52  1  0  0  0  0
 51 53  1  0  0  0  0
 51 54  1  0  0  0  0
 52 56  1  0  0  0  0
 53 58  1  0  0  0  0
 54 82  1  0  0  0  0
 55 58  1  0  0  0  0
 55 82  1  0  0  0  0
 56 86  1  0  0  0  0
 57 81  1  0  0  0  0
 58 80  1  0  0  0  0
 60 74  1  0  0  0  0
 61 74  1  0  0  0  0
 62 76  1  0  0  0  0
 63 77  1  0  0  0  0
 64 77  1  0  0  0  0
 65 77  1  0  0  0  0
 66 88  1  0  0  0  0
 67 90  1  0  0  0  0
 68 90  1  0  0  0  0
 69 79  1  0  0  0  0
 70 90  1  0  0  0  0
 71 89  1  0  0  0  0
 72 73  1  0  0  0  0
 72 89  1  0  0  0  0
 73 97  1  0  0  0  0
 75 77  1  0  0  0  0
 75 87  1  0  0  0  0
 76 88  1  0  0  0  0
 78 80  1  0  0  0  0
M  CHG  3  88   1  89   1  90   1
M  ISO  4  46 100  73 101  85 100  97 101
M  END
> <Batch ID>
0006

> <Smiles>
CNC(C)C(=O)NC(C(=O)N1Cc2cc([101O:1][101CH2:1]CNCc3c(C)n(Cc4ccc(CN(C)C)cc4[100NH:0][100C:0](=O)N4CCCC(n5nc(-c6ccc(Oc7ccc(F)cc7F)cc6)c(C(N)=O)c5N)C4)c4ccc(C(C)C)cc34)ccc2CC1C(=O)NC1CCCc2ccccc21)C(C)(C)C

> <Shape>
0.282

> <Color>
0.175

> <Negative vol penalty>
0.000

$$$$

  -OEChem-04042320293D

 84 92  0     1  0  0  0  0  0999 V2000
  -30.3500  -35.4422   23.4543 C   0  0  0  0  0  0  0  0  0  0  0  0
  -30.4049  -34.2323   22.7698 C   0  0  0  0  0  0  0  0  0  0  0  0
  -23.9315   -9.2882   20.3859 C   0  0  0  0  0  0  0  0  0  0  0  0
  -22.9099  -11.1412   21.5520 C   0  0  0  0  0  0  0  0  0  0  0  0
  -29.4171  -35.6227   24.4746 C   0  0  0  0  0  0  0  0  0  0  0  0
  -29.5277  -33.2018   23.1059 C   0  0  0  0  0  0  0  0  0  0  0  0
  -27.0232  -29.1103   19.2990 C   0  0  0  0  0  0  0  0  0  0  0  0
  -29.0232  -20.9248   19.5280 C   0  0  0  0  0  0  0  0  0  0  0  0
  -29.1401  -19.5409   19.6576 C   0  0  0  0  0  0  0  0  0  0  0  0
  -23.1397   -8.3964   21.1092 C   0  0  0  0  0  0  0  0  0  0  0  0
  -22.1180  -10.2494   22.2753 C   0  0  0  0  0  0  0  0  0  0  0  0
  -27.3575  -27.7936   18.9852 C   0  0  0  0  0  0  0  0  0  0  0  0
  -23.1200   -7.0240   24.1980 C   0  0  0  0  0  0  0  0  0  0  0  0
  -23.7392   -5.8928   24.7294 C   0  0  0  0  0  0  0  0  0  0  0  0
  -25.7471  -27.0063   20.5995 C   0  0  0  0  0  0  0  0  0  0  0  0
  -27.0929  -20.6286   18.1056 C   0  0  0  0  0  0  0  0  0  0  0  0
  -22.2647   -4.4794   23.4390 C   0  0  0  0  0  0  0  0  0  0  0  0
  -23.8167  -10.6606   20.6073 C   0  0  0  0  0  0  0  0  0  0  0  0
  -24.3253  -12.1877   18.6282 C   0  0  0  0  0  0  0  0  0  0  0  0
  -28.5215  -34.5974   24.8169 C   0  0  0  0  0  0  0  0  0  0  0  0
  -26.0544  -29.3854   20.2749 C   0  0  0  0  0  0  0  0  0  0  0  0
  -28.5828  -33.3684   24.1327 C   0  0  0  0  0  0  0  0  0  0  0  0
  -25.4004  -28.3273   20.9220 C   0  0  0  0  0  0  0  0  0  0  0  0
  -27.2098  -19.2446   18.2352 C   0  0  0  0  0  0  0  0  0  0  0  0
  -27.9996  -21.4686   18.7520 C   0  0  0  0  0  0  0  0  0  0  0  0
  -28.2334  -18.7008   19.0112 C   0  0  0  0  0  0  0  0  0  0  0  0
  -22.2329   -8.8770   22.0539 C   0  0  0  0  0  0  0  0  0  0  0  0
  -26.7215  -26.7415   19.6375 C   0  0  0  0  0  0  0  0  0  0  0  0
  -22.0731   -6.8830   23.2870 C   0  0  0  0  0  0  0  0  0  0  0  0
  -23.3116   -4.6205   24.3499 C   0  0  0  0  0  0  0  0  0  0  0  0
  -21.6455   -5.6107   22.9075 C   0  0  0  0  0  0  0  0  0  0  0  0
  -24.6349  -11.5823   19.8608 C   0  0  0  0  0  0  0  0  0  0  0  0
  -25.4186  -12.9695   18.3454 C   0  0  0  0  0  0  0  0  0  0  0  0
  -23.1542  -12.0552   17.8117 C   0  0  0  0  0  0  0  0  0  0  0  0
  -26.0555  -30.8889   23.0754 C   0  0  0  0  0  0  0  0  0  0  0  0
  -22.8565  -30.3772   22.9107 C   0  0  0  0  0  0  0  0  0  0  0  0
  -20.2793  -28.5284   21.6511 C   0  0  0  0  0  0  0  0  0  0  0  0
  -29.3327  -16.6137   19.8955 C   0  0  0  0  0  0  0  0  0  0  0  0
  -27.5622  -34.8226   25.9587 C   0  0  0  0  0  0  0  0  0  0  0  0
  -25.6860  -30.8108   20.5828 C   0  0  0  0  0  0  0  0  0  0  0  0
  -24.3389  -28.5691   21.9628 C   0  0  0  0  0  0  0  0  0  0  0  0
  -26.4184  -33.8126   26.0015 C   0  0  0  0  0  0  0  0  0  0  0  0
  -29.9785  -13.1709   20.5336 C   0  0  0  0  0  0  0  0  0  0  0  0
  -26.9506  -32.3951   25.8163 C   0  0  0  0  0  0  0  0  0  0  0  0
  -28.6204  -12.5005   20.3141 C   0  0  0  0  0  0  0  0  0  0  0  0
  -29.8337  -14.5470   21.1811 C   0  0  0  0  0  0  0  0  0  0  0  0
  -27.5563  -14.7925   20.2741 C   0  0  0  0  0  0  0  0  0  0  0  0
  -27.6315  -32.2355   24.4516 C   0  0  1  0  0  0  0  0  0  0  0  0
  -25.0526  -30.9801   21.9603 C   0  0  1  0  0  0  0  0  0  0  0  0
  -27.6470  -13.4315   19.5649 C   0  0  2  0  0  0  0  0  0  0  0  0
  -17.7792  -28.3256   21.7270 C   0  0  0  0  0  0  0  0  0  0  0  0
  -23.0474  -29.0864   25.6688 C   0  0  0  0  0  0  0  0  0  0  0  0
  -20.7877  -28.0816   25.2781 C   0  0  0  0  0  0  0  0  0  0  0  0
  -21.0540  -30.5610   25.3428 C   0  0  0  0  0  0  0  0  0  0  0  0
  -20.0337  -29.0391   18.7463 C   0  0  0  0  0  0  0  0  0  0  0  0
  -28.7768  -23.7850   19.2580 C   0  0  0  0  0  0  0  0  0  0  0  0
  -28.3833  -25.2083   18.9000 C   0  0  0  0  0  0  0  0  0  1  0  0
  -21.9266  -29.2723   23.3504 C   0  0  1  0  0  0  0  0  0  0  0  0
  -18.9687  -28.9373   21.0033 C   0  0  2  0  0  0  0  0  0  0  0  0
  -26.2236  -18.3687   17.5328 C   0  0  0  0  0  0  0  0  0  0  0  0
  -21.7253  -29.2455   24.8919 C   0  0  0  0  0  0  0  0  0  0  0  0
  -25.8312  -11.9480   20.3289 N   0  0  0  0  0  0  0  0  0  0  0  0
  -26.2830  -12.7915   19.3853 N   0  0  0  0  0  0  0  0  0  0  0  0
  -24.0182  -29.9802   22.2334 N   0  0  0  0  0  0  0  0  0  0  0  0
  -28.9000  -15.3752   20.4147 N   0  0  0  0  0  0  0  0  0  0  0  0
  -25.7153  -13.7849   17.3112 N   0  0  0  0  0  0  0  0  0  0  0  0
  -22.1255  -11.2107   18.2510 N   0  0  0  0  0  0  0  0  0  0  0  0
  -28.3680  -17.2978   19.1566 N   0  0  0  0  0  0  0  0  0  0  0  0
  -27.8833  -22.8428   18.6239 N   0  0  0  0  0  0  0  0  0  0  0  0
  -26.6409  -32.0962   23.4057 N   0  0  0  0  0  0  0  0  0  0  0  0
  -20.6942  -29.4492   22.5898 N   0  0  0  0  0  0  0  0  0  0  0  0
  -18.9330  -28.4930   19.5813 N   0  3  0  0  0  0  0  0  0  0  0  0
  -23.0308  -12.6549   16.7169 O   0  0  0  0  0  0  0  0  0  0  0  0
  -26.2804  -29.8038   23.5985 O   0  0  0  0  0  0  0  0  0  0  0  0
  -22.5596  -31.5498   23.1527 O   0  0  0  0  0  0  0  0  0  0  0  0
  -20.8735  -27.4936   21.3566 O   0  0  0  0  0  0  0  0  0  0  0  0
  -30.4832  -17.0238   20.0689 O   0  0  0  0  0  0  0  0  0  0  0  0
  -21.4599   -8.0070   22.7597 O   0  0  0  0  0  0  0  0  0  0  0  0
  -27.0464  -25.4554   19.3336 O   0  0  0  0  0  0  0  0  0  1  0  0
  -23.9074   -3.5342   24.8592 F   0  0  0  0  0  0  0  0  0  0  0  0
  -20.6410   -5.4689   22.0319 F   0  0  0  0  0  0  0  0  0  0  0  0
  -25.2894  -19.0630   16.8201 F   0  0  0  0  0  0  0  0  0  0  0  0
  -26.7969  -17.5146   16.6360 F   0  0  0  0  0  0  0  0  0  0  0  0
  -25.5190  -17.5805   18.3942 F   0  0  0  0  0  0  0  0  0  0  0  0
  1  2  1  0  0  0  0
  1  5  2  0  0  0  0
  2  6  2  0  0  0  0
  3 10  2  0  0  0  0
  3 18  1  0  0  0  0
  4 11  1  0  0  0  0
  4 18  2  0  0  0  0
  5 20  1  0  0  0  0
  6 22  1  0  0  0  0
  7 12  2  0  0  0  0
  7 21  1  0  0  0  0
  8  9  2  0  0  0  0
  8 25  1  0  0  0  0
  9 26  1  0  0  0  0
 10 27  1  0  0  0  0
 11 27  2  0  0  0  0
 12 28  1  0  0  0  0
 13 14  2  0  0  0  0
 13 29  1  0  0  0  0
 14 30  1  0  0  0  0
 15 23  1  0  0  0  0
 15 28  2  0  0  0  0
 16 24  1  0  0  0  0
 16 25  2  0  0  0  0
 17 30  2  0  0  0  0
 17 31  1  0  0  0  0
 18 32  1  0  0  0  0
 19 32  1  0  0  0  0
 19 33  2  0  0  0  0
 19 34  1  0  0  0  0
 20 22  2  0  0  0  0
 20 39  1  0  0  0  0
 21 23  2  0  0  0  0
 21 40  1  0  0  0  0
 22 48  1  0  0  0  0
 23 41  1  0  0  0  0
 24 26  2  0  0  0  0
 24 60  1  0  0  0  0
 25 69  1  0  0  0  0
 26 68  1  0  0  0  0
 27 78  1  0  0  0  0
 28 79  1  0  0  0  0
 29 31  2  0  0  0  0
 29 78  1  0  0  0  0
 30 80  1  0  0  0  0
 31 81  1  0  0  0  0
 32 62  2  0  0  0  0
 33 63  1  0  0  0  0
 33 66  1  0  0  0  0
 34 67  1  0  0  0  0
 34 73  2  0  0  0  0
 35 49  1  0  0  0  0
 35 70  1  0  0  0  0
 35 74  2  0  0  0  0
 36 58  1  0  0  0  0
 36 64  1  0  0  0  0
 36 75  2  0  0  0  0
 37 59  1  0  0  0  0
 37 71  1  0  0  0  0
 37 76  2  0  0  0  0
 38 65  1  0  0  0  0
 38 68  1  0  0  0  0
 38 77  2  0  0  0  0
 39 42  1  0  0  0  0
 40 49  1  0  0  0  0
 41 64  1  0  0  0  0
 42 44  1  0  0  0  0
 43 45  1  0  0  0  0
 43 46  1  0  0  0  0
 44 48  1  0  0  0  0
 45 50  1  0  0  0  0
 46 65  1  0  0  0  0
 47 50  1  0  0  0  0
 47 65  1  0  0  0  0
 48 70  1  0  0  0  0
 49 64  1  0  0  0  0
 50 63  1  0  0  0  0
 51 59  1  0  0  0  0
 52 61  1  0  0  0  0
 53 61  1  0  0  0  0
 54 61  1  0  0  0  0
 55 72  1  0  0  0  0
 56 57  1  0  0  0  0
 56 69  1  0  0  0  0
 57 79  1  0  0  0  0
 58 61  1  0  0  0  0
 58 71  1  0  0  0  0
 59 72  1  0  0  0  0
 60 82  1  0  0  0  0
 60 83  1  0  0  0  0
 60 84  1  0  0  0  0
 62 63  1  0  0  0  0
M  CHG  1  72   1
M  ISO  4  38 100  57 101  68 100  79 101
M  END
> <Batch ID>
0006

> <Smiles>
CNC(C)C(=O)NC(C(=O)N1Cc2cc([101O:1][101CH2:1]CNc3ccc([100NH:0][100C:0](=O)N4CCCC(n5nc(-c6ccc(Oc7ccc(F)cc7F)cc6)c(C(N)=O)c5N)C4)c(C(F)(F)F)c3)ccc2CC1C(=O)NC1CCCc2ccccc21)C(C)(C)C

> <Shape>
0.298

> <Color>
0.100

> <Negative vol penalty>
0.000

$$$$

  -OEChem-04042320293D

 87 96  0     1  0  0  0  0  0999 V2000
  -16.8311  -27.8013   26.3883 C   0  0  0  0  0  0  0  0  0  0  0  0
  -18.1045  -27.2491   26.2944 C   0  0  0  0  0  0  0  0  0  0  0  0
  -25.3101  -13.7616   23.2035 C   0  0  0  0  0  0  0  0  0  0  0  0
  -25.7557  -14.8598   21.0981 C   0  0  0  0  0  0  0  0  0  0  0  0
  -16.4298  -28.7832   25.4834 C   0  0  0  0  0  0  0  0  0  0  0  0
  -18.9771  -27.6777   25.2947 C   0  0  0  0  0  0  0  0  0  0  0  0
  -25.9519  -28.7329   24.0479 C   0  0  0  0  0  0  0  0  0  0  0  0
  -25.3049  -12.5254   22.5576 C   0  0  0  0  0  0  0  0  0  0  0  0
  -25.7506  -13.6235   20.4522 C   0  0  0  0  0  0  0  0  0  0  0  0
  -26.9437  -28.4001   23.1263 C   0  0  0  0  0  0  0  0  0  0  0  0
  -24.8177   -9.1118   21.4027 C   0  0  0  0  0  0  0  0  0  0  0  0
  -23.7973   -8.2160   21.7217 C   0  0  0  0  0  0  0  0  0  0  0  0
  -26.1701  -30.1588   21.6677 C   0  0  0  0  0  0  0  0  0  0  0  0
  -22.1541   -9.8206   20.9718 C   0  0  0  0  0  0  0  0  0  0  0  0
  -25.5354  -14.9289   22.4737 C   0  0  0  0  0  0  0  0  0  0  0  0
  -26.3946  -16.6193   24.1802 C   0  0  0  0  0  0  0  0  0  0  0  0
  -17.3013  -29.2309   24.4781 C   0  0  0  0  0  0  0  0  0  0  0  0
  -25.0534  -29.7759   23.7809 C   0  0  0  0  0  0  0  0  0  0  0  0
  -18.5866  -28.6655   24.3746 C   0  0  0  0  0  0  0  0  0  0  0  0
  -25.1695  -30.5046   22.5886 C   0  0  0  0  0  0  0  0  0  0  0  0
  -25.5252  -12.4563   21.1819 C   0  0  0  0  0  0  0  0  0  0  0  0
  -27.0511  -29.1112   21.9347 C   0  0  0  0  0  0  0  0  0  0  0  0
  -24.5063  -10.3621   20.8683 C   0  0  0  0  0  0  0  0  0  0  0  0
  -22.4655   -8.5703   21.5062 C   0  0  0  0  0  0  0  0  0  0  0  0
  -23.1745  -10.7164   20.6528 C   0  0  0  0  0  0  0  0  0  0  0  0
  -25.5403  -16.2063   23.1403 C   0  0  0  0  0  0  0  0  0  0  0  0
  -25.9973  -17.9037   24.4613 C   0  0  0  0  0  0  0  0  0  0  0  0
  -27.4528  -15.9058   24.8335 C   0  0  0  0  0  0  0  0  0  0  0  0
  -21.9026  -29.9840   23.4162 C   0  0  0  0  0  0  0  0  0  0  0  0
  -22.5177  -33.1669   23.3020 C   0  0  0  0  0  0  0  0  0  0  0  0
  -30.2877  -25.6594   18.5207 C   0  0  0  0  0  0  0  0  0  0  0  0
  -24.7579  -35.6641   22.6756 C   0  0  0  0  0  0  0  0  0  0  0  0
  -23.2318  -22.1164   21.2277 C   0  0  0  0  0  0  0  0  0  0  0  0
  -16.8060  -30.2605   23.4935 C   0  0  0  0  0  0  0  0  0  0  0  0
  -24.0060  -30.1399   24.7972 C   0  0  0  0  0  0  0  0  0  0  0  0
  -24.2424  -31.6462   22.2635 C   0  0  0  0  0  0  0  0  0  0  0  0
  -17.9236  -30.9274   22.6957 C   0  0  0  0  0  0  0  0  0  0  0  0
  -22.1513  -20.7466   24.3314 C   0  0  0  0  0  0  0  0  0  0  0  0
  -24.6960  -24.0575   17.2503 C   0  0  0  0  0  0  0  0  0  0  0  0
  -18.9003  -29.8813   22.1680 C   0  0  0  0  0  0  0  0  0  0  0  0
  -22.9744  -19.4649   24.4719 C   0  0  0  0  0  0  0  0  0  0  0  0
  -27.1266  -23.3784   20.6881 C   0  0  0  0  0  0  0  0  0  0  0  0
  -24.1490  -22.9896   18.2036 C   0  0  0  0  0  0  0  0  0  0  0  0
  -28.4535  -23.9301   20.1648 C   0  0  0  0  0  0  0  0  0  0  0  0
  -21.7561  -21.0072   22.8795 C   0  0  0  0  0  0  0  0  0  0  0  0
  -26.2297  -24.0757   17.2145 C   0  0  0  0  0  0  0  0  0  0  0  0
  -23.7026  -19.7342   22.0644 C   0  0  0  0  0  0  0  0  0  0  0  0
  -19.5706  -29.1219   23.3194 C   0  0  1  0  0  0  0  0  0  0  0  0
  -22.8203  -30.8855   24.1926 C   0  0  1  0  0  0  0  0  0  0  0  0
  -24.1722  -19.4587   23.5031 C   0  0  2  0  0  0  0  0  0  0  0  0
  -26.3287  -23.1019   19.4250 C   0  0  1  0  0  0  0  0  0  0  0  0
  -24.8084  -23.0953   19.5850 C   0  0  2  0  0  0  0  0  0  0  0  0
  -28.2077  -24.2665   18.6846 C   0  0  2  0  0  0  0  0  0  0  0  0
  -24.9584  -38.1652   22.6312 C   0  0  0  0  0  0  0  0  0  0  0  0
  -20.9927  -33.2398   20.6602 C   0  0  0  0  0  0  0  0  0  0  0  0
  -22.0203  -35.4778   20.2090 C   0  0  0  0  0  0  0  0  0  0  0  0
  -20.5302  -35.1671   22.1853 C   0  0  0  0  0  0  0  0  0  0  0  0
  -26.8532  -35.6493   24.7657 C   0  0  0  0  0  0  0  0  0  0  0  0
  -28.5136  -28.0570   18.7926 C   0  0  0  0  0  0  0  0  0  0  0  0
  -27.7296  -29.0246   19.6569 C   0  0  0  0  0  0  0  0  0  1  0  0
  -22.8463  -34.1537   22.2078 C   0  0  1  0  0  0  0  0  0  0  0  0
  -28.7883  -25.6225   18.3059 C   0  0  1  0  0  0  0  0  0  0  0  0
  -25.1294  -36.9057   23.4662 C   0  0  2  0  0  0  0  0  0  0  0  0
  -21.6138  -34.4869   21.3205 C   0  0  0  0  0  0  0  0  0  0  0  0
  -24.6660  -17.1516   22.7850 N   0  0  0  0  0  0  0  0  0  0  0  0
  -24.9689  -18.1713   23.6063 N   0  0  0  0  0  0  0  0  0  0  0  0
  -23.2308  -31.9598   23.2862 N   0  0  0  0  0  0  0  0  0  0  0  0
  -22.9374  -20.9899   22.0134 N   0  0  0  0  0  0  0  0  0  0  0  0
  -26.7470  -24.2236   18.5724 N   0  0  1  0  0  0  0  0  0  0  0  0
  -26.4306  -18.8189   25.3541 N   0  0  0  0  0  0  0  0  0  0  0  0
  -28.7484  -16.0034   24.3079 N   0  0  0  0  0  0  0  0  0  0  0  0
  -31.0016  -25.3297   17.3889 N   0  0  0  0  0  0  0  0  0  0  0  0
  -20.6153  -29.9269   23.9152 N   0  0  0  0  0  0  0  0  0  0  0  0
  -23.4385  -35.3124   22.8674 N   0  0  0  0  0  0  0  0  0  0  0  0
  -24.3727  -22.0192   20.4405 N   0  0  0  0  0  0  0  0  0  0  0  0
  -26.5484  -36.8285   23.9151 N   0  3  0  0  0  0  0  0  0  0  0  0
  -28.1193  -26.6652   19.1328 N   0  3  0  0  0  0  0  0  0  0  0  0
  -27.2524  -15.1894   25.8435 O   0  0  0  0  0  0  0  0  0  0  0  0
  -22.3303  -29.3857   22.4360 O   0  0  0  0  0  0  0  0  0  0  0  0
  -21.6650  -33.4593   24.1440 O   0  0  0  0  0  0  0  0  0  0  0  0
  -30.8114  -25.9544   19.5920 O   0  0  0  0  0  0  0  0  0  0  0  0
  -25.5570  -35.0683   21.9568 O   0  0  0  0  0  0  0  0  0  0  0  0
  -22.5329  -23.1354   21.2318 O   0  0  0  0  0  0  0  0  0  0  0  0
  -25.5205  -11.2501   20.5514 O   0  0  0  0  0  0  0  0  0  0  0  0
  -28.0248  -28.7856   21.0267 O   0  0  0  0  0  0  0  0  0  1  0  0
  -21.4858   -7.7093   21.8112 F   0  0  0  0  0  0  0  0  0  0  0  0
  -22.8693  -11.9157   20.1386 F   0  0  0  0  0  0  0  0  0  0  0  0
  1  2  1  0  0  0  0
  1  5  2  0  0  0  0
  2  6  2  0  0  0  0
  3  8  2  0  0  0  0
  3 15  1  0  0  0  0
  4  9  1  0  0  0  0
  4 15  2  0  0  0  0
  5 17  1  0  0  0  0
  6 19  1  0  0  0  0
  7 10  2  0  0  0  0
  7 18  1  0  0  0  0
  8 21  1  0  0  0  0
  9 21  2  0  0  0  0
 10 22  1  0  0  0  0
 11 12  2  0  0  0  0
 11 23  1  0  0  0  0
 12 24  1  0  0  0  0
 13 20  1  0  0  0  0
 13 22  2  0  0  0  0
 14 24  2  0  0  0  0
 14 25  1  0  0  0  0
 15 26  1  0  0  0  0
 16 26  1  0  0  0  0
 16 27  2  0  0  0  0
 16 28  1  0  0  0  0
 17 19  2  0  0  0  0
 17 34  1  0  0  0  0
 18 20  2  0  0  0  0
 18 35  1  0  0  0  0
 19 48  1  0  0  0  0
 20 36  1  0  0  0  0
 21 84  1  0  0  0  0
 22 85  1  0  0  0  0
 23 25  2  0  0  0  0
 23 84  1  0  0  0  0
 24 86  1  0  0  0  0
 25 87  1  0  0  0  0
 26 65  2  0  0  0  0
 27 66  1  0  0  0  0
 27 70  1  0  0  0  0
 28 71  1  0  0  0  0
 28 78  2  0  0  0  0
 29 49  1  0  0  0  0
 29 73  1  0  0  0  0
 29 79  2  0  0  0  0
 30 61  1  0  0  0  0
 30 67  1  0  0  0  0
 30 80  2  0  0  0  0
 31 62  1  0  0  0  0
 31 72  1  0  0  0  0
 31 81  2  0  0  0  0
 32 63  1  0  0  0  0
 32 74  1  0  0  0  0
 32 82  2  0  0  0  0
 33 68  1  0  0  0  0
 33 75  1  0  0  0  0
 33 83  2  0  0  0  0
 34 37  1  0  0  0  0
 35 49  1  0  0  0  0
 36 67  1  0  0  0  0
 37 40  1  0  0  0  0
 38 41  1  0  0  0  0
 38 45  1  0  0  0  0
 39 43  1  0  0  0  0
 39 46  1  0  0  0  0
 40 48  1  0  0  0  0
 41 50  1  0  0  0  0
 42 44  1  0  0  0  0
 42 51  1  0  0  0  0
 43 52  1  0  0  0  0
 44 53  1  0  0  0  0
 45 68  1  0  0  0  0
 46 69  1  0  0  0  0
 47 50  1  0  0  0  0
 47 68  1  0  0  0  0
 48 73  1  0  0  0  0
 49 67  1  0  0  0  0
 50 66  1  0  0  0  0
 51 52  1  0  0  0  0
 51 69  1  0  0  0  0
 52 75  1  0  0  0  0
 53 62  1  0  0  0  0
 53 69  1  0  0  0  0
 54 63  1  0  0  0  0
 55 64  1  0  0  0  0
 56 64  1  0  0  0  0
 57 64  1  0  0  0  0
 58 76  1  0  0  0  0
 59 60  1  0  0  0  0
 59 77  1  0  0  0  0
 60 85  1  0  0  0  0
 61 64  1  0  0  0  0
 61 74  1  0  0  0  0
 62 77  1  0  0  0  0
 63 76  1  0  0  0  0
 65 66  1  0  0  0  0
M  CHG  2  76   1  77   1
M  ISO  4  33 100  60 101  75 100  85 101
M  END
> <Batch ID>
0006

> <Smiles>
CNC(C)C(=O)NC(C(=O)N1Cc2cc([101O:1][101CH2:1]CNC(C(N)=O)C3CCC4C([100NH:0][100C:0](=O)N5CCCC(n6nc(-c7ccc(Oc8ccc(F)cc8F)cc7)c(C(N)=O)c6N)C5)CCCN43)ccc2CC1C(=O)NC1CCCc2ccccc21)C(C)(C)C

> <Shape>
0.217

> <Color>
0.092

> <Negative vol penalty>
0.000

$$$$

  -OEChem-04042320293D

 92102  0     1  0  0  0  0  0999 V2000
  -24.0715  -20.4397   18.6539 C   0  0  0  0  0  0  0  0  0  0  0  0
  -24.3658  -21.7832   18.4446 C   0  0  0  0  0  0  0  0  0  0  0  0
  -20.5854  -29.8649   14.9839 C   0  0  0  0  0  0  0  0  0  0  0  0
  -21.9021  -29.6276   15.3652 C   0  0  0  0  0  0  0  0  0  0  0  0
  -25.0581  -19.5755   19.1290 C   0  0  0  0  0  0  0  0  0  0  0  0
  -25.6475  -22.2658   18.7099 C   0  0  0  0  0  0  0  0  0  0  0  0
  -23.4801  -11.1626   24.1618 C   0  0  0  0  0  0  0  0  0  0  0  0
  -23.4733  -13.2379   25.3988 C   0  0  0  0  0  0  0  0  0  0  0  0
  -19.8476  -30.8655   15.6151 C   0  0  0  0  0  0  0  0  0  0  0  0
  -22.4822  -30.3915   16.3773 C   0  0  0  0  0  0  0  0  0  0  0  0
  -25.0838  -27.5770   19.6871 C   0  0  0  0  0  0  0  0  0  0  0  0
  -31.2347  -20.6276   20.6869 C   0  0  0  0  0  0  0  0  0  0  0  0
  -30.9403  -19.2842   20.8964 C   0  0  0  0  0  0  0  0  0  0  0  0
  -22.7386  -10.5559   25.1755 C   0  0  0  0  0  0  0  0  0  0  0  0
  -22.7318  -12.6313   26.4125 C   0  0  0  0  0  0  0  0  0  0  0  0
  -26.3506  -27.1442   19.2976 C   0  0  0  0  0  0  0  0  0  0  0  0
  -21.1455  -11.5326   29.4925 C   0  0  0  0  0  0  0  0  0  0  0  0
  -21.5368  -11.7664   30.8107 C   0  0  0  0  0  0  0  0  0  0  0  0
  -27.3582  -19.1878   19.8801 C   0  0  0  0  0  0  0  0  0  0  0  0
  -27.3479  -28.9213   20.5885 C   0  0  0  0  0  0  0  0  0  0  0  0
  -23.6981  -10.7939   30.3416 C   0  0  0  0  0  0  0  0  0  0  0  0
  -26.3537  -20.0453   19.4013 C   0  0  0  0  0  0  0  0  0  0  0  0
  -26.6525  -21.4090   19.1888 C   0  0  0  0  0  0  0  0  0  0  0  0
  -28.6537  -19.6584   20.1521 C   0  0  0  0  0  0  0  0  0  0  0  0
  -28.9525  -21.0221   19.9396 C   0  0  0  0  0  0  0  0  0  0  0  0
  -23.8475  -12.5037   24.2734 C   0  0  0  0  0  0  0  0  0  0  0  0
  -24.1160  -13.8039   22.0951 C   0  0  0  0  0  0  0  0  0  0  0  0
  -20.4159  -31.6356   16.6421 C   0  0  0  0  0  0  0  0  0  0  0  0
  -24.9388  -28.6936   20.5229 C   0  0  0  0  0  0  0  0  0  0  0  0
  -21.7518  -31.4042   17.0219 C   0  0  0  0  0  0  0  0  0  0  0  0
  -26.0783  -29.3646   20.9893 C   0  0  0  0  0  0  0  0  0  0  0  0
  -30.2481  -21.4919   20.2117 C   0  0  0  0  0  0  0  0  0  0  0  0
  -27.9480  -21.8796   19.4607 C   0  0  0  0  0  0  0  0  0  0  0  0
  -29.6587  -18.8015   20.6310 C   0  0  0  0  0  0  0  0  0  0  0  0
  -22.3644  -11.2902   26.3009 C   0  0  0  0  0  0  0  0  0  0  0  0
  -27.4828  -27.8182   19.7460 C   0  0  0  0  0  0  0  0  0  0  0  0
  -22.0304  -10.9293   28.5988 C   0  0  0  0  0  0  0  0  0  0  0  0
  -22.8131  -11.3970   31.2353 C   0  0  0  0  0  0  0  0  0  0  0  0
  -23.3067  -10.5600   29.0233 C   0  0  0  0  0  0  0  0  0  0  0  0
  -24.6140  -13.1308   23.2268 C   0  0  0  0  0  0  0  0  0  0  0  0
  -25.2384  -14.2127   21.4172 C   0  0  0  0  0  0  0  0  0  0  0  0
  -31.2417  -25.7258   21.0112 C   0  0  0  0  0  0  0  0  0  0  0  0
  -30.8398  -26.5855   20.0637 C   0  0  0  0  0  0  0  0  0  0  0  0
  -22.7600  -14.0388   21.6927 C   0  0  0  0  0  0  0  0  0  0  0  0
  -23.5694  -31.5477   20.2357 C   0  0  0  0  0  0  0  0  0  0  0  0
  -24.3508  -31.8059   23.3734 C   0  0  0  0  0  0  0  0  0  0  0  0
  -26.3588  -30.8178   25.9499 C   0  0  0  0  0  0  0  0  0  0  0  0
  -30.3249  -16.4763   21.3351 C   0  0  0  0  0  0  0  0  0  0  0  0
  -19.5942  -32.7377   17.2626 C   0  0  0  0  0  0  0  0  0  0  0  0
  -23.5665  -29.1316   20.9556 C   0  0  0  0  0  0  0  0  0  0  0  0
  -25.9776  -30.5566   21.9044 C   0  0  0  0  0  0  0  0  0  0  0  0
  -20.1626  -33.2517   18.5828 C   0  0  0  0  0  0  0  0  0  0  0  0
  -30.1086  -13.0005   22.0762 C   0  0  0  0  0  0  0  0  0  0  0  0
  -21.6634  -33.4953   18.4592 C   0  0  0  0  0  0  0  0  0  0  0  0
  -28.6188  -12.7799   22.3485 C   0  0  0  0  0  0  0  0  0  0  0  0
  -30.5866  -14.3535   22.6002 C   0  0  0  0  0  0  0  0  0  0  0  0
  -28.3148  -15.2880   22.4135 C   0  0  0  0  0  0  0  0  0  0  0  0
  -22.4082  -32.1952   18.1326 C   0  0  1  0  0  0  0  0  0  0  0  0
  -23.5158  -30.5919   21.3939 C   0  0  1  0  0  0  0  0  0  0  0  0
  -27.7724  -13.9660   21.8461 C   0  0  2  0  0  0  0  0  0  0  0  0
  -28.2133  -23.3407   19.2170 C   0  0  0  0  0  0  0  0  0  0  0  0
  -26.7826  -31.2331   28.3882 C   0  0  0  0  0  0  0  0  0  0  0  0
  -25.7436  -34.4311   22.6817 C   0  0  0  0  0  0  0  0  0  0  0  0
  -26.9233  -34.3055   24.8864 C   0  0  0  0  0  0  0  0  0  0  0  0
  -24.4356  -34.4741   24.8128 C   0  0  0  0  0  0  0  0  0  0  0  0
  -25.7405  -28.0106   26.6545 C   0  0  0  0  0  0  0  0  0  0  0  0
  -30.7041  -22.9100   20.0328 C   0  0  0  0  0  0  0  0  0  0  0  0
  -32.2900  -24.6832   20.7940 C   0  0  0  0  0  0  0  0  0  0  0  0
  -29.7925  -27.6284   20.2801 C   0  0  0  0  0  0  0  0  0  1  0  0
  -25.5515  -32.3081   24.1383 C   0  0  1  0  0  0  0  0  0  0  0  0
  -26.0371  -30.3855   27.3691 C   0  0  2  0  0  0  0  0  0  0  0  0
  -25.6656  -33.8584   24.1110 C   0  0  0  0  0  0  0  0  0  0  0  0
  -25.9488  -13.1106   23.2689 N   0  0  0  0  0  0  0  0  0  0  0  0
  -26.2992  -13.7762   22.1551 N   0  0  0  0  0  0  0  0  0  0  0  0
  -24.6136  -30.9502   22.2943 N   0  0  0  0  0  0  0  0  0  0  0  0
  -29.7406  -15.4296   22.0793 N   0  0  0  0  0  0  0  0  0  0  0  0
  -25.4117  -14.8992   20.2678 N   0  0  0  0  0  0  0  0  0  0  0  0
  -21.7278  -13.5503   22.5052 N   0  0  0  0  0  0  0  0  0  0  0  0
  -29.4178  -17.4248   20.8638 N   0  0  0  0  0  0  0  0  0  0  0  0
  -22.5476  -31.3805   19.3206 N   0  0  0  0  0  0  0  0  0  0  0  0
  -25.4487  -31.7400   25.4782 N   0  0  0  0  0  0  0  0  0  0  0  0
  -26.4180  -28.9595   27.5751 N   0  3  0  0  0  0  0  0  0  0  0  0
  -31.7771  -23.3017   20.9854 N   0  3  0  0  0  0  0  0  0  0  0  0
  -22.4724  -14.6492   20.6353 O   0  0  0  0  0  0  0  0  0  0  0  0
  -24.4702  -32.3765   20.1775 O   0  0  0  0  0  0  0  0  0  0  0  0
  -23.2208  -32.1542   23.7250 O   0  0  0  0  0  0  0  0  0  0  0  0
  -27.3233  -30.3837   25.3238 O   0  0  0  0  0  0  0  0  0  0  0  0
  -31.5369  -16.5130   21.1078 O   0  0  0  0  0  0  0  0  0  0  0  0
  -21.6407  -10.6986   27.2902 O   0  0  0  0  0  0  0  0  0  0  0  0
  -28.7204  -27.3983   19.3668 O   0  0  0  0  0  0  0  0  0  1  0  0
  -23.1894  -11.6230   32.5008 F   0  0  0  0  0  0  0  0  0  0  0  0
  -24.1617   -9.9812   28.1690 F   0  0  0  0  0  0  0  0  0  0  0  0
  1  2  1  0  0  0  0
  1  5  2  0  0  0  0
  2  6  2  0  0  0  0
  3  4  1  0  0  0  0
  3  9  2  0  0  0  0
  4 10  2  0  0  0  0
  5 22  1  0  0  0  0
  6 23  1  0  0  0  0
  7 14  2  0  0  0  0
  7 26  1  0  0  0  0
  8 15  1  0  0  0  0
  8 26  2  0  0  0  0
  9 28  1  0  0  0  0
 10 30  1  0  0  0  0
 11 16  2  0  0  0  0
 11 29  1  0  0  0  0
 12 13  2  0  0  0  0
 12 32  1  0  0  0  0
 13 34  1  0  0  0  0
 14 35  1  0  0  0  0
 15 35  2  0  0  0  0
 16 36  1  0  0  0  0
 17 18  2  0  0  0  0
 17 37  1  0  0  0  0
 18 38  1  0  0  0  0
 19 22  2  0  0  0  0
 19 24  1  0  0  0  0
 20 31  1  0  0  0  0
 20 36  2  0  0  0  0
 21 38  2  0  0  0  0
 21 39  1  0  0  0  0
 22 23  1  0  0  0  0
 23 33  2  0  0  0  0
 24 25  1  0  0  0  0
 24 34  2  0  0  0  0
 25 32  2  0  0  0  0
 25 33  1  0  0  0  0
 26 40  1  0  0  0  0
 27 40  1  0  0  0  0
 27 41  2  0  0  0  0
 27 44  1  0  0  0  0
 28 30  2  0  0  0  0
 28 49  1  0  0  0  0
 29 31  2  0  0  0  0
 29 50  1  0  0  0  0
 30 58  1  0  0  0  0
 31 51  1  0  0  0  0
 32 67  1  0  0  0  0
 33 61  1  0  0  0  0
 34 79  1  0  0  0  0
 35 89  1  0  0  0  0
 36 90  1  0  0  0  0
 37 39  2  0  0  0  0
 37 89  1  0  0  0  0
 38 91  1  0  0  0  0
 39 92  1  0  0  0  0
 40 73  2  0  0  0  0
 41 74  1  0  0  0  0
 41 77  1  0  0  0  0
 42 43  2  0  0  0  0
 42 68  1  0  0  0  0
 43 69  1  0  0  0  0
 44 78  1  0  0  0  0
 44 84  2  0  0  0  0
 45 59  1  0  0  0  0
 45 80  1  0  0  0  0
 45 85  2  0  0  0  0
 46 70  1  0  0  0  0
 46 75  1  0  0  0  0
 46 86  2  0  0  0  0
 47 71  1  0  0  0  0
 47 81  1  0  0  0  0
 47 87  2  0  0  0  0
 48 76  1  0  0  0  0
 48 79  1  0  0  0  0
 48 88  2  0  0  0  0
 49 52  1  0  0  0  0
 50 59  1  0  0  0  0
 51 75  1  0  0  0  0
 52 54  1  0  0  0  0
 53 55  1  0  0  0  0
 53 56  1  0  0  0  0
 54 58  1  0  0  0  0
 55 60  1  0  0  0  0
 56 76  1  0  0  0  0
 57 60  1  0  0  0  0
 57 76  1  0  0  0  0
 58 80  1  0  0  0  0
 59 75  1  0  0  0  0
 60 74  1  0  0  0  0
 62 71  1  0  0  0  0
 63 72  1  0  0  0  0
 64 72  1  0  0  0  0
 65 72  1  0  0  0  0
 66 82  1  0  0  0  0
 67 83  1  0  0  0  0
 68 83  1  0  0  0  0
 69 90  1  0  0  0  0
 70 72  1  0  0  0  0
 70 81  1  0  0  0  0
 71 82  1  0  0  0  0
 73 74  1  0  0  0  0
M  CHG  2  82   1  83   1
M  ISO  4  48 100  69 101  79 100  90 101
M  END
> <Batch ID>
0006

> <Smiles>
CNC(C)C(=O)NC(C(=O)N1Cc2cc([101O:1][101CH2:1]C=CCNCc3ccc([100NH:0][100C:0](=O)N4CCCC(n5nc(-c6ccc(Oc7ccc(F)cc7F)cc6)c(C(N)=O)c5N)C4)c4cc5ccccc5c(C)c34)ccc2CC1C(=O)NC1CCCc2ccccc21)C(C)(C)C

> <Shape>
0.256

> <Color>
0.123

> <Negative vol penalty>
0.000

$$$$

  -OEChem-04042320293D

 85 94  0     1  0  0  0  0  0999 V2000
  -27.9599  -24.1873   13.0138 C   0  0  0  0  0  0  0  0  0  0  0  0
  -28.0357  -24.4622   14.1800 C   0  0  0  0  0  0  0  0  0  0  0  0
  -17.0647  -25.2925   24.9204 C   0  0  0  0  0  0  0  0  0  0  0  0
  -17.7780  -24.3782   24.1517 C   0  0  0  0  0  0  0  0  0  0  0  0
  -28.6062  -20.2921   16.1359 C   0  0  0  0  0  0  0  0  0  0  0  0
  -26.4547  -13.9122   19.9523 C   0  0  0  0  0  0  0  0  0  0  0  0
  -25.1830  -13.8257   22.0047 C   0  0  0  0  0  0  0  0  0  0  0  0
  -17.1831  -26.6581   24.6656 C   0  0  0  0  0  0  0  0  0  0  0  0
  -18.6093  -24.8291   23.1270 C   0  0  0  0  0  0  0  0  0  0  0  0
  -29.3999  -20.1499   17.2747 C   0  0  0  0  0  0  0  0  0  0  0  0
  -24.7379  -23.2105   19.7897 C   0  0  0  0  0  0  0  0  0  0  0  0
  -27.9699  -21.5047   15.8736 C   0  0  0  0  0  0  0  0  0  0  0  0
  -26.3374  -12.5285   19.8212 C   0  0  0  0  0  0  0  0  0  0  0  0
  -25.0657  -12.4419   21.8736 C   0  0  0  0  0  0  0  0  0  0  0  0
  -25.2446  -23.0072   18.5069 C   0  0  0  0  0  0  0  0  0  0  0  0
  -23.1940  -10.2598   20.0972 C   0  0  0  0  0  0  0  0  0  0  0  0
  -21.9400   -9.6929   20.3243 C   0  0  0  0  0  0  0  0  0  0  0  0
  -25.4320  -25.3937   18.2092 C   0  0  0  0  0  0  0  0  0  0  0  0
  -22.8652   -8.3642   22.1175 C   0  0  0  0  0  0  0  0  0  0  0  0
  -25.8776  -14.5608   21.0441 C   0  0  0  0  0  0  0  0  0  0  0  0
  -28.9167  -22.4351   17.8904 C   0  0  0  0  0  0  0  0  0  0  0  0
  -25.1213  -16.9695   20.6781 C   0  0  0  0  0  0  0  0  0  0  0  0
  -29.5532  -21.2180   18.1657 C   0  0  0  0  0  0  0  0  0  0  0  0
  -18.0238  -27.1265   23.6436 C   0  0  0  0  0  0  0  0  0  0  0  0
  -24.5639  -24.5094   20.2887 C   0  0  0  0  0  0  0  0  0  0  0  0
  -18.7381  -26.2023   22.8575 C   0  0  0  0  0  0  0  0  0  0  0  0
  -24.9253  -25.6107   19.4997 C   0  0  0  0  0  0  0  0  0  0  0  0
  -28.1257  -22.5809   16.7469 C   0  0  0  0  0  0  0  0  0  0  0  0
  -25.6429  -11.7934   20.7819 C   0  0  0  0  0  0  0  0  0  0  0  0
  -25.5890  -24.0989   17.7153 C   0  0  0  0  0  0  0  0  0  0  0  0
  -24.2837   -9.8789   20.8803 C   0  0  0  0  0  0  0  0  0  0  0  0
  -21.7755   -8.7452   21.3344 C   0  0  0  0  0  0  0  0  0  0  0  0
  -24.1193   -8.9311   21.8904 C   0  0  0  0  0  0  0  0  0  0  0  0
  -25.9989  -15.9901   21.1804 C   0  0  0  0  0  0  0  0  0  0  0  0
  -25.6758  -18.1624   21.0730 C   0  0  0  0  0  0  0  0  0  0  0  0
  -29.1061  -23.5775   18.8178 C   0  0  0  0  0  0  0  0  0  0  0  0
  -23.9128  -16.8148   19.9223 C   0  0  0  0  0  0  0  0  0  0  0  0
  -22.0697  -26.2240   21.2598 C   0  0  0  0  0  0  0  0  0  0  0  0
  -24.3603  -28.3641   22.0935 C   0  0  0  0  0  0  0  0  0  0  0  0
  -27.5239  -29.5537   21.6205 C   0  0  0  0  0  0  0  0  0  0  0  0
  -29.9368  -21.5234   21.8166 C   0  0  0  0  0  0  0  0  0  0  0  0
  -18.0829  -28.6094   23.3747 C   0  0  0  0  0  0  0  0  0  0  0  0
  -24.0412  -24.7111   21.6846 C   0  0  0  0  0  0  0  0  0  0  0  0
  -30.4272  -21.0872   19.3761 C   0  0  0  0  0  0  0  0  0  0  0  0
  -24.7769  -27.0249   19.9963 C   0  0  0  0  0  0  0  0  0  0  0  0
  -29.7728  -23.3351   20.1595 C   0  0  0  0  0  0  0  0  0  0  0  0
  -19.2737  -29.0255   22.5149 C   0  0  0  0  0  0  0  0  0  0  0  0
  -29.4320  -19.1595   24.2994 C   0  0  0  0  0  0  0  0  0  0  0  0
  -19.4122  -28.0994   21.3108 C   0  0  0  0  0  0  0  0  0  0  0  0
  -28.4226  -18.1926   23.6809 C   0  0  0  0  0  0  0  0  0  0  0  0
  -30.4725  -19.5934   23.2730 C   0  0  0  0  0  0  0  0  0  0  0  0
  -28.8734  -19.2570   21.4162 C   0  0  0  0  0  0  0  0  0  0  0  0
  -19.6692  -26.6538   21.7533 C   0  0  1  0  0  0  0  0  0  0  0  0
  -23.4234  -26.0896   21.8979 C   0  0  1  0  0  0  0  0  0  0  0  0
  -27.7922  -18.7919   22.4117 C   0  0  1  0  0  0  0  0  0  0  0  0
  -29.0989  -31.3353   22.4222 C   0  0  0  0  0  0  0  0  0  0  0  0
  -22.8353  -30.4431   20.4619 C   0  0  0  0  0  0  0  0  0  0  0  0
  -24.8854  -31.8796   20.5060 C   0  0  0  0  0  0  0  0  0  0  0  0
  -23.7373  -31.2819   22.6384 C   0  0  0  0  0  0  0  0  0  0  0  0
  -29.4789  -27.5532   22.5874 C   0  0  0  0  0  0  0  0  0  0  0  0
  -28.1312  -24.8021   15.6016 C   0  0  0  0  0  0  0  0  0  0  0  0
  -25.0531  -29.5128   21.4010 C   0  0  1  0  0  0  0  0  0  0  0  0
  -28.6269  -29.9011   22.6039 C   0  0  2  0  0  0  0  0  0  0  0  0
  -24.1289  -30.7529   21.2414 C   0  0  0  0  0  0  0  0  0  0  0  0
  -27.0326  -16.5153   21.8436 N   0  0  0  0  0  0  0  0  0  0  0  0
  -26.8080  -17.8377   21.7607 N   0  0  0  0  0  0  0  0  0  0  0  0
  -24.2556  -27.1705   21.3655 N   0  0  0  0  0  0  0  0  0  0  0  0
  -29.9165  -21.9188   20.4690 N   0  0  0  0  0  0  0  0  0  0  0  0
  -29.8375  -20.1487   22.0780 N   0  0  0  0  0  0  0  0  0  0  0  0
  -25.3005  -19.4470   20.8955 N   0  0  0  0  0  0  0  0  0  0  0  0
  -23.4862  -15.5186   19.6024 N   0  0  0  0  0  0  0  0  0  0  0  0
  -21.0496  -26.4858   22.1543 N   0  0  0  0  0  0  0  0  0  0  0  0
  -26.2730  -29.7703   22.1587 N   0  0  0  0  0  0  0  0  0  0  0  0
  -27.4772  -23.7897   16.4092 N   0  0  1  0  0  0  0  0  0  1  0  0
  -29.7944  -28.9945   22.4142 N   0  3  0  0  0  0  0  0  0  0  0  0
  -28.7720  -24.7085   18.4733 O   0  0  0  0  0  0  0  0  0  0  0  0
  -23.2402  -17.7974   19.5278 O   0  0  0  0  0  0  0  0  0  0  0  0
  -21.9592  -26.1007   20.0455 O   0  0  0  0  0  0  0  0  0  0  0  0
  -23.9344  -28.5180   23.2409 O   0  0  0  0  0  0  0  0  0  0  0  0
  -27.7494  -29.1358   20.4869 O   0  0  0  0  0  0  0  0  0  0  0  0
  -30.0329  -22.3524   22.7304 O   0  0  0  0  0  0  0  0  0  0  0  0
  -25.5279  -10.4432   20.6541 O   0  0  0  0  0  0  0  0  0  0  0  0
  -26.0906  -23.9003   16.4437 O   0  0  0  0  0  0  0  0  0  1  0  0
  -20.5709   -8.2020   21.5533 F   0  0  0  0  0  0  0  0  0  0  0  0
  -25.1622   -8.5621   22.6467 F   0  0  0  0  0  0  0  0  0  0  0  0
  1  2  3  0  0  0  0
  2 61  1  0  0  0  0
  3  4  1  0  0  0  0
  3  8  2  0  0  0  0
  4  9  2  0  0  0  0
  5 10  1  0  0  0  0
  5 12  2  0  0  0  0
  6 13  2  0  0  0  0
  6 20  1  0  0  0  0
  7 14  1  0  0  0  0
  7 20  2  0  0  0  0
  8 24  1  0  0  0  0
  9 26  1  0  0  0  0
 10 23  2  0  0  0  0
 11 15  2  0  0  0  0
 11 25  1  0  0  0  0
 12 28  1  0  0  0  0
 13 29  1  0  0  0  0
 14 29  2  0  0  0  0
 15 30  1  0  0  0  0
 16 17  2  0  0  0  0
 16 31  1  0  0  0  0
 17 32  1  0  0  0  0
 18 27  1  0  0  0  0
 18 30  2  0  0  0  0
 19 32  2  0  0  0  0
 19 33  1  0  0  0  0
 20 34  1  0  0  0  0
 21 23  1  0  0  0  0
 21 28  2  0  0  0  0
 21 36  1  0  0  0  0
 22 34  1  0  0  0  0
 22 35  2  0  0  0  0
 22 37  1  0  0  0  0
 23 44  1  0  0  0  0
 24 26  2  0  0  0  0
 24 42  1  0  0  0  0
 25 27  2  0  0  0  0
 25 43  1  0  0  0  0
 26 53  1  0  0  0  0
 27 45  1  0  0  0  0
 28 74  1  0  0  0  0
 29 82  1  0  0  0  0
 30 83  1  0  0  0  0
 31 33  2  0  0  0  0
 31 82  1  0  0  0  0
 32 84  1  0  0  0  0
 33 85  1  0  0  0  0
 34 65  2  0  0  0  0
 35 66  1  0  0  0  0
 35 70  1  0  0  0  0
 36 46  1  0  0  0  0
 36 76  2  0  0  0  0
 37 71  1  0  0  0  0
 37 77  2  0  0  0  0
 38 54  1  0  0  0  0
 38 72  1  0  0  0  0
 38 78  2  0  0  0  0
 39 62  1  0  0  0  0
 39 67  1  0  0  0  0
 39 79  2  0  0  0  0
 40 63  1  0  0  0  0
 40 73  1  0  0  0  0
 40 80  2  0  0  0  0
 41 68  1  0  0  0  0
 41 69  1  0  0  0  0
 41 81  2  0  0  0  0
 42 47  1  0  0  0  0
 43 54  1  0  0  0  0
 44 68  1  0  0  0  0
 45 67  1  0  0  0  0
 46 68  1  0  0  0  0
 47 49  1  0  0  0  0
 48 50  1  0  0  0  0
 48 51  1  0  0  0  0
 49 53  1  0  0  0  0
 50 55  1  0  0  0  0
 51 69  1  0  0  0  0
 52 55  1  0  0  0  0
 52 69  1  0  0  0  0
 53 72  1  0  0  0  0
 54 67  1  0  0  0  0
 55 66  1  0  0  0  0
 56 63  1  0  0  0  0
 57 64  1  0  0  0  0
 58 64  1  0  0  0  0
 59 64  1  0  0  0  0
 60 75  1  0  0  0  0
 61 74  1  0  0  0  0
 62 64  1  0  0  0  0
 62 73  1  0  0  0  0
 63 75  1  0  0  0  0
 65 66  1  0  0  0  0
 74 83  1  0  0  0  0
M  CHG  1  75   1
M  ISO  4  41 100  68 100  74 101  83 101
M  END
> <Batch ID>
0006

> <Smiles>
C#CC[101N:1](c1cccc2c1C(=O)C[100N:0]([100C:0](=O)N1CCCC(n3nc(-c4ccc(Oc5ccc(F)cc5F)cc4)c(C(N)=O)c3N)C1)C2)[101O:1]c1ccc2c(c1)CN(C(=O)C(NC(=O)C(C)NC)C(C)(C)C)C(C(=O)NC1CCCc3ccccc31)C2

> <Shape>
0.231

> <Color>
0.063

> <Negative vol penalty>
0.000

$$$$

  -OEChem-04042320293D

 87 95  0     1  0  0  0  0  0999 V2000
  -17.6805  -26.3765   21.0491 C   0  0  0  0  0  0  0  0  0  0  0  0
  -18.7577  -25.8338   21.7422 C   0  0  0  0  0  0  0  0  0  0  0  0
  -23.1007   -9.7985   20.5996 C   0  0  0  0  0  0  0  0  0  0  0  0
  -23.8671  -10.2592   22.8440 C   0  0  0  0  0  0  0  0  0  0  0  0
  -17.8356  -27.5707   20.3463 C   0  0  0  0  0  0  0  0  0  0  0  0
  -19.9910  -26.4844   21.7321 C   0  0  0  0  0  0  0  0  0  0  0  0
  -24.0614  -26.7300   26.3013 C   0  0  0  0  0  0  0  0  0  0  0  0
  -30.8928  -20.8457   24.2449 C   0  0  0  0  0  0  0  0  0  0  0  0
  -22.3793   -8.7017   21.0710 C   0  0  0  0  0  0  0  0  0  0  0  0
  -23.1457   -9.1624   23.3155 C   0  0  0  0  0  0  0  0  0  0  0  0
  -25.2230  -26.0046   26.5628 C   0  0  0  0  0  0  0  0  0  0  0  0
  -30.2606  -21.8799   24.9350 C   0  0  0  0  0  0  0  0  0  0  0  0
  -19.9348   -8.4376   24.0808 C   0  0  0  0  0  0  0  0  0  0  0  0
  -19.1822   -8.6097   25.2425 C   0  0  0  0  0  0  0  0  0  0  0  0
  -26.5365  -27.7513   25.5416 C   0  0  0  0  0  0  0  0  0  0  0  0
  -29.5315  -21.3090   22.3035 C   0  0  0  0  0  0  0  0  0  0  0  0
  -20.4619   -6.8721   26.3290 C   0  0  0  0  0  0  0  0  0  0  0  0
  -23.8446  -10.5773   21.4861 C   0  0  0  0  0  0  0  0  0  0  0  0
  -24.1387  -13.0381   20.8815 C   0  0  0  0  0  0  0  0  0  0  0  0
  -19.0689  -28.2413   20.3355 C   0  0  0  0  0  0  0  0  0  0  0  0
  -24.1278  -27.9686   25.6472 C   0  0  0  0  0  0  0  0  0  0  0  0
  -20.1631  -27.6879   21.0275 C   0  0  0  0  0  0  0  0  0  0  0  0
  -25.3745  -28.4916   25.2753 C   0  0  0  0  0  0  0  0  0  0  0  0
  -30.5283  -20.5603   22.9290 C   0  0  0  0  0  0  0  0  0  0  0  0
  -28.8992  -22.3432   22.9937 C   0  0  0  0  0  0  0  0  0  0  0  0
  -22.4018   -8.3837   22.4289 C   0  0  0  0  0  0  0  0  0  0  0  0
  -26.4605  -26.5139   26.1803 C   0  0  0  0  0  0  0  0  0  0  0  0
  -29.2638  -22.6286   24.3095 C   0  0  0  0  0  0  0  0  0  0  0  0
  -20.9510   -7.4827   24.0432 C   0  0  0  0  0  0  0  0  0  0  0  0
  -19.4458   -7.8270   26.3666 C   0  0  0  0  0  0  0  0  0  0  0  0
  -21.2145   -6.7000   25.1672 C   0  0  0  0  0  0  0  0  0  0  0  0
  -24.5905  -11.7100   20.9997 C   0  0  0  0  0  0  0  0  0  0  0  0
  -25.2155  -13.7233   20.3741 C   0  0  0  0  0  0  0  0  0  0  0  0
  -22.8600  -13.6020   21.2019 C   0  0  0  0  0  0  0  0  0  0  0  0
  -23.0038  -29.1209   22.9063 C   0  0  0  0  0  0  0  0  0  0  0  0
  -30.7021  -14.8110   20.4356 C   0  0  0  0  0  0  0  0  0  0  0  0
  -24.1971  -31.9152   24.0420 C   0  0  0  0  0  0  0  0  0  0  0  0
  -26.4150  -33.4953   26.0989 C   0  0  0  0  0  0  0  0  0  0  0  0
  -19.2010  -29.5048   19.5227 C   0  0  0  0  0  0  0  0  0  0  0  0
  -22.8680  -28.7510   25.3964 C   0  0  0  0  0  0  0  0  0  0  0  0
  -25.5017  -29.8260   24.5885 C   0  0  0  0  0  0  0  0  0  0  0  0
  -20.4397  -30.3262   19.8708 C   0  0  0  0  0  0  0  0  0  0  0  0
  -29.5732  -12.0584   18.4384 C   0  0  0  0  0  0  0  0  0  0  0  0
  -21.6696  -29.4278   19.9554 C   0  0  0  0  0  0  0  0  0  0  0  0
  -28.1502  -11.8122   18.9381 C   0  0  0  0  0  0  0  0  0  0  0  0
  -30.4932  -12.5039   19.5707 C   0  0  0  0  0  0  0  0  0  0  0  0
  -28.5806  -13.4596   20.8158 C   0  0  0  0  0  0  0  0  0  0  0  0
  -21.5101  -28.3769   21.0607 C   0  0  1  0  0  0  0  0  0  0  0  0
  -23.0090  -29.7639   24.2643 C   0  0  1  0  0  0  0  0  0  0  0  0
  -27.6112  -13.0374   19.6975 C   0  0  2  0  0  0  0  0  0  0  0  0
  -27.1811  -35.7852   26.7822 C   0  0  0  0  0  0  0  0  0  0  0  0
  -25.7286  -32.1836   21.4166 C   0  0  0  0  0  0  0  0  0  0  0  0
  -27.1614  -33.9209   22.5107 C   0  0  0  0  0  0  0  0  0  0  0  0
  -24.7109  -34.3096   22.2527 C   0  0  0  0  0  0  0  0  0  0  0  0
  -25.6332  -33.0427   28.9172 C   0  0  0  0  0  0  0  0  0  0  0  0
  -31.2057  -19.4554   22.1912 C   0  0  0  0  0  0  0  0  0  0  0  0
  -30.0583  -15.9565   21.1755 C   0  0  0  0  0  0  0  0  0  0  0  0
  -31.0002  -17.1432   21.2692 C   0  0  0  0  0  0  0  0  0  0  0  0
  -28.6822  -25.9762   25.5241 C   0  0  0  0  0  0  0  0  0  1  0  0
  -29.4871  -24.6921   25.4705 C   0  0  0  0  0  0  0  0  0  0  0  0
  -25.5265  -32.6250   23.9525 C   0  0  1  0  0  0  0  0  0  0  0  0
  -26.2371  -34.6329   27.0882 C   0  0  2  0  0  0  0  0  0  0  0  0
  -27.8351  -23.1354   22.3082 C   0  0  0  0  0  0  0  0  0  0  0  0
  -25.7796  -33.2337   22.5443 C   0  0  0  0  0  0  0  0  0  0  0  0
  -25.8556  -11.5583   20.5993 N   0  0  0  0  0  0  0  0  0  0  0  0
  -26.2080  -12.7999   20.2246 N   0  0  0  0  0  0  0  0  0  0  0  0
  -24.2405  -30.5503   24.3597 N   0  0  0  0  0  0  0  0  0  0  0  0
  -29.9354  -13.6558   20.2815 N   0  0  0  0  0  0  0  0  0  0  0  0
  -25.4006  -15.0195   20.0456 N   0  0  0  0  0  0  0  0  0  0  0  0
  -21.8663  -12.7566   21.7140 N   0  0  0  0  0  0  0  0  0  0  0  0
  -21.7436  -28.9704   22.3599 N   0  0  0  0  0  0  0  0  0  0  0  0
  -25.5421  -33.6008   25.0368 N   0  0  0  0  0  0  0  0  0  0  0  0
  -26.5070  -34.1599   28.4755 N   0  3  0  0  0  0  0  0  0  0  0  0
  -30.3638  -18.2352   22.0510 N   0  3  0  0  0  0  0  0  0  0  0  0
  -22.6008  -14.8163   21.0236 O   0  0  0  0  0  0  0  0  0  0  0  0
  -24.0648  -28.7874   22.3917 O   0  0  0  0  0  0  0  0  0  0  0  0
  -31.8510  -14.9420   20.0055 O   0  0  0  0  0  0  0  0  0  0  0  0
  -23.1581  -32.5502   23.8446 O   0  0  0  0  0  0  0  0  0  0  0  0
  -27.2479  -32.6044   26.2511 O   0  0  0  0  0  0  0  0  0  0  0  0
  -21.6978   -7.3136   22.8893 O   0  0  0  0  0  0  0  0  0  0  0  0
  -27.5957  -25.8076   26.4337 O   0  0  0  0  0  0  0  0  0  1  0  0
  -28.6522  -23.6397   25.0029 O   0  0  0  0  0  0  0  0  0  0  0  0
  -18.7240   -7.9934   27.4826 F   0  0  0  0  0  0  0  0  0  0  0  0
  -22.1902   -5.7819   25.1375 F   0  0  0  0  0  0  0  0  0  0  0  0
  -27.5964  -22.7335   21.0255 F   0  0  0  0  0  0  0  0  0  0  0  0
  -26.6229  -23.0751   22.9333 F   0  0  0  0  0  0  0  0  0  0  0  0
  -28.1411  -24.4623   22.2267 F   0  0  0  0  0  0  0  0  0  0  0  0
  1  2  1  0  0  0  0
  1  5  2  0  0  0  0
  2  6  2  0  0  0  0
  3  9  2  0  0  0  0
  3 18  1  0  0  0  0
  4 10  1  0  0  0  0
  4 18  2  0  0  0  0
  5 20  1  0  0  0  0
  6 22  1  0  0  0  0
  7 11  2  0  0  0  0
  7 21  1  0  0  0  0
  8 12  2  0  0  0  0
  8 24  1  0  0  0  0
  9 26  1  0  0  0  0
 10 26  2  0  0  0  0
 11 27  1  0  0  0  0
 12 28  1  0  0  0  0
 13 14  2  0  0  0  0
 13 29  1  0  0  0  0
 14 30  1  0  0  0  0
 15 23  1  0  0  0  0
 15 27  2  0  0  0  0
 16 24  2  0  0  0  0
 16 25  1  0  0  0  0
 17 30  2  0  0  0  0
 17 31  1  0  0  0  0
 18 32  1  0  0  0  0
 19 32  1  0  0  0  0
 19 33  2  0  0  0  0
 19 34  1  0  0  0  0
 20 22  2  0  0  0  0
 20 39  1  0  0  0  0
 21 23  2  0  0  0  0
 21 40  1  0  0  0  0
 22 48  1  0  0  0  0
 23 41  1  0  0  0  0
 24 56  1  0  0  0  0
 25 28  2  0  0  0  0
 25 63  1  0  0  0  0
 26 80  1  0  0  0  0
 27 81  1  0  0  0  0
 28 82  1  0  0  0  0
 29 31  2  0  0  0  0
 29 80  1  0  0  0  0
 30 83  1  0  0  0  0
 31 84  1  0  0  0  0
 32 65  2  0  0  0  0
 33 66  1  0  0  0  0
 33 69  1  0  0  0  0
 34 70  1  0  0  0  0
 34 75  2  0  0  0  0
 35 49  1  0  0  0  0
 35 71  1  0  0  0  0
 35 76  2  0  0  0  0
 36 57  1  0  0  0  0
 36 68  1  0  0  0  0
 36 77  2  0  0  0  0
 37 61  1  0  0  0  0
 37 67  1  0  0  0  0
 37 78  2  0  0  0  0
 38 62  1  0  0  0  0
 38 72  1  0  0  0  0
 38 79  2  0  0  0  0
 39 42  1  0  0  0  0
 40 49  1  0  0  0  0
 41 67  1  0  0  0  0
 42 44  1  0  0  0  0
 43 45  1  0  0  0  0
 43 46  1  0  0  0  0
 44 48  1  0  0  0  0
 45 50  1  0  0  0  0
 46 68  1  0  0  0  0
 47 50  1  0  0  0  0
 47 68  1  0  0  0  0
 48 71  1  0  0  0  0
 49 67  1  0  0  0  0
 50 66  1  0  0  0  0
 51 62  1  0  0  0  0
 52 64  1  0  0  0  0
 53 64  1  0  0  0  0
 54 64  1  0  0  0  0
 55 73  1  0  0  0  0
 56 74  1  0  0  0  0
 57 58  1  0  0  0  0
 58 74  1  0  0  0  0
 59 60  1  0  0  0  0
 59 81  1  0  0  0  0
 60 82  1  0  0  0  0
 61 64  1  0  0  0  0
 61 72  1  0  0  0  0
 62 73  1  0  0  0  0
 63 85  1  0  0  0  0
 63 86  1  0  0  0  0
 63 87  1  0  0  0  0
 65 66  1  0  0  0  0
M  CHG  2  73   1  74   1
M  ISO  4  36 100  57 100  59 101  81 101
M  END
> <Batch ID>
0006

> <Smiles>
CNC(C)C(=O)NC(C(=O)N1Cc2cc([101O:1][101CH2:1]COc3ccc(CNC[100CH2:0][100C:0](=O)N4CCCC(n5nc(-c6ccc(Oc7ccc(F)cc7F)cc6)c(C(N)=O)c5N)C4)cc3C(F)(F)F)ccc2CC1C(=O)NC1CCCc2ccccc21)C(C)(C)C

> <Shape>
0.287

> <Color>
0.223

> <Negative vol penalty>
0.000

$$$$

  -OEChem-04042320293D

 95104  0     1  0  0  0  0  0999 V2000
  -23.1287  -30.1863   16.6828 C   0  0  0  0  0  0  0  0  0  0  0  0
  -22.6982  -29.0680   17.3895 C   0  0  0  0  0  0  0  0  0  0  0  0
  -25.8938  -13.3626   19.9790 C   0  0  0  0  0  0  0  0  0  0  0  0
  -25.1574  -14.6925   21.8568 C   0  0  0  0  0  0  0  0  0  0  0  0
  -23.8817  -31.1683   17.3253 C   0  0  0  0  0  0  0  0  0  0  0  0
  -23.0214  -28.9305   18.7390 C   0  0  0  0  0  0  0  0  0  0  0  0
  -19.0773  -27.4286   21.5378 C   0  0  0  0  0  0  0  0  0  0  0  0
  -29.6007  -25.1017   20.3032 C   0  0  0  0  0  0  0  0  0  0  0  0
  -29.9116  -23.7395   20.4384 C   0  0  0  0  0  0  0  0  0  0  0  0
  -25.4693  -12.2054   20.6319 C   0  0  0  0  0  0  0  0  0  0  0  0
  -24.7328  -13.5353   22.5097 C   0  0  0  0  0  0  0  0  0  0  0  0
  -18.7394  -26.0768   21.4884 C   0  0  0  0  0  0  0  0  0  0  0  0
  -22.5511  -10.5960   21.2037 C   0  0  0  0  0  0  0  0  0  0  0  0
  -21.8301   -9.6605   20.4617 C   0  0  0  0  0  0  0  0  0  0  0  0
  -19.8867  -25.7198   23.5801 C   0  0  0  0  0  0  0  0  0  0  0  0
  -23.5265   -7.9991   20.9081 C   0  0  0  0  0  0  0  0  0  0  0  0
  -25.7379  -14.6061   20.5914 C   0  0  0  0  0  0  0  0  0  0  0  0
  -25.4232  -16.6127   19.0480 C   0  0  0  0  0  0  0  0  0  0  0  0
  -24.2060  -31.0474   18.6857 C   0  0  0  0  0  0  0  0  0  0  0  0
  -19.8330  -27.9348   22.6051 C   0  0  0  0  0  0  0  0  0  0  0  0
  -23.7805  -29.9110   19.3999 C   0  0  0  0  0  0  0  0  0  0  0  0
  -20.2307  -27.0788   23.6420 C   0  0  0  0  0  0  0  0  0  0  0  0
  -27.5443  -24.7593   21.4852 C   0  0  0  0  0  0  0  0  0  0  0  0
  -28.4124  -25.6191   20.8283 C   0  0  0  0  0  0  0  0  0  0  0  0
  -29.0358  -22.8747   21.0938 C   0  0  0  0  0  0  0  0  0  0  0  0
  -27.8582  -23.4076   21.5923 C   0  0  0  0  0  0  0  0  0  0  0  0
  -24.8888  -12.2918   21.8973 C   0  0  0  0  0  0  0  0  0  0  0  0
  -19.1466  -25.2216   22.5081 C   0  0  0  0  0  0  0  0  0  0  0  0
  -23.7599  -10.2331   21.7978 C   0  0  0  0  0  0  0  0  0  0  0  0
  -22.3177   -8.3620   20.3140 C   0  0  0  0  0  0  0  0  0  0  0  0
  -24.2475   -8.9347   21.6500 C   0  0  0  0  0  0  0  0  0  0  0  0
  -26.1768  -15.8017   19.9176 C   0  0  0  0  0  0  0  0  0  0  0  0
  -26.2868  -17.6147   18.6782 C   0  0  0  0  0  0  0  0  0  0  0  0
  -24.0641  -16.4729   18.6134 C   0  0  0  0  0  0  0  0  0  0  0  0
  -22.6768  -29.3283   22.8777 C   0  0  0  0  0  0  0  0  0  0  0  0
  -21.7655  -29.6976   25.9689 C   0  0  0  0  0  0  0  0  0  0  0  0
  -19.8195  -28.6333   28.5626 C   0  0  0  0  0  0  0  0  0  0  0  0
  -30.5434  -20.8740   20.8273 C   0  0  0  0  0  0  0  0  0  0  0  0
  -21.3351  -21.0722   21.0083 C   0  0  0  0  0  0  0  0  0  0  0  0
  -25.0623  -32.1116   19.3252 C   0  0  0  0  0  0  0  0  0  0  0  0
  -20.1664  -29.4005   22.6572 C   0  0  0  0  0  0  0  0  0  0  0  0
  -21.0262  -27.5765   24.8201 C   0  0  0  0  0  0  0  0  0  0  0  0
  -25.0439  -32.0727   20.8511 C   0  0  0  0  0  0  0  0  0  0  0  0
  -31.2069  -18.1392   18.6462 C   0  0  0  0  0  0  0  0  0  0  0  0
  -25.2304  -30.6437   21.3510 C   0  0  0  0  0  0  0  0  0  0  0  0
  -29.9045  -17.3358   18.6655 C   0  0  0  0  0  0  0  0  0  0  0  0
  -31.5231  -18.7398   20.0147 C   0  0  0  0  0  0  0  0  0  0  0  0
  -29.1375  -18.7293   20.6293 C   0  0  0  0  0  0  0  0  0  0  0  0
  -25.9704  -23.7656   22.9482 C   0  0  0  0  0  0  0  0  0  0  0  0
  -24.0898  -29.7380   20.8712 C   0  0  1  0  0  0  0  0  0  0  0  0
  -21.3782  -29.7070   23.5319 C   0  0  1  0  0  0  0  0  0  0  0  0
  -28.7434  -18.1588   19.2571 C   0  0  2  0  0  0  0  0  0  0  0  0
  -26.2229  -25.0625   22.1365 C   0  0  0  0  0  0  0  0  0  0  0  0
  -25.1370  -25.2860   21.0761 C   0  0  0  0  0  0  0  0  0  0  0  0
  -26.2872  -26.2729   23.0746 C   0  0  0  0  0  0  0  0  0  0  0  0
  -19.3222  -29.1078   30.9761 C   0  0  0  0  0  0  0  0  0  0  0  0
  -24.3829  -28.3498   26.7707 C   0  0  0  0  0  0  0  0  0  0  0  0
  -23.4203  -27.9963   29.0548 C   0  0  0  0  0  0  0  0  0  0  0  0
  -23.7439  -30.3115   28.1842 C   0  0  0  0  0  0  0  0  0  0  0  0
  -27.3960  -27.4498   19.4959 C   0  0  0  0  0  0  0  0  0  0  0  0
  -28.5548  -27.9560   21.6522 C   0  0  0  0  0  0  0  0  0  0  0  0
  -16.9840  -29.2473   27.9778 C   0  0  0  0  0  0  0  0  0  0  0  0
  -24.6536  -19.6011   21.4323 C   0  0  0  0  0  0  0  0  0  0  0  0
  -25.3916  -20.6453   22.2776 C   0  0  0  0  0  0  0  0  0  0  0  0
  -19.0052  -21.8353   21.2488 C   0  0  0  0  0  0  0  0  0  0  0  0
  -23.5790  -20.2270   20.5534 C   0  0  0  0  0  0  0  0  0  0  0  0
  -26.0907  -21.7130   21.4444 C   0  0  0  0  0  0  0  0  0  0  0  0
  -18.6736  -23.3121   21.1717 C   0  0  0  0  0  0  0  0  0  1  0  0
  -21.8966  -28.8746   27.2278 C   0  0  1  0  0  0  0  0  0  0  0  0
  -18.9327  -29.3916   29.5337 C   0  0  2  0  0  0  0  0  0  0  0  0
  -23.3476  -28.8730   27.7863 C   0  0  0  0  0  0  0  0  0  0  0  0
  -27.4232  -16.2496   20.0899 N   0  0  0  0  0  0  0  0  0  0  0  0
  -27.4596  -17.3529   19.3234 N   0  0  0  0  0  0  0  0  0  0  0  0
  -21.3328  -29.0164   24.8224 N   0  0  0  0  0  0  0  0  0  0  0  0
  -30.3796  -19.5089   20.5103 N   0  0  0  0  0  0  0  0  0  0  0  0
  -26.1499  -18.6852   17.8672 N   0  0  0  0  0  0  0  0  0  0  0  0
  -23.3187  -15.3859   19.0899 N   0  0  0  0  0  0  0  0  0  0  0  0
  -29.3792  -21.5097   21.2576 N   0  0  0  0  0  0  0  0  0  0  0  0
  -22.9015  -29.9567   21.6678 N   0  0  0  0  0  0  0  0  0  0  0  0
  -20.8986  -29.3906   28.1585 N   0  0  0  0  0  0  0  0  0  0  0  0
  -20.3854  -21.6854   21.7105 N   0  0  0  0  0  0  0  0  0  0  0  0
  -28.1296  -26.9872   20.6591 N   0  0  0  0  0  0  0  0  0  0  0  0
  -22.6002  -20.9165   21.3948 N   0  3  0  0  0  0  0  0  0  0  0  0
  -26.8307  -22.6687   22.3242 N   0  3  1  0  0  0  0  0  0  0  0  0
  -17.5068  -29.0008   29.3464 N   0  3  0  0  0  0  0  0  0  0  0  0
  -23.5316  -17.2786   17.8129 O   0  0  0  0  0  0  0  0  0  0  0  0
  -23.4206  -28.5265   23.4306 O   0  0  0  0  0  0  0  0  0  0  0  0
  -22.0302  -30.9019   26.0035 O   0  0  0  0  0  0  0  0  0  0  0  0
  -19.5810  -27.4829   28.2018 O   0  0  0  0  0  0  0  0  0  0  0  0
  -31.6298  -21.4443   20.6986 O   0  0  0  0  0  0  0  0  0  0  0  0
  -24.4742  -11.1629   22.5347 O   0  0  0  0  0  0  0  0  0  0  0  0
  -18.8164  -23.8923   22.4617 O   0  0  0  0  0  0  0  0  0  1  0  0
  -21.6244   -7.4633   19.6028 F   0  0  0  0  0  0  0  0  0  0  0  0
  -25.4076   -8.5798   22.2194 F   0  0  0  0  0  0  0  0  0  0  0  0
  -20.9723  -20.5736   19.8126 F   0  0  0  0  0  0  0  0  0  0  0  0
  1  2  1  0  0  0  0
  1  5  2  0  0  0  0
  2  6  2  0  0  0  0
  3 10  2  0  0  0  0
  3 17  1  0  0  0  0
  4 11  1  0  0  0  0
  4 17  2  0  0  0  0
  5 19  1  0  0  0  0
  6 21  1  0  0  0  0
  7 12  2  0  0  0  0
  7 20  1  0  0  0  0
  8  9  1  0  0  0  0
  8 24  2  0  0  0  0
  9 25  2  0  0  0  0
 10 27  1  0  0  0  0
 11 27  2  0  0  0  0
 12 28  1  0  0  0  0
 13 14  2  0  0  0  0
 13 29  1  0  0  0  0
 14 30  1  0  0  0  0
 15 22  1  0  0  0  0
 15 28  2  0  0  0  0
 16 30  2  0  0  0  0
 16 31  1  0  0  0  0
 17 32  1  0  0  0  0
 18 32  1  0  0  0  0
 18 33  2  0  0  0  0
 18 34  1  0  0  0  0
 19 21  2  0  0  0  0
 19 40  1  0  0  0  0
 20 22  2  0  0  0  0
 20 41  1  0  0  0  0
 21 50  1  0  0  0  0
 22 42  1  0  0  0  0
 23 24  1  0  0  0  0
 23 26  2  0  0  0  0
 23 53  1  0  0  0  0
 24 82  1  0  0  0  0
 25 26  1  0  0  0  0
 25 78  1  0  0  0  0
 26 84  1  0  0  0  0
 27 91  1  0  0  0  0
 28 92  1  0  0  0  0
 29 31  2  0  0  0  0
 29 91  1  0  0  0  0
 30 93  1  0  0  0  0
 31 94  1  0  0  0  0
 32 72  2  0  0  0  0
 33 73  1  0  0  0  0
 33 76  1  0  0  0  0
 34 77  1  0  0  0  0
 34 86  2  0  0  0  0
 35 51  1  0  0  0  0
 35 79  1  0  0  0  0
 35 87  2  0  0  0  0
 36 69  1  0  0  0  0
 36 74  1  0  0  0  0
 36 88  2  0  0  0  0
 37 70  1  0  0  0  0
 37 80  1  0  0  0  0
 37 89  2  0  0  0  0
 38 75  1  0  0  0  0
 38 78  1  0  0  0  0
 38 90  2  0  0  0  0
 39 81  1  0  0  0  0
 39 83  2  0  0  0  0
 39 95  1  0  0  0  0
 40 43  1  0  0  0  0
 41 51  1  0  0  0  0
 42 74  1  0  0  0  0
 43 45  1  0  0  0  0
 44 46  1  0  0  0  0
 44 47  1  0  0  0  0
 45 50  1  0  0  0  0
 46 52  1  0  0  0  0
 47 75  1  0  0  0  0
 48 52  1  0  0  0  0
 48 75  1  0  0  0  0
 49 53  1  0  0  0  0
 49 84  1  0  0  0  0
 50 79  1  0  0  0  0
 51 74  1  0  0  0  0
 52 73  1  0  0  0  0
 53 54  1  0  0  0  0
 53 55  1  0  0  0  0
 56 70  1  0  0  0  0
 57 71  1  0  0  0  0
 58 71  1  0  0  0  0
 59 71  1  0  0  0  0
 60 82  1  0  0  0  0
 61 82  1  0  0  0  0
 62 85  1  0  0  0  0
 63 64  1  0  0  0  0
 63 66  1  0  0  0  0
 64 67  1  0  0  0  0
 65 68  1  0  0  0  0
 65 81  1  0  0  0  0
 66 83  1  0  0  0  0
 67 84  1  0  0  0  0
 68 92  1  0  0  0  0
 69 71  1  0  0  0  0
 69 80  1  0  0  0  0
 70 85  1  0  0  0  0
 72 73  1  0  0  0  0
M  CHG  3  83   1  84   1  85   1
M  ISO  4  38 100  68 101  78 100  92 101
M  END
> <Batch ID>
0006

> <Smiles>
CNC(C)C(=O)NC(C(=O)N1Cc2cc([101O:1][101CH2:1]CN=C(F)NCCCCN3CC(C)(C)c4c(N(C)C)ccc([100NH:0][100C:0](=O)N5CCCC(n6nc(-c7ccc(Oc8ccc(F)cc8F)cc7)c(C(N)=O)c6N)C5)c43)ccc2CC1C(=O)NC1CCCc2ccccc21)C(C)(C)C

> <Shape>
0.228

> <Color>
0.050

> <Negative vol penalty>
0.000

$$$$

  -OEChem-04042320293D

 87 95  0     1  0  0  0  0  0999 V2000
  -24.9621  -17.5611   21.3464 C   0  0  0  0  0  0  0  0  0  0  0  0
  -25.4477  -18.7353   21.9107 C   0  0  0  0  0  0  0  0  0  0  0  0
  -26.4103  -12.8283   21.4720 C   0  0  0  0  0  0  0  0  0  0  0  0
  -26.1452  -13.4866   19.1626 C   0  0  0  0  0  0  0  0  0  0  0  0
  -23.9428  -17.6175   20.3983 C   0  0  0  0  0  0  0  0  0  0  0  0
  -24.9060  -19.9653   21.5359 C   0  0  0  0  0  0  0  0  0  0  0  0
  -26.4098  -23.9252   24.0381 C   0  0  0  0  0  0  0  0  0  0  0  0
  -25.1516  -12.2279   21.4454 C   0  0  0  0  0  0  0  0  0  0  0  0
  -24.8864  -12.8862   19.1359 C   0  0  0  0  0  0  0  0  0  0  0  0
  -27.6865  -24.4670   23.8953 C   0  0  0  0  0  0  0  0  0  0  0  0
  -23.7887   -9.3484   20.3123 C   0  0  0  0  0  0  0  0  0  0  0  0
  -23.6638   -8.0791   20.8768 C   0  0  0  0  0  0  0  0  0  0  0  0
  -26.7742  -26.2456   22.5450 C   0  0  0  0  0  0  0  0  0  0  0  0
  -22.0355   -8.9356   22.4427 C   0  0  0  0  0  0  0  0  0  0  0  0
  -26.9071  -13.4577   20.3306 C   0  0  0  0  0  0  0  0  0  0  0  0
  -29.4420  -13.4794   20.0449 C   0  0  0  0  0  0  0  0  0  0  0  0
  -23.3975  -18.8502   20.0030 C   0  0  0  0  0  0  0  0  0  0  0  0
  -25.3055  -24.5345   23.4253 C   0  0  0  0  0  0  0  0  0  0  0  0
  -23.8603  -20.0414   20.5982 C   0  0  0  0  0  0  0  0  0  0  0  0
  -25.4842  -25.7110   22.6836 C   0  0  0  0  0  0  0  0  0  0  0  0
  -24.3896  -12.2568   20.2773 C   0  0  0  0  0  0  0  0  0  0  0  0
  -27.8692  -25.6257   23.1463 C   0  0  0  0  0  0  0  0  0  0  0  0
  -23.0369  -10.4114   20.8130 C   0  0  0  0  0  0  0  0  0  0  0  0
  -22.7872   -7.8726   21.9420 C   0  0  0  0  0  0  0  0  0  0  0  0
  -22.1603  -10.2050   21.8781 C   0  0  0  0  0  0  0  0  0  0  0  0
  -28.2071  -14.0786   20.3576 C   0  0  0  0  0  0  0  0  0  0  0  0
  -30.3646  -14.4810   20.2236 C   0  0  0  0  0  0  0  0  0  0  0  0
  -26.9892  -21.8238   16.1069 C   0  0  0  0  0  0  0  0  0  0  0  0
  -29.7294  -12.1374   19.6298 C   0  0  0  0  0  0  0  0  0  0  0  0
  -23.1946  -23.6517   21.2187 C   0  0  0  0  0  0  0  0  0  0  0  0
  -21.8069  -26.4853   21.9720 C   0  0  0  0  0  0  0  0  0  0  0  0
  -31.7599  -26.5177   19.8879 C   0  0  0  0  0  0  0  0  0  0  0  0
  -22.1536  -29.6347   23.2401 C   0  0  0  0  0  0  0  0  0  0  0  0
  -29.9873  -20.4537   20.0339 C   0  0  0  0  0  0  0  0  0  0  0  0
  -22.2905  -18.8528   18.9785 C   0  0  0  0  0  0  0  0  0  0  0  0
  -23.9310  -23.9525   23.6111 C   0  0  0  0  0  0  0  0  0  0  0  0
  -24.3284  -26.4149   22.0225 C   0  0  0  0  0  0  0  0  0  0  0  0
  -22.0901  -20.2154   18.3232 C   0  0  0  0  0  0  0  0  0  0  0  0
  -31.1213  -18.4658   22.7613 C   0  0  0  0  0  0  0  0  0  0  0  0
  -21.9985  -21.2965   19.3896 C   0  0  0  0  0  0  0  0  0  0  0  0
  -30.6145  -17.0619   22.4263 C   0  0  0  0  0  0  0  0  0  0  0  0
  -30.1263  -19.5421   22.3331 C   0  0  0  0  0  0  0  0  0  0  0  0
  -29.2040  -18.0705   20.5846 C   0  0  0  0  0  0  0  0  0  0  0  0
  -23.3075  -21.3929   20.1834 C   0  0  1  0  0  0  0  0  0  0  0  0
  -22.9529  -24.3689   22.5168 C   0  0  1  0  0  0  0  0  0  0  0  0
  -30.1984  -16.9541   20.9470 C   0  0  2  0  0  0  0  0  0  0  0  0
  -28.5594  -22.0917   17.5468 C   0  0  2  0  0  0  0  0  0  0  0  0
  -34.1061  -25.7429   20.0991 C   0  0  0  0  0  0  0  0  0  0  0  0
  -20.8502  -31.7311   23.6913 C   0  0  0  0  0  0  0  0  0  0  0  0
  -21.8865  -27.1717   19.0000 C   0  0  0  0  0  0  0  0  0  0  0  0
  -21.4800  -29.5648   19.6131 C   0  0  0  0  0  0  0  0  0  0  0  0
  -19.7747  -27.8304   20.1666 C   0  0  0  0  0  0  0  0  0  0  0  0
  -22.6721  -29.4692   26.1492 C   0  0  0  0  0  0  0  0  0  0  0  0
  -33.1352  -26.8918   20.3195 C   0  0  0  0  0  0  0  0  0  0  0  0
  -29.7977  -21.2195   17.6809 C   0  0  0  0  0  0  0  0  0  0  0  0
  -30.0790  -24.9412   17.5368 C   0  0  0  0  0  0  0  0  0  0  0  0
  -31.3642  -25.8191   22.2207 C   0  0  0  0  0  0  0  0  0  0  0  0
  -30.0763  -26.3756   18.0451 C   0  0  0  0  0  0  0  0  0  0  0  0
  -28.7492  -24.5576   16.9012 C   0  0  0  0  0  0  0  0  0  0  0  0
  -30.2146  -25.2479   23.0337 C   0  0  0  0  0  0  0  0  0  1  0  0
  -21.9367  -27.9049   21.4751 C   0  0  1  0  0  0  0  0  0  0  0  0
  -21.3345  -30.4060   24.2592 C   0  0  2  0  0  0  0  0  0  0  0  0
  -21.2918  -28.1038   20.0744 C   0  0  0  0  0  0  0  0  0  0  0  0
  -28.3306  -15.3614   20.7086 N   0  0  0  0  0  0  0  0  0  0  0  0
  -27.3872  -21.2402   17.1983 N   0  0  0  0  0  0  0  0  0  0  0  0
  -29.6540  -15.5765   20.6175 N   0  0  0  0  0  0  0  0  0  0  0  0
  -27.6611  -22.8986   15.6319 N   0  0  0  0  0  0  0  0  0  0  0  0
  -23.0049  -25.8035   22.2282 N   0  0  0  0  0  0  0  0  0  0  0  0
  -29.7742  -19.3847   20.9199 N   0  0  0  0  0  0  0  0  0  0  0  0
  -31.7064  -14.5227   20.0807 N   0  0  0  0  0  0  0  0  0  0  0  0
  -28.6639  -11.2367   19.4962 N   0  0  0  0  0  0  0  0  0  0  0  0
  -23.1111  -22.2756   21.3122 N   0  0  0  0  0  0  0  0  0  0  0  0
  -30.9602  -26.0117   20.8468 N   0  0  0  0  0  0  0  0  0  0  0  0
  -21.3742  -28.7556   22.5183 N   0  0  0  0  0  0  0  0  0  0  0  0
  -29.6322  -20.2187   18.7112 N   0  0  0  0  0  0  0  0  0  0  0  0
  -31.3884  -26.6941   18.6165 N   0  3  0  0  0  0  0  0  0  0  0  0
  -28.8087  -23.1384   16.4734 N   0  3  2  0  0  0  0  0  0  0  0  0
  -22.1501  -30.6856   25.4747 N   0  3  0  0  0  0  0  0  0  0  0  0
  -30.8982  -11.7441   19.4006 O   0  0  0  0  0  0  0  0  0  0  0  0
  -23.4374  -24.2991   20.2070 O   0  0  0  0  0  0  0  0  0  0  0  0
  -20.6837  -26.0016   22.1339 O   0  0  0  0  0  0  0  0  0  0  0  0
  -23.3631  -29.7985   23.0960 O   0  0  0  0  0  0  0  0  0  0  0  0
  -30.4640  -21.5354   20.3938 O   0  0  0  0  0  0  0  0  0  0  0  0
  -23.1614  -11.6709   20.2509 O   0  0  0  0  0  0  0  0  0  0  0  0
  -29.1144  -26.1563   23.0048 O   0  0  0  0  0  0  0  0  0  1  0  0
  -22.6663   -6.6532   22.4830 F   0  0  0  0  0  0  0  0  0  0  0  0
  -21.4346  -11.2220   22.3627 F   0  0  0  0  0  0  0  0  0  0  0  0
  1  2  1  0  0  0  0
  1  5  2  0  0  0  0
  2  6  2  0  0  0  0
  3  8  2  0  0  0  0
  3 15  1  0  0  0  0
  4  9  1  0  0  0  0
  4 15  2  0  0  0  0
  5 17  1  0  0  0  0
  6 19  1  0  0  0  0
  7 10  2  0  0  0  0
  7 18  1  0  0  0  0
  8 21  1  0  0  0  0
  9 21  2  0  0  0  0
 10 22  1  0  0  0  0
 11 12  2  0  0  0  0
 11 23  1  0  0  0  0
 12 24  1  0  0  0  0
 13 20  1  0  0  0  0
 13 22  2  0  0  0  0
 14 24  2  0  0  0  0
 14 25  1  0  0  0  0
 15 26  1  0  0  0  0
 16 26  1  0  0  0  0
 16 27  2  0  0  0  0
 16 29  1  0  0  0  0
 17 19  2  0  0  0  0
 17 35  1  0  0  0  0
 18 20  2  0  0  0  0
 18 36  1  0  0  0  0
 19 44  1  0  0  0  0
 20 37  1  0  0  0  0
 21 84  1  0  0  0  0
 22 85  1  0  0  0  0
 23 25  2  0  0  0  0
 23 84  1  0  0  0  0
 24 86  1  0  0  0  0
 25 87  1  0  0  0  0
 26 64  2  0  0  0  0
 27 66  1  0  0  0  0
 27 70  1  0  0  0  0
 28 65  2  0  0  0  0
 28 67  1  0  0  0  0
 29 71  1  0  0  0  0
 29 79  2  0  0  0  0
 30 45  1  0  0  0  0
 30 72  1  0  0  0  0
 30 80  2  0  0  0  0
 31 61  1  0  0  0  0
 31 68  1  0  0  0  0
 31 81  2  0  0  0  0
 32 54  1  0  0  0  0
 32 73  1  0  0  0  0
 32 76  2  0  0  0  0
 33 62  1  0  0  0  0
 33 74  1  0  0  0  0
 33 82  2  0  0  0  0
 34 69  1  0  0  0  0
 34 75  1  0  0  0  0
 34 83  2  0  0  0  0
 35 38  1  0  0  0  0
 36 45  1  0  0  0  0
 37 68  1  0  0  0  0
 38 40  1  0  0  0  0
 39 41  1  0  0  0  0
 39 42  1  0  0  0  0
 40 44  1  0  0  0  0
 41 46  1  0  0  0  0
 42 69  1  0  0  0  0
 43 46  1  0  0  0  0
 43 69  1  0  0  0  0
 44 72  1  0  0  0  0
 45 68  1  0  0  0  0
 46 66  1  0  0  0  0
 47 55  1  0  0  0  0
 47 65  1  0  0  0  0
 47 77  1  0  0  0  0
 48 54  1  0  0  0  0
 49 62  1  0  0  0  0
 50 63  1  0  0  0  0
 51 63  1  0  0  0  0
 52 63  1  0  0  0  0
 53 78  1  0  0  0  0
 55 75  1  0  0  0  0
 56 58  1  0  0  0  0
 56 59  1  0  0  0  0
 57 60  1  0  0  0  0
 57 73  1  0  0  0  0
 58 76  1  0  0  0  0
 59 77  1  0  0  0  0
 60 85  1  0  0  0  0
 61 63  1  0  0  0  0
 61 74  1  0  0  0  0
 62 78  1  0  0  0  0
 64 66  1  0  0  0  0
 67 77  1  0  0  0  0
M  CHG  3  76   1  77   1  78   1
M  ISO  4  34 100  60 101  75 100  85 101
M  END
> <Batch ID>
0006

> <Smiles>
CCC(=NC[101CH2:1][101O:1]c1ccc2c(c1)CN(C(=O)C(NC(=O)C(C)NC)C(C)(C)C)C(C(=O)NC1CCCc3ccccc31)C2)NCCCN1NC=NC1C[100NH:0][100C:0](=O)N1CCCC(n2nc(-c3ccc(Oc4ccc(F)cc4F)cc3)c(C(N)=O)c2N)C1

> <Shape>
0.224

> <Color>
0.065

> <Negative vol penalty>
0.000

$$$$

  -OEChem-04042320293D

 83 91  0     1  0  0  0  0  0999 V2000
  -32.2031  -21.4293   23.5945 C   0  0  0  0  0  0  0  0  0  0  0  0
  -30.9769  -21.8772   24.0754 C   0  0  0  0  0  0  0  0  0  0  0  0
  -29.7049  -28.8473   18.5920 C   0  0  0  0  0  0  0  0  0  0  0  0
  -29.2770  -27.0903   20.1942 C   0  0  0  0  0  0  0  0  0  0  0  0
  -32.2671  -20.7454   22.3812 C   0  0  0  0  0  0  0  0  0  0  0  0
  -29.8140  -21.6424   23.3426 C   0  0  0  0  0  0  0  0  0  0  0  0
  -22.8240  -20.3483   24.2265 C   0  0  0  0  0  0  0  0  0  0  0  0
  -19.1024  -27.1846   23.3950 C   0  0  0  0  0  0  0  0  0  0  0  0
  -18.6371  -26.0031   22.8179 C   0  0  0  0  0  0  0  0  0  0  0  0
  -31.0394  -28.4495   18.5123 C   0  0  0  0  0  0  0  0  0  0  0  0
  -30.6115  -26.6925   20.1144 C   0  0  0  0  0  0  0  0  0  0  0  0
  -21.5802  -20.8176   23.8065 C   0  0  0  0  0  0  0  0  0  0  0  0
  -32.5547  -24.9070   18.0033 C   0  0  0  0  0  0  0  0  0  0  0  0
  -32.8168  -23.5415   17.8927 C   0  0  0  0  0  0  0  0  0  0  0  0
  -21.8014  -19.5562   21.7622 C   0  0  0  0  0  0  0  0  0  0  0  0
  -19.7298  -28.0045   21.2107 C   0  0  0  0  0  0  0  0  0  0  0  0
  -34.0826  -23.6179   19.9492 C   0  0  0  0  0  0  0  0  0  0  0  0
  -28.8237  -28.1677   19.4331 C   0  0  0  0  0  0  0  0  0  0  0  0
  -26.3725  -28.1206   18.7280 C   0  0  0  0  0  0  0  0  0  0  0  0
  -31.1031  -20.4937   21.6379 C   0  0  0  0  0  0  0  0  0  0  0  0
  -23.5720  -19.4866   23.4114 C   0  0  0  0  0  0  0  0  0  0  0  0
  -29.8626  -20.9557   22.1176 C   0  0  0  0  0  0  0  0  0  0  0  0
  -23.0533  -19.0753   22.1753 C   0  0  0  0  0  0  0  0  0  0  0  0
  -19.6487  -28.1854   22.5914 C   0  0  0  0  0  0  0  0  0  0  0  0
  -18.7181  -25.8223   21.4372 C   0  0  0  0  0  0  0  0  0  0  0  0
  -31.4927  -27.3721   19.2734 C   0  0  0  0  0  0  0  0  0  0  0  0
  -21.0700  -20.4238   22.5728 C   0  0  0  0  0  0  0  0  0  0  0  0
  -33.0566  -25.6280   19.0868 C   0  0  0  0  0  0  0  0  0  0  0  0
  -33.5807  -22.8969   18.8656 C   0  0  0  0  0  0  0  0  0  0  0  0
  -19.2645  -26.8230   20.6335 C   0  0  0  0  0  0  0  0  0  0  0  0
  -33.8205  -24.9835   20.0597 C   0  0  0  0  0  0  0  0  0  0  0  0
  -27.4451  -28.5786   19.5164 C   0  0  0  0  0  0  0  0  0  0  0  0
  -25.2822  -28.8122   19.1965 C   0  0  0  0  0  0  0  0  0  0  0  0
  -26.3625  -27.1562   17.6670 C   0  0  0  0  0  0  0  0  0  0  0  0
  -26.4102  -19.6454   21.9890 C   0  0  0  0  0  0  0  0  0  0  0  0
  -25.7732  -16.5541   21.2405 C   0  0  0  0  0  0  0  0  0  0  0  0
  -23.4381  -14.1151   20.7450 C   0  0  0  0  0  0  0  0  0  0  0  0
  -22.2228  -30.7907   23.4239 C   0  0  0  0  0  0  0  0  0  0  0  0
  -31.2282  -19.7918   20.3088 C   0  0  0  0  0  0  0  0  0  0  0  0
  -24.9001  -18.9680   23.8907 C   0  0  0  0  0  0  0  0  0  0  0  0
  -23.8077  -18.1357   21.2718 C   0  0  0  0  0  0  0  0  0  0  0  0
  -29.9020  -19.2556   19.7760 C   0  0  0  0  0  0  0  0  0  0  0  0
  -24.9918  -32.7553   22.3515 C   0  0  0  0  0  0  0  0  0  0  0  0
  -28.8105  -20.3143   19.8978 C   0  0  0  0  0  0  0  0  0  0  0  0
  -25.7911  -31.8044   21.4589 C   0  0  0  0  0  0  0  0  0  0  0  0
  -24.3678  -32.0246   23.5384 C   0  0  0  0  0  0  0  0  0  0  0  0
  -24.3479  -29.9001   22.2893 C   0  0  0  0  0  0  0  0  0  0  0  0
  -28.5759  -20.6987   21.3636 C   0  0  1  0  0  0  0  0  0  0  0  0
  -25.8052  -18.5026   22.7543 C   0  0  1  0  0  0  0  0  0  0  0  0
  -24.9499  -30.5809   21.0482 C   0  0  2  0  0  0  0  0  0  0  0  0
  -23.2190  -11.6986   20.1049 C   0  0  0  0  0  0  0  0  0  0  0  0
  -26.3097  -17.2801   18.3258 C   0  0  0  0  0  0  0  0  0  0  0  0
  -25.1762  -15.1496   17.6592 C   0  0  0  0  0  0  0  0  0  0  0  0
  -27.2508  -15.0766   19.0423 C   0  0  0  0  0  0  0  0  0  0  0  0
  -22.1775  -13.4240   23.3320 C   0  0  0  0  0  0  0  0  0  0  0  0
  -20.1465  -29.4485   23.2084 C   0  0  0  0  0  0  0  0  0  0  0  0
  -18.2179  -24.5499   20.8193 C   0  0  0  0  0  0  0  0  0  0  0  0
  -18.6339  -22.1088   20.4927 C   0  0  0  0  0  0  0  0  0  0  0  0
  -19.6604  -21.0242   20.7539 C   0  0  0  0  0  0  0  0  0  1  0  0
  -25.0864  -15.8513   20.0945 C   0  0  1  0  0  0  0  0  0  0  0  0
  -23.3496  -12.6873   21.2530 C   0  0  2  0  0  0  0  0  0  0  0  0
  -25.9422  -15.8587   18.7964 C   0  0  0  0  0  0  0  0  0  0  0  0
  -27.0703  -29.4907   20.4172 N   0  0  0  0  0  0  0  0  0  0  0  0
  -25.7499  -29.6115   20.1978 N   0  0  0  0  0  0  0  0  0  0  0  0
  -25.1046  -17.6611   21.7821 N   0  0  0  0  0  0  0  0  0  0  0  0
  -23.5822  -30.8760   23.0806 N   0  0  0  0  0  0  0  0  0  0  0  0
  -23.9787  -28.8087   18.8454 N   0  0  0  0  0  0  0  0  0  0  0  0
  -27.5705  -26.5401   17.3129 N   0  0  0  0  0  0  0  0  0  0  0  0
  -27.7908  -19.6837   22.0329 N   0  0  0  0  0  0  0  0  0  0  0  0
  -24.7464  -14.5177   20.5784 N   0  0  0  0  0  0  0  0  0  0  0  0
  -21.5502  -29.6735   22.9442 N   0  0  0  0  0  0  0  0  0  0  0  0
  -22.1680  -12.5279   22.1471 N   0  3  0  0  0  0  0  0  0  0  0  0
  -19.1306  -23.3959   21.0411 N   0  3  0  0  0  0  0  0  0  0  0  0
  -25.3164  -26.8621   17.0404 O   0  0  0  0  0  0  0  0  0  0  0  0
  -25.6786  -20.4332   21.4009 O   0  0  0  0  0  0  0  0  0  0  0  0
  -26.8594  -16.1320   21.6449 O   0  0  0  0  0  0  0  0  0  0  0  0
  -22.4460  -14.8031   20.5153 O   0  0  0  0  0  0  0  0  0  0  0  0
  -21.6496  -31.6495   24.1028 O   0  0  0  0  0  0  0  0  0  0  0  0
  -32.7949  -26.9835   19.1956 O   0  0  0  0  0  0  0  0  0  0  0  0
  -19.8565  -20.8810   22.1601 O   0  0  0  0  0  0  0  0  0  1  0  0
  -33.8310  -21.5853   18.7601 F   0  0  0  0  0  0  0  0  0  0  0  0
  -19.3474  -26.6577   19.3060 F   0  0  0  0  0  0  0  0  0  0  0  0
  -34.3044  -25.6706   21.1035 F   0  0  0  0  0  0  0  0  0  0  0  0
  1  2  1  0  0  0  0
  1  5  2  0  0  0  0
  2  6  2  0  0  0  0
  3 10  2  0  0  0  0
  3 18  1  0  0  0  0
  4 11  1  0  0  0  0
  4 18  2  0  0  0  0
  5 20  1  0  0  0  0
  6 22  1  0  0  0  0
  7 12  2  0  0  0  0
  7 21  1  0  0  0  0
  8  9  2  0  0  0  0
  8 24  1  0  0  0  0
  9 25  1  0  0  0  0
 10 26  1  0  0  0  0
 11 26  2  0  0  0  0
 12 27  1  0  0  0  0
 13 14  2  0  0  0  0
 13 28  1  0  0  0  0
 14 29  1  0  0  0  0
 15 23  1  0  0  0  0
 15 27  2  0  0  0  0
 16 24  2  0  0  0  0
 16 30  1  0  0  0  0
 17 29  2  0  0  0  0
 17 31  1  0  0  0  0
 18 32  1  0  0  0  0
 19 32  1  0  0  0  0
 19 33  2  0  0  0  0
 19 34  1  0  0  0  0
 20 22  2  0  0  0  0
 20 39  1  0  0  0  0
 21 23  2  0  0  0  0
 21 40  1  0  0  0  0
 22 48  1  0  0  0  0
 23 41  1  0  0  0  0
 24 56  1  0  0  0  0
 25 30  2  0  0  0  0
 25 57  1  0  0  0  0
 26 79  1  0  0  0  0
 27 80  1  0  0  0  0
 28 31  2  0  0  0  0
 28 79  1  0  0  0  0
 29 81  1  0  0  0  0
 30 82  1  0  0  0  0
 31 83  1  0  0  0  0
 32 63  2  0  0  0  0
 33 64  1  0  0  0  0
 33 67  1  0  0  0  0
 34 68  1  0  0  0  0
 34 74  2  0  0  0  0
 35 49  1  0  0  0  0
 35 69  1  0  0  0  0
 35 75  2  0  0  0  0
 36 60  1  0  0  0  0
 36 65  1  0  0  0  0
 36 76  2  0  0  0  0
 37 61  1  0  0  0  0
 37 70  1  0  0  0  0
 37 77  2  0  0  0  0
 38 66  1  0  0  0  0
 38 71  1  0  0  0  0
 38 78  2  0  0  0  0
 39 42  1  0  0  0  0
 40 49  1  0  0  0  0
 41 65  1  0  0  0  0
 42 44  1  0  0  0  0
 43 45  1  0  0  0  0
 43 46  1  0  0  0  0
 44 48  1  0  0  0  0
 45 50  1  0  0  0  0
 46 66  1  0  0  0  0
 47 50  1  0  0  0  0
 47 66  1  0  0  0  0
 48 69  1  0  0  0  0
 49 65  1  0  0  0  0
 50 64  1  0  0  0  0
 51 61  1  0  0  0  0
 52 62  1  0  0  0  0
 53 62  1  0  0  0  0
 54 62  1  0  0  0  0
 55 72  1  0  0  0  0
 56 71  1  0  0  0  0
 57 73  1  0  0  0  0
 58 59  1  0  0  0  0
 58 73  1  0  0  0  0
 59 80  1  0  0  0  0
 60 62  1  0  0  0  0
 60 70  1  0  0  0  0
 61 72  1  0  0  0  0
 63 64  1  0  0  0  0
M  CHG  2  72   1  73   1
M  ISO  4  38 100  59 101  71 100  80 101
M  END
> <Batch ID>
0006

> <Smiles>
CNC(C)C(=O)NC(C(=O)N1Cc2cc([101O:1][101CH2:1]CNCc3ccc(C[100NH:0][100C:0](=O)N4CCCC(n5nc(-c6ccc(Oc7ccc(F)cc7F)cc6)c(C(N)=O)c5N)C4)cc3F)ccc2CC1C(=O)NC1CCCc2ccccc21)C(C)(C)C

> <Shape>
0.203

> <Color>
0.074

> <Negative vol penalty>
0.000

$$$$

  -OEChem-04042320293D

 87 96  0     1  0  0  0  0  0999 V2000
  -18.7886  -24.8656   23.3450 C   0  0  0  0  0  0  0  0  0  0  0  0
  -20.1533  -24.6899   23.1394 C   0  0  0  0  0  0  0  0  0  0  0  0
  -24.6702   -8.7830   21.8088 C   0  0  0  0  0  0  0  0  0  0  0  0
  -23.3648   -9.2399   19.8279 C   0  0  0  0  0  0  0  0  0  0  0  0
  -18.1906  -26.0878   23.0408 C   0  0  0  0  0  0  0  0  0  0  0  0
  -20.9205  -25.7362   22.6284 C   0  0  0  0  0  0  0  0  0  0  0  0
  -26.7364  -27.0572   24.0199 C   0  0  0  0  0  0  0  0  0  0  0  0
  -30.4416  -22.6869   19.6525 C   0  0  0  0  0  0  0  0  0  0  0  0
  -29.8652  -21.4250   19.5075 C   0  0  0  0  0  0  0  0  0  0  0  0
  -23.5417   -8.2466   22.4288 C   0  0  0  0  0  0  0  0  0  0  0  0
  -22.2363   -8.7035   20.4478 C   0  0  0  0  0  0  0  0  0  0  0  0
  -27.9417  -26.7755   23.3782 C   0  0  0  0  0  0  0  0  0  0  0  0
  -21.8028   -5.3476   22.3595 C   0  0  0  0  0  0  0  0  0  0  0  0
  -21.9517   -4.1430   23.0468 C   0  0  0  0  0  0  0  0  0  0  0  0
  -27.8879  -28.9502   22.3356 C   0  0  0  0  0  0  0  0  0  0  0  0
  -29.7947  -23.2423   17.3920 C   0  0  0  0  0  0  0  0  0  0  0  0
  -21.2378   -5.2196   25.0885 C   0  0  0  0  0  0  0  0  0  0  0  0
  -24.5817   -9.2797   20.5084 C   0  0  0  0  0  0  0  0  0  0  0  0
  -26.6945   -9.1481   19.0848 C   0  0  0  0  0  0  0  0  0  0  0  0
  -18.9527  -27.1526   22.5349 C   0  0  0  0  0  0  0  0  0  0  0  0
  -26.0912  -28.2853   23.8154 C   0  0  0  0  0  0  0  0  0  0  0  0
  -20.3319  -26.9733   22.3159 C   0  0  0  0  0  0  0  0  0  0  0  0
  -26.6758  -29.2460   22.9779 C   0  0  0  0  0  0  0  0  0  0  0  0
  -30.4063  -23.5955   18.5948 C   0  0  0  0  0  0  0  0  0  0  0  0
  -29.2536  -21.0717   18.3046 C   0  0  0  0  0  0  0  0  0  0  0  0
  -22.3247   -8.2068   21.7483 C   0  0  0  0  0  0  0  0  0  0  0  0
  -28.5161  -27.7209   22.5336 C   0  0  0  0  0  0  0  0  0  0  0  0
  -21.3715   -6.4883   23.0367 C   0  0  0  0  0  0  0  0  0  0  0  0
  -21.6692   -4.0790   24.4113 C   0  0  0  0  0  0  0  0  0  0  0  0
  -29.2184  -21.9803   17.2468 C   0  0  0  0  0  0  0  0  0  0  0  0
  -21.0890   -6.4243   24.4012 C   0  0  0  0  0  0  0  0  0  0  0  0
  -25.7470   -9.8345   19.8677 C   0  0  0  0  0  0  0  0  0  0  0  0
  -27.5967  -10.1143   18.7121 C   0  0  0  0  0  0  0  0  0  0  0  0
  -26.7537   -7.7611   18.7264 C   0  0  0  0  0  0  0  0  0  0  0  0
  -23.2863  -29.1726   22.6117 C   0  0  0  0  0  0  0  0  0  0  0  0
  -24.2236  -32.1104   23.6184 C   0  0  0  0  0  0  0  0  0  0  0  0
  -26.7849  -34.2106   24.4404 C   0  0  0  0  0  0  0  0  0  0  0  0
  -27.2520  -15.8299   17.9118 C   0  0  0  0  0  0  0  0  0  0  0  0
  -18.2533  -28.4399   22.1765 C   0  0  0  0  0  0  0  0  0  0  0  0
  -24.8052  -28.5843   24.5359 C   0  0  0  0  0  0  0  0  0  0  0  0
  -26.0336  -30.5876   22.7408 C   0  0  0  0  0  0  0  0  0  0  0  0
  -19.2050  -29.6189   21.9909 C   0  0  0  0  0  0  0  0  0  0  0  0
  -29.4553  -14.2716   20.1604 C   0  0  0  0  0  0  0  0  0  0  0  0
  -20.3935  -29.2144   21.1245 C   0  0  0  0  0  0  0  0  0  0  0  0
  -28.8424  -12.8756   20.2681 C   0  0  0  0  0  0  0  0  0  0  0  0
  -28.3869  -15.3657   20.1292 C   0  0  0  0  0  0  0  0  0  0  0  0
  -29.1711  -18.9017   17.1162 C   0  0  0  0  0  0  0  0  0  0  0  0
  -28.1059  -19.1742   19.3606 C   0  0  0  0  0  0  0  0  0  0  0  0
  -28.1367  -17.8323   16.7754 C   0  0  0  0  0  0  0  0  0  0  0  0
  -27.0839  -18.1103   18.9756 C   0  0  0  0  0  0  0  0  0  0  0  0
  -26.7426  -13.7722   19.1937 C   0  0  0  0  0  0  0  0  0  0  0  0
  -21.2023  -28.0924   21.7865 C   0  0  1  0  0  0  0  0  0  0  0  0
  -23.9750  -29.6664   23.8525 C   0  0  1  0  0  0  0  0  0  0  0  0
  -27.7900  -12.6481   19.1684 C   0  0  2  0  0  0  0  0  0  0  0  0
  -27.2413  -36.5619   25.1890 C   0  0  0  0  0  0  0  0  0  0  0  0
  -23.6943  -33.1124   20.7855 C   0  0  0  0  0  0  0  0  0  0  0  0
  -25.0353  -35.1548   21.3321 C   0  0  0  0  0  0  0  0  0  0  0  0
  -22.9428  -34.6631   22.5980 C   0  0  0  0  0  0  0  0  0  0  0  0
  -28.0398  -33.2891   26.9573 C   0  0  0  0  0  0  0  0  0  0  0  0
  -31.0224  -24.9447   18.7500 C   0  0  0  0  0  0  0  0  0  0  0  0
  -30.8373  -27.2030   19.8010 C   0  0  0  0  0  0  0  0  0  0  0  0
  -29.9103  -28.0627   20.6374 C   0  0  0  0  0  0  0  0  0  1  0  0
  -25.0002  -33.2522   23.0084 C   0  0  1  0  0  0  0  0  0  0  0  0
  -26.9921  -35.1285   25.6316 C   0  0  2  0  0  0  0  0  0  0  0  0
  -24.1795  -34.0197   21.9337 C   0  0  0  0  0  0  0  0  0  0  0  0
  -26.0218  -11.1362   19.9862 N   0  0  0  0  0  0  0  0  0  0  0  0
  -27.1523  -11.2754   19.2729 N   0  0  0  0  0  0  0  0  0  0  0  0
  -28.6756  -19.8039   18.1614 N   0  0  0  0  0  0  0  0  0  0  0  0
  -24.7738  -30.8302   23.4630 N   0  0  0  0  0  0  0  0  0  0  0  0
  -27.3841  -15.0847   19.0930 N   0  0  0  0  0  0  0  0  0  0  0  0
  -27.6145  -17.1847   17.9726 N   0  0  0  0  0  0  0  0  0  0  0  0
  -28.7189  -10.0755   17.9628 N   0  0  0  0  0  0  0  0  0  0  0  0
  -25.7461   -6.9065   19.1941 N   0  0  0  0  0  0  0  0  0  0  0  0
  -22.0380  -28.6261   22.8407 N   0  0  0  0  0  0  0  0  0  0  0  0
  -25.4496  -34.0810   24.1217 N   0  0  0  0  0  0  0  0  0  0  0  0
  -28.1609  -34.6755   26.4375 N   0  3  0  0  0  0  0  0  0  0  0  0
  -30.2123  -25.8717   19.5877 N   0  3  0  0  0  0  0  0  0  0  0  0
  -27.6819   -7.2903   18.0261 O   0  0  0  0  0  0  0  0  0  0  0  0
  -23.8455  -29.2809   21.5266 O   0  0  0  0  0  0  0  0  0  0  0  0
  -23.1712  -32.3465   24.2172 O   0  0  0  0  0  0  0  0  0  0  0  0
  -27.7148  -33.6662   23.8493 O   0  0  0  0  0  0  0  0  0  0  0  0
  -26.8385  -15.3174   16.8643 O   0  0  0  0  0  0  0  0  0  0  0  0
  -21.2234   -7.6832   22.3528 O   0  0  0  0  0  0  0  0  0  0  0  0
  -29.7006  -27.4463   21.9010 O   0  0  0  0  0  0  0  0  0  1  0  0
  -21.8107   -2.9218   25.0708 F   0  0  0  0  0  0  0  0  0  0  0  0
  -28.6331  -21.6513   16.0864 F   0  0  0  0  0  0  0  0  0  0  0  0
  -20.6731   -7.5165   25.0569 F   0  0  0  0  0  0  0  0  0  0  0  0
  1  2  1  0  0  0  0
  1  5  2  0  0  0  0
  2  6  2  0  0  0  0
  3 10  2  0  0  0  0
  3 18  1  0  0  0  0
  4 11  1  0  0  0  0
  4 18  2  0  0  0  0
  5 20  1  0  0  0  0
  6 22  1  0  0  0  0
  7 12  2  0  0  0  0
  7 21  1  0  0  0  0
  8  9  2  0  0  0  0
  8 24  1  0  0  0  0
  9 25  1  0  0  0  0
 10 26  1  0  0  0  0
 11 26  2  0  0  0  0
 12 27  1  0  0  0  0
 13 14  2  0  0  0  0
 13 28  1  0  0  0  0
 14 29  1  0  0  0  0
 15 23  1  0  0  0  0
 15 27  2  0  0  0  0
 16 24  2  0  0  0  0
 16 30  1  0  0  0  0
 17 29  2  0  0  0  0
 17 31  1  0  0  0  0
 18 32  1  0  0  0  0
 19 32  1  0  0  0  0
 19 33  2  0  0  0  0
 19 34  1  0  0  0  0
 20 22  2  0  0  0  0
 20 39  1  0  0  0  0
 21 23  2  0  0  0  0
 21 40  1  0  0  0  0
 22 52  1  0  0  0  0
 23 41  1  0  0  0  0
 24 60  1  0  0  0  0
 25 30  2  0  0  0  0
 25 68  1  0  0  0  0
 26 83  1  0  0  0  0
 27 84  1  0  0  0  0
 28 31  2  0  0  0  0
 28 83  1  0  0  0  0
 29 85  1  0  0  0  0
 30 86  1  0  0  0  0
 31 87  1  0  0  0  0
 32 66  2  0  0  0  0
 33 67  1  0  0  0  0
 33 72  1  0  0  0  0
 34 73  1  0  0  0  0
 34 78  2  0  0  0  0
 35 53  1  0  0  0  0
 35 74  1  0  0  0  0
 35 79  2  0  0  0  0
 36 63  1  0  0  0  0
 36 69  1  0  0  0  0
 36 80  2  0  0  0  0
 37 64  1  0  0  0  0
 37 75  1  0  0  0  0
 37 81  2  0  0  0  0
 38 70  1  0  0  0  0
 38 71  1  0  0  0  0
 38 82  2  0  0  0  0
 39 42  1  0  0  0  0
 40 53  1  0  0  0  0
 41 69  1  0  0  0  0
 42 44  1  0  0  0  0
 43 45  1  0  0  0  0
 43 46  1  0  0  0  0
 44 52  1  0  0  0  0
 45 54  1  0  0  0  0
 46 70  1  0  0  0  0
 47 49  1  0  0  0  0
 47 68  1  0  0  0  0
 48 50  1  0  0  0  0
 48 68  1  0  0  0  0
 49 71  1  0  0  0  0
 50 71  1  0  0  0  0
 51 54  1  0  0  0  0
 51 70  1  0  0  0  0
 52 74  1  0  0  0  0
 53 69  1  0  0  0  0
 54 67  1  0  0  0  0
 55 64  1  0  0  0  0
 56 65  1  0  0  0  0
 57 65  1  0  0  0  0
 58 65  1  0  0  0  0
 59 76  1  0  0  0  0
 60 77  1  0  0  0  0
 61 62  1  0  0  0  0
 61 77  1  0  0  0  0
 62 84  1  0  0  0  0
 63 65  1  0  0  0  0
 63 75  1  0  0  0  0
 64 76  1  0  0  0  0
 66 67  1  0  0  0  0
M  CHG  2  76   1  77   1
M  ISO  4  38 100  62 101  71 100  84 101
M  END
> <Batch ID>
0006

> <Smiles>
CNC(C)C(=O)NC(C(=O)N1Cc2cc([101O:1][101CH2:1]CNCc3ccc(N4CC[100N:0]([100C:0](=O)N5CCCC(n6nc(-c7ccc(Oc8ccc(F)cc8F)cc7)c(C(N)=O)c6N)C5)CC4)c(F)c3)ccc2CC1C(=O)NC1CCCc2ccccc21)C(C)(C)C

> <Shape>
0.328

> <Color>
0.097

> <Negative vol penalty>
0.000

$$$$

  -OEChem-04042320293D

 88 97  0     1  0  0  0  0  0999 V2000
  -25.6765  -38.4129   22.1363 C   0  0  0  0  0  0  0  0  0  0  0  0
  -26.3342  -37.2971   22.6441 C   0  0  0  0  0  0  0  0  0  0  0  0
  -24.5228  -10.0555   22.2926 C   0  0  0  0  0  0  0  0  0  0  0  0
  -24.6100  -11.5256   24.2079 C   0  0  0  0  0  0  0  0  0  0  0  0
  -27.4615  -21.5898   21.1754 C   0  0  0  0  0  0  0  0  0  0  0  0
  -24.2906  -38.3948   21.9848 C   0  0  0  0  0  0  0  0  0  0  0  0
  -25.6061  -36.1629   23.0018 C   0  0  0  0  0  0  0  0  0  0  0  0
  -27.7508  -31.8796   21.3591 C   0  0  0  0  0  0  0  0  0  0  0  0
  -27.4783  -20.2179   20.9083 C   0  0  0  0  0  0  0  0  0  0  0  0
  -24.1414   -8.9997   23.1204 C   0  0  0  0  0  0  0  0  0  0  0  0
  -24.2285  -10.4698   25.0357 C   0  0  0  0  0  0  0  0  0  0  0  0
  -28.8426  -31.3972   22.0796 C   0  0  0  0  0  0  0  0  0  0  0  0
  -21.3212   -7.9208   24.6420 C   0  0  0  0  0  0  0  0  0  0  0  0
  -20.2715   -7.1081   24.2139 C   0  0  0  0  0  0  0  0  0  0  0  0
  -29.9191  -20.1631   20.9959 C   0  0  0  0  0  0  0  0  0  0  0  0
  -27.4016  -29.8137   23.1912 C   0  0  0  0  0  0  0  0  0  0  0  0
  -21.7413   -5.1908   24.2502 C   0  0  0  0  0  0  0  0  0  0  0  0
  -24.7572  -11.3185   22.8363 C   0  0  0  0  0  0  0  0  0  0  0  0
  -28.6811  -22.2120   21.3456 C   0  0  0  0  0  0  0  0  0  0  0  0
  -29.8785  -21.5171   21.2580 C   0  0  0  0  0  0  0  0  0  0  0  0
  -24.3062  -13.3207   21.3212 C   0  0  0  0  0  0  0  0  0  0  0  0
  -23.5463  -37.2564   22.3318 C   0  0  0  0  0  0  0  0  0  0  0  0
  -26.4722  -31.3392   21.5575 C   0  0  0  0  0  0  0  0  0  0  0  0
  -24.2088  -36.1301   22.8561 C   0  0  0  0  0  0  0  0  0  0  0  0
  -26.2958  -30.2893   22.4701 C   0  0  0  0  0  0  0  0  0  0  0  0
  -28.6952  -19.5115   20.8196 C   0  0  0  0  0  0  0  0  0  0  0  0
  -23.9942   -9.2068   24.4919 C   0  0  0  0  0  0  0  0  0  0  0  0
  -28.6676  -30.3661   22.9979 C   0  0  0  0  0  0  0  0  0  0  0  0
  -22.5809   -7.3686   24.8741 C   0  0  0  0  0  0  0  0  0  0  0  0
  -20.4816   -5.7431   24.0180 C   0  0  0  0  0  0  0  0  0  0  0  0
  -22.7909   -6.0037   24.6783 C   0  0  0  0  0  0  0  0  0  0  0  0
  -25.1518  -12.4095   21.9819 C   0  0  0  0  0  0  0  0  0  0  0  0
  -25.1621  -14.1542   20.6436 C   0  0  0  0  0  0  0  0  0  0  0  0
  -28.9899  -23.6122   21.6327 C   0  0  0  0  0  0  0  0  0  0  0  0
  -30.9701  -22.4633   21.4878 C   0  0  0  0  0  0  0  0  0  0  0  0
  -22.8750  -13.4061   21.3203 C   0  0  0  0  0  0  0  0  0  0  0  0
  -23.6870  -32.4828   22.5768 C   0  0  0  0  0  0  0  0  0  0  0  0
  -22.6164  -29.5351   21.7478 C   0  0  0  0  0  0  0  0  0  0  0  0
  -23.3285  -26.2434   21.1960 C   0  0  0  0  0  0  0  0  0  0  0  0
  -29.7724  -17.2687   20.4249 C   0  0  0  0  0  0  0  0  0  0  0  0
  -22.0450  -37.3010   22.1946 C   0  0  0  0  0  0  0  0  0  0  0  0
  -25.3096  -31.8526   20.7530 C   0  0  0  0  0  0  0  0  0  0  0  0
  -24.9472  -29.6612   22.7053 C   0  0  0  0  0  0  0  0  0  0  0  0
  -21.3874  -35.9244   22.2460 C   0  0  0  0  0  0  0  0  0  0  0  0
  -30.1388  -13.7833   19.7967 C   0  0  0  0  0  0  0  0  0  0  0  0
  -21.9509  -35.1066   23.4038 C   0  0  0  0  0  0  0  0  0  0  0  0
  -28.8044  -13.1901   20.2549 C   0  0  0  0  0  0  0  0  0  0  0  0
  -30.5851  -14.9359   20.6944 C   0  0  0  0  0  0  0  0  0  0  0  0
  -28.2544  -15.4051   21.3404 C   0  0  0  0  0  0  0  0  0  0  0  0
  -23.4566  -34.8720   23.2322 C   0  0  1  0  0  0  0  0  0  0  0  0
  -23.9604  -31.5769   21.4097 C   0  0  1  0  0  0  0  0  0  0  0  0
  -27.7317  -14.2832   20.4284 C   0  0  2  0  0  0  0  0  0  0  0  0
  -22.2406  -24.0712   20.5674 C   0  0  0  0  0  0  0  0  0  0  0  0
  -21.4726  -29.2950   24.5664 C   0  0  0  0  0  0  0  0  0  0  0  0
  -21.2599  -26.8283   24.1948 C   0  0  0  0  0  0  0  0  0  0  0  0
  -19.9836  -28.4189   22.7582 C   0  0  0  0  0  0  0  0  0  0  0  0
  -24.9757  -25.9928   18.7500 C   0  0  0  0  0  0  0  0  0  0  0  0
  -31.3269  -25.0959   23.4589 C   0  0  0  0  0  0  0  0  0  0  0  0
  -31.0955  -24.9087   21.9618 C   0  0  0  0  0  0  0  0  0  0  0  0
  -32.0912  -26.3766   23.7700 C   0  0  0  0  0  0  0  0  0  0  0  0
  -31.9018  -28.8622   23.6135 C   0  0  0  0  0  0  0  0  0  0  0  0
  -31.0102  -29.9628   23.0734 C   0  0  0  0  0  0  0  0  0  1  0  0
  -22.4847  -28.2077   22.4546 C   0  0  1  0  0  0  0  0  0  0  0  0
  -22.9595  -25.3102   20.0569 C   0  0  2  0  0  0  0  0  0  0  0  0
  -21.3254  -28.2004   23.4907 C   0  0  0  0  0  0  0  0  0  0  0  0
  -26.4456  -12.6420   21.7452 N   0  0  0  0  0  0  0  0  0  0  0  0
  -26.4194  -13.7087   20.9281 N   0  0  0  0  0  0  0  0  0  0  0  0
  -30.3686  -23.6892   21.7001 N   0  0  0  0  0  0  0  0  0  0  0  0
  -23.8404  -30.2020   21.8990 N   0  0  0  0  0  0  0  0  0  0  0  0
  -29.5201  -15.9347   20.8089 N   0  0  0  0  0  0  0  0  0  0  0  0
  -24.9544  -15.2173   19.8379 N   0  0  0  0  0  0  0  0  0  0  0  0
  -22.1493  -12.4706   22.0704 N   0  0  0  0  0  0  0  0  0  0  0  0
  -28.6756  -18.1211   20.5470 N   0  0  0  0  0  0  0  0  0  0  0  0
  -23.6978  -33.8277   22.2597 N   0  0  0  0  0  0  0  0  0  0  0  0
  -22.3574  -27.1990   21.4083 N   0  0  0  0  0  0  0  0  0  0  0  0
  -24.1835  -24.8758   19.3260 N   0  3  0  0  0  0  0  0  0  0  0  0
  -31.2896  -27.5435   23.3123 N   0  3  0  0  0  0  0  0  0  0  0  0
  -28.1510  -24.4828   21.7725 O   0  0  0  0  0  0  0  0  0  0  0  0
  -32.1482  -22.1580   21.4789 O   0  0  0  0  0  0  0  0  0  0  0  0
  -22.2573  -14.2758   20.6602 O   0  0  0  0  0  0  0  0  0  0  0  0
  -23.4801  -31.9975   23.6828 O   0  0  0  0  0  0  0  0  0  0  0  0
  -21.6707  -29.9612   21.0801 O   0  0  0  0  0  0  0  0  0  0  0  0
  -24.3719  -26.1332   21.8360 O   0  0  0  0  0  0  0  0  0  0  0  0
  -30.8721  -17.6224   19.9919 O   0  0  0  0  0  0  0  0  0  0  0  0
  -23.6218   -8.1767   25.2999 O   0  0  0  0  0  0  0  0  0  0  0  0
  -29.7314  -29.8938   23.7029 O   0  0  0  0  0  0  0  0  0  1  0  0
  -19.4731   -4.9624   23.6084 F   0  0  0  0  0  0  0  0  0  0  0  0
  -23.9986   -5.4672   24.9009 F   0  0  0  0  0  0  0  0  0  0  0  0
  1  2  1  0  0  0  0
  1  6  2  0  0  0  0
  2  7  2  0  0  0  0
  3 10  2  0  0  0  0
  3 18  1  0  0  0  0
  4 11  1  0  0  0  0
  4 18  2  0  0  0  0
  5  9  2  0  0  0  0
  5 19  1  0  0  0  0
  6 22  1  0  0  0  0
  7 24  1  0  0  0  0
  8 12  2  0  0  0  0
  8 23  1  0  0  0  0
  9 26  1  0  0  0  0
 10 27  1  0  0  0  0
 11 27  2  0  0  0  0
 12 28  1  0  0  0  0
 13 14  2  0  0  0  0
 13 29  1  0  0  0  0
 14 30  1  0  0  0  0
 15 20  1  0  0  0  0
 15 26  2  0  0  0  0
 16 25  1  0  0  0  0
 16 28  2  0  0  0  0
 17 30  2  0  0  0  0
 17 31  1  0  0  0  0
 18 32  1  0  0  0  0
 19 20  2  0  0  0  0
 19 34  1  0  0  0  0
 20 35  1  0  0  0  0
 21 32  1  0  0  0  0
 21 33  2  0  0  0  0
 21 36  1  0  0  0  0
 22 24  2  0  0  0  0
 22 41  1  0  0  0  0
 23 25  2  0  0  0  0
 23 42  1  0  0  0  0
 24 50  1  0  0  0  0
 25 43  1  0  0  0  0
 26 73  1  0  0  0  0
 27 85  1  0  0  0  0
 28 86  1  0  0  0  0
 29 31  2  0  0  0  0
 29 85  1  0  0  0  0
 30 87  1  0  0  0  0
 31 88  1  0  0  0  0
 32 66  2  0  0  0  0
 33 67  1  0  0  0  0
 33 71  1  0  0  0  0
 34 68  1  0  0  0  0
 34 78  2  0  0  0  0
 35 68  1  0  0  0  0
 35 79  2  0  0  0  0
 36 72  1  0  0  0  0
 36 80  2  0  0  0  0
 37 51  1  0  0  0  0
 37 74  1  0  0  0  0
 37 81  2  0  0  0  0
 38 63  1  0  0  0  0
 38 69  1  0  0  0  0
 38 82  2  0  0  0  0
 39 64  1  0  0  0  0
 39 75  1  0  0  0  0
 39 83  2  0  0  0  0
 40 70  1  0  0  0  0
 40 73  1  0  0  0  0
 40 84  2  0  0  0  0
 41 44  1  0  0  0  0
 42 51  1  0  0  0  0
 43 69  1  0  0  0  0
 44 46  1  0  0  0  0
 45 47  1  0  0  0  0
 45 48  1  0  0  0  0
 46 50  1  0  0  0  0
 47 52  1  0  0  0  0
 48 70  1  0  0  0  0
 49 52  1  0  0  0  0
 49 70  1  0  0  0  0
 50 74  1  0  0  0  0
 51 69  1  0  0  0  0
 52 67  1  0  0  0  0
 53 64  1  0  0  0  0
 54 65  1  0  0  0  0
 55 65  1  0  0  0  0
 56 65  1  0  0  0  0
 57 76  1  0  0  0  0
 58 59  1  0  0  0  0
 58 60  1  0  0  0  0
 59 68  1  0  0  0  0
 60 77  1  0  0  0  0
 61 62  1  0  0  0  0
 61 77  1  0  0  0  0
 62 86  1  0  0  0  0
 63 65  1  0  0  0  0
 63 75  1  0  0  0  0
 64 76  1  0  0  0  0
 66 67  1  0  0  0  0
M  CHG  2  76   1  77   1
M  ISO  4  40 100  62 101  73 100  86 101
M  END
> <Batch ID>
0006

> <Smiles>
CNC(C)C(=O)NC(C(=O)N1Cc2cc([101O:1][101CH2:1]CNCCCN3C(=O)c4ccc([100NH:0][100C:0](=O)N5CCCC(n6nc(-c7ccc(Oc8ccc(F)cc8F)cc7)c(C(N)=O)c6N)C5)cc4C3=O)ccc2CC1C(=O)NC1CCCc2ccccc21)C(C)(C)C

> <Shape>
0.282

> <Color>
0.104

> <Negative vol penalty>
0.000

$$$$

  -OEChem-04042320293D

 80 88  0     1  0  0  0  0  0999 V2000
  -40.5188  -26.0778   18.4892 C   0  0  0  0  0  0  0  0  0  0  0  0
  -39.7448  -25.0902   19.0900 C   0  0  0  0  0  0  0  0  0  0  0  0
  -23.0777   -9.8645   19.9438 C   0  0  0  0  0  0  0  0  0  0  0  0
  -23.8341   -9.8783   22.2382 C   0  0  0  0  0  0  0  0  0  0  0  0
  -40.3499  -27.4127   18.8544 C   0  0  0  0  0  0  0  0  0  0  0  0
  -38.8022  -25.4369   20.0573 C   0  0  0  0  0  0  0  0  0  0  0  0
  -33.3755  -22.7709   21.0314 C   0  0  0  0  0  0  0  0  0  0  0  0
  -30.4582  -18.3548   24.0317 C   0  0  0  0  0  0  0  0  0  0  0  0
  -29.8725  -17.4663   23.1299 C   0  0  0  0  0  0  0  0  0  0  0  0
  -22.3339   -8.7117   20.1959 C   0  0  0  0  0  0  0  0  0  0  0  0
  -23.0903   -8.7256   22.4904 C   0  0  0  0  0  0  0  0  0  0  0  0
  -32.9525  -21.8137   21.9526 C   0  0  0  0  0  0  0  0  0  0  0  0
  -19.8616   -7.9281   23.0903 C   0  0  0  0  0  0  0  0  0  0  0  0
  -19.1029   -7.8911   24.2602 C   0  0  0  0  0  0  0  0  0  0  0  0
  -32.1449  -23.5692   23.3967 C   0  0  0  0  0  0  0  0  0  0  0  0
  -32.0581  -16.6188   22.5453 C   0  0  0  0  0  0  0  0  0  0  0  0
  -20.3441   -5.9563   25.0040 C   0  0  0  0  0  0  0  0  0  0  0  0
  -23.8278  -10.4478   20.9649 C   0  0  0  0  0  0  0  0  0  0  0  0
  -24.1687  -12.9727   20.8382 C   0  0  0  0  0  0  0  0  0  0  0  0
  -39.3980  -27.7770   19.8197 C   0  0  0  0  0  0  0  0  0  0  0  0
  -33.1958  -24.1371   21.2913 C   0  0  0  0  0  0  0  0  0  0  0  0
  -38.6213  -26.7778   20.4367 C   0  0  0  0  0  0  0  0  0  0  0  0
  -32.5641  -24.5416   22.4760 C   0  0  0  0  0  0  0  0  0  0  0  0
  -31.8439  -18.3753   24.1902 C   0  0  0  0  0  0  0  0  0  0  0  0
  -30.6724  -16.5983   22.3867 C   0  0  0  0  0  0  0  0  0  0  0  0
  -22.3402   -8.1423   21.4692 C   0  0  0  0  0  0  0  0  0  0  0  0
  -32.3398  -22.2129   23.1368 C   0  0  0  0  0  0  0  0  0  0  0  0
  -20.8615   -6.9791   22.8772 C   0  0  0  0  0  0  0  0  0  0  0  0
  -19.3442   -6.9053   25.2171 C   0  0  0  0  0  0  0  0  0  0  0  0
  -32.6439  -17.5073   23.4471 C   0  0  0  0  0  0  0  0  0  0  0  0
  -21.1027   -5.9932   23.8341 C   0  0  0  0  0  0  0  0  0  0  0  0
  -24.5968  -11.6382   20.7050 C   0  0  0  0  0  0  0  0  0  0  0  0
  -25.2611  -13.7216   20.4745 C   0  0  0  0  0  0  0  0  0  0  0  0
  -22.8974  -13.4892   21.2538 C   0  0  0  0  0  0  0  0  0  0  0  0
  -35.1400  -26.6239   21.6652 C   0  0  0  0  0  0  0  0  0  0  0  0
  -32.3581  -28.2903   21.7461 C   0  0  0  0  0  0  0  0  0  0  0  0
  -28.9974  -28.2909   22.3399 C   0  0  0  0  0  0  0  0  0  0  0  0
  -30.7266  -14.7701   20.6544 C   0  0  0  0  0  0  0  0  0  0  0  0
  -39.2845  -29.2278   20.2160 C   0  0  0  0  0  0  0  0  0  0  0  0
  -33.6335  -25.1562   20.2752 C   0  0  0  0  0  0  0  0  0  0  0  0
  -32.3295  -25.9951   22.7932 C   0  0  0  0  0  0  0  0  0  0  0  0
  -38.0025  -29.5524   20.9786 C   0  0  0  0  0  0  0  0  0  0  0  0
  -29.6168  -12.3491   18.2913 C   0  0  0  0  0  0  0  0  0  0  0  0
  -37.7543  -28.5168   22.0707 C   0  0  0  0  0  0  0  0  0  0  0  0
  -28.1766  -12.0581   18.7196 C   0  0  0  0  0  0  0  0  0  0  0  0
  -30.5300  -12.5817   19.4937 C   0  0  0  0  0  0  0  0  0  0  0  0
  -28.6206  -13.3093   20.8700 C   0  0  0  0  0  0  0  0  0  0  0  0
  -37.5711  -27.1169   21.4722 C   0  0  1  0  0  0  0  0  0  0  0  0
  -33.8637  -26.5391   20.8768 C   0  0  1  0  0  0  0  0  0  0  0  0
  -27.6497  -13.1322   19.6912 C   0  0  2  0  0  0  0  0  0  0  0  0
  -27.0006  -29.8108   22.3591 C   0  0  0  0  0  0  0  0  0  0  0  0
  -33.2959  -29.4850   24.3924 C   0  0  0  0  0  0  0  0  0  0  0  0
  -30.9392  -30.2150   24.8180 C   0  0  0  0  0  0  0  0  0  0  0  0
  -32.1841  -31.1097   22.8502 C   0  0  0  0  0  0  0  0  0  0  0  0
  -27.6304  -26.7124   20.2427 C   0  0  0  0  0  0  0  0  0  0  0  0
  -32.4719  -19.3345   25.1661 C   0  0  0  0  0  0  0  0  0  0  0  0
  -31.3933  -28.7084   22.8294 C   0  0  1  0  0  0  0  0  0  0  0  0
  -27.8325  -28.8397   21.5359 C   0  0  2  0  0  0  0  0  0  0  0  0
  -31.9591  -29.8521   23.7177 C   0  0  0  0  0  0  0  0  0  0  0  0
  -25.8623  -11.5418   20.2888 N   0  0  0  0  0  0  0  0  0  0  0  0
  -26.2388  -12.8251   20.1574 N   0  0  0  0  0  0  0  0  0  0  0  0
  -32.7809  -26.9538   21.7711 N   0  0  0  0  0  0  0  0  0  0  0  0
  -29.9692  -13.6148   20.3673 N   0  0  0  0  0  0  0  0  0  0  0  0
  -25.4711  -15.0530   20.3980 N   0  0  0  0  0  0  0  0  0  0  0  0
  -21.8854  -12.5805   21.5921 N   0  0  0  0  0  0  0  0  0  0  0  0
  -30.0776  -15.6972   21.4692 N   0  0  0  0  0  0  0  0  0  0  0  0
  -36.2439  -26.9762   20.9125 N   0  0  0  0  0  0  0  0  0  0  0  0
  -30.1417  -29.0381   22.1563 N   0  0  0  0  0  0  0  0  0  0  0  0
  -33.0640  -20.4820   24.4935 N   0  0  0  0  0  0  0  0  0  1  0  0
  -26.9474  -27.7297   21.0827 N   0  3  0  0  0  0  0  0  0  0  0  0
  -22.6605  -14.7198   21.3073 O   0  0  0  0  0  0  0  0  0  0  0  0
  -35.1240  -26.3887   22.8678 O   0  0  0  0  0  0  0  0  0  0  0  0
  -32.7175  -29.1173   20.9043 O   0  0  0  0  0  0  0  0  0  0  0  0
  -28.9008  -27.3009   23.0617 O   0  0  0  0  0  0  0  0  0  0  0  0
  -31.8563  -14.9380   20.1880 O   0  0  0  0  0  0  0  0  0  0  0  0
  -21.6144   -7.0176   21.7156 O   0  0  0  0  0  0  0  0  0  0  0  0
  -31.9266  -21.2807   24.0380 O   0  0  0  0  0  0  0  0  0  1  0  0
  -18.6166   -6.8709   26.3411 F   0  0  0  0  0  0  0  0  0  0  0  0
  -33.9762  -17.5195   23.5926 F   0  0  0  0  0  0  0  0  0  0  0  0
  -22.0628   -5.0796   23.6355 F   0  0  0  0  0  0  0  0  0  0  0  0
  1  2  1  0  0  0  0
  1  5  2  0  0  0  0
  2  6  2  0  0  0  0
  3 10  2  0  0  0  0
  3 18  1  0  0  0  0
  4 11  1  0  0  0  0
  4 18  2  0  0  0  0
  5 20  1  0  0  0  0
  6 22  1  0  0  0  0
  7 12  2  0  0  0  0
  7 21  1  0  0  0  0
  8  9  2  0  0  0  0
  8 24  1  0  0  0  0
  9 25  1  0  0  0  0
 10 26  1  0  0  0  0
 11 26  2  0  0  0  0
 12 27  1  0  0  0  0
 13 14  2  0  0  0  0
 13 28  1  0  0  0  0
 14 29  1  0  0  0  0
 15 23  1  0  0  0  0
 15 27  2  0  0  0  0
 16 25  2  0  0  0  0
 16 30  1  0  0  0  0
 17 29  2  0  0  0  0
 17 31  1  0  0  0  0
 18 32  1  0  0  0  0
 19 32  1  0  0  0  0
 19 33  2  0  0  0  0
 19 34  1  0  0  0  0
 20 22  2  0  0  0  0
 20 39  1  0  0  0  0
 21 23  2  0  0  0  0
 21 40  1  0  0  0  0
 22 48  1  0  0  0  0
 23 41  1  0  0  0  0
 24 30  2  0  0  0  0
 24 56  1  0  0  0  0
 25 66  1  0  0  0  0
 26 76  1  0  0  0  0
 27 77  1  0  0  0  0
 28 31  2  0  0  0  0
 28 76  1  0  0  0  0
 29 78  1  0  0  0  0
 30 79  1  0  0  0  0
 31 80  1  0  0  0  0
 32 60  2  0  0  0  0
 33 61  1  0  0  0  0
 33 64  1  0  0  0  0
 34 65  1  0  0  0  0
 34 71  2  0  0  0  0
 35 49  1  0  0  0  0
 35 67  1  0  0  0  0
 35 72  2  0  0  0  0
 36 57  1  0  0  0  0
 36 62  1  0  0  0  0
 36 73  2  0  0  0  0
 37 58  1  0  0  0  0
 37 68  1  0  0  0  0
 37 74  2  0  0  0  0
 38 63  1  0  0  0  0
 38 66  1  0  0  0  0
 38 75  2  0  0  0  0
 39 42  1  0  0  0  0
 40 49  1  0  0  0  0
 41 62  1  0  0  0  0
 42 44  1  0  0  0  0
 43 45  1  0  0  0  0
 43 46  1  0  0  0  0
 44 48  1  0  0  0  0
 45 50  1  0  0  0  0
 46 63  1  0  0  0  0
 47 50  1  0  0  0  0
 47 63  1  0  0  0  0
 48 67  1  0  0  0  0
 49 62  1  0  0  0  0
 50 61  1  0  0  0  0
 51 58  1  0  0  0  0
 52 59  1  0  0  0  0
 53 59  1  0  0  0  0
 54 59  1  0  0  0  0
 55 70  1  0  0  0  0
 56 69  1  0  0  0  0
 57 59  1  0  0  0  0
 57 68  1  0  0  0  0
 58 70  1  0  0  0  0
 60 61  1  0  0  0  0
 69 77  1  0  0  0  0
M  CHG  1  70   1
M  ISO  4  38 100  66 100  69 101  77 101
M  END
> <Batch ID>
0006

> <Smiles>
CNC(C)C(=O)NC(C(=O)N1Cc2cc([101O:1][101NH:1]Cc3ccc([100NH:0][100C:0](=O)N4CCCC(n5nc(-c6ccc(Oc7ccc(F)cc7F)cc6)c(C(N)=O)c5N)C4)cc3F)ccc2CC1C(=O)NC1CCCc2ccccc21)C(C)(C)C

> <Shape>
0.197

> <Color>
0.205

> <Negative vol penalty>
0.000

$$$$

  -OEChem-04042320293D

 82 90  0     1  0  0  0  0  0999 V2000
  -40.1408  -23.5651   19.7448 C   0  0  0  0  0  0  0  0  0  0  0  0
  -38.7805  -23.3514   19.9429 C   0  0  0  0  0  0  0  0  0  0  0  0
  -23.0929   -9.8327   19.9523 C   0  0  0  0  0  0  0  0  0  0  0  0
  -23.8438   -9.8724   22.2484 C   0  0  0  0  0  0  0  0  0  0  0  0
  -40.6600  -24.8571   19.8164 C   0  0  0  0  0  0  0  0  0  0  0  0
  -37.9387  -24.4295   20.2137 C   0  0  0  0  0  0  0  0  0  0  0  0
  -33.6399  -24.2567   17.5424 C   0  0  0  0  0  0  0  0  0  0  0  0
  -22.3615   -8.6737   20.2115 C   0  0  0  0  0  0  0  0  0  0  0  0
  -23.1123   -8.7134   22.5076 C   0  0  0  0  0  0  0  0  0  0  0  0
  -32.6495  -23.3813   17.9858 C   0  0  0  0  0  0  0  0  0  0  0  0
  -19.8912   -7.8845   23.1062 C   0  0  0  0  0  0  0  0  0  0  0  0
  -19.1303   -7.8480   24.2746 C   0  0  0  0  0  0  0  0  0  0  0  0
  -31.4943  -25.2253   19.0270 C   0  0  0  0  0  0  0  0  0  0  0  0
  -29.6092  -19.3520   22.2922 C   0  0  0  0  0  0  0  0  0  0  0  0
  -31.0791  -17.7436   20.5502 C   0  0  0  0  0  0  0  0  0  0  0  0
  -20.3911   -5.9328   25.0360 C   0  0  0  0  0  0  0  0  0  0  0  0
  -23.8341  -10.4321   20.9707 C   0  0  0  0  0  0  0  0  0  0  0  0
  -24.1472  -12.9596   20.8256 C   0  0  0  0  0  0  0  0  0  0  0  0
  -39.8226  -25.9528   20.0786 C   0  0  0  0  0  0  0  0  0  0  0  0
  -33.5705  -25.6235   17.8478 C   0  0  0  0  0  0  0  0  0  0  0  0
  -38.4473  -25.7373   20.2902 C   0  0  0  0  0  0  0  0  0  0  0  0
  -32.4837  -26.1164   18.5842 C   0  0  0  0  0  0  0  0  0  0  0  0
  -29.4431  -17.9673   22.3138 C   0  0  0  0  0  0  0  0  0  0  0  0
  -30.1781  -17.1630   21.4428 C   0  0  0  0  0  0  0  0  0  0  0  0
  -22.3711   -8.1140   21.4891 C   0  0  0  0  0  0  0  0  0  0  0  0
  -31.5780  -23.8651   18.7307 C   0  0  0  0  0  0  0  0  0  0  0  0
  -20.9021   -6.9451   22.9026 C   0  0  0  0  0  0  0  0  0  0  0  0
  -30.5101  -19.9326   21.3995 C   0  0  0  0  0  0  0  0  0  0  0  0
  -19.3802   -6.8722   25.2395 C   0  0  0  0  0  0  0  0  0  0  0  0
  -31.2451  -19.1284   20.5285 C   0  0  0  0  0  0  0  0  0  0  0  0
  -21.1521   -5.9693   23.8675 C   0  0  0  0  0  0  0  0  0  0  0  0
  -24.5904  -11.6290   20.7035 C   0  0  0  0  0  0  0  0  0  0  0  0
  -25.2321  -13.7179   20.4587 C   0  0  0  0  0  0  0  0  0  0  0  0
  -22.8692  -13.4650   21.2344 C   0  0  0  0  0  0  0  0  0  0  0  0
  -35.3933  -27.6527   19.4798 C   0  0  0  0  0  0  0  0  0  0  0  0
  -33.2922  -29.8468   18.3423 C   0  0  0  0  0  0  0  0  0  0  0  0
  -30.1727  -30.5143   17.1301 C   0  0  0  0  0  0  0  0  0  0  0  0
  -30.6851  -14.8286   20.6430 C   0  0  0  0  0  0  0  0  0  0  0  0
  -40.4373  -27.3253   20.1932 C   0  0  0  0  0  0  0  0  0  0  0  0
  -34.6330  -26.5590   17.3394 C   0  0  0  0  0  0  0  0  0  0  0  0
  -32.3521  -27.5783   18.9215 C   0  0  0  0  0  0  0  0  0  0  0  0
  -39.4172  -28.4581   20.1136 C   0  0  0  0  0  0  0  0  0  0  0  0
  -29.6079  -12.3775   18.2959 C   0  0  0  0  0  0  0  0  0  0  0  0
  -38.2188  -28.1613   21.0095 C   0  0  0  0  0  0  0  0  0  0  0  0
  -28.1700  -12.0737   18.7231 C   0  0  0  0  0  0  0  0  0  0  0  0
  -30.5156  -12.6294   19.4986 C   0  0  0  0  0  0  0  0  0  0  0  0
  -28.5950  -13.3460   20.8650 C   0  0  0  0  0  0  0  0  0  0  0  0
  -37.4980  -26.8841   20.5616 C   0  0  1  0  0  0  0  0  0  0  0  0
  -34.7287  -27.8498   18.1467 C   0  0  1  0  0  0  0  0  0  0  0  0
  -27.6289  -13.1493   19.6854 C   0  0  2  0  0  0  0  0  0  0  0  0
  -28.4710  -17.3727   23.2804 C   0  0  0  0  0  0  0  0  0  0  0  0
  -28.7365  -32.4071   16.3224 C   0  0  0  0  0  0  0  0  0  0  0  0
  -32.8730  -30.7555   21.2247 C   0  0  0  0  0  0  0  0  0  0  0  0
  -30.7966  -31.9375   20.4766 C   0  0  0  0  0  0  0  0  0  0  0  0
  -33.0144  -32.6125   19.5556 C   0  0  0  0  0  0  0  0  0  0  0  0
  -29.8833  -29.3025   14.4455 C   0  0  0  0  0  0  0  0  0  0  0  0
  -29.9498  -23.3476   20.3851 C   0  0  0  0  0  0  0  0  0  1  0  0
  -29.5196  -22.0712   21.0818 C   0  0  0  0  0  0  0  0  0  0  0  0
  -31.9828  -30.4232   18.8240 C   0  0  1  0  0  0  0  0  0  0  0  0
  -29.7101  -31.3094   15.9225 C   0  0  2  0  0  0  0  0  0  0  0  0
  -32.1699  -31.4043   20.0157 C   0  0  0  0  0  0  0  0  0  0  0  0
  -25.8579  -11.5435   20.2910 N   0  0  0  0  0  0  0  0  0  0  0  0
  -26.2204  -12.8300   20.1507 N   0  0  0  0  0  0  0  0  0  0  0  0
  -33.4196  -28.4520   18.4071 N   0  0  0  0  0  0  0  0  0  0  0  0
  -29.9413  -13.6627   20.3630 N   0  0  0  0  0  0  0  0  0  0  0  0
  -25.4273  -15.0509   20.3725 N   0  0  0  0  0  0  0  0  0  0  0  0
  -21.8666  -12.5477   21.5773 N   0  0  0  0  0  0  0  0  0  0  0  0
  -30.0239  -15.7545   21.4493 N   0  0  0  0  0  0  0  0  0  0  0  0
  -36.6772  -27.1482   19.3993 N   0  0  0  0  0  0  0  0  0  0  0  0
  -31.3440  -31.0180   17.6551 N   0  0  0  0  0  0  0  0  0  0  0  0
  -29.0326  -30.4148   14.9418 N   0  3  0  0  0  0  0  0  0  0  0  0
  -22.6186  -14.6933   21.2779 O   0  0  0  0  0  0  0  0  0  0  0  0
  -34.7868  -27.9388   20.5055 O   0  0  0  0  0  0  0  0  0  0  0  0
  -34.1670  -30.6055   17.9172 O   0  0  0  0  0  0  0  0  0  0  0  0
  -29.5546  -29.5458   17.5665 O   0  0  0  0  0  0  0  0  0  0  0  0
  -31.8139  -15.0055   20.1779 O   0  0  0  0  0  0  0  0  0  0  0  0
  -21.6573   -6.9832   21.7425 O   0  0  0  0  0  0  0  0  0  0  0  0
  -30.6103  -23.0127   19.1653 O   0  0  0  0  0  0  0  0  0  1  0  0
  -30.6724  -21.2929   21.3792 O   0  0  0  0  0  0  0  0  0  0  0  0
  -18.6504   -6.8382   26.3622 F   0  0  0  0  0  0  0  0  0  0  0  0
  -32.1123  -19.6804   19.6687 F   0  0  0  0  0  0  0  0  0  0  0  0
  -22.1226   -5.0650   23.6781 F   0  0  0  0  0  0  0  0  0  0  0  0
  1  2  1  0  0  0  0
  1  5  2  0  0  0  0
  2  6  2  0  0  0  0
  3  8  2  0  0  0  0
  3 17  1  0  0  0  0
  4  9  1  0  0  0  0
  4 17  2  0  0  0  0
  5 19  1  0  0  0  0
  6 21  1  0  0  0  0
  7 10  2  0  0  0  0
  7 20  1  0  0  0  0
  8 25  1  0  0  0  0
  9 25  2  0  0  0  0
 10 26  1  0  0  0  0
 11 12  2  0  0  0  0
 11 27  1  0  0  0  0
 12 29  1  0  0  0  0
 13 22  1  0  0  0  0
 13 26  2  0  0  0  0
 14 23  2  0  0  0  0
 14 28  1  0  0  0  0
 15 24  2  0  0  0  0
 15 30  1  0  0  0  0
 16 29  2  0  0  0  0
 16 31  1  0  0  0  0
 17 32  1  0  0  0  0
 18 32  1  0  0  0  0
 18 33  2  0  0  0  0
 18 34  1  0  0  0  0
 19 21  2  0  0  0  0
 19 39  1  0  0  0  0
 20 22  2  0  0  0  0
 20 40  1  0  0  0  0
 21 48  1  0  0  0  0
 22 41  1  0  0  0  0
 23 24  1  0  0  0  0
 23 51  1  0  0  0  0
 24 68  1  0  0  0  0
 25 77  1  0  0  0  0
 26 78  1  0  0  0  0
 27 31  2  0  0  0  0
 27 77  1  0  0  0  0
 28 30  2  0  0  0  0
 28 79  1  0  0  0  0
 29 80  1  0  0  0  0
 30 81  1  0  0  0  0
 31 82  1  0  0  0  0
 32 62  2  0  0  0  0
 33 63  1  0  0  0  0
 33 66  1  0  0  0  0
 34 67  1  0  0  0  0
 34 72  2  0  0  0  0
 35 49  1  0  0  0  0
 35 69  1  0  0  0  0
 35 73  2  0  0  0  0
 36 59  1  0  0  0  0
 36 64  1  0  0  0  0
 36 74  2  0  0  0  0
 37 60  1  0  0  0  0
 37 70  1  0  0  0  0
 37 75  2  0  0  0  0
 38 65  1  0  0  0  0
 38 68  1  0  0  0  0
 38 76  2  0  0  0  0
 39 42  1  0  0  0  0
 40 49  1  0  0  0  0
 41 64  1  0  0  0  0
 42 44  1  0  0  0  0
 43 45  1  0  0  0  0
 43 46  1  0  0  0  0
 44 48  1  0  0  0  0
 45 50  1  0  0  0  0
 46 65  1  0  0  0  0
 47 50  1  0  0  0  0
 47 65  1  0  0  0  0
 48 69  1  0  0  0  0
 49 64  1  0  0  0  0
 50 63  1  0  0  0  0
 52 60  1  0  0  0  0
 53 61  1  0  0  0  0
 54 61  1  0  0  0  0
 55 61  1  0  0  0  0
 56 71  1  0  0  0  0
 57 58  1  0  0  0  0
 57 78  1  0  0  0  0
 58 79  1  0  0  0  0
 59 61  1  0  0  0  0
 59 70  1  0  0  0  0
 60 71  1  0  0  0  0
 62 63  1  0  0  0  0
M  CHG  1  71   1
M  ISO  4  38 100  57 101  68 100  78 101
M  END
> <Batch ID>
0006

> <Smiles>
CNC(C)C(=O)NC(C(=O)N1Cc2cc([101O:1][101CH2:1]COc3cc(C)c([100NH:0][100C:0](=O)N4CCCC(n5nc(-c6ccc(Oc7ccc(F)cc7F)cc6)c(C(N)=O)c5N)C4)cc3F)ccc2CC1C(=O)NC1CCCc2ccccc21)C(C)(C)C

> <Shape>
0.213

> <Color>
0.197

> <Negative vol penalty>
0.000

$$$$

  -OEChem-04042320293D

 88 97  0     1  0  0  0  0  0999 V2000
  -30.2177  -39.7134   20.2154 C   0  0  0  0  0  0  0  0  0  0  0  0
  -31.0553  -38.6120   20.0709 C   0  0  0  0  0  0  0  0  0  0  0  0
  -22.3091   -9.8312   20.7898 C   0  0  0  0  0  0  0  0  0  0  0  0
  -24.5887  -10.2402   21.4778 C   0  0  0  0  0  0  0  0  0  0  0  0
  -29.2537  -39.7272   21.2226 C   0  0  0  0  0  0  0  0  0  0  0  0
  -30.9301  -37.5243   20.9343 C   0  0  0  0  0  0  0  0  0  0  0  0
  -29.7046  -29.9782   19.3273 C   0  0  0  0  0  0  0  0  0  0  0  0
  -31.2845  -18.2857   20.4628 C   0  0  0  0  0  0  0  0  0  0  0  0
  -22.4246   -8.5022   21.1972 C   0  0  0  0  0  0  0  0  0  0  0  0
  -24.7042   -8.9112   21.8852 C   0  0  0  0  0  0  0  0  0  0  0  0
  -29.3325  -28.6422   19.1763 C   0  0  0  0  0  0  0  0  0  0  0  0
  -22.3343   -6.7697   24.0994 C   0  0  0  0  0  0  0  0  0  0  0  0
  -30.5640  -17.4111   21.2762 C   0  0  0  0  0  0  0  0  0  0  0  0
  -21.2848   -6.2249   24.8392 C   0  0  0  0  0  0  0  0  0  0  0  0
  -28.3544  -28.6536   21.3879 C   0  0  0  0  0  0  0  0  0  0  0  0
  -29.8759  -17.7029   18.5884 C   0  0  0  0  0  0  0  0  0  0  0  0
  -20.9514   -4.5485   23.1317 C   0  0  0  0  0  0  0  0  0  0  0  0
  -23.3912  -10.7002   20.9300 C   0  0  0  0  0  0  0  0  0  0  0  0
  -22.3615  -13.0335   20.9875 C   0  0  0  0  0  0  0  0  0  0  0  0
  -29.1102  -38.6350   22.0927 C   0  0  0  0  0  0  0  0  0  0  0  0
  -29.3890  -30.6623   20.5046 C   0  0  0  0  0  0  0  0  0  0  0  0
  -29.9642  -37.5241   21.9550 C   0  0  0  0  0  0  0  0  0  0  0  0
  -28.7135  -29.9955   21.5399 C   0  0  0  0  0  0  0  0  0  0  0  0
  -30.9404  -18.4316   19.1189 C   0  0  0  0  0  0  0  0  0  0  0  0
  -29.1554  -16.8283   19.4018 C   0  0  0  0  0  0  0  0  0  0  0  0
  -23.6221   -8.0422   21.7449 C   0  0  0  0  0  0  0  0  0  0  0  0
  -28.6593  -27.9815   20.2042 C   0  0  0  0  0  0  0  0  0  0  0  0
  -22.6923   -6.2039   22.8757 C   0  0  0  0  0  0  0  0  0  0  0  0
  -20.5933   -5.1143   24.3554 C   0  0  0  0  0  0  0  0  0  0  0  0
  -29.4995  -16.6824   20.7457 C   0  0  0  0  0  0  0  0  0  0  0  0
  -22.0009   -5.0933   22.3919 C   0  0  0  0  0  0  0  0  0  0  0  0
  -23.2727  -12.0730   20.5089 C   0  0  0  0  0  0  0  0  0  0  0  0
  -22.6542  -14.1700   20.2741 C   0  0  0  0  0  0  0  0  0  0  0  0
  -21.3416  -12.9093   21.9876 C   0  0  0  0  0  0  0  0  0  0  0  0
  -29.5376  -33.8836   22.4221 C   0  0  0  0  0  0  0  0  0  0  0  0
  -26.7607  -32.6784   22.9186 C   0  0  0  0  0  0  0  0  0  0  0  0
  -23.4502  -32.1470   23.5471 C   0  0  0  0  0  0  0  0  0  0  0  0
  -27.6026  -16.1183   17.5495 C   0  0  0  0  0  0  0  0  0  0  0  0
  -28.0852  -38.7157   23.1961 C   0  0  0  0  0  0  0  0  0  0  0  0
  -29.8244  -32.0839   20.7352 C   0  0  0  0  0  0  0  0  0  0  0  0
  -28.4255  -30.7612   22.8023 C   0  0  0  0  0  0  0  0  0  0  0  0
  -27.7678  -37.3650   23.8326 C   0  0  0  0  0  0  0  0  0  0  0  0
  -24.4145  -15.5929   16.0538 C   0  0  0  0  0  0  0  0  0  0  0  0
  -29.0538  -36.6039   24.1390 C   0  0  0  0  0  0  0  0  0  0  0  0
  -23.6748  -14.7231   17.0728 C   0  0  0  0  0  0  0  0  0  0  0  0
  -32.2226  -23.1923   18.1147 C   0  0  0  0  0  0  0  0  0  0  0  0
  -25.8973  -15.2348   15.9726 C   0  0  0  0  0  0  0  0  0  0  0  0
  -31.2735  -23.6775   19.2104 C   0  0  0  0  0  0  0  0  0  0  0  0
  -29.3442  -22.1975   18.8228 C   0  0  0  0  0  0  0  0  0  0  0  0
  -25.8675  -14.3646   18.2772 C   0  0  0  0  0  0  0  0  0  0  0  0
  -32.5433  -21.7030   18.1039 C   0  0  0  0  0  0  0  0  0  0  0  0
  -30.0643  -21.2147   17.9005 C   0  0  0  0  0  0  0  0  0  0  0  0
  -29.8426  -36.3145   22.8563 C   0  0  1  0  0  0  0  0  0  0  0  0
  -28.8086  -32.9009   21.5536 C   0  0  1  0  0  0  0  0  0  0  0  0
  -24.3837  -14.7321   18.4414 C   0  0  2  0  0  0  0  0  0  0  0  0
  -21.6532  -32.6730   25.2179 C   0  0  0  0  0  0  0  0  0  0  0  0
  -27.9347  -30.6088   24.8272 C   0  0  0  0  0  0  0  0  0  0  0  0
  -25.7006  -30.4811   25.9500 C   0  0  0  0  0  0  0  0  0  0  0  0
  -26.9700  -32.6285   25.9428 C   0  0  0  0  0  0  0  0  0  0  0  0
  -21.8257  -33.5722   21.5250 C   0  0  0  0  0  0  0  0  0  0  0  0
  -31.7162  -19.3720   18.2444 C   0  0  0  0  0  0  0  0  0  0  0  0
  -29.0310  -24.4206   19.6606 C   0  0  0  0  0  0  0  0  0  0  0  0
  -29.1213  -25.8697   19.2122 C   0  0  0  0  0  0  0  0  0  1  0  0
  -25.8955  -31.8167   23.8031 C   0  0  1  0  0  0  0  0  0  0  0  0
  -22.3308  -33.1001   23.9252 C   0  0  2  0  0  0  0  0  0  0  0  0
  -26.6277  -31.3787   25.1029 C   0  0  0  0  0  0  0  0  0  0  0  0
  -24.0835  -12.5572   19.5643 N   0  0  0  0  0  0  0  0  0  0  0  0
  -23.6827  -13.8343   19.4436 N   0  0  0  0  0  0  0  0  0  0  0  0
  -27.9641  -32.1187   22.4722 N   0  0  0  0  0  0  0  0  0  0  0  0
  -26.5034  -15.2680   17.3055 N   0  0  0  0  0  0  0  0  0  0  0  0
  -29.8652  -23.5696   18.8050 N   0  0  1  0  0  0  0  0  0  0  0  0
  -22.1296  -15.4139   20.2824 N   0  0  0  0  0  0  0  0  0  0  0  0
  -21.1756  -11.6708   22.6224 N   0  0  0  0  0  0  0  0  0  0  0  0
  -28.0738  -16.0893   18.8617 N   0  0  0  0  0  0  0  0  0  0  0  0
  -29.2514  -35.2054   22.1387 N   0  0  0  0  0  0  0  0  0  0  0  0
  -24.6685  -32.5713   24.0338 N   0  0  0  0  0  0  0  0  0  0  0  0
  -31.3912  -20.8228   18.5018 N   0  3  1  0  0  0  0  0  0  0  0  0
  -21.3021  -33.1443   22.8478 N   0  3  0  0  0  0  0  0  0  0  0  0
  -20.5888  -13.8637   22.2972 O   0  0  0  0  0  0  0  0  0  0  0  0
  -30.3028  -33.4739   23.2871 O   0  0  0  0  0  0  0  0  0  0  0  0
  -26.3850  -33.8191   22.6343 O   0  0  0  0  0  0  0  0  0  0  0  0
  -23.2620  -31.1260   22.8892 O   0  0  0  0  0  0  0  0  0  0  0  0
  -28.0727  -16.8408   16.6669 O   0  0  0  0  0  0  0  0  0  0  0  0
  -23.7351   -6.7454   22.1428 O   0  0  0  0  0  0  0  0  0  0  0  0
  -28.2950  -26.6785   20.0484 O   0  0  0  0  0  0  0  0  0  1  0  0
  -19.5865   -4.5903   25.0666 F   0  0  0  0  0  0  0  0  0  0  0  0
  -28.8145  -15.8443   21.5368 F   0  0  0  0  0  0  0  0  0  0  0  0
  -22.3410   -4.5447   21.2175 F   0  0  0  0  0  0  0  0  0  0  0  0
  1  2  1  0  0  0  0
  1  5  2  0  0  0  0
  2  6  2  0  0  0  0
  3  9  2  0  0  0  0
  3 18  1  0  0  0  0
  4 10  1  0  0  0  0
  4 18  2  0  0  0  0
  5 20  1  0  0  0  0
  6 22  1  0  0  0  0
  7 11  2  0  0  0  0
  7 21  1  0  0  0  0
  8 13  2  0  0  0  0
  8 24  1  0  0  0  0
  9 26  1  0  0  0  0
 10 26  2  0  0  0  0
 11 27  1  0  0  0  0
 12 14  2  0  0  0  0
 12 28  1  0  0  0  0
 13 30  1  0  0  0  0
 14 29  1  0  0  0  0
 15 23  1  0  0  0  0
 15 27  2  0  0  0  0
 16 24  2  0  0  0  0
 16 25  1  0  0  0  0
 17 29  2  0  0  0  0
 17 31  1  0  0  0  0
 18 32  1  0  0  0  0
 19 32  1  0  0  0  0
 19 33  2  0  0  0  0
 19 34  1  0  0  0  0
 20 22  2  0  0  0  0
 20 39  1  0  0  0  0
 21 23  2  0  0  0  0
 21 40  1  0  0  0  0
 22 53  1  0  0  0  0
 23 41  1  0  0  0  0
 24 61  1  0  0  0  0
 25 30  2  0  0  0  0
 25 74  1  0  0  0  0
 26 84  1  0  0  0  0
 27 85  1  0  0  0  0
 28 31  2  0  0  0  0
 28 84  1  0  0  0  0
 29 86  1  0  0  0  0
 30 87  1  0  0  0  0
 31 88  1  0  0  0  0
 32 67  2  0  0  0  0
 33 68  1  0  0  0  0
 33 72  1  0  0  0  0
 34 73  1  0  0  0  0
 34 79  2  0  0  0  0
 35 54  1  0  0  0  0
 35 75  1  0  0  0  0
 35 80  2  0  0  0  0
 36 64  1  0  0  0  0
 36 69  1  0  0  0  0
 36 81  2  0  0  0  0
 37 65  1  0  0  0  0
 37 76  1  0  0  0  0
 37 82  2  0  0  0  0
 38 70  1  0  0  0  0
 38 74  1  0  0  0  0
 38 83  2  0  0  0  0
 39 42  1  0  0  0  0
 40 54  1  0  0  0  0
 41 69  1  0  0  0  0
 42 44  1  0  0  0  0
 43 45  1  0  0  0  0
 43 47  1  0  0  0  0
 44 53  1  0  0  0  0
 45 55  1  0  0  0  0
 46 48  1  0  0  0  0
 46 51  1  0  0  0  0
 47 70  1  0  0  0  0
 48 71  1  0  0  0  0
 49 52  1  0  0  0  0
 49 71  1  0  0  0  0
 50 55  1  0  0  0  0
 50 70  1  0  0  0  0
 51 77  1  0  0  0  0
 52 77  1  0  0  0  0
 53 75  1  0  0  0  0
 54 69  1  0  0  0  0
 55 68  1  0  0  0  0
 56 65  1  0  0  0  0
 57 66  1  0  0  0  0
 58 66  1  0  0  0  0
 59 66  1  0  0  0  0
 60 78  1  0  0  0  0
 61 77  1  0  0  0  0
 62 63  1  0  0  0  0
 62 71  1  0  0  0  0
 63 85  1  0  0  0  0
 64 66  1  0  0  0  0
 64 76  1  0  0  0  0
 65 78  1  0  0  0  0
 67 68  1  0  0  0  0
M  CHG  2  77   1  78   1
M  ISO  4  38 100  63 101  74 100  85 101
M  END
> <Batch ID>
0006

> <Smiles>
CNC(C)C(=O)NC(C(=O)N1Cc2cc([101O:1][101CH2:1]CN3CCCN(Cc4ccc(F)c([100NH:0][100C:0](=O)N5CCCC(n6nc(-c7ccc(Oc8ccc(F)cc8F)cc7)c(C(N)=O)c6N)C5)c4)CC3)ccc2CC1C(=O)NC1CCCc2ccccc21)C(C)(C)C

> <Shape>
0.258

> <Color>
0.086

> <Negative vol penalty>
0.000

$$$$

  -OEChem-04042320293D

 93102  0     1  0  0  0  0  0999 V2000
  -16.6034  -28.6103   23.8981 C   0  0  0  0  0  0  0  0  0  0  0  0
  -17.3849  -27.7289   23.1578 C   0  0  0  0  0  0  0  0  0  0  0  0
  -31.6695  -20.6821   19.1322 C   0  0  0  0  0  0  0  0  0  0  0  0
  -29.3391  -20.0451   19.1141 C   0  0  0  0  0  0  0  0  0  0  0  0
  -16.9796  -29.9481   24.0105 C   0  0  0  0  0  0  0  0  0  0  0  0
  -18.5426  -28.1852   22.5285 C   0  0  0  0  0  0  0  0  0  0  0  0
  -22.4670  -25.0496   23.1699 C   0  0  0  0  0  0  0  0  0  0  0  0
  -31.3716  -21.7947   18.3455 C   0  0  0  0  0  0  0  0  0  0  0  0
  -29.0411  -21.1577   18.3273 C   0  0  0  0  0  0  0  0  0  0  0  0
  -22.4996  -23.9007   22.3808 C   0  0  0  0  0  0  0  0  0  0  0  0
  -30.7555  -22.4475   15.0868 C   0  0  0  0  0  0  0  0  0  0  0  0
  -31.5945  -22.7197   14.0063 C   0  0  0  0  0  0  0  0  0  0  0  0
  -24.0726  -24.9711   20.8979 C   0  0  0  0  0  0  0  0  0  0  0  0
  -23.4490  -12.1959   20.8162 C   0  0  0  0  0  0  0  0  0  0  0  0
  -25.2424  -13.6762   21.4713 C   0  0  0  0  0  0  0  0  0  0  0  0
  -25.7225  -11.7007   20.1660 C   0  0  0  0  0  0  0  0  0  0  0  0
  -32.1205  -24.8771   14.9581 C   0  0  0  0  0  0  0  0  0  0  0  0
  -30.6533  -19.8073   19.5165 C   0  0  0  0  0  0  0  0  0  0  0  0
  -31.5330  -18.6538   21.6149 C   0  0  0  0  0  0  0  0  0  0  0  0
  -18.1477  -30.4188   23.3903 C   0  0  0  0  0  0  0  0  0  0  0  0
  -23.2299  -26.1737   22.8223 C   0  0  0  0  0  0  0  0  0  0  0  0
  -18.9341  -29.5309   22.6316 C   0  0  0  0  0  0  0  0  0  0  0  0
  -24.0499  -26.1321   21.6857 C   0  0  0  0  0  0  0  0  0  0  0  0
  -23.8867  -13.3478   21.4697 C   0  0  0  0  0  0  0  0  0  0  0  0
  -24.3669  -11.3723   20.1644 C   0  0  0  0  0  0  0  0  0  0  0  0
  -26.1603  -12.8527   20.8194 C   0  0  0  0  0  0  0  0  0  0  0  0
  -30.0573  -22.0325   17.9430 C   0  0  0  0  0  0  0  0  0  0  0  0
  -23.3003  -23.8623   21.2430 C   0  0  0  0  0  0  0  0  0  0  0  0
  -30.5989  -23.3902   16.1030 C   0  0  0  0  0  0  0  0  0  0  0  0
  -32.2770  -23.9344   13.9419 C   0  0  0  0  0  0  0  0  0  0  0  0
  -31.2814  -24.6049   16.0386 C   0  0  0  0  0  0  0  0  0  0  0  0
  -30.9606  -18.6575   20.3288 C   0  0  0  0  0  0  0  0  0  0  0  0
  -31.6186  -17.3242   21.9487 C   0  0  0  0  0  0  0  0  0  0  0  0
  -31.9500  -19.7537   22.4345 C   0  0  0  0  0  0  0  0  0  0  0  0
  -22.5209  -16.2829   20.8140 C   0  0  0  0  0  0  0  0  0  0  0  0
  -22.5642  -29.1812   22.0378 C   0  0  0  0  0  0  0  0  0  0  0  0
  -25.7901  -29.5089   22.1299 C   0  0  0  0  0  0  0  0  0  0  0  0
  -28.6624  -27.5977   21.0741 C   0  0  0  0  0  0  0  0  0  0  0  0
  -28.5789  -12.4780   20.2225 C   0  0  0  0  0  0  0  0  0  0  0  0
  -18.4884  -31.8839   23.5009 C   0  0  0  0  0  0  0  0  0  0  0  0
  -23.2043  -27.3958   23.6988 C   0  0  0  0  0  0  0  0  0  0  0  0
  -24.9035  -27.3049   21.2803 C   0  0  0  0  0  0  0  0  0  0  0  0
  -19.9298  -32.2049   23.1141 C   0  0  0  0  0  0  0  0  0  0  0  0
  -32.0934  -12.9893   19.9695 C   0  0  0  0  0  0  0  0  0  0  0  0
  -20.3007  -31.5064   21.8098 C   0  0  0  0  0  0  0  0  0  0  0  0
  -32.2544  -14.4997   20.1560 C   0  0  0  0  0  0  0  0  0  0  0  0
  -30.8296  -12.6465   19.1827 C   0  0  0  0  0  0  0  0  0  0  0  0
  -29.7523  -14.7436   19.8974 C   0  0  0  0  0  0  0  0  0  0  0  0
  -21.4413  -16.0741   18.5921 C   0  0  0  0  0  0  0  0  0  0  0  0
  -21.2756  -18.4482   18.0548 C   0  0  0  0  0  0  0  0  0  0  0  0
  -20.2101  -29.9825   21.9550 C   0  0  1  0  0  0  0  0  0  0  0  0
  -21.5726  -16.9218   19.8499 C   0  0  2  0  0  0  0  0  0  0  0  0
  -23.6271  -28.6654   22.9662 C   0  0  1  0  0  0  0  0  0  0  0  0
  -30.9772  -15.1347   20.7401 C   0  0  2  0  0  0  0  0  0  0  0  0
  -22.0905  -18.2560   19.3211 C   0  0  2  0  0  0  0  0  0  0  0  0
  -31.0093  -27.5545   21.9614 C   0  0  0  0  0  0  0  0  0  0  0  0
  -26.3398  -31.5830   19.9606 C   0  0  0  0  0  0  0  0  0  0  0  0
  -28.5604  -30.4919   19.5777 C   0  0  0  0  0  0  0  0  0  0  0  0
  -28.0405  -31.5141   21.7929 C   0  0  0  0  0  0  0  0  0  0  0  0
  -28.5739  -24.6692   21.4926 C   0  0  0  0  0  0  0  0  0  0  0  0
  -22.8986  -14.2341   22.1714 C   0  0  0  0  0  0  0  0  0  0  0  0
  -22.6847  -20.5111   19.8825 C   0  0  0  0  0  0  0  0  0  0  0  0
  -22.5227  -21.6435   20.8849 C   0  0  0  0  0  0  0  0  0  1  0  0
  -26.9096  -29.3524   21.1293 C   0  0  1  0  0  0  0  0  0  0  0  0
  -29.6503  -26.8721   21.9696 C   0  0  2  0  0  0  0  0  0  0  0  0
  -23.8986  -10.1407   19.4656 C   0  0  0  0  0  0  0  0  0  0  0  0
  -27.4385  -30.7203   20.6130 C   0  0  0  0  0  0  0  0  0  0  0  0
  -30.7010  -17.4279   19.8763 N   0  0  0  0  0  0  0  0  0  0  0  0
  -31.1123  -16.6391   20.8836 N   0  0  0  0  0  0  0  0  0  0  0  0
  -24.8393  -28.4792   22.1660 N   0  0  0  0  0  0  0  0  0  0  0  0
  -29.6598  -13.2787   19.7967 N   0  0  0  0  0  0  0  0  0  0  0  0
  -32.0769  -16.6860   23.0464 N   0  0  0  0  0  0  0  0  0  0  0  0
  -31.0199  -20.3195   23.3172 N   0  0  0  0  0  0  0  0  0  0  0  0
  -27.5374  -13.1863   20.8210 N   0  0  0  0  0  0  0  0  0  0  0  0
  -21.3658  -29.4725   22.6611 N   0  0  0  0  0  0  0  0  0  0  0  0
  -22.1288  -15.0286   21.2412 N   0  0  0  0  0  0  0  0  0  0  0  0
  -27.9227  -28.5257   21.7762 N   0  0  0  0  0  0  0  0  0  0  0  0
  -21.8922  -19.3493   20.2602 N   0  0  0  0  0  0  0  0  0  0  0  0
  -21.1757  -17.0620   17.4905 N   0  3  0  0  0  0  0  0  0  0  0  0
  -29.8282  -25.4651   21.5115 N   0  3  0  0  0  0  0  0  0  0  0  0
  -33.1082  -20.2316   22.3739 O   0  0  0  0  0  0  0  0  0  0  0  0
  -23.5373  -16.8806   21.1478 O   0  0  0  0  0  0  0  0  0  0  0  0
  -22.8134  -29.3070   20.8446 O   0  0  0  0  0  0  0  0  0  0  0  0
  -25.7644  -30.5045   22.8577 O   0  0  0  0  0  0  0  0  0  0  0  0
  -28.5598  -27.3671   19.8712 O   0  0  0  0  0  0  0  0  0  0  0  0
  -28.5892  -11.2513   20.0923 O   0  0  0  0  0  0  0  0  0  0  0  0
  -29.7662  -23.1182   17.1755 O   0  0  0  0  0  0  0  0  0  0  0  0
  -23.3334  -22.7423   20.4707 O   0  0  0  0  0  0  0  0  0  1  0  0
  -33.0839  -24.1950   12.9050 F   0  0  0  0  0  0  0  0  0  0  0  0
  -31.1359  -25.5140   17.0124 F   0  0  0  0  0  0  0  0  0  0  0  0
  -22.5491   -9.9453   19.5458 F   0  0  0  0  0  0  0  0  0  0  0  0
  -24.1811  -10.1295   18.1293 F   0  0  0  0  0  0  0  0  0  0  0  0
  -24.4635   -9.0046   19.9687 F   0  0  0  0  0  0  0  0  0  0  0  0
  1  2  1  0  0  0  0
  1  5  2  0  0  0  0
  2  6  2  0  0  0  0
  3  8  2  0  0  0  0
  3 18  1  0  0  0  0
  4  9  1  0  0  0  0
  4 18  2  0  0  0  0
  5 20  1  0  0  0  0
  6 22  1  0  0  0  0
  7 10  2  0  0  0  0
  7 21  1  0  0  0  0
  8 27  1  0  0  0  0
  9 27  2  0  0  0  0
 10 28  1  0  0  0  0
 11 12  2  0  0  0  0
 11 29  1  0  0  0  0
 12 30  1  0  0  0  0
 13 23  1  0  0  0  0
 13 28  2  0  0  0  0
 14 24  2  0  0  0  0
 14 25  1  0  0  0  0
 15 24  1  0  0  0  0
 15 26  2  0  0  0  0
 16 25  2  0  0  0  0
 16 26  1  0  0  0  0
 17 30  2  0  0  0  0
 17 31  1  0  0  0  0
 18 32  1  0  0  0  0
 19 32  1  0  0  0  0
 19 33  2  0  0  0  0
 19 34  1  0  0  0  0
 20 22  2  0  0  0  0
 20 40  1  0  0  0  0
 21 23  2  0  0  0  0
 21 41  1  0  0  0  0
 22 51  1  0  0  0  0
 23 42  1  0  0  0  0
 24 61  1  0  0  0  0
 25 66  1  0  0  0  0
 26 74  1  0  0  0  0
 27 87  1  0  0  0  0
 28 88  1  0  0  0  0
 29 31  2  0  0  0  0
 29 87  1  0  0  0  0
 30 89  1  0  0  0  0
 31 90  1  0  0  0  0
 32 68  2  0  0  0  0
 33 69  1  0  0  0  0
 33 72  1  0  0  0  0
 34 73  1  0  0  0  0
 34 81  2  0  0  0  0
 35 52  1  0  0  0  0
 35 76  1  0  0  0  0
 35 82  2  0  0  0  0
 36 53  1  0  0  0  0
 36 75  1  0  0  0  0
 36 83  2  0  0  0  0
 37 64  1  0  0  0  0
 37 70  1  0  0  0  0
 37 84  2  0  0  0  0
 38 65  1  0  0  0  0
 38 77  1  0  0  0  0
 38 85  2  0  0  0  0
 39 71  1  0  0  0  0
 39 74  1  0  0  0  0
 39 86  2  0  0  0  0
 40 43  1  0  0  0  0
 41 53  1  0  0  0  0
 42 70  1  0  0  0  0
 43 45  1  0  0  0  0
 44 46  1  0  0  0  0
 44 47  1  0  0  0  0
 45 51  1  0  0  0  0
 46 54  1  0  0  0  0
 47 71  1  0  0  0  0
 48 54  1  0  0  0  0
 48 71  1  0  0  0  0
 49 52  1  0  0  0  0
 49 79  1  0  0  0  0
 50 55  1  0  0  0  0
 50 79  1  0  0  0  0
 51 75  1  0  0  0  0
 52 55  1  0  0  0  0
 53 70  1  0  0  0  0
 54 69  1  0  0  0  0
 55 78  1  0  0  0  0
 56 65  1  0  0  0  0
 57 67  1  0  0  0  0
 58 67  1  0  0  0  0
 59 67  1  0  0  0  0
 60 80  1  0  0  0  0
 61 76  1  0  0  0  0
 62 63  1  0  0  0  0
 62 78  1  0  0  0  0
 63 88  1  0  0  0  0
 64 67  1  0  0  0  0
 64 77  1  0  0  0  0
 65 80  1  0  0  0  0
 66 91  1  0  0  0  0
 66 92  1  0  0  0  0
 66 93  1  0  0  0  0
 68 69  1  0  0  0  0
M  CHG  2  79   1  80   1
M  ISO  4  39 100  63 101  74 100  88 101
M  END
> <Batch ID>
0006

> <Smiles>
CNC(C)C(=O)NC(C(=O)N1Cc2cc([101O:1][101CH2:1]CNC3CNCC3C(=O)NCc3cc([100NH:0][100C:0](=O)N4CCCC(n5nc(-c6ccc(Oc7ccc(F)cc7F)cc6)c(C(N)=O)c5N)C4)cc(C(F)(F)F)c3)ccc2CC1C(=O)NC1CCCc2ccccc21)C(C)(C)C

> <Shape>
0.257

> <Color>
0.072

> <Negative vol penalty>
0.000

$$$$

  -OEChem-04042320293D

 84 92  0     1  0  0  0  0  0999 V2000
  -29.5200  -34.7712   17.5588 C   0  0  0  0  0  0  0  0  0  0  0  0
  -29.5541  -33.5733   18.2655 C   0  0  0  0  0  0  0  0  0  0  0  0
  -23.7023  -17.3411   21.7682 C   0  0  0  0  0  0  0  0  0  0  0  0
  -22.7338  -16.6040   19.6811 C   0  0  0  0  0  0  0  0  0  0  0  0
  -28.5528  -35.7293   17.8593 C   0  0  0  0  0  0  0  0  0  0  0  0
  -28.6215  -33.3334   19.2740 C   0  0  0  0  0  0  0  0  0  0  0  0
  -26.6641  -28.6687   19.0402 C   0  0  0  0  0  0  0  0  0  0  0  0
  -30.9150  -16.9875   19.5848 C   0  0  0  0  0  0  0  0  0  0  0  0
  -22.9369  -18.5058   21.7121 C   0  0  0  0  0  0  0  0  0  0  0  0
  -21.9683  -17.7687   19.6250 C   0  0  0  0  0  0  0  0  0  0  0  0
  -27.4485  -27.6240   19.5269 C   0  0  0  0  0  0  0  0  0  0  0  0
  -30.6729  -18.2951   19.1640 C   0  0  0  0  0  0  0  0  0  0  0  0
  -23.0353  -21.4753   20.1007 C   0  0  0  0  0  0  0  0  0  0  0  0
  -23.6714  -22.6825   20.3896 C   0  0  0  0  0  0  0  0  0  0  0  0
  -26.1921  -27.6480   21.5860 C   0  0  0  0  0  0  0  0  0  0  0  0
  -29.8790  -18.8595   21.3750 C   0  0  0  0  0  0  0  0  0  0  0  0
  -22.1422  -23.0492   22.2238 C   0  0  0  0  0  0  0  0  0  0  0  0
  -23.6008  -16.3902   20.7526 C   0  0  0  0  0  0  0  0  0  0  0  0
  -24.0355  -13.9632   21.4071 C   0  0  0  0  0  0  0  0  0  0  0  0
  -27.6018  -35.4969   18.8655 C   0  0  0  0  0  0  0  0  0  0  0  0
  -25.6432  -29.2192   19.8283 C   0  0  0  0  0  0  0  0  0  0  0  0
  -27.6414  -34.2899   19.5892 C   0  0  0  0  0  0  0  0  0  0  0  0
  -25.3945  -28.6980   21.1060 C   0  0  0  0  0  0  0  0  0  0  0  0
  -30.6390  -16.6158   20.9006 C   0  0  0  0  0  0  0  0  0  0  0  0
  -22.0698  -18.7196   20.6405 C   0  0  0  0  0  0  0  0  0  0  0  0
  -27.2145  -27.1153   20.8011 C   0  0  0  0  0  0  0  0  0  0  0  0
  -30.1550  -19.2311   20.0591 C   0  0  0  0  0  0  0  0  0  0  0  0
  -21.9526  -21.0550   20.8732 C   0  0  0  0  0  0  0  0  0  0  0  0
  -23.2249  -23.4695   21.4512 C   0  0  0  0  0  0  0  0  0  0  0  0
  -30.1210  -17.5518   21.7957 C   0  0  0  0  0  0  0  0  0  0  0  0
  -21.5061  -21.8420   21.9348 C   0  0  0  0  0  0  0  0  0  0  0  0
  -24.3917  -15.1871   20.8097 C   0  0  0  0  0  0  0  0  0  0  0  0
  -25.1193  -13.1475   21.1913 C   0  0  0  0  0  0  0  0  0  0  0  0
  -22.8324  -13.5963   22.0954 C   0  0  0  0  0  0  0  0  0  0  0  0
  -25.0612  -32.0913   21.0595 C   0  0  0  0  0  0  0  0  0  0  0  0
  -22.2541  -30.7192   21.9310 C   0  0  0  0  0  0  0  0  0  0  0  0
  -20.5215  -27.8662   22.6422 C   0  0  0  0  0  0  0  0  0  0  0  0
  -30.8011  -14.1772   20.4334 C   0  0  0  0  0  0  0  0  0  0  0  0
  -26.6049  -36.5821   19.1866 C   0  0  0  0  0  0  0  0  0  0  0  0
  -24.7885  -30.3280   19.2783 C   0  0  0  0  0  0  0  0  0  0  0  0
  -24.2975  -29.2403   21.9840 C   0  0  0  0  0  0  0  0  0  0  0  0
  -25.4195  -36.0943   20.0156 C   0  0  0  0  0  0  0  0  0  0  0  0
  -28.7234  -12.4250   18.1408 C   0  0  0  0  0  0  0  0  0  0  0  0
  -25.9001  -35.2320   21.1785 C   0  0  0  0  0  0  0  0  0  0  0  0
  -27.3308  -12.8293   18.6232 C   0  0  0  0  0  0  0  0  0  0  0  0
  -29.7126  -13.5890   18.2072 C   0  0  0  0  0  0  0  0  0  0  0  0
  -28.3968  -14.6415   20.0198 C   0  0  0  0  0  0  0  0  0  0  0  0
  -26.6314  -33.9824   20.6734 C   0  0  1  0  0  0  0  0  0  0  0  0
  -24.1113  -31.1561   20.3661 C   0  0  1  0  0  0  0  0  0  0  0  0
  -27.3957  -13.4757   20.0182 C   0  0  1  0  0  0  0  0  0  0  0  0
  -18.2542  -27.0658   23.3604 C   0  0  0  0  0  0  0  0  0  0  0  0
  -22.8395  -31.6285   24.7842 C   0  0  0  0  0  0  0  0  0  0  0  0
  -21.0893  -30.0249   25.5801 C   0  0  0  0  0  0  0  0  0  0  0  0
  -20.4594  -31.9064   24.0683 C   0  0  0  0  0  0  0  0  0  0  0  0
  -31.4779  -15.0480   22.6603 C   0  0  0  0  0  0  0  0  0  0  0  0
  -20.1637  -26.2918   20.1619 C   0  0  0  0  0  0  0  0  0  0  0  0
  -28.6380  -23.7960   20.9529 C   0  0  0  0  0  0  0  0  0  0  0  0
  -29.2180  -22.7835   19.9715 C   0  0  0  0  0  0  0  0  0  0  0  0
  -28.5062  -25.1765   20.3234 C   0  0  0  0  0  0  0  0  0  1  0  0
  -29.3901  -21.4139   20.6129 C   0  0  0  0  0  0  0  0  0  0  0  0
  -21.7676  -29.9534   23.1376 C   0  0  1  0  0  0  0  0  0  0  0  0
  -19.1630  -27.3711   22.1799 C   0  0  2  0  0  0  0  0  0  0  0  0
  -21.5610  -30.8691   24.3770 C   0  0  0  0  0  0  0  0  0  0  0  0
  -25.6069  -15.1563   20.2561 N   0  0  0  0  0  0  0  0  0  0  0  0
  -26.0237  -13.9031   20.5048 N   0  0  0  0  0  0  0  0  0  0  0  0
  -23.4931  -30.3285   21.4039 N   0  0  0  0  0  0  0  0  0  0  0  0
  -29.7100  -14.1993   19.5443 N   0  0  0  0  0  0  0  0  0  0  0  0
  -25.3773  -11.8648   21.5237 N   0  0  0  0  0  0  0  0  0  0  0  0
  -21.8193  -14.5557   22.2277 N   0  0  0  0  0  0  0  0  0  0  0  0
  -25.6814  -32.9918   20.2145 N   0  0  0  0  0  0  0  0  0  0  0  0
  -20.5665  -29.2425   22.7130 N   0  0  0  0  0  0  0  0  0  0  0  0
  -30.8907  -15.2612   21.3330 N   0  0  0  0  0  0  0  0  0  0  0  0
  -19.3126  -26.1299   21.3687 N   0  3  0  0  0  0  0  0  0  0  0  0
  -22.6677  -12.4568   22.5933 O   0  0  0  0  0  0  0  0  0  0  0  0
  -25.2185  -32.0035   22.2716 O   0  0  0  0  0  0  0  0  0  0  0  0
  -21.5569  -31.6257   21.4688 O   0  0  0  0  0  0  0  0  0  0  0  0
  -21.4488  -27.1078   22.9169 O   0  0  0  0  0  0  0  0  0  0  0  0
  -31.6173  -13.2479   20.4411 O   0  0  0  0  0  0  0  0  0  0  0  0
  -21.3226  -19.8559   20.5856 O   0  0  0  0  0  0  0  0  0  0  0  0
  -27.9791  -26.0960   21.2789 O   0  0  0  0  0  0  0  0  0  1  0  0
  -29.9182  -20.5165   19.6459 O   0  0  0  0  0  0  0  0  0  0  0  0
  -23.8369  -24.6280   21.7296 F   0  0  0  0  0  0  0  0  0  0  0  0
  -29.8516  -17.2055   23.0626 F   0  0  0  0  0  0  0  0  0  0  0  0
  -20.4672  -21.4429   22.6813 F   0  0  0  0  0  0  0  0  0  0  0  0
  1  2  1  0  0  0  0
  1  5  2  0  0  0  0
  2  6  2  0  0  0  0
  3  9  2  0  0  0  0
  3 18  1  0  0  0  0
  4 10  1  0  0  0  0
  4 18  2  0  0  0  0
  5 20  1  0  0  0  0
  6 22  1  0  0  0  0
  7 11  2  0  0  0  0
  7 21  1  0  0  0  0
  8 12  2  0  0  0  0
  8 24  1  0  0  0  0
  9 25  1  0  0  0  0
 10 25  2  0  0  0  0
 11 26  1  0  0  0  0
 12 27  1  0  0  0  0
 13 14  2  0  0  0  0
 13 28  1  0  0  0  0
 14 29  1  0  0  0  0
 15 23  1  0  0  0  0
 15 26  2  0  0  0  0
 16 27  2  0  0  0  0
 16 30  1  0  0  0  0
 17 29  2  0  0  0  0
 17 31  1  0  0  0  0
 18 32  1  0  0  0  0
 19 32  1  0  0  0  0
 19 33  2  0  0  0  0
 19 34  1  0  0  0  0
 20 22  2  0  0  0  0
 20 39  1  0  0  0  0
 21 23  2  0  0  0  0
 21 40  1  0  0  0  0
 22 48  1  0  0  0  0
 23 41  1  0  0  0  0
 24 30  2  0  0  0  0
 24 72  1  0  0  0  0
 25 79  1  0  0  0  0
 26 80  1  0  0  0  0
 27 81  1  0  0  0  0
 28 31  2  0  0  0  0
 28 79  1  0  0  0  0
 29 82  1  0  0  0  0
 30 83  1  0  0  0  0
 31 84  1  0  0  0  0
 32 64  2  0  0  0  0
 33 65  1  0  0  0  0
 33 68  1  0  0  0  0
 34 69  1  0  0  0  0
 34 74  2  0  0  0  0
 35 49  1  0  0  0  0
 35 70  1  0  0  0  0
 35 75  2  0  0  0  0
 36 61  1  0  0  0  0
 36 66  1  0  0  0  0
 36 76  2  0  0  0  0
 37 62  1  0  0  0  0
 37 71  1  0  0  0  0
 37 77  2  0  0  0  0
 38 67  1  0  0  0  0
 38 72  1  0  0  0  0
 38 78  2  0  0  0  0
 39 42  1  0  0  0  0
 40 49  1  0  0  0  0
 41 66  1  0  0  0  0
 42 44  1  0  0  0  0
 43 45  1  0  0  0  0
 43 46  1  0  0  0  0
 44 48  1  0  0  0  0
 45 50  1  0  0  0  0
 46 67  1  0  0  0  0
 47 50  1  0  0  0  0
 47 67  1  0  0  0  0
 48 70  1  0  0  0  0
 49 66  1  0  0  0  0
 50 65  1  0  0  0  0
 51 62  1  0  0  0  0
 52 63  1  0  0  0  0
 53 63  1  0  0  0  0
 54 63  1  0  0  0  0
 55 72  1  0  0  0  0
 56 73  1  0  0  0  0
 57 58  1  0  0  0  0
 57 59  1  0  0  0  0
 58 60  1  0  0  0  0
 59 80  1  0  0  0  0
 60 81  1  0  0  0  0
 61 63  1  0  0  0  0
 61 71  1  0  0  0  0
 62 73  1  0  0  0  0
 64 65  1  0  0  0  0
M  CHG  1  73   1
M  ISO  4  38 100  59 101  72 100  80 101
M  END
> <Batch ID>
0006

> <Smiles>
CNC(C)C(=O)NC(C(=O)N1Cc2cc([101O:1][101CH2:1]CCCOc3ccc([100N:0](C)[100C:0](=O)N4CCCC(n5nc(-c6ccc(Oc7ccc(F)cc7F)cc6)c(C(N)=O)c5N)C4)c(F)c3)ccc2CC1C(=O)NC1CCCc2ccccc21)C(C)(C)C

> <Shape>
0.277

> <Color>
0.094

> <Negative vol penalty>
0.000

$$$$

  -OEChem-04042320293D

 85 94  0     1  0  0  0  0  0999 V2000
  -31.0766  -21.7687   16.5169 C   0  0  0  0  0  0  0  0  0  0  0  0
  -30.5219  -21.7908   17.7926 C   0  0  0  0  0  0  0  0  0  0  0  0
  -31.1535  -19.1115   21.0089 C   0  0  0  0  0  0  0  0  0  0  0  0
  -30.6625  -21.1328   22.3034 C   0  0  0  0  0  0  0  0  0  0  0  0
  -23.0382   -9.8262   19.9226 C   0  0  0  0  0  0  0  0  0  0  0  0
  -24.0703   -9.5168   22.0850 C   0  0  0  0  0  0  0  0  0  0  0  0
  -31.4191  -22.9640   15.8862 C   0  0  0  0  0  0  0  0  0  0  0  0
  -30.3105  -23.0082   18.4387 C   0  0  0  0  0  0  0  0  0  0  0  0
  -25.7651  -23.2671   20.6563 C   0  0  0  0  0  0  0  0  0  0  0  0
  -31.0067  -17.7382   20.8119 C   0  0  0  0  0  0  0  0  0  0  0  0
  -30.0316  -21.7522   23.3827 C   0  0  0  0  0  0  0  0  0  0  0  0
  -22.3484   -8.6241   20.0798 C   0  0  0  0  0  0  0  0  0  0  0  0
  -23.3805   -8.3147   22.2423 C   0  0  0  0  0  0  0  0  0  0  0  0
  -25.6113  -22.6031   21.8725 C   0  0  0  0  0  0  0  0  0  0  0  0
  -20.2622   -7.3268   23.0913 C   0  0  0  0  0  0  0  0  0  0  0  0
  -19.6536   -7.0869   24.3232 C   0  0  0  0  0  0  0  0  0  0  0  0
  -29.6011  -17.6064   22.7701 C   0  0  0  0  0  0  0  0  0  0  0  0
  -29.1100  -19.6277   24.0646 C   0  0  0  0  0  0  0  0  0  0  0  0
  -25.8907  -24.6941   23.0425 C   0  0  0  0  0  0  0  0  0  0  0  0
  -21.0055   -5.1046   24.6053 C   0  0  0  0  0  0  0  0  0  0  0  0
  -30.5257  -19.7515   22.0899 C   0  0  0  0  0  0  0  0  0  0  0  0
  -29.7379  -18.9877   22.9837 C   0  0  0  0  0  0  0  0  0  0  0  0
  -23.8992  -10.2726   20.9252 C   0  0  0  0  0  0  0  0  0  0  0  0
  -24.1840  -12.7975   21.1516 C   0  0  0  0  0  0  0  0  0  0  0  0
  -31.2029  -24.1972   16.5210 C   0  0  0  0  0  0  0  0  0  0  0  0
  -25.9942  -24.6502   20.6244 C   0  0  0  0  0  0  0  0  0  0  0  0
  -30.6517  -24.2211   17.8164 C   0  0  0  0  0  0  0  0  0  0  0  0
  -26.0446  -25.3737   21.8244 C   0  0  0  0  0  0  0  0  0  0  0  0
  -30.2320  -16.9871   21.6908 C   0  0  0  0  0  0  0  0  0  0  0  0
  -22.5196   -7.8683   21.2396 C   0  0  0  0  0  0  0  0  0  0  0  0
  -29.2568  -21.0011   24.2616 C   0  0  0  0  0  0  0  0  0  0  0  0
  -25.6770  -23.3162   23.0660 C   0  0  0  0  0  0  0  0  0  0  0  0
  -21.2425   -6.4555   22.6163 C   0  0  0  0  0  0  0  0  0  0  0  0
  -20.0252   -5.9759   25.0802 C   0  0  0  0  0  0  0  0  0  0  0  0
  -21.6142   -5.3444   23.3733 C   0  0  0  0  0  0  0  0  0  0  0  0
  -24.6125  -11.5140   20.7632 C   0  0  0  0  0  0  0  0  0  0  0  0
  -25.2121  -13.6294   20.7809 C   0  0  0  0  0  0  0  0  0  0  0  0
  -22.9657  -13.2016   21.7904 C   0  0  0  0  0  0  0  0  0  0  0  0
  -28.3547  -26.5097   19.5882 C   0  0  0  0  0  0  0  0  0  0  0  0
  -26.2872  -28.8921   20.3444 C   0  0  0  0  0  0  0  0  0  0  0  0
  -23.6085  -29.9268   22.1884 C   0  0  0  0  0  0  0  0  0  0  0  0
  -30.6419  -14.8222   20.4694 C   0  0  0  0  0  0  0  0  0  0  0  0
  -31.6329  -25.4606   15.8185 C   0  0  0  0  0  0  0  0  0  0  0  0
  -26.1314  -25.3559   19.3032 C   0  0  0  0  0  0  0  0  0  0  0  0
  -26.2681  -26.8630   21.8437 C   0  0  0  0  0  0  0  0  0  0  0  0
  -31.0302  -26.7275   16.4202 C   0  0  0  0  0  0  0  0  0  0  0  0
  -29.2869  -12.7523   17.9088 C   0  0  0  0  0  0  0  0  0  0  0  0
  -31.1527  -26.7070   17.9405 C   0  0  0  0  0  0  0  0  0  0  0  0
  -27.9147  -12.3512   18.4551 C   0  0  0  0  0  0  0  0  0  0  0  0
  -30.3372  -12.8302   19.0154 C   0  0  0  0  0  0  0  0  0  0  0  0
  -28.6006  -13.2754   20.7051 C   0  0  0  0  0  0  0  0  0  0  0  0
  -30.3842  -25.5231   18.5399 C   0  0  1  0  0  0  0  0  0  0  0  0
  -26.8731  -26.6847   19.4097 C   0  0  1  0  0  0  0  0  0  0  0  0
  -27.4950  -13.2468   19.6372 C   0  0  2  0  0  0  0  0  0  0  0  0
  -22.1717  -31.9389   22.6179 C   0  0  0  0  0  0  0  0  0  0  0  0
  -28.5131  -30.1180   22.0334 C   0  0  0  0  0  0  0  0  0  0  0  0
  -26.7836  -31.5374   23.1569 C   0  0  0  0  0  0  0  0  0  0  0  0
  -27.1825  -31.7672   20.7052 C   0  0  0  0  0  0  0  0  0  0  0  0
  -21.1730  -28.5326   21.2484 C   0  0  0  0  0  0  0  0  0  0  0  0
  -26.5316  -22.1118   26.3763 C   0  0  0  0  0  0  0  0  0  0  0  0
  -27.4171  -21.0356   25.7682 C   0  0  0  0  0  0  0  0  0  0  0  0
  -26.2134  -23.2163   25.3808 C   0  0  0  0  0  0  0  0  0  1  0  0
  -26.0041  -29.7093   21.5817 C   0  0  1  0  0  0  0  0  0  0  0  0
  -22.3434  -30.6696   21.7981 C   0  0  2  0  0  0  0  0  0  0  0  0
  -27.1185  -30.7546   21.8694 C   0  0  0  0  0  0  0  0  0  0  0  0
  -25.8186  -11.5246   20.1896 N   0  0  0  0  0  0  0  0  0  0  0  0
  -26.1569  -12.8250   20.2147 N   0  0  0  0  0  0  0  0  0  0  0  0
  -26.4027  -27.5067   20.5265 N   0  0  0  0  0  0  0  0  0  0  0  0
  -29.8725  -13.6991   20.0989 N   0  0  0  0  0  0  0  0  0  0  0  0
  -25.3910  -14.9633   20.8871 N   0  0  0  0  0  0  0  0  0  0  0  0
  -22.0166  -12.2185   22.1019 N   0  0  0  0  0  0  0  0  0  0  0  0
  -30.0840  -15.5923   21.4893 N   0  0  0  0  0  0  0  0  0  0  0  0
  -28.9648  -25.8043   18.5686 N   0  0  0  0  0  0  0  0  0  0  0  0
  -24.6773  -30.2865   21.3950 N   0  0  0  0  0  0  0  0  0  0  0  0
  -21.1482  -29.8058   22.0135 N   0  3  0  0  0  0  0  0  0  0  0  0
  -22.7188  -14.4012   22.0617 O   0  0  0  0  0  0  0  0  0  0  0  0
  -28.9040  -26.9811   20.5770 O   0  0  0  0  0  0  0  0  0  0  0  0
  -26.3946  -29.4612   19.2553 O   0  0  0  0  0  0  0  0  0  0  0  0
  -23.6457  -29.1121   23.1078 O   0  0  0  0  0  0  0  0  0  0  0  0
  -31.7032  -15.0971   19.9035 O   0  0  0  0  0  0  0  0  0  0  0  0
  -21.8464   -6.6954   21.3935 O   0  0  0  0  0  0  0  0  0  0  0  0
  -28.6376  -21.6106   25.3216 O   0  0  0  0  0  0  0  0  0  0  0  0
  -25.5278  -22.6704   24.2545 O   0  0  0  0  0  0  0  0  0  1  0  0
  -19.4417   -5.7465   26.2639 F   0  0  0  0  0  0  0  0  0  0  0  0
  -22.5562   -4.5045   22.9228 F   0  0  0  0  0  0  0  0  0  0  0  0
  1  2  1  0  0  0  0
  1  7  2  0  0  0  0
  2  8  2  0  0  0  0
  3 10  2  0  0  0  0
  3 21  1  0  0  0  0
  4 11  2  0  0  0  0
  4 21  1  0  0  0  0
  5 12  2  0  0  0  0
  5 23  1  0  0  0  0
  6 13  1  0  0  0  0
  6 23  2  0  0  0  0
  7 25  1  0  0  0  0
  8 27  1  0  0  0  0
  9 14  2  0  0  0  0
  9 26  1  0  0  0  0
 10 29  1  0  0  0  0
 11 31  1  0  0  0  0
 12 30  1  0  0  0  0
 13 30  2  0  0  0  0
 14 32  1  0  0  0  0
 15 16  2  0  0  0  0
 15 33  1  0  0  0  0
 16 34  1  0  0  0  0
 17 22  1  0  0  0  0
 17 29  2  0  0  0  0
 18 22  1  0  0  0  0
 18 31  2  0  0  0  0
 19 28  1  0  0  0  0
 19 32  2  0  0  0  0
 20 34  2  0  0  0  0
 20 35  1  0  0  0  0
 21 22  2  0  0  0  0
 23 36  1  0  0  0  0
 24 36  1  0  0  0  0
 24 37  2  0  0  0  0
 24 38  1  0  0  0  0
 25 27  2  0  0  0  0
 25 43  1  0  0  0  0
 26 28  2  0  0  0  0
 26 44  1  0  0  0  0
 27 52  1  0  0  0  0
 28 45  1  0  0  0  0
 29 72  1  0  0  0  0
 30 81  1  0  0  0  0
 31 82  1  0  0  0  0
 32 83  1  0  0  0  0
 33 35  2  0  0  0  0
 33 81  1  0  0  0  0
 34 84  1  0  0  0  0
 35 85  1  0  0  0  0
 36 66  2  0  0  0  0
 37 67  1  0  0  0  0
 37 70  1  0  0  0  0
 38 71  1  0  0  0  0
 38 76  2  0  0  0  0
 39 53  1  0  0  0  0
 39 73  1  0  0  0  0
 39 77  2  0  0  0  0
 40 63  1  0  0  0  0
 40 68  1  0  0  0  0
 40 78  2  0  0  0  0
 41 64  1  0  0  0  0
 41 74  1  0  0  0  0
 41 79  2  0  0  0  0
 42 69  1  0  0  0  0
 42 72  1  0  0  0  0
 42 80  2  0  0  0  0
 43 46  1  0  0  0  0
 44 53  1  0  0  0  0
 45 68  1  0  0  0  0
 46 48  1  0  0  0  0
 47 49  1  0  0  0  0
 47 50  1  0  0  0  0
 48 52  1  0  0  0  0
 49 54  1  0  0  0  0
 50 69  1  0  0  0  0
 51 54  1  0  0  0  0
 51 69  1  0  0  0  0
 52 73  1  0  0  0  0
 53 68  1  0  0  0  0
 54 67  1  0  0  0  0
 55 64  1  0  0  0  0
 56 65  1  0  0  0  0
 57 65  1  0  0  0  0
 58 65  1  0  0  0  0
 59 75  1  0  0  0  0
 60 61  1  0  0  0  0
 60 62  1  0  0  0  0
 61 82  1  0  0  0  0
 62 83  1  0  0  0  0
 63 65  1  0  0  0  0
 63 74  1  0  0  0  0
 64 75  1  0  0  0  0
 66 67  1  0  0  0  0
M  CHG  1  75   1
M  ISO  4  42 100  62 101  72 100  83 101
M  END
> <Batch ID>
0006

> <Smiles>
CNC(C)C(=O)NC(C(=O)N1Cc2cc([101O:1][101CH2:1]CCOc3ccc4ccc([100NH:0][100C:0](=O)N5CCCC(n6nc(-c7ccc(Oc8ccc(F)cc8F)cc7)c(C(N)=O)c6N)C5)cc4c3)ccc2CC1C(=O)NC1CCCc2ccccc21)C(C)(C)C

> <Shape>
0.336

> <Color>
0.213

> <Negative vol penalty>
0.000

$$$$

  -OEChem-04042320293D

 97107  0     1  0  0  0  0  0999 V2000
  -21.3470  -18.8543   26.8033 C   0  0  0  0  0  0  0  0  0  0  0  0
  -22.6077  -18.6289   27.3467 C   0  0  0  0  0  0  0  0  0  0  0  0
  -22.7632  -10.1510   20.1681 C   0  0  0  0  0  0  0  0  0  0  0  0
  -24.3901   -9.5241   21.8406 C   0  0  0  0  0  0  0  0  0  0  0  0
  -21.1944  -18.9662   25.4220 C   0  0  0  0  0  0  0  0  0  0  0  0
  -23.7165  -18.5141   26.5089 C   0  0  0  0  0  0  0  0  0  0  0  0
  -27.7063  -21.1370   28.1962 C   0  0  0  0  0  0  0  0  0  0  0  0
  -32.4615  -15.7894   22.7976 C   0  0  0  0  0  0  0  0  0  0  0  0
  -22.0804   -8.9540   20.3837 C   0  0  0  0  0  0  0  0  0  0  0  0
  -23.7072   -8.3271   22.0562 C   0  0  0  0  0  0  0  0  0  0  0  0
  -28.4438  -20.5747   29.2372 C   0  0  0  0  0  0  0  0  0  0  0  0
  -33.1462  -16.5955   23.7069 C   0  0  0  0  0  0  0  0  0  0  0  0
  -22.1908   -5.2674   23.3040 C   0  0  0  0  0  0  0  0  0  0  0  0
  -21.9782   -4.8699   24.6240 C   0  0  0  0  0  0  0  0  0  0  0  0
  -30.0886  -19.8060   27.6488 C   0  0  0  0  0  0  0  0  0  0  0  0
  -30.5689  -15.7055   24.2970 C   0  0  0  0  0  0  0  0  0  0  0  0
  -20.7336   -6.8995   25.0348 C   0  0  0  0  0  0  0  0  0  0  0  0
  -23.9181  -10.4361   20.8966 C   0  0  0  0  0  0  0  0  0  0  0  0
  -24.1250  -12.9780   20.8389 C   0  0  0  0  0  0  0  0  0  0  0  0
  -22.3033  -18.8623   24.5674 C   0  0  0  0  0  0  0  0  0  0  0  0
  -28.1496  -21.0283   26.8702 C   0  0  0  0  0  0  0  0  0  0  0  0
  -23.5784  -18.6234   25.1147 C   0  0  0  0  0  0  0  0  0  0  0  0
  -29.3562  -20.3699   26.5930 C   0  0  0  0  0  0  0  0  0  0  0  0
  -31.1728  -15.3445   23.0926 C   0  0  0  0  0  0  0  0  0  0  0  0
  -22.5524   -8.0420   21.3277 C   0  0  0  0  0  0  0  0  0  0  0  0
  -29.6336  -19.9066   28.9633 C   0  0  0  0  0  0  0  0  0  0  0  0
  -21.6749   -6.4811   22.8495 C   0  0  0  0  0  0  0  0  0  0  0  0
  -32.5424  -16.9566   24.9114 C   0  0  0  0  0  0  0  0  0  0  0  0
  -21.2496   -5.6858   25.4894 C   0  0  0  0  0  0  0  0  0  0  0  0
  -31.2537  -16.5116   25.2064 C   0  0  0  0  0  0  0  0  0  0  0  0
  -20.9463   -7.2970   23.7149 C   0  0  0  0  0  0  0  0  0  0  0  0
  -24.6243  -11.6722   20.6740 C   0  0  0  0  0  0  0  0  0  0  0  0
  -25.1782  -13.7933   20.5035 C   0  0  0  0  0  0  0  0  0  0  0  0
  -33.9383  -20.4245   31.7059 C   0  0  0  0  0  0  0  0  0  0  0  0
  -22.8253  -13.4151   21.2580 C   0  0  0  0  0  0  0  0  0  0  0  0
  -26.9988  -19.6990   24.2222 C   0  0  0  0  0  0  0  0  0  0  0  0
  -29.5631  -21.1372   22.8518 C   0  0  0  0  0  0  0  0  0  0  0  0
  -33.0412  -21.6486   23.6635 C   0  0  0  0  0  0  0  0  0  0  0  0
  -30.9314  -14.0759   20.9295 C   0  0  0  0  0  0  0  0  0  0  0  0
  -22.0818  -18.9430   23.0778 C   0  0  0  0  0  0  0  0  0  0  0  0
  -27.3562  -21.6634   25.7614 C   0  0  0  0  0  0  0  0  0  0  0  0
  -29.8860  -20.2432   25.1888 C   0  0  0  0  0  0  0  0  0  0  0  0
  -23.3632  -19.1829   22.2836 C   0  0  0  0  0  0  0  0  0  0  0  0
  -35.2029  -23.9582   30.5914 C   0  0  0  0  0  0  0  0  0  0  0  0
  -36.4458  -23.6794   31.4401 C   0  0  0  0  0  0  0  0  0  0  0  0
  -29.3269  -13.2203   17.8684 C   0  0  0  0  0  0  0  0  0  0  0  0
  -35.2887  -23.4501   29.1517 C   0  0  0  0  0  0  0  0  0  0  0  0
  -24.4729  -18.2548   22.7675 C   0  0  0  0  0  0  0  0  0  0  0  0
  -27.9014  -12.8613   18.2942 C   0  0  0  0  0  0  0  0  0  0  0  0
  -36.2804  -22.5104   32.4148 C   0  0  0  0  0  0  0  0  0  0  0  0
  -35.7935  -20.0785   32.8768 C   0  0  0  0  0  0  0  0  0  0  0  0
  -30.3585  -12.7638   18.8985 C   0  0  0  0  0  0  0  0  0  0  0  0
  -28.6792  -12.8551   20.6988 C   0  0  0  0  0  0  0  0  0  0  0  0
  -35.8086  -22.0343   28.9321 C   0  0  0  0  0  0  0  0  0  0  0  0
  -24.8090  -18.5178   24.2403 C   0  0  1  0  0  0  0  0  0  0  0  0
  -27.6396  -21.0470   24.3950 C   0  0  1  0  0  0  0  0  0  0  0  0
  -27.5997  -13.3525   19.7236 C   0  0  2  0  0  0  0  0  0  0  0  0
  -36.1352  -21.1159   31.7868 C   0  0  1  0  0  0  0  0  0  0  0  0
  -35.0743  -23.0999   23.4234 C   0  0  0  0  0  0  0  0  0  0  0  0
  -30.3400  -19.1990   20.6270 C   0  0  0  0  0  0  0  0  0  0  0  0
  -32.7155  -19.9384   20.9075 C   0  0  0  0  0  0  0  0  0  0  0  0
  -30.9746  -21.5808   20.2043 C   0  0  0  0  0  0  0  0  0  0  0  0
  -32.5766  -22.9337   26.2887 C   0  0  0  0  0  0  0  0  0  0  0  0
  -34.7369  -19.3131   27.7009 C   0  0  0  0  0  0  0  0  0  0  0  0
  -35.1373  -17.9191   27.2235 C   0  0  0  0  0  0  0  0  0  0  0  0
  -31.5926  -19.8376   31.9888 C   0  0  0  0  0  0  0  0  0  0  0  0
  -35.2845  -19.5920   29.0927 C   0  0  0  0  0  0  0  0  0  0  0  0
  -34.6332  -17.6410   25.8145 C   0  0  0  0  0  0  0  0  0  0  0  0
  -30.2719  -19.9896   31.2528 C   0  0  0  0  0  0  0  0  0  1  0  0
  -30.9965  -20.7429   22.5895 C   0  0  1  0  0  0  0  0  0  0  0  0
  -33.6993  -22.9586   24.0577 C   0  0  2  0  0  0  0  0  0  0  0  0
  -31.2421  -20.3547   21.1041 C   0  0  0  0  0  0  0  0  0  0  0  0
  -25.8957  -11.6541   20.2653 N   0  0  0  0  0  0  0  0  0  0  0  0
  -34.3092  -19.9012   32.8560 N   0  0  0  0  0  0  0  0  0  0  0  0
  -26.2043  -12.9586   20.1706 N   0  0  0  0  0  0  0  0  0  0  0  0
  -34.9395  -21.0313   30.9755 N   0  0  0  0  0  0  0  0  0  0  0  0
  -29.0710  -20.8754   24.1383 N   0  0  0  0  0  0  0  0  0  0  0  0
  -30.0100  -13.2701   20.2278 N   0  0  0  0  0  0  0  0  0  0  0  0
  -25.3175  -15.1354   20.4636 N   0  0  0  0  0  0  0  0  0  0  0  0
  -21.8610  -12.4453   21.5645 N   0  0  0  0  0  0  0  0  0  0  0  0
  -30.4771  -14.5256   22.1689 N   0  0  0  0  0  0  0  0  0  0  0  0
  -32.6580  -20.4297   31.2290 N   0  0  0  0  0  0  0  0  0  0  0  0
  -25.6247  -19.7063   24.3682 N   0  0  0  0  0  0  0  0  0  0  0  0
  -31.8180  -21.8527   23.0607 N   0  0  0  0  0  0  0  0  0  0  0  0
  -34.9060  -20.9850   29.4995 N   0  3  1  0  0  0  0  0  0  0  0  0
  -33.8544  -23.0355   25.5379 N   0  3  0  0  0  0  0  0  0  0  0  0
  -22.5229  -14.6296   21.3420 O   0  0  0  0  0  0  0  0  0  0  0  0
  -27.6990  -18.7246   23.9733 O   0  0  0  0  0  0  0  0  0  0  0  0
  -28.9065  -21.6649   21.9506 O   0  0  0  0  0  0  0  0  0  0  0  0
  -33.5619  -20.5540   23.8665 O   0  0  0  0  0  0  0  0  0  0  0  0
  -32.0310  -14.3694   20.4534 O   0  0  0  0  0  0  0  0  0  0  0  0
  -21.8862   -6.8740   21.5385 O   0  0  0  0  0  0  0  0  0  0  0  0
  -30.3602  -19.3525   29.9846 O   0  0  0  0  0  0  0  0  0  1  0  0
  -33.2165  -17.7494   25.8036 O   0  0  0  0  0  0  0  0  0  0  0  0
  -21.0442   -5.3032   26.7565 F   0  0  0  0  0  0  0  0  0  0  0  0
  -30.6679  -16.8561   26.3614 F   0  0  0  0  0  0  0  0  0  0  0  0
  -20.4471   -8.4635   23.2836 F   0  0  0  0  0  0  0  0  0  0  0  0
  1  2  1  0  0  0  0
  1  5  2  0  0  0  0
  2  6  2  0  0  0  0
  3  9  2  0  0  0  0
  3 18  1  0  0  0  0
  4 10  1  0  0  0  0
  4 18  2  0  0  0  0
  5 20  1  0  0  0  0
  6 22  1  0  0  0  0
  7 11  2  0  0  0  0
  7 21  1  0  0  0  0
  8 12  2  0  0  0  0
  8 24  1  0  0  0  0
  9 25  1  0  0  0  0
 10 25  2  0  0  0  0
 11 26  1  0  0  0  0
 12 28  1  0  0  0  0
 13 14  2  0  0  0  0
 13 27  1  0  0  0  0
 14 29  1  0  0  0  0
 15 23  1  0  0  0  0
 15 26  2  0  0  0  0
 16 24  2  0  0  0  0
 16 30  1  0  0  0  0
 17 29  2  0  0  0  0
 17 31  1  0  0  0  0
 18 32  1  0  0  0  0
 19 32  1  0  0  0  0
 19 33  2  0  0  0  0
 19 35  1  0  0  0  0
 20 22  2  0  0  0  0
 20 40  1  0  0  0  0
 21 23  2  0  0  0  0
 21 41  1  0  0  0  0
 22 55  1  0  0  0  0
 23 42  1  0  0  0  0
 24 81  1  0  0  0  0
 25 92  1  0  0  0  0
 26 93  1  0  0  0  0
 27 31  2  0  0  0  0
 27 92  1  0  0  0  0
 28 30  2  0  0  0  0
 28 94  1  0  0  0  0
 29 95  1  0  0  0  0
 30 96  1  0  0  0  0
 31 97  1  0  0  0  0
 32 73  2  0  0  0  0
 33 75  1  0  0  0  0
 33 79  1  0  0  0  0
 34 74  2  0  0  0  0
 34 76  1  0  0  0  0
 34 82  1  0  0  0  0
 35 80  1  0  0  0  0
 35 87  2  0  0  0  0
 36 56  1  0  0  0  0
 36 83  1  0  0  0  0
 36 88  2  0  0  0  0
 37 70  1  0  0  0  0
 37 77  1  0  0  0  0
 37 89  2  0  0  0  0
 38 71  1  0  0  0  0
 38 84  1  0  0  0  0
 38 90  2  0  0  0  0
 39 78  1  0  0  0  0
 39 81  1  0  0  0  0
 39 91  2  0  0  0  0
 40 43  1  0  0  0  0
 41 56  1  0  0  0  0
 42 77  1  0  0  0  0
 43 48  1  0  0  0  0
 44 45  1  0  0  0  0
 44 47  1  0  0  0  0
 45 50  1  0  0  0  0
 46 49  1  0  0  0  0
 46 52  1  0  0  0  0
 47 54  1  0  0  0  0
 48 55  1  0  0  0  0
 49 57  1  0  0  0  0
 50 58  1  0  0  0  0
 51 58  1  0  0  0  0
 51 74  1  0  0  0  0
 52 78  1  0  0  0  0
 53 57  1  0  0  0  0
 53 78  1  0  0  0  0
 54 85  1  0  0  0  0
 55 83  1  0  0  0  0
 56 77  1  0  0  0  0
 57 75  1  0  0  0  0
 58 76  1  0  0  0  0
 59 71  1  0  0  0  0
 60 72  1  0  0  0  0
 61 72  1  0  0  0  0
 62 72  1  0  0  0  0
 63 86  1  0  0  0  0
 64 65  1  0  0  0  0
 64 67  1  0  0  0  0
 65 68  1  0  0  0  0
 66 69  1  0  0  0  0
 66 82  1  0  0  0  0
 67 85  1  0  0  0  0
 68 94  1  0  0  0  0
 69 93  1  0  0  0  0
 70 72  1  0  0  0  0
 70 84  1  0  0  0  0
 71 86  1  0  0  0  0
 73 75  1  0  0  0  0
 76 85  1  0  0  0  0
M  CHG  2  85   1  86   1
M  ISO  4  39 100  69 101  81 100  93 101
M  END
> <Batch ID>
0006

> <Smiles>
CNC(C)C(=O)NC(C(=O)N1Cc2cc([101O:1][101CH2:1]CNC3=NCC4CCCCCN(CCCCOc5ccc([100NH:0][100C:0](=O)N6CCCC(n7nc(-c8ccc(Oc9ccc(F)cc9F)cc8)c(C(N)=O)c7N)C6)cc5F)N34)ccc2CC1C(=O)NC1CCCc2ccccc21)C(C)(C)C

> <Shape>
0.174

> <Color>
0.179

> <Negative vol penalty>
0.000

$$$$

  -OEChem-04042320293D

 85 93  0     1  0  0  0  0  0999 V2000
  -29.3608  -34.4359   27.6392 C   0  0  0  0  0  0  0  0  0  0  0  0
  -29.6713  -33.1429   27.2303 C   0  0  0  0  0  0  0  0  0  0  0  0
  -23.0818   -9.8608   19.9409 C   0  0  0  0  0  0  0  0  0  0  0  0
  -23.8370   -9.8732   22.2359 C   0  0  0  0  0  0  0  0  0  0  0  0
  -28.7048  -35.3032   26.7666 C   0  0  0  0  0  0  0  0  0  0  0  0
  -29.3250  -32.7161   25.9488 C   0  0  0  0  0  0  0  0  0  0  0  0
  -32.4716  -28.8642   22.3757 C   0  0  0  0  0  0  0  0  0  0  0  0
  -22.3400   -8.7064   20.1912 C   0  0  0  0  0  0  0  0  0  0  0  0
  -23.0950   -8.7188   22.4862 C   0  0  0  0  0  0  0  0  0  0  0  0
  -32.3364  -27.5005   22.1189 C   0  0  0  0  0  0  0  0  0  0  0  0
  -19.8674   -7.9150   23.0834 C   0  0  0  0  0  0  0  0  0  0  0  0
  -19.1081   -7.8753   24.2528 C   0  0  0  0  0  0  0  0  0  0  0  0
  -31.0578  -28.0066   20.1369 C   0  0  0  0  0  0  0  0  0  0  0  0
  -29.6906  -19.2972   22.3529 C   0  0  0  0  0  0  0  0  0  0  0  0
  -31.1430  -17.6911   20.5940 C   0  0  0  0  0  0  0  0  0  0  0  0
  -20.3522   -5.9418   24.9950 C   0  0  0  0  0  0  0  0  0  0  0  0
  -23.8304  -10.4441   20.9632 C   0  0  0  0  0  0  0  0  0  0  0  0
  -24.1670  -12.9698   20.8398 C   0  0  0  0  0  0  0  0  0  0  0  0
  -28.3589  -34.8898   25.4704 C   0  0  0  0  0  0  0  0  0  0  0  0
  -31.8907  -29.8107   21.5195 C   0  0  0  0  0  0  0  0  0  0  0  0
  -28.6626  -33.5782   25.0585 C   0  0  0  0  0  0  0  0  0  0  0  0
  -31.1893  -29.3818   20.3836 C   0  0  0  0  0  0  0  0  0  0  0  0
  -30.5954  -19.8775   21.4640 C   0  0  0  0  0  0  0  0  0  0  0  0
  -29.5121  -17.9138   22.3625 C   0  0  0  0  0  0  0  0  0  0  0  0
  -31.3216  -19.0745   20.5845 C   0  0  0  0  0  0  0  0  0  0  0  0
  -30.2382  -17.1108   21.4830 C   0  0  0  0  0  0  0  0  0  0  0  0
  -22.3465   -8.1354   21.4639 C   0  0  0  0  0  0  0  0  0  0  0  0
  -31.6269  -27.0715   21.0010 C   0  0  0  0  0  0  0  0  0  0  0  0
  -20.8690   -6.9680   22.8697 C   0  0  0  0  0  0  0  0  0  0  0  0
  -19.3505   -6.8888   25.2086 C   0  0  0  0  0  0  0  0  0  0  0  0
  -21.1114   -5.9814   23.8255 C   0  0  0  0  0  0  0  0  0  0  0  0
  -24.5974  -11.6362   20.7051 C   0  0  0  0  0  0  0  0  0  0  0  0
  -25.2583  -13.7211   20.4775 C   0  0  0  0  0  0  0  0  0  0  0  0
  -22.8945  -13.4836   21.2552 C   0  0  0  0  0  0  0  0  0  0  0  0
  -29.6739  -32.0656   21.8425 C   0  0  0  0  0  0  0  0  0  0  0  0
  -30.5390  -32.8041   18.8047 C   0  0  0  0  0  0  0  0  0  0  0  0
  -31.9139  -31.7802   15.8537 C   0  0  0  0  0  0  0  0  0  0  0  0
  -30.7218  -14.7788   20.6618 C   0  0  0  0  0  0  0  0  0  0  0  0
  -27.6084  -35.8475   24.5791 C   0  0  0  0  0  0  0  0  0  0  0  0
  -32.0685  -31.2785   21.7957 C   0  0  0  0  0  0  0  0  0  0  0  0
  -30.5640  -30.3580   19.4222 C   0  0  0  0  0  0  0  0  0  0  0  0
  -27.6104  -35.4393   23.1082 C   0  0  0  0  0  0  0  0  0  0  0  0
  -29.6175  -12.3587   18.2952 C   0  0  0  0  0  0  0  0  0  0  0  0
  -27.2775  -33.9576   22.9649 C   0  0  0  0  0  0  0  0  0  0  0  0
  -28.1776  -12.0647   18.7223 C   0  0  0  0  0  0  0  0  0  0  0  0
  -30.5297  -12.5915   19.4984 C   0  0  0  0  0  0  0  0  0  0  0  0
  -28.6183  -13.3141   20.8745 C   0  0  0  0  0  0  0  0  0  0  0  0
  -28.3255  -33.0862   23.6676 C   0  0  1  0  0  0  0  0  0  0  0  0
  -30.9985  -32.1442   21.1377 C   0  0  1  0  0  0  0  0  0  0  0  0
  -27.6483  -13.1368   19.6950 C   0  0  2  0  0  0  0  0  0  0  0  0
  -28.5361  -17.3194   23.3253 C   0  0  0  0  0  0  0  0  0  0  0  0
  -32.2960  -19.6734   19.6241 C   0  0  0  0  0  0  0  0  0  0  0  0
  -32.4506  -32.5968   13.5423 C   0  0  0  0  0  0  0  0  0  0  0  0
  -27.5925  -32.5811   18.0444 C   0  0  0  0  0  0  0  0  0  0  0  0
  -28.2930  -32.4575   15.6439 C   0  0  0  0  0  0  0  0  0  0  0  0
  -28.8007  -34.4980   16.9861 C   0  0  0  0  0  0  0  0  0  0  0  0
  -34.8105  -31.3063   16.2333 C   0  0  0  0  0  0  0  0  0  0  0  0
  -32.1788  -21.2494   23.5228 C   0  0  0  0  0  0  0  0  0  0  0  0
  -30.7709  -21.3675   21.4723 C   0  0  0  0  0  0  0  0  0  0  0  0
  -32.5697  -23.6922   20.6536 C   0  0  0  0  0  0  0  0  0  0  0  0
  -32.2473  -23.2783   22.0803 C   0  0  0  0  0  0  0  0  0  0  0  0
  -30.0912  -32.3697   17.4300 C   0  0  1  0  0  0  0  0  0  0  0  0
  -32.9670  -32.4110   14.9606 C   0  0  2  0  0  0  0  0  0  0  0  0
  -28.7044  -32.9579   17.0451 C   0  0  0  0  0  0  0  0  0  0  0  0
  -25.8633  -11.5425   20.2896 N   0  0  0  0  0  0  0  0  0  0  0  0
  -26.2377  -12.8267   20.1600 N   0  0  0  0  0  0  0  0  0  0  0  0
  -30.7601  -31.7823   19.7390 N   0  0  0  0  0  0  0  0  0  0  0  0
  -29.9666  -13.6225   20.3729 N   0  0  0  0  0  0  0  0  0  0  0  0
  -25.4659  -15.0529   20.4028 N   0  0  0  0  0  0  0  0  0  0  0  0
  -21.8839  -12.5727   21.5919 N   0  0  0  0  0  0  0  0  0  0  0  0
  -30.0707  -15.7038   21.4774 N   0  0  0  0  0  0  0  0  0  0  0  0
  -29.5231  -32.9870   22.8613 N   0  0  0  0  0  0  0  0  0  0  0  0
  -31.1688  -32.7328   16.5160 N   0  0  0  0  0  0  0  0  0  0  0  0
  -32.8086  -25.1263   20.5755 N   0  0  0  0  0  0  0  0  0  1  0  0
  -34.1841  -31.5525   14.9089 N   0  3  0  0  0  0  0  0  0  0  0  0
  -32.0580  -21.8078   22.1259 N   0  3  1  0  0  0  0  0  0  0  0  0
  -22.6555  -14.7137   21.3100 O   0  0  0  0  0  0  0  0  0  0  0  0
  -28.8490  -31.2319   21.4873 O   0  0  0  0  0  0  0  0  0  0  0  0
  -30.6941  -34.0053   19.0387 O   0  0  0  0  0  0  0  0  0  0  0  0
  -31.7647  -30.5642   15.9511 O   0  0  0  0  0  0  0  0  0  0  0  0
  -31.8515  -14.9492   20.1963 O   0  0  0  0  0  0  0  0  0  0  0  0
  -21.6225   -7.0092   21.7086 O   0  0  0  0  0  0  0  0  0  0  0  0
  -31.4928  -25.7410   20.7484 O   0  0  0  0  0  0  0  0  0  1  0  0
  -18.6223   -6.8517   26.3322 F   0  0  0  0  0  0  0  0  0  0  0  0
  -22.0732   -5.0697   23.6264 F   0  0  0  0  0  0  0  0  0  0  0  0
  1  2  1  0  0  0  0
  1  5  2  0  0  0  0
  2  6  2  0  0  0  0
  3  8  2  0  0  0  0
  3 17  1  0  0  0  0
  4  9  1  0  0  0  0
  4 17  2  0  0  0  0
  5 19  1  0  0  0  0
  6 21  1  0  0  0  0
  7 10  2  0  0  0  0
  7 20  1  0  0  0  0
  8 27  1  0  0  0  0
  9 27  2  0  0  0  0
 10 28  1  0  0  0  0
 11 12  2  0  0  0  0
 11 29  1  0  0  0  0
 12 30  1  0  0  0  0
 13 22  1  0  0  0  0
 13 28  2  0  0  0  0
 14 23  1  0  0  0  0
 14 24  2  0  0  0  0
 15 25  1  0  0  0  0
 15 26  2  0  0  0  0
 16 30  2  0  0  0  0
 16 31  1  0  0  0  0
 17 32  1  0  0  0  0
 18 32  1  0  0  0  0
 18 33  2  0  0  0  0
 18 34  1  0  0  0  0
 19 21  2  0  0  0  0
 19 39  1  0  0  0  0
 20 22  2  0  0  0  0
 20 40  1  0  0  0  0
 21 48  1  0  0  0  0
 22 41  1  0  0  0  0
 23 25  2  0  0  0  0
 23 59  1  0  0  0  0
 24 26  1  0  0  0  0
 24 51  1  0  0  0  0
 25 52  1  0  0  0  0
 26 71  1  0  0  0  0
 27 82  1  0  0  0  0
 28 83  1  0  0  0  0
 29 31  2  0  0  0  0
 29 82  1  0  0  0  0
 30 84  1  0  0  0  0
 31 85  1  0  0  0  0
 32 65  2  0  0  0  0
 33 66  1  0  0  0  0
 33 69  1  0  0  0  0
 34 70  1  0  0  0  0
 34 77  2  0  0  0  0
 35 49  1  0  0  0  0
 35 72  1  0  0  0  0
 35 78  2  0  0  0  0
 36 62  1  0  0  0  0
 36 67  1  0  0  0  0
 36 79  2  0  0  0  0
 37 63  1  0  0  0  0
 37 73  1  0  0  0  0
 37 80  2  0  0  0  0
 38 68  1  0  0  0  0
 38 71  1  0  0  0  0
 38 81  2  0  0  0  0
 39 42  1  0  0  0  0
 40 49  1  0  0  0  0
 41 67  1  0  0  0  0
 42 44  1  0  0  0  0
 43 45  1  0  0  0  0
 43 46  1  0  0  0  0
 44 48  1  0  0  0  0
 45 50  1  0  0  0  0
 46 68  1  0  0  0  0
 47 50  1  0  0  0  0
 47 68  1  0  0  0  0
 48 72  1  0  0  0  0
 49 67  1  0  0  0  0
 50 66  1  0  0  0  0
 53 63  1  0  0  0  0
 54 64  1  0  0  0  0
 55 64  1  0  0  0  0
 56 64  1  0  0  0  0
 57 75  1  0  0  0  0
 58 76  1  0  0  0  0
 59 76  1  0  0  0  0
 60 61  1  0  0  0  0
 60 74  1  0  0  0  0
 61 76  1  0  0  0  0
 62 64  1  0  0  0  0
 62 73  1  0  0  0  0
 63 75  1  0  0  0  0
 65 66  1  0  0  0  0
 74 83  1  0  0  0  0
M  CHG  2  75   1  76   1
M  ISO  4  38 100  71 100  74 101  83 101
M  END
> <Batch ID>
0006

> <Smiles>
CNC(C)C(=O)NC(C(=O)N1Cc2cc([101O:1][101NH:1]CCN(C)Cc3cc(C)c([100NH:0][100C:0](=O)N4CCCC(n5nc(-c6ccc(Oc7ccc(F)cc7F)cc6)c(C(N)=O)c5N)C4)cc3C)ccc2CC1C(=O)NC1CCCc2ccccc21)C(C)(C)C

> <Shape>
0.219

> <Color>
0.196

> <Negative vol penalty>
0.000

$$$$

  -OEChem-04042320293D

 83 92  0     1  0  0  0  0  0999 V2000
  -30.5924  -33.3718   16.3889 C   0  0  0  0  0  0  0  0  0  0  0  0
  -30.4561  -32.1034   16.9438 C   0  0  0  0  0  0  0  0  0  0  0  0
  -26.3332  -19.0891   14.2257 C   0  0  0  0  0  0  0  0  0  0  0  0
  -24.4484   -9.6080   22.4214 C   0  0  0  0  0  0  0  0  0  0  0  0
  -24.3393   -9.2884   20.0292 C   0  0  0  0  0  0  0  0  0  0  0  0
  -29.9459  -34.4602   16.9731 C   0  0  0  0  0  0  0  0  0  0  0  0
  -29.6740  -31.9228   18.0840 C   0  0  0  0  0  0  0  0  0  0  0  0
  -26.6478  -27.8767   17.7434 C   0  0  0  0  0  0  0  0  0  0  0  0
  -26.5936  -20.2707   14.9195 C   0  0  0  0  0  0  0  0  0  0  0  0
  -26.4282  -17.8607   14.8798 C   0  0  0  0  0  0  0  0  0  0  0  0
  -24.0415   -8.2882   22.6164 C   0  0  0  0  0  0  0  0  0  0  0  0
  -23.9324   -7.9685   20.2241 C   0  0  0  0  0  0  0  0  0  0  0  0
  -27.2295  -26.6271   17.9532 C   0  0  0  0  0  0  0  0  0  0  0  0
  -21.1535   -6.5342   22.5315 C   0  0  0  0  0  0  0  0  0  0  0  0
  -20.1687   -6.2953   23.4899 C   0  0  0  0  0  0  0  0  0  0  0  0
  -26.3752  -26.6150   20.2091 C   0  0  0  0  0  0  0  0  0  0  0  0
  -27.0442  -18.9957   16.9217 C   0  0  0  0  0  0  0  0  0  0  0  0
  -21.6963   -4.8712   24.7046 C   0  0  0  0  0  0  0  0  0  0  0  0
  -24.5972  -10.1082   21.1278 C   0  0  0  0  0  0  0  0  0  0  0  0
  -24.3614  -12.6371   21.3660 C   0  0  0  0  0  0  0  0  0  0  0  0
  -29.1477  -34.2912   18.1155 C   0  0  0  0  0  0  0  0  0  0  0  0
  -25.9335  -28.5108   18.7701 C   0  0  0  0  0  0  0  0  0  0  0  0
  -29.0173  -33.0102   18.6849 C   0  0  0  0  0  0  0  0  0  0  0  0
  -25.7833  -27.8714   20.0090 C   0  0  0  0  0  0  0  0  0  0  0  0
  -26.9492  -20.2241   16.2675 C   0  0  0  0  0  0  0  0  0  0  0  0
  -23.7835   -7.4684   21.5177 C   0  0  0  0  0  0  0  0  0  0  0  0
  -27.0956  -25.9973   19.1871 C   0  0  0  0  0  0  0  0  0  0  0  0
  -26.7838  -17.8141   16.2278 C   0  0  0  0  0  0  0  0  0  0  0  0
  -22.4097   -5.9416   22.6595 C   0  0  0  0  0  0  0  0  0  0  0  0
  -20.4401   -5.4638   24.5765 C   0  0  0  0  0  0  0  0  0  0  0  0
  -22.6811   -5.1101   23.7461 C   0  0  0  0  0  0  0  0  0  0  0  0
  -25.0170  -11.4717   20.9258 C   0  0  0  0  0  0  0  0  0  0  0  0
  -25.1568  -13.6661   20.9245 C   0  0  0  0  0  0  0  0  0  0  0  0
  -23.1424  -12.7769   22.1078 C   0  0  0  0  0  0  0  0  0  0  0  0
  -26.2676  -31.2254   20.3897 C   0  0  0  0  0  0  0  0  0  0  0  0
  -23.3988  -30.3759   21.6431 C   0  0  0  0  0  0  0  0  0  0  0  0
  -21.1776  -27.8897   22.3723 C   0  0  0  0  0  0  0  0  0  0  0  0
  -28.1478  -15.9996   16.8243 C   0  0  0  0  0  0  0  0  0  0  0  0
  -28.5066  -35.5056   18.7392 C   0  0  0  0  0  0  0  0  0  0  0  0
  -25.2895  -29.8467   18.5193 C   0  0  0  0  0  0  0  0  0  0  0  0
  -25.0092  -28.5007   21.1374 C   0  0  0  0  0  0  0  0  0  0  0  0
  -27.3936  -35.1668   19.7276 C   0  0  0  0  0  0  0  0  0  0  0  0
  -29.8142  -13.6390   18.9711 C   0  0  0  0  0  0  0  0  0  0  0  0
  -27.8406  -34.0584   20.6755 C   0  0  0  0  0  0  0  0  0  0  0  0
  -28.6566  -12.9351   19.6786 C   0  0  0  0  0  0  0  0  0  0  0  0
  -28.4617  -22.6271   18.7038 C   0  0  0  0  0  0  0  0  0  0  0  0
  -26.4101  -23.6272   17.6850 C   0  0  0  0  0  0  0  0  0  0  0  0
  -29.4501  -14.0108   17.5372 C   0  0  0  0  0  0  0  0  0  0  0  0
  -28.5343  -21.6115   17.5669 C   0  0  0  0  0  0  0  0  0  0  0  0
  -26.4833  -22.6163   16.5448 C   0  0  0  0  0  0  0  0  0  0  0  0
  -27.0456  -14.1350   18.1333 C   0  0  0  0  0  0  0  0  0  0  0  0
  -28.1576  -32.7699   19.9069 C   0  0  1  0  0  0  0  0  0  0  0  0
  -25.0202  -30.6301   19.8003 C   0  0  1  0  0  0  0  0  0  0  0  0
  -27.3667  -13.7705   19.5930 C   0  0  1  0  0  0  0  0  0  0  0  0
  -27.7884  -23.9215   18.2659 C   0  0  0  0  0  0  0  0  0  1  0  0
  -18.9364  -27.4986   23.4313 C   0  0  0  0  0  0  0  0  0  0  0  0
  -24.6501  -30.7038   24.4066 C   0  0  0  0  0  0  0  0  0  0  0  0
  -22.7247  -29.4146   25.3548 C   0  0  0  0  0  0  0  0  0  0  0  0
  -22.3206  -31.5908   24.2043 C   0  0  0  0  0  0  0  0  0  0  0  0
  -20.0471  -26.8155   19.8570 C   0  0  0  0  0  0  0  0  0  0  0  0
  -22.9509  -29.5623   22.8332 C   0  0  1  0  0  0  0  0  0  0  0  0
  -19.6828  -27.7729   22.1350 C   0  0  2  0  0  0  0  0  0  0  0  0
  -23.1779  -30.3066   24.1793 C   0  0  0  0  0  0  0  0  0  0  0  0
  -26.1422  -11.7348   20.2559 N   0  0  0  0  0  0  0  0  0  0  0  0
  -26.1997  -13.0774   20.2718 N   0  0  0  0  0  0  0  0  0  0  0  0
  -27.2118  -21.4107   16.9640 N   0  0  0  0  0  0  0  0  0  0  0  0
  -24.4034  -29.8103   20.8451 N   0  0  0  0  0  0  0  0  0  0  0  0
  -28.2019  -14.7710   17.4906 N   0  0  0  0  0  0  0  0  0  0  0  0
  -25.0589  -15.0080   21.0348 N   0  0  0  0  0  0  0  0  0  0  0  0
  -21.9376  -12.8820   21.3994 N   0  0  0  0  0  0  0  0  0  0  0  0
  -26.9358  -32.0864   19.5403 N   0  0  0  0  0  0  0  0  0  0  0  0
  -21.5613  -29.1979   22.5789 N   0  0  0  0  0  0  0  0  0  0  0  0
  -19.3946  -26.6632   21.1829 N   0  3  0  0  0  0  0  0  0  0  0  0
  -23.1238  -12.8243   23.3611 O   0  0  0  0  0  0  0  0  0  0  0  0
  -26.5985  -30.9267   21.5312 O   0  0  0  0  0  0  0  0  0  0  0  0
  -22.8717  -31.4697   21.4254 O   0  0  0  0  0  0  0  0  0  0  0  0
  -21.9292  -26.9172   22.3779 O   0  0  0  0  0  0  0  0  0  0  0  0
  -29.1042  -16.5174   16.2488 O   0  0  0  0  0  0  0  0  0  0  0  0
  -23.3867   -6.1804   21.7076 O   0  0  0  0  0  0  0  0  0  0  0  0
  -26.8788  -16.5824   16.8834 O   0  0  0  0  0  0  0  0  0  0  0  0
  -27.6629  -24.7779   19.3947 O   0  0  0  0  0  0  0  0  0  1  0  0
  -19.4947   -5.2357   25.4976 F   0  0  0  0  0  0  0  0  0  0  0  0
  -23.8865   -4.5390   23.8752 F   0  0  0  0  0  0  0  0  0  0  0  0
  1  2  1  0  0  0  0
  1  6  2  0  0  0  0
  2  7  2  0  0  0  0
  3  9  2  0  0  0  0
  3 10  1  0  0  0  0
  4 11  2  0  0  0  0
  4 19  1  0  0  0  0
  5 12  1  0  0  0  0
  5 19  2  0  0  0  0
  6 21  1  0  0  0  0
  7 23  1  0  0  0  0
  8 13  2  0  0  0  0
  8 22  1  0  0  0  0
  9 25  1  0  0  0  0
 10 28  2  0  0  0  0
 11 26  1  0  0  0  0
 12 26  2  0  0  0  0
 13 27  1  0  0  0  0
 14 15  2  0  0  0  0
 14 29  1  0  0  0  0
 15 30  1  0  0  0  0
 16 24  1  0  0  0  0
 16 27  2  0  0  0  0
 17 25  2  0  0  0  0
 17 28  1  0  0  0  0
 18 30  2  0  0  0  0
 18 31  1  0  0  0  0
 19 32  1  0  0  0  0
 20 32  1  0  0  0  0
 20 33  2  0  0  0  0
 20 34  1  0  0  0  0
 21 23  2  0  0  0  0
 21 39  1  0  0  0  0
 22 24  2  0  0  0  0
 22 40  1  0  0  0  0
 23 52  1  0  0  0  0
 24 41  1  0  0  0  0
 25 66  1  0  0  0  0
 26 79  1  0  0  0  0
 27 81  1  0  0  0  0
 28 80  1  0  0  0  0
 29 31  2  0  0  0  0
 29 79  1  0  0  0  0
 30 82  1  0  0  0  0
 31 83  1  0  0  0  0
 32 64  2  0  0  0  0
 33 65  1  0  0  0  0
 33 69  1  0  0  0  0
 34 70  1  0  0  0  0
 34 74  2  0  0  0  0
 35 53  1  0  0  0  0
 35 71  1  0  0  0  0
 35 75  2  0  0  0  0
 36 61  1  0  0  0  0
 36 67  1  0  0  0  0
 36 76  2  0  0  0  0
 37 62  1  0  0  0  0
 37 72  1  0  0  0  0
 37 77  2  0  0  0  0
 38 68  1  0  0  0  0
 38 78  2  0  0  0  0
 38 80  1  0  0  0  0
 39 42  1  0  0  0  0
 40 53  1  0  0  0  0
 41 67  1  0  0  0  0
 42 44  1  0  0  0  0
 43 45  1  0  0  0  0
 43 48  1  0  0  0  0
 44 52  1  0  0  0  0
 45 54  1  0  0  0  0
 46 49  1  0  0  0  0
 46 55  1  0  0  0  0
 47 50  1  0  0  0  0
 47 55  1  0  0  0  0
 48 68  1  0  0  0  0
 49 66  1  0  0  0  0
 50 66  1  0  0  0  0
 51 54  1  0  0  0  0
 51 68  1  0  0  0  0
 52 71  1  0  0  0  0
 53 67  1  0  0  0  0
 54 65  1  0  0  0  0
 55 81  1  0  0  0  0
 56 62  1  0  0  0  0
 57 63  1  0  0  0  0
 58 63  1  0  0  0  0
 59 63  1  0  0  0  0
 60 73  1  0  0  0  0
 61 63  1  0  0  0  0
 61 72  1  0  0  0  0
 62 73  1  0  0  0  0
 64 65  1  0  0  0  0
M  CHG  1  73   1
M  ISO  4  38 100  55 101  80 100  81 101
M  END
> <Batch ID>
0006

> <Smiles>
CNC(C)C(=O)NC(C(=O)N1Cc2cc([101O:1][101CH:1]3CCN(c4cccc([100O:0][100C:0](=O)N5CCCC(n6nc(-c7ccc(Oc8ccc(F)cc8F)cc7)c(C(N)=O)c6N)C5)c4)CC3)ccc2CC1C(=O)NC1CCCc2ccccc21)C(C)(C)C

> <Shape>
0.251

> <Color>
0.127

> <Negative vol penalty>
0.000

$$$$

  -OEChem-04042320293D

 85 94  0     1  0  0  0  0  0999 V2000
  -21.8959  -20.5315   19.4252 C   0  0  0  0  0  0  0  0  0  0  0  0
  -22.9803  -21.0183   20.1480 C   0  0  0  0  0  0  0  0  0  0  0  0
  -25.7242  -13.6603   21.3735 C   0  0  0  0  0  0  0  0  0  0  0  0
  -25.5389  -14.0563   18.9974 C   0  0  0  0  0  0  0  0  0  0  0  0
  -21.1627  -21.3902   18.6072 C   0  0  0  0  0  0  0  0  0  0  0  0
  -23.3329  -22.3640   20.0524 C   0  0  0  0  0  0  0  0  0  0  0  0
  -25.6234  -25.8947   24.5015 C   0  0  0  0  0  0  0  0  0  0  0  0
  -24.6768  -12.7419   21.3021 C   0  0  0  0  0  0  0  0  0  0  0  0
  -24.4916  -13.1378   18.9260 C   0  0  0  0  0  0  0  0  0  0  0  0
  -26.9248  -26.2875   24.8108 C   0  0  0  0  0  0  0  0  0  0  0  0
  -24.2429   -9.5281   20.3448 C   0  0  0  0  0  0  0  0  0  0  0  0
  -24.3970   -8.3158   21.0172 C   0  0  0  0  0  0  0  0  0  0  0  0
  -26.5843  -28.3467   23.6013 C   0  0  0  0  0  0  0  0  0  0  0  0
  -22.4464   -8.8097   22.3545 C   0  0  0  0  0  0  0  0  0  0  0  0
  -26.1552  -14.3176   20.2211 C   0  0  0  0  0  0  0  0  0  0  0  0
  -28.6112  -15.0030   20.1430 C   0  0  0  0  0  0  0  0  0  0  0  0
  -21.5006  -22.7492   18.5090 C   0  0  0  0  0  0  0  0  0  0  0  0
  -24.7949  -26.7215   23.7292 C   0  0  0  0  0  0  0  0  0  0  0  0
  -22.6044  -23.2414   19.2313 C   0  0  0  0  0  0  0  0  0  0  0  0
  -25.2719  -27.9632   23.2857 C   0  0  0  0  0  0  0  0  0  0  0  0
  -24.0606  -12.4806   20.0784 C   0  0  0  0  0  0  0  0  0  0  0  0
  -27.4065  -27.5124   24.3583 C   0  0  0  0  0  0  0  0  0  0  0  0
  -23.1907  -10.3813   20.6773 C   0  0  0  0  0  0  0  0  0  0  0  0
  -23.4987   -7.9566   22.0220 C   0  0  0  0  0  0  0  0  0  0  0  0
  -22.2924  -10.0221   21.6821 C   0  0  0  0  0  0  0  0  0  0  0  0
  -27.2367  -15.2669   20.2943 C   0  0  0  0  0  0  0  0  0  0  0  0
  -29.2150  -16.2267   20.2990 C   0  0  0  0  0  0  0  0  0  0  0  0
  -31.8224  -24.8437   20.7980 C   0  0  0  0  0  0  0  0  0  0  0  0
  -29.2821  -13.7626   19.8844 C   0  0  0  0  0  0  0  0  0  0  0  0
  -23.3518  -26.4469   20.9103 C   0  0  0  0  0  0  0  0  0  0  0  0
  -22.0306  -29.2886   21.7478 C   0  0  0  0  0  0  0  0  0  0  0  0
  -22.2393  -32.1467   23.6011 C   0  0  0  0  0  0  0  0  0  0  0  0
  -29.4994  -21.5708   19.1558 C   0  0  0  0  0  0  0  0  0  0  0  0
  -20.7075  -23.6287   17.5752 C   0  0  0  0  0  0  0  0  0  0  0  0
  -23.3846  -26.2951   23.4267 C   0  0  0  0  0  0  0  0  0  0  0  0
  -24.4158  -28.8965   22.4705 C   0  0  0  0  0  0  0  0  0  0  0  0
  -32.0173  -25.9189   21.8006 C   0  0  0  0  0  0  0  0  0  0  0  0
  -20.9166  -25.1210   17.8195 C   0  0  0  0  0  0  0  0  0  0  0  0
  -29.1142  -25.3705   17.5811 C   0  0  0  0  0  0  0  0  0  0  0  0
  -27.3444  -20.6419   21.9109 C   0  0  0  0  0  0  0  0  0  0  0  0
  -22.4020  -25.4346   17.9684 C   0  0  0  0  0  0  0  0  0  0  0  0
  -27.2399  -19.1279   21.7182 C   0  0  0  0  0  0  0  0  0  0  0  0
  -29.5193  -26.5271   18.4798 C   0  0  0  0  0  0  0  0  0  0  0  0
  -30.2219  -24.3303   17.5603 C   0  0  0  0  0  0  0  0  0  0  0  0
  -27.3658  -21.3696   20.5699 C   0  0  0  0  0  0  0  0  0  0  0  0
  -28.3347  -19.4024   19.4454 C   0  0  0  0  0  0  0  0  0  0  0  0
  -30.3046  -27.2659   20.7131 C   0  0  0  0  0  0  0  0  0  0  0  0
  -23.0028  -24.7002   19.1731 C   0  0  1  0  0  0  0  0  0  0  0  0
  -22.8010  -26.9882   22.1993 C   0  0  1  0  0  0  0  0  0  0  0  0
  -28.3313  -18.6079   20.7640 C   0  0  2  0  0  0  0  0  0  0  0  0
  -29.8261  -26.0655   19.9074 C   0  0  2  0  0  0  0  0  0  0  0  0
  -30.5540  -23.8080   18.9561 C   0  0  1  0  0  0  0  0  0  0  0  0
  -21.0286  -34.2995   24.0450 C   0  0  0  0  0  0  0  0  0  0  0  0
  -23.0210  -30.3927   19.0813 C   0  0  0  0  0  0  0  0  0  0  0  0
  -22.6422  -32.7003   19.9755 C   0  0  0  0  0  0  0  0  0  0  0  0
  -20.7199  -31.1302   19.7257 C   0  0  0  0  0  0  0  0  0  0  0  0
  -21.8782  -31.4881   26.4637 C   0  0  0  0  0  0  0  0  0  0  0  0
  -31.0165  -27.4046   24.4280 C   0  0  0  0  0  0  0  0  0  0  0  0
  -31.0864  -27.9022   22.9921 C   0  0  0  0  0  0  0  0  0  0  0  0
  -29.6473  -26.8662   24.8244 C   0  0  0  0  0  0  0  0  0  1  0  0
  -22.4090  -30.7387   21.5657 C   0  0  1  0  0  0  0  0  0  0  0  0
  -21.2228  -32.8548   24.4785 C   0  0  2  0  0  0  0  0  0  0  0  0
  -22.2151  -31.2223   20.1007 C   0  0  0  0  0  0  0  0  0  0  0  0
  -26.9820  -16.5570   20.5286 N   0  0  0  0  0  0  0  0  0  0  0  0
  -28.2048  -17.1146   20.5258 N   0  0  0  0  0  0  0  0  0  0  0  0
  -30.8220  -24.9417   19.8955 N   0  0  0  0  0  0  0  0  0  0  0  0
  -23.0461  -28.4319   22.1955 N   0  0  0  0  0  0  0  0  0  0  0  0
  -28.4386  -20.8401   19.7163 N   0  0  0  0  0  0  0  0  0  0  0  0
  -30.5061  -16.6192   20.2630 N   0  0  0  0  0  0  0  0  0  0  0  0
  -28.5101  -12.6004   19.7517 N   0  0  0  0  0  0  0  0  0  0  0  0
  -22.6458  -25.3723   20.4041 N   0  0  0  0  0  0  0  0  0  0  0  0
  -21.6365  -31.4889   22.5498 N   0  0  0  0  0  0  0  0  0  0  0  0
  -29.5213  -22.9275   19.4552 N   0  0  0  0  0  0  0  0  0  0  0  0
  -32.7024  -23.8488   20.9162 N   0  3  0  0  0  0  0  0  0  0  0  0
  -30.8136  -26.7819   22.0302 N   0  3  2  0  0  0  0  0  0  0  0  0
  -21.6705  -32.8467   25.8999 N   0  3  0  0  0  0  0  0  0  0  0  0
  -30.5306  -13.6843   19.7906 O   0  0  0  0  0  0  0  0  0  0  0  0
  -24.3430  -26.9668   20.4113 O   0  0  0  0  0  0  0  0  0  0  0  0
  -20.8745  -28.9308   21.5087 O   0  0  0  0  0  0  0  0  0  0  0  0
  -23.4476  -32.1774   23.8238 O   0  0  0  0  0  0  0  0  0  0  0  0
  -30.3667  -21.0514   18.4451 O   0  0  0  0  0  0  0  0  0  0  0  0
  -23.0387  -11.5842   20.0083 O   0  0  0  0  0  0  0  0  0  0  0  0
  -28.6855  -27.9007   24.6604 O   0  0  0  0  0  0  0  0  0  1  0  0
  -23.6458   -6.7916   22.6666 F   0  0  0  0  0  0  0  0  0  0  0  0
  -21.2789  -10.8371   22.0051 F   0  0  0  0  0  0  0  0  0  0  0  0
  1  2  1  0  0  0  0
  1  5  2  0  0  0  0
  2  6  2  0  0  0  0
  3  8  2  0  0  0  0
  3 15  1  0  0  0  0
  4  9  1  0  0  0  0
  4 15  2  0  0  0  0
  5 17  1  0  0  0  0
  6 19  1  0  0  0  0
  7 10  2  0  0  0  0
  7 18  1  0  0  0  0
  8 21  1  0  0  0  0
  9 21  2  0  0  0  0
 10 22  1  0  0  0  0
 11 12  2  0  0  0  0
 11 23  1  0  0  0  0
 12 24  1  0  0  0  0
 13 20  1  0  0  0  0
 13 22  2  0  0  0  0
 14 24  2  0  0  0  0
 14 25  1  0  0  0  0
 15 26  1  0  0  0  0
 16 26  1  0  0  0  0
 16 27  2  0  0  0  0
 16 29  1  0  0  0  0
 17 19  2  0  0  0  0
 17 34  1  0  0  0  0
 18 20  2  0  0  0  0
 18 35  1  0  0  0  0
 19 48  1  0  0  0  0
 20 36  1  0  0  0  0
 21 82  1  0  0  0  0
 22 83  1  0  0  0  0
 23 25  2  0  0  0  0
 23 82  1  0  0  0  0
 24 84  1  0  0  0  0
 25 85  1  0  0  0  0
 26 64  2  0  0  0  0
 27 65  1  0  0  0  0
 27 69  1  0  0  0  0
 28 37  1  0  0  0  0
 28 66  1  0  0  0  0
 28 74  2  0  0  0  0
 29 70  1  0  0  0  0
 29 77  2  0  0  0  0
 30 49  1  0  0  0  0
 30 71  1  0  0  0  0
 30 78  2  0  0  0  0
 31 61  1  0  0  0  0
 31 67  1  0  0  0  0
 31 79  2  0  0  0  0
 32 62  1  0  0  0  0
 32 72  1  0  0  0  0
 32 80  2  0  0  0  0
 33 68  1  0  0  0  0
 33 73  1  0  0  0  0
 33 81  2  0  0  0  0
 34 38  1  0  0  0  0
 35 49  1  0  0  0  0
 36 67  1  0  0  0  0
 37 75  1  0  0  0  0
 38 41  1  0  0  0  0
 39 43  1  0  0  0  0
 39 44  1  0  0  0  0
 40 42  1  0  0  0  0
 40 45  1  0  0  0  0
 41 48  1  0  0  0  0
 42 50  1  0  0  0  0
 43 51  1  0  0  0  0
 44 52  1  0  0  0  0
 45 68  1  0  0  0  0
 46 50  1  0  0  0  0
 46 68  1  0  0  0  0
 47 51  1  0  0  0  0
 47 75  1  0  0  0  0
 48 71  1  0  0  0  0
 49 67  1  0  0  0  0
 50 65  1  0  0  0  0
 51 66  1  0  0  0  0
 52 66  1  0  0  0  0
 52 73  1  0  0  0  0
 53 62  1  0  0  0  0
 54 63  1  0  0  0  0
 55 63  1  0  0  0  0
 56 63  1  0  0  0  0
 57 76  1  0  0  0  0
 58 59  1  0  0  0  0
 58 60  1  0  0  0  0
 59 75  1  0  0  0  0
 60 83  1  0  0  0  0
 61 63  1  0  0  0  0
 61 72  1  0  0  0  0
 62 76  1  0  0  0  0
 64 65  1  0  0  0  0
M  CHG  3  74   1  75   1  76   1
M  ISO  4  33 100  60 101  73 100  83 101
M  END
> <Batch ID>
0006

> <Smiles>
CNC(C)C(=O)NC(C(=O)N1Cc2cc([101O:1][101CH2:1]CCN3CC(=N)N4C(CCCC4[100NH:0][100C:0](=O)N4CCCC(n5nc(-c6ccc(Oc7ccc(F)cc7F)cc6)c(C(N)=O)c5N)C4)C3)ccc2CC1C(=O)NC1CCCc2ccccc21)C(C)(C)C

> <Shape>
0.229

> <Color>
0.049

> <Negative vol penalty>
0.000

$$$$

  -OEChem-04042320293D

 82 90  0     1  0  0  0  0  0999 V2000
  -28.7056  -34.2817   19.8526 C   0  0  0  0  0  0  0  0  0  0  0  0
  -29.6920  -33.5960   20.5542 C   0  0  0  0  0  0  0  0  0  0  0  0
  -23.0680   -9.9276   19.9269 C   0  0  0  0  0  0  0  0  0  0  0  0
  -23.8409   -9.8994   22.2158 C   0  0  0  0  0  0  0  0  0  0  0  0
  -27.4514  -33.7011   19.6685 C   0  0  0  0  0  0  0  0  0  0  0  0
  -29.4244  -32.3298   21.0732 C   0  0  0  0  0  0  0  0  0  0  0  0
  -32.6248  -26.0713   22.4533 C   0  0  0  0  0  0  0  0  0  0  0  0
  -32.7630  -17.3871   23.4546 C   0  0  0  0  0  0  0  0  0  0  0  0
  -32.1426  -16.5273   22.5483 C   0  0  0  0  0  0  0  0  0  0  0  0
  -22.3133   -8.7795   20.1676 C   0  0  0  0  0  0  0  0  0  0  0  0
  -23.0861   -8.7513   22.4565 C   0  0  0  0  0  0  0  0  0  0  0  0
  -32.8066  -25.1607   23.4933 C   0  0  0  0  0  0  0  0  0  0  0  0
  -19.8531   -7.9807   23.0682 C   0  0  0  0  0  0  0  0  0  0  0  0
  -19.1024   -7.9350   24.2429 C   0  0  0  0  0  0  0  0  0  0  0  0
  -30.6294  -24.2236   23.0453 C   0  0  0  0  0  0  0  0  0  0  0  0
  -30.6071  -18.2737   24.0895 C   0  0  0  0  0  0  0  0  0  0  0  0
  -20.3272   -5.9760   24.9494 C   0  0  0  0  0  0  0  0  0  0  0  0
  -23.8319  -10.4875   20.9510 C   0  0  0  0  0  0  0  0  0  0  0  0
  -24.1999  -13.0101   20.8587 C   0  0  0  0  0  0  0  0  0  0  0  0
  -27.1714  -32.4230   20.1771 C   0  0  0  0  0  0  0  0  0  0  0  0
  -31.4374  -26.0719   21.7072 C   0  0  0  0  0  0  0  0  0  0  0  0
  -28.1648  -31.7321   20.8969 C   0  0  0  0  0  0  0  0  0  0  0  0
  -30.4361  -25.1334   21.9946 C   0  0  0  0  0  0  0  0  0  0  0  0
  -31.9952  -18.2603   24.2253 C   0  0  0  0  0  0  0  0  0  0  0  0
  -29.9866  -17.4139   23.1831 C   0  0  0  0  0  0  0  0  0  0  0  0
  -30.7544  -16.5408   22.4125 C   0  0  0  0  0  0  0  0  0  0  0  0
  -22.3223   -8.1914   21.4324 C   0  0  0  0  0  0  0  0  0  0  0  0
  -31.8076  -24.2386   23.7913 C   0  0  0  0  0  0  0  0  0  0  0  0
  -20.8408   -7.0240   22.8341 C   0  0  0  0  0  0  0  0  0  0  0  0
  -19.3394   -6.9327   25.1835 C   0  0  0  0  0  0  0  0  0  0  0  0
  -21.0779   -6.0217   23.7746 C   0  0  0  0  0  0  0  0  0  0  0  0
  -24.6121  -11.6731   20.7028 C   0  0  0  0  0  0  0  0  0  0  0  0
  -25.2979  -13.7522   20.4979 C   0  0  0  0  0  0  0  0  0  0  0  0
  -22.9374  -13.5344   21.2909 C   0  0  0  0  0  0  0  0  0  0  0  0
  -29.1047  -28.1720   21.2055 C   0  0  0  0  0  0  0  0  0  0  0  0
  -28.0729  -25.9343   19.0959 C   0  0  0  0  0  0  0  0  0  0  0  0
  -28.0397  -22.6616   18.1287 C   0  0  0  0  0  0  0  0  0  0  0  0
  -30.7759  -14.7376   20.6533 C   0  0  0  0  0  0  0  0  0  0  0  0
  -25.7858  -31.8563   19.9937 C   0  0  0  0  0  0  0  0  0  0  0  0
  -31.2678  -27.0430   20.5712 C   0  0  0  0  0  0  0  0  0  0  0  0
  -29.1512  -25.0794   21.2106 C   0  0  0  0  0  0  0  0  0  0  0  0
  -25.7030  -30.3541   20.2524 C   0  0  0  0  0  0  0  0  0  0  0  0
  -29.6224  -12.3639   18.2633 C   0  0  0  0  0  0  0  0  0  0  0  0
  -26.4310  -29.9938   21.5435 C   0  0  0  0  0  0  0  0  0  0  0  0
  -28.1822  -12.0826   18.6978 C   0  0  0  0  0  0  0  0  0  0  0  0
  -30.5467  -12.5688   19.4623 C   0  0  0  0  0  0  0  0  0  0  0  0
  -28.6554  -13.2971   20.8629 C   0  0  0  0  0  0  0  0  0  0  0  0
  -27.9207  -30.3463   21.4536 C   0  0  1  0  0  0  0  0  0  0  0  0
  -29.8065  -27.2914   20.2106 C   0  0  1  0  0  0  0  0  0  0  0  0
  -27.6742  -13.1481   19.6888 C   0  0  2  0  0  0  0  0  0  0  0  0
  -28.4980  -17.4520   23.0563 C   0  0  0  0  0  0  0  0  0  0  0  0
  -27.0776  -21.1317   16.3877 C   0  0  0  0  0  0  0  0  0  0  0  0
  -25.3716  -26.0259   20.5116 C   0  0  0  0  0  0  0  0  0  0  0  0
  -24.7873  -23.8668   19.3869 C   0  0  0  0  0  0  0  0  0  0  0  0
  -25.2385  -25.9022   18.0173 C   0  0  0  0  0  0  0  0  0  0  0  0
  -30.7257  -21.9021   17.1453 C   0  0  0  0  0  0  0  0  0  0  0  0
  -32.6629  -19.1867   25.1984 C   0  0  0  0  0  0  0  0  0  0  0  0
  -33.3066  -21.5487   25.6935 C   0  0  0  0  0  0  0  0  0  0  0  0
  -33.3196  -22.9379   25.0867 C   0  0  0  0  0  0  0  0  0  1  0  0
  -27.1606  -24.7338   19.1716 C   0  0  1  0  0  0  0  0  0  0  0  0
  -28.2578  -22.0089   16.7756 C   0  0  2  0  0  0  0  0  0  0  0  0
  -25.6628  -25.1342   19.2881 C   0  0  0  0  0  0  0  0  0  0  0  0
  -25.8735  -11.5688   20.2762 N   0  0  0  0  0  0  0  0  0  0  0  0
  -26.2634  -12.8497   20.1607 N   0  0  0  0  0  0  0  0  0  0  0  0
  -29.0300  -26.0537   20.1135 N   0  0  0  0  0  0  0  0  0  0  0  0
  -30.0037  -13.5951   20.3549 N   0  0  0  0  0  0  0  0  0  0  0  0
  -25.5221  -15.0821   20.4393 N   0  0  0  0  0  0  0  0  0  0  0  0
  -21.9178  -12.6321   21.6233 N   0  0  0  0  0  0  0  0  0  0  0  0
  -30.1431  -15.6598   21.4863 N   0  0  0  0  0  0  0  0  0  0  0  0
  -28.6284  -29.3546   20.6725 N   0  0  0  0  0  0  0  0  0  0  0  0
  -27.4705  -23.9116   18.0070 N   0  0  0  0  0  0  0  0  0  0  0  0
  -29.4843  -21.1626   16.8004 N   0  3  0  0  0  0  0  0  0  0  0  0
  -32.7050  -20.5969   24.7258 N   0  3  0  0  0  0  0  0  0  0  0  0
  -22.7146  -14.7667   21.3641 O   0  0  0  0  0  0  0  0  0  0  0  0
  -29.0017  -27.8050   22.3701 O   0  0  0  0  0  0  0  0  0  0  0  0
  -27.9459  -26.7326   18.1642 O   0  0  0  0  0  0  0  0  0  0  0  0
  -28.3405  -22.1156   19.1879 O   0  0  0  0  0  0  0  0  0  0  0  0
  -31.9041  -14.8999   20.1812 O   0  0  0  0  0  0  0  0  0  0  0  0
  -21.5858   -7.0712   21.6677 O   0  0  0  0  0  0  0  0  0  0  0  0
  -31.9822  -23.3492   24.8064 O   0  0  0  0  0  0  0  0  0  1  0  0
  -18.6195   -6.8898   26.3123 F   0  0  0  0  0  0  0  0  0  0  0  0
  -22.0262   -5.1005   23.5558 F   0  0  0  0  0  0  0  0  0  0  0  0
  1  2  1  0  0  0  0
  1  5  2  0  0  0  0
  2  6  2  0  0  0  0
  3 10  2  0  0  0  0
  3 18  1  0  0  0  0
  4 11  1  0  0  0  0
  4 18  2  0  0  0  0
  5 20  1  0  0  0  0
  6 22  1  0  0  0  0
  7 12  2  0  0  0  0
  7 21  1  0  0  0  0
  8  9  2  0  0  0  0
  8 24  1  0  0  0  0
  9 26  1  0  0  0  0
 10 27  1  0  0  0  0
 11 27  2  0  0  0  0
 12 28  1  0  0  0  0
 13 14  2  0  0  0  0
 13 29  1  0  0  0  0
 14 30  1  0  0  0  0
 15 23  1  0  0  0  0
 15 28  2  0  0  0  0
 16 24  2  0  0  0  0
 16 25  1  0  0  0  0
 17 30  2  0  0  0  0
 17 31  1  0  0  0  0
 18 32  1  0  0  0  0
 19 32  1  0  0  0  0
 19 33  2  0  0  0  0
 19 34  1  0  0  0  0
 20 22  2  0  0  0  0
 20 39  1  0  0  0  0
 21 23  2  0  0  0  0
 21 40  1  0  0  0  0
 22 48  1  0  0  0  0
 23 41  1  0  0  0  0
 24 57  1  0  0  0  0
 25 26  2  0  0  0  0
 25 51  1  0  0  0  0
 26 69  1  0  0  0  0
 27 79  1  0  0  0  0
 28 80  1  0  0  0  0
 29 31  2  0  0  0  0
 29 79  1  0  0  0  0
 30 81  1  0  0  0  0
 31 82  1  0  0  0  0
 32 63  2  0  0  0  0
 33 64  1  0  0  0  0
 33 67  1  0  0  0  0
 34 68  1  0  0  0  0
 34 74  2  0  0  0  0
 35 49  1  0  0  0  0
 35 70  1  0  0  0  0
 35 75  2  0  0  0  0
 36 60  1  0  0  0  0
 36 65  1  0  0  0  0
 36 76  2  0  0  0  0
 37 61  1  0  0  0  0
 37 71  1  0  0  0  0
 37 77  2  0  0  0  0
 38 66  1  0  0  0  0
 38 69  1  0  0  0  0
 38 78  2  0  0  0  0
 39 42  1  0  0  0  0
 40 49  1  0  0  0  0
 41 65  1  0  0  0  0
 42 44  1  0  0  0  0
 43 45  1  0  0  0  0
 43 46  1  0  0  0  0
 44 48  1  0  0  0  0
 45 50  1  0  0  0  0
 46 66  1  0  0  0  0
 47 50  1  0  0  0  0
 47 66  1  0  0  0  0
 48 70  1  0  0  0  0
 49 65  1  0  0  0  0
 50 64  1  0  0  0  0
 52 61  1  0  0  0  0
 53 62  1  0  0  0  0
 54 62  1  0  0  0  0
 55 62  1  0  0  0  0
 56 72  1  0  0  0  0
 57 73  1  0  0  0  0
 58 59  1  0  0  0  0
 58 73  1  0  0  0  0
 59 80  1  0  0  0  0
 60 62  1  0  0  0  0
 60 71  1  0  0  0  0
 61 72  1  0  0  0  0
 63 64  1  0  0  0  0
M  CHG  2  72   1  73   1
M  ISO  4  38 100  59 101  69 100  80 101
M  END
> <Batch ID>
0006

> <Smiles>
CNC(C)C(=O)NC(C(=O)N1Cc2cc([101O:1][101CH2:1]CNCc3ccc([100NH:0][100C:0](=O)N4CCCC(n5nc(-c6ccc(Oc7ccc(F)cc7F)cc6)c(C(N)=O)c5N)C4)c(C)c3)ccc2CC1C(=O)NC1CCCc2ccccc21)C(C)(C)C

> <Shape>
0.262

> <Color>
0.199

> <Negative vol penalty>
0.000

$$$$

  -OEChem-04042320293D

 85 94  0     1  0  0  0  0  0999 V2000
  -16.7999  -28.3946   23.8071 C   0  0  0  0  0  0  0  0  0  0  0  0
  -17.4993  -27.9587   22.6863 C   0  0  0  0  0  0  0  0  0  0  0  0
  -25.7576  -11.6824   19.1359 C   0  0  0  0  0  0  0  0  0  0  0  0
  -26.2312  -11.9004   21.4950 C   0  0  0  0  0  0  0  0  0  0  0  0
  -17.1657  -29.5835   24.4368 C   0  0  0  0  0  0  0  0  0  0  0  0
  -18.5643  -28.7122   22.1938 C   0  0  0  0  0  0  0  0  0  0  0  0
  -28.6756  -21.9619   17.3185 C   0  0  0  0  0  0  0  0  0  0  0  0
  -27.8369  -20.3813   15.6952 C   0  0  0  0  0  0  0  0  0  0  0  0
  -22.5871  -25.8635   21.0336 C   0  0  0  0  0  0  0  0  0  0  0  0
  -29.2484  -20.9156   18.0414 C   0  0  0  0  0  0  0  0  0  0  0  0
  -28.4098  -19.3349   16.4181 C   0  0  0  0  0  0  0  0  0  0  0  0
  -24.4751  -11.2233   19.4358 C   0  0  0  0  0  0  0  0  0  0  0  0
  -24.9486  -11.4413   21.7949 C   0  0  0  0  0  0  0  0  0  0  0  0
  -22.5416  -25.1563   19.8329 C   0  0  0  0  0  0  0  0  0  0  0  0
  -23.3341   -8.4741   21.9353 C   0  0  0  0  0  0  0  0  0  0  0  0
  -23.2073   -7.5174   22.9423 C   0  0  0  0  0  0  0  0  0  0  0  0
  -23.9049  -26.8513   18.7900 C   0  0  0  0  0  0  0  0  0  0  0  0
  -21.7975   -9.0255   24.1974 C   0  0  0  0  0  0  0  0  0  0  0  0
  -26.6357  -12.0209   20.1655 C   0  0  0  0  0  0  0  0  0  0  0  0
  -28.9639  -11.8100   19.1443 C   0  0  0  0  0  0  0  0  0  0  0  0
  -27.9697  -21.6948   16.1454 C   0  0  0  0  0  0  0  0  0  0  0  0
  -18.2418  -30.3471   23.9576 C   0  0  0  0  0  0  0  0  0  0  0  0
  -23.2840  -27.0774   21.1187 C   0  0  0  0  0  0  0  0  0  0  0  0
  -18.9439  -29.9132   22.8169 C   0  0  0  0  0  0  0  0  0  0  0  0
  -23.9599  -27.5706   19.9936 C   0  0  0  0  0  0  0  0  0  0  0  0
  -29.1156  -19.6021   17.5912 C   0  0  0  0  0  0  0  0  0  0  0  0
  -24.0706  -11.1027   20.7652 C   0  0  0  0  0  0  0  0  0  0  0  0
  -23.1981  -25.6517   18.7101 C   0  0  0  0  0  0  0  0  0  0  0  0
  -22.6928   -9.7065   22.0593 C   0  0  0  0  0  0  0  0  0  0  0  0
  -22.4389   -7.7930   24.0734 C   0  0  0  0  0  0  0  0  0  0  0  0
  -21.9244   -9.9822   23.1903 C   0  0  0  0  0  0  0  0  0  0  0  0
  -27.9609  -12.4947   19.8564 C   0  0  0  0  0  0  0  0  0  0  0  0
  -30.0251  -12.6817   19.1222 C   0  0  0  0  0  0  0  0  0  0  0  0
  -28.9385  -10.5030   18.5554 C   0  0  0  0  0  0  0  0  0  0  0  0
  -22.4797  -30.0854   21.7580 C   0  0  0  0  0  0  0  0  0  0  0  0
  -25.6872  -30.5566   21.6455 C   0  0  0  0  0  0  0  0  0  0  0  0
  -28.7302  -29.5149   20.5047 C   0  0  0  0  0  0  0  0  0  0  0  0
  -30.4300  -18.6308   19.5083 C   0  0  0  0  0  0  0  0  0  0  0  0
  -18.5701  -31.6496   24.6434 C   0  0  0  0  0  0  0  0  0  0  0  0
  -23.3458  -27.8146   22.4283 C   0  0  0  0  0  0  0  0  0  0  0  0
  -24.7389  -28.8589   20.0380 C   0  0  0  0  0  0  0  0  0  0  0  0
  -19.9483  -32.1977   24.2822 C   0  0  0  0  0  0  0  0  0  0  0  0
  -26.6672  -23.0100   13.0051 C   0  0  0  0  0  0  0  0  0  0  0  0
  -31.9957  -16.2471   21.6399 C   0  0  0  0  0  0  0  0  0  0  0  0
  -27.8916  -22.9725   13.9211 C   0  0  0  0  0  0  0  0  0  0  0  0
  -20.1685  -32.1368   22.7740 C   0  0  0  0  0  0  0  0  0  0  0  0
  -31.2339  -14.9507   21.3552 C   0  0  0  0  0  0  0  0  0  0  0  0
  -25.5246  -23.4471   13.9093 C   0  0  0  0  0  0  0  0  0  0  0  0
  -31.0744  -17.4653   21.6062 C   0  0  0  0  0  0  0  0  0  0  0  0
  -29.5071  -16.3044   20.1012 C   0  0  0  0  0  0  0  0  0  0  0  0
  -27.3487  -22.8292   15.3619 C   0  0  1  0  0  0  0  0  0  0  0  0
  -20.1206  -30.6902   22.2675 C   0  0  1  0  0  0  0  0  0  0  0  0
  -23.6559  -29.2993   22.2642 C   0  0  1  0  0  0  0  0  0  0  0  0
  -30.4048  -15.0570   20.0602 C   0  0  2  0  0  0  0  0  0  0  0  0
  -25.8295  -22.6859   15.1880 C   0  0  1  0  0  0  0  0  0  0  0  0
  -31.1640  -30.1250   20.5467 C   0  0  0  0  0  0  0  0  0  0  0  0
  -25.1645  -32.7715   19.6131 C   0  0  0  0  0  0  0  0  0  0  0  0
  -27.5898  -32.6839   18.9980 C   0  0  0  0  0  0  0  0  0  0  0  0
  -26.9147  -33.3103   21.3163 C   0  0  0  0  0  0  0  0  0  0  0  0
  -29.4625  -26.9775   21.8405 C   0  0  0  0  0  0  0  0  0  0  0  0
  -23.6628  -22.9108   16.3922 C   0  0  0  0  0  0  0  0  0  0  0  0
  -23.0386  -23.5440   17.6201 C   0  0  0  0  0  0  0  0  0  1  0  0
  -26.6787  -30.9085   20.5629 C   0  0  1  0  0  0  0  0  0  0  0  0
  -30.0588  -29.3204   21.2129 C   0  0  2  0  0  0  0  0  0  0  0  0
  -26.5707  -32.3952   20.1209 C   0  0  0  0  0  0  0  0  0  0  0  0
  -28.3501  -13.7077   20.2578 N   0  0  0  0  0  0  0  0  0  0  0  0
  -29.6095  -13.7921   19.7964 N   0  0  0  0  0  0  0  0  0  0  0  0
  -24.7643  -29.5463   21.3397 N   0  0  0  0  0  0  0  0  0  0  0  0
  -30.3244  -17.5025   20.3488 N   0  0  0  0  0  0  0  0  0  0  0  0
  -31.2638  -12.5990   18.5921 N   0  0  0  0  0  0  0  0  0  0  0  0
  -27.7681   -9.7408   18.6709 N   0  0  0  0  0  0  0  0  0  0  0  0
  -29.6976  -18.5390   18.3251 N   0  0  0  0  0  0  0  0  0  0  0  0
  -21.3618  -30.0086   22.5665 N   0  0  0  0  0  0  0  0  0  0  0  0
  -27.9920  -30.5309   21.0738 N   0  0  0  0  0  0  0  0  0  0  0  0
  -25.1018  -23.2716   16.3327 N   0  3  0  0  0  0  0  0  0  0  0  0
  -30.4491  -27.8822   21.1962 N   0  3  0  0  0  0  0  0  0  0  0  0
  -29.9302  -10.0188   17.9591 O   0  0  0  0  0  0  0  0  0  0  0  0
  -22.5796  -30.7162   20.7122 O   0  0  0  0  0  0  0  0  0  0  0  0
  -25.7344  -31.1510   22.7253 O   0  0  0  0  0  0  0  0  0  0  0  0
  -28.3837  -28.8360   19.5406 O   0  0  0  0  0  0  0  0  0  0  0  0
  -31.1408  -19.5952   19.8027 O   0  0  0  0  0  0  0  0  0  0  0  0
  -22.8191  -10.6550   21.0582 O   0  0  0  0  0  0  0  0  0  0  0  0
  -23.1547  -24.9638   17.5367 O   0  0  0  0  0  0  0  0  0  1  0  0
  -22.3159   -6.8737   25.0397 F   0  0  0  0  0  0  0  0  0  0  0  0
  -21.3050  -11.1640   23.3145 F   0  0  0  0  0  0  0  0  0  0  0  0
  1  2  1  0  0  0  0
  1  5  2  0  0  0  0
  2  6  2  0  0  0  0
  3 12  2  0  0  0  0
  3 19  1  0  0  0  0
  4 13  1  0  0  0  0
  4 19  2  0  0  0  0
  5 22  1  0  0  0  0
  6 24  1  0  0  0  0
  7 10  2  0  0  0  0
  7 21  1  0  0  0  0
  8 11  1  0  0  0  0
  8 21  2  0  0  0  0
  9 14  2  0  0  0  0
  9 23  1  0  0  0  0
 10 26  1  0  0  0  0
 11 26  2  0  0  0  0
 12 27  1  0  0  0  0
 13 27  2  0  0  0  0
 14 28  1  0  0  0  0
 15 16  2  0  0  0  0
 15 29  1  0  0  0  0
 16 30  1  0  0  0  0
 17 25  1  0  0  0  0
 17 28  2  0  0  0  0
 18 30  2  0  0  0  0
 18 31  1  0  0  0  0
 19 32  1  0  0  0  0
 20 32  1  0  0  0  0
 20 33  2  0  0  0  0
 20 34  1  0  0  0  0
 21 51  1  0  0  0  0
 22 24  2  0  0  0  0
 22 39  1  0  0  0  0
 23 25  2  0  0  0  0
 23 40  1  0  0  0  0
 24 52  1  0  0  0  0
 25 41  1  0  0  0  0
 26 72  1  0  0  0  0
 27 82  1  0  0  0  0
 28 83  1  0  0  0  0
 29 31  2  0  0  0  0
 29 82  1  0  0  0  0
 30 84  1  0  0  0  0
 31 85  1  0  0  0  0
 32 66  2  0  0  0  0
 33 67  1  0  0  0  0
 33 70  1  0  0  0  0
 34 71  1  0  0  0  0
 34 77  2  0  0  0  0
 35 53  1  0  0  0  0
 35 73  1  0  0  0  0
 35 78  2  0  0  0  0
 36 63  1  0  0  0  0
 36 68  1  0  0  0  0
 36 79  2  0  0  0  0
 37 64  1  0  0  0  0
 37 74  1  0  0  0  0
 37 80  2  0  0  0  0
 38 69  1  0  0  0  0
 38 72  1  0  0  0  0
 38 81  2  0  0  0  0
 39 42  1  0  0  0  0
 40 53  1  0  0  0  0
 41 68  1  0  0  0  0
 42 46  1  0  0  0  0
 43 45  1  0  0  0  0
 43 48  1  0  0  0  0
 44 47  1  0  0  0  0
 44 49  1  0  0  0  0
 45 51  1  0  0  0  0
 46 52  1  0  0  0  0
 47 54  1  0  0  0  0
 48 55  1  0  0  0  0
 49 69  1  0  0  0  0
 50 54  1  0  0  0  0
 50 69  1  0  0  0  0
 51 55  1  0  0  0  0
 52 73  1  0  0  0  0
 53 68  1  0  0  0  0
 54 67  1  0  0  0  0
 55 75  1  0  0  0  0
 56 64  1  0  0  0  0
 57 65  1  0  0  0  0
 58 65  1  0  0  0  0
 59 65  1  0  0  0  0
 60 76  1  0  0  0  0
 61 62  1  0  0  0  0
 61 75  1  0  0  0  0
 62 83  1  0  0  0  0
 63 65  1  0  0  0  0
 63 74  1  0  0  0  0
 64 76  1  0  0  0  0
 66 67  1  0  0  0  0
M  CHG  2  75   1  76   1
M  ISO  4  38 100  62 101  72 100  83 101
M  END
> <Batch ID>
0006

> <Smiles>
CNC(C)C(=O)NC(C(=O)N1Cc2cc([101O:1][101CH2:1]CNC3CCCC3c3ccc([100NH:0][100C:0](=O)N4CCCC(n5nc(-c6ccc(Oc7ccc(F)cc7F)cc6)c(C(N)=O)c5N)C4)cc3)ccc2CC1C(=O)NC1CCCc2ccccc21)C(C)(C)C

> <Shape>
0.272

> <Color>
0.054

> <Negative vol penalty>
0.000

$$$$

  -OEChem-04042320293D

 82 90  0     1  0  0  0  0  0999 V2000
  -27.5095  -23.4483   18.3293 C   0  0  0  0  0  0  0  0  0  0  0  0
  -26.4307  -23.7745   19.1449 C   0  0  0  0  0  0  0  0  0  0  0  0
  -26.7034  -13.1660   20.0642 C   0  0  0  0  0  0  0  0  0  0  0  0
  -24.6179  -13.6471   21.1851 C   0  0  0  0  0  0  0  0  0  0  0  0
  -28.7371  -24.0835   18.5119 C   0  0  0  0  0  0  0  0  0  0  0  0
  -26.5792  -24.7354   20.1444 C   0  0  0  0  0  0  0  0  0  0  0  0
  -22.7120  -28.0017   20.2892 C   0  0  0  0  0  0  0  0  0  0  0  0
  -22.4256  -21.8347   25.2404 C   0  0  0  0  0  0  0  0  0  0  0  0
  -24.0597  -23.6104   25.1229 C   0  0  0  0  0  0  0  0  0  0  0  0
  -23.4201  -20.9003   24.9517 C   0  0  0  0  0  0  0  0  0  0  0  0
  -25.0543  -22.6759   24.8342 C   0  0  0  0  0  0  0  0  0  0  0  0
  -26.5356  -11.8080   20.3347 C   0  0  0  0  0  0  0  0  0  0  0  0
  -24.4501  -12.2891   21.4556 C   0  0  0  0  0  0  0  0  0  0  0  0
  -21.5331  -27.5664   20.8930 C   0  0  0  0  0  0  0  0  0  0  0  0
  -23.4360   -9.5267   19.7939 C   0  0  0  0  0  0  0  0  0  0  0  0
  -22.1756   -8.9735   19.5685 C   0  0  0  0  0  0  0  0  0  0  0  0
  -22.1310  -28.7564   22.9044 C   0  0  0  0  0  0  0  0  0  0  0  0
  -22.0301   -8.3551   21.8995 C   0  0  0  0  0  0  0  0  0  0  0  0
  -25.7446  -14.0856   20.4894 C   0  0  0  0  0  0  0  0  0  0  0  0
  -25.4697  -16.1916   19.0762 C   0  0  0  0  0  0  0  0  0  0  0  0
  -28.8981  -25.0597   19.5079 C   0  0  0  0  0  0  0  0  0  0  0  0
  -23.6160  -28.8101   20.9934 C   0  0  0  0  0  0  0  0  0  0  0  0
  -27.8105  -25.3834   20.3414 C   0  0  0  0  0  0  0  0  0  0  0  0
  -23.3194  -29.2027   22.3064 C   0  0  0  0  0  0  0  0  0  0  0  0
  -22.7454  -23.1898   25.3260 C   0  0  0  0  0  0  0  0  0  0  0  0
  -24.7344  -21.3209   24.7486 C   0  0  0  0  0  0  0  0  0  0  0  0
  -25.4089  -11.3695   21.0304 C   0  0  0  0  0  0  0  0  0  0  0  0
  -21.2439  -27.9413   22.2017 C   0  0  0  0  0  0  0  0  0  0  0  0
  -23.9936   -9.4941   21.0721 C   0  0  0  0  0  0  0  0  0  0  0  0
  -21.4726   -8.3877   20.6213 C   0  0  0  0  0  0  0  0  0  0  0  0
  -23.2906   -8.9083   22.1249 C   0  0  0  0  0  0  0  0  0  0  0  0
  -25.9176  -15.4886   20.2107 C   0  0  0  0  0  0  0  0  0  0  0  0
  -25.8813  -17.4846   19.2888 C   0  0  0  0  0  0  0  0  0  0  0  0
  -24.7463  -15.7181   17.9325 C   0  0  0  0  0  0  0  0  0  0  0  0
  -26.6362  -28.5031   21.9354 C   0  0  0  0  0  0  0  0  0  0  0  0
  -26.2561  -31.5919   22.8504 C   0  0  0  0  0  0  0  0  0  0  0  0
  -24.1337  -34.0998   23.7739 C   0  0  0  0  0  0  0  0  0  0  0  0
  -27.0977  -20.6217   24.2268 C   0  0  0  0  0  0  0  0  0  0  0  0
  -30.2572  -25.6851   19.6984 C   0  0  0  0  0  0  0  0  0  0  0  0
  -24.8705  -29.2933   20.3187 C   0  0  0  0  0  0  0  0  0  0  0  0
  -24.2471  -30.0860   23.0986 C   0  0  0  0  0  0  0  0  0  0  0  0
  -30.2285  -26.9616   20.5350 C   0  0  0  0  0  0  0  0  0  0  0  0
  -29.2987  -20.0119   21.4953 C   0  0  0  0  0  0  0  0  0  0  0  0
  -29.3793  -26.7608   21.7861 C   0  0  0  0  0  0  0  0  0  0  0  0
  -28.6375  -18.8507   20.7493 C   0  0  0  0  0  0  0  0  0  0  0  0
  -29.1330  -19.8815   23.0084 C   0  0  0  0  0  0  0  0  0  0  0  0
  -27.0894  -18.5359   22.7219 C   0  0  0  0  0  0  0  0  0  0  0  0
  -27.9254  -26.4383   21.4202 C   0  0  1  0  0  0  0  0  0  0  0  0
  -25.9645  -29.6902   21.3052 C   0  0  1  0  0  0  0  0  0  0  0  0
  -27.1738  -18.6572   21.1916 C   0  0  2  0  0  0  0  0  0  0  0  0
  -24.1204  -36.5023   24.4985 C   0  0  0  0  0  0  0  0  0  0  0  0
  -27.2219  -30.7588   25.6223 C   0  0  0  0  0  0  0  0  0  0  0  0
  -26.2991  -32.9087   26.5136 C   0  0  0  0  0  0  0  0  0  0  0  0
  -28.1267  -32.9465   24.8163 C   0  0  0  0  0  0  0  0  0  0  0  0
  -22.5048  -34.9150   21.4413 C   0  0  0  0  0  0  0  0  0  0  0  0
  -21.6755  -24.1948   25.6366 C   0  0  0  0  0  0  0  0  0  0  0  0
  -18.8144  -25.6288   23.5345 C   0  0  0  0  0  0  0  0  0  0  0  0
  -19.6683  -25.4051   24.7735 C   0  0  0  0  0  0  0  0  0  0  0  0
  -19.5731  -26.2574   22.3722 C   0  0  0  0  0  0  0  0  0  1  0  0
  -25.7914  -32.2848   24.1086 C   0  0  1  0  0  0  0  0  0  0  0  0
  -24.0242  -35.5446   23.3211 C   0  0  2  0  0  0  0  0  0  0  0  0
  -26.8430  -32.2064   25.2512 C   0  0  0  0  0  0  0  0  0  0  0  0
  -26.5643  -16.2703   21.0795 N   0  0  0  0  0  0  0  0  0  0  0  0
  -26.5259  -17.4777   20.4908 N   0  0  0  0  0  0  0  0  0  0  0  0
  -25.4641  -30.5274   22.3974 N   0  0  0  0  0  0  0  0  0  0  0  0
  -27.7206  -19.7054   23.3532 N   0  0  0  0  0  0  0  0  0  0  0  0
  -25.7512  -18.6154   18.5630 N   0  0  0  0  0  0  0  0  0  0  0  0
  -24.4027  -14.3605   17.8743 N   0  0  0  0  0  0  0  0  0  0  0  0
  -25.7450  -20.3719   24.4556 N   0  0  0  0  0  0  0  0  0  0  0  0
  -27.2239  -27.6420   21.0285 N   0  0  0  0  0  0  0  0  0  0  0  0
  -25.4339  -33.6441   23.7178 N   0  0  0  0  0  0  0  0  0  0  0  0
  -22.7224  -35.7746   22.6332 N   0  3  0  0  0  0  0  0  0  0  0  0
  -20.7751  -24.4642   24.4815 N   0  3  0  0  0  0  0  0  0  0  0  0
  -24.4287  -16.4730   16.9824 O   0  0  0  0  0  0  0  0  0  0  0  0
  -26.6236  -28.3785   23.1545 O   0  0  0  0  0  0  0  0  0  0  0  0
  -27.2801  -31.9855   22.2863 O   0  0  0  0  0  0  0  0  0  0  0  0
  -23.1635  -33.4424   24.1441 O   0  0  0  0  0  0  0  0  0  0  0  0
  -27.7119  -21.5747   24.7132 O   0  0  0  0  0  0  0  0  0  0  0  0
  -25.2447  -10.0444   21.2944 O   0  0  0  0  0  0  0  0  0  0  0  0
  -20.0942  -27.5173   22.7937 O   0  0  0  0  0  0  0  0  0  1  0  0
  -20.2616   -7.8579   20.4050 F   0  0  0  0  0  0  0  0  0  0  0  0
  -23.8206   -8.8750   23.3553 F   0  0  0  0  0  0  0  0  0  0  0  0
  1  2  1  0  0  0  0
  1  5  2  0  0  0  0
  2  6  2  0  0  0  0
  3 12  2  0  0  0  0
  3 19  1  0  0  0  0
  4 13  1  0  0  0  0
  4 19  2  0  0  0  0
  5 21  1  0  0  0  0
  6 23  1  0  0  0  0
  7 14  2  0  0  0  0
  7 22  1  0  0  0  0
  8 10  2  0  0  0  0
  8 25  1  0  0  0  0
  9 11  1  0  0  0  0
  9 25  2  0  0  0  0
 10 26  1  0  0  0  0
 11 26  2  0  0  0  0
 12 27  1  0  0  0  0
 13 27  2  0  0  0  0
 14 28  1  0  0  0  0
 15 16  2  0  0  0  0
 15 29  1  0  0  0  0
 16 30  1  0  0  0  0
 17 24  1  0  0  0  0
 17 28  2  0  0  0  0
 18 30  2  0  0  0  0
 18 31  1  0  0  0  0
 19 32  1  0  0  0  0
 20 32  1  0  0  0  0
 20 33  2  0  0  0  0
 20 34  1  0  0  0  0
 21 23  2  0  0  0  0
 21 39  1  0  0  0  0
 22 24  2  0  0  0  0
 22 40  1  0  0  0  0
 23 48  1  0  0  0  0
 24 41  1  0  0  0  0
 25 56  1  0  0  0  0
 26 69  1  0  0  0  0
 27 79  1  0  0  0  0
 28 80  1  0  0  0  0
 29 31  2  0  0  0  0
 29 79  1  0  0  0  0
 30 81  1  0  0  0  0
 31 82  1  0  0  0  0
 32 63  2  0  0  0  0
 33 64  1  0  0  0  0
 33 67  1  0  0  0  0
 34 68  1  0  0  0  0
 34 74  2  0  0  0  0
 35 49  1  0  0  0  0
 35 70  1  0  0  0  0
 35 75  2  0  0  0  0
 36 60  1  0  0  0  0
 36 65  1  0  0  0  0
 36 76  2  0  0  0  0
 37 61  1  0  0  0  0
 37 71  1  0  0  0  0
 37 77  2  0  0  0  0
 38 66  1  0  0  0  0
 38 69  1  0  0  0  0
 38 78  2  0  0  0  0
 39 42  1  0  0  0  0
 40 49  1  0  0  0  0
 41 65  1  0  0  0  0
 42 44  1  0  0  0  0
 43 45  1  0  0  0  0
 43 46  1  0  0  0  0
 44 48  1  0  0  0  0
 45 50  1  0  0  0  0
 46 66  1  0  0  0  0
 47 50  1  0  0  0  0
 47 66  1  0  0  0  0
 48 70  1  0  0  0  0
 49 65  1  0  0  0  0
 50 64  1  0  0  0  0
 51 61  1  0  0  0  0
 52 62  1  0  0  0  0
 53 62  1  0  0  0  0
 54 62  1  0  0  0  0
 55 72  1  0  0  0  0
 56 73  1  0  0  0  0
 57 58  1  0  0  0  0
 57 59  1  0  0  0  0
 58 73  1  0  0  0  0
 59 80  1  0  0  0  0
 60 62  1  0  0  0  0
 60 71  1  0  0  0  0
 61 72  1  0  0  0  0
 63 64  1  0  0  0  0
M  CHG  2  72   1  73   1
M  ISO  4  38 100  59 101  69 100  80 101
M  END
> <Batch ID>
0006

> <Smiles>
CNC(C)C(=O)NC(C(=O)N1Cc2cc([101O:1][101CH2:1]CCNCc3ccc([100NH:0][100C:0](=O)N4CCCC(n5nc(-c6ccc(Oc7ccc(F)cc7F)cc6)c(C(N)=O)c5N)C4)cc3)ccc2CC1C(=O)NC1CCCc2ccccc21)C(C)(C)C

> <Shape>
0.281

> <Color>
0.063

> <Negative vol penalty>
0.000

$$$$

  -OEChem-04042320293D

 91101  0     1  0  0  0  0  0999 V2000
  -27.6102  -36.5921   22.5616 C   0  0  0  0  0  0  0  0  0  0  0  0
  -26.8322  -35.5950   21.9821 C   0  0  0  0  0  0  0  0  0  0  0  0
  -23.3008   -9.7932   19.9544 C   0  0  0  0  0  0  0  0  0  0  0  0
  -24.0191   -9.9034   22.2585 C   0  0  0  0  0  0  0  0  0  0  0  0
  -28.9952  -36.5750   22.4024 C   0  0  0  0  0  0  0  0  0  0  0  0
  -27.4388  -34.5807   21.2420 C   0  0  0  0  0  0  0  0  0  0  0  0
  -28.4124  -18.1534   21.2060 C   0  0  0  0  0  0  0  0  0  0  0  0
  -25.6742  -28.7273   20.8812 C   0  0  0  0  0  0  0  0  0  0  0  0
  -27.6105  -19.0895   20.5530 C   0  0  0  0  0  0  0  0  0  0  0  0
  -22.6677   -8.5770   20.2099 C   0  0  0  0  0  0  0  0  0  0  0  0
  -23.3859   -8.6871   22.5140 C   0  0  0  0  0  0  0  0  0  0  0  0
  -24.9284  -28.0292   19.9324 C   0  0  0  0  0  0  0  0  0  0  0  0
  -20.2403   -7.5889   23.0798 C   0  0  0  0  0  0  0  0  0  0  0  0
  -19.4718   -7.4912   24.2397 C   0  0  0  0  0  0  0  0  0  0  0  0
  -26.9697  -27.2891   18.8814 C   0  0  0  0  0  0  0  0  0  0  0  0
  -30.3072  -19.6394   21.0096 C   0  0  0  0  0  0  0  0  0  0  0  0
  -20.8821   -5.6925   25.0226 C   0  0  0  0  0  0  0  0  0  0  0  0
  -24.2939  -22.9781   18.8081 C   0  0  0  0  0  0  0  0  0  0  0  0
  -23.9766  -10.4565   20.9787 C   0  0  0  0  0  0  0  0  0  0  0  0
  -24.0752  -13.0011   20.8272 C   0  0  0  0  0  0  0  0  0  0  0  0
  -29.7607  -18.4284   21.4343 C   0  0  0  0  0  0  0  0  0  0  0  0
  -29.6199  -35.5547   21.6680 C   0  0  0  0  0  0  0  0  0  0  0  0
  -27.0755  -28.7205   20.8307 C   0  0  0  0  0  0  0  0  0  0  0  0
  -28.8333  -34.5507   21.0716 C   0  0  0  0  0  0  0  0  0  0  0  0
  -27.7310  -27.9858   19.8323 C   0  0  0  0  0  0  0  0  0  0  0  0
  -28.1570  -20.3005   20.1282 C   0  0  0  0  0  0  0  0  0  0  0  0
  -22.7101   -8.0239   21.4897 C   0  0  0  0  0  0  0  0  0  0  0  0
  -25.5761  -27.3124   18.9305 C   0  0  0  0  0  0  0  0  0  0  0  0
  -21.3297   -6.7384   22.8912 C   0  0  0  0  0  0  0  0  0  0  0  0
  -19.7927   -6.5430   25.2111 C   0  0  0  0  0  0  0  0  0  0  0  0
  -29.5054  -20.5755   20.3565 C   0  0  0  0  0  0  0  0  0  0  0  0
  -21.6506   -5.7902   23.8626 C   0  0  0  0  0  0  0  0  0  0  0  0
  -24.6313  -11.7127   20.7152 C   0  0  0  0  0  0  0  0  0  0  0  0
  -25.3405  -22.1672   18.4472 C   0  0  0  0  0  0  0  0  0  0  0  0
  -25.0958  -13.8478   20.4695 C   0  0  0  0  0  0  0  0  0  0  0  0
  -22.7542  -13.3971   21.2196 C   0  0  0  0  0  0  0  0  0  0  0  0
  -29.3172  -30.9412   20.4472 C   0  0  0  0  0  0  0  0  0  0  0  0
  -31.3232  -28.4654   21.0547 C   0  0  0  0  0  0  0  0  0  0  0  0
  -31.8480  -25.0933   21.0493 C   0  0  0  0  0  0  0  0  0  0  0  0
  -30.3870  -15.4166   20.6582 C   0  0  0  0  0  0  0  0  0  0  0  0
  -31.1160  -35.6046   21.4836 C   0  0  0  0  0  0  0  0  0  0  0  0
  -27.8658  -29.4567   21.8775 C   0  0  0  0  0  0  0  0  0  0  0  0
  -29.2336  -27.9298   19.7462 C   0  0  0  0  0  0  0  0  0  0  0  0
  -31.7142  -34.2866   20.9988 C   0  0  0  0  0  0  0  0  0  0  0  0
  -30.8270  -16.1633   24.1793 C   0  0  0  0  0  0  0  0  0  0  0  0
  -29.5781  -12.9201   18.3468 C   0  0  0  0  0  0  0  0  0  0  0  0
  -30.6025  -17.5805   23.6674 C   0  0  0  0  0  0  0  0  0  0  0  0
  -30.8946  -33.7213   19.8432 C   0  0  0  0  0  0  0  0  0  0  0  0
  -28.1813  -12.4659   18.7659 C   0  0  0  0  0  0  0  0  0  0  0  0
  -30.4473  -13.1978   19.5669 C   0  0  0  0  0  0  0  0  0  0  0  0
  -30.0525  -15.3172   23.1808 C   0  0  0  0  0  0  0  0  0  0  0  0
  -28.4617  -13.7848   20.9257 C   0  0  0  0  0  0  0  0  0  0  0  0
  -30.6298  -17.4138   22.1423 C   0  0  1  0  0  0  0  0  0  0  0  0
  -29.4566  -33.4199   20.2823 C   0  0  1  0  0  0  0  0  0  0  0  0
  -29.2815  -29.8010   21.4252 C   0  0  1  0  0  0  0  0  0  0  0  0
  -27.5414  -13.4830   19.7253 C   0  0  2  0  0  0  0  0  0  0  0  0
  -33.5994  -23.3714   21.5642 C   0  0  0  0  0  0  0  0  0  0  0  0
  -32.7684  -29.1629   18.4595 C   0  0  0  0  0  0  0  0  0  0  0  0
  -33.8529  -26.9077   18.5390 C   0  0  0  0  0  0  0  0  0  0  0  0
  -34.2745  -28.5574   20.3620 C   0  0  0  0  0  0  0  0  0  0  0  0
  -30.1642  -23.8351   23.1328 C   0  0  0  0  0  0  0  0  0  0  0  0
  -25.9560  -21.0254   19.2032 C   0  0  0  0  0  0  0  0  0  0  0  0
  -23.2166  -24.8959   17.5889 C   0  0  0  0  0  0  0  0  0  0  0  0
  -23.5809  -26.1265   18.4124 C   0  0  0  0  0  0  0  0  0  1  0  0
  -32.0199  -27.4229   20.2141 C   0  0  1  0  0  0  0  0  0  0  0  0
  -32.4166  -24.1606   22.1035 C   0  0  2  0  0  0  0  0  0  0  0  0
  -33.2006  -28.0152   19.3939 C   0  0  0  0  0  0  0  0  0  0  0  0
  -25.9062  -11.7341   20.3173 N   0  0  0  0  0  0  0  0  0  0  0  0
  -25.8049  -22.5372   17.2156 N   0  0  0  0  0  0  0  0  0  0  0  0
  -25.0736  -23.5636   16.7950 N   0  0  0  0  0  0  0  0  0  0  0  0
  -24.1683  -23.8265   17.7514 N   0  0  0  0  0  0  0  0  0  0  0  0
  -26.1596  -13.0463   20.1761 N   0  0  0  0  0  0  0  0  0  0  0  0
  -29.9620  -28.6712   20.7889 N   0  0  0  0  0  0  0  0  0  0  0  0
  -29.8095  -14.1543   20.4724 N   0  0  0  0  0  0  0  0  0  0  0  0
  -30.2194  -16.0208   21.9076 N   0  0  0  0  0  0  0  0  0  0  0  0
  -25.1779  -15.1923   20.3803 N   0  0  0  0  0  0  0  0  0  0  0  0
  -21.8294  -12.3988   21.5548 N   0  0  0  0  0  0  0  0  0  0  0  0
  -27.3441  -21.2453   19.4680 N   0  0  0  0  0  0  0  0  0  0  0  0
  -29.4070  -32.1869   21.0384 N   0  0  0  0  0  0  0  0  0  0  0  0
  -32.4046  -26.3523   21.1275 N   0  0  0  0  0  0  0  0  0  0  0  0
  -31.3754  -23.1958   22.5574 N   0  3  0  0  0  0  0  0  0  0  0  0
  -22.3995  -14.5997   21.2555 O   0  0  0  0  0  0  0  0  0  0  0  0
  -29.2685  -30.7079   19.2452 O   0  0  0  0  0  0  0  0  0  0  0  0
  -31.9614  -29.0696   21.9203 O   0  0  0  0  0  0  0  0  0  0  0  0
  -30.9979  -24.7391   20.2353 O   0  0  0  0  0  0  0  0  0  0  0  0
  -31.0383  -15.9679   19.7616 O   0  0  0  0  0  0  0  0  0  0  0  0
  -22.0922   -6.8371   21.7394 O   0  0  0  0  0  0  0  0  0  0  0  0
  -24.8456  -26.6259   17.9963 O   0  0  0  0  0  0  0  0  0  1  0  0
  -19.0555   -6.4503   26.3256 F   0  0  0  0  0  0  0  0  0  0  0  0
  -30.0409  -21.7362   19.9526 F   0  0  0  0  0  0  0  0  0  0  0  0
  -22.6967   -4.9712   23.6876 F   0  0  0  0  0  0  0  0  0  0  0  0
  1  2  1  0  0  0  0
  1  5  2  0  0  0  0
  2  6  2  0  0  0  0
  3 10  2  0  0  0  0
  3 19  1  0  0  0  0
  4 11  1  0  0  0  0
  4 19  2  0  0  0  0
  5 22  1  0  0  0  0
  6 24  1  0  0  0  0
  7  9  2  0  0  0  0
  7 21  1  0  0  0  0
  8 12  2  0  0  0  0
  8 23  1  0  0  0  0
  9 26  1  0  0  0  0
 10 27  1  0  0  0  0
 11 27  2  0  0  0  0
 12 28  1  0  0  0  0
 13 14  2  0  0  0  0
 13 29  1  0  0  0  0
 14 30  1  0  0  0  0
 15 25  1  0  0  0  0
 15 28  2  0  0  0  0
 16 21  2  0  0  0  0
 16 31  1  0  0  0  0
 17 30  2  0  0  0  0
 17 32  1  0  0  0  0
 18 34  2  0  0  0  0
 18 71  1  0  0  0  0
 19 33  1  0  0  0  0
 20 33  1  0  0  0  0
 20 35  2  0  0  0  0
 20 36  1  0  0  0  0
 21 53  1  0  0  0  0
 22 24  2  0  0  0  0
 22 41  1  0  0  0  0
 23 25  2  0  0  0  0
 23 42  1  0  0  0  0
 24 54  1  0  0  0  0
 25 43  1  0  0  0  0
 26 31  2  0  0  0  0
 26 78  1  0  0  0  0
 27 87  1  0  0  0  0
 28 88  1  0  0  0  0
 29 32  2  0  0  0  0
 29 87  1  0  0  0  0
 30 89  1  0  0  0  0
 31 90  1  0  0  0  0
 32 91  1  0  0  0  0
 33 68  2  0  0  0  0
 34 62  1  0  0  0  0
 34 69  1  0  0  0  0
 35 72  1  0  0  0  0
 35 76  1  0  0  0  0
 36 77  1  0  0  0  0
 36 82  2  0  0  0  0
 37 55  1  0  0  0  0
 37 79  1  0  0  0  0
 37 83  2  0  0  0  0
 38 65  1  0  0  0  0
 38 73  1  0  0  0  0
 38 84  2  0  0  0  0
 39 66  1  0  0  0  0
 39 80  1  0  0  0  0
 39 85  2  0  0  0  0
 40 74  1  0  0  0  0
 40 75  1  0  0  0  0
 40 86  2  0  0  0  0
 41 44  1  0  0  0  0
 42 55  1  0  0  0  0
 43 73  1  0  0  0  0
 44 48  1  0  0  0  0
 45 47  1  0  0  0  0
 45 51  1  0  0  0  0
 46 49  1  0  0  0  0
 46 50  1  0  0  0  0
 47 53  1  0  0  0  0
 48 54  1  0  0  0  0
 49 56  1  0  0  0  0
 50 74  1  0  0  0  0
 51 75  1  0  0  0  0
 52 56  1  0  0  0  0
 52 74  1  0  0  0  0
 53 75  1  0  0  0  0
 54 79  1  0  0  0  0
 55 73  1  0  0  0  0
 56 72  1  0  0  0  0
 57 66  1  0  0  0  0
 58 67  1  0  0  0  0
 59 67  1  0  0  0  0
 60 67  1  0  0  0  0
 61 81  1  0  0  0  0
 62 78  1  0  0  0  0
 63 64  1  0  0  0  0
 63 71  1  0  0  0  0
 64 88  1  0  0  0  0
 65 67  1  0  0  0  0
 65 80  1  0  0  0  0
 66 81  1  0  0  0  0
 68 72  1  0  0  0  0
 69 70  2  0  0  0  0
 70 71  1  0  0  0  0
M  CHG  1  81   1
M  ISO  4  40 100  64 101  75 100  88 101
M  END
> <Batch ID>
0006

> <Smiles>
CNC(C)C(=O)NC(C(=O)N1Cc2cc([101O:1][101CH2:1]Cn3cc(CNc4ccc(C5CCC[100N:0]5[100C:0](=O)N5CCCC(n6nc(-c7ccc(Oc8ccc(F)cc8F)cc7)c(C(N)=O)c6N)C5)cc4F)nn3)ccc2CC1C(=O)NC1CCCc2ccccc21)C(C)(C)C

> <Shape>
0.284

> <Color>
0.181

> <Negative vol penalty>
0.000

$$$$

  -OEChem-04042320293D

 87 96  0     1  0  0  0  0  0999 V2000
  -27.5093  -35.7907   22.4533 C   0  0  0  0  0  0  0  0  0  0  0  0
  -27.8004  -34.4314   22.3988 C   0  0  0  0  0  0  0  0  0  0  0  0
  -26.2859  -14.9472   22.1013 C   0  0  0  0  0  0  0  0  0  0  0  0
  -26.1383  -14.1122   19.8389 C   0  0  0  0  0  0  0  0  0  0  0  0
  -26.2430  -36.2158   22.8529 C   0  0  0  0  0  0  0  0  0  0  0  0
  -26.8256  -33.4963   22.7449 C   0  0  0  0  0  0  0  0  0  0  0  0
  -27.1193  -24.5428   14.7270 C   0  0  0  0  0  0  0  0  0  0  0  0
  -27.6925  -22.5164   15.9112 C   0  0  0  0  0  0  0  0  0  0  0  0
  -26.5879  -29.6366   19.4752 C   0  0  0  0  0  0  0  0  0  0  0  0
  -28.2210  -25.1848   15.2923 C   0  0  0  0  0  0  0  0  0  0  0  0
  -28.7943  -23.1585   16.4766 C   0  0  0  0  0  0  0  0  0  0  0  0
  -26.0603  -13.6607   22.5908 C   0  0  0  0  0  0  0  0  0  0  0  0
  -25.9127  -12.8257   20.3285 C   0  0  0  0  0  0  0  0  0  0  0  0
  -27.5649  -28.6480   19.5850 C   0  0  0  0  0  0  0  0  0  0  0  0
  -24.9400   -9.3850   20.9808 C   0  0  0  0  0  0  0  0  0  0  0  0
  -23.9230   -8.6355   20.3897 C   0  0  0  0  0  0  0  0  0  0  0  0
  -26.0055  -27.2482   20.7801 C   0  0  0  0  0  0  0  0  0  0  0  0
  -22.3114  -10.3182   21.0289 C   0  0  0  0  0  0  0  0  0  0  0  0
  -26.3248  -15.1730   20.7253 C   0  0  0  0  0  0  0  0  0  0  0  0
  -27.7997  -17.0922   19.9198 C   0  0  0  0  0  0  0  0  0  0  0  0
  -26.8550  -23.2086   15.0365 C   0  0  0  0  0  0  0  0  0  0  0  0
  -25.2491  -35.2852   23.1948 C   0  0  0  0  0  0  0  0  0  0  0  0
  -25.3137  -29.4424   20.0275 C   0  0  0  0  0  0  0  0  0  0  0  0
  -25.5452  -33.9094   23.1507 C   0  0  0  0  0  0  0  0  0  0  0  0
  -25.0134  -28.2348   20.6737 C   0  0  0  0  0  0  0  0  0  0  0  0
  -29.0585  -24.4927   16.1671 C   0  0  0  0  0  0  0  0  0  0  0  0
  -25.8737  -12.6000   21.7044 C   0  0  0  0  0  0  0  0  0  0  0  0
  -27.2747  -27.4548   20.2401 C   0  0  0  0  0  0  0  0  0  0  0  0
  -24.6428  -10.6011   21.5961 C   0  0  0  0  0  0  0  0  0  0  0  0
  -22.6087   -9.1021   20.4137 C   0  0  0  0  0  0  0  0  0  0  0  0
  -23.3285  -11.0677   21.6201 C   0  0  0  0  0  0  0  0  0  0  0  0
  -26.5573  -16.5018   20.2190 C   0  0  0  0  0  0  0  0  0  0  0  0
  -27.4827  -18.3523   19.4746 C   0  0  0  0  0  0  0  0  0  0  0  0
  -30.8649  -26.1848   16.0781 C   0  0  0  0  0  0  0  0  0  0  0  0
  -29.1221  -16.5501   20.0341 C   0  0  0  0  0  0  0  0  0  0  0  0
  -23.6005  -30.8907   22.2795 C   0  0  0  0  0  0  0  0  0  0  0  0
  -21.2878  -28.8432   21.2890 C   0  0  0  0  0  0  0  0  0  0  0  0
  -20.4857  -25.8917   19.7749 C   0  0  0  0  0  0  0  0  0  0  0  0
  -24.3952  -21.7954   16.4569 C   0  0  0  0  0  0  0  0  0  0  0  0
  -23.9098  -35.7937   23.6662 C   0  0  0  0  0  0  0  0  0  0  0  0
  -24.2626  -30.5078   19.8772 C   0  0  0  0  0  0  0  0  0  0  0  0
  -23.6544  -27.9690   21.2661 C   0  0  0  0  0  0  0  0  0  0  0  0
  -22.8161  -34.7287   23.6566 C   0  0  0  0  0  0  0  0  0  0  0  0
  -25.0349  -20.6235   13.0854 C   0  0  0  0  0  0  0  0  0  0  0  0
  -23.1363  -20.9119   19.5975 C   0  0  0  0  0  0  0  0  0  0  0  0
  -26.0093  -21.7943   13.1134 C   0  0  0  0  0  0  0  0  0  0  0  0
  -23.3245  -33.4358   24.2866 C   0  0  0  0  0  0  0  0  0  0  0  0
  -23.9955  -19.7216   20.0195 C   0  0  0  0  0  0  0  0  0  0  0  0
  -22.8164  -20.8497   18.1093 C   0  0  0  0  0  0  0  0  0  0  0  0
  -24.9629  -20.2094   14.5469 C   0  0  0  0  0  0  0  0  0  0  0  0
  -24.9121  -19.6139   17.6465 C   0  0  0  0  0  0  0  0  0  0  0  0
  -25.6609  -22.5127   14.4237 C   0  0  1  0  0  0  0  0  0  0  0  0
  -24.5066  -32.8639   23.4947 C   0  0  1  0  0  0  0  0  0  0  0  0
  -23.1589  -30.4105   20.9260 C   0  0  1  0  0  0  0  0  0  0  0  0
  -25.2596  -19.6249   19.1493 C   0  0  2  0  0  0  0  0  0  0  0  0
  -18.5140  -24.4727   19.1454 C   0  0  0  0  0  0  0  0  0  0  0  0
  -20.9932  -27.9668   24.1967 C   0  0  0  0  0  0  0  0  0  0  0  0
  -19.7490  -25.9495   23.3898 C   0  0  0  0  0  0  0  0  0  0  0  0
  -18.8340  -28.2305   22.9628 C   0  0  0  0  0  0  0  0  0  0  0  0
  -21.1389  -26.0583   16.8932 C   0  0  0  0  0  0  0  0  0  0  0  0
  -29.6761  -24.9691   19.1802 C   0  0  0  0  0  0  0  0  0  0  0  0
  -30.7029  -24.7818   18.0715 C   0  0  0  0  0  0  0  0  0  0  0  0
  -29.1965  -26.4100   19.3069 C   0  0  0  0  0  0  0  0  0  1  0  0
  -20.8611  -27.4465   21.6713 C   0  0  1  0  0  0  0  0  0  0  0  0
  -19.4779  -25.5574   18.6901 C   0  0  2  0  0  0  0  0  0  0  0  0
  -20.1356  -27.4038   23.0458 C   0  0  0  0  0  0  0  0  0  0  0  0
  -25.5278  -17.3196   19.9839 N   0  0  0  0  0  0  0  0  0  0  0  0
  -26.1227  -18.4368   19.5322 N   0  0  0  0  0  0  0  0  0  0  0  0
  -22.6624  -29.0439   21.0988 N   0  0  0  0  0  0  0  0  0  0  0  0
  -24.0333  -20.7403   17.3039 N   0  0  0  0  0  0  0  0  0  0  0  0
  -25.0819  -21.4691   15.2838 N   0  0  0  0  0  0  0  0  0  0  0  0
  -28.2375  -19.3852   19.0434 N   0  0  0  0  0  0  0  0  0  0  0  0
  -29.2683  -15.2396   20.5090 N   0  0  0  0  0  0  0  0  0  0  0  0
  -24.0387  -32.2011   22.2962 N   0  0  0  0  0  0  0  0  0  0  0  0
  -20.0625  -26.9446   20.5583 N   0  0  0  0  0  0  0  0  0  0  0  0
  -30.1607  -25.1346   16.7325 N   0  0  0  0  0  0  0  0  0  0  0  0
  -20.1765  -25.0805   17.4631 N   0  3  0  0  0  0  0  0  0  0  0  0
  -31.8405  -26.8202   16.4719 O   0  0  0  0  0  0  0  0  0  0  0  0
  -30.1449  -17.2141   19.7397 O   0  0  0  0  0  0  0  0  0  0  0  0
  -23.5463  -30.1292   23.2381 O   0  0  0  0  0  0  0  0  0  0  0  0
  -20.4323  -29.7220   21.1567 O   0  0  0  0  0  0  0  0  0  0  0  0
  -21.5410  -25.2777   19.9158 O   0  0  0  0  0  0  0  0  0  0  0  0
  -24.1014  -22.9679   16.7228 O   0  0  0  0  0  0  0  0  0  0  0  0
  -25.6538  -11.3445   22.1818 O   0  0  0  0  0  0  0  0  0  0  0  0
  -28.2334  -26.4816   20.3500 O   0  0  0  0  0  0  0  0  0  1  0  0
  -21.6323   -8.3830   19.8447 F   0  0  0  0  0  0  0  0  0  0  0  0
  -23.0370  -12.2358   22.2086 F   0  0  0  0  0  0  0  0  0  0  0  0
  1  2  1  0  0  0  0
  1  5  2  0  0  0  0
  2  6  2  0  0  0  0
  3 12  2  0  0  0  0
  3 19  1  0  0  0  0
  4 13  1  0  0  0  0
  4 19  2  0  0  0  0
  5 22  1  0  0  0  0
  6 24  1  0  0  0  0
  7 10  2  0  0  0  0
  7 21  1  0  0  0  0
  8 11  1  0  0  0  0
  8 21  2  0  0  0  0
  9 14  2  0  0  0  0
  9 23  1  0  0  0  0
 10 26  1  0  0  0  0
 11 26  2  0  0  0  0
 12 27  1  0  0  0  0
 13 27  2  0  0  0  0
 14 28  1  0  0  0  0
 15 16  2  0  0  0  0
 15 29  1  0  0  0  0
 16 30  1  0  0  0  0
 17 25  1  0  0  0  0
 17 28  2  0  0  0  0
 18 30  2  0  0  0  0
 18 31  1  0  0  0  0
 19 32  1  0  0  0  0
 20 32  1  0  0  0  0
 20 33  2  0  0  0  0
 20 35  1  0  0  0  0
 21 52  1  0  0  0  0
 22 24  2  0  0  0  0
 22 40  1  0  0  0  0
 23 25  2  0  0  0  0
 23 41  1  0  0  0  0
 24 53  1  0  0  0  0
 25 42  1  0  0  0  0
 26 76  1  0  0  0  0
 27 84  1  0  0  0  0
 28 85  1  0  0  0  0
 29 31  2  0  0  0  0
 29 84  1  0  0  0  0
 30 86  1  0  0  0  0
 31 87  1  0  0  0  0
 32 67  2  0  0  0  0
 33 68  1  0  0  0  0
 33 72  1  0  0  0  0
 34 76  1  0  0  0  0
 34 78  2  0  0  0  0
 35 73  1  0  0  0  0
 35 79  2  0  0  0  0
 36 54  1  0  0  0  0
 36 74  1  0  0  0  0
 36 80  2  0  0  0  0
 37 64  1  0  0  0  0
 37 69  1  0  0  0  0
 37 81  2  0  0  0  0
 38 65  1  0  0  0  0
 38 75  1  0  0  0  0
 38 82  2  0  0  0  0
 39 70  1  0  0  0  0
 39 71  1  0  0  0  0
 39 83  2  0  0  0  0
 40 43  1  0  0  0  0
 41 54  1  0  0  0  0
 42 69  1  0  0  0  0
 43 47  1  0  0  0  0
 44 46  1  0  0  0  0
 44 50  1  0  0  0  0
 45 48  1  0  0  0  0
 45 49  1  0  0  0  0
 46 52  1  0  0  0  0
 47 53  1  0  0  0  0
 48 55  1  0  0  0  0
 49 70  1  0  0  0  0
 50 71  1  0  0  0  0
 51 55  1  0  0  0  0
 51 70  1  0  0  0  0
 52 71  1  0  0  0  0
 53 74  1  0  0  0  0
 54 69  1  0  0  0  0
 55 68  1  0  0  0  0
 56 65  1  0  0  0  0
 57 66  1  0  0  0  0
 58 66  1  0  0  0  0
 59 66  1  0  0  0  0
 60 77  1  0  0  0  0
 61 62  1  0  0  0  0
 61 63  1  0  0  0  0
 62 76  1  0  0  0  0
 63 85  1  0  0  0  0
 64 66  1  0  0  0  0
 64 75  1  0  0  0  0
 65 77  1  0  0  0  0
 67 68  1  0  0  0  0
M  CHG  1  77   1
M  ISO  4  39 100  63 101  71 100  85 101
M  END
> <Batch ID>
0006

> <Smiles>
CNC(C)C(=O)NC(C(=O)N1Cc2cc([101O:1][101CH2:1]CCN(C=O)c3ccc(C4CCC[100N:0]4[100C:0](=O)N4CCCC(n5nc(-c6ccc(Oc7ccc(F)cc7F)cc6)c(C(N)=O)c5N)C4)cc3)ccc2CC1C(=O)NC1CCCc2ccccc21)C(C)(C)C

> <Shape>
0.267

> <Color>
0.070

> <Negative vol penalty>
0.000

$$$$

  -OEChem-04042320293D

 77 84  0     1  0  0  0  0  0999 V2000
  -21.6105  -12.2304   20.2696 C   0  0  0  0  0  0  0  0  0  0  0  0
  -21.6614  -13.4277   20.9763 C   0  0  0  0  0  0  0  0  0  0  0  0
  -25.1744  -28.6889   19.6925 C   0  0  0  0  0  0  0  0  0  0  0  0
  -25.5510  -26.4898   20.6195 C   0  0  0  0  0  0  0  0  0  0  0  0
  -22.7923  -11.5849   19.9082 C   0  0  0  0  0  0  0  0  0  0  0  0
  -22.8941  -13.9796   21.3229 C   0  0  0  0  0  0  0  0  0  0  0  0
  -23.1080  -18.9623   20.4443 C   0  0  0  0  0  0  0  0  0  0  0  0
  -26.5386  -28.9633   19.7892 C   0  0  0  0  0  0  0  0  0  0  0  0
  -26.9152  -26.7642   20.7161 C   0  0  0  0  0  0  0  0  0  0  0  0
  -22.4821  -19.7990   21.3672 C   0  0  0  0  0  0  0  0  0  0  0  0
  -30.4456  -27.0164   21.5421 C   0  0  0  0  0  0  0  0  0  0  0  0
  -31.0952  -26.6655   22.7255 C   0  0  0  0  0  0  0  0  0  0  0  0
  -24.6184  -20.2617   22.3876 C   0  0  0  0  0  0  0  0  0  0  0  0
  -29.6229  -28.1247   23.9665 C   0  0  0  0  0  0  0  0  0  0  0  0
  -24.6806  -27.4522   20.1077 C   0  0  0  0  0  0  0  0  0  0  0  0
  -22.5950  -26.5921   18.9168 C   0  0  0  0  0  0  0  0  0  0  0  0
  -24.0403  -12.1341   20.2422 C   0  0  0  0  0  0  0  0  0  0  0  0
  -24.4948  -18.7601   20.4929 C   0  0  0  0  0  0  0  0  0  0  0  0
  -24.0937  -13.3401   20.9668 C   0  0  0  0  0  0  0  0  0  0  0  0
  -25.2599  -19.4239   21.4625 C   0  0  0  0  0  0  0  0  0  0  0  0
  -27.4090  -28.0010   20.3010 C   0  0  0  0  0  0  0  0  0  0  0  0
  -23.2369  -20.4466   22.3408 C   0  0  0  0  0  0  0  0  0  0  0  0
  -29.3846  -27.9215   21.5709 C   0  0  0  0  0  0  0  0  0  0  0  0
  -30.6839  -27.2196   23.9377 C   0  0  0  0  0  0  0  0  0  0  0  0
  -28.9733  -28.4756   22.7830 C   0  0  0  0  0  0  0  0  0  0  0  0
  -23.2714  -27.1684   20.0087 C   0  0  0  0  0  0  0  0  0  0  0  0
  -21.2824  -26.5352   19.3172 C   0  0  0  0  0  0  0  0  0  0  0  0
  -23.1074  -26.1479   17.6535 C   0  0  0  0  0  0  0  0  0  0  0  0
  -26.3798  -16.2430   20.9567 C   0  0  0  0  0  0  0  0  0  0  0  0
  -28.7310  -18.3647   20.2550 C   0  0  0  0  0  0  0  0  0  0  0  0
  -29.7567  -21.6174   20.1339 C   0  0  0  0  0  0  0  0  0  0  0  0
  -18.8952  -26.5166   24.9459 C   0  0  0  0  0  0  0  0  0  0  0  0
  -19.5463  -24.3797   26.1965 C   0  0  0  0  0  0  0  0  0  0  0  0
  -25.2899  -11.3756   19.8710 C   0  0  0  0  0  0  0  0  0  0  0  0
  -25.1584  -17.8753   19.4735 C   0  0  0  0  0  0  0  0  0  0  0  0
  -26.7544  -19.2563   21.5448 C   0  0  0  0  0  0  0  0  0  0  0  0
  -26.5602  -12.2185   19.9503 C   0  0  0  0  0  0  0  0  0  0  0  0
  -18.1123  -28.7010   22.1295 C   0  0  0  0  0  0  0  0  0  0  0  0
  -26.5947  -13.0107   21.2534 C   0  0  0  0  0  0  0  0  0  0  0  0
  -19.3233  -28.5626   21.2136 C   0  0  0  0  0  0  0  0  0  0  0  0
  -18.5089  -28.5448   23.5917 C   0  0  0  0  0  0  0  0  0  0  0  0
  -20.4031  -27.0630   22.9603 C   0  0  0  0  0  0  0  0  0  0  0  0
  -25.4120  -13.9830   21.3395 C   0  0  1  0  0  0  0  0  0  0  0  0
  -26.5093  -17.3388   19.9368 C   0  0  1  0  0  0  0  0  0  0  0  0
  -20.0403  -27.2302   21.4724 C   0  0  2  0  0  0  0  0  0  0  0  0
  -31.7435  -23.0361   19.5531 C   0  0  0  0  0  0  0  0  0  0  0  0
  -30.0722  -17.5536   22.8728 C   0  0  0  0  0  0  0  0  0  0  0  0
  -31.4829  -19.6155   22.7080 C   0  0  0  0  0  0  0  0  0  0  0  0
  -31.6394  -17.8552   20.9474 C   0  0  0  0  0  0  0  0  0  0  0  0
  -28.2673  -23.0371   18.0067 C   0  0  0  0  0  0  0  0  0  0  0  0
  -22.1473  -21.6745   25.5615 C   0  0  0  0  0  0  0  0  0  0  0  0
  -21.4286  -22.9872   25.2827 C   0  0  0  0  0  0  0  0  0  0  0  0
  -23.2283  -21.3703   24.5323 C   0  0  0  0  0  0  0  0  0  1  0  0
  -29.5821  -19.3207   21.0553 C   0  0  1  0  0  0  0  0  0  0  0  0
  -30.4520  -22.4145   19.0450 C   0  0  2  0  0  0  0  0  0  0  0  0
  -30.6658  -18.5881   21.8958 C   0  0  0  0  0  0  0  0  0  0  0  0
  -22.4559  -27.4571   21.0263 N   0  0  0  0  0  0  0  0  0  0  0  0
  -21.2535  -27.0607   20.5755 N   0  0  0  0  0  0  0  0  0  0  0  0
  -27.3561  -18.3759   20.5297 N   0  0  0  0  0  0  0  0  0  0  0  0
  -19.2480  -27.3033   23.8380 N   0  0  0  0  0  0  0  0  0  0  0  0
  -20.1617  -26.0875   18.7122 N   0  0  0  0  0  0  0  0  0  0  0  0
  -24.4806  -26.2795   17.4059 N   0  0  0  0  0  0  0  0  0  0  0  0
  -18.5772  -24.5423   27.1843 N   0  0  0  0  0  0  0  0  0  0  0  0
  -25.6564  -15.1499   20.5192 N   0  0  0  0  0  0  0  0  0  0  0  0
  -30.1172  -20.2869   20.1022 N   0  0  0  0  0  0  0  0  0  0  0  0
  -19.6805  -25.3163   25.1542 N   0  0  0  0  0  0  0  0  0  0  0  0
  -20.3809  -23.2574   26.2673 N   0  3  0  0  0  0  0  0  0  0  0  0
  -29.5647  -23.5076   18.5565 N   0  3  0  0  0  0  0  0  0  0  0  0
  -22.3668  -25.6641   16.7641 O   0  0  0  0  0  0  0  0  0  0  0  0
  -26.8990  -16.3785   22.0584 O   0  0  0  0  0  0  0  0  0  0  0  0
  -29.2653  -17.6400   19.4118 O   0  0  0  0  0  0  0  0  0  0  0  0
  -28.9750  -22.1251   20.9350 O   0  0  0  0  0  0  0  0  0  0  0  0
  -17.9931  -26.8151   25.7265 O   0  0  0  0  0  0  0  0  0  0  0  0
  -28.7402  -28.2683   20.3952 O   0  0  0  0  0  0  0  0  0  0  0  0
  -22.6239  -21.2692   23.2498 O   0  0  0  0  0  0  0  0  0  1  0  0
  -31.3068  -26.8814   25.0742 F   0  0  0  0  0  0  0  0  0  0  0  0
  -27.9539  -29.3448   22.8171 F   0  0  0  0  0  0  0  0  0  0  0  0
  1  2  1  0  0  0  0
  1  5  2  0  0  0  0
  2  6  2  0  0  0  0
  3  8  2  0  0  0  0
  3 15  1  0  0  0  0
  4  9  1  0  0  0  0
  4 15  2  0  0  0  0
  5 17  1  0  0  0  0
  6 19  1  0  0  0  0
  7 10  2  0  0  0  0
  7 18  1  0  0  0  0
  8 21  1  0  0  0  0
  9 21  2  0  0  0  0
 10 22  1  0  0  0  0
 11 12  2  0  0  0  0
 11 23  1  0  0  0  0
 12 24  1  0  0  0  0
 13 20  1  0  0  0  0
 13 22  2  0  0  0  0
 14 24  2  0  0  0  0
 14 25  1  0  0  0  0
 15 26  1  0  0  0  0
 16 26  1  0  0  0  0
 16 27  2  0  0  0  0
 16 28  1  0  0  0  0
 17 19  2  0  0  0  0
 17 34  1  0  0  0  0
 18 20  2  0  0  0  0
 18 35  1  0  0  0  0
 19 43  1  0  0  0  0
 20 36  1  0  0  0  0
 21 74  1  0  0  0  0
 22 75  1  0  0  0  0
 23 25  2  0  0  0  0
 23 74  1  0  0  0  0
 24 76  1  0  0  0  0
 25 77  1  0  0  0  0
 26 57  2  0  0  0  0
 27 58  1  0  0  0  0
 27 61  1  0  0  0  0
 28 62  1  0  0  0  0
 28 69  2  0  0  0  0
 29 44  1  0  0  0  0
 29 64  1  0  0  0  0
 29 70  2  0  0  0  0
 30 54  1  0  0  0  0
 30 59  1  0  0  0  0
 30 71  2  0  0  0  0
 31 55  1  0  0  0  0
 31 65  1  0  0  0  0
 31 72  2  0  0  0  0
 32 60  1  0  0  0  0
 32 66  1  0  0  0  0
 32 73  2  0  0  0  0
 33 63  1  0  0  0  0
 33 66  1  0  0  0  0
 33 67  2  0  0  0  0
 34 37  1  0  0  0  0
 35 44  1  0  0  0  0
 36 59  1  0  0  0  0
 37 39  1  0  0  0  0
 38 40  1  0  0  0  0
 38 41  1  0  0  0  0
 39 43  1  0  0  0  0
 40 45  1  0  0  0  0
 41 60  1  0  0  0  0
 42 45  1  0  0  0  0
 42 60  1  0  0  0  0
 43 64  1  0  0  0  0
 44 59  1  0  0  0  0
 45 58  1  0  0  0  0
 46 55  1  0  0  0  0
 47 56  1  0  0  0  0
 48 56  1  0  0  0  0
 49 56  1  0  0  0  0
 50 68  1  0  0  0  0
 51 52  1  0  0  0  0
 51 53  1  0  0  0  0
 52 67  1  0  0  0  0
 53 75  1  0  0  0  0
 54 56  1  0  0  0  0
 54 65  1  0  0  0  0
 55 68  1  0  0  0  0
 57 58  1  0  0  0  0
M  CHG  2  67   1  68   1
M  ISO  4  32 100  53 101  66 100  75 101
M  END
> <Batch ID>
0006

> <Smiles>
CNC(C)C(=O)NC(C(=O)N1Cc2cc([101O:1][101CH2:1]CCN=C(N)[100NH:0][100C:0](=O)N3CCCC(n4nc(-c5ccc(Oc6ccc(F)cc6F)cc5)c(C(N)=O)c4N)C3)ccc2CC1C(=O)NC1CCCc2ccccc21)C(C)(C)C

> <Shape>
0.212

> <Color>
0.077

> <Negative vol penalty>
0.000

$$$$

  -OEChem-04042320293D

 94104  0     1  0  0  0  0  0999 V2000
  -24.7088  -27.8738   14.5897 C   0  0  0  0  0  0  0  0  0  0  0  0
  -24.9730  -26.8129   15.4500 C   0  0  0  0  0  0  0  0  0  0  0  0
  -23.2756  -10.1246   22.1926 C   0  0  0  0  0  0  0  0  0  0  0  0
  -23.4669   -9.6278   19.8360 C   0  0  0  0  0  0  0  0  0  0  0  0
  -24.1460  -29.0488   15.0862 C   0  0  0  0  0  0  0  0  0  0  0  0
  -24.6755  -26.9268   16.8075 C   0  0  0  0  0  0  0  0  0  0  0  0
  -22.3222  -22.7470   18.6738 C   0  0  0  0  0  0  0  0  0  0  0  0
  -22.4903   -8.9855   22.3690 C   0  0  0  0  0  0  0  0  0  0  0  0
  -22.6816   -8.4886   20.0124 C   0  0  0  0  0  0  0  0  0  0  0  0
  -23.0961  -21.6230   18.9593 C   0  0  0  0  0  0  0  0  0  0  0  0
  -22.9676   -5.6500   22.6516 C   0  0  0  0  0  0  0  0  0  0  0  0
  -23.2533   -4.8282   23.7418 C   0  0  0  0  0  0  0  0  0  0  0  0
  -30.5972  -18.7772   23.1164 C   0  0  0  0  0  0  0  0  0  0  0  0
  -23.1495  -22.2581   21.2856 C   0  0  0  0  0  0  0  0  0  0  0  0
  -31.0508  -18.8746   20.7454 C   0  0  0  0  0  0  0  0  0  0  0  0
  -21.0224   -5.1874   24.5970 C   0  0  0  0  0  0  0  0  0  0  0  0
  -23.7639  -10.4458   20.9260 C   0  0  0  0  0  0  0  0  0  0  0  0
  -24.2092  -12.9564   21.0068 C   0  0  0  0  0  0  0  0  0  0  0  0
  -23.8326  -29.1737   16.4489 C   0  0  0  0  0  0  0  0  0  0  0  0
  -21.9640  -23.6425   19.6919 C   0  0  0  0  0  0  0  0  0  0  0  0
  -24.1093  -28.1051   17.3230 C   0  0  0  0  0  0  0  0  0  0  0  0
  -30.3664  -17.4053   23.0159 C   0  0  0  0  0  0  0  0  0  0  0  0
  -22.3671  -23.3901   21.0111 C   0  0  0  0  0  0  0  0  0  0  0  0
  -30.9394  -19.5119   21.9811 C   0  0  0  0  0  0  0  0  0  0  0  0
  -30.4778  -16.7680   21.7802 C   0  0  0  0  0  0  0  0  0  0  0  0
  -22.1933   -8.1674   21.2789 C   0  0  0  0  0  0  0  0  0  0  0  0
  -23.5117  -21.3797   20.2649 C   0  0  0  0  0  0  0  0  0  0  0  0
  -21.7094   -6.2406   22.5341 C   0  0  0  0  0  0  0  0  0  0  0  0
  -22.2807   -4.5969   24.7145 C   0  0  0  0  0  0  0  0  0  0  0  0
  -30.8200  -17.5026   20.6449 C   0  0  0  0  0  0  0  0  0  0  0  0
  -20.7368   -6.0093   23.5068 C   0  0  0  0  0  0  0  0  0  0  0  0
  -24.5748  -11.6227   20.7430 C   0  0  0  0  0  0  0  0  0  0  0  0
  -25.3206  -13.6900   20.6706 C   0  0  0  0  0  0  0  0  0  0  0  0
  -22.9753  -13.4848   21.5107 C   0  0  0  0  0  0  0  0  0  0  0  0
  -22.4386  -26.7441   20.3246 C   0  0  0  0  0  0  0  0  0  0  0  0
  -28.1373  -20.7615   20.5180 C   0  0  0  0  0  0  0  0  0  0  0  0
  -20.3683  -26.0166   22.8222 C   0  0  0  0  0  0  0  0  0  0  0  0
  -19.9757  -29.3556   23.4025 C   0  0  0  0  0  0  0  0  0  0  0  0
  -30.8292  -14.4981   20.7456 C   0  0  0  0  0  0  0  0  0  0  0  0
  -23.2690  -30.4808   16.9474 C   0  0  0  0  0  0  0  0  0  0  0  0
  -21.1029  -24.8332   19.3677 C   0  0  0  0  0  0  0  0  0  0  0  0
  -22.0057  -24.3182   22.1392 C   0  0  0  0  0  0  0  0  0  0  0  0
  -22.6374  -30.3826   18.3336 C   0  0  0  0  0  0  0  0  0  0  0  0
  -28.1822  -17.7705   25.3848 C   0  0  0  0  0  0  0  0  0  0  0  0
  -29.3916  -17.8807   26.3029 C   0  0  0  0  0  0  0  0  0  0  0  0
  -29.5408  -12.3414   18.2225 C   0  0  0  0  0  0  0  0  0  0  0  0
  -29.2085  -23.8826   20.8699 C   0  0  0  0  0  0  0  0  0  0  0  0
  -28.4818  -16.5703   24.5014 C   0  0  0  0  0  0  0  0  0  0  0  0
  -30.5554  -17.1980   25.5789 C   0  0  0  0  0  0  0  0  0  0  0  0
  -23.5528  -29.6179   19.2845 C   0  0  0  0  0  0  0  0  0  0  0  0
  -28.2009  -23.0194   21.6090 C   0  0  0  0  0  0  0  0  0  0  0  0
  -28.1039  -12.0719   18.6750 C   0  0  0  0  0  0  0  0  0  0  0  0
  -30.5013  -12.4303   19.4071 C   0  0  0  0  0  0  0  0  0  0  0  0
  -28.6702  -13.1097   20.9087 C   0  0  0  0  0  0  0  0  0  0  0  0
  -30.5340  -23.2833   21.2831 C   0  0  0  0  0  0  0  0  0  0  0  0
  -29.9945  -16.6335   24.2648 C   0  0  0  0  0  0  0  0  0  0  0  0
  -23.7779  -28.1813   18.7976 C   0  0  1  0  0  0  0  0  0  0  0  0
  -21.1725  -25.9405   20.4173 C   0  0  1  0  0  0  0  0  0  0  0  0
  -28.7822  -21.6089   21.5655 C   0  0  2  0  0  0  0  0  0  0  0  0
  -27.6552  -13.0765   19.7544 C   0  0  2  0  0  0  0  0  0  0  0  0
  -18.6028  -30.9742   24.7414 C   0  0  0  0  0  0  0  0  0  0  0  0
  -18.0225  -25.5970   20.9179 C   0  0  0  0  0  0  0  0  0  0  0  0
  -17.1136  -27.8076   21.6629 C   0  0  0  0  0  0  0  0  0  0  0  0
  -17.3761  -25.9506   23.3077 C   0  0  0  0  0  0  0  0  0  0  0  0
  -22.3625  -30.3946   24.8105 C   0  0  0  0  0  0  0  0  0  0  0  0
  -31.1854  -20.9881   22.0876 C   0  0  0  0  0  0  0  0  0  0  0  0
  -26.3224  -19.1048   20.1383 C   0  0  0  0  0  0  0  0  0  0  0  0
  -25.1288  -19.8055   19.5144 C   0  0  0  0  0  0  0  0  0  1  0  0
  -19.4330  -27.1355   22.4375 C   0  0  1  0  0  0  0  0  0  0  0  0
  -19.8796  -30.1495   24.6928 C   0  0  2  0  0  0  0  0  0  0  0  0
  -18.0125  -26.6208   22.0705 C   0  0  0  0  0  0  0  0  0  0  0  0
  -25.8210  -11.5126   20.2752 N   0  0  0  0  0  0  0  0  0  0  0  0
  -26.2481  -12.7864   20.2423 N   0  0  0  0  0  0  0  0  0  0  0  0
  -21.0962  -25.4163   21.7869 N   0  0  0  0  0  0  0  0  0  0  0  0
  -30.0139  -13.4040   20.3865 N   0  0  0  0  0  0  0  0  0  0  0  0
  -25.5853  -15.0134   20.7025 N   0  0  0  0  0  0  0  0  0  0  0  0
  -21.9778  -13.8431   20.5936 N   0  0  0  0  0  0  0  0  0  0  0  0
  -30.2473  -15.3751   21.6604 N   0  0  0  0  0  0  0  0  0  0  0  0
  -22.6266  -27.3586   19.1012 N   0  0  0  0  0  0  0  0  0  0  0  0
  -27.0829  -19.9904   20.9795 N   0  0  0  0  0  0  0  0  0  0  0  0
  -19.4567  -28.0860   23.5440 N   0  0  0  0  0  0  0  0  0  0  0  0
  -30.2573  -21.7993   21.2409 N   0  3  2  0  0  0  0  0  0  0  0  0
  -21.0414  -31.0741   24.8199 N   0  3  0  0  0  0  0  0  0  0  0  0
  -22.7698  -13.6502   22.7371 O   0  0  0  0  0  0  0  0  0  0  0  0
  -23.1887  -26.8036   21.2918 O   0  0  0  0  0  0  0  0  0  0  0  0
  -28.5580  -20.7982   19.3676 O   0  0  0  0  0  0  0  0  0  0  0  0
  -20.4475  -25.6772   24.0061 O   0  0  0  0  0  0  0  0  0  0  0  0
  -20.4591  -29.8170   22.3710 O   0  0  0  0  0  0  0  0  0  0  0  0
  -31.9496  -14.6610   20.2554 O   0  0  0  0  0  0  0  0  0  0  0  0
  -21.4271   -7.0557   21.4507 O   0  0  0  0  0  0  0  0  0  0  0  0
  -24.2667  -20.2830   20.5465 O   0  0  0  0  0  0  0  0  0  1  0  0
  -22.5546   -3.8064   25.7606 F   0  0  0  0  0  0  0  0  0  0  0  0
  -30.9276  -16.9018   19.4511 F   0  0  0  0  0  0  0  0  0  0  0  0
  -19.5258   -6.5729   23.3987 F   0  0  0  0  0  0  0  0  0  0  0  0
  1  2  1  0  0  0  0
  1  5  2  0  0  0  0
  2  6  2  0  0  0  0
  3  8  2  0  0  0  0
  3 17  1  0  0  0  0
  4  9  1  0  0  0  0
  4 17  2  0  0  0  0
  5 19  1  0  0  0  0
  6 21  1  0  0  0  0
  7 10  2  0  0  0  0
  7 20  1  0  0  0  0
  8 26  1  0  0  0  0
  9 26  2  0  0  0  0
 10 27  1  0  0  0  0
 11 12  2  0  0  0  0
 11 28  1  0  0  0  0
 12 29  1  0  0  0  0
 13 22  1  0  0  0  0
 13 24  2  0  0  0  0
 14 23  1  0  0  0  0
 14 27  2  0  0  0  0
 15 24  1  0  0  0  0
 15 30  2  0  0  0  0
 16 29  2  0  0  0  0
 16 31  1  0  0  0  0
 17 32  1  0  0  0  0
 18 32  1  0  0  0  0
 18 33  2  0  0  0  0
 18 34  1  0  0  0  0
 19 21  2  0  0  0  0
 19 40  1  0  0  0  0
 20 23  2  0  0  0  0
 20 41  1  0  0  0  0
 21 57  1  0  0  0  0
 22 25  2  0  0  0  0
 22 56  1  0  0  0  0
 23 42  1  0  0  0  0
 24 66  1  0  0  0  0
 25 30  1  0  0  0  0
 25 78  1  0  0  0  0
 26 90  1  0  0  0  0
 27 91  1  0  0  0  0
 28 31  2  0  0  0  0
 28 90  1  0  0  0  0
 29 92  1  0  0  0  0
 30 93  1  0  0  0  0
 31 94  1  0  0  0  0
 32 72  2  0  0  0  0
 33 73  1  0  0  0  0
 33 76  1  0  0  0  0
 34 77  1  0  0  0  0
 34 84  2  0  0  0  0
 35 58  1  0  0  0  0
 35 79  1  0  0  0  0
 35 85  2  0  0  0  0
 36 59  1  0  0  0  0
 36 80  1  0  0  0  0
 36 86  2  0  0  0  0
 37 69  1  0  0  0  0
 37 74  1  0  0  0  0
 37 87  2  0  0  0  0
 38 70  1  0  0  0  0
 38 81  1  0  0  0  0
 38 88  2  0  0  0  0
 39 75  1  0  0  0  0
 39 78  1  0  0  0  0
 39 89  2  0  0  0  0
 40 43  1  0  0  0  0
 41 58  1  0  0  0  0
 42 74  1  0  0  0  0
 43 50  1  0  0  0  0
 44 45  1  0  0  0  0
 44 48  1  0  0  0  0
 45 49  1  0  0  0  0
 46 52  1  0  0  0  0
 46 53  1  0  0  0  0
 47 51  1  0  0  0  0
 47 55  1  0  0  0  0
 48 56  1  0  0  0  0
 49 56  1  0  0  0  0
 50 57  1  0  0  0  0
 51 59  1  0  0  0  0
 52 60  1  0  0  0  0
 53 75  1  0  0  0  0
 54 60  1  0  0  0  0
 54 75  1  0  0  0  0
 55 82  1  0  0  0  0
 57 79  1  0  0  0  0
 58 74  1  0  0  0  0
 59 82  1  0  0  0  0
 60 73  1  0  0  0  0
 61 70  1  0  0  0  0
 62 71  1  0  0  0  0
 63 71  1  0  0  0  0
 64 71  1  0  0  0  0
 65 83  1  0  0  0  0
 66 82  1  0  0  0  0
 67 68  1  0  0  0  0
 67 80  1  0  0  0  0
 68 91  1  0  0  0  0
 69 71  1  0  0  0  0
 69 81  1  0  0  0  0
 70 83  1  0  0  0  0
 72 73  1  0  0  0  0
M  CHG  2  82   1  83   1
M  ISO  4  39 100  68 101  78 100  91 101
M  END
> <Batch ID>
0006

> <Smiles>
CNC(C)C(=O)NC(C(=O)N1Cc2cc([101O:1][101CH2:1]CNC(=O)C3CCCN3Cc3cc(F)c([100NH:0][100C:0](=O)N4CCCC(n5nc(-c6ccc(Oc7ccc(F)cc7F)cc6)c(C(N)=O)c5N)C4)c(C4CCCC4)c3)ccc2CC1C(=O)NC1CCCc2ccccc21)C(C)(C)C

> <Shape>
0.311

> <Color>
0.168

> <Negative vol penalty>
0.000

$$$$

  -OEChem-04042320293D

 92102  0     1  0  0  0  0  0999 V2000
  -25.1037  -25.4884   27.2877 C   0  0  0  0  0  0  0  0  0  0  0  0
  -26.0942  -25.4940   26.3108 C   0  0  0  0  0  0  0  0  0  0  0  0
  -23.7450  -10.9428   23.3130 C   0  0  0  0  0  0  0  0  0  0  0  0
  -24.5006   -9.2641   21.7484 C   0  0  0  0  0  0  0  0  0  0  0  0
  -23.7669  -25.3356   26.9225 C   0  0  0  0  0  0  0  0  0  0  0  0
  -25.7485  -25.3458   24.9681 C   0  0  0  0  0  0  0  0  0  0  0  0
  -30.8176  -20.0088   20.2285 C   0  0  0  0  0  0  0  0  0  0  0  0
  -28.1742  -28.6226   21.9642 C   0  0  0  0  0  0  0  0  0  0  0  0
  -30.5839  -18.6591   19.9613 C   0  0  0  0  0  0  0  0  0  0  0  0
  -23.2711   -9.9406   24.1595 C   0  0  0  0  0  0  0  0  0  0  0  0
  -24.0267   -8.2618   22.5950 C   0  0  0  0  0  0  0  0  0  0  0  0
  -29.5007  -28.3338   21.6470 C   0  0  0  0  0  0  0  0  0  0  0  0
  -21.0523   -6.8501   23.3637 C   0  0  0  0  0  0  0  0  0  0  0  0
  -20.3291   -5.8049   22.7892 C   0  0  0  0  0  0  0  0  0  0  0  0
  -28.7946  -27.4666   19.5096 C   0  0  0  0  0  0  0  0  0  0  0  0
  -21.9682   -4.2256   23.5994 C   0  0  0  0  0  0  0  0  0  0  0  0
  -24.3597  -10.6045   22.1074 C   0  0  0  0  0  0  0  0  0  0  0  0
  -24.1000  -12.6689   20.6315 C   0  0  0  0  0  0  0  0  0  0  0  0
  -23.4037  -25.1951   25.5738 C   0  0  0  0  0  0  0  0  0  0  0  0
  -27.1450  -28.3250   21.0594 C   0  0  0  0  0  0  0  0  0  0  0  0
  -24.4056  -25.1897   24.5846 C   0  0  0  0  0  0  0  0  0  0  0  0
  -29.7491  -20.9075   20.3876 C   0  0  0  0  0  0  0  0  0  0  0  0
  -27.4560  -27.7549   19.8167 C   0  0  0  0  0  0  0  0  0  0  0  0
  -28.4314  -20.4117   20.3205 C   0  0  0  0  0  0  0  0  0  0  0  0
  -29.2801  -18.1839   19.8620 C   0  0  0  0  0  0  0  0  0  0  0  0
  -23.4120   -8.6001   23.8005 C   0  0  0  0  0  0  0  0  0  0  0  0
  -29.8108  -27.7531   20.4208 C   0  0  0  0  0  0  0  0  0  0  0  0
  -22.2335   -6.5831   24.0560 C   0  0  0  0  0  0  0  0  0  0  0  0
  -20.7870   -4.4926   22.9071 C   0  0  0  0  0  0  0  0  0  0  0  0
  -22.6914   -5.2709   24.1739 C   0  0  0  0  0  0  0  0  0  0  0  0
  -28.2079  -19.0555   20.0412 C   0  0  0  0  0  0  0  0  0  0  0  0
  -24.8489  -11.6394   21.2323 C   0  0  0  0  0  0  0  0  0  0  0  0
  -25.0198  -13.3816   19.9017 C   0  0  0  0  0  0  0  0  0  0  0  0
  -22.6983  -12.9555   20.7248 C   0  0  0  0  0  0  0  0  0  0  0  0
  -24.5909  -26.4335   21.1102 C   0  0  0  0  0  0  0  0  0  0  0  0
  -31.9450  -23.9084   20.4486 C   0  0  0  0  0  0  0  0  0  0  0  0
  -23.9617  -27.8593   18.2653 C   0  0  0  0  0  0  0  0  0  0  0  0
  -25.8366  -28.8611   15.3501 C   0  0  0  0  0  0  0  0  0  0  0  0
  -30.0010  -15.8166   19.3904 C   0  0  0  0  0  0  0  0  0  0  0  0
  -21.9499  -24.9854   25.2315 C   0  0  0  0  0  0  0  0  0  0  0  0
  -25.7218  -28.6673   21.4057 C   0  0  0  0  0  0  0  0  0  0  0  0
  -26.3900  -27.4346   18.8021 C   0  0  0  0  0  0  0  0  0  0  0  0
  -27.2513  -21.3235   20.5054 C   0  0  0  0  0  0  0  0  0  0  0  0
  -21.6332  -25.2098   23.7552 C   0  0  0  0  0  0  0  0  0  0  0  0
  -29.8285  -12.3224   18.7287 C   0  0  0  0  0  0  0  0  0  0  0  0
  -35.2001  -24.5466   20.5437 C   0  0  0  0  0  0  0  0  0  0  0  0
  -22.6587  -24.5017   22.8756 C   0  0  0  0  0  0  0  0  0  0  0  0
  -34.3357  -23.5658   19.7708 C   0  0  0  0  0  0  0  0  0  0  0  0
  -28.4560  -11.9179   19.2716 C   0  0  0  0  0  0  0  0  0  0  0  0
  -30.4907  -13.3893   19.5987 C   0  0  0  0  0  0  0  0  0  0  0  0
  -28.2966  -14.1747   20.3978 C   0  0  0  0  0  0  0  0  0  0  0  0
  -34.8653  -25.8728   19.8988 C   0  0  0  0  0  0  0  0  0  0  0  0
  -28.7922  -23.2667   20.4916 C   0  0  0  0  0  0  0  0  0  0  0  0
  -24.0680  -25.0564   23.1154 C   0  0  1  0  0  0  0  0  0  0  0  0
  -30.0093  -22.3683   20.7129 C   0  0  2  0  0  0  0  0  0  0  0  0
  -24.7022  -27.8492   20.6192 C   0  0  1  0  0  0  0  0  0  0  0  0
  -33.0313  -24.3125   19.5063 C   0  0  2  0  0  0  0  0  0  0  0  0
  -27.5625  -13.1492   19.5186 C   0  0  2  0  0  0  0  0  0  0  0  0
  -25.3965  -30.6728   13.6704 C   0  0  0  0  0  0  0  0  0  0  0  0
  -22.6042  -25.6451   16.6638 C   0  0  0  0  0  0  0  0  0  0  0  0
  -23.5555  -26.6622   14.5833 C   0  0  0  0  0  0  0  0  0  0  0  0
  -21.9597  -27.9655   15.9895 C   0  0  0  0  0  0  0  0  0  0  0  0
  -28.4949  -30.0825   15.7983 C   0  0  0  0  0  0  0  0  0  0  0  0
  -32.8426  -26.6894   18.6413 C   0  0  0  0  0  0  0  0  0  0  0  0
  -31.3506  -26.8749   18.8352 C   0  0  0  0  0  0  0  0  0  1  0  0
  -24.3134  -27.5735   16.8252 C   0  0  1  0  0  0  0  0  0  0  0  0
  -26.1637  -30.2808   14.9236 C   0  0  2  0  0  0  0  0  0  0  0  0
  -23.1253  -26.9536   16.0368 C   0  0  0  0  0  0  0  0  0  0  0  0
  -26.1446  -11.6898   20.9118 N   0  0  0  0  0  0  0  0  0  0  0  0
  -26.2170  -12.7596   20.1017 N   0  0  0  0  0  0  0  0  0  0  0  0
  -25.0129  -27.7822   19.1898 N   0  0  0  0  0  0  0  0  0  0  0  0
  -29.5875  -14.5269   19.7860 N   0  0  0  0  0  0  0  0  0  0  0  0
  -24.9132  -14.4733   19.1147 N   0  0  0  0  0  0  0  0  0  0  0  0
  -21.8323  -12.3657   19.7939 N   0  0  0  0  0  0  0  0  0  0  0  0
  -29.0462  -16.8137   19.5870 N   0  0  0  0  0  0  0  0  0  0  0  0
  -24.2331  -26.3260   22.4405 N   0  0  0  0  0  0  0  0  0  0  0  0
  -31.1222  -22.9098   19.9637 N   0  0  0  0  0  0  0  0  0  0  0  0
  -24.8097  -28.8278   16.2696 N   0  0  0  0  0  0  0  0  0  0  0  0
  -27.6040  -22.6344   21.1333 N   0  3  0  0  0  0  0  0  0  0  0  0
  -33.3700  -25.7831   19.7074 N   0  3  2  0  0  0  0  0  0  0  0  0
  -27.6213  -30.4147   14.6435 N   0  3  0  0  0  0  0  0  0  0  0  0
  -22.2296  -13.7252   21.5974 O   0  0  0  0  0  0  0  0  0  0  0  0
  -24.8118  -25.5073   20.3388 O   0  0  0  0  0  0  0  0  0  0  0  0
  -31.8559  -24.4590   21.5398 O   0  0  0  0  0  0  0  0  0  0  0  0
  -22.7985  -28.1475   18.5579 O   0  0  0  0  0  0  0  0  0  0  0  0
  -26.4301  -27.8795   14.9087 O   0  0  0  0  0  0  0  0  0  0  0  0
  -31.1095  -16.0169   18.8873 O   0  0  0  0  0  0  0  0  0  0  0  0
  -22.9500   -7.6219   24.6264 O   0  0  0  0  0  0  0  0  0  0  0  0
  -31.1047  -27.4696   20.1089 O   0  0  0  0  0  0  0  0  0  1  0  0
  -20.0916   -3.4888   22.3567 F   0  0  0  0  0  0  0  0  0  0  0  0
  -23.8248   -5.0080   24.8388 F   0  0  0  0  0  0  0  0  0  0  0  0
  -26.9507  -18.5938   19.9523 F   0  0  0  0  0  0  0  0  0  0  0  0
  1  2  1  0  0  0  0
  1  5  2  0  0  0  0
  2  6  2  0  0  0  0
  3 10  2  0  0  0  0
  3 17  1  0  0  0  0
  4 11  1  0  0  0  0
  4 17  2  0  0  0  0
  5 19  1  0  0  0  0
  6 21  1  0  0  0  0
  7  9  1  0  0  0  0
  7 22  2  0  0  0  0
  8 12  2  0  0  0  0
  8 20  1  0  0  0  0
  9 25  2  0  0  0  0
 10 26  1  0  0  0  0
 11 26  2  0  0  0  0
 12 27  1  0  0  0  0
 13 14  2  0  0  0  0
 13 28  1  0  0  0  0
 14 29  1  0  0  0  0
 15 23  1  0  0  0  0
 15 27  2  0  0  0  0
 16 29  2  0  0  0  0
 16 30  1  0  0  0  0
 17 32  1  0  0  0  0
 18 32  1  0  0  0  0
 18 33  2  0  0  0  0
 18 34  1  0  0  0  0
 19 21  2  0  0  0  0
 19 40  1  0  0  0  0
 20 23  2  0  0  0  0
 20 41  1  0  0  0  0
 21 54  1  0  0  0  0
 22 24  1  0  0  0  0
 22 55  1  0  0  0  0
 23 42  1  0  0  0  0
 24 31  2  0  0  0  0
 24 43  1  0  0  0  0
 25 31  1  0  0  0  0
 25 75  1  0  0  0  0
 26 88  1  0  0  0  0
 27 89  1  0  0  0  0
 28 30  2  0  0  0  0
 28 88  1  0  0  0  0
 29 90  1  0  0  0  0
 30 91  1  0  0  0  0
 31 92  1  0  0  0  0
 32 69  2  0  0  0  0
 33 70  1  0  0  0  0
 33 73  1  0  0  0  0
 34 74  1  0  0  0  0
 34 82  2  0  0  0  0
 35 56  1  0  0  0  0
 35 76  1  0  0  0  0
 35 83  2  0  0  0  0
 36 57  1  0  0  0  0
 36 77  1  0  0  0  0
 36 84  2  0  0  0  0
 37 66  1  0  0  0  0
 37 71  1  0  0  0  0
 37 85  2  0  0  0  0
 38 67  1  0  0  0  0
 38 78  1  0  0  0  0
 38 86  2  0  0  0  0
 39 72  1  0  0  0  0
 39 75  1  0  0  0  0
 39 87  2  0  0  0  0
 40 44  1  0  0  0  0
 41 56  1  0  0  0  0
 42 71  1  0  0  0  0
 43 79  1  0  0  0  0
 44 47  1  0  0  0  0
 45 49  1  0  0  0  0
 45 50  1  0  0  0  0
 46 48  1  0  0  0  0
 46 52  1  0  0  0  0
 47 54  1  0  0  0  0
 48 57  1  0  0  0  0
 49 58  1  0  0  0  0
 50 72  1  0  0  0  0
 51 58  1  0  0  0  0
 51 72  1  0  0  0  0
 52 80  1  0  0  0  0
 53 55  1  0  0  0  0
 53 79  1  0  0  0  0
 54 76  1  0  0  0  0
 55 77  1  0  0  0  0
 56 71  1  0  0  0  0
 57 80  1  0  0  0  0
 58 70  1  0  0  0  0
 59 67  1  0  0  0  0
 60 68  1  0  0  0  0
 61 68  1  0  0  0  0
 62 68  1  0  0  0  0
 63 81  1  0  0  0  0
 64 65  1  0  0  0  0
 64 80  1  0  0  0  0
 65 89  1  0  0  0  0
 66 68  1  0  0  0  0
 66 78  1  0  0  0  0
 67 81  1  0  0  0  0
 69 70  1  0  0  0  0
M  CHG  3  79   1  80   1  81   1
M  ISO  4  39 100  65 101  75 100  89 101
M  END
> <Batch ID>
0006

> <Smiles>
CNC(C)C(=O)NC(C(=O)N1Cc2cc([101O:1][101CH2:1]CN3CCCC3C(=O)NC3CNCc4c3ccc([100NH:0][100C:0](=O)N3CCCC(n5nc(-c6ccc(Oc7ccc(F)cc7F)cc6)c(C(N)=O)c5N)C3)c4F)ccc2CC1C(=O)NC1CCCc2ccccc21)C(C)(C)C

> <Shape>
0.252

> <Color>
0.084

> <Negative vol penalty>
0.000

$$$$
