
  -OEChem-04042320323D

 85 94  0     1  0  0  0  0  0999 V2000
  -18.9755  -24.2960   22.0836 C   0  0  0  0  0  0  0  0  0  0  0  0
  -20.2077  -24.5463   21.4883 C   0  0  0  0  0  0  0  0  0  0  0  0
  -23.8533  -20.5535   14.7703 C   0  0  0  0  0  0  0  0  0  0  0  0
  -20.6653  -12.9944   22.0449 C   0  0  0  0  0  0  0  0  0  0  0  0
  -20.3844  -13.3250   19.6682 C   0  0  0  0  0  0  0  0  0  0  0  0
  -18.1790  -25.3587   22.5081 C   0  0  0  0  0  0  0  0  0  0  0  0
  -20.6436  -25.8596   21.3161 C   0  0  0  0  0  0  0  0  0  0  0  0
  -24.7821  -21.5941   14.7704 C   0  0  0  0  0  0  0  0  0  0  0  0
  -25.4957  -26.4835   22.6251 C   0  0  0  0  0  0  0  0  0  0  0  0
  -23.3010  -20.1114   15.9725 C   0  0  0  0  0  0  0  0  0  0  0  0
  -19.4872  -12.2485   22.0805 C   0  0  0  0  0  0  0  0  0  0  0  0
  -19.2062  -12.5791   19.7037 C   0  0  0  0  0  0  0  0  0  0  0  0
  -26.4609  -26.0515   21.7165 C   0  0  0  0  0  0  0  0  0  0  0  0
  -18.5028   -9.1082   21.3045 C   0  0  0  0  0  0  0  0  0  0  0  0
  -18.5138   -7.9127   22.0231 C   0  0  0  0  0  0  0  0  0  0  0  0
  -24.6066  -21.7505   17.1749 C   0  0  0  0  0  0  0  0  0  0  0  0
  -26.7572  -28.3231   20.9607 C   0  0  0  0  0  0  0  0  0  0  0  0
  -16.7559   -8.7547   23.4506 C   0  0  0  0  0  0  0  0  0  0  0  0
  -21.1139  -13.5327   20.8388 C   0  0  0  0  0  0  0  0  0  0  0  0
  -23.6351  -13.8232   20.5803 C   0  0  0  0  0  0  0  0  0  0  0  0
  -25.1588  -22.1926   15.9727 C   0  0  0  0  0  0  0  0  0  0  0  0
  -18.6096  -26.6854   22.3497 C   0  0  0  0  0  0  0  0  0  0  0  0
  -25.1456  -27.8392   22.7009 C   0  0  0  0  0  0  0  0  0  0  0  0
  -19.8515  -26.9411   21.7376 C   0  0  0  0  0  0  0  0  0  0  0  0
  -25.7891  -28.7701   21.8729 C   0  0  0  0  0  0  0  0  0  0  0  0
  -23.6777  -20.7099   17.1748 C   0  0  0  0  0  0  0  0  0  0  0  0
  -18.7577  -12.0409   20.9099 C   0  0  0  0  0  0  0  0  0  0  0  0
  -27.0898  -26.9710   20.8821 C   0  0  0  0  0  0  0  0  0  0  0  0
  -17.6184  -10.1269   21.6590 C   0  0  0  0  0  0  0  0  0  0  0  0
  -17.6403   -7.7360   23.0961 C   0  0  0  0  0  0  0  0  0  0  0  0
  -16.7449   -9.9502   22.7320 C   0  0  0  0  0  0  0  0  0  0  0  0
  -22.3305  -14.3037   20.8016 C   0  0  0  0  0  0  0  0  0  0  0  0
  -24.4284  -14.9427   20.6415 C   0  0  0  0  0  0  0  0  0  0  0  0
  -24.0892  -12.4845   20.3409 C   0  0  0  0  0  0  0  0  0  0  0  0
  -22.4758  -29.4967   22.2224 C   0  0  0  0  0  0  0  0  0  0  0  0
  -24.2686  -31.9608   23.3342 C   0  0  0  0  0  0  0  0  0  0  0  0
  -27.3708  -33.2939   23.8302 C   0  0  0  0  0  0  0  0  0  0  0  0
  -23.3808  -20.7458   19.6762 C   0  0  0  0  0  0  0  0  0  0  0  0
  -17.6930  -27.8026   22.7813 C   0  0  0  0  0  0  0  0  0  0  0  0
  -24.1216  -28.2928   23.7050 C   0  0  0  0  0  0  0  0  0  0  0  0
  -25.4639  -30.2396   21.9292 C   0  0  0  0  0  0  0  0  0  0  0  0
  -18.3939  -29.1533   22.9022 C   0  0  0  0  0  0  0  0  0  0  0  0
  -24.6383  -19.2776   22.6662 C   0  0  0  0  0  0  0  0  0  0  0  0
  -19.2694  -29.4116   21.6801 C   0  0  0  0  0  0  0  0  0  0  0  0
  -24.3133  -17.7908   22.5045 C   0  0  0  0  0  0  0  0  0  0  0  0
  -25.5198  -24.5871   16.5410 C   0  0  0  0  0  0  0  0  0  0  0  0
  -27.3961  -22.9122   16.7873 C   0  0  0  0  0  0  0  0  0  0  0  0
  -23.5377  -20.1649   22.0872 C   0  0  0  0  0  0  0  0  0  0  0  0
  -22.8434  -18.3818   20.5354 C   0  0  0  0  0  0  0  0  0  0  0  0
  -26.5331  -25.7210   16.6311 C   0  0  0  0  0  0  0  0  0  0  0  0
  -28.3951  -24.0589   16.8752 C   0  0  0  0  0  0  0  0  0  0  0  0
  -26.1542  -23.3076   15.9723 C   0  0  0  0  0  0  0  0  0  0  0  0
  -20.3701  -28.3511   21.5558 C   0  0  1  0  0  0  0  0  0  0  0  0
  -23.4741  -29.6245   23.3381 C   0  0  1  0  0  0  0  0  0  0  0  0
  -23.9532  -17.4481   21.0456 C   0  0  2  0  0  0  0  0  0  0  0  0
  -28.5156  -35.3393   24.7264 C   0  0  0  0  0  0  0  0  0  0  0  0
  -23.5055  -33.4919   20.8077 C   0  0  0  0  0  0  0  0  0  0  0  0
  -25.3816  -35.0791   21.2867 C   0  0  0  0  0  0  0  0  0  0  0  0
  -23.4923  -34.8604   22.9008 C   0  0  0  0  0  0  0  0  0  0  0  0
  -28.7890  -31.7325   25.9062 C   0  0  0  0  0  0  0  0  0  0  0  0
  -28.6881  -26.3981   17.6856 C   0  0  0  0  0  0  0  0  0  0  0  0
  -28.1632  -27.2997   18.7855 C   0  0  0  0  0  0  0  0  0  1  0  0
  -25.1800  -32.9880   22.7072 C   0  0  1  0  0  0  0  0  0  0  0  0
  -28.0054  -33.9430   25.0469 C   0  0  2  0  0  0  0  0  0  0  0  0
  -24.3948  -34.0770   21.9229 C   0  0  0  0  0  0  0  0  0  0  0  0
  -22.2929  -15.6256   20.9895 N   0  0  0  0  0  0  0  0  0  0  0  0
  -23.5837  -15.9852   20.8865 N   0  0  0  0  0  0  0  0  0  0  0  0
  -24.4514  -30.6329   22.9231 N   0  0  0  0  0  0  0  0  0  0  0  0
  -23.2530  -19.7852   20.7016 N   0  0  0  0  0  0  0  0  0  0  0  0
  -25.7591  -15.1273   20.5091 N   0  0  0  0  0  0  0  0  0  0  0  0
  -23.1411  -11.4528   20.3102 N   0  0  0  0  0  0  0  0  0  0  0  0
  -23.1160  -20.2610   18.3958 N   0  0  0  0  0  0  0  0  0  0  0  0
  -21.4406  -28.6217   22.4913 N   0  0  0  0  0  0  0  0  0  0  0  0
  -26.0098  -33.5109   23.7871 N   0  0  0  0  0  0  0  0  0  0  0  0
  -27.7273  -25.2888   17.4609 N   0  3  0  0  0  0  0  0  0  0  0  0
  -29.1518  -33.1237   25.5323 N   0  3  0  0  0  0  0  0  0  0  0  0
  -25.3018  -12.2090   20.1758 O   0  0  0  0  0  0  0  0  0  0  0  0
  -22.6323  -30.1450   21.1944 O   0  0  0  0  0  0  0  0  0  0  0  0
  -23.4303  -32.3223   24.1638 O   0  0  0  0  0  0  0  0  0  0  0  0
  -28.0182  -32.6610   22.9991 O   0  0  0  0  0  0  0  0  0  0  0  0
  -23.7279  -21.9057   19.9131 O   0  0  0  0  0  0  0  0  0  0  0  0
  -17.6081  -11.3129   20.9441 O   0  0  0  0  0  0  0  0  0  0  0  0
  -28.0318  -26.5520   19.9939 O   0  0  0  0  0  0  0  0  0  1  0  0
  -17.6499   -6.5873   23.7851 F   0  0  0  0  0  0  0  0  0  0  0  0
  -15.8922  -10.9248   23.0766 F   0  0  0  0  0  0  0  0  0  0  0  0
  1  2  1  0  0  0  0
  1  6  2  0  0  0  0
  2  7  2  0  0  0  0
  3  8  2  0  0  0  0
  3 10  1  0  0  0  0
  4 11  2  0  0  0  0
  4 19  1  0  0  0  0
  5 12  1  0  0  0  0
  5 19  2  0  0  0  0
  6 22  1  0  0  0  0
  7 24  1  0  0  0  0
  8 21  1  0  0  0  0
  9 13  2  0  0  0  0
  9 23  1  0  0  0  0
 10 26  2  0  0  0  0
 11 27  1  0  0  0  0
 12 27  2  0  0  0  0
 13 28  1  0  0  0  0
 14 15  2  0  0  0  0
 14 29  1  0  0  0  0
 15 30  1  0  0  0  0
 16 21  2  0  0  0  0
 16 26  1  0  0  0  0
 17 25  1  0  0  0  0
 17 28  2  0  0  0  0
 18 30  2  0  0  0  0
 18 31  1  0  0  0  0
 19 32  1  0  0  0  0
 20 32  1  0  0  0  0
 20 33  2  0  0  0  0
 20 34  1  0  0  0  0
 21 52  1  0  0  0  0
 22 24  2  0  0  0  0
 22 39  1  0  0  0  0
 23 25  2  0  0  0  0
 23 40  1  0  0  0  0
 24 53  1  0  0  0  0
 25 41  1  0  0  0  0
 26 72  1  0  0  0  0
 27 82  1  0  0  0  0
 28 83  1  0  0  0  0
 29 31  2  0  0  0  0
 29 82  1  0  0  0  0
 30 84  1  0  0  0  0
 31 85  1  0  0  0  0
 32 66  2  0  0  0  0
 33 67  1  0  0  0  0
 33 70  1  0  0  0  0
 34 71  1  0  0  0  0
 34 77  2  0  0  0  0
 35 54  1  0  0  0  0
 35 73  1  0  0  0  0
 35 78  2  0  0  0  0
 36 63  1  0  0  0  0
 36 68  1  0  0  0  0
 36 79  2  0  0  0  0
 37 64  1  0  0  0  0
 37 74  1  0  0  0  0
 37 80  2  0  0  0  0
 38 69  1  0  0  0  0
 38 72  1  0  0  0  0
 38 81  2  0  0  0  0
 39 42  1  0  0  0  0
 40 54  1  0  0  0  0
 41 68  1  0  0  0  0
 42 44  1  0  0  0  0
 43 45  1  0  0  0  0
 43 48  1  0  0  0  0
 44 53  1  0  0  0  0
 45 55  1  0  0  0  0
 46 50  1  0  0  0  0
 46 52  1  0  0  0  0
 47 51  1  0  0  0  0
 47 52  1  0  0  0  0
 48 69  1  0  0  0  0
 49 55  1  0  0  0  0
 49 69  1  0  0  0  0
 50 75  1  0  0  0  0
 51 75  1  0  0  0  0
 53 73  1  0  0  0  0
 54 68  1  0  0  0  0
 55 67  1  0  0  0  0
 56 64  1  0  0  0  0
 57 65  1  0  0  0  0
 58 65  1  0  0  0  0
 59 65  1  0  0  0  0
 60 76  1  0  0  0  0
 61 62  1  0  0  0  0
 61 75  1  0  0  0  0
 62 83  1  0  0  0  0
 63 65  1  0  0  0  0
 63 74  1  0  0  0  0
 64 76  1  0  0  0  0
 66 67  1  0  0  0  0
M  CHG  2  75   1  76   1
M  ISO  4  38 100  62 101  72 100  83 101
M  END
> <Batch ID>
0007

> <Smiles>
CNC(C)C(=O)NC(C(=O)N1Cc2cc([101O:1][101CH2:1]CN3CCC(c4cccc([100NH:0][100C:0](=O)N5CCCC(n6nc(-c7ccc(Oc8ccc(F)cc8F)cc7)c(C(N)=O)c6N)C5)c4)CC3)ccc2CC1C(=O)NC1CCCc2ccccc21)C(C)(C)C

> <Shape>
0.190

> <Color>
0.118

> <Negative vol penalty>
0.000

$$$$

  -OEChem-04042320323D

 92101  0     1  0  0  0  0  0999 V2000
  -17.9507  -26.7791   22.3124 C   0  0  0  0  0  0  0  0  0  0  0  0
  -19.0995  -26.0344   22.0649 C   0  0  0  0  0  0  0  0  0  0  0  0
  -24.3673   -9.4994   21.3771 C   0  0  0  0  0  0  0  0  0  0  0  0
  -24.9115  -10.5625   23.4773 C   0  0  0  0  0  0  0  0  0  0  0  0
  -18.0554  -28.1260   22.6572 C   0  0  0  0  0  0  0  0  0  0  0  0
  -20.3535  -26.6366   22.1609 C   0  0  0  0  0  0  0  0  0  0  0  0
  -25.5460  -24.0374   24.1072 C   0  0  0  0  0  0  0  0  0  0  0  0
  -24.0279   -8.3298   22.0571 C   0  0  0  0  0  0  0  0  0  0  0  0
  -24.5721   -9.3928   24.1573 C   0  0  0  0  0  0  0  0  0  0  0  0
  -26.6289  -23.4815   23.4273 C   0  0  0  0  0  0  0  0  0  0  0  0
  -21.4074   -7.1586   23.8444 C   0  0  0  0  0  0  0  0  0  0  0  0
  -20.2280   -6.5125   23.4742 C   0  0  0  0  0  0  0  0  0  0  0  0
  -27.8163  -25.5723   23.6215 C   0  0  0  0  0  0  0  0  0  0  0  0
  -28.8928  -23.0669   16.2193 C   0  0  0  0  0  0  0  0  0  0  0  0
  -27.4906  -21.7167   17.6502 C   0  0  0  0  0  0  0  0  0  0  0  0
  -21.4915   -4.5349   22.9000 C   0  0  0  0  0  0  0  0  0  0  0  0
  -26.7599  -22.2673   15.4141 C   0  0  0  0  0  0  0  0  0  0  0  0
  -24.8091  -10.6157   22.0872 C   0  0  0  0  0  0  0  0  0  0  0  0
  -24.3091  -12.8978   21.0627 C   0  0  0  0  0  0  0  0  0  0  0  0
  -19.3118  -28.7425   22.7669 C   0  0  0  0  0  0  0  0  0  0  0  0
  -25.5860  -25.3705   24.5404 C   0  0  0  0  0  0  0  0  0  0  0  0
  -20.4750  -27.9933   22.5062 C   0  0  0  0  0  0  0  0  0  0  0  0
  -26.7337  -26.1419   24.3088 C   0  0  0  0  0  0  0  0  0  0  0  0
  -28.6689  -22.4333   17.4416 C   0  0  0  0  0  0  0  0  0  0  0  0
  -24.1303   -8.2765   23.4472 C   0  0  0  0  0  0  0  0  0  0  0  0
  -27.7631  -24.2498   23.1818 C   0  0  0  0  0  0  0  0  0  0  0  0
  -22.6290   -6.4929   23.7423 C   0  0  0  0  0  0  0  0  0  0  0  0
  -20.2700   -5.2007   23.0020 C   0  0  0  0  0  0  0  0  0  0  0  0
  -27.9383  -22.9839   15.2055 C   0  0  0  0  0  0  0  0  0  0  0  0
  -26.5360  -21.6337   16.6364 C   0  0  0  0  0  0  0  0  0  0  0  0
  -22.6710   -5.1810   23.2701 C   0  0  0  0  0  0  0  0  0  0  0  0
  -25.1604  -11.8241   21.3853 C   0  0  0  0  0  0  0  0  0  0  0  0
  -25.1175  -13.7905   20.4023 C   0  0  0  0  0  0  0  0  0  0  0  0
  -22.9124  -13.0727   21.3356 C   0  0  0  0  0  0  0  0  0  0  0  0
  -23.8931  -27.9858   23.9095 C   0  0  0  0  0  0  0  0  0  0  0  0
  -25.7135  -29.2620   26.2716 C   0  0  0  0  0  0  0  0  0  0  0  0
  -28.6095  -29.1587   28.0743 C   0  0  0  0  0  0  0  0  0  0  0  0
  -29.7972  -16.6041   20.0411 C   0  0  0  0  0  0  0  0  0  0  0  0
  -19.3725  -30.2131   23.0963 C   0  0  0  0  0  0  0  0  0  0  0  0
  -24.4202  -25.9471   25.2959 C   0  0  0  0  0  0  0  0  0  0  0  0
  -26.8346  -27.5718   24.7711 C   0  0  0  0  0  0  0  0  0  0  0  0
  -20.7554  -30.6806   23.5428 C   0  0  0  0  0  0  0  0  0  0  0  0
  -29.8226  -13.2774   18.6163 C   0  0  0  0  0  0  0  0  0  0  0  0
  -21.8305  -30.1377   22.6068 C   0  0  0  0  0  0  0  0  0  0  0  0
  -28.5311  -12.6912   19.1895 C   0  0  0  0  0  0  0  0  0  0  0  0
  -32.7608  -19.7132   16.7605 C   0  0  0  0  0  0  0  0  0  0  0  0
  -30.5215  -14.1747   19.6335 C   0  0  0  0  0  0  0  0  0  0  0  0
  -32.1479  -20.8673   17.5554 C   0  0  0  0  0  0  0  0  0  0  0  0
  -28.3821  -14.6937   20.7412 C   0  0  0  0  0  0  0  0  0  0  0  0
  -21.8543  -28.6045   22.6244 C   0  0  1  0  0  0  0  0  0  0  0  0
  -24.3663  -27.4707   25.2394 C   0  0  1  0  0  0  0  0  0  0  0  0
  -27.6166  -13.7949   19.7531 C   0  0  2  0  0  0  0  0  0  0  0  0
  -30.7988  -18.9662   17.9523 C   0  0  1  0  0  0  0  0  0  0  0  0
  -31.6768  -18.6187   16.7213 C   0  0  0  0  0  0  0  0  0  0  0  0
  -30.8534  -18.7541   15.4181 C   0  0  0  0  0  0  0  0  0  0  0  0
  -32.2928  -17.2157   16.7460 C   0  0  0  0  0  0  0  0  0  0  0  0
  -29.8300  -30.3555   29.9115 C   0  0  0  0  0  0  0  0  0  0  0  0
  -26.4609  -31.4871   24.3222 C   0  0  0  0  0  0  0  0  0  0  0  0
  -28.3590  -32.0853   25.8413 C   0  0  0  0  0  0  0  0  0  0  0  0
  -26.0084  -32.2556   26.6586 C   0  0  0  0  0  0  0  0  0  0  0  0
  -28.6047  -26.7552   29.8011 C   0  0  0  0  0  0  0  0  0  0  0  0
  -31.3194  -18.4124   19.2860 C   0  0  0  0  0  0  0  0  0  0  0  0
  -30.1989  -21.1444   18.9877 C   0  0  0  0  0  0  0  0  0  0  0  0
  -30.2596  -23.8318   20.5947 C   0  0  0  0  0  0  0  0  0  0  0  0
  -29.6183  -24.5976   21.7350 C   0  0  0  0  0  0  0  0  0  1  0  0
  -29.7044  -22.5236   18.5407 C   0  0  2  0  0  0  0  0  0  0  0  0
  -27.0441  -29.9727   26.3303 C   0  0  1  0  0  0  0  0  0  0  0  0
  -28.8689  -29.2280   29.5684 C   0  0  2  0  0  0  0  0  0  0  0  0
  -26.9658  -31.4239   25.7776 C   0  0  0  0  0  0  0  0  0  0  0  0
  -26.4135  -12.0151   20.9644 N   0  0  0  0  0  0  0  0  0  0  0  0
  -26.3556  -13.2192   20.3704 N   0  0  0  0  0  0  0  0  0  0  0  0
  -25.6662  -28.0923   25.5000 N   0  0  0  0  0  0  0  0  0  0  0  0
  -29.6024  -15.2150   20.1165 N   0  0  0  0  0  0  0  0  0  0  0  0
  -30.7858  -20.4354   17.8659 N   0  0  1  0  0  0  0  0  0  0  0  0
  -24.8829  -15.0004   19.8514 N   0  0  0  0  0  0  0  0  0  0  0  0
  -22.2340  -12.0579   22.0242 N   0  0  0  0  0  0  0  0  0  0  0  0
  -22.5213  -28.1231   23.8151 N   0  0  0  0  0  0  0  0  0  0  0  0
  -27.4933  -29.8844   27.7156 N   0  0  0  0  0  0  0  0  0  0  0  0
  -30.9813  -17.0150   19.4413 N   0  0  0  0  0  0  0  0  0  0  0  0
  -29.4561  -27.9465   30.0521 N   0  3  0  0  0  0  0  0  0  0  0  0
  -29.1971  -23.2550   19.7329 N   0  3  0  0  0  0  0  0  0  0  0  0
  -22.2809  -14.0912   20.9649 O   0  0  0  0  0  0  0  0  0  0  0  0
  -24.7120  -28.2412   23.0344 O   0  0  0  0  0  0  0  0  0  0  0  0
  -24.7534  -29.7237   26.8935 O   0  0  0  0  0  0  0  0  0  0  0  0
  -29.3274  -28.5272   27.3021 O   0  0  0  0  0  0  0  0  0  0  0  0
  -28.9739  -17.4188   20.4718 O   0  0  0  0  0  0  0  0  0  0  0  0
  -23.7990   -7.1354   24.1110 O   0  0  0  0  0  0  0  0  0  0  0  0
  -28.8212  -23.7099   22.5179 O   0  0  0  0  0  0  0  0  0  1  0  0
  -19.1371   -4.5799   22.6480 F   0  0  0  0  0  0  0  0  0  0  0  0
  -28.1535  -23.5925   14.0319 F   0  0  0  0  0  0  0  0  0  0  0  0
  -25.4045  -20.9453   16.8365 F   0  0  0  0  0  0  0  0  0  0  0  0
  -23.8414   -4.5359   23.1710 F   0  0  0  0  0  0  0  0  0  0  0  0
  1  2  1  0  0  0  0
  1  5  2  0  0  0  0
  2  6  2  0  0  0  0
  3  8  2  0  0  0  0
  3 18  1  0  0  0  0
  4  9  1  0  0  0  0
  4 18  2  0  0  0  0
  5 20  1  0  0  0  0
  6 22  1  0  0  0  0
  7 10  2  0  0  0  0
  7 21  1  0  0  0  0
  8 25  1  0  0  0  0
  9 25  2  0  0  0  0
 10 26  1  0  0  0  0
 11 12  2  0  0  0  0
 11 27  1  0  0  0  0
 12 28  1  0  0  0  0
 13 23  1  0  0  0  0
 13 26  2  0  0  0  0
 14 24  1  0  0  0  0
 14 29  2  0  0  0  0
 15 24  2  0  0  0  0
 15 30  1  0  0  0  0
 16 28  2  0  0  0  0
 16 31  1  0  0  0  0
 17 29  1  0  0  0  0
 17 30  2  0  0  0  0
 18 32  1  0  0  0  0
 19 32  1  0  0  0  0
 19 33  2  0  0  0  0
 19 34  1  0  0  0  0
 20 22  2  0  0  0  0
 20 39  1  0  0  0  0
 21 23  2  0  0  0  0
 21 40  1  0  0  0  0
 22 50  1  0  0  0  0
 23 41  1  0  0  0  0
 24 66  1  0  0  0  0
 25 87  1  0  0  0  0
 26 88  1  0  0  0  0
 27 31  2  0  0  0  0
 27 87  1  0  0  0  0
 28 89  1  0  0  0  0
 29 90  1  0  0  0  0
 30 91  1  0  0  0  0
 31 92  1  0  0  0  0
 32 70  2  0  0  0  0
 33 71  1  0  0  0  0
 33 75  1  0  0  0  0
 34 76  1  0  0  0  0
 34 82  2  0  0  0  0
 35 51  1  0  0  0  0
 35 77  1  0  0  0  0
 35 83  2  0  0  0  0
 36 67  1  0  0  0  0
 36 72  1  0  0  0  0
 36 84  2  0  0  0  0
 37 68  1  0  0  0  0
 37 78  1  0  0  0  0
 37 85  2  0  0  0  0
 38 73  1  0  0  0  0
 38 79  1  0  0  0  0
 38 86  2  0  0  0  0
 39 42  1  0  0  0  0
 40 51  1  0  0  0  0
 41 72  1  0  0  0  0
 42 44  1  0  0  0  0
 43 45  1  0  0  0  0
 43 47  1  0  0  0  0
 44 50  1  0  0  0  0
 45 52  1  0  0  0  0
 46 48  1  0  0  0  0
 46 54  1  0  0  0  0
 47 73  1  0  0  0  0
 48 74  1  0  0  0  0
 49 52  1  0  0  0  0
 49 73  1  0  0  0  0
 50 77  1  0  0  0  0
 51 72  1  0  0  0  0
 52 71  1  0  0  0  0
 53 54  1  0  0  0  0
 53 62  1  0  0  0  0
 53 74  1  0  0  0  0
 54 55  1  0  0  0  0
 54 56  1  0  0  0  0
 57 68  1  0  0  0  0
 58 69  1  0  0  0  0
 59 69  1  0  0  0  0
 60 69  1  0  0  0  0
 61 80  1  0  0  0  0
 62 79  1  0  0  0  0
 63 66  1  0  0  0  0
 63 74  1  0  0  0  0
 64 65  1  0  0  0  0
 64 81  1  0  0  0  0
 65 88  1  0  0  0  0
 66 81  1  0  0  0  0
 67 69  1  0  0  0  0
 67 78  1  0  0  0  0
 68 80  1  0  0  0  0
 70 71  1  0  0  0  0
M  CHG  2  80   1  81   1
M  ISO  4  38 100  65 101  79 100  88 101
M  END
> <Batch ID>
0007

> <Smiles>
CNC(C)C(=O)NC(C(=O)N1Cc2cc([101O:1][101CH2:1]CNC(CN3CCC(C)(C)C3C[100NH:0][100C:0](=O)N3CCCC(n4nc(-c5ccc(Oc6ccc(F)cc6F)cc5)c(C(N)=O)c4N)C3)c3cc(F)cc(F)c3)ccc2CC1C(=O)NC1CCCc2ccccc21)C(C)(C)C

> <Shape>
0.271

> <Color>
0.126

> <Negative vol penalty>
0.000

$$$$

  -OEChem-04042320323D

 82 90  0     1  0  0  0  0  0999 V2000
  -23.6153  -30.7372   20.2741 C   0  0  0  0  0  0  0  0  0  0  0  0
  -23.7865  -29.3636   20.4134 C   0  0  0  0  0  0  0  0  0  0  0  0
  -22.9549   -9.8821   20.0484 C   0  0  0  0  0  0  0  0  0  0  0  0
  -23.6106  -10.0717   22.3660 C   0  0  0  0  0  0  0  0  0  0  0  0
  -24.3551  -31.6145   21.0659 C   0  0  0  0  0  0  0  0  0  0  0  0
  -24.6984  -28.8666   21.3439 C   0  0  0  0  0  0  0  0  0  0  0  0
  -24.1653  -23.7336   24.6416 C   0  0  0  0  0  0  0  0  0  0  0  0
  -32.6567  -17.4530   23.3230 C   0  0  0  0  0  0  0  0  0  0  0  0
  -32.0756  -16.5113   22.4738 C   0  0  0  0  0  0  0  0  0  0  0  0
  -22.1555   -8.7837   20.3644 C   0  0  0  0  0  0  0  0  0  0  0  0
  -22.8111   -8.9733   22.6820 C   0  0  0  0  0  0  0  0  0  0  0  0
  -24.6886  -22.4523   24.4738 C   0  0  0  0  0  0  0  0  0  0  0  0
  -22.9949   -5.6061   22.4394 C   0  0  0  0  0  0  0  0  0  0  0  0
  -23.5364   -4.6295   23.2753 C   0  0  0  0  0  0  0  0  0  0  0  0
  -26.5035  -23.0050   25.9638 C   0  0  0  0  0  0  0  0  0  0  0  0
  -29.9028  -17.4871   22.8785 C   0  0  0  0  0  0  0  0  0  0  0  0
  -21.7682   -5.0184   24.8751 C   0  0  0  0  0  0  0  0  0  0  0  0
  -23.6825  -10.5261   21.0492 C   0  0  0  0  0  0  0  0  0  0  0  0
  -24.1292  -13.0161   20.7200 C   0  0  0  0  0  0  0  0  0  0  0  0
  -25.2695  -31.1278   22.0134 C   0  0  0  0  0  0  0  0  0  0  0  0
  -24.8141  -24.6654   25.4646 C   0  0  0  0  0  0  0  0  0  0  0  0
  -25.4521  -29.7382   22.1482 C   0  0  0  0  0  0  0  0  0  0  0  0
  -25.9849  -24.2966   26.1424 C   0  0  0  0  0  0  0  0  0  0  0  0
  -31.8608  -18.4117   23.9501 C   0  0  0  0  0  0  0  0  0  0  0  0
  -30.6987  -16.5284   22.2515 C   0  0  0  0  0  0  0  0  0  0  0  0
  -30.4839  -18.4288   23.7278 C   0  0  0  0  0  0  0  0  0  0  0  0
  -22.0835   -8.3293   21.6812 C   0  0  0  0  0  0  0  0  0  0  0  0
  -25.8595  -22.0888   25.1326 C   0  0  0  0  0  0  0  0  0  0  0  0
  -21.8401   -6.2889   22.8214 C   0  0  0  0  0  0  0  0  0  0  0  0
  -22.9230   -4.3357   24.4931 C   0  0  0  0  0  0  0  0  0  0  0  0
  -21.2267   -5.9950   24.0392 C   0  0  0  0  0  0  0  0  0  0  0  0
  -24.5090  -11.6605   20.7233 C   0  0  0  0  0  0  0  0  0  0  0  0
  -25.2654  -13.6901   20.3443 C   0  0  0  0  0  0  0  0  0  0  0  0
  -22.8626  -13.6126   21.0290 C   0  0  0  0  0  0  0  0  0  0  0  0
  -26.1629  -27.5069   25.0063 C   0  0  0  0  0  0  0  0  0  0  0  0
  -26.4366  -27.4640   28.2383 C   0  0  0  0  0  0  0  0  0  0  0  0
  -28.2819  -19.5371   24.2344 C   0  0  0  0  0  0  0  0  0  0  0  0
  -26.6104  -25.6234   31.1069 C   0  0  0  0  0  0  0  0  0  0  0  0
  -30.7553  -14.5533   20.6888 C   0  0  0  0  0  0  0  0  0  0  0  0
  -26.0809  -32.1158   22.8134 C   0  0  0  0  0  0  0  0  0  0  0  0
  -24.2222  -26.0348   25.6562 C   0  0  0  0  0  0  0  0  0  0  0  0
  -26.7086  -25.2533   27.0532 C   0  0  0  0  0  0  0  0  0  0  0  0
  -26.7537  -31.5013   24.0382 C   0  0  0  0  0  0  0  0  0  0  0  0
  -29.6538  -11.9741   18.4953 C   0  0  0  0  0  0  0  0  0  0  0  0
  -27.4341  -30.1866   23.6701 C   0  0  0  0  0  0  0  0  0  0  0  0
  -28.1859  -11.7741   18.8791 C   0  0  0  0  0  0  0  0  0  0  0  0
  -30.5223  -12.2792   19.7144 C   0  0  0  0  0  0  0  0  0  0  0  0
  -28.5853  -13.1939   20.9313 C   0  0  0  0  0  0  0  0  0  0  0  0
  -26.4136  -29.1601   23.1638 C   0  0  1  0  0  0  0  0  0  0  0  0
  -25.2457  -27.0696   26.1132 C   0  0  1  0  0  0  0  0  0  0  0  0
  -27.6604  -12.9482   19.7281 C   0  0  2  0  0  0  0  0  0  0  0  0
  -32.5104  -19.4080   24.8546 C   0  0  0  0  0  0  0  0  0  0  0  0
  -26.8708  -25.8670   33.5909 C   0  0  0  0  0  0  0  0  0  0  0  0
  -29.4125  -28.0272   27.8687 C   0  0  0  0  0  0  0  0  0  0  0  0
  -29.7696  -27.3233   30.2446 C   0  0  0  0  0  0  0  0  0  0  0  0
  -28.3339  -29.2981   29.7331 C   0  0  0  0  0  0  0  0  0  0  0  0
  -23.9840  -24.3606   31.6228 C   0  0  0  0  0  0  0  0  0  0  0  0
  -27.7891  -20.6998   25.0756 C   0  0  0  0  0  0  0  0  0  1  0  0
  -27.4775  -26.9760   29.2166 C   0  0  1  0  0  0  0  0  0  0  0  0
  -25.8882  -25.7580   32.4353 C   0  0  2  0  0  0  0  0  0  0  0  0
  -28.7360  -27.8885   29.2471 C   0  0  0  0  0  0  0  0  0  0  0  0
  -25.7866  -11.4822   20.3769 N   0  0  0  0  0  0  0  0  0  0  0  0
  -26.2194  -12.7345   20.1525 N   0  0  0  0  0  0  0  0  0  0  0  0
  -26.0938  -26.5826   27.2031 N   0  0  0  0  0  0  0  0  0  0  0  0
  -29.9657  -13.4050   20.4678 N   0  0  0  0  0  0  0  0  0  0  0  0
  -25.5314  -15.0010   20.1625 N   0  0  0  0  0  0  0  0  0  0  0  0
  -21.8013  -12.7744   21.3971 N   0  0  0  0  0  0  0  0  0  0  0  0
  -29.6599  -19.3933   24.3548 N   0  0  0  0  0  0  0  0  0  0  0  0
  -30.1089  -15.5715   21.3887 N   0  0  0  0  0  0  0  0  0  0  0  0
  -25.6891  -28.5781   24.2732 N   0  0  0  0  0  0  0  0  0  0  0  0
  -26.8008  -26.8482   30.5028 N   0  0  0  0  0  0  0  0  0  0  0  0
  -25.0140  -24.5744   32.6718 N   0  3  0  0  0  0  0  0  0  0  0  0
  -22.6729  -14.8509   20.9644 O   0  0  0  0  0  0  0  0  0  0  0  0
  -27.2227  -26.9171   24.8313 O   0  0  0  0  0  0  0  0  0  0  0  0
  -25.9404  -28.5829   28.3911 O   0  0  0  0  0  0  0  0  0  0  0  0
  -27.5120  -18.8583   23.5627 O   0  0  0  0  0  0  0  0  0  0  0  0
  -26.9730  -24.5406   30.6525 O   0  0  0  0  0  0  0  0  0  0  0  0
  -31.9101  -14.6385   20.2631 O   0  0  0  0  0  0  0  0  0  0  0  0
  -21.3033   -7.2576   21.9900 O   0  0  0  0  0  0  0  0  0  0  0  0
  -26.3728  -20.8390   24.9701 O   0  0  0  0  0  0  0  0  0  1  0  0
  -23.4423   -3.3968   25.2950 F   0  0  0  0  0  0  0  0  0  0  0  0
  -20.1164   -6.6468   24.4110 F   0  0  0  0  0  0  0  0  0  0  0  0
  1  2  1  0  0  0  0
  1  5  2  0  0  0  0
  2  6  2  0  0  0  0
  3 10  2  0  0  0  0
  3 18  1  0  0  0  0
  4 11  1  0  0  0  0
  4 18  2  0  0  0  0
  5 20  1  0  0  0  0
  6 22  1  0  0  0  0
  7 12  2  0  0  0  0
  7 21  1  0  0  0  0
  8  9  2  0  0  0  0
  8 24  1  0  0  0  0
  9 25  1  0  0  0  0
 10 27  1  0  0  0  0
 11 27  2  0  0  0  0
 12 28  1  0  0  0  0
 13 14  2  0  0  0  0
 13 29  1  0  0  0  0
 14 30  1  0  0  0  0
 15 23  1  0  0  0  0
 15 28  2  0  0  0  0
 16 25  2  0  0  0  0
 16 26  1  0  0  0  0
 17 30  2  0  0  0  0
 17 31  1  0  0  0  0
 18 32  1  0  0  0  0
 19 32  1  0  0  0  0
 19 33  2  0  0  0  0
 19 34  1  0  0  0  0
 20 22  2  0  0  0  0
 20 40  1  0  0  0  0
 21 23  2  0  0  0  0
 21 41  1  0  0  0  0
 22 49  1  0  0  0  0
 23 42  1  0  0  0  0
 24 26  2  0  0  0  0
 24 52  1  0  0  0  0
 25 69  1  0  0  0  0
 26 68  1  0  0  0  0
 27 79  1  0  0  0  0
 28 80  1  0  0  0  0
 29 31  2  0  0  0  0
 29 79  1  0  0  0  0
 30 81  1  0  0  0  0
 31 82  1  0  0  0  0
 32 62  2  0  0  0  0
 33 63  1  0  0  0  0
 33 66  1  0  0  0  0
 34 67  1  0  0  0  0
 34 73  2  0  0  0  0
 35 50  1  0  0  0  0
 35 70  1  0  0  0  0
 35 74  2  0  0  0  0
 36 59  1  0  0  0  0
 36 64  1  0  0  0  0
 36 75  2  0  0  0  0
 37 58  1  0  0  0  0
 37 68  1  0  0  0  0
 37 76  2  0  0  0  0
 38 60  1  0  0  0  0
 38 71  1  0  0  0  0
 38 77  2  0  0  0  0
 39 65  1  0  0  0  0
 39 69  1  0  0  0  0
 39 78  2  0  0  0  0
 40 43  1  0  0  0  0
 41 50  1  0  0  0  0
 42 64  1  0  0  0  0
 43 45  1  0  0  0  0
 44 46  1  0  0  0  0
 44 47  1  0  0  0  0
 45 49  1  0  0  0  0
 46 51  1  0  0  0  0
 47 65  1  0  0  0  0
 48 51  1  0  0  0  0
 48 65  1  0  0  0  0
 49 70  1  0  0  0  0
 50 64  1  0  0  0  0
 51 63  1  0  0  0  0
 53 60  1  0  0  0  0
 54 61  1  0  0  0  0
 55 61  1  0  0  0  0
 56 61  1  0  0  0  0
 57 72  1  0  0  0  0
 58 80  1  0  0  0  0
 59 61  1  0  0  0  0
 59 71  1  0  0  0  0
 60 72  1  0  0  0  0
 62 63  1  0  0  0  0
M  CHG  1  72   1
M  ISO  4  39 100  58 101  69 100  80 101
M  END
> <Batch ID>
0007

> <Smiles>
CNC(C)C(=O)NC(C(=O)N1Cc2cc([101O:1][101CH2:1]C(=O)Nc3cc([100NH:0][100C:0](=O)N4CCCC(n5nc(-c6ccc(Oc7ccc(F)cc7F)cc6)c(C(N)=O)c5N)C4)ccc3C)ccc2CC1C(=O)NC1CCCc2ccccc21)C(C)(C)C

> <Shape>
0.240

> <Color>
0.214

> <Negative vol penalty>
0.000

$$$$

  -OEChem-04042320323D

 82 91  0     1  0  0  0  0  0999 V2000
  -20.0322   -8.0630   18.5444 C   0  0  0  0  0  0  0  0  0  0  0  0
  -20.6134   -9.1481   17.8961 C   0  0  0  0  0  0  0  0  0  0  0  0
  -24.6500  -30.9587   20.7871 C   0  0  0  0  0  0  0  0  0  0  0  0
  -25.1720  -29.4944   22.6365 C   0  0  0  0  0  0  0  0  0  0  0  0
  -28.8985  -22.2411   19.8389 C   0  0  0  0  0  0  0  0  0  0  0  0
  -19.6846   -8.1615   19.8910 C   0  0  0  0  0  0  0  0  0  0  0  0
  -20.8464  -10.3327   18.5939 C   0  0  0  0  0  0  0  0  0  0  0  0
  -25.5331  -14.1987   17.8232 C   0  0  0  0  0  0  0  0  0  0  0  0
  -27.8531  -21.4206   19.4152 C   0  0  0  0  0  0  0  0  0  0  0  0
  -24.0325  -31.8486   21.6659 C   0  0  0  0  0  0  0  0  0  0  0  0
  -24.5545  -30.3843   23.5154 C   0  0  0  0  0  0  0  0  0  0  0  0
  -25.6549  -15.3970   17.1211 C   0  0  0  0  0  0  0  0  0  0  0  0
  -24.9777  -34.2313   23.8710 C   0  0  0  0  0  0  0  0  0  0  0  0
  -25.2636  -35.5888   23.7262 C   0  0  0  0  0  0  0  0  0  0  0  0
  -25.2132  -16.6239   19.1506 C   0  0  0  0  0  0  0  0  0  0  0  0
  -28.0080  -22.3680   17.1983 C   0  0  0  0  0  0  0  0  0  0  0  0
  -22.9239  -36.0390   23.3260 C   0  0  0  0  0  0  0  0  0  0  0  0
  -25.2197  -29.7816   21.2724 C   0  0  0  0  0  0  0  0  0  0  0  0
  -29.4988  -23.1250   18.9423 C   0  0  0  0  0  0  0  0  0  0  0  0
  -25.2664  -28.1973   19.2735 C   0  0  0  0  0  0  0  0  0  0  0  0
  -19.9222   -9.3446   20.6081 C   0  0  0  0  0  0  0  0  0  0  0  0
  -25.2393  -14.2038   19.1943 C   0  0  0  0  0  0  0  0  0  0  0  0
  -20.5004  -10.4475   19.9510 C   0  0  0  0  0  0  0  0  0  0  0  0
  -25.0908  -15.4244   19.8683 C   0  0  0  0  0  0  0  0  0  0  0  0
  -27.4079  -21.4841   18.0948 C   0  0  0  0  0  0  0  0  0  0  0  0
  -23.9847  -31.5614   23.0301 C   0  0  0  0  0  0  0  0  0  0  0  0
  -25.4921  -16.6098   17.7841 C   0  0  0  0  0  0  0  0  0  0  0  0
  -23.6648  -33.7776   23.7432 C   0  0  0  0  0  0  0  0  0  0  0  0
  -24.2368  -36.4927   23.4538 C   0  0  0  0  0  0  0  0  0  0  0  0
  -29.0535  -23.1885   17.6220 C   0  0  0  0  0  0  0  0  0  0  0  0
  -22.6380  -34.6814   23.4708 C   0  0  0  0  0  0  0  0  0  0  0  0
  -25.8573  -28.8617   20.3650 C   0  0  0  0  0  0  0  0  0  0  0  0
  -26.2834  -27.4456   18.7377 C   0  0  0  0  0  0  0  0  0  0  0  0
  -30.5986  -23.9873   19.3935 C   0  0  0  0  0  0  0  0  0  0  0  0
  -23.9188  -28.2545   18.7875 C   0  0  0  0  0  0  0  0  0  0  0  0
  -22.8489  -13.1079   20.9802 C   0  0  0  0  0  0  0  0  0  0  0  0
  -24.7558  -14.0598   23.4256 C   0  0  0  0  0  0  0  0  0  0  0  0
  -27.2805  -16.0824   24.5126 C   0  0  0  0  0  0  0  0  0  0  0  0
  -19.4860   -9.4196   22.0499 C   0  0  0  0  0  0  0  0  0  0  0  0
  -25.1376  -12.9031   19.9428 C   0  0  0  0  0  0  0  0  0  0  0  0
  -24.7945  -15.4846   21.3438 C   0  0  0  0  0  0  0  0  0  0  0  0
  -20.1096  -10.5840   22.8152 C   0  0  0  0  0  0  0  0  0  0  0  0
  -31.2581  -27.4862   19.6477 C   0  0  0  0  0  0  0  0  0  0  0  0
  -20.0187  -11.8692   21.9986 C   0  0  0  0  0  0  0  0  0  0  0  0
  -29.8653  -28.1031   19.7873 C   0  0  0  0  0  0  0  0  0  0  0  0
  -24.5548  -19.8473   16.4274 C   0  0  0  0  0  0  0  0  0  0  0  0
  -31.3503  -26.1367   20.3553 C   0  0  0  0  0  0  0  0  0  0  0  0
  -25.8406  -20.6665   16.3171 C   0  0  0  0  0  0  0  0  0  0  0  0
  -28.9206  -25.7756   20.0890 C   0  0  0  0  0  0  0  0  0  0  0  0
  -25.6879  -19.7100   18.5380 C   0  0  0  0  0  0  0  0  0  0  0  0
  -20.7916  -11.7411   20.6804 C   0  0  1  0  0  0  0  0  0  0  0  0
  -24.3277  -13.0165   21.2307 C   0  0  1  0  0  0  0  0  0  0  0  0
  -28.7702  -27.1136   19.3465 C   0  0  1  0  0  0  0  0  0  0  0  0
  -24.8424  -18.8839   17.5697 C   0  0  2  0  0  0  0  0  0  1  0  0
  -28.5934  -16.6608   26.5716 C   0  0  0  0  0  0  0  0  0  0  0  0
  -22.3874  -15.6681   24.4810 C   0  0  0  0  0  0  0  0  0  0  0  0
  -23.9844  -16.9339   25.9355 C   0  0  0  0  0  0  0  0  0  0  0  0
  -23.7043  -14.4739   26.2400 C   0  0  0  0  0  0  0  0  0  0  0  0
  -29.8268  -15.2269   23.2703 C   0  0  0  0  0  0  0  0  0  0  0  0
  -24.9335  -15.3391   24.2072 C   0  0  1  0  0  0  0  0  0  0  0  0
  -28.5268  -15.7882   25.3279 C   0  0  2  0  0  0  0  0  0  0  0  0
  -23.7561  -15.6029   25.1877 C   0  0  0  0  0  0  0  0  0  0  0  0
  -27.1494  -28.5586   20.5150 N   0  0  0  0  0  0  0  0  0  0  0  0
  -27.3789  -27.6955   19.5108 N   0  0  0  0  0  0  0  0  0  0  0  0
  -26.3749  -20.6722   17.6757 N   0  0  3  0  0  0  0  0  0  0  0  0
  -30.2797  -25.2452   19.9108 N   0  0  0  0  0  0  0  0  0  0  0  0
  -24.6983  -14.1858   22.0303 N   0  0  0  0  0  0  0  0  0  0  0  0
  -26.3386  -26.6019   17.6853 N   0  0  0  0  0  0  0  0  0  0  0  0
  -22.9851  -27.3423   19.2980 N   0  0  0  0  0  0  0  0  0  0  0  0
  -22.2131  -11.8830   20.9121 N   0  0  0  0  0  0  0  0  0  0  0  0
  -26.2387  -15.2454   24.8522 N   0  0  0  0  0  0  0  0  0  0  0  0
  -29.7495  -16.0371   24.5131 N   0  3  0  0  0  0  0  0  0  0  0  0
  -31.7339  -23.5311   19.2670 O   0  0  0  0  0  0  0  0  0  0  0  0
  -23.5572  -29.0790   17.9140 O   0  0  0  0  0  0  0  0  0  0  0  0
  -22.3235  -14.2084   20.8591 O   0  0  0  0  0  0  0  0  0  0  0  0
  -24.6783  -12.9875   24.0303 O   0  0  0  0  0  0  0  0  0  0  0  0
  -27.2346  -16.9688   23.6625 O   0  0  0  0  0  0  0  0  0  0  0  0
  -23.3824  -32.4296   23.8880 O   0  0  0  0  0  0  0  0  0  0  0  0
  -25.6097  -17.7809   17.1011 O   0  0  0  0  0  0  0  0  0  1  0  0
  -24.5113  -37.7965   23.3163 F   0  0  0  0  0  0  0  0  0  0  0  0
  -29.6242  -24.0335   16.7517 F   0  0  0  0  0  0  0  0  0  0  0  0
  -21.3746  -34.2517   23.3481 F   0  0  0  0  0  0  0  0  0  0  0  0
  1  2  1  0  0  0  0
  1  6  2  0  0  0  0
  2  7  2  0  0  0  0
  3 10  2  0  0  0  0
  3 18  1  0  0  0  0
  4 11  1  0  0  0  0
  4 18  2  0  0  0  0
  5  9  2  0  0  0  0
  5 19  1  0  0  0  0
  6 21  1  0  0  0  0
  7 23  1  0  0  0  0
  8 12  2  0  0  0  0
  8 22  1  0  0  0  0
  9 25  1  0  0  0  0
 10 26  1  0  0  0  0
 11 26  2  0  0  0  0
 12 27  1  0  0  0  0
 13 14  2  0  0  0  0
 13 28  1  0  0  0  0
 14 29  1  0  0  0  0
 15 24  1  0  0  0  0
 15 27  2  0  0  0  0
 16 25  2  0  0  0  0
 16 30  1  0  0  0  0
 17 29  2  0  0  0  0
 17 31  1  0  0  0  0
 18 32  1  0  0  0  0
 19 30  2  0  0  0  0
 19 34  1  0  0  0  0
 20 32  1  0  0  0  0
 20 33  2  0  0  0  0
 20 35  1  0  0  0  0
 21 23  2  0  0  0  0
 21 39  1  0  0  0  0
 22 24  2  0  0  0  0
 22 40  1  0  0  0  0
 23 51  1  0  0  0  0
 24 41  1  0  0  0  0
 25 65  1  0  0  0  0
 26 78  1  0  0  0  0
 27 79  1  0  0  0  0
 28 31  2  0  0  0  0
 28 78  1  0  0  0  0
 29 80  1  0  0  0  0
 30 81  1  0  0  0  0
 31 82  1  0  0  0  0
 32 63  2  0  0  0  0
 33 64  1  0  0  0  0
 33 68  1  0  0  0  0
 34 66  1  0  0  0  0
 34 73  2  0  0  0  0
 35 69  1  0  0  0  0
 35 74  2  0  0  0  0
 36 52  1  0  0  0  0
 36 70  1  0  0  0  0
 36 75  2  0  0  0  0
 37 60  1  0  0  0  0
 37 67  1  0  0  0  0
 37 76  2  0  0  0  0
 38 61  1  0  0  0  0
 38 71  1  0  0  0  0
 38 77  2  0  0  0  0
 39 42  1  0  0  0  0
 40 52  1  0  0  0  0
 41 67  1  0  0  0  0
 42 44  1  0  0  0  0
 43 45  1  0  0  0  0
 43 47  1  0  0  0  0
 44 51  1  0  0  0  0
 45 53  1  0  0  0  0
 46 48  1  0  0  0  0
 46 54  1  0  0  0  0
 47 66  1  0  0  0  0
 48 65  1  0  0  0  0
 49 53  1  0  0  0  0
 49 66  1  0  0  0  0
 50 54  1  0  0  0  0
 50 65  1  0  0  0  0
 51 70  1  0  0  0  0
 52 67  1  0  0  0  0
 53 64  1  0  0  0  0
 54 79  1  0  0  0  0
 55 61  1  0  0  0  0
 56 62  1  0  0  0  0
 57 62  1  0  0  0  0
 58 62  1  0  0  0  0
 59 72  1  0  0  0  0
 60 62  1  0  0  0  0
 60 71  1  0  0  0  0
 61 72  1  0  0  0  0
 63 64  1  0  0  0  0
M  CHG  1  72   1
M  ISO  4  19 100  34 100  54 101  79 101
M  END
> <Batch ID>
0007

> <Smiles>
CNC(C)C(=O)NC(C(=O)N1Cc2cc([101O:1][101CH:1]3CCN(c4cc[100c:0]([100C:0](=O)N5CCCC(n6nc(-c7ccc(Oc8ccc(F)cc8F)cc7)c(C(N)=O)c6N)C5)c(F)c4)C3)ccc2CC1C(=O)NC1CCCc2ccccc21)C(C)(C)C

> <Shape>
0.213

> <Color>
0.056

> <Negative vol penalty>
0.000

$$$$

  -OEChem-04042320323D

 82 91  0     1  0  0  0  0  0999 V2000
  -17.0914  -26.5540   23.1690 C   0  0  0  0  0  0  0  0  0  0  0  0
  -18.3487  -25.9595   23.2064 C   0  0  0  0  0  0  0  0  0  0  0  0
  -26.1142  -14.0315   21.2943 C   0  0  0  0  0  0  0  0  0  0  0  0
  -26.4751  -12.4175   19.5332 C   0  0  0  0  0  0  0  0  0  0  0  0
  -16.9403  -27.8289   22.6253 C   0  0  0  0  0  0  0  0  0  0  0  0
  -19.4554  -26.6392   22.6989 C   0  0  0  0  0  0  0  0  0  0  0  0
  -25.1952  -26.4325   24.8244 C   0  0  0  0  0  0  0  0  0  0  0  0
  -24.8576  -13.4794   21.5428 C   0  0  0  0  0  0  0  0  0  0  0  0
  -25.2186  -11.8653   19.7817 C   0  0  0  0  0  0  0  0  0  0  0  0
  -26.3190  -25.7119   24.4223 C   0  0  0  0  0  0  0  0  0  0  0  0
  -23.8234   -9.7652   22.0319 C   0  0  0  0  0  0  0  0  0  0  0  0
  -23.7279   -8.3748   22.0886 C   0  0  0  0  0  0  0  0  0  0  0  0
  -27.0610  -27.6051   23.1244 C   0  0  0  0  0  0  0  0  0  0  0  0
  -22.1604   -8.4074   20.2504 C   0  0  0  0  0  0  0  0  0  0  0  0
  -26.9229  -13.5007   20.2894 C   0  0  0  0  0  0  0  0  0  0  0  0
  -29.4443  -13.7007   20.6216 C   0  0  0  0  0  0  0  0  0  0  0  0
  -18.0474  -28.5285   22.1197 C   0  0  0  0  0  0  0  0  0  0  0  0
  -24.9900  -27.7432   24.3700 C   0  0  0  0  0  0  0  0  0  0  0  0
  -19.3188  -27.9241   22.1467 C   0  0  0  0  0  0  0  0  0  0  0  0
  -25.9352  -28.3411   23.5242 C   0  0  0  0  0  0  0  0  0  0  0  0
  -24.4098  -12.3963   20.7865 C   0  0  0  0  0  0  0  0  0  0  0  0
  -27.2506  -26.2972   23.5698 C   0  0  0  0  0  0  0  0  0  0  0  0
  -23.0873  -10.4768   21.0845 C   0  0  0  0  0  0  0  0  0  0  0  0
  -22.8964   -7.6959   21.1978 C   0  0  0  0  0  0  0  0  0  0  0  0
  -22.2559   -9.7979   20.1937 C   0  0  0  0  0  0  0  0  0  0  0  0
  -28.2208  -14.0710   20.0319 C   0  0  0  0  0  0  0  0  0  0  0  0
  -30.3700  -14.5357   20.0450 C   0  0  0  0  0  0  0  0  0  0  0  0
  -29.7194  -12.6922   21.6029 C   0  0  0  0  0  0  0  0  0  0  0  0
  -22.7549  -29.1918   22.6353 C   0  0  0  0  0  0  0  0  0  0  0  0
  -24.4344  -31.8571   23.4084 C   0  0  0  0  0  0  0  0  0  0  0  0
  -27.4087  -33.2324   24.3622 C   0  0  0  0  0  0  0  0  0  0  0  0
  -31.9752  -19.5320   18.3030 C   0  0  0  0  0  0  0  0  0  0  0  0
  -29.7937  -23.0101   21.9572 C   0  0  0  0  0  0  0  0  0  0  0  0
  -17.8269  -29.8851   21.4986 C   0  0  0  0  0  0  0  0  0  0  0  0
  -23.7864  -28.5165   24.8344 C   0  0  0  0  0  0  0  0  0  0  0  0
  -25.7716  -29.7524   23.0244 C   0  0  0  0  0  0  0  0  0  0  0  0
  -19.1117  -30.6906   21.3229 C   0  0  0  0  0  0  0  0  0  0  0  0
  -29.9998  -17.6599   16.0978 C   0  0  0  0  0  0  0  0  0  0  0  0
  -20.2072  -29.8219   20.7132 C   0  0  0  0  0  0  0  0  0  0  0  0
  -29.4429  -16.5332   16.9663 C   0  0  0  0  0  0  0  0  0  0  0  0
  -33.7162  -20.1085   21.3908 C   0  0  0  0  0  0  0  0  0  0  0  0
  -32.2740  -19.8579   21.8923 C   0  0  0  0  0  0  0  0  0  0  0  0
  -32.9332  -22.0808   20.0776 C   0  0  0  0  0  0  0  0  0  0  0  0
  -30.0375  -18.9740   16.8684 C   0  0  0  0  0  0  0  0  0  0  0  0
  -30.2863  -17.7756   19.0205 C   0  0  0  0  0  0  0  0  0  0  0  0
  -20.5475  -28.6397   21.6287 C   0  0  1  0  0  0  0  0  0  0  0  0
  -23.4160  -29.6637   23.8994 C   0  0  1  0  0  0  0  0  0  0  0  0
  -30.2243  -16.4210   18.2865 C   0  0  1  0  0  0  0  0  0  0  0  0
  -33.4898  -20.6470   19.9693 C   0  0  2  0  0  0  0  0  0  0  0  0
  -31.4188  -20.2963   20.6914 C   0  0  1  0  0  0  0  0  0  0  0  0
  -31.4674  -21.8346   20.5231 C   0  0  1  0  0  0  0  0  0  0  0  0
  -28.4822  -35.4411   24.8782 C   0  0  0  0  0  0  0  0  0  0  0  0
  -24.5691  -32.4858   20.4257 C   0  0  0  0  0  0  0  0  0  0  0  0
  -26.4051  -34.1138   20.9228 C   0  0  0  0  0  0  0  0  0  0  0  0
  -24.1329  -34.4654   21.8904 C   0  0  0  0  0  0  0  0  0  0  0  0
  -28.0201  -32.4173   27.1408 C   0  0  0  0  0  0  0  0  0  0  0  0
  -28.4824  -24.2640   23.6731 C   0  0  0  0  0  0  0  0  0  1  0  0
  -25.5909  -32.6079   22.7937 C   0  0  1  0  0  0  0  0  0  0  0  0
  -27.7524  -34.2351   25.4488 C   0  0  2  0  0  0  0  0  0  0  0  0
  -25.1769  -33.3909   21.5158 C   0  0  0  0  0  0  0  0  0  0  0  0
  -28.3538  -15.0639   19.1485 N   0  0  0  0  0  0  0  0  0  0  0  0
  -29.6718  -15.3247   19.1789 N   0  0  0  0  0  0  0  0  0  0  0  0
  -24.5751  -30.4652   23.5016 N   0  0  0  0  0  0  0  0  0  0  0  0
  -30.7750  -18.8334   18.1246 N   0  0  0  0  0  0  0  0  0  0  0  0
  -32.2980  -19.9112   19.5931 N   0  0  0  0  0  0  0  0  0  0  0  0
  -31.7048  -14.6646   20.1995 N   0  0  0  0  0  0  0  0  0  0  0  0
  -28.6525  -11.9243   22.0890 N   0  0  0  0  0  0  0  0  0  0  0  0
  -21.3811  -29.0757   22.7284 N   0  0  0  0  0  0  0  0  0  0  0  0
  -26.1446  -33.4437   23.8535 N   0  0  0  0  0  0  0  0  0  0  0  0
  -31.0959  -22.5747   21.6940 N   0  0  0  0  0  0  0  0  0  0  0  0
  -29.7188  -23.7041   23.1627 N   0  0  0  0  0  0  0  0  0  0  0  0
  -28.6233  -33.6033   26.4800 N   0  3  0  0  0  0  0  0  0  0  0  0
  -30.8746  -12.4895   22.0479 O   0  0  0  0  0  0  0  0  0  0  0  0
  -23.4403  -28.9524   21.6481 O   0  0  0  0  0  0  0  0  0  0  0  0
  -23.4458  -32.4834   23.7984 O   0  0  0  0  0  0  0  0  0  0  0  0
  -28.1854  -32.3521   23.9982 O   0  0  0  0  0  0  0  0  0  0  0  0
  -32.7173  -19.8110   17.3533 O   0  0  0  0  0  0  0  0  0  0  0  0
  -28.8331  -22.8044   21.2166 O   0  0  0  0  0  0  0  0  0  0  0  0
  -23.1838  -11.8571   21.0289 O   0  0  0  0  0  0  0  0  0  0  0  0
  -28.3552  -25.5912   23.1727 O   0  0  0  0  0  0  0  0  0  1  0  0
  -22.8060   -6.3605   21.2514 F   0  0  0  0  0  0  0  0  0  0  0  0
  -21.5472  -10.4760   19.2806 F   0  0  0  0  0  0  0  0  0  0  0  0
  1  2  1  0  0  0  0
  1  5  2  0  0  0  0
  2  6  2  0  0  0  0
  3  8  2  0  0  0  0
  3 15  1  0  0  0  0
  4  9  1  0  0  0  0
  4 15  2  0  0  0  0
  5 17  1  0  0  0  0
  6 19  1  0  0  0  0
  7 10  2  0  0  0  0
  7 18  1  0  0  0  0
  8 21  1  0  0  0  0
  9 21  2  0  0  0  0
 10 22  1  0  0  0  0
 11 12  2  0  0  0  0
 11 23  1  0  0  0  0
 12 24  1  0  0  0  0
 13 20  1  0  0  0  0
 13 22  2  0  0  0  0
 14 24  2  0  0  0  0
 14 25  1  0  0  0  0
 15 26  1  0  0  0  0
 16 26  1  0  0  0  0
 16 27  2  0  0  0  0
 16 28  1  0  0  0  0
 17 19  2  0  0  0  0
 17 34  1  0  0  0  0
 18 20  2  0  0  0  0
 18 35  1  0  0  0  0
 19 46  1  0  0  0  0
 20 36  1  0  0  0  0
 21 79  1  0  0  0  0
 22 80  1  0  0  0  0
 23 25  2  0  0  0  0
 23 79  1  0  0  0  0
 24 81  1  0  0  0  0
 25 82  1  0  0  0  0
 26 61  2  0  0  0  0
 27 62  1  0  0  0  0
 27 66  1  0  0  0  0
 28 67  1  0  0  0  0
 28 73  2  0  0  0  0
 29 47  1  0  0  0  0
 29 68  1  0  0  0  0
 29 74  2  0  0  0  0
 30 58  1  0  0  0  0
 30 63  1  0  0  0  0
 30 75  2  0  0  0  0
 31 59  1  0  0  0  0
 31 69  1  0  0  0  0
 31 76  2  0  0  0  0
 32 64  1  0  0  0  0
 32 65  1  0  0  0  0
 32 77  2  0  0  0  0
 33 70  1  0  0  0  0
 33 71  1  0  0  0  0
 33 78  2  0  0  0  0
 34 37  1  0  0  0  0
 35 47  1  0  0  0  0
 36 63  1  0  0  0  0
 37 39  1  0  0  0  0
 38 40  1  0  0  0  0
 38 44  1  0  0  0  0
 39 46  1  0  0  0  0
 40 48  1  0  0  0  0
 41 42  1  0  0  0  0
 41 49  1  0  0  0  0
 42 50  1  0  0  0  0
 43 49  1  0  0  0  0
 43 51  1  0  0  0  0
 44 64  1  0  0  0  0
 45 48  1  0  0  0  0
 45 64  1  0  0  0  0
 46 68  1  0  0  0  0
 47 63  1  0  0  0  0
 48 62  1  0  0  0  0
 49 65  1  0  0  0  0
 50 51  1  0  0  0  0
 50 65  1  0  0  0  0
 51 70  1  0  0  0  0
 52 59  1  0  0  0  0
 53 60  1  0  0  0  0
 54 60  1  0  0  0  0
 55 60  1  0  0  0  0
 56 72  1  0  0  0  0
 57 71  1  0  0  0  0
 57 80  1  0  0  0  0
 58 60  1  0  0  0  0
 58 69  1  0  0  0  0
 59 72  1  0  0  0  0
 61 62  1  0  0  0  0
M  CHG  1  72   1
M  ISO  4  32 100  57 101  65 100  80 101
M  END
> <Batch ID>
0007

> <Smiles>
CNC(C)C(=O)NC(C(=O)N1Cc2cc([101O:1][101CH2:1]NC(=O)NC3CC4CCC3[100N:0]4[100C:0](=O)N3CCCC(n4nc(-c5ccc(Oc6ccc(F)cc6F)cc5)c(C(N)=O)c4N)C3)ccc2CC1C(=O)NC1CCCc2ccccc21)C(C)(C)C

> <Shape>
0.255

> <Color>
0.094

> <Negative vol penalty>
0.000

$$$$

  -OEChem-04042320323D

 82 90  0     1  0  0  0  0  0999 V2000
  -35.9092  -31.1665   20.0709 C   0  0  0  0  0  0  0  0  0  0  0  0
  -35.9895  -30.0060   20.8339 C   0  0  0  0  0  0  0  0  0  0  0  0
  -23.0463   -9.9635   19.8683 C   0  0  0  0  0  0  0  0  0  0  0  0
  -23.9077   -9.7563   22.1160 C   0  0  0  0  0  0  0  0  0  0  0  0
  -34.6783  -31.7950   19.8874 C   0  0  0  0  0  0  0  0  0  0  0  0
  -34.8389  -29.4739   21.4148 C   0  0  0  0  0  0  0  0  0  0  0  0
  -33.5448  -23.5480   22.2608 C   0  0  0  0  0  0  0  0  0  0  0  0
  -32.7769  -17.2532   23.6545 C   0  0  0  0  0  0  0  0  0  0  0  0
  -32.1462  -16.4571   22.6984 C   0  0  0  0  0  0  0  0  0  0  0  0
  -22.3135   -8.7894   20.0408 C   0  0  0  0  0  0  0  0  0  0  0  0
  -23.1748   -8.5821   22.2886 C   0  0  0  0  0  0  0  0  0  0  0  0
  -33.6592  -22.7121   23.3707 C   0  0  0  0  0  0  0  0  0  0  0  0
  -19.9761   -7.7198   22.9558 C   0  0  0  0  0  0  0  0  0  0  0  0
  -19.2721   -7.5667   24.1502 C   0  0  0  0  0  0  0  0  0  0  0  0
  -31.3390  -23.1072   23.8997 C   0  0  0  0  0  0  0  0  0  0  0  0
  -30.6244  -18.0379   24.4212 C   0  0  0  0  0  0  0  0  0  0  0  0
  -20.5436   -5.5726   24.6441 C   0  0  0  0  0  0  0  0  0  0  0  0
  -23.8435  -10.4470   20.9058 C   0  0  0  0  0  0  0  0  0  0  0  0
  -24.1816  -12.9733   21.0101 C   0  0  0  0  0  0  0  0  0  0  0  0
  -33.5105  -31.2649   20.4583 C   0  0  0  0  0  0  0  0  0  0  0  0
  -32.3275  -24.1795   21.9677 C   0  0  0  0  0  0  0  0  0  0  0  0
  -33.5914  -30.0966   21.2399 C   0  0  0  0  0  0  0  0  0  0  0  0
  -31.2111  -23.9486   22.7840 C   0  0  0  0  0  0  0  0  0  0  0  0
  -32.0160  -18.0435   24.5160 C   0  0  0  0  0  0  0  0  0  0  0  0
  -30.7546  -16.4515   22.6037 C   0  0  0  0  0  0  0  0  0  0  0  0
  -22.3777   -8.0986   21.2510 C   0  0  0  0  0  0  0  0  0  0  0  0
  -32.5569  -22.4939   24.1920 C   0  0  0  0  0  0  0  0  0  0  0  0
  -20.9638   -6.7992   22.6055 C   0  0  0  0  0  0  0  0  0  0  0  0
  -19.5558   -6.4932   24.9943 C   0  0  0  0  0  0  0  0  0  0  0  0
  -29.9936  -17.2419   23.4651 C   0  0  0  0  0  0  0  0  0  0  0  0
  -21.2476   -5.7257   23.4497 C   0  0  0  0  0  0  0  0  0  0  0  0
  -24.6013  -11.6595   20.7280 C   0  0  0  0  0  0  0  0  0  0  0  0
  -25.2570  -13.7576   20.6712 C   0  0  0  0  0  0  0  0  0  0  0  0
  -22.9314  -13.4428   21.5320 C   0  0  0  0  0  0  0  0  0  0  0  0
  -31.3586  -27.2002   21.7675 C   0  0  0  0  0  0  0  0  0  0  0  0
  -28.6079  -25.8397   20.7163 C   0  0  0  0  0  0  0  0  0  0  0  0
  -26.5814  -23.0951   20.6311 C   0  0  0  0  0  0  0  0  0  0  0  0
  -30.7264  -14.8008   20.7008 C   0  0  0  0  0  0  0  0  0  0  0  0
  -32.2102  -32.0058   20.2713 C   0  0  0  0  0  0  0  0  0  0  0  0
  -32.2134  -25.0571   20.7515 C   0  0  0  0  0  0  0  0  0  0  0  0
  -29.8764  -24.5866   22.5013 C   0  0  0  0  0  0  0  0  0  0  0  0
  -30.9787  -31.1698   20.6101 C   0  0  0  0  0  0  0  0  0  0  0  0
  -29.5056  -12.6179   18.1667 C   0  0  0  0  0  0  0  0  0  0  0  0
  -31.1749  -30.4436   21.9371 C   0  0  0  0  0  0  0  0  0  0  0  0
  -28.0864  -12.2820   18.6304 C   0  0  0  0  0  0  0  0  0  0  0  0
  -30.4736  -12.7352   19.3428 C   0  0  0  0  0  0  0  0  0  0  0  0
  -28.6307  -13.3193   20.8698 C   0  0  0  0  0  0  0  0  0  0  0  0
  -32.3617  -29.4751   21.8657 C   0  0  1  0  0  0  0  0  0  0  0  0
  -31.0630  -26.0551   20.8406 C   0  0  1  0  0  0  0  0  0  0  0  0
  -27.6062  -13.2548   19.7253 C   0  0  2  0  0  0  0  0  0  0  0  0
  -24.3818  -22.2980   19.7234 C   0  0  0  0  0  0  0  0  0  0  0  0
  -27.1454  -27.4281   22.8722 C   0  0  0  0  0  0  0  0  0  0  0  0
  -25.1776  -25.9129   22.5555 C   0  0  0  0  0  0  0  0  0  0  0  0
  -25.9704  -27.3361   20.6664 C   0  0  0  0  0  0  0  0  0  0  0  0
  -34.1094  -18.8496   25.5781 C   0  0  0  0  0  0  0  0  0  0  0  0
  -27.8791  -20.9667   19.0359 C   0  0  0  0  0  0  0  0  0  0  0  0
  -31.8916  -19.6831   26.3751 C   0  0  0  0  0  0  0  0  0  0  0  0
  -31.4927  -20.9739   25.6797 C   0  0  0  0  0  0  0  0  0  1  0  0
  -27.3455  -25.3357   21.3730 C   0  0  1  0  0  0  0  0  0  0  0  0
  -25.8798  -22.3964   19.4804 C   0  0  2  0  0  0  0  0  0  0  0  0
  -26.4352  -26.4926   21.8735 C   0  0  0  0  0  0  0  0  0  0  0  0
  -25.8461  -11.6080   20.2467 N   0  0  0  0  0  0  0  0  0  0  0  0
  -26.2179  -12.8993   20.2237 N   0  0  0  0  0  0  0  0  0  0  0  0
  -29.8169  -25.4414   21.3041 N   0  0  0  0  0  0  0  0  0  0  0  0
  -29.9551  -13.6765   20.3377 N   0  0  0  0  0  0  0  0  0  0  0  0
  -25.4650  -15.0907   20.7152 N   0  0  0  0  0  0  0  0  0  0  0  0
  -21.9349  -12.5024   21.8264 N   0  0  0  0  0  0  0  0  0  0  0  0
  -30.1169  -15.6421   21.6311 N   0  0  0  0  0  0  0  0  0  0  0  0
  -31.9879  -28.2690   21.1584 N   0  0  0  0  0  0  0  0  0  0  0  0
  -26.7078  -24.4495   20.4053 N   0  0  0  0  0  0  0  0  0  0  0  0
  -32.6497  -18.8427   25.4768 N   0  0  3  0  0  0  0  0  0  0  0  0
  -26.4191  -21.0181   19.3052 N   0  3  0  0  0  0  0  0  0  0  0  0
  -22.6989  -14.6617   21.7160 O   0  0  0  0  0  0  0  0  0  0  0  0
  -31.0380  -27.1206   22.9476 O   0  0  0  0  0  0  0  0  0  0  0  0
  -28.5245  -26.5544   19.7144 O   0  0  0  0  0  0  0  0  0  0  0  0
  -26.9744  -22.4997   21.6318 O   0  0  0  0  0  0  0  0  0  0  0  0
  -31.8336  -15.0169   20.2015 O   0  0  0  0  0  0  0  0  0  0  0  0
  -21.6625   -6.9530   21.4198 O   0  0  0  0  0  0  0  0  0  0  0  0
  -32.6660  -21.6789   25.2764 O   0  0  0  0  0  0  0  0  0  1  0  0
  -18.8807   -6.3472   26.1420 F   0  0  0  0  0  0  0  0  0  0  0  0
  -28.6555  -17.2445   23.3825 F   0  0  0  0  0  0  0  0  0  0  0  0
  -22.1962   -4.8387   23.1191 F   0  0  0  0  0  0  0  0  0  0  0  0
  1  2  1  0  0  0  0
  1  5  2  0  0  0  0
  2  6  2  0  0  0  0
  3 10  2  0  0  0  0
  3 18  1  0  0  0  0
  4 11  1  0  0  0  0
  4 18  2  0  0  0  0
  5 20  1  0  0  0  0
  6 22  1  0  0  0  0
  7 12  2  0  0  0  0
  7 21  1  0  0  0  0
  8  9  2  0  0  0  0
  8 24  1  0  0  0  0
  9 25  1  0  0  0  0
 10 26  1  0  0  0  0
 11 26  2  0  0  0  0
 12 27  1  0  0  0  0
 13 14  2  0  0  0  0
 13 28  1  0  0  0  0
 14 29  1  0  0  0  0
 15 23  1  0  0  0  0
 15 27  2  0  0  0  0
 16 24  2  0  0  0  0
 16 30  1  0  0  0  0
 17 29  2  0  0  0  0
 17 31  1  0  0  0  0
 18 32  1  0  0  0  0
 19 32  1  0  0  0  0
 19 33  2  0  0  0  0
 19 34  1  0  0  0  0
 20 22  2  0  0  0  0
 20 39  1  0  0  0  0
 21 23  2  0  0  0  0
 21 40  1  0  0  0  0
 22 48  1  0  0  0  0
 23 41  1  0  0  0  0
 24 71  1  0  0  0  0
 25 30  2  0  0  0  0
 25 68  1  0  0  0  0
 26 78  1  0  0  0  0
 27 79  1  0  0  0  0
 28 31  2  0  0  0  0
 28 78  1  0  0  0  0
 29 80  1  0  0  0  0
 30 81  1  0  0  0  0
 31 82  1  0  0  0  0
 32 62  2  0  0  0  0
 33 63  1  0  0  0  0
 33 66  1  0  0  0  0
 34 67  1  0  0  0  0
 34 73  2  0  0  0  0
 35 49  1  0  0  0  0
 35 69  1  0  0  0  0
 35 74  2  0  0  0  0
 36 59  1  0  0  0  0
 36 64  1  0  0  0  0
 36 75  2  0  0  0  0
 37 60  1  0  0  0  0
 37 70  1  0  0  0  0
 37 76  2  0  0  0  0
 38 65  1  0  0  0  0
 38 68  1  0  0  0  0
 38 77  2  0  0  0  0
 39 42  1  0  0  0  0
 40 49  1  0  0  0  0
 41 64  1  0  0  0  0
 42 44  1  0  0  0  0
 43 45  1  0  0  0  0
 43 46  1  0  0  0  0
 44 48  1  0  0  0  0
 45 50  1  0  0  0  0
 46 65  1  0  0  0  0
 47 50  1  0  0  0  0
 47 65  1  0  0  0  0
 48 69  1  0  0  0  0
 49 64  1  0  0  0  0
 50 63  1  0  0  0  0
 51 60  1  0  0  0  0
 52 61  1  0  0  0  0
 53 61  1  0  0  0  0
 54 61  1  0  0  0  0
 55 71  1  0  0  0  0
 56 72  1  0  0  0  0
 57 58  1  0  0  0  0
 57 71  1  0  0  0  0
 58 79  1  0  0  0  0
 59 61  1  0  0  0  0
 59 70  1  0  0  0  0
 60 72  1  0  0  0  0
 62 63  1  0  0  0  0
M  CHG  1  72   1
M  ISO  4  38 100  58 101  68 100  79 101
M  END
> <Batch ID>
0007

> <Smiles>
CNC(C)C(=O)NC(C(=O)N1Cc2cc([101O:1][101CH2:1]CN(C)c3ccc([100NH:0][100C:0](=O)N4CCCC(n5nc(-c6ccc(Oc7ccc(F)cc7F)cc6)c(C(N)=O)c5N)C4)c(F)c3)ccc2CC1C(=O)NC1CCCc2ccccc21)C(C)(C)C

> <Shape>
0.212

> <Color>
0.214

> <Negative vol penalty>
0.000

$$$$

  -OEChem-04042320323D

 83 91  0     1  0  0  0  0  0999 V2000
  -24.8347   -5.8771   22.7218 C   0  0  0  0  0  0  0  0  0  0  0  0
  -25.8137   -6.2556   21.8087 C   0  0  0  0  0  0  0  0  0  0  0  0
  -25.6827  -30.3977   21.1936 C   0  0  0  0  0  0  0  0  0  0  0  0
  -23.3355  -30.0703   20.7236 C   0  0  0  0  0  0  0  0  0  0  0  0
  -23.6582   -6.6178   22.8279 C   0  0  0  0  0  0  0  0  0  0  0  0
  -25.6162   -7.3745   21.0002 C   0  0  0  0  0  0  0  0  0  0  0  0
  -30.0238  -13.7672   20.1438 C   0  0  0  0  0  0  0  0  0  0  0  0
  -25.3540  -31.2922   22.2122 C   0  0  0  0  0  0  0  0  0  0  0  0
  -23.0068  -30.9648   21.7422 C   0  0  0  0  0  0  0  0  0  0  0  0
  -30.6381  -15.0140   20.0253 C   0  0  0  0  0  0  0  0  0  0  0  0
  -24.3911  -34.5214   22.4759 C   0  0  0  0  0  0  0  0  0  0  0  0
  -25.1092  -35.7152   22.5458 C   0  0  0  0  0  0  0  0  0  0  0  0
  -28.5186  -16.0135   19.4282 C   0  0  0  0  0  0  0  0  0  0  0  0
  -25.8607  -35.1331   24.7669 C   0  0  0  0  0  0  0  0  0  0  0  0
  -24.6734  -29.7868   20.4493 C   0  0  0  0  0  0  0  0  0  0  0  0
  -25.7823  -29.1283   18.2483 C   0  0  0  0  0  0  0  0  0  0  0  0
  -23.4504   -7.7519   22.0271 C   0  0  0  0  0  0  0  0  0  0  0  0
  -28.6500  -13.6415   19.9197 C   0  0  0  0  0  0  0  0  0  0  0  0
  -24.4352   -8.1302   21.0947 C   0  0  0  0  0  0  0  0  0  0  0  0
  -27.8954  -14.7695   19.5576 C   0  0  0  0  0  0  0  0  0  0  0  0
  -24.0161  -31.5758   22.4865 C   0  0  0  0  0  0  0  0  0  0  0  0
  -29.8874  -16.1343   19.6682 C   0  0  0  0  0  0  0  0  0  0  0  0
  -24.4078  -33.6335   23.5516 C   0  0  0  0  0  0  0  0  0  0  0  0
  -25.8440  -36.0210   23.6912 C   0  0  0  0  0  0  0  0  0  0  0  0
  -25.1426  -33.9394   24.6971 C   0  0  0  0  0  0  0  0  0  0  0  0
  -25.0124  -28.8631   19.3967 C   0  0  0  0  0  0  0  0  0  0  0  0
  -25.8116  -27.9336   17.5712 C   0  0  0  0  0  0  0  0  0  0  0  0
  -28.6784  -22.0503   20.4289 C   0  0  0  0  0  0  0  0  0  0  0  0
  -26.4144  -30.3456   17.8309 C   0  0  0  0  0  0  0  0  0  0  0  0
  -25.6591  -11.3782   19.8275 C   0  0  0  0  0  0  0  0  0  0  0  0
  -24.7455  -14.0102   21.1112 C   0  0  0  0  0  0  0  0  0  0  0  0
  -24.2484  -16.8996   22.8553 C   0  0  0  0  0  0  0  0  0  0  0  0
  -25.2057  -22.2395   19.3208 C   0  0  0  0  0  0  0  0  0  0  0  0
  -22.1423   -8.4933   22.1442 C   0  0  0  0  0  0  0  0  0  0  0  0
  -27.9574  -12.3069   19.9758 C   0  0  0  0  0  0  0  0  0  0  0  0
  -26.4268  -14.5805   19.2923 C   0  0  0  0  0  0  0  0  0  0  0  0
  -22.1719   -9.8839   21.5151 C   0  0  0  0  0  0  0  0  0  0  0  0
  -27.8921  -19.9403   22.3054 C   0  0  0  0  0  0  0  0  0  0  0  0
  -23.2478  -23.9520   16.8896 C   0  0  0  0  0  0  0  0  0  0  0  0
  -22.8141   -9.8307   20.1325 C   0  0  0  0  0  0  0  0  0  0  0  0
  -26.8596  -20.9540   21.8520 C   0  0  0  0  0  0  0  0  0  0  0  0
  -23.5475  -25.4288   17.1528 C   0  0  0  0  0  0  0  0  0  0  0  0
  -29.2463  -20.6146   22.4256 C   0  0  0  0  0  0  0  0  0  0  0  0
  -23.1991  -23.1462   18.1859 C   0  0  0  0  0  0  0  0  0  0  0  0
  -24.6918  -24.7558   19.3061 C   0  0  0  0  0  0  0  0  0  0  0  0
  -24.2684   -9.3522   20.2178 C   0  0  1  0  0  0  0  0  0  0  0  0
  -27.2619  -21.4850   20.4877 C   0  0  1  0  0  0  0  0  0  0  0  0
  -26.5195  -12.3955   20.5177 C   0  0  1  0  0  0  0  0  0  0  0  0
  -24.8063  -25.5988   18.0244 C   0  0  2  0  0  0  0  0  0  0  0  0
  -22.4740  -18.1756   24.0884 C   0  0  0  0  0  0  0  0  0  0  0  0
  -23.5091  -14.8526   18.4531 C   0  0  0  0  0  0  0  0  0  0  0  0
  -22.4383  -16.7779   19.6424 C   0  0  0  0  0  0  0  0  0  0  0  0
  -21.8596  -14.4385   20.2867 C   0  0  0  0  0  0  0  0  0  0  0  0
  -25.7686  -16.7892   25.3921 C   0  0  0  0  0  0  0  0  0  0  0  0
  -31.0061  -21.8690   21.2249 C   0  0  0  0  0  0  0  0  0  0  0  0
  -31.7412  -21.0268   20.1983 C   0  0  0  0  0  0  0  0  0  0  0  0
  -31.8940  -17.4021   19.8231 C   0  0  0  0  0  0  0  0  0  1  0  0
  -32.3762  -18.8301   19.6560 C   0  0  0  0  0  0  0  0  0  0  0  0
  -24.1270  -15.3699   20.9060 C   0  0  1  0  0  0  0  0  0  0  0  0
  -23.6038  -17.1642   24.2039 C   0  0  2  0  0  0  0  0  0  0  0  0
  -23.0117  -15.3562   19.8228 C   0  0  0  0  0  0  0  0  0  0  0  0
  -24.5834  -27.5993   19.4494 N   0  0  0  0  0  0  0  0  0  0  0  0
  -25.0855  -27.0597   18.3257 N   0  0  0  0  0  0  0  0  0  0  0  0
  -29.6098  -21.4570   21.2856 N   0  0  0  0  0  0  0  0  0  0  0  0
  -25.8442  -13.6870   20.3056 N   0  0  0  0  0  0  0  0  0  0  0  0
  -24.4228  -23.3501   18.9650 N   0  0  0  0  0  0  0  0  0  0  0  0
  -26.3873  -27.5560   16.4101 N   0  0  0  0  0  0  0  0  0  0  0  0
  -25.6881  -31.2338   17.0261 N   0  0  0  0  0  0  0  0  0  0  0  0
  -25.1272  -10.4241   20.6739 N   0  0  0  0  0  0  0  0  0  0  0  0
  -23.6780  -15.8167   22.2202 N   0  0  0  0  0  0  0  0  0  0  0  0
  -26.3521  -22.5215   20.0535 N   0  0  0  0  0  0  0  0  0  0  0  0
  -24.6122  -17.6937   25.1650 N   0  3  0  0  0  0  0  0  0  0  0  0
  -28.9749  -22.9043   19.5883 O   0  0  0  0  0  0  0  0  0  0  0  0
  -27.5944  -30.6294   18.1483 O   0  0  0  0  0  0  0  0  0  0  0  0
  -25.4884  -11.4531   18.6164 O   0  0  0  0  0  0  0  0  0  0  0  0
  -24.2662  -13.2512   21.9582 O   0  0  0  0  0  0  0  0  0  0  0  0
  -25.1636  -17.5873   22.4080 O   0  0  0  0  0  0  0  0  0  0  0  0
  -24.9081  -21.0827   19.0039 O   0  0  0  0  0  0  0  0  0  0  0  0
  -23.6950  -32.4484   23.4805 O   0  0  0  0  0  0  0  0  0  0  0  0
  -30.4927  -17.3494   19.5587 O   0  0  0  0  0  0  0  0  0  1  0  0
  -31.6982  -19.6617   20.5898 O   0  0  0  0  0  0  0  0  0  0  0  0
  -26.5348  -37.1667   23.7575 F   0  0  0  0  0  0  0  0  0  0  0  0
  -25.1634  -33.0898   25.7332 F   0  0  0  0  0  0  0  0  0  0  0  0
  1  2  1  0  0  0  0
  1  5  2  0  0  0  0
  2  6  2  0  0  0  0
  3  8  2  0  0  0  0
  3 15  1  0  0  0  0
  4  9  1  0  0  0  0
  4 15  2  0  0  0  0
  5 17  1  0  0  0  0
  6 19  1  0  0  0  0
  7 10  2  0  0  0  0
  7 18  1  0  0  0  0
  8 21  1  0  0  0  0
  9 21  2  0  0  0  0
 10 22  1  0  0  0  0
 11 12  2  0  0  0  0
 11 23  1  0  0  0  0
 12 24  1  0  0  0  0
 13 20  1  0  0  0  0
 13 22  2  0  0  0  0
 14 24  2  0  0  0  0
 14 25  1  0  0  0  0
 15 26  1  0  0  0  0
 16 26  1  0  0  0  0
 16 27  2  0  0  0  0
 16 29  1  0  0  0  0
 17 19  2  0  0  0  0
 17 34  1  0  0  0  0
 18 20  2  0  0  0  0
 18 35  1  0  0  0  0
 19 46  1  0  0  0  0
 20 36  1  0  0  0  0
 21 79  1  0  0  0  0
 22 80  1  0  0  0  0
 23 25  2  0  0  0  0
 23 79  1  0  0  0  0
 24 82  1  0  0  0  0
 25 83  1  0  0  0  0
 26 62  2  0  0  0  0
 27 63  1  0  0  0  0
 27 67  1  0  0  0  0
 28 47  1  0  0  0  0
 28 64  1  0  0  0  0
 28 73  2  0  0  0  0
 29 68  1  0  0  0  0
 29 74  2  0  0  0  0
 30 48  1  0  0  0  0
 30 69  1  0  0  0  0
 30 75  2  0  0  0  0
 31 59  1  0  0  0  0
 31 65  1  0  0  0  0
 31 76  2  0  0  0  0
 32 60  1  0  0  0  0
 32 70  1  0  0  0  0
 32 77  2  0  0  0  0
 33 66  1  0  0  0  0
 33 71  1  0  0  0  0
 33 78  2  0  0  0  0
 34 37  1  0  0  0  0
 35 48  1  0  0  0  0
 36 65  1  0  0  0  0
 37 40  1  0  0  0  0
 38 41  1  0  0  0  0
 38 43  1  0  0  0  0
 39 42  1  0  0  0  0
 39 44  1  0  0  0  0
 40 46  1  0  0  0  0
 41 47  1  0  0  0  0
 42 49  1  0  0  0  0
 43 64  1  0  0  0  0
 44 66  1  0  0  0  0
 45 49  1  0  0  0  0
 45 66  1  0  0  0  0
 46 69  1  0  0  0  0
 47 71  1  0  0  0  0
 48 65  1  0  0  0  0
 49 63  1  0  0  0  0
 50 60  1  0  0  0  0
 51 61  1  0  0  0  0
 52 61  1  0  0  0  0
 53 61  1  0  0  0  0
 54 72  1  0  0  0  0
 55 56  1  0  0  0  0
 55 64  1  0  0  0  0
 56 81  1  0  0  0  0
 57 58  1  0  0  0  0
 57 80  1  0  0  0  0
 58 81  1  0  0  0  0
 59 61  1  0  0  0  0
 59 70  1  0  0  0  0
 60 72  1  0  0  0  0
 62 63  1  0  0  0  0
M  CHG  1  72   1
M  ISO  4  33 100  57 101  71 100  80 101
M  END
> <Batch ID>
0007

> <Smiles>
CNC(C)C(=O)NC(C(=O)N1Cc2cc([101O:1][101CH2:1]COCCN3CCCC([100NH:0][100C:0](=O)N4CCCC(n5nc(-c6ccc(Oc7ccc(F)cc7F)cc6)c(C(N)=O)c5N)C4)C3=O)ccc2CC1C(=O)NC1CCCc2ccccc21)C(C)(C)C

> <Shape>
0.248

> <Color>
0.070

> <Negative vol penalty>
0.000

$$$$

  -OEChem-04042320323D

 84 92  0     1  0  0  0  0  0999 V2000
  -32.0630  -33.0539   23.4007 C   0  0  0  0  0  0  0  0  0  0  0  0
  -31.6714  -31.9881   22.5969 C   0  0  0  0  0  0  0  0  0  0  0  0
  -24.5217   -9.2512   21.3587 C   0  0  0  0  0  0  0  0  0  0  0  0
  -22.6421  -10.6612   20.7966 C   0  0  0  0  0  0  0  0  0  0  0  0
  -31.3277  -33.3720   24.5418 C   0  0  0  0  0  0  0  0  0  0  0  0
  -30.5448  -31.2389   22.9344 C   0  0  0  0  0  0  0  0  0  0  0  0
  -26.5509  -28.6548   19.0773 C   0  0  0  0  0  0  0  0  0  0  0  0
  -23.6658   -8.1557   21.4726 C   0  0  0  0  0  0  0  0  0  0  0  0
  -21.7862   -9.5657   20.9105 C   0  0  0  0  0  0  0  0  0  0  0  0
  -26.4212  -27.3535   18.5941 C   0  0  0  0  0  0  0  0  0  0  0  0
  -21.4876   -6.9229   23.7442 C   0  0  0  0  0  0  0  0  0  0  0  0
  -21.6514   -6.0854   24.8475 C   0  0  0  0  0  0  0  0  0  0  0  0
  -24.7900  -26.8860   20.3087 C   0  0  0  0  0  0  0  0  0  0  0  0
  -22.0899   -4.2247   23.3701 C   0  0  0  0  0  0  0  0  0  0  0  0
  -24.0099  -10.5040   21.0207 C   0  0  0  0  0  0  0  0  0  0  0  0
  -25.5667  -12.0728   19.7467 C   0  0  0  0  0  0  0  0  0  0  0  0
  -30.1859  -32.6324   24.8882 C   0  0  0  0  0  0  0  0  0  0  0  0
  -25.8080  -29.0789   20.1884 C   0  0  0  0  0  0  0  0  0  0  0  0
  -29.7943  -31.5466   24.0820 C   0  0  0  0  0  0  0  0  0  0  0  0
  -24.9103  -28.1940   20.8024 C   0  0  0  0  0  0  0  0  0  0  0  0
  -22.2981   -8.3130   21.2485 C   0  0  0  0  0  0  0  0  0  0  0  0
  -25.5428  -26.4679   19.2116 C   0  0  0  0  0  0  0  0  0  0  0  0
  -21.6249   -6.4113   22.4537 C   0  0  0  0  0  0  0  0  0  0  0  0
  -21.9526   -4.7364   24.6605 C   0  0  0  0  0  0  0  0  0  0  0  0
  -21.9260   -5.0622   22.2667 C   0  0  0  0  0  0  0  0  0  0  0  0
  -24.8934  -11.6361   20.9034 C   0  0  0  0  0  0  0  0  0  0  0  0
  -26.2720  -13.1778   20.1566 C   0  0  0  0  0  0  0  0  0  0  0  0
  -26.5554  -19.7182   19.6484 C   0  0  0  0  0  0  0  0  0  0  0  0
  -25.5554  -11.5283   18.4204 C   0  0  0  0  0  0  0  0  0  0  0  0
  -26.5288  -30.1210   23.1035 C   0  0  0  0  0  0  0  0  0  0  0  0
  -23.3313  -30.6362   23.2866 C   0  0  0  0  0  0  0  0  0  0  0  0
  -20.2016  -29.8476   22.1778 C   0  0  0  0  0  0  0  0  0  0  0  0
  -26.5819  -17.9825   22.9785 C   0  0  0  0  0  0  0  0  0  0  0  0
  -29.4504  -32.9843   26.1569 C   0  0  0  0  0  0  0  0  0  0  0  0
  -25.9396  -30.4941   20.6808 C   0  0  0  0  0  0  0  0  0  0  0  0
  -24.0747  -28.6062   21.9858 C   0  0  0  0  0  0  0  0  0  0  0  0
  -28.0532  -32.3751   26.2400 C   0  0  0  0  0  0  0  0  0  0  0  0
  -27.1649  -14.9784   24.7984 C   0  0  0  0  0  0  0  0  0  0  0  0
  -28.0894  -30.9011   25.8491 C   0  0  0  0  0  0  0  0  0  0  0  0
  -26.6759  -13.8783   23.8547 C   0  0  0  0  0  0  0  0  0  0  0  0
  -28.3163  -19.9245   21.2505 C   0  0  0  0  0  0  0  0  0  0  0  0
  -26.2947  -16.2298   24.7054 C   0  0  0  0  0  0  0  0  0  0  0  0
  -28.5749  -20.8718   20.0928 C   0  0  0  0  0  0  0  0  0  0  0  0
  -25.6361  -15.6662   22.3984 C   0  0  0  0  0  0  0  0  0  0  0  0
  -28.5637  -30.7257   24.4014 C   0  0  1  0  0  0  0  0  0  0  0  0
  -26.8237  -19.6284   21.1368 C   0  0  2  0  0  0  0  0  0  0  0  0
  -25.5143  -30.6623   22.1362 C   0  0  1  0  0  0  0  0  0  0  0  0
  -26.5157  -14.4043   22.4157 C   0  0  2  0  0  0  0  0  0  0  0  0
  -17.7830  -30.4087   22.5426 C   0  0  0  0  0  0  0  0  0  0  0  0
  -23.3399  -28.9913   25.8565 C   0  0  0  0  0  0  0  0  0  0  0  0
  -20.8533  -28.7853   25.6506 C   0  0  0  0  0  0  0  0  0  0  0  0
  -21.8980  -31.0333   25.9297 C   0  0  0  0  0  0  0  0  0  0  0  0
  -19.8807  -30.7933   19.3918 C   0  0  0  0  0  0  0  0  0  0  0  0
  -26.5237  -23.1000   18.2874 C   0  0  0  0  0  0  0  0  0  0  0  0
  -27.7357  -22.4342   17.6318 C   0  0  0  0  0  0  0  0  0  0  0  0
  -26.5612  -24.6144   18.1238 C   0  0  0  0  0  0  0  0  0  1  0  0
  -22.1402  -29.8191   23.7254 C   0  0  1  0  0  0  0  0  0  0  0  0
  -19.0379  -30.7197   21.7419 C   0  0  2  0  0  0  0  0  0  0  0  0
  -27.6910  -20.9030   17.7292 C   0  0  1  0  0  0  0  0  0  0  0  0
  -28.9160  -20.2807   17.0735 C   0  0  0  0  0  0  0  0  0  0  0  0
  -22.0749  -29.6486   25.2695 C   0  0  0  0  0  0  0  0  0  0  0  0
  -25.1483  -12.4012   21.9682 N   0  0  0  0  0  0  0  0  0  0  0  0
  -25.9896  -13.3297   21.4822 N   0  0  0  0  0  0  0  0  0  0  0  0
  -27.5982  -20.4696   19.1065 N   0  0  0  0  0  0  0  0  0  0  0  0
  -24.2436  -29.9983   22.4341 N   0  0  0  0  0  0  0  0  0  0  0  0
  -26.1845  -16.6780   23.3151 N   0  0  0  0  0  0  0  0  0  0  0  0
  -27.1001  -14.0245   19.5087 N   0  0  0  0  0  0  0  0  0  0  0  0
  -24.7766  -10.3898   18.1722 N   0  0  0  0  0  0  0  0  0  0  0  0
  -27.4936  -31.0367   23.4779 N   0  0  0  0  0  0  0  0  0  0  0  0
  -20.9670  -30.4636   23.1452 N   0  0  0  0  0  0  0  0  0  0  0  0
  -26.4507  -18.3244   21.6382 N   0  0  0  0  0  0  0  0  0  0  0  0
  -18.7401  -30.5022   20.2980 N   0  3  0  0  0  0  0  0  0  0  0  0
  -25.5797  -19.2604   19.0728 O   0  0  0  0  0  0  0  0  0  0  0  0
  -26.2294  -12.0266   17.4871 O   0  0  0  0  0  0  0  0  0  0  0  0
  -26.4416  -28.9592   23.4834 O   0  0  0  0  0  0  0  0  0  0  0  0
  -23.4443  -31.7999   23.6798 O   0  0  0  0  0  0  0  0  0  0  0  0
  -20.4085  -28.7302   21.7097 O   0  0  0  0  0  0  0  0  0  0  0  0
  -27.0262  -18.7815   23.8100 O   0  0  0  0  0  0  0  0  0  0  0  0
  -21.4627   -7.2442   21.3594 O   0  0  0  0  0  0  0  0  0  0  0  0
  -25.4148  -25.1970   18.7425 O   0  0  0  0  0  0  0  0  0  1  0  0
  -22.1114   -3.9326   25.7202 F   0  0  0  0  0  0  0  0  0  0  0  0
  -22.0603   -4.5652   21.0295 F   0  0  0  0  0  0  0  0  0  0  0  0
  -28.9559  -20.6132   15.7586 F   0  0  0  0  0  0  0  0  0  0  0  0
  -28.8502  -18.9276   17.1358 F   0  0  0  0  0  0  0  0  0  0  0  0
  1  2  1  0  0  0  0
  1  5  2  0  0  0  0
  2  6  2  0  0  0  0
  3  8  2  0  0  0  0
  3 15  1  0  0  0  0
  4  9  1  0  0  0  0
  4 15  2  0  0  0  0
  5 17  1  0  0  0  0
  6 19  1  0  0  0  0
  7 10  2  0  0  0  0
  7 18  1  0  0  0  0
  8 21  1  0  0  0  0
  9 21  2  0  0  0  0
 10 22  1  0  0  0  0
 11 12  2  0  0  0  0
 11 23  1  0  0  0  0
 12 24  1  0  0  0  0
 13 20  1  0  0  0  0
 13 22  2  0  0  0  0
 14 24  2  0  0  0  0
 14 25  1  0  0  0  0
 15 26  1  0  0  0  0
 16 26  1  0  0  0  0
 16 27  2  0  0  0  0
 16 29  1  0  0  0  0
 17 19  2  0  0  0  0
 17 34  1  0  0  0  0
 18 20  2  0  0  0  0
 18 35  1  0  0  0  0
 19 45  1  0  0  0  0
 20 36  1  0  0  0  0
 21 79  1  0  0  0  0
 22 80  1  0  0  0  0
 23 25  2  0  0  0  0
 23 79  1  0  0  0  0
 24 81  1  0  0  0  0
 25 82  1  0  0  0  0
 26 62  2  0  0  0  0
 27 63  1  0  0  0  0
 27 67  1  0  0  0  0
 28 46  1  0  0  0  0
 28 64  1  0  0  0  0
 28 73  2  0  0  0  0
 29 68  1  0  0  0  0
 29 74  2  0  0  0  0
 30 47  1  0  0  0  0
 30 69  1  0  0  0  0
 30 75  2  0  0  0  0
 31 57  1  0  0  0  0
 31 65  1  0  0  0  0
 31 76  2  0  0  0  0
 32 58  1  0  0  0  0
 32 70  1  0  0  0  0
 32 77  2  0  0  0  0
 33 66  1  0  0  0  0
 33 71  1  0  0  0  0
 33 78  2  0  0  0  0
 34 37  1  0  0  0  0
 35 47  1  0  0  0  0
 36 65  1  0  0  0  0
 37 39  1  0  0  0  0
 38 40  1  0  0  0  0
 38 42  1  0  0  0  0
 39 45  1  0  0  0  0
 40 48  1  0  0  0  0
 41 43  1  0  0  0  0
 41 46  1  0  0  0  0
 42 66  1  0  0  0  0
 43 64  1  0  0  0  0
 44 48  1  0  0  0  0
 44 66  1  0  0  0  0
 45 69  1  0  0  0  0
 46 71  1  0  0  0  0
 47 65  1  0  0  0  0
 48 63  1  0  0  0  0
 49 58  1  0  0  0  0
 50 61  1  0  0  0  0
 51 61  1  0  0  0  0
 52 61  1  0  0  0  0
 53 72  1  0  0  0  0
 54 55  1  0  0  0  0
 54 56  1  0  0  0  0
 55 59  1  0  0  0  0
 56 80  1  0  0  0  0
 57 61  1  0  0  0  0
 57 70  1  0  0  0  0
 58 72  1  0  0  0  0
 59 60  1  0  0  0  0
 59 64  1  0  0  0  0
 60 83  1  0  0  0  0
 60 84  1  0  0  0  0
 62 63  1  0  0  0  0
M  CHG  1  72   1
M  ISO  4  33 100  56 101  71 100  80 101
M  END
> <Batch ID>
0007

> <Smiles>
CNC(C)C(=O)NC(C(=O)N1Cc2cc([101O:1][101CH2:1]CCC(C(F)F)N3CCC([100NH:0][100C:0](=O)N4CCCC(n5nc(-c6ccc(Oc7ccc(F)cc7F)cc6)c(C(N)=O)c5N)C4)C3=O)ccc2CC1C(=O)NC1CCCc2ccccc21)C(C)(C)C

> <Shape>
0.249

> <Color>
0.116

> <Negative vol penalty>
0.000

$$$$

  -OEChem-04042320323D

 81 90  0     1  0  0  0  0  0999 V2000
  -17.2089  -24.3991   23.1747 C   0  0  0  0  0  0  0  0  0  0  0  0
  -18.3301  -23.8347   22.5748 C   0  0  0  0  0  0  0  0  0  0  0  0
  -23.9307  -14.1001   21.2472 C   0  0  0  0  0  0  0  0  0  0  0  0
  -26.2374  -14.1403   20.5297 C   0  0  0  0  0  0  0  0  0  0  0  0
  -17.1194  -25.7829   23.3195 C   0  0  0  0  0  0  0  0  0  0  0  0
  -19.3620  -24.6540   22.1183 C   0  0  0  0  0  0  0  0  0  0  0  0
  -26.0757  -23.9032   24.6191 C   0  0  0  0  0  0  0  0  0  0  0  0
  -23.7951  -12.8083   20.7389 C   0  0  0  0  0  0  0  0  0  0  0  0
  -26.1018  -12.8484   20.0214 C   0  0  0  0  0  0  0  0  0  0  0  0
  -27.4258  -23.6829   24.8924 C   0  0  0  0  0  0  0  0  0  0  0  0
  -22.9440   -9.3628   19.9521 C   0  0  0  0  0  0  0  0  0  0  0  0
  -22.2914   -8.4190   20.7452 C   0  0  0  0  0  0  0  0  0  0  0  0
  -28.0244  -25.5835   23.5223 C   0  0  0  0  0  0  0  0  0  0  0  0
  -23.9553   -8.7187   22.4711 C   0  0  0  0  0  0  0  0  0  0  0  0
  -25.1519  -14.7662   21.1425 C   0  0  0  0  0  0  0  0  0  0  0  0
  -25.1128  -16.5135   23.0007 C   0  0  0  0  0  0  0  0  0  0  0  0
  -18.1550  -26.6189   22.8732 C   0  0  0  0  0  0  0  0  0  0  0  0
  -25.6933  -24.9751   23.8078 C   0  0  0  0  0  0  0  0  0  0  0  0
  -19.2856  -26.0504   22.2560 C   0  0  0  0  0  0  0  0  0  0  0  0
  -26.6727  -25.8167   23.2551 C   0  0  0  0  0  0  0  0  0  0  0  0
  -24.8806  -12.1824   20.1261 C   0  0  0  0  0  0  0  0  0  0  0  0
  -28.3977  -24.5208   24.3452 C   0  0  0  0  0  0  0  0  0  0  0  0
  -24.1024   -9.9844   20.4185 C   0  0  0  0  0  0  0  0  0  0  0  0
  -22.7970   -8.0970   22.0047 C   0  0  0  0  0  0  0  0  0  0  0  0
  -24.6080   -9.6624   21.6779 C   0  0  0  0  0  0  0  0  0  0  0  0
  -25.2924  -16.1009   21.6669 C   0  0  0  0  0  0  0  0  0  0  0  0
  -25.3604  -17.8643   22.9786 C   0  0  0  0  0  0  0  0  0  0  0  0
  -24.7541  -15.7445   24.1565 C   0  0  0  0  0  0  0  0  0  0  0  0
  -22.8842  -26.8878   22.2183 C   0  0  0  0  0  0  0  0  0  0  0  0
  -24.9245  -28.9557   23.2041 C   0  0  0  0  0  0  0  0  0  0  0  0
  -26.5080  -31.7381   24.3822 C   0  0  0  0  0  0  0  0  0  0  0  0
  -28.5922  -21.3581   19.3455 C   0  0  0  0  0  0  0  0  0  0  0  0
  -17.9920  -28.1121   23.0088 C   0  0  0  0  0  0  0  0  0  0  0  0
  -24.2548  -25.2134   23.4367 C   0  0  0  0  0  0  0  0  0  0  0  0
  -26.2171  -26.9365   22.3600 C   0  0  0  0  0  0  0  0  0  0  0  0
  -19.2969  -28.8854   22.8367 C   0  0  0  0  0  0  0  0  0  0  0  0
  -25.1234  -21.6677   20.0858 C   0  0  0  0  0  0  0  0  0  0  0  0
  -20.0585  -28.3821   21.6146 C   0  0  0  0  0  0  0  0  0  0  0  0
  -24.7571  -20.3133   20.6953 C   0  0  0  0  0  0  0  0  0  0  0  0
  -26.1500  -21.5230   18.9646 C   0  0  0  0  0  0  0  0  0  0  0  0
  -27.0053  -19.4296   19.9445 C   0  0  0  0  0  0  0  0  0  0  0  0
  -32.9867  -20.6042   21.1546 C   0  0  0  0  0  0  0  0  0  0  0  0
  -32.9728  -22.8881   22.3009 C   0  0  0  0  0  0  0  0  0  0  0  0
  -30.6287  -22.2162   22.0800 C   0  0  0  0  0  0  0  0  0  0  0  0
  -20.4368  -26.9042   21.7704 C   0  0  1  0  0  0  0  0  0  0  0  0
  -23.9056  -26.7065   23.3024 C   0  0  1  0  0  0  0  0  0  0  0  0
  -32.7606  -22.1059   21.0140 C   0  0  2  0  0  0  0  0  0  0  0  0
  -31.2754  -22.2331   20.7029 C   0  0  1  0  0  0  0  0  0  0  0  0
  -26.0147  -19.5298   21.1171 C   0  0  2  0  0  0  0  0  0  0  0  0
  -30.9974  -21.0437   19.7995 C   0  0  2  0  0  0  0  0  0  0  0  0
  -26.7893  -34.1885   23.9203 C   0  0  0  0  0  0  0  0  0  0  0  0
  -26.7974  -28.3002   20.8875 C   0  0  0  0  0  0  0  0  0  0  0  0
  -27.7480  -30.6069   21.0964 C   0  0  0  0  0  0  0  0  0  0  0  0
  -25.3409  -30.2994   20.5184 C   0  0  0  0  0  0  0  0  0  0  0  0
  -25.3617  -32.4829   27.0071 C   0  0  0  0  0  0  0  0  0  0  0  0
  -31.5270  -22.7424   24.3751 C   0  0  0  0  0  0  0  0  0  0  0  0
  -30.1095  -22.9545   24.8687 C   0  0  0  0  0  0  0  0  0  1  0  0
  -26.1230  -29.8080   22.8719 C   0  0  1  0  0  0  0  0  0  0  0  0
  -25.9986  -33.1363   24.6820 C   0  0  2  0  0  0  0  0  0  0  0  0
  -26.5024  -29.7359   21.3658 C   0  0  0  0  0  0  0  0  0  0  0  0
  -25.6282  -17.1080   20.8563 N   0  0  0  0  0  0  0  0  0  0  0  0
  -25.6613  -18.1669   21.6832 N   0  0  0  0  0  0  0  0  0  0  0  0
  -25.0279  -27.5858   22.9332 N   0  0  0  0  0  0  0  0  0  0  0  0
  -27.3185  -20.7721   19.4303 N   0  0  0  0  0  0  0  0  0  0  0  0
  -25.3479  -18.8108   23.9411 N   0  0  0  0  0  0  0  0  0  0  0  0
  -25.7788  -15.1714   24.9220 N   0  0  0  0  0  0  0  0  0  0  0  0
  -21.5774  -26.7645   22.6501 N   0  0  0  0  0  0  0  0  0  0  0  0
  -25.8120  -31.1522   23.3460 N   0  0  0  0  0  0  0  0  0  0  0  0
  -29.6443  -20.5811   19.8145 N   0  0  0  0  0  0  0  0  0  0  0  0
  -31.9378  -19.9767   20.2807 N   0  3  0  0  0  0  0  0  0  0  0  0
  -31.5888  -23.0367   22.9113 N   0  3  1  0  0  0  0  0  0  0  0  0
  -26.1113  -33.4273   26.1393 N   0  3  0  0  0  0  0  0  0  0  0  0
  -23.5597  -15.5570   24.4908 O   0  0  0  0  0  0  0  0  0  0  0  0
  -23.2533  -27.1239   21.0738 O   0  0  0  0  0  0  0  0  0  0  0  0
  -23.9205  -29.4881   23.6854 O   0  0  0  0  0  0  0  0  0  0  0  0
  -27.4334  -31.2190   25.0025 O   0  0  0  0  0  0  0  0  0  0  0  0
  -28.7774  -22.4921   18.8907 O   0  0  0  0  0  0  0  0  0  0  0  0
  -24.7487  -10.9218   19.6302 O   0  0  0  0  0  0  0  0  0  0  0  0
  -29.7137  -24.3027   24.6197 O   0  0  0  0  0  0  0  0  0  1  0  0
  -22.1693   -7.1919   22.7668 F   0  0  0  0  0  0  0  0  0  0  0  0
  -25.7197  -10.2572   22.1318 F   0  0  0  0  0  0  0  0  0  0  0  0
  1  2  1  0  0  0  0
  1  5  2  0  0  0  0
  2  6  2  0  0  0  0
  3  8  2  0  0  0  0
  3 15  1  0  0  0  0
  4  9  1  0  0  0  0
  4 15  2  0  0  0  0
  5 17  1  0  0  0  0
  6 19  1  0  0  0  0
  7 10  2  0  0  0  0
  7 18  1  0  0  0  0
  8 21  1  0  0  0  0
  9 21  2  0  0  0  0
 10 22  1  0  0  0  0
 11 12  2  0  0  0  0
 11 23  1  0  0  0  0
 12 24  1  0  0  0  0
 13 20  1  0  0  0  0
 13 22  2  0  0  0  0
 14 24  2  0  0  0  0
 14 25  1  0  0  0  0
 15 26  1  0  0  0  0
 16 26  1  0  0  0  0
 16 27  2  0  0  0  0
 16 28  1  0  0  0  0
 17 19  2  0  0  0  0
 17 33  1  0  0  0  0
 18 20  2  0  0  0  0
 18 34  1  0  0  0  0
 19 45  1  0  0  0  0
 20 35  1  0  0  0  0
 21 78  1  0  0  0  0
 22 79  1  0  0  0  0
 23 25  2  0  0  0  0
 23 78  1  0  0  0  0
 24 80  1  0  0  0  0
 25 81  1  0  0  0  0
 26 61  2  0  0  0  0
 27 62  1  0  0  0  0
 27 65  1  0  0  0  0
 28 66  1  0  0  0  0
 28 73  2  0  0  0  0
 29 46  1  0  0  0  0
 29 67  1  0  0  0  0
 29 74  2  0  0  0  0
 30 58  1  0  0  0  0
 30 63  1  0  0  0  0
 30 75  2  0  0  0  0
 31 59  1  0  0  0  0
 31 68  1  0  0  0  0
 31 76  2  0  0  0  0
 32 64  1  0  0  0  0
 32 69  1  0  0  0  0
 32 77  2  0  0  0  0
 33 36  1  0  0  0  0
 34 46  1  0  0  0  0
 35 63  1  0  0  0  0
 36 38  1  0  0  0  0
 37 39  1  0  0  0  0
 37 40  1  0  0  0  0
 38 45  1  0  0  0  0
 39 49  1  0  0  0  0
 40 64  1  0  0  0  0
 41 49  1  0  0  0  0
 41 64  1  0  0  0  0
 42 47  1  0  0  0  0
 42 70  1  0  0  0  0
 43 47  1  0  0  0  0
 43 71  1  0  0  0  0
 44 48  1  0  0  0  0
 44 71  1  0  0  0  0
 45 67  1  0  0  0  0
 46 63  1  0  0  0  0
 47 48  1  0  0  0  0
 48 50  1  0  0  0  0
 49 62  1  0  0  0  0
 50 69  1  0  0  0  0
 50 70  1  0  0  0  0
 51 59  1  0  0  0  0
 52 60  1  0  0  0  0
 53 60  1  0  0  0  0
 54 60  1  0  0  0  0
 55 72  1  0  0  0  0
 56 57  1  0  0  0  0
 56 71  1  0  0  0  0
 57 79  1  0  0  0  0
 58 60  1  0  0  0  0
 58 68  1  0  0  0  0
 59 72  1  0  0  0  0
 61 62  1  0  0  0  0
M  CHG  3  70   1  71   1  72   1
M  ISO  4  32 100  57 101  69 100  79 101
M  END
> <Batch ID>
0007

> <Smiles>
CNC(C)C(=O)NC(C(=O)N1Cc2cc([101O:1][101CH2:1]CN3CC4CNC([100NH:0][100C:0](=O)N5CCCC(n6nc(-c7ccc(Oc8ccc(F)cc8F)cc7)c(C(N)=O)c6N)C5)C4C3)ccc2CC1C(=O)NC1CCCc2ccccc21)C(C)(C)C

> <Shape>
0.229

> <Color>
0.064

> <Negative vol penalty>
0.000

$$$$

  -OEChem-04042320323D

 82 90  0     1  0  0  0  0  0999 V2000
  -17.4720  -30.8956   24.2232 C   0  0  0  0  0  0  0  0  0  0  0  0
  -18.8413  -31.1410   24.2371 C   0  0  0  0  0  0  0  0  0  0  0  0
  -27.7513  -21.7644   23.7748 C   0  0  0  0  0  0  0  0  0  0  0  0
  -24.6284  -12.3079   19.6558 C   0  0  0  0  0  0  0  0  0  0  0  0
  -25.4403  -13.1353   21.7755 C   0  0  0  0  0  0  0  0  0  0  0  0
  -28.5022  -22.7821   23.1868 C   0  0  0  0  0  0  0  0  0  0  0  0
  -16.9851  -29.6967   23.7041 C   0  0  0  0  0  0  0  0  0  0  0  0
  -19.7246  -30.1871   23.7328 C   0  0  0  0  0  0  0  0  0  0  0  0
  -26.0037  -29.6403   20.3284 C   0  0  0  0  0  0  0  0  0  0  0  0
  -26.8221  -21.0546   23.0142 C   0  0  0  0  0  0  0  0  0  0  0  0
  -25.4268  -11.1725   19.7931 C   0  0  0  0  0  0  0  0  0  0  0  0
  -26.2387  -11.9998   21.9129 C   0  0  0  0  0  0  0  0  0  0  0  0
  -27.2371  -29.0000   20.4398 C   0  0  0  0  0  0  0  0  0  0  0  0
  -26.9786   -7.8852   19.7566 C   0  0  0  0  0  0  0  0  0  0  0  0
  -26.4037   -6.6488   19.4629 C   0  0  0  0  0  0  0  0  0  0  0  0
  -27.3945  -22.3806   21.0775 C   0  0  0  0  0  0  0  0  0  0  0  0
  -26.2768  -26.9987   19.4954 C   0  0  0  0  0  0  0  0  0  0  0  0
  -24.7508   -7.0074   21.1881 C   0  0  0  0  0  0  0  0  0  0  0  0
  -24.6352  -13.2893   20.6470 C   0  0  0  0  0  0  0  0  0  0  0  0
  -28.3238  -23.0903   21.8381 C   0  0  0  0  0  0  0  0  0  0  0  0
  -22.4852  -14.6289   20.9486 C   0  0  0  0  0  0  0  0  0  0  0  0
  -17.8622  -28.7317   23.1843 C   0  0  0  0  0  0  0  0  0  0  0  0
  -24.8930  -28.9600   19.8089 C   0  0  0  0  0  0  0  0  0  0  0  0
  -19.2491  -28.9736   23.2075 C   0  0  0  0  0  0  0  0  0  0  0  0
  -25.0310  -27.6335   19.3761 C   0  0  0  0  0  0  0  0  0  0  0  0
  -26.6437  -21.3627   21.6656 C   0  0  0  0  0  0  0  0  0  0  0  0
  -26.2320  -11.0184   20.9216 C   0  0  0  0  0  0  0  0  0  0  0  0
  -27.3731  -27.6781   20.0260 C   0  0  0  0  0  0  0  0  0  0  0  0
  -26.4396   -8.6828   20.7662 C   0  0  0  0  0  0  0  0  0  0  0  0
  -25.2898   -6.2099   20.1786 C   0  0  0  0  0  0  0  0  0  0  0  0
  -25.3257   -8.2439   21.4819 C   0  0  0  0  0  0  0  0  0  0  0  0
  -23.8110  -14.4627   20.5054 C   0  0  0  0  0  0  0  0  0  0  0  0
  -22.1565  -15.9093   20.5757 C   0  0  0  0  0  0  0  0  0  0  0  0
  -29.1243  -24.1746   21.2131 C   0  0  0  0  0  0  0  0  0  0  0  0
  -21.6276  -13.7082   21.6359 C   0  0  0  0  0  0  0  0  0  0  0  0
  -22.0415  -28.1278   20.9404 C   0  0  0  0  0  0  0  0  0  0  0  0
  -21.5408  -27.1684   17.8825 C   0  0  0  0  0  0  0  0  0  0  0  0
  -22.8735  -26.1454   14.9119 C   0  0  0  0  0  0  0  0  0  0  0  0
  -25.3999  -20.8204   19.5430 C   0  0  0  0  0  0  0  0  0  0  0  0
  -17.2922  -27.4308   22.6770 C   0  0  0  0  0  0  0  0  0  0  0  0
  -23.5760  -29.6733   19.6705 C   0  0  0  0  0  0  0  0  0  0  0  0
  -23.8743  -26.8653   18.7926 C   0  0  0  0  0  0  0  0  0  0  0  0
  -18.2694  -26.6311   21.8192 C   0  0  0  0  0  0  0  0  0  0  0  0
  -23.1702  -19.2245   17.2718 C   0  0  0  0  0  0  0  0  0  0  0  0
  -19.6398  -26.5709   22.4863 C   0  0  0  0  0  0  0  0  0  0  0  0
  -22.9560  -17.8396   17.8868 C   0  0  0  0  0  0  0  0  0  0  0  0
  -24.6040  -19.7151   17.4646 C   0  0  0  0  0  0  0  0  0  0  0  0
  -24.8740  -18.3038   19.4657 C   0  0  0  0  0  0  0  0  0  0  0  0
  -20.2373  -27.9740   22.6469 C   0  0  1  0  0  0  0  0  0  0  0  0
  -22.3853  -28.7219   19.6038 C   0  0  1  0  0  0  0  0  0  0  0  0
  -23.4274  -17.7953   19.3535 C   0  0  2  0  0  0  0  0  0  0  0  0
  -22.2121  -25.3961   12.6101 C   0  0  0  0  0  0  0  0  0  0  0  0
  -20.7519  -24.4409   18.9996 C   0  0  0  0  0  0  0  0  0  0  0  0
  -21.0286  -23.4957   16.6978 C   0  0  0  0  0  0  0  0  0  0  0  0
  -19.3129  -25.2557   17.1235 C   0  0  0  0  0  0  0  0  0  0  0  0
  -24.2917  -28.4109   13.6410 C   0  0  0  0  0  0  0  0  0  0  0  0
  -30.3257  -26.3094   21.6070 C   0  0  0  0  0  0  0  0  0  0  0  0
  -29.4319  -27.4664   21.1975 C   0  0  0  0  0  0  0  0  0  1  0  0
  -21.7608  -25.8877   17.1142 C   0  0  1  0  0  0  0  0  0  0  0  0
  -22.6009  -26.5792   13.4830 C   0  0  2  0  0  0  0  0  0  0  0  0
  -20.7351  -24.7836   17.4965 C   0  0  0  0  0  0  0  0  0  0  0  0
  -24.2916  -15.5505   19.8973 N   0  0  0  0  0  0  0  0  0  0  0  0
  -23.2622  -16.4125   19.9557 N   0  0  0  0  0  0  0  0  0  0  0  0
  -22.6056  -27.6043   18.6837 N   0  0  0  0  0  0  0  0  0  0  0  0
  -24.9796  -19.6488   18.8786 N   0  0  0  0  0  0  0  0  0  0  0  0
  -21.0323  -16.6425   20.7209 N   0  0  0  0  0  0  0  0  0  0  0  0
  -22.1241  -12.4339   21.9423 N   0  0  0  0  0  0  0  0  0  0  0  0
  -25.6999  -20.6414   20.8931 N   0  0  0  0  0  0  0  0  0  0  0  0
  -29.5617  -25.1799   22.0663 N   0  0  0  0  0  0  0  0  0  0  0  0
  -20.7722  -28.4428   21.3865 N   0  0  0  0  0  0  0  0  0  0  0  0
  -21.7481  -26.2517   15.7015 N   0  0  0  0  0  0  0  0  0  0  0  0
  -23.8122  -27.2185   12.8957 N   0  3  0  0  0  0  0  0  0  0  0  0
  -29.3374  -24.1423   20.0039 O   0  0  0  0  0  0  0  0  0  0  0  0
  -20.4500  -14.0011   21.9540 O   0  0  0  0  0  0  0  0  0  0  0  0
  -22.8663  -27.4337   21.5232 O   0  0  0  0  0  0  0  0  0  0  0  0
  -20.4665  -27.7641   17.7701 O   0  0  0  0  0  0  0  0  0  0  0  0
  -23.9737  -25.7481   15.2890 O   0  0  0  0  0  0  0  0  0  0  0  0
  -25.4612  -21.9081   18.9643 O   0  0  0  0  0  0  0  0  0  0  0  0
  -27.0110   -9.9104   21.0561 O   0  0  0  0  0  0  0  0  0  0  0  0
  -28.5757  -27.0506   20.1343 O   0  0  0  0  0  0  0  0  0  1  0  0
  -24.7369   -5.0232   19.8953 F   0  0  0  0  0  0  0  0  0  0  0  0
  -24.8028   -9.0062   22.4521 F   0  0  0  0  0  0  0  0  0  0  0  0
  1  2  1  0  0  0  0
  1  7  2  0  0  0  0
  2  8  2  0  0  0  0
  3  6  2  0  0  0  0
  3 10  1  0  0  0  0
  4 11  2  0  0  0  0
  4 19  1  0  0  0  0
  5 12  1  0  0  0  0
  5 19  2  0  0  0  0
  6 20  1  0  0  0  0
  7 22  1  0  0  0  0
  8 24  1  0  0  0  0
  9 13  2  0  0  0  0
  9 23  1  0  0  0  0
 10 26  2  0  0  0  0
 11 27  1  0  0  0  0
 12 27  2  0  0  0  0
 13 28  1  0  0  0  0
 14 15  2  0  0  0  0
 14 29  1  0  0  0  0
 15 30  1  0  0  0  0
 16 20  2  0  0  0  0
 16 26  1  0  0  0  0
 17 25  1  0  0  0  0
 17 28  2  0  0  0  0
 18 30  2  0  0  0  0
 18 31  1  0  0  0  0
 19 32  1  0  0  0  0
 20 34  1  0  0  0  0
 21 32  1  0  0  0  0
 21 33  2  0  0  0  0
 21 35  1  0  0  0  0
 22 24  2  0  0  0  0
 22 40  1  0  0  0  0
 23 25  2  0  0  0  0
 23 41  1  0  0  0  0
 24 49  1  0  0  0  0
 25 42  1  0  0  0  0
 26 68  1  0  0  0  0
 27 79  1  0  0  0  0
 28 80  1  0  0  0  0
 29 31  2  0  0  0  0
 29 79  1  0  0  0  0
 30 81  1  0  0  0  0
 31 82  1  0  0  0  0
 32 62  2  0  0  0  0
 33 63  1  0  0  0  0
 33 66  1  0  0  0  0
 34 69  1  0  0  0  0
 34 73  2  0  0  0  0
 35 67  1  0  0  0  0
 35 74  2  0  0  0  0
 36 50  1  0  0  0  0
 36 70  1  0  0  0  0
 36 75  2  0  0  0  0
 37 59  1  0  0  0  0
 37 64  1  0  0  0  0
 37 76  2  0  0  0  0
 38 60  1  0  0  0  0
 38 71  1  0  0  0  0
 38 77  2  0  0  0  0
 39 65  1  0  0  0  0
 39 68  1  0  0  0  0
 39 78  2  0  0  0  0
 40 43  1  0  0  0  0
 41 50  1  0  0  0  0
 42 64  1  0  0  0  0
 43 45  1  0  0  0  0
 44 46  1  0  0  0  0
 44 47  1  0  0  0  0
 45 49  1  0  0  0  0
 46 51  1  0  0  0  0
 47 65  1  0  0  0  0
 48 51  1  0  0  0  0
 48 65  1  0  0  0  0
 49 70  1  0  0  0  0
 50 64  1  0  0  0  0
 51 63  1  0  0  0  0
 52 60  1  0  0  0  0
 53 61  1  0  0  0  0
 54 61  1  0  0  0  0
 55 61  1  0  0  0  0
 56 72  1  0  0  0  0
 57 58  1  0  0  0  0
 57 69  1  0  0  0  0
 58 80  1  0  0  0  0
 59 61  1  0  0  0  0
 59 71  1  0  0  0  0
 60 72  1  0  0  0  0
 62 63  1  0  0  0  0
M  CHG  1  72   1
M  ISO  4  39 100  58 101  68 100  80 101
M  END
> <Batch ID>
0007

> <Smiles>
CNC(C)C(=O)NC(C(=O)N1Cc2cc([101O:1][101CH2:1]CNC(=O)c3cccc([100NH:0][100C:0](=O)N4CCCC(n5nc(-c6ccc(Oc7ccc(F)cc7F)cc6)c(C(N)=O)c5N)C4)c3)ccc2CC1C(=O)NC1CCCc2ccccc21)C(C)(C)C

> <Shape>
0.205

> <Color>
0.100

> <Negative vol penalty>
0.000

$$$$

  -OEChem-04042320323D

 87 95  0     1  0  0  0  0  0999 V2000
  -18.2358  -29.5572   19.6764 C   0  0  0  0  0  0  0  0  0  0  0  0
  -19.4551  -29.0940   19.1926 C   0  0  0  0  0  0  0  0  0  0  0  0
  -26.4440  -12.9067   21.4984 C   0  0  0  0  0  0  0  0  0  0  0  0
  -25.9304  -13.5848   19.2371 C   0  0  0  0  0  0  0  0  0  0  0  0
  -17.8100  -29.1930   20.9532 C   0  0  0  0  0  0  0  0  0  0  0  0
  -20.2500  -28.2673   19.9857 C   0  0  0  0  0  0  0  0  0  0  0  0
  -22.1258  -24.3281   17.4150 C   0  0  0  0  0  0  0  0  0  0  0  0
  -30.0046  -23.2226   16.6282 C   0  0  0  0  0  0  0  0  0  0  0  0
  -29.0685  -23.9846   15.9292 C   0  0  0  0  0  0  0  0  0  0  0  0
  -25.2295  -12.2245   21.5697 C   0  0  0  0  0  0  0  0  0  0  0  0
  -24.7159  -12.9026   19.3084 C   0  0  0  0  0  0  0  0  0  0  0  0
  -23.2196  -24.5717   16.5855 C   0  0  0  0  0  0  0  0  0  0  0  0
  -23.9596   -9.2802   20.4965 C   0  0  0  0  0  0  0  0  0  0  0  0
  -23.9685   -7.9960   21.0409 C   0  0  0  0  0  0  0  0  0  0  0  0
  -24.6936  -23.6934   18.2811 C   0  0  0  0  0  0  0  0  0  0  0  0
  -22.4353   -8.7158   22.7638 C   0  0  0  0  0  0  0  0  0  0  0  0
  -26.7945  -13.5870   20.3322 C   0  0  0  0  0  0  0  0  0  0  0  0
  -29.2867  -13.7821   19.8237 C   0  0  0  0  0  0  0  0  0  0  0  0
  -18.5956  -28.3535   21.7586 C   0  0  0  0  0  0  0  0  0  0  0  0
  -22.3091  -23.7744   18.6902 C   0  0  0  0  0  0  0  0  0  0  0  0
  -19.8350  -27.8926   21.2750 C   0  0  0  0  0  0  0  0  0  0  0  0
  -23.6003  -23.4414   19.1238 C   0  0  0  0  0  0  0  0  0  0  0  0
  -30.2832  -23.5133   17.9638 C   0  0  0  0  0  0  0  0  0  0  0  0
  -28.4110  -25.0373   16.5657 C   0  0  0  0  0  0  0  0  0  0  0  0
  -29.6257  -24.5660   18.6002 C   0  0  0  0  0  0  0  0  0  0  0  0
  -24.3654  -12.2224   20.4747 C   0  0  0  0  0  0  0  0  0  0  0  0
  -24.5040  -24.2571   17.0196 C   0  0  0  0  0  0  0  0  0  0  0  0
  -23.1887  -10.2823   21.0859 C   0  0  0  0  0  0  0  0  0  0  0  0
  -23.2063   -7.7138   22.1745 C   0  0  0  0  0  0  0  0  0  0  0  0
  -22.4265  -10.0000   22.2195 C   0  0  0  0  0  0  0  0  0  0  0  0
  -28.6895  -25.3280   17.9012 C   0  0  0  0  0  0  0  0  0  0  0  0
  -28.0486  -14.2924   20.2581 C   0  0  0  0  0  0  0  0  0  0  0  0
  -30.1548  -14.8397   19.9428 C   0  0  0  0  0  0  0  0  0  0  0  0
  -29.6219  -12.4694   19.3544 C   0  0  0  0  0  0  0  0  0  0  0  0
  -21.7330  -24.7460   21.6614 C   0  0  0  0  0  0  0  0  0  0  0  0
  -22.6598  -21.7294   22.4122 C   0  0  0  0  0  0  0  0  0  0  0  0
  -29.0271  -25.4278   20.8904 C   0  0  0  0  0  0  0  0  0  0  0  0
  -24.4211  -18.9387   21.5425 C   0  0  0  0  0  0  0  0  0  0  0  0
  -30.2539  -20.4828   19.1959 C   0  0  0  0  0  0  0  0  0  0  0  0
  -18.1154  -28.0254   23.1502 C   0  0  0  0  0  0  0  0  0  0  0  0
  -21.1164  -23.4930   19.5624 C   0  0  0  0  0  0  0  0  0  0  0  0
  -23.8487  -22.8264   20.4761 C   0  0  0  0  0  0  0  0  0  0  0  0
  -18.8434  -26.8420   23.7825 C   0  0  0  0  0  0  0  0  0  0  0  0
  -30.1755  -19.0587   22.5221 C   0  0  0  0  0  0  0  0  0  0  0  0
  -20.3502  -26.9749   23.5854 C   0  0  0  0  0  0  0  0  0  0  0  0
  -29.7362  -17.6232   22.2281 C   0  0  0  0  0  0  0  0  0  0  0  0
  -29.4706  -20.0518   21.6028 C   0  0  0  0  0  0  0  0  0  0  0  0
  -29.2002  -18.3378   19.8528 C   0  0  0  0  0  0  0  0  0  0  0  0
  -20.7139  -26.9739   22.0957 C   0  0  1  0  0  0  0  0  0  0  0  0
  -21.4679  -23.4020   21.0442 C   0  0  1  0  0  0  0  0  0  0  0  0
  -29.8944  -17.2836   20.7341 C   0  0  2  0  0  0  0  0  0  0  0  0
  -29.1436  -26.8102   22.9991 C   0  0  0  0  0  0  0  0  0  0  0  0
  -29.5454  -24.3360   23.0872 C   0  0  0  0  0  0  0  0  0  0  0  0
  -25.0213  -16.6489   22.3757 C   0  0  0  0  0  0  0  0  0  0  0  0
  -24.6722  -22.9630   24.3457 C   0  0  0  0  0  0  0  0  0  0  0  0
  -25.8504  -20.7551   24.4186 C   0  0  0  0  0  0  0  0  0  0  0  0
  -23.4944  -20.9367   25.2181 C   0  0  0  0  0  0  0  0  0  0  0  0
  -23.1076  -17.6287   19.2366 C   0  0  0  0  0  0  0  0  0  0  0  0
  -31.2903  -22.6792   18.6872 C   0  0  0  0  0  0  0  0  0  0  0  0
  -27.4017  -25.8584   15.8080 C   0  0  0  0  0  0  0  0  0  0  0  0
  -23.9755  -21.0655   22.7394 C   0  0  1  0  0  0  0  0  0  0  0  0
  -29.7081  -25.6041   22.2512 C   0  0  0  0  0  0  0  0  0  0  0  0
  -24.0446  -17.4681   21.5463 C   0  0  2  0  0  0  0  0  0  0  0  0
  -24.4940  -21.4434   24.1557 C   0  0  0  0  0  0  0  0  0  0  0  0
  -28.1198  -15.5744   20.6259 N   0  0  0  0  0  0  0  0  0  0  0  0
  -29.4130  -15.8786   20.4229 N   0  0  0  0  0  0  0  0  0  0  0  0
  -22.6509  -22.5762   21.2947 N   0  0  0  0  0  0  0  0  0  0  0  0
  -29.6759  -19.6824   20.1952 N   0  0  0  0  0  0  0  0  0  0  0  0
  -31.4728  -14.9730   19.6827 N   0  0  0  0  0  0  0  0  0  0  0  0
  -28.6093  -11.5022   19.2952 N   0  0  0  0  0  0  0  0  0  0  0  0
  -29.8929  -24.8695   19.9377 N   0  0  0  0  0  0  0  0  0  0  0  0
  -20.6731  -25.6276   21.5664 N   0  0  0  0  0  0  0  0  0  0  0  0
  -23.7715  -19.6348   22.5399 N   0  0  0  0  0  0  0  0  0  0  0  0
  -30.6717  -21.7445   19.6009 N   0  0  0  0  0  0  0  0  0  0  0  0
  -26.0954  -25.8398   16.4507 N   0  0  0  0  0  0  0  0  0  1  0  0
  -24.0421  -16.9305   20.1564 N   0  3  0  0  0  0  0  0  0  0  0  0
  -30.7884  -12.1586   19.0137 O   0  0  0  0  0  0  0  0  0  0  0  0
  -22.8181  -24.9663   22.1864 O   0  0  0  0  0  0  0  0  0  0  0  0
  -21.6744  -21.4994   23.1177 O   0  0  0  0  0  0  0  0  0  0  0  0
  -27.8553  -25.7475   20.7119 O   0  0  0  0  0  0  0  0  0  0  0  0
  -25.2151  -19.4209   20.7379 O   0  0  0  0  0  0  0  0  0  0  0  0
  -30.3926  -20.0992   18.0294 O   0  0  0  0  0  0  0  0  0  0  0  0
  -23.1803  -11.5565   20.5438 O   0  0  0  0  0  0  0  0  0  0  0  0
  -25.5734  -24.4945   16.2122 O   0  0  0  0  0  0  0  0  0  1  0  0
  -23.2137   -6.4801   22.6962 F   0  0  0  0  0  0  0  0  0  0  0  0
  -21.6830  -10.9583   22.7894 F   0  0  0  0  0  0  0  0  0  0  0  0
  -28.0568  -26.3422   18.5105 F   0  0  0  0  0  0  0  0  0  0  0  0
  1  2  1  0  0  0  0
  1  5  2  0  0  0  0
  2  6  2  0  0  0  0
  3 10  2  0  0  0  0
  3 17  1  0  0  0  0
  4 11  1  0  0  0  0
  4 17  2  0  0  0  0
  5 19  1  0  0  0  0
  6 21  1  0  0  0  0
  7 12  2  0  0  0  0
  7 20  1  0  0  0  0
  8  9  2  0  0  0  0
  8 23  1  0  0  0  0
  9 24  1  0  0  0  0
 10 26  1  0  0  0  0
 11 26  2  0  0  0  0
 12 27  1  0  0  0  0
 13 14  2  0  0  0  0
 13 28  1  0  0  0  0
 14 29  1  0  0  0  0
 15 22  1  0  0  0  0
 15 27  2  0  0  0  0
 16 29  2  0  0  0  0
 16 30  1  0  0  0  0
 17 32  1  0  0  0  0
 18 32  1  0  0  0  0
 18 33  2  0  0  0  0
 18 34  1  0  0  0  0
 19 21  2  0  0  0  0
 19 40  1  0  0  0  0
 20 22  2  0  0  0  0
 20 41  1  0  0  0  0
 21 49  1  0  0  0  0
 22 42  1  0  0  0  0
 23 25  2  0  0  0  0
 23 59  1  0  0  0  0
 24 31  2  0  0  0  0
 24 60  1  0  0  0  0
 25 31  1  0  0  0  0
 25 71  1  0  0  0  0
 26 83  1  0  0  0  0
 27 84  1  0  0  0  0
 28 30  2  0  0  0  0
 28 83  1  0  0  0  0
 29 85  1  0  0  0  0
 30 86  1  0  0  0  0
 31 87  1  0  0  0  0
 32 65  2  0  0  0  0
 33 66  1  0  0  0  0
 33 69  1  0  0  0  0
 34 70  1  0  0  0  0
 34 77  2  0  0  0  0
 35 50  1  0  0  0  0
 35 72  1  0  0  0  0
 35 78  2  0  0  0  0
 36 61  1  0  0  0  0
 36 67  1  0  0  0  0
 36 79  2  0  0  0  0
 37 62  1  0  0  0  0
 37 71  1  0  0  0  0
 37 80  2  0  0  0  0
 38 63  1  0  0  0  0
 38 73  1  0  0  0  0
 38 81  2  0  0  0  0
 39 68  1  0  0  0  0
 39 74  1  0  0  0  0
 39 82  2  0  0  0  0
 40 43  1  0  0  0  0
 41 50  1  0  0  0  0
 42 67  1  0  0  0  0
 43 45  1  0  0  0  0
 44 46  1  0  0  0  0
 44 47  1  0  0  0  0
 45 49  1  0  0  0  0
 46 51  1  0  0  0  0
 47 68  1  0  0  0  0
 48 51  1  0  0  0  0
 48 68  1  0  0  0  0
 49 72  1  0  0  0  0
 50 67  1  0  0  0  0
 51 66  1  0  0  0  0
 52 62  1  0  0  0  0
 53 62  1  0  0  0  0
 54 63  1  0  0  0  0
 55 64  1  0  0  0  0
 56 64  1  0  0  0  0
 57 64  1  0  0  0  0
 58 76  1  0  0  0  0
 59 74  1  0  0  0  0
 60 75  1  0  0  0  0
 61 64  1  0  0  0  0
 61 73  1  0  0  0  0
 63 76  1  0  0  0  0
 65 66  1  0  0  0  0
 75 84  1  0  0  0  0
M  CHG  1  76   1
M  ISO  4  39 100  74 100  75 101  84 101
M  END
> <Batch ID>
0007

> <Smiles>
CNC(C)C(=O)NC(C(=O)N1Cc2cc([101O:1][101NH:1]Cc3ccc(C[100NH:0][100C:0](=O)N4CCCC(n5nc(-c6ccc(Oc7ccc(F)cc7F)cc6)c(C(N)=O)c5N)C4)c(NC(=O)C(C)C)c3F)ccc2CC1C(=O)NC1CCCc2ccccc21)C(C)(C)C

> <Shape>
0.223

> <Color>
0.066

> <Negative vol penalty>
0.000

$$$$

  -OEChem-04042320323D

 81 89  0     1  0  0  0  0  0999 V2000
  -25.9029  -35.2037   23.5564 C   0  0  0  0  0  0  0  0  0  0  0  0
  -26.4754  -33.9605   23.3073 C   0  0  0  0  0  0  0  0  0  0  0  0
  -27.4892  -15.0482   21.3865 C   0  0  0  0  0  0  0  0  0  0  0  0
  -25.8386  -15.2461   19.6334 C   0  0  0  0  0  0  0  0  0  0  0  0
  -24.5745  -35.2875   23.9715 C   0  0  0  0  0  0  0  0  0  0  0  0
  -25.7202  -32.8002   23.4741 C   0  0  0  0  0  0  0  0  0  0  0  0
  -26.3118  -29.5308   19.6524 C   0  0  0  0  0  0  0  0  0  0  0  0
  -27.2407  -13.6779   21.4658 C   0  0  0  0  0  0  0  0  0  0  0  0
  -25.5901  -13.8758   19.7127 C   0  0  0  0  0  0  0  0  0  0  0  0
  -27.4758  -28.7634   19.6453 C   0  0  0  0  0  0  0  0  0  0  0  0
  -23.8644  -11.7686   21.7158 C   0  0  0  0  0  0  0  0  0  0  0  0
  -22.5338  -11.3504   21.7195 C   0  0  0  0  0  0  0  0  0  0  0  0
  -26.2462  -26.9007   20.5604 C   0  0  0  0  0  0  0  0  0  0  0  0
  -22.9295  -10.0734   19.7071 C   0  0  0  0  0  0  0  0  0  0  0  0
  -26.7881  -15.8323   20.4704 C   0  0  0  0  0  0  0  0  0  0  0  0
  -27.9897  -17.8949   19.5707 C   0  0  0  0  0  0  0  0  0  0  0  0
  -23.7997  -34.1282   24.1342 C   0  0  0  0  0  0  0  0  0  0  0  0
  -25.1066  -28.9914   20.1245 C   0  0  0  0  0  0  0  0  0  0  0  0
  -24.3806  -32.8685   23.8931 C   0  0  0  0  0  0  0  0  0  0  0  0
  -25.0677  -27.6624   20.5700 C   0  0  0  0  0  0  0  0  0  0  0  0
  -26.2912  -13.0918   20.6289 C   0  0  0  0  0  0  0  0  0  0  0  0
  -27.4438  -27.4491   20.1021 C   0  0  0  0  0  0  0  0  0  0  0  0
  -24.7276  -11.3392   20.7076 C   0  0  0  0  0  0  0  0  0  0  0  0
  -22.0663  -10.5028   20.7152 C   0  0  0  0  0  0  0  0  0  0  0  0
  -24.2601  -10.4916   19.7034 C   0  0  0  0  0  0  0  0  0  0  0  0
  -27.0439  -17.2479   20.3884 C   0  0  0  0  0  0  0  0  0  0  0  0
  -27.8396  -19.2288   19.8614 C   0  0  0  0  0  0  0  0  0  0  0  0
  -28.9206  -17.3397   18.6321 C   0  0  0  0  0  0  0  0  0  0  0  0
  -23.1213  -29.6825   22.5087 C   0  0  0  0  0  0  0  0  0  0  0  0
  -29.6575  -24.8597   22.3960 C   0  0  0  0  0  0  0  0  0  0  0  0
  -21.2967  -27.3757   21.1405 C   0  0  0  0  0  0  0  0  0  0  0  0
  -21.1410  -24.5931   19.1709 C   0  0  0  0  0  0  0  0  0  0  0  0
  -27.1723  -23.3556   23.5022 C   0  0  0  0  0  0  0  0  0  0  0  0
  -22.3821  -34.2662   24.6303 C   0  0  0  0  0  0  0  0  0  0  0  0
  -23.8539  -29.8237   20.1006 C   0  0  0  0  0  0  0  0  0  0  0  0
  -23.7948  -27.0298   21.0679 C   0  0  0  0  0  0  0  0  0  0  0  0
  -21.5390  -33.0108   24.4220 C   0  0  0  0  0  0  0  0  0  0  0  0
  -24.2760  -21.6646   22.4714 C   0  0  0  0  0  0  0  0  0  0  0  0
  -22.3085  -31.7711   24.8666 C   0  0  0  0  0  0  0  0  0  0  0  0
  -24.8025  -20.4046   21.7880 C   0  0  0  0  0  0  0  0  0  0  0  0
  -30.5723  -24.2772   24.6516 C   0  0  0  0  0  0  0  0  0  0  0  0
  -25.1104  -22.0044   23.6998 C   0  0  0  0  0  0  0  0  0  0  0  0
  -27.1157  -20.9416   22.7074 C   0  0  0  0  0  0  0  0  0  0  0  0
  -29.2155  -22.3135   24.6182 C   0  0  0  0  0  0  0  0  0  0  0  0
  -23.5864  -31.5886   24.0388 C   0  0  1  0  0  0  0  0  0  0  0  0
  -22.7940  -29.3364   21.0837 C   0  0  1  0  0  0  0  0  0  0  0  0
  -29.3208  -24.5802   23.8265 C   0  0  2  0  0  0  0  0  0  0  0  0
  -26.2981  -20.5460   21.4606 C   0  0  1  0  0  0  0  0  0  0  0  0
  -30.1200  -23.1208   25.5316 C   0  0  1  0  0  0  0  0  0  0  0  0
  -19.5158  -22.9085   18.2662 C   0  0  0  0  0  0  0  0  0  0  0  0
  -21.1889  -26.0171   23.8705 C   0  0  0  0  0  0  0  0  0  0  0  0
  -20.4019  -23.9344   22.7253 C   0  0  0  0  0  0  0  0  0  0  0  0
  -19.0252  -26.0118   22.6164 C   0  0  0  0  0  0  0  0  0  0  0  0
  -21.7494  -25.3372   16.3718 C   0  0  0  0  0  0  0  0  0  0  0  0
  -30.8347  -26.4650   20.9061 C   0  0  0  0  0  0  0  0  0  0  0  0
  -29.8158  -27.3881   20.2619 C   0  0  0  0  0  0  0  0  0  1  0  0
  -21.1749  -25.8787   21.2923 C   0  0  1  0  0  0  0  0  0  0  0  0
  -20.2288  -24.2278   18.0137 C   0  0  2  0  0  0  0  0  0  0  0  0
  -20.4723  -25.4727   22.6186 C   0  0  0  0  0  0  0  0  0  0  0  0
  -26.3448  -18.1006   21.1422 N   0  0  0  0  0  0  0  0  0  0  0  0
  -26.8518  -19.2971   20.7994 N   0  0  0  0  0  0  0  0  0  0  0  0
  -22.5979  -27.8863   21.0307 N   0  0  0  0  0  0  0  0  0  0  0  0
  -26.5319  -22.1166   23.3694 N   0  0  0  0  0  0  0  0  0  0  0  0
  -28.5294  -23.3470   23.8366 N   0  0  0  0  0  0  0  0  0  0  0  0
  -28.4576  -20.3384   19.4038 N   0  0  0  0  0  0  0  0  0  0  0  0
  -28.9425  -15.9495   18.4555 N   0  0  0  0  0  0  0  0  0  0  0  0
  -23.2718  -31.0368   22.7385 N   0  0  0  0  0  0  0  0  0  0  0  0
  -30.4001  -26.0096   22.2072 N   0  0  0  0  0  0  0  0  0  0  0  0
  -20.5029  -25.3997   20.0893 N   0  0  0  0  0  0  0  0  0  0  0  0
  -31.2650  -22.3222   25.9999 N   0  3  0  0  0  0  0  0  0  0  0  0
  -21.0150  -24.1036   16.7538 N   0  3  0  0  0  0  0  0  0  0  0  0
  -29.7209  -18.0539   17.9817 O   0  0  0  0  0  0  0  0  0  0  0  0
  -23.2278  -28.7873   23.3387 O   0  0  0  0  0  0  0  0  0  0  0  0
  -29.2743  -24.0893   21.5234 O   0  0  0  0  0  0  0  0  0  0  0  0
  -20.2747  -28.0659   21.1130 O   0  0  0  0  0  0  0  0  0  0  0  0
  -22.3021  -24.1989   19.2539 O   0  0  0  0  0  0  0  0  0  0  0  0
  -26.5573  -24.4190   23.3499 O   0  0  0  0  0  0  0  0  0  0  0  0
  -26.0486  -11.7547   20.7058 O   0  0  0  0  0  0  0  0  0  0  0  0
  -28.5866  -26.6928   20.0968 O   0  0  0  0  0  0  0  0  0  1  0  0
  -20.7888  -10.1000   20.7198 F   0  0  0  0  0  0  0  0  0  0  0  0
  -25.0850  -10.0748   18.7329 F   0  0  0  0  0  0  0  0  0  0  0  0
  1  2  1  0  0  0  0
  1  5  2  0  0  0  0
  2  6  2  0  0  0  0
  3  8  2  0  0  0  0
  3 15  1  0  0  0  0
  4  9  1  0  0  0  0
  4 15  2  0  0  0  0
  5 17  1  0  0  0  0
  6 19  1  0  0  0  0
  7 10  2  0  0  0  0
  7 18  1  0  0  0  0
  8 21  1  0  0  0  0
  9 21  2  0  0  0  0
 10 22  1  0  0  0  0
 11 12  2  0  0  0  0
 11 23  1  0  0  0  0
 12 24  1  0  0  0  0
 13 20  1  0  0  0  0
 13 22  2  0  0  0  0
 14 24  2  0  0  0  0
 14 25  1  0  0  0  0
 15 26  1  0  0  0  0
 16 26  1  0  0  0  0
 16 27  2  0  0  0  0
 16 28  1  0  0  0  0
 17 19  2  0  0  0  0
 17 34  1  0  0  0  0
 18 20  2  0  0  0  0
 18 35  1  0  0  0  0
 19 45  1  0  0  0  0
 20 36  1  0  0  0  0
 21 78  1  0  0  0  0
 22 79  1  0  0  0  0
 23 25  2  0  0  0  0
 23 78  1  0  0  0  0
 24 80  1  0  0  0  0
 25 81  1  0  0  0  0
 26 60  2  0  0  0  0
 27 61  1  0  0  0  0
 27 65  1  0  0  0  0
 28 66  1  0  0  0  0
 28 72  2  0  0  0  0
 29 46  1  0  0  0  0
 29 67  1  0  0  0  0
 29 73  2  0  0  0  0
 30 47  1  0  0  0  0
 30 68  1  0  0  0  0
 30 74  2  0  0  0  0
 31 57  1  0  0  0  0
 31 62  1  0  0  0  0
 31 75  2  0  0  0  0
 32 58  1  0  0  0  0
 32 69  1  0  0  0  0
 32 76  2  0  0  0  0
 33 63  1  0  0  0  0
 33 64  1  0  0  0  0
 33 77  2  0  0  0  0
 34 37  1  0  0  0  0
 35 46  1  0  0  0  0
 36 62  1  0  0  0  0
 37 39  1  0  0  0  0
 38 40  1  0  0  0  0
 38 42  1  0  0  0  0
 39 45  1  0  0  0  0
 40 48  1  0  0  0  0
 41 47  1  0  0  0  0
 41 49  1  0  0  0  0
 42 63  1  0  0  0  0
 43 48  1  0  0  0  0
 43 63  1  0  0  0  0
 44 49  1  0  0  0  0
 44 64  1  0  0  0  0
 45 67  1  0  0  0  0
 46 62  1  0  0  0  0
 47 64  1  0  0  0  0
 48 61  1  0  0  0  0
 49 70  1  0  0  0  0
 50 58  1  0  0  0  0
 51 59  1  0  0  0  0
 52 59  1  0  0  0  0
 53 59  1  0  0  0  0
 54 71  1  0  0  0  0
 55 56  1  0  0  0  0
 55 68  1  0  0  0  0
 56 79  1  0  0  0  0
 57 59  1  0  0  0  0
 57 69  1  0  0  0  0
 58 71  1  0  0  0  0
 60 61  1  0  0  0  0
M  CHG  2  70   1  71   1
M  ISO  4  33 100  56 101  64 100  79 101
M  END
> <Batch ID>
0007

> <Smiles>
CNC(C)C(=O)NC(C(=O)N1Cc2cc([101O:1][101CH2:1]CNC(=O)C3CC(N)C[100N:0]3[100C:0](=O)N3CCCC(n4nc(-c5ccc(Oc6ccc(F)cc6F)cc5)c(C(N)=O)c4N)C3)ccc2CC1C(=O)NC1CCCc2ccccc21)C(C)(C)C

> <Shape>
0.242

> <Color>
0.081

> <Negative vol penalty>
0.000

$$$$

  -OEChem-04042320323D

 73 80  0     1  0  0  0  0  0999 V2000
  -28.7807  -11.4027   19.8413 C   0  0  0  0  0  0  0  0  0  0  0  0
  -28.8747  -12.6791   19.2960 C   0  0  0  0  0  0  0  0  0  0  0  0
  -25.9114  -28.9143   20.8188 C   0  0  0  0  0  0  0  0  0  0  0  0
  -25.2447  -26.5922   20.8056 C   0  0  0  0  0  0  0  0  0  0  0  0
  -27.5741  -10.9659   20.3863 C   0  0  0  0  0  0  0  0  0  0  0  0
  -27.7616  -13.5191   19.2943 C   0  0  0  0  0  0  0  0  0  0  0  0
  -28.8908  -18.2435   20.7261 C   0  0  0  0  0  0  0  0  0  0  0  0
  -24.5811  -29.2972   20.6476 C   0  0  0  0  0  0  0  0  0  0  0  0
  -23.9144  -26.9751   20.6344 C   0  0  0  0  0  0  0  0  0  0  0  0
  -29.5037  -19.0657   19.7816 C   0  0  0  0  0  0  0  0  0  0  0  0
  -20.2991  -27.3512   20.5553 C   0  0  0  0  0  0  0  0  0  0  0  0
  -19.3346  -26.7145   21.3363 C   0  0  0  0  0  0  0  0  0  0  0  0
  -27.3782  -20.1087   19.3193 C   0  0  0  0  0  0  0  0  0  0  0  0
  -20.4277  -27.5133   23.3374 C   0  0  0  0  0  0  0  0  0  0  0  0
  -26.2432  -27.5618   20.8978 C   0  0  0  0  0  0  0  0  0  0  0  0
  -28.2943  -26.9641   22.2918 C   0  0  0  0  0  0  0  0  0  0  0  0
  -26.4483  -11.8044   20.4000 C   0  0  0  0  0  0  0  0  0  0  0  0
  -27.5128  -18.3403   20.9669 C   0  0  0  0  0  0  0  0  0  0  0  0
  -26.5384  -13.0925   19.8388 C   0  0  0  0  0  0  0  0  0  0  0  0
  -26.7507  -19.2883   20.2692 C   0  0  0  0  0  0  0  0  0  0  0  0
  -23.5826  -28.3276   20.5554 C   0  0  0  0  0  0  0  0  0  0  0  0
  -28.7469  -19.9965   19.0760 C   0  0  0  0  0  0  0  0  0  0  0  0
  -21.3280  -28.0688   21.1653 C   0  0  0  0  0  0  0  0  0  0  0  0
  -19.3988  -26.7956   22.7274 C   0  0  0  0  0  0  0  0  0  0  0  0
  -21.3923  -28.1499   22.5564 C   0  0  0  0  0  0  0  0  0  0  0  0
  -27.6173  -27.1656   21.0741 C   0  0  0  0  0  0  0  0  0  0  0  0
  -29.5659  -26.6003   21.9215 C   0  0  0  0  0  0  0  0  0  0  0  0
  -27.8165  -27.0941   23.6374 C   0  0  0  0  0  0  0  0  0  0  0  0
  -25.0394  -16.3661   20.6693 C   0  0  0  0  0  0  0  0  0  0  0  0
  -23.4301  -18.7916   22.1009 C   0  0  0  0  0  0  0  0  0  0  0  0
  -23.2352  -22.1273   22.7949 C   0  0  0  0  0  0  0  0  0  0  0  0
  -31.8053  -24.0606   16.9833 C   0  0  0  0  0  0  0  0  0  0  0  0
  -25.1525  -11.2708   20.9575 C   0  0  0  0  0  0  0  0  0  0  0  0
  -26.8716  -17.4645   22.0082 C   0  0  0  0  0  0  0  0  0  0  0  0
  -25.2716  -19.4460   20.5052 C   0  0  0  0  0  0  0  0  0  0  0  0
  -24.1234  -12.3586   21.2544 C   0  0  0  0  0  0  0  0  0  0  0  0
  -32.7528  -27.1859   18.4013 C   0  0  0  0  0  0  0  0  0  0  0  0
  -24.0228  -13.3319   20.0842 C   0  0  0  0  0  0  0  0  0  0  0  0
  -31.6052  -27.5169   19.3570 C   0  0  0  0  0  0  0  0  0  0  0  0
  -32.2517  -26.4924   17.1365 C   0  0  0  0  0  0  0  0  0  0  0  0
  -30.2768  -25.6255   18.3290 C   0  0  0  0  0  0  0  0  0  0  0  0
  -25.3600  -14.0420   19.8407 C   0  0  1  0  0  0  0  0  0  0  0  0
  -25.3693  -17.2948   21.8034 C   0  0  1  0  0  0  0  0  0  0  0  0
  -30.7390  -26.2758   19.6442 C   0  0  2  0  0  0  0  0  0  0  0  0
  -21.7856  -23.8170   23.9528 C   0  0  0  0  0  0  0  0  0  0  0  0
  -21.4554  -18.6861   19.7772 C   0  0  0  0  0  0  0  0  0  0  0  0
  -20.6243  -20.9432   20.4723 C   0  0  0  0  0  0  0  0  0  0  0  0
  -20.4056  -19.0030   22.0249 C   0  0  0  0  0  0  0  0  0  0  0  0
  -25.3980  -22.8660   24.6752 C   0  0  0  0  0  0  0  0  0  0  0  0
  -31.2354  -21.6456   16.9357 C   0  0  0  0  0  0  0  0  0  0  0  0
  -30.7465  -20.6355   17.9583 C   0  0  0  0  0  0  0  0  0  1  0  0
  -22.6870  -20.0136   21.6176 C   0  0  1  0  0  0  0  0  0  0  0  0
  -22.9697  -22.8728   24.0904 C   0  0  2  0  0  0  0  0  0  0  0  0
  -21.3206  -19.6574   20.9669 C   0  0  0  0  0  0  0  0  0  0  0  0
  -28.3944  -26.9480   20.0099 N   0  0  0  0  0  0  0  0  0  0  0  0
  -29.5730  -26.6061   20.5576 N   0  0  0  0  0  0  0  0  0  0  0  0
  -24.6895  -18.5623   21.5289 N   0  0  0  0  0  0  0  0  0  0  0  0
  -31.4385  -25.3228   17.4784 N   0  0  0  0  0  0  0  0  0  0  0  0
  -30.6675  -26.2792   22.6327 N   0  0  0  0  0  0  0  0  0  0  0  0
  -26.4833  -27.4765   23.8389 N   0  0  0  0  0  0  0  0  0  0  0  0
  -25.5584  -15.0937   20.8148 N   0  0  0  0  0  0  0  0  0  0  0  0
  -22.5873  -20.9105   22.7639 N   0  0  0  0  0  0  0  0  0  0  0  0
  -30.9843  -23.0048   17.3602 N   0  0  0  0  0  0  0  0  0  0  0  0
  -24.1650  -23.6719   24.4825 N   0  3  0  0  0  0  0  0  0  0  0  0
  -28.5547  -26.8935   24.6315 O   0  0  0  0  0  0  0  0  0  0  0  0
  -24.3627  -16.7733   19.7323 O   0  0  0  0  0  0  0  0  0  0  0  0
  -22.9152  -18.0710   22.9596 O   0  0  0  0  0  0  0  0  0  0  0  0
  -23.9432  -22.5808   21.8985 O   0  0  0  0  0  0  0  0  0  0  0  0
  -32.7944  -23.8864   16.2633 O   0  0  0  0  0  0  0  0  0  0  0  0
  -22.2844  -28.7009   20.3885 O   0  0  0  0  0  0  0  0  0  0  0  0
  -29.3424  -20.7999   18.1530 O   0  0  0  0  0  0  0  0  0  1  0  0
  -18.4716  -26.1855   23.4772 F   0  0  0  0  0  0  0  0  0  0  0  0
  -22.3777  -28.8388   23.1481 F   0  0  0  0  0  0  0  0  0  0  0  0
  1  2  1  0  0  0  0
  1  5  2  0  0  0  0
  2  6  2  0  0  0  0
  3  8  2  0  0  0  0
  3 15  1  0  0  0  0
  4  9  1  0  0  0  0
  4 15  2  0  0  0  0
  5 17  1  0  0  0  0
  6 19  1  0  0  0  0
  7 10  2  0  0  0  0
  7 18  1  0  0  0  0
  8 21  1  0  0  0  0
  9 21  2  0  0  0  0
 10 22  1  0  0  0  0
 11 12  2  0  0  0  0
 11 23  1  0  0  0  0
 12 24  1  0  0  0  0
 13 20  1  0  0  0  0
 13 22  2  0  0  0  0
 14 24  2  0  0  0  0
 14 25  1  0  0  0  0
 15 26  1  0  0  0  0
 16 26  1  0  0  0  0
 16 27  2  0  0  0  0
 16 28  1  0  0  0  0
 17 19  2  0  0  0  0
 17 33  1  0  0  0  0
 18 20  2  0  0  0  0
 18 34  1  0  0  0  0
 19 42  1  0  0  0  0
 20 35  1  0  0  0  0
 21 70  1  0  0  0  0
 22 71  1  0  0  0  0
 23 25  2  0  0  0  0
 23 70  1  0  0  0  0
 24 72  1  0  0  0  0
 25 73  1  0  0  0  0
 26 55  2  0  0  0  0
 27 56  1  0  0  0  0
 27 59  1  0  0  0  0
 28 60  1  0  0  0  0
 28 65  2  0  0  0  0
 29 43  1  0  0  0  0
 29 61  1  0  0  0  0
 29 66  2  0  0  0  0
 30 52  1  0  0  0  0
 30 57  1  0  0  0  0
 30 67  2  0  0  0  0
 31 53  1  0  0  0  0
 31 62  1  0  0  0  0
 31 68  2  0  0  0  0
 32 58  1  0  0  0  0
 32 63  1  0  0  0  0
 32 69  2  0  0  0  0
 33 36  1  0  0  0  0
 34 43  1  0  0  0  0
 35 57  1  0  0  0  0
 36 38  1  0  0  0  0
 37 39  1  0  0  0  0
 37 40  1  0  0  0  0
 38 42  1  0  0  0  0
 39 44  1  0  0  0  0
 40 58  1  0  0  0  0
 41 44  1  0  0  0  0
 41 58  1  0  0  0  0
 42 61  1  0  0  0  0
 43 57  1  0  0  0  0
 44 56  1  0  0  0  0
 45 53  1  0  0  0  0
 46 54  1  0  0  0  0
 47 54  1  0  0  0  0
 48 54  1  0  0  0  0
 49 64  1  0  0  0  0
 50 51  1  0  0  0  0
 50 63  1  0  0  0  0
 51 71  1  0  0  0  0
 52 54  1  0  0  0  0
 52 62  1  0  0  0  0
 53 64  1  0  0  0  0
 55 56  1  0  0  0  0
M  CHG  1  64   1
M  ISO  4  32 100  51 101  63 100  71 101
M  END
> <Batch ID>
0007

> <Smiles>
CNC(C)C(=O)NC(C(=O)N1Cc2cc([101O:1][101CH2:1]C[100NH:0][100C:0](=O)N3CCCC(n4nc(-c5ccc(Oc6ccc(F)cc6F)cc5)c(C(N)=O)c4N)C3)ccc2CC1C(=O)NC1CCCc2ccccc21)C(C)(C)C

> <Shape>
0.226

> <Color>
0.066

> <Negative vol penalty>
0.000

$$$$

  -OEChem-04042320323D

 87 96  0     1  0  0  0  0  0999 V2000
  -20.3019  -32.5098   18.5428 C   0  0  0  0  0  0  0  0  0  0  0  0
  -21.5264  -31.8515   18.5939 C   0  0  0  0  0  0  0  0  0  0  0  0
  -23.4873   -9.6883   21.9977 C   0  0  0  0  0  0  0  0  0  0  0  0
  -24.7190  -10.8541   23.7185 C   0  0  0  0  0  0  0  0  0  0  0  0
  -19.5430  -32.6590   19.7028 C   0  0  0  0  0  0  0  0  0  0  0  0
  -21.9932  -31.3428   19.8055 C   0  0  0  0  0  0  0  0  0  0  0  0
  -23.8682  -26.6605   19.3533 C   0  0  0  0  0  0  0  0  0  0  0  0
  -31.5100  -18.2991   20.8448 C   0  0  0  0  0  0  0  0  0  0  0  0
  -31.2151  -19.5070   20.2127 C   0  0  0  0  0  0  0  0  0  0  0  0
  -23.0276   -8.7744   22.9459 C   0  0  0  0  0  0  0  0  0  0  0  0
  -24.2592   -9.9402   24.6667 C   0  0  0  0  0  0  0  0  0  0  0  0
  -25.1488  -26.5365   18.8162 C   0  0  0  0  0  0  0  0  0  0  0  0
  -20.6532   -8.6619   25.3506 C   0  0  0  0  0  0  0  0  0  0  0  0
  -19.2999   -8.3251   25.3233 C   0  0  0  0  0  0  0  0  0  0  0  0
  -26.0504  -26.2844   21.0394 C   0  0  0  0  0  0  0  0  0  0  0  0
  -29.0641  -19.5569   21.3117 C   0  0  0  0  0  0  0  0  0  0  0  0
  -19.8835   -6.0104   24.9507 C   0  0  0  0  0  0  0  0  0  0  0  0
  -24.3331  -10.7282   22.3840 C   0  0  0  0  0  0  0  0  0  0  0  0
  -24.0315  -12.5236   20.5972 C   0  0  0  0  0  0  0  0  0  0  0  0
  -19.9962  -32.1435   20.9274 C   0  0  0  0  0  0  0  0  0  0  0  0
  -23.6701  -26.6081   20.7406 C   0  0  0  0  0  0  0  0  0  0  0  0
  -21.2402  -31.4865   20.9833 C   0  0  0  0  0  0  0  0  0  0  0  0
  -24.7660  -26.4054   21.5915 C   0  0  0  0  0  0  0  0  0  0  0  0
  -30.5820  -17.7200   21.7103 C   0  0  0  0  0  0  0  0  0  0  0  0
  -29.9922  -20.1359   20.4462 C   0  0  0  0  0  0  0  0  0  0  0  0
  -23.4135   -8.9003   24.2804 C   0  0  0  0  0  0  0  0  0  0  0  0
  -26.2405  -26.3513   19.6594 C   0  0  0  0  0  0  0  0  0  0  0  0
  -21.6217   -7.6730   25.1778 C   0  0  0  0  0  0  0  0  0  0  0  0
  -18.9151   -6.9993   25.1234 C   0  0  0  0  0  0  0  0  0  0  0  0
  -29.3590  -18.3489   21.9438 C   0  0  0  0  0  0  0  0  0  0  0  0
  -21.2369   -6.3473   24.9779 C   0  0  0  0  0  0  0  0  0  0  0  0
  -24.8088  -11.6722   21.4050 C   0  0  0  0  0  0  0  0  0  0  0  0
  -24.9491  -13.2152   19.8447 C   0  0  0  0  0  0  0  0  0  0  0  0
  -22.6072  -12.6759   20.5328 C   0  0  0  0  0  0  0  0  0  0  0  0
  -22.5497  -28.6280   22.9242 C   0  0  0  0  0  0  0  0  0  0  0  0
  -22.8566  -26.0644   24.8879 C   0  0  0  0  0  0  0  0  0  0  0  0
  -25.2672  -23.4349   25.4284 C   0  0  0  0  0  0  0  0  0  0  0  0
  -30.7078  -14.6100   20.7065 C   0  0  0  0  0  0  0  0  0  0  0  0
  -19.1628  -32.3708   22.1637 C   0  0  0  0  0  0  0  0  0  0  0  0
  -22.2792  -26.7167   21.3026 C   0  0  0  0  0  0  0  0  0  0  0  0
  -24.6043  -26.3218   23.0866 C   0  0  0  0  0  0  0  0  0  0  0  0
  -19.5546  -31.4744   23.3356 C   0  0  0  0  0  0  0  0  0  0  0  0
  -29.3306  -12.7973   17.9690 C   0  0  0  0  0  0  0  0  0  0  0  0
  -21.0692  -31.4635   23.5162 C   0  0  0  0  0  0  0  0  0  0  0  0
  -27.9454  -12.3802   18.4663 C   0  0  0  0  0  0  0  0  0  0  0  0
  -30.3665  -12.7638   19.0905 C   0  0  0  0  0  0  0  0  0  0  0  0
  -30.5874  -22.4870   20.0720 C   0  0  0  0  0  0  0  0  0  0  0  0
  -28.3037  -21.6806   19.4978 C   0  0  0  0  0  0  0  0  0  0  0  0
  -28.6177  -13.1197   20.7901 C   0  0  0  0  0  0  0  0  0  0  0  0
  -30.5158  -23.4955   18.9335 C   0  0  0  0  0  0  0  0  0  0  0  0
  -28.2350  -22.6950   18.3632 C   0  0  0  0  0  0  0  0  0  0  0  0
  -21.7690  -30.8992   22.2739 C   0  0  1  0  0  0  0  0  0  0  0  0
  -22.2573  -27.1633   22.7612 C   0  0  1  0  0  0  0  0  0  0  0  0
  -27.5274  -13.1917   19.7073 C   0  0  2  0  0  0  0  0  0  0  0  0
  -24.9731  -21.1124   26.3322 C   0  0  0  0  0  0  0  0  0  0  0  0
  -23.5922  -27.3257   27.5670 C   0  0  0  0  0  0  0  0  0  0  0  0
  -24.8897  -25.2537   28.1072 C   0  0  0  0  0  0  0  0  0  0  0  0
  -22.4263  -25.1198   27.7376 C   0  0  0  0  0  0  0  0  0  0  0  0
  -26.5126  -22.2206   23.0340 C   0  0  0  0  0  0  0  0  0  0  0  0
  -30.9005  -16.4283   22.3845 C   0  0  0  0  0  0  0  0  0  0  0  0
  -28.9516  -24.9863   17.6879 C   0  0  0  0  0  0  0  0  0  0  0  0
  -27.5999  -25.6564   17.8359 C   0  0  0  0  0  0  0  0  0  1  0  0
  -23.9561  -25.5141   25.7637 C   0  0  1  0  0  0  0  0  0  0  0  0
  -25.1035  -21.9664   25.0806 C   0  0  2  0  0  0  0  0  0  0  0  0
  -23.7219  -25.8183   27.2704 C   0  0  0  0  0  0  0  0  0  0  0  0
  -26.1194  -11.8085   21.1861 N   0  0  0  0  0  0  0  0  0  0  0  0
  -26.1726  -12.7537   20.2322 N   0  0  0  0  0  0  0  0  0  0  0  0
  -29.6969  -21.3482   19.8119 N   0  0  0  0  0  0  0  0  0  0  0  0
  -23.2252  -26.4399   23.5883 N   0  0  0  0  0  0  0  0  0  0  0  0
  -29.9101  -13.5536   20.2367 N   0  0  0  0  0  0  0  0  0  0  0  0
  -24.8206  -14.1669   18.8959 N   0  0  0  0  0  0  0  0  0  0  0  0
  -21.8122  -11.8871   21.3756 N   0  0  0  0  0  0  0  0  0  0  0  0
  -21.6715  -29.4555   22.2509 N   0  0  0  0  0  0  0  0  0  0  0  0
  -24.0557  -24.0930   25.4495 N   0  0  0  0  0  0  0  0  0  0  0  0
  -30.1985  -15.3114   21.7925 N   0  0  0  0  0  0  0  0  0  0  0  0
  -29.0787  -23.8941   18.7123 N   0  3  0  0  0  0  0  0  0  0  0  0
  -26.2797  -21.4840   24.3029 N   0  3  0  0  0  0  0  0  0  0  0  0
  -22.0552  -13.4755   19.7395 O   0  0  0  0  0  0  0  0  0  0  0  0
  -23.5009  -28.9814   23.6114 O   0  0  0  0  0  0  0  0  0  0  0  0
  -21.7113  -26.1509   25.3378 O   0  0  0  0  0  0  0  0  0  0  0  0
  -26.3601  -23.9463   25.6619 O   0  0  0  0  0  0  0  0  0  0  0  0
  -31.7909  -14.9095   20.1927 O   0  0  0  0  0  0  0  0  0  0  0  0
  -22.9649   -8.0089   25.2059 O   0  0  0  0  0  0  0  0  0  0  0  0
  -27.4916  -26.2307   19.1378 O   0  0  0  0  0  0  0  0  0  1  0  0
  -17.6155   -6.6758   25.0989 F   0  0  0  0  0  0  0  0  0  0  0  0
  -28.4605  -17.7995   22.7729 F   0  0  0  0  0  0  0  0  0  0  0  0
  -22.1627   -5.3927   24.8125 F   0  0  0  0  0  0  0  0  0  0  0  0
  1  2  1  0  0  0  0
  1  5  2  0  0  0  0
  2  6  2  0  0  0  0
  3 10  2  0  0  0  0
  3 18  1  0  0  0  0
  4 11  1  0  0  0  0
  4 18  2  0  0  0  0
  5 20  1  0  0  0  0
  6 22  1  0  0  0  0
  7 12  2  0  0  0  0
  7 21  1  0  0  0  0
  8  9  2  0  0  0  0
  8 24  1  0  0  0  0
  9 25  1  0  0  0  0
 10 26  1  0  0  0  0
 11 26  2  0  0  0  0
 12 27  1  0  0  0  0
 13 14  2  0  0  0  0
 13 28  1  0  0  0  0
 14 29  1  0  0  0  0
 15 23  1  0  0  0  0
 15 27  2  0  0  0  0
 16 25  2  0  0  0  0
 16 30  1  0  0  0  0
 17 29  2  0  0  0  0
 17 31  1  0  0  0  0
 18 32  1  0  0  0  0
 19 32  1  0  0  0  0
 19 33  2  0  0  0  0
 19 34  1  0  0  0  0
 20 22  2  0  0  0  0
 20 39  1  0  0  0  0
 21 23  2  0  0  0  0
 21 40  1  0  0  0  0
 22 52  1  0  0  0  0
 23 41  1  0  0  0  0
 24 30  2  0  0  0  0
 24 60  1  0  0  0  0
 25 68  1  0  0  0  0
 26 83  1  0  0  0  0
 27 84  1  0  0  0  0
 28 31  2  0  0  0  0
 28 83  1  0  0  0  0
 29 85  1  0  0  0  0
 30 86  1  0  0  0  0
 31 87  1  0  0  0  0
 32 66  2  0  0  0  0
 33 67  1  0  0  0  0
 33 71  1  0  0  0  0
 34 72  1  0  0  0  0
 34 78  2  0  0  0  0
 35 53  1  0  0  0  0
 35 73  1  0  0  0  0
 35 79  2  0  0  0  0
 36 63  1  0  0  0  0
 36 69  1  0  0  0  0
 36 80  2  0  0  0  0
 37 64  1  0  0  0  0
 37 74  1  0  0  0  0
 37 81  2  0  0  0  0
 38 70  1  0  0  0  0
 38 75  1  0  0  0  0
 38 82  2  0  0  0  0
 39 42  1  0  0  0  0
 40 53  1  0  0  0  0
 41 69  1  0  0  0  0
 42 44  1  0  0  0  0
 43 45  1  0  0  0  0
 43 46  1  0  0  0  0
 44 52  1  0  0  0  0
 45 54  1  0  0  0  0
 46 70  1  0  0  0  0
 47 50  1  0  0  0  0
 47 68  1  0  0  0  0
 48 51  1  0  0  0  0
 48 68  1  0  0  0  0
 49 54  1  0  0  0  0
 49 70  1  0  0  0  0
 50 76  1  0  0  0  0
 51 76  1  0  0  0  0
 52 73  1  0  0  0  0
 53 69  1  0  0  0  0
 54 67  1  0  0  0  0
 55 64  1  0  0  0  0
 56 65  1  0  0  0  0
 57 65  1  0  0  0  0
 58 65  1  0  0  0  0
 59 77  1  0  0  0  0
 60 75  1  0  0  0  0
 61 62  1  0  0  0  0
 61 76  1  0  0  0  0
 62 84  1  0  0  0  0
 63 65  1  0  0  0  0
 63 74  1  0  0  0  0
 64 77  1  0  0  0  0
 66 67  1  0  0  0  0
M  CHG  2  76   1  77   1
M  ISO  4  38 100  62 101  75 100  84 101
M  END
> <Batch ID>
0007

> <Smiles>
CNC(C)C(=O)NC(C(=O)N1Cc2cc([101O:1][101CH2:1]CN3CCN(c4ccc(C[100NH:0][100C:0](=O)N5CCCC(n6nc(-c7ccc(Oc8ccc(F)cc8F)cc7)c(C(N)=O)c6N)C5)c(F)c4)CC3)ccc2CC1C(=O)NC1CCCc2ccccc21)C(C)(C)C

> <Shape>
0.242

> <Color>
0.114

> <Negative vol penalty>
0.000

$$$$

  -OEChem-04042320323D

 76 83  0     1  0  0  0  0  0999 V2000
  -25.4160  -19.7204   25.4397 C   0  0  0  0  0  0  0  0  0  0  0  0
  -26.2804  -20.6612   24.8916 C   0  0  0  0  0  0  0  0  0  0  0  0
  -27.0998  -14.4956   21.6874 C   0  0  0  0  0  0  0  0  0  0  0  0
  -27.4992  -14.3354   19.3100 C   0  0  0  0  0  0  0  0  0  0  0  0
  -24.0392  -19.8751   25.2921 C   0  0  0  0  0  0  0  0  0  0  0  0
  -25.7682  -21.7632   24.2060 C   0  0  0  0  0  0  0  0  0  0  0  0
  -28.9802  -25.2199   22.8139 C   0  0  0  0  0  0  0  0  0  0  0  0
  -26.5133  -13.2301   21.6742 C   0  0  0  0  0  0  0  0  0  0  0  0
  -26.9128  -13.0698   19.2968 C   0  0  0  0  0  0  0  0  0  0  0  0
  -29.8941  -25.0265   21.7789 C   0  0  0  0  0  0  0  0  0  0  0  0
  -23.5407  -11.8717   20.8124 C   0  0  0  0  0  0  0  0  0  0  0  0
  -22.3442  -11.7054   21.5097 C   0  0  0  0  0  0  0  0  0  0  0  0
  -28.5235  -26.3774   20.3243 C   0  0  0  0  0  0  0  0  0  0  0  0
  -23.3872  -10.0265   22.8991 C   0  0  0  0  0  0  0  0  0  0  0  0
  -27.5927  -15.0483   20.5053 C   0  0  0  0  0  0  0  0  0  0  0  0
  -29.5564  -16.6616   20.7256 C   0  0  0  0  0  0  0  0  0  0  0  0
  -23.5111  -20.9732   24.5935 C   0  0  0  0  0  0  0  0  0  0  0  0
  -27.8236  -25.9857   22.6083 C   0  0  0  0  0  0  0  0  0  0  0  0
  -24.3810  -21.9497   24.0669 C   0  0  0  0  0  0  0  0  0  0  0  0
  -27.5978  -26.5811   21.3591 C   0  0  0  0  0  0  0  0  0  0  0  0
  -26.4199  -12.5172   20.4789 C   0  0  0  0  0  0  0  0  0  0  0  0
  -29.6644  -25.6029   20.5331 C   0  0  0  0  0  0  0  0  0  0  0  0
  -24.6605  -11.1153   21.1584 C   0  0  0  0  0  0  0  0  0  0  0  0
  -22.2674  -10.7828   22.5530 C   0  0  0  0  0  0  0  0  0  0  0  0
  -24.5838  -10.1928   22.2017 C   0  0  0  0  0  0  0  0  0  0  0  0
  -28.1980  -16.3557   20.5182 C   0  0  0  0  0  0  0  0  0  0  0  0
  -29.6166  -18.0312   20.6426 C   0  0  0  0  0  0  0  0  0  0  0  0
  -30.6648  -15.7859   20.9713 C   0  0  0  0  0  0  0  0  0  0  0  0
  -24.7003  -25.4061   22.7200 C   0  0  0  0  0  0  0  0  0  0  0  0
  -24.4844  -28.6103   22.2633 C   0  0  0  0  0  0  0  0  0  0  0  0
  -25.9315  -31.4756   21.1046 C   0  0  0  0  0  0  0  0  0  0  0  0
  -28.2144  -22.8218   18.1466 C   0  0  0  0  0  0  0  0  0  0  0  0
  -22.0127  -21.0957   24.4704 C   0  0  0  0  0  0  0  0  0  0  0  0
  -26.8610  -26.2069   23.7427 C   0  0  0  0  0  0  0  0  0  0  0  0
  -26.3817  -27.4288   21.0929 C   0  0  0  0  0  0  0  0  0  0  0  0
  -21.5833  -22.0458   23.3572 C   0  0  0  0  0  0  0  0  0  0  0  0
  -25.9253  -21.4877   20.5249 C   0  0  0  0  0  0  0  0  0  0  0  0
  -22.3407  -23.3600   23.4746 C   0  0  0  0  0  0  0  0  0  0  0  0
  -26.4208  -20.0576   20.7473 C   0  0  0  0  0  0  0  0  0  0  0  0
  -26.0987  -21.9256   19.0723 C   0  0  0  0  0  0  0  0  0  0  0  0
  -27.9600  -20.3408   18.7600 C   0  0  0  0  0  0  0  0  0  0  0  0
  -23.8476  -23.1402   23.2907 C   0  0  1  0  0  0  0  0  0  0  0  0
  -25.4586  -26.5798   23.2722 C   0  0  1  0  0  0  0  0  0  0  0  0
  -27.8574  -19.8740   20.2221 C   0  0  2  0  0  0  0  0  0  0  0  0
  -25.4964  -33.9322   20.8341 C   0  0  0  0  0  0  0  0  0  0  0  0
  -22.6568  -28.0230   19.8917 C   0  0  0  0  0  0  0  0  0  0  0  0
  -23.0275  -30.3735   19.1132 C   0  0  0  0  0  0  0  0  0  0  0  0
  -21.9335  -29.9484   21.3143 C   0  0  0  0  0  0  0  0  0  0  0  0
  -32.5579  -24.8808   17.4539 C   0  0  0  0  0  0  0  0  0  0  0  0
  -32.4956  -22.4743   18.1632 C   0  0  0  0  0  0  0  0  0  0  0  0
  -28.2198  -32.1901   22.8402 C   0  0  0  0  0  0  0  0  0  0  0  0
  -30.4005  -23.5722   17.2427 C   0  0  0  0  0  0  0  0  0  0  0  0
  -31.2888  -24.1917   19.5203 C   0  0  0  0  0  0  0  0  0  1  0  0
  -24.4112  -29.5158   21.0577 C   0  0  1  0  0  0  0  0  0  0  0  0
  -26.0830  -32.8512   21.7286 C   0  0  2  0  0  0  0  0  0  0  0  0
  -23.0293  -29.4476   20.3483 C   0  0  0  0  0  0  0  0  0  0  0  0
  -31.6832  -23.7797   18.0831 C   0  0  0  0  0  0  0  0  0  0  0  0
  -27.4492  -17.4436   20.3185 N   0  0  0  0  0  0  0  0  0  0  0  0
  -28.3402  -18.4464   20.4002 N   0  0  0  0  0  0  0  0  0  0  0  0
  -25.4668  -27.6104   22.2320 N   0  0  0  0  0  0  0  0  0  0  0  0
  -27.4831  -21.7272   18.6366 N   0  0  0  0  0  0  0  0  0  0  0  0
  -30.6362  -18.9089   20.7540 N   0  0  0  0  0  0  0  0  0  0  0  0
  -30.4268  -14.4058   21.0251 N   0  0  0  0  0  0  0  0  0  0  0  0
  -24.5462  -24.3644   23.6149 N   0  0  0  0  0  0  0  0  0  0  0  0
  -24.7779  -30.8483   21.5250 N   0  0  0  0  0  0  0  0  0  0  0  0
  -29.5210  -22.5482   17.7610 N   0  0  0  0  0  0  0  0  0  0  0  0
  -27.5228  -33.1605   21.9573 N   0  3  0  0  0  0  0  0  0  0  0  0
  -31.8289  -16.2157   21.1546 O   0  0  0  0  0  0  0  0  0  0  0  0
  -24.2844  -25.4433   21.5679 O   0  0  0  0  0  0  0  0  0  0  0  0
  -23.7036  -28.7882   23.2016 O   0  0  0  0  0  0  0  0  0  0  0  0
  -26.7525  -31.0062   20.3197 O   0  0  0  0  0  0  0  0  0  0  0  0
  -27.7399  -23.9597   18.0641 O   0  0  0  0  0  0  0  0  0  0  0  0
  -25.8479  -11.2822   20.4657 O   0  0  0  0  0  0  0  0  0  0  0  0
  -30.5545  -25.4153   19.5210 O   0  0  0  0  0  0  0  0  0  1  0  0
  -21.1187  -10.6243   23.2236 F   0  0  0  0  0  0  0  0  0  0  0  0
  -25.6565   -9.4641   22.5395 F   0  0  0  0  0  0  0  0  0  0  0  0
  1  2  1  0  0  0  0
  1  5  2  0  0  0  0
  2  6  2  0  0  0  0
  3  8  2  0  0  0  0
  3 15  1  0  0  0  0
  4  9  1  0  0  0  0
  4 15  2  0  0  0  0
  5 17  1  0  0  0  0
  6 19  1  0  0  0  0
  7 10  2  0  0  0  0
  7 18  1  0  0  0  0
  8 21  1  0  0  0  0
  9 21  2  0  0  0  0
 10 22  1  0  0  0  0
 11 12  2  0  0  0  0
 11 23  1  0  0  0  0
 12 24  1  0  0  0  0
 13 20  1  0  0  0  0
 13 22  2  0  0  0  0
 14 24  2  0  0  0  0
 14 25  1  0  0  0  0
 15 26  1  0  0  0  0
 16 26  1  0  0  0  0
 16 27  2  0  0  0  0
 16 28  1  0  0  0  0
 17 19  2  0  0  0  0
 17 33  1  0  0  0  0
 18 20  2  0  0  0  0
 18 34  1  0  0  0  0
 19 42  1  0  0  0  0
 20 35  1  0  0  0  0
 21 73  1  0  0  0  0
 22 74  1  0  0  0  0
 23 25  2  0  0  0  0
 23 73  1  0  0  0  0
 24 75  1  0  0  0  0
 25 76  1  0  0  0  0
 26 58  2  0  0  0  0
 27 59  1  0  0  0  0
 27 62  1  0  0  0  0
 28 63  1  0  0  0  0
 28 68  2  0  0  0  0
 29 43  1  0  0  0  0
 29 64  1  0  0  0  0
 29 69  2  0  0  0  0
 30 54  1  0  0  0  0
 30 60  1  0  0  0  0
 30 70  2  0  0  0  0
 31 55  1  0  0  0  0
 31 65  1  0  0  0  0
 31 71  2  0  0  0  0
 32 61  1  0  0  0  0
 32 66  1  0  0  0  0
 32 72  2  0  0  0  0
 33 36  1  0  0  0  0
 34 43  1  0  0  0  0
 35 60  1  0  0  0  0
 36 38  1  0  0  0  0
 37 39  1  0  0  0  0
 37 40  1  0  0  0  0
 38 42  1  0  0  0  0
 39 44  1  0  0  0  0
 40 61  1  0  0  0  0
 41 44  1  0  0  0  0
 41 61  1  0  0  0  0
 42 64  1  0  0  0  0
 43 60  1  0  0  0  0
 44 59  1  0  0  0  0
 45 55  1  0  0  0  0
 46 56  1  0  0  0  0
 47 56  1  0  0  0  0
 48 56  1  0  0  0  0
 49 57  1  0  0  0  0
 50 57  1  0  0  0  0
 51 67  1  0  0  0  0
 52 57  1  0  0  0  0
 52 66  1  0  0  0  0
 53 57  1  0  0  0  0
 53 74  1  0  0  0  0
 54 56  1  0  0  0  0
 54 65  1  0  0  0  0
 55 67  1  0  0  0  0
 58 59  1  0  0  0  0
M  CHG  1  67   1
M  ISO  4  32 100  53 101  66 100  74 101
M  END
> <Batch ID>
0007

> <Smiles>
CNC(C)C(=O)NC(C(=O)N1Cc2cc([101O:1][101CH2:1]C(C)(C)C[100NH:0][100C:0](=O)N3CCCC(n4nc(-c5ccc(Oc6ccc(F)cc6F)cc5)c(C(N)=O)c4N)C3)ccc2CC1C(=O)NC1CCCc2ccccc21)C(C)(C)C

> <Shape>
0.221

> <Color>
0.058

> <Negative vol penalty>
0.000

$$$$

  -OEChem-04042320323D

 79 87  0     1  0  0  0  0  0999 V2000
  -21.8329  -11.2812   19.5462 C   0  0  0  0  0  0  0  0  0  0  0  0
  -21.5478  -12.5989   19.8896 C   0  0  0  0  0  0  0  0  0  0  0  0
  -25.0698  -30.5057   19.4795 C   0  0  0  0  0  0  0  0  0  0  0  0
  -24.9224  -30.1359   21.8625 C   0  0  0  0  0  0  0  0  0  0  0  0
  -23.1161  -10.7728   19.7430 C   0  0  0  0  0  0  0  0  0  0  0  0
  -22.5455  -13.4086   20.4312 C   0  0  0  0  0  0  0  0  0  0  0  0
  -23.2814  -19.4254   19.5587 C   0  0  0  0  0  0  0  0  0  0  0  0
  -25.1146  -31.8829   19.6960 C   0  0  0  0  0  0  0  0  0  0  0  0
  -24.9672  -31.5132   22.0790 C   0  0  0  0  0  0  0  0  0  0  0  0
  -22.9255  -20.5347   20.3246 C   0  0  0  0  0  0  0  0  0  0  0  0
  -27.3108  -33.9468   22.1498 C   0  0  0  0  0  0  0  0  0  0  0  0
  -28.1508  -34.4156   23.1599 C   0  0  0  0  0  0  0  0  0  0  0  0
  -25.1438  -20.5851   21.2712 C   0  0  0  0  0  0  0  0  0  0  0  0
  -26.2489  -35.3849   24.2916 C   0  0  0  0  0  0  0  0  0  0  0  0
  -24.9737  -29.6322   20.5628 C   0  0  0  0  0  0  0  0  0  0  0  0
  -26.0186  -27.3235   20.2700 C   0  0  0  0  0  0  0  0  0  0  0  0
  -24.1326  -11.5796   20.2783 C   0  0  0  0  0  0  0  0  0  0  0  0
  -24.5699  -18.8801   19.6516 C   0  0  0  0  0  0  0  0  0  0  0  0
  -23.8432  -12.9100   20.6366 C   0  0  0  0  0  0  0  0  0  0  0  0
  -25.5142  -19.4704   20.5035 C   0  0  0  0  0  0  0  0  0  0  0  0
  -25.0633  -32.3867   20.9957 C   0  0  0  0  0  0  0  0  0  0  0  0
  -23.8559  -21.1130   21.1832 C   0  0  0  0  0  0  0  0  0  0  0  0
  -25.9399  -34.1972   22.2105 C   0  0  0  0  0  0  0  0  0  0  0  0
  -27.6199  -35.1346   24.2308 C   0  0  0  0  0  0  0  0  0  0  0  0
  -25.4090  -34.9162   23.2814 C   0  0  0  0  0  0  0  0  0  0  0  0
  -24.9268  -28.2095   20.3398 C   0  0  0  0  0  0  0  0  0  0  0  0
  -25.4493  -26.0940   20.0449 C   0  0  0  0  0  0  0  0  0  0  0  0
  -27.4219  -27.5882   20.3975 C   0  0  0  0  0  0  0  0  0  0  0  0
  -25.7572  -16.0693   20.5425 C   0  0  0  0  0  0  0  0  0  0  0  0
  -28.5496  -17.3628   19.5170 C   0  0  0  0  0  0  0  0  0  0  0  0
  -30.3745  -20.1721   18.8654 C   0  0  0  0  0  0  0  0  0  0  0  0
  -20.0362  -23.8279   21.2340 C   0  0  0  0  0  0  0  0  0  0  0  0
  -25.4921  -10.9716   20.5167 C   0  0  0  0  0  0  0  0  0  0  0  0
  -24.9462  -17.6996   18.7988 C   0  0  0  0  0  0  0  0  0  0  0  0
  -26.9169  -18.9354   20.6247 C   0  0  0  0  0  0  0  0  0  0  0  0
  -26.5903  -12.0066   20.7472 C   0  0  0  0  0  0  0  0  0  0  0  0
  -21.6093  -24.0549   18.0480 C   0  0  0  0  0  0  0  0  0  0  0  0
  -20.7230  -21.0018   25.8223 C   0  0  0  0  0  0  0  0  0  0  0  0
  -26.1245  -13.0670   21.7398 C   0  0  0  0  0  0  0  0  0  0  0  0
  -22.7364  -25.0655   18.2678 C   0  0  0  0  0  0  0  0  0  0  0  0
  -20.2387  -22.4281   26.0028 C   0  0  0  0  0  0  0  0  0  0  0  0
  -20.3615  -24.4179   18.8502 C   0  0  0  0  0  0  0  0  0  0  0  0
  -21.7173  -25.6308   20.5129 C   0  0  0  0  0  0  0  0  0  0  0  0
  -22.1352  -21.1920   25.3154 C   0  0  0  0  0  0  0  0  0  0  0  0
  -24.9053  -13.8270   21.2036 C   0  0  1  0  0  0  0  0  0  0  0  0
  -26.1286  -16.9128   19.3558 C   0  0  1  0  0  0  0  0  0  0  0  0
  -23.0157  -25.2765   19.7680 C   0  0  2  0  0  0  0  0  0  0  0  0
  -20.8159  -23.1921   24.8113 C   0  0  2  0  0  0  0  0  0  0  0  0
  -32.6381  -20.9109   18.0731 C   0  0  0  0  0  0  0  0  0  0  0  0
  -29.7284  -16.6674   22.2441 C   0  0  0  0  0  0  0  0  0  0  0  0
  -31.6163  -18.2359   21.7503 C   0  0  0  0  0  0  0  0  0  0  0  0
  -31.2509  -16.2337   20.3081 C   0  0  0  0  0  0  0  0  0  0  0  0
  -29.2270  -21.5651   16.5198 C   0  0  0  0  0  0  0  0  0  0  0  0
  -19.8330  -23.3384   23.6585 C   0  0  0  0  0  0  0  0  0  0  0  0
  -23.2640  -23.1125   24.1416 C   0  0  0  0  0  0  0  0  0  0  0  0
  -24.1652  -22.3491   23.1913 C   0  0  0  0  0  0  0  0  0  1  0  0
  -29.6463  -18.1814   20.1543 C   0  0  1  0  0  0  0  0  0  0  0  0
  -31.2127  -20.5728   17.6648 C   0  0  2  0  0  0  0  0  0  0  0  0
  -30.5335  -17.3387   21.1136 C   0  0  0  0  0  0  0  0  0  0  0  0
  -23.7527  -27.5951   20.1723 N   0  0  0  0  0  0  0  0  0  0  0  0
  -24.1035  -26.3099   19.9950 N   0  0  0  0  0  0  0  0  0  0  0  0
  -27.2348  -17.7759   19.7749 N   0  0  0  0  0  0  0  0  0  0  0  0
  -20.6946  -24.6025   20.2647 N   0  0  0  0  0  0  0  0  0  0  0  0
  -25.9735  -24.8601   19.8866 N   0  0  0  0  0  0  0  0  0  0  0  0
  -27.8348  -28.9078   20.6271 N   0  0  0  0  0  0  0  0  0  0  0  0
  -25.3124  -14.8026   20.2152 N   0  0  0  0  0  0  0  0  0  0  0  0
  -30.3783  -18.8068   19.0582 N   0  0  0  0  0  0  0  0  0  0  0  0
  -20.4158  -24.0613   22.5501 N   0  0  0  0  0  0  0  0  0  0  0  0
  -21.9974  -22.3434   24.3460 N   0  3  1  0  0  0  0  0  0  0  0  0
  -30.6206  -21.7647   16.9943 N   0  3  0  0  0  0  0  0  0  0  0  0
  -28.2852  -26.6840   20.2941 O   0  0  0  0  0  0  0  0  0  0  0  0
  -25.8674  -16.5328   21.6715 O   0  0  0  0  0  0  0  0  0  0  0  0
  -28.8486  -16.3969   18.8104 O   0  0  0  0  0  0  0  0  0  0  0  0
  -29.7791  -20.9889   19.5646 O   0  0  0  0  0  0  0  0  0  0  0  0
  -19.1777  -22.9866   20.9473 O   0  0  0  0  0  0  0  0  0  0  0  0
  -25.1072  -33.7305   21.2073 O   0  0  0  0  0  0  0  0  0  0  0  0
  -23.5110  -22.1954   21.9324 O   0  0  0  0  0  0  0  0  0  1  0  0
  -28.4264  -35.5833   25.2015 F   0  0  0  0  0  0  0  0  0  0  0  0
  -24.0926  -35.1588   23.3458 F   0  0  0  0  0  0  0  0  0  0  0  0
  1  2  1  0  0  0  0
  1  5  2  0  0  0  0
  2  6  2  0  0  0  0
  3  8  2  0  0  0  0
  3 15  1  0  0  0  0
  4  9  1  0  0  0  0
  4 15  2  0  0  0  0
  5 17  1  0  0  0  0
  6 19  1  0  0  0  0
  7 10  2  0  0  0  0
  7 18  1  0  0  0  0
  8 21  1  0  0  0  0
  9 21  2  0  0  0  0
 10 22  1  0  0  0  0
 11 12  2  0  0  0  0
 11 23  1  0  0  0  0
 12 24  1  0  0  0  0
 13 20  1  0  0  0  0
 13 22  2  0  0  0  0
 14 24  2  0  0  0  0
 14 25  1  0  0  0  0
 15 26  1  0  0  0  0
 16 26  1  0  0  0  0
 16 27  2  0  0  0  0
 16 28  1  0  0  0  0
 17 19  2  0  0  0  0
 17 33  1  0  0  0  0
 18 20  2  0  0  0  0
 18 34  1  0  0  0  0
 19 45  1  0  0  0  0
 20 35  1  0  0  0  0
 21 76  1  0  0  0  0
 22 77  1  0  0  0  0
 23 25  2  0  0  0  0
 23 76  1  0  0  0  0
 24 78  1  0  0  0  0
 25 79  1  0  0  0  0
 26 60  2  0  0  0  0
 27 61  1  0  0  0  0
 27 64  1  0  0  0  0
 28 65  1  0  0  0  0
 28 71  2  0  0  0  0
 29 46  1  0  0  0  0
 29 66  1  0  0  0  0
 29 72  2  0  0  0  0
 30 57  1  0  0  0  0
 30 62  1  0  0  0  0
 30 73  2  0  0  0  0
 31 58  1  0  0  0  0
 31 67  1  0  0  0  0
 31 74  2  0  0  0  0
 32 63  1  0  0  0  0
 32 68  1  0  0  0  0
 32 75  2  0  0  0  0
 33 36  1  0  0  0  0
 34 46  1  0  0  0  0
 35 62  1  0  0  0  0
 36 39  1  0  0  0  0
 37 40  1  0  0  0  0
 37 42  1  0  0  0  0
 38 41  1  0  0  0  0
 38 44  1  0  0  0  0
 39 45  1  0  0  0  0
 40 47  1  0  0  0  0
 41 48  1  0  0  0  0
 42 63  1  0  0  0  0
 43 47  1  0  0  0  0
 43 63  1  0  0  0  0
 44 69  1  0  0  0  0
 45 66  1  0  0  0  0
 46 62  1  0  0  0  0
 47 61  1  0  0  0  0
 48 54  1  0  0  0  0
 48 69  1  0  0  0  0
 49 58  1  0  0  0  0
 50 59  1  0  0  0  0
 51 59  1  0  0  0  0
 52 59  1  0  0  0  0
 53 70  1  0  0  0  0
 54 68  1  0  0  0  0
 55 56  1  0  0  0  0
 55 69  1  0  0  0  0
 56 77  1  0  0  0  0
 57 59  1  0  0  0  0
 57 67  1  0  0  0  0
 58 70  1  0  0  0  0
 60 61  1  0  0  0  0
M  CHG  2  69   1  70   1
M  ISO  4  32 100  56 101  68 100  77 101
M  END
> <Batch ID>
0007

> <Smiles>
CNC(C)C(=O)NC(C(=O)N1Cc2cc([101O:1][101CH2:1]CN3CCCC3C[100NH:0][100C:0](=O)N3CCCC(n4nc(-c5ccc(Oc6ccc(F)cc6F)cc5)c(C(N)=O)c4N)C3)ccc2CC1C(=O)NC1CCCc2ccccc21)C(C)(C)C

> <Shape>
0.201

> <Color>
0.070

> <Negative vol penalty>
0.000

$$$$

  -OEChem-04042320323D

 84 93  0     1  0  0  0  0  0999 V2000
  -29.1930  -34.7514   25.5453 C   0  0  0  0  0  0  0  0  0  0  0  0
  -29.4431  -33.5387   24.9110 C   0  0  0  0  0  0  0  0  0  0  0  0
  -23.7565   -9.7350   20.0824 C   0  0  0  0  0  0  0  0  0  0  0  0
  -23.8598  -10.2153   22.4480 C   0  0  0  0  0  0  0  0  0  0  0  0
  -27.9250  -35.0193   26.0595 C   0  0  0  0  0  0  0  0  0  0  0  0
  -28.4256  -32.5928   24.7915 C   0  0  0  0  0  0  0  0  0  0  0  0
  -27.5212  -28.7281   20.1276 C   0  0  0  0  0  0  0  0  0  0  0  0
  -29.4406  -20.3528   20.5111 C   0  0  0  0  0  0  0  0  0  0  0  0
  -29.5008  -18.9781   20.7397 C   0  0  0  0  0  0  0  0  0  0  0  0
  -23.1739   -8.4982   20.3590 C   0  0  0  0  0  0  0  0  0  0  0  0
  -23.2772   -8.9785   22.7245 C   0  0  0  0  0  0  0  0  0  0  0  0
  -27.8494  -27.3854   19.9448 C   0  0  0  0  0  0  0  0  0  0  0  0
  -20.1838   -7.6186   22.6805 C   0  0  0  0  0  0  0  0  0  0  0  0
  -19.1573   -7.5840   23.6243 C   0  0  0  0  0  0  0  0  0  0  0  0
  -25.6344  -26.7527   20.6608 C   0  0  0  0  0  0  0  0  0  0  0  0
  -28.2923  -20.6526   22.6155 C   0  0  0  0  0  0  0  0  0  0  0  0
  -20.4573   -6.0668   24.9827 C   0  0  0  0  0  0  0  0  0  0  0  0
  -24.0995  -10.5936   21.1269 C   0  0  0  0  0  0  0  0  0  0  0  0
  -24.0390  -13.0936   20.6228 C   0  0  0  0  0  0  0  0  0  0  0  0
  -26.8888  -34.0800   25.9377 C   0  0  0  0  0  0  0  0  0  0  0  0
  -26.2485  -29.0932   20.5895 C   0  0  0  0  0  0  0  0  0  0  0  0
  -27.1430  -32.8478   25.3057 C   0  0  0  0  0  0  0  0  0  0  0  0
  -25.2917  -28.1008   20.8462 C   0  0  0  0  0  0  0  0  0  0  0  0
  -28.3523  -19.2779   22.8441 C   0  0  0  0  0  0  0  0  0  0  0  0
  -28.8364  -21.1900   21.4490 C   0  0  0  0  0  0  0  0  0  0  0  0
  -28.9566  -18.4406   21.9062 C   0  0  0  0  0  0  0  0  0  0  0  0
  -22.9342   -8.1200   21.6800 C   0  0  0  0  0  0  0  0  0  0  0  0
  -26.9069  -26.3974   20.2142 C   0  0  0  0  0  0  0  0  0  0  0  0
  -21.3470   -6.8772   22.8878 C   0  0  0  0  0  0  0  0  0  0  0  0
  -19.2940   -6.8081   24.7754 C   0  0  0  0  0  0  0  0  0  0  0  0
  -21.4838   -6.1014   24.0388 C   0  0  0  0  0  0  0  0  0  0  0  0
  -24.7018  -11.8711   20.8419 C   0  0  0  0  0  0  0  0  0  0  0  0
  -25.0492  -13.9961   20.3963 C   0  0  0  0  0  0  0  0  0  0  0  0
  -28.7127  -23.2364   19.9636 C   0  0  0  0  0  0  0  0  0  0  0  0
  -22.6355  -13.3870   20.6241 C   0  0  0  0  0  0  0  0  0  0  0  0
  -25.1425  -30.6016   23.1595 C   0  0  0  0  0  0  0  0  0  0  0  0
  -22.3116  -30.3793   21.5916 C   0  0  0  0  0  0  0  0  0  0  0  0
  -20.4075  -28.7649   19.2645 C   0  0  0  0  0  0  0  0  0  0  0  0
  -30.0163  -16.1678   21.6669 C   0  0  0  0  0  0  0  0  0  0  0  0
  -25.5475  -34.3952   26.5510 C   0  0  0  0  0  0  0  0  0  0  0  0
  -25.9014  -30.5472   20.7560 C   0  0  0  0  0  0  0  0  0  0  0  0
  -23.9047  -28.4413   21.3246 C   0  0  0  0  0  0  0  0  0  0  0  0
  -24.4223  -33.4925   26.0520 C   0  0  0  0  0  0  0  0  0  0  0  0
  -29.9944  -13.2726   19.5946 C   0  0  0  0  0  0  0  0  0  0  0  0
  -24.8627  -32.0321   26.0677 C   0  0  0  0  0  0  0  0  0  0  0  0
  -28.5610  -12.7504   19.7163 C   0  0  0  0  0  0  0  0  0  0  0  0
  -29.0180  -24.8913   21.6660 C   0  0  0  0  0  0  0  0  0  0  0  0
  -30.5019  -13.8496   20.9149 C   0  0  0  0  0  0  0  0  0  0  0  0
  -28.6909  -23.5535   22.3034 C   0  0  0  0  0  0  0  0  0  0  0  0
  -28.2013  -14.3455   21.6433 C   0  0  0  0  0  0  0  0  0  0  0  0
  -26.0584  -31.8064   25.1345 C   0  0  1  0  0  0  0  0  0  0  0  0
  -28.5777  -24.7215   20.2229 C   0  0  2  0  0  0  0  0  0  1  0  0
  -24.7433  -30.7783   21.7218 C   0  0  1  0  0  0  0  0  0  0  0  0
  -27.6235  -13.8135   20.3217 C   0  0  2  0  0  0  0  0  0  0  0  0
  -27.7633  -18.7295   24.1031 C   0  0  0  0  0  0  0  0  0  0  0  0
  -18.1214  -28.7883   18.2300 C   0  0  0  0  0  0  0  0  0  0  0  0
  -21.1632  -29.0875   24.1061 C   0  0  0  0  0  0  0  0  0  0  0  0
  -19.2309  -28.2887   22.7290 C   0  0  0  0  0  0  0  0  0  0  0  0
  -19.6454  -30.7343   22.9930 C   0  0  0  0  0  0  0  0  0  0  0  0
  -21.5069  -29.2841   16.5662 C   0  0  0  0  0  0  0  0  0  0  0  0
  -21.1953  -29.3643   21.5393 C   0  0  1  0  0  0  0  0  0  0  0  0
  -19.5539  -29.2876   18.1232 C   0  0  2  0  0  0  0  0  0  0  0  0
  -20.3354  -29.3619   22.8347 C   0  0  0  0  0  0  0  0  0  0  0  0
  -26.0303  -11.9833   20.7616 N   0  0  0  0  0  0  0  0  0  0  0  0
  -26.2104  -13.2870   20.4895 N   0  0  0  0  0  0  0  0  0  0  0  0
  -28.7775  -22.5969   21.2162 N   0  0  0  0  0  0  0  0  0  0  0  0
  -23.6155  -29.8767   21.4780 N   0  0  0  0  0  0  0  0  0  0  0  0
  -29.5652  -14.8527   21.4262 N   0  0  0  0  0  0  0  0  0  0  0  0
  -25.0485  -15.3193   20.1284 N   0  0  0  0  0  0  0  0  0  0  0  0
  -21.7348  -12.3428   20.8747 N   0  0  0  0  0  0  0  0  0  0  0  0
  -29.0292  -17.0419   22.1207 N   0  0  0  0  0  0  0  0  0  0  0  0
  -25.6207  -31.7527   23.7561 N   0  0  0  0  0  0  0  0  0  0  0  0
  -20.4420  -29.6484   20.3226 N   0  0  0  0  0  0  0  0  0  0  0  0
  -20.1103  -28.8426   16.8143 N   0  3  0  0  0  0  0  0  0  0  0  0
  -28.6934  -22.7605   18.8375 O   0  0  0  0  0  0  0  0  0  0  0  0
  -22.1926  -14.5377   20.3931 O   0  0  0  0  0  0  0  0  0  0  0  0
  -25.0241  -29.5028   23.6889 O   0  0  0  0  0  0  0  0  0  0  0  0
  -22.0364  -31.5748   21.7211 O   0  0  0  0  0  0  0  0  0  0  0  0
  -20.9830  -27.6797   19.2231 O   0  0  0  0  0  0  0  0  0  0  0  0
  -31.1856  -16.5012   21.4580 O   0  0  0  0  0  0  0  0  0  0  0  0
  -22.3656   -6.9133   21.9502 O   0  0  0  0  0  0  0  0  0  0  0  0
  -27.2249  -25.0861   20.0373 O   0  0  0  0  0  0  0  0  0  1  0  0
  -18.3089   -6.7762   25.6823 F   0  0  0  0  0  0  0  0  0  0  0  0
  -22.5995   -5.3880   24.2440 F   0  0  0  0  0  0  0  0  0  0  0  0
  1  2  1  0  0  0  0
  1  5  2  0  0  0  0
  2  6  2  0  0  0  0
  3 10  2  0  0  0  0
  3 18  1  0  0  0  0
  4 11  1  0  0  0  0
  4 18  2  0  0  0  0
  5 20  1  0  0  0  0
  6 22  1  0  0  0  0
  7 12  2  0  0  0  0
  7 21  1  0  0  0  0
  8  9  2  0  0  0  0
  8 25  1  0  0  0  0
  9 26  1  0  0  0  0
 10 27  1  0  0  0  0
 11 27  2  0  0  0  0
 12 28  1  0  0  0  0
 13 14  2  0  0  0  0
 13 29  1  0  0  0  0
 14 30  1  0  0  0  0
 15 23  1  0  0  0  0
 15 28  2  0  0  0  0
 16 24  1  0  0  0  0
 16 25  2  0  0  0  0
 17 30  2  0  0  0  0
 17 31  1  0  0  0  0
 18 32  1  0  0  0  0
 19 32  1  0  0  0  0
 19 33  2  0  0  0  0
 19 35  1  0  0  0  0
 20 22  2  0  0  0  0
 20 40  1  0  0  0  0
 21 23  2  0  0  0  0
 21 41  1  0  0  0  0
 22 51  1  0  0  0  0
 23 42  1  0  0  0  0
 24 26  2  0  0  0  0
 24 55  1  0  0  0  0
 25 66  1  0  0  0  0
 26 71  1  0  0  0  0
 27 81  1  0  0  0  0
 28 82  1  0  0  0  0
 29 31  2  0  0  0  0
 29 81  1  0  0  0  0
 30 83  1  0  0  0  0
 31 84  1  0  0  0  0
 32 64  2  0  0  0  0
 33 65  1  0  0  0  0
 33 69  1  0  0  0  0
 34 52  1  0  0  0  0
 34 66  1  0  0  0  0
 34 75  2  0  0  0  0
 35 70  1  0  0  0  0
 35 76  2  0  0  0  0
 36 53  1  0  0  0  0
 36 72  1  0  0  0  0
 36 77  2  0  0  0  0
 37 61  1  0  0  0  0
 37 67  1  0  0  0  0
 37 78  2  0  0  0  0
 38 62  1  0  0  0  0
 38 73  1  0  0  0  0
 38 79  2  0  0  0  0
 39 68  1  0  0  0  0
 39 71  1  0  0  0  0
 39 80  2  0  0  0  0
 40 43  1  0  0  0  0
 41 53  1  0  0  0  0
 42 67  1  0  0  0  0
 43 45  1  0  0  0  0
 44 46  1  0  0  0  0
 44 48  1  0  0  0  0
 45 51  1  0  0  0  0
 46 54  1  0  0  0  0
 47 49  1  0  0  0  0
 47 52  1  0  0  0  0
 48 68  1  0  0  0  0
 49 66  1  0  0  0  0
 50 54  1  0  0  0  0
 50 68  1  0  0  0  0
 51 72  1  0  0  0  0
 52 82  1  0  0  0  0
 53 67  1  0  0  0  0
 54 65  1  0  0  0  0
 56 62  1  0  0  0  0
 57 63  1  0  0  0  0
 58 63  1  0  0  0  0
 59 63  1  0  0  0  0
 60 74  1  0  0  0  0
 61 63  1  0  0  0  0
 61 73  1  0  0  0  0
 62 74  1  0  0  0  0
 64 65  1  0  0  0  0
M  CHG  1  74   1
M  ISO  4  39 100  52 101  71 100  82 101
M  END
> <Batch ID>
0007

> <Smiles>
CNC(C)C(=O)NC(C(=O)N1Cc2cc([101O:1][101CH:1]3CCN(c4ccc([100NH:0][100C:0](=O)N5CCCC(n6nc(-c7ccc(Oc8ccc(F)cc8F)cc7)c(C(N)=O)c6N)C5)c(C)c4)C3=O)ccc2CC1C(=O)NC1CCCc2ccccc21)C(C)(C)C

> <Shape>
0.371

> <Color>
0.169

> <Negative vol penalty>
0.000

$$$$

  -OEChem-04042320323D

 78 86  0     1  0  0  0  0  0999 V2000
  -18.7570  -27.7116   26.2306 C   0  0  0  0  0  0  0  0  0  0  0  0
  -20.1246  -27.4788   26.1271 C   0  0  0  0  0  0  0  0  0  0  0  0
  -25.9928  -13.4467   22.0115 C   0  0  0  0  0  0  0  0  0  0  0  0
  -24.6837  -13.1658   20.0004 C   0  0  0  0  0  0  0  0  0  0  0  0
  -18.0015  -27.9429   25.0818 C   0  0  0  0  0  0  0  0  0  0  0  0
  -20.7374  -27.4760   24.8746 C   0  0  0  0  0  0  0  0  0  0  0  0
  -26.3906  -29.4150   23.5376 C   0  0  0  0  0  0  0  0  0  0  0  0
  -25.2757  -12.4178   22.6220 C   0  0  0  0  0  0  0  0  0  0  0  0
  -23.9666  -12.1368   20.6109 C   0  0  0  0  0  0  0  0  0  0  0  0
  -27.5977  -28.7391   23.3649 C   0  0  0  0  0  0  0  0  0  0  0  0
  -22.0333   -9.1938   21.5157 C   0  0  0  0  0  0  0  0  0  0  0  0
  -21.8059   -8.0332   20.7761 C   0  0  0  0  0  0  0  0  0  0  0  0
  -27.2374  -28.7174   20.9798 C   0  0  0  0  0  0  0  0  0  0  0  0
  -24.1896   -7.6982   20.5691 C   0  0  0  0  0  0  0  0  0  0  0  0
  -25.6968  -13.8207   20.7007 C   0  0  0  0  0  0  0  0  0  0  0  0
  -27.6199  -14.7652   19.3159 C   0  0  0  0  0  0  0  0  0  0  0  0
  -18.6070  -27.9525   23.8154 C   0  0  0  0  0  0  0  0  0  0  0  0
  -25.5912  -29.7381   22.4317 C   0  0  0  0  0  0  0  0  0  0  0  0
  -19.9891  -27.7063   23.7077 C   0  0  0  0  0  0  0  0  0  0  0  0
  -26.0218  -29.3996   21.1409 C   0  0  0  0  0  0  0  0  0  0  0  0
  -24.2626  -11.7628   21.9217 C   0  0  0  0  0  0  0  0  0  0  0  0
  -28.0199  -28.3876   22.0861 C   0  0  0  0  0  0  0  0  0  0  0  0
  -23.3388   -9.6066   21.7819 C   0  0  0  0  0  0  0  0  0  0  0  0
  -22.8841   -7.2854   20.3028 C   0  0  0  0  0  0  0  0  0  0  0  0
  -24.4170   -8.8588   21.3087 C   0  0  0  0  0  0  0  0  0  0  0  0
  -26.4368  -14.8839   20.0697 C   0  0  0  0  0  0  0  0  0  0  0  0
  -27.9185  -16.0522   18.9407 C   0  0  0  0  0  0  0  0  0  0  0  0
  -28.3807  -13.5960   18.9845 C   0  0  0  0  0  0  0  0  0  0  0  0
  -22.6566  -28.9678   21.4838 C   0  0  0  0  0  0  0  0  0  0  0  0
  -23.2577  -31.1453   19.1557 C   0  0  0  0  0  0  0  0  0  0  0  0
  -25.5665  -32.8331   17.2936 C   0  0  0  0  0  0  0  0  0  0  0  0
  -28.4985  -21.3003   19.9110 C   0  0  0  0  0  0  0  0  0  0  0  0
  -17.7410  -28.1602   22.5982 C   0  0  0  0  0  0  0  0  0  0  0  0
  -24.3047  -30.4910   22.6327 C   0  0  0  0  0  0  0  0  0  0  0  0
  -25.2100  -29.7414   19.9191 C   0  0  0  0  0  0  0  0  0  0  0  0
  -18.5319  -28.5121   21.3408 C   0  0  0  0  0  0  0  0  0  0  0  0
  -25.1981  -20.2976   19.2436 C   0  0  0  0  0  0  0  0  0  0  0  0
  -19.7295  -27.5803   21.1853 C   0  0  0  0  0  0  0  0  0  0  0  0
  -25.3180  -18.7770   19.3394 C   0  0  0  0  0  0  0  0  0  0  0  0
  -26.0151  -21.0065   20.3253 C   0  0  0  0  0  0  0  0  0  0  0  0
  -27.6342  -23.3253   21.1668 C   0  0  0  0  0  0  0  0  0  0  0  0
  -29.3400  -23.5722   19.4012 C   0  0  0  0  0  0  0  0  0  0  0  0
  -27.5569  -19.0770   20.4634 C   0  0  0  0  0  0  0  0  0  0  0  0
  -28.5611  -24.0036   22.1704 C   0  0  0  0  0  0  0  0  0  0  0  0
  -30.2994  -24.2291   20.3802 C   0  0  0  0  0  0  0  0  0  0  0  0
  -20.6945  -27.7199   22.3689 C   0  0  1  0  0  0  0  0  0  0  0  0
  -23.3227  -30.3147   21.4785 C   0  0  1  0  0  0  0  0  0  0  0  0
  -26.7933  -18.3391   19.3529 C   0  0  1  0  0  0  0  0  0  0  0  0
  -25.7543  -34.5181   15.4435 C   0  0  0  0  0  0  0  0  0  0  0  0
  -22.5071  -28.9954   17.1248 C   0  0  0  0  0  0  0  0  0  0  0  0
  -23.6032  -30.3845   15.3536 C   0  0  0  0  0  0  0  0  0  0  0  0
  -21.6345  -31.2790   16.5973 C   0  0  0  0  0  0  0  0  0  0  0  0
  -27.0154  -34.7458   19.0259 C   0  0  0  0  0  0  0  0  0  0  0  0
  -30.3853  -25.6899   22.4015 C   0  0  0  0  0  0  0  0  0  0  0  0
  -29.6219  -26.8691   22.9714 C   0  0  0  0  0  0  0  0  0  1  0  0
  -23.8643  -31.0936   17.7743 C   0  0  1  0  0  0  0  0  0  0  0  0
  -25.7008  -34.3052   16.9484 C   0  0  2  0  0  0  0  0  0  0  0  0
  -22.9169  -30.4298   16.7355 C   0  0  0  0  0  0  0  0  0  0  0  0
  -26.0129  -16.1466   20.1685 N   0  0  0  0  0  0  0  0  0  0  0  0
  -26.9347  -16.8332   19.4721 N   0  0  0  0  0  0  0  0  0  0  0  0
  -23.9566  -30.4724   20.1680 N   0  0  0  0  0  0  0  0  0  0  0  0
  -27.4042  -20.5271   20.3267 N   0  0  0  0  0  0  0  0  0  0  0  0
  -28.4023  -22.6882   20.0903 N   0  0  0  0  0  0  0  0  0  0  0  0
  -28.9241  -16.5807   18.2115 N   0  0  0  0  0  0  0  0  0  0  0  0
  -27.9324  -12.3527   19.4509 N   0  0  0  0  0  0  0  0  0  0  0  0
  -21.4947  -28.9177   22.2300 N   0  0  0  0  0  0  0  0  0  0  0  0
  -24.2471  -32.4623   17.4451 N   0  0  0  0  0  0  0  0  0  0  0  0
  -29.4992  -24.9397   21.4469 N   0  3  0  0  0  0  0  0  0  0  0  0
  -26.9449  -34.8663   17.5469 N   0  3  0  0  0  0  0  0  0  0  0  0
  -29.4361  -13.6541   18.3091 O   0  0  0  0  0  0  0  0  0  0  0  0
  -23.1588  -28.0430   20.8559 O   0  0  0  0  0  0  0  0  0  0  0  0
  -22.2063  -31.7660   19.3317 O   0  0  0  0  0  0  0  0  0  0  0  0
  -26.5350  -32.0859   17.4130 O   0  0  0  0  0  0  0  0  0  0  0  0
  -29.5034  -20.7806   19.4095 O   0  0  0  0  0  0  0  0  0  0  0  0
  -23.5629  -10.7586   22.5170 O   0  0  0  0  0  0  0  0  0  0  0  0
  -29.2058  -27.7226   21.9135 O   0  0  0  0  0  0  0  0  0  1  0  0
  -22.6656   -6.1701   19.5939 F   0  0  0  0  0  0  0  0  0  0  0  0
  -25.6734   -9.2498   21.5623 F   0  0  0  0  0  0  0  0  0  0  0  0
  1  2  1  0  0  0  0
  1  5  2  0  0  0  0
  2  6  2  0  0  0  0
  3  8  2  0  0  0  0
  3 15  1  0  0  0  0
  4  9  1  0  0  0  0
  4 15  2  0  0  0  0
  5 17  1  0  0  0  0
  6 19  1  0  0  0  0
  7 10  2  0  0  0  0
  7 18  1  0  0  0  0
  8 21  1  0  0  0  0
  9 21  2  0  0  0  0
 10 22  1  0  0  0  0
 11 12  2  0  0  0  0
 11 23  1  0  0  0  0
 12 24  1  0  0  0  0
 13 20  1  0  0  0  0
 13 22  2  0  0  0  0
 14 24  2  0  0  0  0
 14 25  1  0  0  0  0
 15 26  1  0  0  0  0
 16 26  1  0  0  0  0
 16 27  2  0  0  0  0
 16 28  1  0  0  0  0
 17 19  2  0  0  0  0
 17 33  1  0  0  0  0
 18 20  2  0  0  0  0
 18 34  1  0  0  0  0
 19 46  1  0  0  0  0
 20 35  1  0  0  0  0
 21 75  1  0  0  0  0
 22 76  1  0  0  0  0
 23 25  2  0  0  0  0
 23 75  1  0  0  0  0
 24 77  1  0  0  0  0
 25 78  1  0  0  0  0
 26 59  2  0  0  0  0
 27 60  1  0  0  0  0
 27 64  1  0  0  0  0
 28 65  1  0  0  0  0
 28 70  2  0  0  0  0
 29 47  1  0  0  0  0
 29 66  1  0  0  0  0
 29 71  2  0  0  0  0
 30 56  1  0  0  0  0
 30 61  1  0  0  0  0
 30 72  2  0  0  0  0
 31 57  1  0  0  0  0
 31 67  1  0  0  0  0
 31 73  2  0  0  0  0
 32 62  1  0  0  0  0
 32 63  1  0  0  0  0
 32 74  2  0  0  0  0
 33 36  1  0  0  0  0
 34 47  1  0  0  0  0
 35 61  1  0  0  0  0
 36 38  1  0  0  0  0
 37 39  1  0  0  0  0
 37 40  1  0  0  0  0
 38 46  1  0  0  0  0
 39 48  1  0  0  0  0
 40 62  1  0  0  0  0
 41 44  1  0  0  0  0
 41 63  1  0  0  0  0
 42 45  1  0  0  0  0
 42 63  1  0  0  0  0
 43 48  1  0  0  0  0
 43 62  1  0  0  0  0
 44 68  1  0  0  0  0
 45 68  1  0  0  0  0
 46 66  1  0  0  0  0
 47 61  1  0  0  0  0
 48 60  1  0  0  0  0
 49 57  1  0  0  0  0
 50 58  1  0  0  0  0
 51 58  1  0  0  0  0
 52 58  1  0  0  0  0
 53 69  1  0  0  0  0
 54 55  1  0  0  0  0
 54 68  1  0  0  0  0
 55 76  1  0  0  0  0
 56 58  1  0  0  0  0
 56 67  1  0  0  0  0
 57 69  1  0  0  0  0
 59 60  1  0  0  0  0
M  CHG  2  68   1  69   1
M  ISO  4  32 100  55 101  63 100  76 101
M  END
> <Batch ID>
0007

> <Smiles>
CNC(C)C(=O)NC(C(=O)N1Cc2cc([101O:1][101CH2:1]CN3CC[100N:0]([100C:0](=O)N4CCCC(n5nc(-c6ccc(Oc7ccc(F)cc7F)cc6)c(C(N)=O)c5N)C4)CC3)ccc2CC1C(=O)NC1CCCc2ccccc21)C(C)(C)C

> <Shape>
0.253

> <Color>
0.093

> <Negative vol penalty>
0.000

$$$$

  -OEChem-04042320323D

 82 90  0     1  0  0  0  0  0999 V2000
  -32.4182  -21.9564   22.9847 C   0  0  0  0  0  0  0  0  0  0  0  0
  -31.2303  -22.3789   23.5729 C   0  0  0  0  0  0  0  0  0  0  0  0
  -18.5662  -28.0353   23.6282 C   0  0  0  0  0  0  0  0  0  0  0  0
  -30.2456  -26.8660   18.6896 C   0  0  0  0  0  0  0  0  0  0  0  0
  -29.5225  -25.3745   20.4473 C   0  0  0  0  0  0  0  0  0  0  0  0
  -32.3911  -21.3018   21.7540 C   0  0  0  0  0  0  0  0  0  0  0  0
  -30.0146  -22.1479   22.9300 C   0  0  0  0  0  0  0  0  0  0  0  0
  -23.1309  -20.7531   24.3388 C   0  0  0  0  0  0  0  0  0  0  0  0
  -18.0708  -26.8606   23.0624 C   0  0  0  0  0  0  0  0  0  0  0  0
  -19.7528  -28.5926   23.1516 C   0  0  0  0  0  0  0  0  0  0  0  0
  -31.5579  -26.4227   18.8532 C   0  0  0  0  0  0  0  0  0  0  0  0
  -30.8349  -24.9312   20.6110 C   0  0  0  0  0  0  0  0  0  0  0  0
  -21.8529  -21.2177   24.0310 C   0  0  0  0  0  0  0  0  0  0  0  0
  -33.4114  -23.7409   17.9558 C   0  0  0  0  0  0  0  0  0  0  0  0
  -34.1432  -23.4436   16.8063 C   0  0  0  0  0  0  0  0  0  0  0  0
  -21.9215  -20.0070   21.9457 C   0  0  0  0  0  0  0  0  0  0  0  0
  -35.7731  -25.1217   17.4098 C   0  0  0  0  0  0  0  0  0  0  0  0
  -29.2278  -26.3420   19.4867 C   0  0  0  0  0  0  0  0  0  0  0  0
  -26.8936  -26.2629   18.4606 C   0  0  0  0  0  0  0  0  0  0  0  0
  -31.1737  -21.0541   21.1003 C   0  0  0  0  0  0  0  0  0  0  0  0
  -23.8193  -19.9193   23.4458 C   0  0  0  0  0  0  0  0  0  0  0  0
  -29.9714  -21.4906   21.6887 C   0  0  0  0  0  0  0  0  0  0  0  0
  -23.2070  -19.5311   22.2456 C   0  0  0  0  0  0  0  0  0  0  0  0
  -18.7620  -26.2431   22.0200 C   0  0  0  0  0  0  0  0  0  0  0  0
  -20.4440  -27.9751   22.1092 C   0  0  0  0  0  0  0  0  0  0  0  0
  -31.8526  -25.4553   19.8139 C   0  0  0  0  0  0  0  0  0  0  0  0
  -21.2492  -20.8471   22.8330 C   0  0  0  0  0  0  0  0  0  0  0  0
  -33.8603  -24.7288   18.8324 C   0  0  0  0  0  0  0  0  0  0  0  0
  -35.3241  -24.1339   16.5333 C   0  0  0  0  0  0  0  0  0  0  0  0
  -35.0412  -25.4191   18.5594 C   0  0  0  0  0  0  0  0  0  0  0  0
  -19.9486  -26.8003   21.5434 C   0  0  0  0  0  0  0  0  0  0  0  0
  -27.8721  -26.7999   19.3185 C   0  0  0  0  0  0  0  0  0  0  0  0
  -25.7853  -27.0464   18.6707 C   0  0  0  0  0  0  0  0  0  0  0  0
  -26.9789  -25.1548   17.5548 C   0  0  0  0  0  0  0  0  0  0  0  0
  -26.5325  -20.1440   21.8051 C   0  0  0  0  0  0  0  0  0  0  0  0
  -25.8672  -17.0638   21.0355 C   0  0  0  0  0  0  0  0  0  0  0  0
  -23.5234  -14.6103   20.6696 C   0  0  0  0  0  0  0  0  0  0  0  0
  -22.2748  -29.7053   22.0781 C   0  0  0  0  0  0  0  0  0  0  0  0
  -31.1985  -20.3850   19.7489 C   0  0  0  0  0  0  0  0  0  0  0  0
  -25.1864  -19.4050   23.8047 C   0  0  0  0  0  0  0  0  0  0  0  0
  -23.8955  -18.6215   21.2622 C   0  0  0  0  0  0  0  0  0  0  0  0
  -29.8390  -19.8461   19.3111 C   0  0  0  0  0  0  0  0  0  0  0  0
  -25.2658  -31.4136   21.1767 C   0  0  0  0  0  0  0  0  0  0  0  0
  -28.7507  -20.8890   19.5454 C   0  0  0  0  0  0  0  0  0  0  0  0
  -26.1300  -30.3214   20.5423 C   0  0  0  0  0  0  0  0  0  0  0  0
  -24.4480  -30.8791   22.3510 C   0  0  0  0  0  0  0  0  0  0  0  0
  -24.5014  -28.5992   21.4191 C   0  0  0  0  0  0  0  0  0  0  0  0
  -28.6308  -21.2364   21.0342 C   0  0  1  0  0  0  0  0  0  0  0  0
  -26.0019  -18.9767   22.5885 C   0  0  1  0  0  0  0  0  0  0  0  0
  -25.2945  -29.0748   20.1909 C   0  0  2  0  0  0  0  0  0  0  0  0
  -23.2769  -12.2070   19.9908 C   0  0  0  0  0  0  0  0  0  0  0  0
  -26.1610  -17.8637   18.1057 C   0  0  0  0  0  0  0  0  0  0  0  0
  -24.9982  -15.7365   17.4805 C   0  0  0  0  0  0  0  0  0  0  0  0
  -27.1778  -15.6551   18.6911 C   0  0  0  0  0  0  0  0  0  0  0  0
  -22.4811  -13.8446   23.3316 C   0  0  0  0  0  0  0  0  0  0  0  0
  -18.2260  -24.9798   21.4135 C   0  0  0  0  0  0  0  0  0  0  0  0
  -18.6379  -22.5519   20.9957 C   0  0  0  0  0  0  0  0  0  0  0  0
  -19.6924  -21.4734   21.1477 C   0  0  0  0  0  0  0  0  0  1  0  0
  -25.0974  -16.3801   19.9314 C   0  0  1  0  0  0  0  0  0  0  0  0
  -23.4896  -13.1701   21.1484 C   0  0  2  0  0  0  0  0  0  0  0  0
  -25.8461  -16.4276   18.5696 C   0  0  0  0  0  0  0  0  0  0  0  0
  -27.4248  -27.8441   20.0212 N   0  0  0  0  0  0  0  0  0  0  0  0
  -26.1531  -27.9695   19.6051 N   0  0  0  0  0  0  0  0  0  0  0  0
  -25.2336  -18.1501   21.6555 N   0  0  0  0  0  0  0  0  0  0  0  0
  -23.6792  -29.7014   21.9426 N   0  0  0  0  0  0  0  0  0  0  0  0
  -24.5418  -27.0291   18.1455 N   0  0  0  0  0  0  0  0  0  0  0  0
  -28.1921  -24.4591   17.4625 N   0  0  0  0  0  0  0  0  0  0  0  0
  -21.6487  -28.5439   21.6266 N   0  0  0  0  0  0  0  0  0  0  0  0
  -27.9117  -20.1971   21.7393 N   0  0  0  0  0  0  0  0  0  0  0  0
  -24.8101  -15.0317   20.4087 N   0  0  0  0  0  0  0  0  0  0  0  0
  -22.3852  -12.9764   22.1300 N   0  3  0  0  0  0  0  0  0  0  0  0
  -19.1647  -23.8315   21.5337 N   0  3  0  0  0  0  0  0  0  0  0  0
  -26.0131  -24.8025   16.8361 O   0  0  0  0  0  0  0  0  0  0  0  0
  -25.7485  -20.9368   21.2967 O   0  0  0  0  0  0  0  0  0  0  0  0
  -26.9864  -16.6449   21.3414 O   0  0  0  0  0  0  0  0  0  0  0  0
  -22.5095  -15.2920   20.5367 O   0  0  0  0  0  0  0  0  0  0  0  0
  -21.6695  -30.6789   22.5339 O   0  0  0  0  0  0  0  0  0  0  0  0
  -33.1330  -25.0223   19.9737 O   0  0  0  0  0  0  0  0  0  0  0  0
  -20.0021  -21.2997   22.5299 O   0  0  0  0  0  0  0  0  0  1  0  0
  -36.0276  -23.8472   15.4301 F   0  0  0  0  0  0  0  0  0  0  0  0
  -35.4782  -26.3683   19.3984 F   0  0  0  0  0  0  0  0  0  0  0  0
  -20.6120  -26.2064   20.5398 F   0  0  0  0  0  0  0  0  0  0  0  0
  1  2  1  0  0  0  0
  1  6  2  0  0  0  0
  2  7  2  0  0  0  0
  3  9  2  0  0  0  0
  3 10  1  0  0  0  0
  4 11  2  0  0  0  0
  4 18  1  0  0  0  0
  5 12  1  0  0  0  0
  5 18  2  0  0  0  0
  6 20  1  0  0  0  0
  7 22  1  0  0  0  0
  8 13  2  0  0  0  0
  8 21  1  0  0  0  0
  9 24  1  0  0  0  0
 10 25  2  0  0  0  0
 11 26  1  0  0  0  0
 12 26  2  0  0  0  0
 13 27  1  0  0  0  0
 14 15  2  0  0  0  0
 14 28  1  0  0  0  0
 15 29  1  0  0  0  0
 16 23  1  0  0  0  0
 16 27  2  0  0  0  0
 17 29  2  0  0  0  0
 17 30  1  0  0  0  0
 18 32  1  0  0  0  0
 19 32  1  0  0  0  0
 19 33  2  0  0  0  0
 19 34  1  0  0  0  0
 20 22  2  0  0  0  0
 20 39  1  0  0  0  0
 21 23  2  0  0  0  0
 21 40  1  0  0  0  0
 22 48  1  0  0  0  0
 23 41  1  0  0  0  0
 24 31  2  0  0  0  0
 24 56  1  0  0  0  0
 25 31  1  0  0  0  0
 25 68  1  0  0  0  0
 26 78  1  0  0  0  0
 27 79  1  0  0  0  0
 28 30  2  0  0  0  0
 28 78  1  0  0  0  0
 29 80  1  0  0  0  0
 30 81  1  0  0  0  0
 31 82  1  0  0  0  0
 32 62  2  0  0  0  0
 33 63  1  0  0  0  0
 33 66  1  0  0  0  0
 34 67  1  0  0  0  0
 34 73  2  0  0  0  0
 35 49  1  0  0  0  0
 35 69  1  0  0  0  0
 35 74  2  0  0  0  0
 36 59  1  0  0  0  0
 36 64  1  0  0  0  0
 36 75  2  0  0  0  0
 37 60  1  0  0  0  0
 37 70  1  0  0  0  0
 37 76  2  0  0  0  0
 38 65  1  0  0  0  0
 38 68  1  0  0  0  0
 38 77  2  0  0  0  0
 39 42  1  0  0  0  0
 40 49  1  0  0  0  0
 41 64  1  0  0  0  0
 42 44  1  0  0  0  0
 43 45  1  0  0  0  0
 43 46  1  0  0  0  0
 44 48  1  0  0  0  0
 45 50  1  0  0  0  0
 46 65  1  0  0  0  0
 47 50  1  0  0  0  0
 47 65  1  0  0  0  0
 48 69  1  0  0  0  0
 49 64  1  0  0  0  0
 50 63  1  0  0  0  0
 51 60  1  0  0  0  0
 52 61  1  0  0  0  0
 53 61  1  0  0  0  0
 54 61  1  0  0  0  0
 55 71  1  0  0  0  0
 56 72  1  0  0  0  0
 57 58  1  0  0  0  0
 57 72  1  0  0  0  0
 58 79  1  0  0  0  0
 59 61  1  0  0  0  0
 59 70  1  0  0  0  0
 60 71  1  0  0  0  0
 62 63  1  0  0  0  0
M  CHG  2  71   1  72   1
M  ISO  4  38 100  58 101  68 100  79 101
M  END
> <Batch ID>
0007

> <Smiles>
CNC(C)C(=O)NC(C(=O)N1Cc2cc([101O:1][101CH2:1]CNCc3cccc([100NH:0][100C:0](=O)N4CCCC(n5nc(-c6ccc(Oc7ccc(F)cc7F)cc6)c(C(N)=O)c5N)C4)c3F)ccc2CC1C(=O)NC1CCCc2ccccc21)C(C)(C)C

> <Shape>
0.208

> <Color>
0.086

> <Negative vol penalty>
0.000

$$$$

  -OEChem-04042320323D

 75 82  0     1  0  0  0  0  0999 V2000
  -21.6576  -26.0082   22.2550 C   0  0  0  0  0  0  0  0  0  0  0  0
  -22.5356  -24.9529   22.0299 C   0  0  0  0  0  0  0  0  0  0  0  0
  -23.8221  -10.0103   22.1423 C   0  0  0  0  0  0  0  0  0  0  0  0
  -24.3934  -11.4271   24.0141 C   0  0  0  0  0  0  0  0  0  0  0  0
  -22.0394  -27.3110   21.9374 C   0  0  0  0  0  0  0  0  0  0  0  0
  -23.7956  -25.1996   21.4859 C   0  0  0  0  0  0  0  0  0  0  0  0
  -27.4742  -22.6745   23.8810 C   0  0  0  0  0  0  0  0  0  0  0  0
  -23.3018   -9.0598   23.0206 C   0  0  0  0  0  0  0  0  0  0  0  0
  -23.8731  -10.4766   24.8924 C   0  0  0  0  0  0  0  0  0  0  0  0
  -27.6174  -21.3207   23.5801 C   0  0  0  0  0  0  0  0  0  0  0  0
  -24.8491   -7.5351   26.2437 C   0  0  0  0  0  0  0  0  0  0  0  0
  -25.5983   -7.2219   27.3778 C   0  0  0  0  0  0  0  0  0  0  0  0
  -29.4494  -21.8491   22.1024 C   0  0  0  0  0  0  0  0  0  0  0  0
  -23.7739   -7.9504   28.7842 C   0  0  0  0  0  0  0  0  0  0  0  0
  -24.3679  -11.1940   22.6391 C   0  0  0  0  0  0  0  0  0  0  0  0
  -24.2169  -13.2470   21.1323 C   0  0  0  0  0  0  0  0  0  0  0  0
  -23.3083  -27.5750   21.3982 C   0  0  0  0  0  0  0  0  0  0  0  0
  -28.3119  -23.6285   23.2855 C   0  0  0  0  0  0  0  0  0  0  0  0
  -24.1942  -26.5070   21.1594 C   0  0  0  0  0  0  0  0  0  0  0  0
  -29.3165  -23.2141   22.3994 C   0  0  0  0  0  0  0  0  0  0  0  0
  -23.3273   -9.2929   24.3956 C   0  0  0  0  0  0  0  0  0  0  0  0
  -28.6032  -20.9081   22.6885 C   0  0  0  0  0  0  0  0  0  0  0  0
  -23.5623   -8.0560   26.3798 C   0  0  0  0  0  0  0  0  0  0  0  0
  -25.0607   -7.4295   28.6481 C   0  0  0  0  0  0  0  0  0  0  0  0
  -23.0247   -8.2636   27.6500 C   0  0  0  0  0  0  0  0  0  0  0  0
  -24.9060  -12.1760   21.7323 C   0  0  0  0  0  0  0  0  0  0  0  0
  -25.1651  -13.8790   20.3656 C   0  0  0  0  0  0  0  0  0  0  0  0
  -22.8425  -13.6357   21.2570 C   0  0  0  0  0  0  0  0  0  0  0  0
  -27.8632  -26.1195   21.3628 C   0  0  0  0  0  0  0  0  0  0  0  0
  -31.0302  -26.5937   21.8798 C   0  0  0  0  0  0  0  0  0  0  0  0
  -34.0557  -25.2690   22.7393 C   0  0  0  0  0  0  0  0  0  0  0  0
  -31.1355  -14.1863   20.6987 C   0  0  0  0  0  0  0  0  0  0  0  0
  -23.6583  -28.9942   21.0268 C   0  0  0  0  0  0  0  0  0  0  0  0
  -28.1620  -25.0822   23.6411 C   0  0  0  0  0  0  0  0  0  0  0  0
  -30.2547  -24.1964   21.7488 C   0  0  0  0  0  0  0  0  0  0  0  0
  -25.1521  -29.2144   20.8024 C   0  0  0  0  0  0  0  0  0  0  0  0
  -29.2021  -13.0226   17.9448 C   0  0  0  0  0  0  0  0  0  0  0  0
  -25.7287  -28.1085   19.9240 C   0  0  0  0  0  0  0  0  0  0  0  0
  -27.8196  -12.7703   18.5491 C   0  0  0  0  0  0  0  0  0  0  0  0
  -30.3192  -12.6648   18.9225 C   0  0  0  0  0  0  0  0  0  0  0  0
  -28.8331  -13.0581   20.8488 C   0  0  0  0  0  0  0  0  0  0  0  0
  -25.5789  -26.7373   20.5939 C   0  0  1  0  0  0  0  0  0  0  0  0
  -28.7355  -26.0186   22.5820 C   0  0  1  0  0  0  0  0  0  0  0  0
  -27.6733  -13.4569   19.9203 C   0  0  2  0  0  0  0  0  0  0  0  0
  -36.4673  -25.8955   23.0376 C   0  0  0  0  0  0  0  0  0  0  0  0
  -31.3900  -26.6419   18.8502 C   0  0  0  0  0  0  0  0  0  0  0  0
  -33.8462  -26.3127   19.2065 C   0  0  0  0  0  0  0  0  0  0  0  0
  -32.7232  -28.3590   20.0866 C   0  0  0  0  0  0  0  0  0  0  0  0
  -34.0184  -24.5131   25.6005 C   0  0  0  0  0  0  0  0  0  0  0  0
  -31.6127  -17.1488   22.1275 C   0  0  0  0  0  0  0  0  0  0  0  0
  -30.2124  -17.6705   22.4514 C   0  0  0  0  0  0  0  0  0  0  0  0
  -31.8074  -15.6961   22.5503 C   0  0  0  0  0  0  0  0  0  0  0  0
  -30.0554  -19.1337   22.0572 C   0  0  0  0  0  0  0  0  0  1  0  0
  -32.3032  -26.1339   21.2112 C   0  0  1  0  0  0  0  0  0  0  0  0
  -35.1174  -25.7346   23.7193 C   0  0  2  0  0  0  0  0  0  0  0  0
  -32.5469  -26.8433   19.8492 C   0  0  0  0  0  0  0  0  0  0  0  0
  -26.1927  -12.1272   21.3772 N   0  0  0  0  0  0  0  0  0  0  0  0
  -26.3196  -13.1754   20.5457 N   0  0  0  0  0  0  0  0  0  0  0  0
  -30.0641  -25.6073   22.1236 N   0  0  0  0  0  0  0  0  0  0  0  0
  -30.1222  -13.3497   20.2023 N   0  0  0  0  0  0  0  0  0  0  0  0
  -25.1157  -14.9623   19.5616 N   0  0  0  0  0  0  0  0  0  0  0  0
  -22.0059  -12.8763   22.0863 N   0  0  0  0  0  0  0  0  0  0  0  0
  -26.5815  -26.5654   21.6233 N   0  0  0  0  0  0  0  0  0  0  0  0
  -33.3704  -26.3301   22.1864 N   0  0  0  0  0  0  0  0  0  0  0  0
  -30.8653  -14.8020   21.9147 N   0  0  0  0  0  0  0  0  0  0  0  0
  -35.2654  -24.7508   24.8288 N   0  3  0  0  0  0  0  0  0  0  0  0
  -22.3663  -14.6175   20.6382 O   0  0  0  0  0  0  0  0  0  0  0  0
  -28.3196  -25.8167   20.2665 O   0  0  0  0  0  0  0  0  0  0  0  0
  -30.9009  -27.7828   22.1813 O   0  0  0  0  0  0  0  0  0  0  0  0
  -33.8568  -24.0828   22.4866 O   0  0  0  0  0  0  0  0  0  0  0  0
  -32.1998  -14.3751   20.0998 O   0  0  0  0  0  0  0  0  0  0  0  0
  -22.8195   -8.3657   25.2529 O   0  0  0  0  0  0  0  0  0  0  0  0
  -28.7447  -19.5874   22.3925 O   0  0  0  0  0  0  0  0  0  1  0  0
  -25.7797   -7.1273   29.7370 F   0  0  0  0  0  0  0  0  0  0  0  0
  -21.7886   -8.7626   27.7871 F   0  0  0  0  0  0  0  0  0  0  0  0
  1  2  1  0  0  0  0
  1  5  2  0  0  0  0
  2  6  2  0  0  0  0
  3  8  2  0  0  0  0
  3 15  1  0  0  0  0
  4  9  1  0  0  0  0
  4 15  2  0  0  0  0
  5 17  1  0  0  0  0
  6 19  1  0  0  0  0
  7 10  2  0  0  0  0
  7 18  1  0  0  0  0
  8 21  1  0  0  0  0
  9 21  2  0  0  0  0
 10 22  1  0  0  0  0
 11 12  2  0  0  0  0
 11 23  1  0  0  0  0
 12 24  1  0  0  0  0
 13 20  1  0  0  0  0
 13 22  2  0  0  0  0
 14 24  2  0  0  0  0
 14 25  1  0  0  0  0
 15 26  1  0  0  0  0
 16 26  1  0  0  0  0
 16 27  2  0  0  0  0
 16 28  1  0  0  0  0
 17 19  2  0  0  0  0
 17 33  1  0  0  0  0
 18 20  2  0  0  0  0
 18 34  1  0  0  0  0
 19 42  1  0  0  0  0
 20 35  1  0  0  0  0
 21 72  1  0  0  0  0
 22 73  1  0  0  0  0
 23 25  2  0  0  0  0
 23 72  1  0  0  0  0
 24 74  1  0  0  0  0
 25 75  1  0  0  0  0
 26 57  2  0  0  0  0
 27 58  1  0  0  0  0
 27 61  1  0  0  0  0
 28 62  1  0  0  0  0
 28 67  2  0  0  0  0
 29 43  1  0  0  0  0
 29 63  1  0  0  0  0
 29 68  2  0  0  0  0
 30 54  1  0  0  0  0
 30 59  1  0  0  0  0
 30 69  2  0  0  0  0
 31 55  1  0  0  0  0
 31 64  1  0  0  0  0
 31 70  2  0  0  0  0
 32 60  1  0  0  0  0
 32 65  1  0  0  0  0
 32 71  2  0  0  0  0
 33 36  1  0  0  0  0
 34 43  1  0  0  0  0
 35 59  1  0  0  0  0
 36 38  1  0  0  0  0
 37 39  1  0  0  0  0
 37 40  1  0  0  0  0
 38 42  1  0  0  0  0
 39 44  1  0  0  0  0
 40 60  1  0  0  0  0
 41 44  1  0  0  0  0
 41 60  1  0  0  0  0
 42 63  1  0  0  0  0
 43 59  1  0  0  0  0
 44 58  1  0  0  0  0
 45 55  1  0  0  0  0
 46 56  1  0  0  0  0
 47 56  1  0  0  0  0
 48 56  1  0  0  0  0
 49 66  1  0  0  0  0
 50 51  1  0  0  0  0
 50 52  1  0  0  0  0
 51 53  1  0  0  0  0
 52 65  1  0  0  0  0
 53 73  1  0  0  0  0
 54 56  1  0  0  0  0
 54 64  1  0  0  0  0
 55 66  1  0  0  0  0
 57 58  1  0  0  0  0
M  CHG  1  66   1
M  ISO  4  32 100  53 101  65 100  73 101
M  END
> <Batch ID>
0007

> <Smiles>
CNC(C)C(=O)NC(C(=O)N1Cc2cc([101O:1][101CH2:1]CCC[100NH:0][100C:0](=O)N3CCCC(n4nc(-c5ccc(Oc6ccc(F)cc6F)cc5)c(C(N)=O)c4N)C3)ccc2CC1C(=O)NC1CCCc2ccccc21)C(C)(C)C

> <Shape>
0.193

> <Color>
0.131

> <Negative vol penalty>
0.000

$$$$

  -OEChem-04042320323D

 79 87  0     1  0  0  0  0  0999 V2000
  -23.3441   -6.3416   24.2992 C   0  0  0  0  0  0  0  0  0  0  0  0
  -24.5661   -7.0065   24.3070 C   0  0  0  0  0  0  0  0  0  0  0  0
  -26.1003  -30.7071   20.8867 C   0  0  0  0  0  0  0  0  0  0  0  0
  -23.9565  -29.6755   20.4660 C   0  0  0  0  0  0  0  0  0  0  0  0
  -22.4219   -6.5924   23.2841 C   0  0  0  0  0  0  0  0  0  0  0  0
  -24.8671   -7.9217   23.2989 C   0  0  0  0  0  0  0  0  0  0  0  0
  -28.4368  -14.0326   22.1904 C   0  0  0  0  0  0  0  0  0  0  0  0
  -25.5635  -31.3733   21.9884 C   0  0  0  0  0  0  0  0  0  0  0  0
  -23.4197  -30.3416   21.5677 C   0  0  0  0  0  0  0  0  0  0  0  0
  -29.3998  -14.5790   21.3430 C   0  0  0  0  0  0  0  0  0  0  0  0
  -23.6394  -34.0928   22.5597 C   0  0  0  0  0  0  0  0  0  0  0  0
  -23.9427  -35.4460   22.7088 C   0  0  0  0  0  0  0  0  0  0  0  0
  -27.6975  -14.9908   19.6840 C   0  0  0  0  0  0  0  0  0  0  0  0
  -24.9681  -34.9807   24.8464 C   0  0  0  0  0  0  0  0  0  0  0  0
  -25.2967  -29.8583   20.1254 C   0  0  0  0  0  0  0  0  0  0  0  0
  -26.4278  -29.7503   17.8414 C   0  0  0  0  0  0  0  0  0  0  0  0
  -22.7077   -7.5183   22.2684 C   0  0  0  0  0  0  0  0  0  0  0  0
  -27.0966  -13.9512   21.7859 C   0  0  0  0  0  0  0  0  0  0  0  0
  -23.9484   -8.1840   22.2685 C   0  0  0  0  0  0  0  0  0  0  0  0
  -26.7191  -14.4453   20.5292 C   0  0  0  0  0  0  0  0  0  0  0  0
  -24.2233  -31.1905   22.3289 C   0  0  0  0  0  0  0  0  0  0  0  0
  -29.0307  -15.0555   20.0885 C   0  0  0  0  0  0  0  0  0  0  0  0
  -24.0004  -33.1834   23.5540 C   0  0  0  0  0  0  0  0  0  0  0  0
  -24.6070  -35.8900   23.8521 C   0  0  0  0  0  0  0  0  0  0  0  0
  -24.6647  -33.6274   24.6973 C   0  0  0  0  0  0  0  0  0  0  0  0
  -25.8505  -29.1704   18.9869 C   0  0  0  0  0  0  0  0  0  0  0  0
  -26.7967  -28.6802   17.0635 C   0  0  0  0  0  0  0  0  0  0  0  0
  -26.6141  -31.1328   17.5102 C   0  0  0  0  0  0  0  0  0  0  0  0
  -25.0427  -11.5758   21.2932 C   0  0  0  0  0  0  0  0  0  0  0  0
  -22.9352  -14.0053   20.8708 C   0  0  0  0  0  0  0  0  0  0  0  0
  -22.9226  -17.2285   19.2497 C   0  0  0  0  0  0  0  0  0  0  0  0
  -28.1883  -23.1105   18.4410 C   0  0  0  0  0  0  0  0  0  0  0  0
  -21.6987   -7.7210   21.1659 C   0  0  0  0  0  0  0  0  0  0  0  0
  -26.0655  -13.3835   22.7223 C   0  0  0  0  0  0  0  0  0  0  0  0
  -25.2901  -14.3996   20.0557 C   0  0  0  0  0  0  0  0  0  0  0  0
  -21.9420   -8.9830   20.3421 C   0  0  0  0  0  0  0  0  0  0  0  0
  -25.6013  -24.1408   16.1295 C   0  0  0  0  0  0  0  0  0  0  0  0
  -23.4144   -9.0954   19.9598 C   0  0  0  0  0  0  0  0  0  0  0  0
  -25.4315  -25.6151   16.5005 C   0  0  0  0  0  0  0  0  0  0  0  0
  -29.2525  -20.2273   19.5815 C   0  0  0  0  0  0  0  0  0  0  0  0
  -29.5976  -19.9654   17.0972 C   0  0  0  0  0  0  0  0  0  0  0  0
  -25.8631  -23.2862   17.3661 C   0  0  0  0  0  0  0  0  0  0  0  0
  -26.8605  -25.2000   18.5561 C   0  0  0  0  0  0  0  0  0  0  0  0
  -30.4258  -19.2903   19.8368 C   0  0  0  0  0  0  0  0  0  0  0  0
  -30.7683  -19.0287   17.3651 C   0  0  0  0  0  0  0  0  0  0  0  0
  -24.3014   -9.2023   21.2061 C   0  0  1  0  0  0  0  0  0  0  0  0
  -24.8175  -12.8808   22.0031 C   0  0  1  0  0  0  0  0  0  0  0  0
  -26.6155  -26.1201   17.3463 C   0  0  2  0  0  0  0  0  0  0  0  0
  -29.3957  -20.9553   18.2445 C   0  0  0  0  0  0  0  0  0  0  0  0
  -21.5812  -19.2932   19.7343 C   0  0  0  0  0  0  0  0  0  0  0  0
  -21.0233  -12.9074   18.7614 C   0  0  0  0  0  0  0  0  0  0  0  0
  -20.6754  -15.2526   17.9567 C   0  0  0  0  0  0  0  0  0  0  0  0
  -20.0252  -14.6242   20.2816 C   0  0  0  0  0  0  0  0  0  0  0  0
  -25.3579  -18.8899   19.5108 C   0  0  0  0  0  0  0  0  0  0  0  0
  -31.6287  -17.2991   18.9408 C   0  0  0  0  0  0  0  0  0  0  0  0
  -31.0861  -16.2319   19.8707 C   0  0  0  0  0  0  0  0  0  1  0  0
  -22.4753  -14.8288   19.6922 C   0  0  1  0  0  0  0  0  0  0  0  0
  -22.9139  -18.5867   19.9277 C   0  0  2  0  0  0  0  0  0  0  0  0
  -21.0759  -14.3920   19.1740 C   0  0  0  0  0  0  0  0  0  0  0  0
  -25.8502  -27.8354   18.9445 N   0  0  0  0  0  0  0  0  0  0  0  0
  -26.4318  -27.5676   17.7629 N   0  0  0  0  0  0  0  0  0  0  0  0
  -24.3197  -13.8295   21.0049 N   0  0  0  0  0  0  0  0  0  0  0  0
  -27.0136  -23.8091   18.1165 N   0  0  0  0  0  0  0  0  0  0  0  0
  -27.3944  -28.5917   15.8563 N   0  0  0  0  0  0  0  0  0  0  0  0
  -25.5972  -31.7946   16.8084 N   0  0  0  0  0  0  0  0  0  0  0  0
  -24.2482  -10.5420   21.7509 N   0  0  0  0  0  0  0  0  0  0  0  0
  -22.5473  -16.2231   20.1154 N   0  0  0  0  0  0  0  0  0  0  0  0
  -28.2511  -21.7965   17.9937 N   0  0  0  0  0  0  0  0  0  0  0  0
  -30.5588  -18.3245   18.6840 N   0  3  0  0  0  0  0  0  0  0  0  0
  -23.9903  -19.4521   19.3677 N   0  3  0  0  0  0  0  0  0  0  0  0
  -27.6585  -31.7583   17.8127 O   0  0  0  0  0  0  0  0  0  0  0  0
  -25.8746  -11.5119   20.3957 O   0  0  0  0  0  0  0  0  0  0  0  0
  -22.0973  -13.5412   21.6481 O   0  0  0  0  0  0  0  0  0  0  0  0
  -23.2280  -17.0753   18.0691 O   0  0  0  0  0  0  0  0  0  0  0  0
  -29.1156  -23.6217   19.0781 O   0  0  0  0  0  0  0  0  0  0  0  0
  -23.6993  -31.8401   23.4041 O   0  0  0  0  0  0  0  0  0  0  0  0
  -29.9687  -15.5887   19.2591 O   0  0  0  0  0  0  0  0  0  1  0  0
  -24.8996  -37.1894   23.9945 F   0  0  0  0  0  0  0  0  0  0  0  0
  -25.0151  -32.7583   25.6553 F   0  0  0  0  0  0  0  0  0  0  0  0
  1  2  1  0  0  0  0
  1  5  2  0  0  0  0
  2  6  2  0  0  0  0
  3  8  2  0  0  0  0
  3 15  1  0  0  0  0
  4  9  1  0  0  0  0
  4 15  2  0  0  0  0
  5 17  1  0  0  0  0
  6 19  1  0  0  0  0
  7 10  2  0  0  0  0
  7 18  1  0  0  0  0
  8 21  1  0  0  0  0
  9 21  2  0  0  0  0
 10 22  1  0  0  0  0
 11 12  2  0  0  0  0
 11 23  1  0  0  0  0
 12 24  1  0  0  0  0
 13 20  1  0  0  0  0
 13 22  2  0  0  0  0
 14 24  2  0  0  0  0
 14 25  1  0  0  0  0
 15 26  1  0  0  0  0
 16 26  1  0  0  0  0
 16 27  2  0  0  0  0
 16 28  1  0  0  0  0
 17 19  2  0  0  0  0
 17 33  1  0  0  0  0
 18 20  2  0  0  0  0
 18 34  1  0  0  0  0
 19 46  1  0  0  0  0
 20 35  1  0  0  0  0
 21 76  1  0  0  0  0
 22 77  1  0  0  0  0
 23 25  2  0  0  0  0
 23 76  1  0  0  0  0
 24 78  1  0  0  0  0
 25 79  1  0  0  0  0
 26 60  2  0  0  0  0
 27 61  1  0  0  0  0
 27 64  1  0  0  0  0
 28 65  1  0  0  0  0
 28 71  2  0  0  0  0
 29 47  1  0  0  0  0
 29 66  1  0  0  0  0
 29 72  2  0  0  0  0
 30 57  1  0  0  0  0
 30 62  1  0  0  0  0
 30 73  2  0  0  0  0
 31 58  1  0  0  0  0
 31 67  1  0  0  0  0
 31 74  2  0  0  0  0
 32 63  1  0  0  0  0
 32 68  1  0  0  0  0
 32 75  2  0  0  0  0
 33 36  1  0  0  0  0
 34 47  1  0  0  0  0
 35 62  1  0  0  0  0
 36 38  1  0  0  0  0
 37 39  1  0  0  0  0
 37 42  1  0  0  0  0
 38 46  1  0  0  0  0
 39 48  1  0  0  0  0
 40 44  1  0  0  0  0
 40 49  1  0  0  0  0
 41 45  1  0  0  0  0
 41 49  1  0  0  0  0
 42 63  1  0  0  0  0
 43 48  1  0  0  0  0
 43 63  1  0  0  0  0
 44 69  1  0  0  0  0
 45 69  1  0  0  0  0
 46 66  1  0  0  0  0
 47 62  1  0  0  0  0
 48 61  1  0  0  0  0
 49 68  1  0  0  0  0
 50 58  1  0  0  0  0
 51 59  1  0  0  0  0
 52 59  1  0  0  0  0
 53 59  1  0  0  0  0
 54 70  1  0  0  0  0
 55 56  1  0  0  0  0
 55 69  1  0  0  0  0
 56 77  1  0  0  0  0
 57 59  1  0  0  0  0
 57 67  1  0  0  0  0
 58 70  1  0  0  0  0
 60 61  1  0  0  0  0
M  CHG  2  69   1  70   1
M  ISO  4  32 100  56 101  68 100  77 101
M  END
> <Batch ID>
0007

> <Smiles>
CNC(C)C(=O)NC(C(=O)N1Cc2cc([101O:1][101CH2:1]CN3CCC([100NH:0][100C:0](=O)N4CCCC(n5nc(-c6ccc(Oc7ccc(F)cc7F)cc6)c(C(N)=O)c5N)C4)CC3)ccc2CC1C(=O)NC1CCCc2ccccc21)C(C)(C)C

> <Shape>
0.238

> <Color>
0.076

> <Negative vol penalty>
0.000

$$$$

  -OEChem-04042320323D

 81 89  0     1  0  0  0  0  0999 V2000
  -17.7155  -33.3419   18.0836 C   0  0  0  0  0  0  0  0  0  0  0  0
  -18.9138  -32.9824   17.4751 C   0  0  0  0  0  0  0  0  0  0  0  0
  -24.8012  -10.2786   22.6259 C   0  0  0  0  0  0  0  0  0  0  0  0
  -24.4888  -11.7693   24.5013 C   0  0  0  0  0  0  0  0  0  0  0  0
  -17.7254  -33.9232   19.3508 C   0  0  0  0  0  0  0  0  0  0  0  0
  -20.1229  -33.2051   18.1332 C   0  0  0  0  0  0  0  0  0  0  0  0
  -24.6112  -27.7615   19.5870 C   0  0  0  0  0  0  0  0  0  0  0  0
  -29.5131  -20.7821   21.9189 C   0  0  0  0  0  0  0  0  0  0  0  0
  -24.3855   -9.2034   23.4112 C   0  0  0  0  0  0  0  0  0  0  0  0
  -24.0729  -10.6941   25.2866 C   0  0  0  0  0  0  0  0  0  0  0  0
  -25.6185  -26.8047   19.7133 C   0  0  0  0  0  0  0  0  0  0  0  0
  -29.3851  -22.1504   22.1577 C   0  0  0  0  0  0  0  0  0  0  0  0
  -21.4645   -7.9153   24.5255 C   0  0  0  0  0  0  0  0  0  0  0  0
  -20.5567   -7.0164   23.9656 C   0  0  0  0  0  0  0  0  0  0  0  0
  -27.0248  -28.4182   20.8389 C   0  0  0  0  0  0  0  0  0  0  0  0
  -27.1423  -20.6374   21.4769 C   0  0  0  0  0  0  0  0  0  0  0  0
  -22.1505   -5.2245   24.2582 C   0  0  0  0  0  0  0  0  0  0  0  0
  -24.8529  -11.5615   23.1710 C   0  0  0  0  0  0  0  0  0  0  0  0
  -24.4755  -13.5061   21.5635 C   0  0  0  0  0  0  0  0  0  0  0  0
  -18.9346  -34.1443   20.0288 C   0  0  0  0  0  0  0  0  0  0  0  0
  -24.8012  -29.0475   20.1004 C   0  0  0  0  0  0  0  0  0  0  0  0
  -20.1490  -33.7912   19.4101 C   0  0  0  0  0  0  0  0  0  0  0  0
  -26.0146  -29.3772   20.7264 C   0  0  0  0  0  0  0  0  0  0  0  0
  -28.3917  -20.0256   21.5784 C   0  0  0  0  0  0  0  0  0  0  0  0
  -24.0213   -9.4111   24.7416 C   0  0  0  0  0  0  0  0  0  0  0  0
  -26.8224  -27.1323   20.3375 C   0  0  0  0  0  0  0  0  0  0  0  0
  -22.7154   -7.4688   24.9517 C   0  0  0  0  0  0  0  0  0  0  0  0
  -28.1357  -22.7621   22.0562 C   0  0  0  0  0  0  0  0  0  0  0  0
  -20.8997   -5.6710   23.8320 C   0  0  0  0  0  0  0  0  0  0  0  0
  -27.0143  -22.0057   21.7158 C   0  0  0  0  0  0  0  0  0  0  0  0
  -23.0584   -6.1234   24.8181 C   0  0  0  0  0  0  0  0  0  0  0  0
  -25.2829  -12.6725   22.3604 C   0  0  0  0  0  0  0  0  0  0  0  0
  -25.3542  -14.3993   21.0010 C   0  0  0  0  0  0  0  0  0  0  0  0
  -23.0579  -13.4758   21.3509 C   0  0  0  0  0  0  0  0  0  0  0  0
  -23.3724  -32.4735   20.6455 C   0  0  0  0  0  0  0  0  0  0  0  0
  -24.8881  -31.7227   23.2046 C   0  0  0  0  0  0  0  0  0  0  0  0
  -26.3005  -30.3471   25.9886 C   0  0  0  0  0  0  0  0  0  0  0  0
  -29.6878  -17.8733   21.3941 C   0  0  0  0  0  0  0  0  0  0  0  0
  -18.8980  -34.8190   21.3772 C   0  0  0  0  0  0  0  0  0  0  0  0
  -23.7676  -30.1278   19.9324 C   0  0  0  0  0  0  0  0  0  0  0  0
  -26.1880  -30.7830   21.2329 C   0  0  0  0  0  0  0  0  0  0  0  0
  -20.1981  -34.6777   22.1645 C   0  0  0  0  0  0  0  0  0  0  0  0
  -30.4150  -14.4228   20.9013 C   0  0  0  0  0  0  0  0  0  0  0  0
  -21.3979  -34.9814   21.2727 C   0  0  0  0  0  0  0  0  0  0  0  0
  -29.0782  -13.7284   21.1714 C   0  0  0  0  0  0  0  0  0  0  0  0
  -30.6319  -15.6163   21.8299 C   0  0  0  0  0  0  0  0  0  0  0  0
  -28.2019  -15.9022   22.1169 C   0  0  0  0  0  0  0  0  0  0  0  0
  -21.4794  -33.9940   20.1023 C   0  0  1  0  0  0  0  0  0  0  0  0
  -23.7025  -31.0923   21.1301 C   0  0  1  0  0  0  0  0  0  0  0  0
  -27.9093  -14.7331   21.1623 C   0  0  2  0  0  0  0  0  0  0  0  0
  -26.8460  -30.8668   28.3823 C   0  0  0  0  0  0  0  0  0  0  0  0
  -27.2368  -33.4417   22.2923 C   0  0  0  0  0  0  0  0  0  0  0  0
  -28.2509  -33.1347   24.5607 C   0  0  0  0  0  0  0  0  0  0  0  0
  -26.0517  -34.2882   24.3254 C   0  0  0  0  0  0  0  0  0  0  0  0
  -24.5818  -28.1504   26.9783 C   0  0  0  0  0  0  0  0  0  0  0  0
  -28.6649  -26.3010   21.5911 C   0  0  0  0  0  0  0  0  0  1  0  0
  -29.1408  -24.9163   21.9857 C   0  0  0  0  0  0  0  0  0  0  0  0
  -26.1840  -31.7882   23.9726 C   0  0  1  0  0  0  0  0  0  0  0  0
  -25.8232  -30.2708   27.4276 C   0  0  2  0  0  0  0  0  0  0  0  0
  -26.9242  -33.1407   23.7717 C   0  0  0  0  0  0  0  0  0  0  0  0
  -26.5752  -13.0063   22.3111 N   0  0  0  0  0  0  0  0  0  0  0  0
  -26.5866  -14.0595   21.4764 N   0  0  0  0  0  0  0  0  0  0  0  0
  -24.9536  -31.2347   21.8939 N   0  0  0  0  0  0  0  0  0  0  0  0
  -29.4868  -16.5270   21.7655 N   0  0  0  0  0  0  0  0  0  0  0  0
  -25.1853  -15.4344   20.1511 N   0  0  0  0  0  0  0  0  0  0  0  0
  -22.3048  -12.4921   22.0063 N   0  0  0  0  0  0  0  0  0  0  0  0
  -28.5216  -18.6356   21.3358 N   0  0  0  0  0  0  0  0  0  0  0  0
  -22.0175  -32.7263   20.5470 N   0  0  0  0  0  0  0  0  0  0  0  0
  -25.8510  -31.4898   25.3613 N   0  0  0  0  0  0  0  0  0  0  0  0
  -25.5846  -28.8529   27.8197 N   0  3  0  0  0  0  0  0  0  0  0  0
  -22.4784  -14.2864   20.5889 O   0  0  0  0  0  0  0  0  0  0  0  0
  -24.2795  -33.2539   20.3813 O   0  0  0  0  0  0  0  0  0  0  0  0
  -23.8455  -32.0986   23.7477 O   0  0  0  0  0  0  0  0  0  0  0  0
  -27.0049  -29.4816   25.4736 O   0  0  0  0  0  0  0  0  0  0  0  0
  -30.8084  -18.3104   21.1197 O   0  0  0  0  0  0  0  0  0  0  0  0
  -23.6153   -8.3622   25.5081 O   0  0  0  0  0  0  0  0  0  0  0  0
  -27.7998  -26.1921   20.4615 O   0  0  0  0  0  0  0  0  0  1  0  0
  -28.0119  -24.1064   22.2905 O   0  0  0  0  0  0  0  0  0  0  0  0
  -20.0272   -4.8077   23.2957 F   0  0  0  0  0  0  0  0  0  0  0  0
  -25.8115  -22.5881   21.6156 F   0  0  0  0  0  0  0  0  0  0  0  0
  -24.2582   -5.6883   25.2268 F   0  0  0  0  0  0  0  0  0  0  0  0
  1  2  1  0  0  0  0
  1  5  2  0  0  0  0
  2  6  2  0  0  0  0
  3  9  2  0  0  0  0
  3 18  1  0  0  0  0
  4 10  1  0  0  0  0
  4 18  2  0  0  0  0
  5 20  1  0  0  0  0
  6 22  1  0  0  0  0
  7 11  2  0  0  0  0
  7 21  1  0  0  0  0
  8 12  2  0  0  0  0
  8 24  1  0  0  0  0
  9 25  1  0  0  0  0
 10 25  2  0  0  0  0
 11 26  1  0  0  0  0
 12 28  1  0  0  0  0
 13 14  2  0  0  0  0
 13 27  1  0  0  0  0
 14 29  1  0  0  0  0
 15 23  1  0  0  0  0
 15 26  2  0  0  0  0
 16 24  2  0  0  0  0
 16 30  1  0  0  0  0
 17 29  2  0  0  0  0
 17 31  1  0  0  0  0
 18 32  1  0  0  0  0
 19 32  1  0  0  0  0
 19 33  2  0  0  0  0
 19 34  1  0  0  0  0
 20 22  2  0  0  0  0
 20 39  1  0  0  0  0
 21 23  2  0  0  0  0
 21 40  1  0  0  0  0
 22 48  1  0  0  0  0
 23 41  1  0  0  0  0
 24 67  1  0  0  0  0
 25 76  1  0  0  0  0
 26 77  1  0  0  0  0
 27 31  2  0  0  0  0
 27 76  1  0  0  0  0
 28 30  2  0  0  0  0
 28 78  1  0  0  0  0
 29 79  1  0  0  0  0
 30 80  1  0  0  0  0
 31 81  1  0  0  0  0
 32 61  2  0  0  0  0
 33 62  1  0  0  0  0
 33 65  1  0  0  0  0
 34 66  1  0  0  0  0
 34 71  2  0  0  0  0
 35 49  1  0  0  0  0
 35 68  1  0  0  0  0
 35 72  2  0  0  0  0
 36 58  1  0  0  0  0
 36 63  1  0  0  0  0
 36 73  2  0  0  0  0
 37 59  1  0  0  0  0
 37 69  1  0  0  0  0
 37 74  2  0  0  0  0
 38 64  1  0  0  0  0
 38 67  1  0  0  0  0
 38 75  2  0  0  0  0
 39 42  1  0  0  0  0
 40 49  1  0  0  0  0
 41 63  1  0  0  0  0
 42 44  1  0  0  0  0
 43 45  1  0  0  0  0
 43 46  1  0  0  0  0
 44 48  1  0  0  0  0
 45 50  1  0  0  0  0
 46 64  1  0  0  0  0
 47 50  1  0  0  0  0
 47 64  1  0  0  0  0
 48 68  1  0  0  0  0
 49 63  1  0  0  0  0
 50 62  1  0  0  0  0
 51 59  1  0  0  0  0
 52 60  1  0  0  0  0
 53 60  1  0  0  0  0
 54 60  1  0  0  0  0
 55 70  1  0  0  0  0
 56 57  1  0  0  0  0
 56 77  1  0  0  0  0
 57 78  1  0  0  0  0
 58 60  1  0  0  0  0
 58 69  1  0  0  0  0
 59 70  1  0  0  0  0
 61 62  1  0  0  0  0
M  CHG  1  70   1
M  ISO  4  38 100  56 101  67 100  77 101
M  END
> <Batch ID>
0007

> <Smiles>
CNC(C)C(=O)NC(C(=O)N1Cc2cc([101O:1][101CH2:1]COc3ccc([100NH:0][100C:0](=O)N4CCCC(n5nc(-c6ccc(Oc7ccc(F)cc7F)cc6)c(C(N)=O)c5N)C4)cc3F)ccc2CC1C(=O)NC1CCCc2ccccc21)C(C)(C)C

> <Shape>
0.265

> <Color>
0.145

> <Negative vol penalty>
0.000

$$$$

  -OEChem-04042320323D

 83 92  0     1  0  0  0  0  0999 V2000
  -28.1667  -37.6828   18.2976 C   0  0  0  0  0  0  0  0  0  0  0  0
  -28.5733  -36.3525   18.2780 C   0  0  0  0  0  0  0  0  0  0  0  0
  -24.0619   -9.3158   22.2227 C   0  0  0  0  0  0  0  0  0  0  0  0
  -24.4025   -8.6124   19.9366 C   0  0  0  0  0  0  0  0  0  0  0  0
  -27.3174  -38.1362   19.3061 C   0  0  0  0  0  0  0  0  0  0  0  0
  -28.1316  -35.4749   19.2676 C   0  0  0  0  0  0  0  0  0  0  0  0
  -26.8621  -29.5202   18.6080 C   0  0  0  0  0  0  0  0  0  0  0  0
  -23.0361   -8.3804   22.3577 C   0  0  0  0  0  0  0  0  0  0  0  0
  -23.3767   -7.6770   20.0716 C   0  0  0  0  0  0  0  0  0  0  0  0
  -27.5978  -28.3682   18.8829 C   0  0  0  0  0  0  0  0  0  0  0  0
  -22.7532   -5.0497   22.8668 C   0  0  0  0  0  0  0  0  0  0  0  0
  -22.7333   -4.2719   24.0245 C   0  0  0  0  0  0  0  0  0  0  0  0
  -26.4940  -28.1806   21.0197 C   0  0  0  0  0  0  0  0  0  0  0  0
  -20.5505   -5.1485   24.5759 C   0  0  0  0  0  0  0  0  0  0  0  0
  -24.7451   -9.4319   21.0121 C   0  0  0  0  0  0  0  0  0  0  0  0
  -27.1736  -10.2033   21.1357 C   0  0  0  0  0  0  0  0  0  0  0  0
  -26.8573  -37.2615   20.3030 C   0  0  0  0  0  0  0  0  0  0  0  0
  -25.9432  -30.0180   19.5430 C   0  0  0  0  0  0  0  0  0  0  0  0
  -27.2763  -35.9173   20.2911 C   0  0  0  0  0  0  0  0  0  0  0  0
  -25.7461  -29.3376   20.7531 C   0  0  0  0  0  0  0  0  0  0  0  0
  -22.6934   -7.5610   21.2822 C   0  0  0  0  0  0  0  0  0  0  0  0
  -27.4159  -27.6999   20.0901 C   0  0  0  0  0  0  0  0  0  0  0  0
  -21.6717   -5.8770   22.5637 C   0  0  0  0  0  0  0  0  0  0  0  0
  -21.6319   -4.3213   24.8791 C   0  0  0  0  0  0  0  0  0  0  0  0
  -20.5704   -5.9263   23.4183 C   0  0  0  0  0  0  0  0  0  0  0  0
  -25.8046  -10.3983   20.8719 C   0  0  0  0  0  0  0  0  0  0  0  0
  -27.7545  -11.4144   20.8487 C   0  0  0  0  0  0  0  0  0  0  0  0
  -27.8589   -9.0321   21.5986 C   0  0  0  0  0  0  0  0  0  0  0  0
  -25.6667  -32.7175   21.1983 C   0  0  0  0  0  0  0  0  0  0  0  0
  -22.8322  -31.4200   22.0952 C   0  0  0  0  0  0  0  0  0  0  0  0
  -20.9438  -28.6132   22.5452 C   0  0  0  0  0  0  0  0  0  0  0  0
  -27.9898  -16.7726   21.0586 C   0  0  0  0  0  0  0  0  0  0  0  0
  -25.9782  -37.8086   21.3996 C   0  0  0  0  0  0  0  0  0  0  0  0
  -25.1381  -31.2467   19.2201 C   0  0  0  0  0  0  0  0  0  0  0  0
  -24.7571  -29.8195   21.7819 C   0  0  0  0  0  0  0  0  0  0  0  0
  -25.2553  -36.7267   22.1977 C   0  0  0  0  0  0  0  0  0  0  0  0
  -25.8952  -15.5067   18.5430 C   0  0  0  0  0  0  0  0  0  0  0  0
  -26.2214  -35.6098   22.5799 C   0  0  0  0  0  0  0  0  0  0  0  0
  -25.7918  -14.0358   18.9456 C   0  0  0  0  0  0  0  0  0  0  0  0
  -28.8242  -20.0979   19.6339 C   0  0  0  0  0  0  0  0  0  0  0  0
  -26.5138  -20.1883   20.6125 C   0  0  0  0  0  0  0  0  0  0  0  0
  -27.3161  -22.0911   19.1782 C   0  0  0  0  0  0  0  0  0  0  0  0
  -28.2791  -21.7994   21.4793 C   0  0  0  0  0  0  0  0  0  0  0  0
  -25.8434  -16.4377   19.7554 C   0  0  0  0  0  0  0  0  0  0  0  0
  -29.1319  -18.8878   20.5148 C   0  0  0  0  0  0  0  0  0  0  0  0
  -26.8607  -18.9853   21.4851 C   0  0  0  0  0  0  0  0  0  0  0  0
  -26.7324  -14.6434   21.2071 C   0  0  0  0  0  0  0  0  0  0  0  0
  -28.3929  -23.1206   18.8598 C   0  0  0  0  0  0  0  0  0  0  0  0
  -29.3482  -22.8386   21.1601 C   0  0  0  0  0  0  0  0  0  0  0  0
  -26.7987  -34.9291   21.3329 C   0  0  1  0  0  0  0  0  0  0  0  0
  -24.6030  -31.9538   20.4615 C   0  0  1  0  0  0  0  0  0  0  0  0
  -26.8404  -13.6804   20.0147 C   0  0  1  0  0  0  0  0  0  0  0  0
  -27.7506  -21.0439   20.2331 C   0  0  0  0  0  0  0  0  0  0  0  0
  -18.6785  -27.8673   23.3259 C   0  0  0  0  0  0  0  0  0  0  0  0
  -23.6828  -31.8747   24.9900 C   0  0  0  0  0  0  0  0  0  0  0  0
  -21.8769  -30.2909   25.6962 C   0  0  0  0  0  0  0  0  0  0  0  0
  -21.2861  -32.4051   24.5113 C   0  0  0  0  0  0  0  0  0  0  0  0
  -20.2957  -27.4339   19.9093 C   0  0  0  0  0  0  0  0  0  0  0  0
  -29.8036  -24.9139   19.8599 C   0  0  0  0  0  0  0  0  0  0  0  0
  -29.0544  -26.1357   19.3658 C   0  0  0  0  0  0  0  0  0  1  0  0
  -22.3752  -30.5236   23.2206 C   0  0  1  0  0  0  0  0  0  0  0  0
  -19.5229  -28.2778   22.1295 C   0  0  2  0  0  0  0  0  0  0  0  0
  -22.3253  -31.2653   24.5862 C   0  0  0  0  0  0  0  0  0  0  0  0
  -25.5319  -11.6359   20.4500 N   0  0  0  0  0  0  0  0  0  0  0  0
  -26.7376  -12.2295   20.4465 N   0  0  0  0  0  0  0  0  0  0  0  0
  -23.9984  -31.0288   21.4223 N   0  0  0  0  0  0  0  0  0  0  0  0
  -26.8334  -16.0352   20.7633 N   0  0  0  0  0  0  0  0  0  0  0  0
  -27.9168  -18.1647   20.8815 N   0  0  0  0  0  0  0  0  0  0  0  0
  -29.0307  -11.8509   20.9038 N   0  0  0  0  0  0  0  0  0  0  0  0
  -27.1100   -7.8731   21.8444 N   0  0  0  0  0  0  0  0  0  0  0  0
  -25.8309  -34.0179   20.7607 N   0  0  0  0  0  0  0  0  0  0  0  0
  -21.0971  -29.9597   22.7999 N   0  0  0  0  0  0  0  0  0  0  0  0
  -28.8228  -23.8060   20.1312 N   0  3  0  0  0  0  0  0  0  0  0  0
  -19.5215  -27.1575   21.1467 N   0  3  0  0  0  0  0  0  0  0  0  0
  -29.0962   -9.0187   21.8043 O   0  0  0  0  0  0  0  0  0  0  0  0
  -26.2913  -32.1681   22.0982 O   0  0  0  0  0  0  0  0  0  0  0  0
  -22.1746  -32.4264   21.8186 O   0  0  0  0  0  0  0  0  0  0  0  0
  -21.8283  -27.7650   22.6386 O   0  0  0  0  0  0  0  0  0  0  0  0
  -29.0265  -16.2237   21.4521 O   0  0  0  0  0  0  0  0  0  0  0  0
  -21.6926   -6.6479   21.4136 O   0  0  0  0  0  0  0  0  0  0  0  0
  -28.1383  -26.5675   20.3632 O   0  0  0  0  0  0  0  0  0  1  0  0
  -21.6123   -3.5731   25.9899 F   0  0  0  0  0  0  0  0  0  0  0  0
  -19.5280   -6.7182   23.1317 F   0  0  0  0  0  0  0  0  0  0  0  0
  1  2  1  0  0  0  0
  1  5  2  0  0  0  0
  2  6  2  0  0  0  0
  3  8  2  0  0  0  0
  3 15  1  0  0  0  0
  4  9  1  0  0  0  0
  4 15  2  0  0  0  0
  5 17  1  0  0  0  0
  6 19  1  0  0  0  0
  7 10  2  0  0  0  0
  7 18  1  0  0  0  0
  8 21  1  0  0  0  0
  9 21  2  0  0  0  0
 10 22  1  0  0  0  0
 11 12  2  0  0  0  0
 11 23  1  0  0  0  0
 12 24  1  0  0  0  0
 13 20  1  0  0  0  0
 13 22  2  0  0  0  0
 14 24  2  0  0  0  0
 14 25  1  0  0  0  0
 15 26  1  0  0  0  0
 16 26  1  0  0  0  0
 16 27  2  0  0  0  0
 16 28  1  0  0  0  0
 17 19  2  0  0  0  0
 17 33  1  0  0  0  0
 18 20  2  0  0  0  0
 18 34  1  0  0  0  0
 19 50  1  0  0  0  0
 20 35  1  0  0  0  0
 21 80  1  0  0  0  0
 22 81  1  0  0  0  0
 23 25  2  0  0  0  0
 23 80  1  0  0  0  0
 24 82  1  0  0  0  0
 25 83  1  0  0  0  0
 26 64  2  0  0  0  0
 27 65  1  0  0  0  0
 27 69  1  0  0  0  0
 28 70  1  0  0  0  0
 28 75  2  0  0  0  0
 29 51  1  0  0  0  0
 29 71  1  0  0  0  0
 29 76  2  0  0  0  0
 30 61  1  0  0  0  0
 30 66  1  0  0  0  0
 30 77  2  0  0  0  0
 31 62  1  0  0  0  0
 31 72  1  0  0  0  0
 31 78  2  0  0  0  0
 32 67  1  0  0  0  0
 32 68  1  0  0  0  0
 32 79  2  0  0  0  0
 33 36  1  0  0  0  0
 34 51  1  0  0  0  0
 35 66  1  0  0  0  0
 36 38  1  0  0  0  0
 37 39  1  0  0  0  0
 37 44  1  0  0  0  0
 38 50  1  0  0  0  0
 39 52  1  0  0  0  0
 40 45  1  0  0  0  0
 40 53  1  0  0  0  0
 41 46  1  0  0  0  0
 41 53  1  0  0  0  0
 42 48  1  0  0  0  0
 42 53  1  0  0  0  0
 43 49  1  0  0  0  0
 43 53  1  0  0  0  0
 44 67  1  0  0  0  0
 45 68  1  0  0  0  0
 46 68  1  0  0  0  0
 47 52  1  0  0  0  0
 47 67  1  0  0  0  0
 48 73  1  0  0  0  0
 49 73  1  0  0  0  0
 50 71  1  0  0  0  0
 51 66  1  0  0  0  0
 52 65  1  0  0  0  0
 54 62  1  0  0  0  0
 55 63  1  0  0  0  0
 56 63  1  0  0  0  0
 57 63  1  0  0  0  0
 58 74  1  0  0  0  0
 59 60  1  0  0  0  0
 59 73  1  0  0  0  0
 60 81  1  0  0  0  0
 61 63  1  0  0  0  0
 61 72  1  0  0  0  0
 62 74  1  0  0  0  0
 64 65  1  0  0  0  0
M  CHG  2  73   1  74   1
M  ISO  4  32 100  60 101  68 100  81 101
M  END
> <Batch ID>
0007

> <Smiles>
CNC(C)C(=O)NC(C(=O)N1Cc2cc([101O:1][101CH2:1]CN3CCC4(CC3)CC[100N:0]([100C:0](=O)N3CCCC(n5nc(-c6ccc(Oc7ccc(F)cc7F)cc6)c(C(N)=O)c5N)C3)CC4)ccc2CC1C(=O)NC1CCCc2ccccc21)C(C)(C)C

> <Shape>
0.296

> <Color>
0.111

> <Negative vol penalty>
0.000

$$$$

  -OEChem-04042320323D

 80 88  0     1  0  0  0  0  0999 V2000
  -34.7092  -28.3638   21.8814 C   0  0  0  0  0  0  0  0  0  0  0  0
  -33.8740  -27.3058   22.2259 C   0  0  0  0  0  0  0  0  0  0  0  0
  -23.0451   -9.8328   20.2149 C   0  0  0  0  0  0  0  0  0  0  0  0
  -23.7516  -10.1092   22.5087 C   0  0  0  0  0  0  0  0  0  0  0  0
  -34.1865  -29.4788   21.2277 C   0  0  0  0  0  0  0  0  0  0  0  0
  -32.5153  -27.3629   21.9178 C   0  0  0  0  0  0  0  0  0  0  0  0
  -30.7848  -23.0274   19.9546 C   0  0  0  0  0  0  0  0  0  0  0  0
  -32.7016  -17.6525   23.0056 C   0  0  0  0  0  0  0  0  0  0  0  0
  -32.1163  -16.6731   22.2033 C   0  0  0  0  0  0  0  0  0  0  0  0
  -22.2703   -8.7339   20.5859 C   0  0  0  0  0  0  0  0  0  0  0  0
  -22.9767   -9.0103   22.8798 C   0  0  0  0  0  0  0  0  0  0  0  0
  -30.5322  -21.9825   20.8424 C   0  0  0  0  0  0  0  0  0  0  0  0
  -19.7186   -8.3550   23.4927 C   0  0  0  0  0  0  0  0  0  0  0  0
  -18.9340   -8.4748   24.6397 C   0  0  0  0  0  0  0  0  0  0  0  0
  -28.1799  -22.5146   20.7902 C   0  0  0  0  0  0  0  0  0  0  0  0
  -29.9381  -17.6297   22.6246 C   0  0  0  0  0  0  0  0  0  0  0  0
  -20.1148   -6.6201   25.6412 C   0  0  0  0  0  0  0  0  0  0  0  0
  -23.7858  -10.5204   21.1763 C   0  0  0  0  0  0  0  0  0  0  0  0
  -24.1862  -13.0043   20.7547 C   0  0  0  0  0  0  0  0  0  0  0  0
  -32.8224  -29.5453   20.9028 C   0  0  0  0  0  0  0  0  0  0  0  0
  -29.7364  -23.8320   19.4857 C   0  0  0  0  0  0  0  0  0  0  0  0
  -31.9735  -28.4804   21.2603 C   0  0  0  0  0  0  0  0  0  0  0  0
  -28.4215  -23.5675   19.8946 C   0  0  0  0  0  0  0  0  0  0  0  0
  -31.9052  -18.6206   23.6174 C   0  0  0  0  0  0  0  0  0  0  0  0
  -30.5235  -18.6092   23.4269 C   0  0  0  0  0  0  0  0  0  0  0  0
  -30.7346  -16.6617   22.0128 C   0  0  0  0  0  0  0  0  0  0  0  0
  -22.2361   -8.3226   21.9183 C   0  0  0  0  0  0  0  0  0  0  0  0
  -29.2301  -21.7278   21.2626 C   0  0  0  0  0  0  0  0  0  0  0  0
  -20.7013   -7.3677   23.4199 C   0  0  0  0  0  0  0  0  0  0  0  0
  -19.1321   -7.6074   25.7139 C   0  0  0  0  0  0  0  0  0  0  0  0
  -20.8994   -6.5003   24.4941 C   0  0  0  0  0  0  0  0  0  0  0  0
  -24.5868  -11.6553   20.7936 C   0  0  0  0  0  0  0  0  0  0  0  0
  -25.3028  -13.6820   20.3300 C   0  0  0  0  0  0  0  0  0  0  0  0
  -22.9180  -13.5922   21.0739 C   0  0  0  0  0  0  0  0  0  0  0  0
  -29.0124  -26.9200   19.6950 C   0  0  0  0  0  0  0  0  0  0  0  0
  -26.6233  -26.0982   17.6606 C   0  0  0  0  0  0  0  0  0  0  0  0
  -24.5801  -23.6595   16.4256 C   0  0  0  0  0  0  0  0  0  0  0  0
  -30.7852  -14.6366   20.5152 C   0  0  0  0  0  0  0  0  0  0  0  0
  -32.2944  -30.7919   20.2380 C   0  0  0  0  0  0  0  0  0  0  0  0
  -30.0220  -24.9384   18.5076 C   0  0  0  0  0  0  0  0  0  0  0  0
  -27.2582  -24.3892   19.4047 C   0  0  0  0  0  0  0  0  0  0  0  0
  -30.9135  -30.6107   19.6132 C   0  0  0  0  0  0  0  0  0  0  0  0
  -29.6729  -11.9699   18.4347 C   0  0  0  0  0  0  0  0  0  0  0  0
  -29.9780  -29.8966   20.5836 C   0  0  0  0  0  0  0  0  0  0  0  0
  -28.2176  -11.7613   18.8597 C   0  0  0  0  0  0  0  0  0  0  0  0
  -30.5647  -12.3282   19.6222 C   0  0  0  0  0  0  0  0  0  0  0  0
  -28.6428  -13.2544   20.8540 C   0  0  0  0  0  0  0  0  0  0  0  0
  -30.4988  -28.4944   20.9210 C   0  0  1  0  0  0  0  0  0  0  0  0
  -28.9442  -26.0180   18.4953 C   0  0  1  0  0  0  0  0  0  0  0  0
  -27.6939  -12.9552   19.6818 C   0  0  2  0  0  0  0  0  0  0  0  0
  -32.5546  -19.6587   24.4725 C   0  0  0  0  0  0  0  0  0  0  0  0
  -22.7030  -23.2988   14.7997 C   0  0  0  0  0  0  0  0  0  0  0  0
  -24.6758  -27.3812   19.6281 C   0  0  0  0  0  0  0  0  0  0  0  0
  -22.8146  -26.1796   18.4617 C   0  0  0  0  0  0  0  0  0  0  0  0
  -24.1882  -27.8517   17.2207 C   0  0  0  0  0  0  0  0  0  0  0  0
  -26.1818  -21.7580   14.8200 C   0  0  0  0  0  0  0  0  0  0  0  0
  -29.6442  -19.6451   24.0754 C   0  0  0  0  0  0  0  0  0  0  0  0
  -25.2021  -25.6147   17.8202 C   0  0  1  0  0  0  0  0  0  0  0  0
  -24.2100  -23.2803   15.0030 C   0  0  2  0  0  0  0  0  0  0  0  0
  -24.2421  -26.7423   18.2936 C   0  0  0  0  0  0  0  0  0  0  0  0
  -25.8586  -11.4843   20.4230 N   0  0  0  0  0  0  0  0  0  0  0  0
  -26.2667  -12.7347   20.1472 N   0  0  0  0  0  0  0  0  0  0  0  0
  -27.5894  -25.4638   18.4543 N   0  0  0  0  0  0  0  0  0  0  0  0
  -30.0085  -13.4702   20.3510 N   0  0  0  0  0  0  0  0  0  0  0  0
  -25.5442  -14.9899   20.0988 N   0  0  0  0  0  0  0  0  0  0  0  0
  -21.8787  -12.7513   21.4946 N   0  0  0  0  0  0  0  0  0  0  0  0
  -30.1397  -15.6680   21.1963 N   0  0  0  0  0  0  0  0  0  0  0  0
  -30.2197  -27.5772   19.8369 N   0  0  0  0  0  0  0  0  0  0  0  0
  -24.8311  -25.0100   16.5454 N   0  0  0  0  0  0  0  0  0  0  0  0
  -29.7085  -20.9227   23.3802 N   0  0  0  0  0  0  0  0  0  1  0  0
  -24.7105  -21.9133   14.6844 N   0  3  0  0  0  0  0  0  0  0  0  0
  -22.7078  -14.8247   20.9730 O   0  0  0  0  0  0  0  0  0  0  0  0
  -28.0411  -27.0140   20.4363 O   0  0  0  0  0  0  0  0  0  0  0  0
  -26.8683  -27.0005   16.8559 O   0  0  0  0  0  0  0  0  0  0  0  0
  -24.6371  -22.8402   17.3400 O   0  0  0  0  0  0  0  0  0  0  0  0
  -31.9283  -14.7245   20.0596 O   0  0  0  0  0  0  0  0  0  0  0  0
  -21.4799   -7.2505   22.2808 O   0  0  0  0  0  0  0  0  0  0  0  0
  -28.9809  -20.7089   22.1296 O   0  0  0  0  0  0  0  0  0  1  0  0
  -18.3796   -7.7236   26.8160 F   0  0  0  0  0  0  0  0  0  0  0  0
  -21.8427   -5.5506   24.4305 F   0  0  0  0  0  0  0  0  0  0  0  0
  1  2  1  0  0  0  0
  1  5  2  0  0  0  0
  2  6  2  0  0  0  0
  3 10  2  0  0  0  0
  3 18  1  0  0  0  0
  4 11  1  0  0  0  0
  4 18  2  0  0  0  0
  5 20  1  0  0  0  0
  6 22  1  0  0  0  0
  7 12  2  0  0  0  0
  7 21  1  0  0  0  0
  8  9  2  0  0  0  0
  8 24  1  0  0  0  0
  9 26  1  0  0  0  0
 10 27  1  0  0  0  0
 11 27  2  0  0  0  0
 12 28  1  0  0  0  0
 13 14  2  0  0  0  0
 13 29  1  0  0  0  0
 14 30  1  0  0  0  0
 15 23  1  0  0  0  0
 15 28  2  0  0  0  0
 16 25  1  0  0  0  0
 16 26  2  0  0  0  0
 17 30  2  0  0  0  0
 17 31  1  0  0  0  0
 18 32  1  0  0  0  0
 19 32  1  0  0  0  0
 19 33  2  0  0  0  0
 19 34  1  0  0  0  0
 20 22  2  0  0  0  0
 20 39  1  0  0  0  0
 21 23  2  0  0  0  0
 21 40  1  0  0  0  0
 22 48  1  0  0  0  0
 23 41  1  0  0  0  0
 24 25  2  0  0  0  0
 24 51  1  0  0  0  0
 25 57  1  0  0  0  0
 26 67  1  0  0  0  0
 27 77  1  0  0  0  0
 28 78  1  0  0  0  0
 29 31  2  0  0  0  0
 29 77  1  0  0  0  0
 30 79  1  0  0  0  0
 31 80  1  0  0  0  0
 32 61  2  0  0  0  0
 33 62  1  0  0  0  0
 33 65  1  0  0  0  0
 34 66  1  0  0  0  0
 34 72  2  0  0  0  0
 35 49  1  0  0  0  0
 35 68  1  0  0  0  0
 35 73  2  0  0  0  0
 36 58  1  0  0  0  0
 36 63  1  0  0  0  0
 36 74  2  0  0  0  0
 37 59  1  0  0  0  0
 37 69  1  0  0  0  0
 37 75  2  0  0  0  0
 38 64  1  0  0  0  0
 38 67  1  0  0  0  0
 38 76  2  0  0  0  0
 39 42  1  0  0  0  0
 40 49  1  0  0  0  0
 41 63  1  0  0  0  0
 42 44  1  0  0  0  0
 43 45  1  0  0  0  0
 43 46  1  0  0  0  0
 44 48  1  0  0  0  0
 45 50  1  0  0  0  0
 46 64  1  0  0  0  0
 47 50  1  0  0  0  0
 47 64  1  0  0  0  0
 48 68  1  0  0  0  0
 49 63  1  0  0  0  0
 50 62  1  0  0  0  0
 52 59  1  0  0  0  0
 53 60  1  0  0  0  0
 54 60  1  0  0  0  0
 55 60  1  0  0  0  0
 56 71  1  0  0  0  0
 57 70  1  0  0  0  0
 58 60  1  0  0  0  0
 58 69  1  0  0  0  0
 59 71  1  0  0  0  0
 61 62  1  0  0  0  0
 70 78  1  0  0  0  0
M  CHG  1  71   1
M  ISO  4  38 100  67 100  70 101  78 101
M  END
> <Batch ID>
0007

> <Smiles>
CNC(C)C(=O)NC(C(=O)N1Cc2cc([101O:1][101NH:1]Cc3cc([100NH:0][100C:0](=O)N4CCCC(n5nc(-c6ccc(Oc7ccc(F)cc7F)cc6)c(C(N)=O)c5N)C4)ccc3C)ccc2CC1C(=O)NC1CCCc2ccccc21)C(C)(C)C

> <Shape>
0.262

> <Color>
0.205

> <Negative vol penalty>
0.000

$$$$

  -OEChem-04042320323D

 74 81  0     1  0  0  0  0  0999 V2000
  -28.2370  -24.4861   17.1417 C   0  0  0  0  0  0  0  0  0  0  0  0
  -27.0905  -25.1970   17.4776 C   0  0  0  0  0  0  0  0  0  0  0  0
  -23.9976  -17.2212   19.7044 C   0  0  0  0  0  0  0  0  0  0  0  0
  -21.6114  -17.5982   19.7372 C   0  0  0  0  0  0  0  0  0  0  0  0
  -29.3729  -24.5840   17.9426 C   0  0  0  0  0  0  0  0  0  0  0  0
  -27.0832  -26.0153   18.6078 C   0  0  0  0  0  0  0  0  0  0  0  0
  -23.1087  -28.8301   19.3032 C   0  0  0  0  0  0  0  0  0  0  0  0
  -23.7896  -15.8777   20.0166 C   0  0  0  0  0  0  0  0  0  0  0  0
  -21.4034  -16.2547   20.0494 C   0  0  0  0  0  0  0  0  0  0  0  0
  -21.8764  -28.3102   19.6969 C   0  0  0  0  0  0  0  0  0  0  0  0
  -23.8696  -12.2693   20.4498 C   0  0  0  0  0  0  0  0  0  0  0  0
  -24.5945  -11.3172   19.7332 C   0  0  0  0  0  0  0  0  0  0  0  0
  -22.2606  -29.1131   21.9389 C   0  0  0  0  0  0  0  0  0  0  0  0
  -23.5960  -12.1033   17.6784 C   0  0  0  0  0  0  0  0  0  0  0  0
  -22.9085  -18.0814   19.5647 C   0  0  0  0  0  0  0  0  0  0  0  0
  -23.1955  -20.0430   17.9592 C   0  0  0  0  0  0  0  0  0  0  0  0
  -29.3747  -25.3944   19.0898 C   0  0  0  0  0  0  0  0  0  0  0  0
  -23.9324  -29.4870   20.2287 C   0  0  0  0  0  0  0  0  0  0  0  0
  -28.2273  -26.1461   19.4155 C   0  0  0  0  0  0  0  0  0  0  0  0
  -23.5017  -29.6426   21.5540 C   0  0  0  0  0  0  0  0  0  0  0  0
  -22.4925  -15.3945   20.1891 C   0  0  0  0  0  0  0  0  0  0  0  0
  -21.4534  -28.4491   21.0155 C   0  0  0  0  0  0  0  0  0  0  0  0
  -23.0077  -13.1384   19.7807 C   0  0  0  0  0  0  0  0  0  0  0  0
  -24.4578  -11.2342   18.3475 C   0  0  0  0  0  0  0  0  0  0  0  0
  -22.8709  -13.0554   18.3951 C   0  0  0  0  0  0  0  0  0  0  0  0
  -23.1227  -19.4695   19.2428 C   0  0  0  0  0  0  0  0  0  0  0  0
  -23.4090  -21.3796   18.1920 C   0  0  0  0  0  0  0  0  0  0  0  0
  -23.0803  -19.4229   16.6716 C   0  0  0  0  0  0  0  0  0  0  0  0
  -26.8422  -28.9749   21.4010 C   0  0  0  0  0  0  0  0  0  0  0  0
  -26.3567  -31.8553   22.8116 C   0  0  0  0  0  0  0  0  0  0  0  0
  -24.1398  -34.1868   23.9501 C   0  0  0  0  0  0  0  0  0  0  0  0
  -22.1653  -24.9610   22.8264 C   0  0  0  0  0  0  0  0  0  0  0  0
  -30.6340  -25.4698   19.9166 C   0  0  0  0  0  0  0  0  0  0  0  0
  -25.2470  -30.0656   19.7819 C   0  0  0  0  0  0  0  0  0  0  0  0
  -24.3398  -30.3572   22.5814 C   0  0  0  0  0  0  0  0  0  0  0  0
  -30.3902  -26.0052   21.3238 C   0  0  0  0  0  0  0  0  0  0  0  0
  -25.3644  -24.3589   21.3844 C   0  0  0  0  0  0  0  0  0  0  0  0
  -29.5719  -27.2861   21.2580 C   0  0  0  0  0  0  0  0  0  0  0  0
  -25.1592  -23.0892   20.5562 C   0  0  0  0  0  0  0  0  0  0  0  0
  -24.5549  -24.3253   22.6788 C   0  0  0  0  0  0  0  0  0  0  0  0
  -22.9098  -22.7899   21.6739 C   0  0  0  0  0  0  0  0  0  0  0  0
  -28.1862  -27.0186   20.6570 C   0  0  1  0  0  0  0  0  0  0  0  0
  -26.2328  -30.2646   20.9290 C   0  0  1  0  0  0  0  0  0  0  0  0
  -23.6624  -22.8016   20.3323 C   0  0  2  0  0  0  0  0  0  0  0  0
  -24.0417  -36.4211   25.0884 C   0  0  0  0  0  0  0  0  0  0  0  0
  -27.0386  -30.5268   25.4724 C   0  0  0  0  0  0  0  0  0  0  0  0
  -26.0199  -32.4953   26.6367 C   0  0  0  0  0  0  0  0  0  0  0  0
  -28.0109  -32.8106   25.1672 C   0  0  0  0  0  0  0  0  0  0  0  0
  -22.7535  -35.4283   21.6488 C   0  0  0  0  0  0  0  0  0  0  0  0
  -18.9463  -25.9462   21.6711 C   0  0  0  0  0  0  0  0  0  0  0  0
  -19.7364  -25.4678   22.8817 C   0  0  0  0  0  0  0  0  0  0  0  0
  -19.7817  -26.7851   20.7116 C   0  0  0  0  0  0  0  0  0  1  0  0
  -25.7630  -32.3184   24.1200 C   0  0  1  0  0  0  0  0  0  0  0  0
  -24.0705  -35.6906   23.7549 C   0  0  2  0  0  0  0  0  0  0  0  0
  -26.6930  -32.0226   25.3304 C   0  0  0  0  0  0  0  0  0  0  0  0
  -23.2776  -20.3682   20.2186 N   0  0  0  0  0  0  0  0  0  0  0  0
  -23.4499  -21.5200   19.5480 N   0  0  0  0  0  0  0  0  0  0  0  0
  -25.6199  -30.9000   22.0973 N   0  0  0  0  0  0  0  0  0  0  0  0
  -23.1441  -24.0498   22.3967 N   0  0  0  0  0  0  0  0  0  0  0  0
  -23.5640  -22.4369   17.3670 N   0  0  0  0  0  0  0  0  0  0  0  0
  -22.8617  -18.0397   16.6133 N   0  0  0  0  0  0  0  0  0  0  0  0
  -27.5233  -28.2817   20.4185 N   0  0  0  0  0  0  0  0  0  0  0  0
  -25.4410  -33.7306   23.9450 N   0  0  0  0  0  0  0  0  0  0  0  0
  -20.8535  -24.6272   22.5125 N   0  0  0  0  0  0  0  0  0  0  0  0
  -22.8445  -36.0579   22.9913 N   0  3  0  0  0  0  0  0  0  0  0  0
  -23.1849  -20.0734   15.6042 O   0  0  0  0  0  0  0  0  0  0  0  0
  -26.7060  -28.6345   22.5703 O   0  0  0  0  0  0  0  0  0  0  0  0
  -27.4311  -32.3292   22.4336 O   0  0  0  0  0  0  0  0  0  0  0  0
  -23.1399  -33.4873   24.0965 O   0  0  0  0  0  0  0  0  0  0  0  0
  -22.4405  -25.9981   23.4394 O   0  0  0  0  0  0  0  0  0  0  0  0
  -22.2892  -14.0836   20.4935 O   0  0  0  0  0  0  0  0  0  0  0  0
  -20.2514  -27.9420   21.4025 O   0  0  0  0  0  0  0  0  0  1  0  0
  -25.1552  -10.3209   17.6593 F   0  0  0  0  0  0  0  0  0  0  0  0
  -22.0454  -13.8884   17.7467 F   0  0  0  0  0  0  0  0  0  0  0  0
  1  2  1  0  0  0  0
  1  5  2  0  0  0  0
  2  6  2  0  0  0  0
  3  8  2  0  0  0  0
  3 15  1  0  0  0  0
  4  9  1  0  0  0  0
  4 15  2  0  0  0  0
  5 17  1  0  0  0  0
  6 19  1  0  0  0  0
  7 10  2  0  0  0  0
  7 18  1  0  0  0  0
  8 21  1  0  0  0  0
  9 21  2  0  0  0  0
 10 22  1  0  0  0  0
 11 12  2  0  0  0  0
 11 23  1  0  0  0  0
 12 24  1  0  0  0  0
 13 20  1  0  0  0  0
 13 22  2  0  0  0  0
 14 24  2  0  0  0  0
 14 25  1  0  0  0  0
 15 26  1  0  0  0  0
 16 26  1  0  0  0  0
 16 27  2  0  0  0  0
 16 28  1  0  0  0  0
 17 19  2  0  0  0  0
 17 33  1  0  0  0  0
 18 20  2  0  0  0  0
 18 34  1  0  0  0  0
 19 42  1  0  0  0  0
 20 35  1  0  0  0  0
 21 71  1  0  0  0  0
 22 72  1  0  0  0  0
 23 25  2  0  0  0  0
 23 71  1  0  0  0  0
 24 73  1  0  0  0  0
 25 74  1  0  0  0  0
 26 56  2  0  0  0  0
 27 57  1  0  0  0  0
 27 60  1  0  0  0  0
 28 61  1  0  0  0  0
 28 66  2  0  0  0  0
 29 43  1  0  0  0  0
 29 62  1  0  0  0  0
 29 67  2  0  0  0  0
 30 53  1  0  0  0  0
 30 58  1  0  0  0  0
 30 68  2  0  0  0  0
 31 54  1  0  0  0  0
 31 63  1  0  0  0  0
 31 69  2  0  0  0  0
 32 59  1  0  0  0  0
 32 64  1  0  0  0  0
 32 70  2  0  0  0  0
 33 36  1  0  0  0  0
 34 43  1  0  0  0  0
 35 58  1  0  0  0  0
 36 38  1  0  0  0  0
 37 39  1  0  0  0  0
 37 40  1  0  0  0  0
 38 42  1  0  0  0  0
 39 44  1  0  0  0  0
 40 59  1  0  0  0  0
 41 44  1  0  0  0  0
 41 59  1  0  0  0  0
 42 62  1  0  0  0  0
 43 58  1  0  0  0  0
 44 57  1  0  0  0  0
 45 54  1  0  0  0  0
 46 55  1  0  0  0  0
 47 55  1  0  0  0  0
 48 55  1  0  0  0  0
 49 65  1  0  0  0  0
 50 51  1  0  0  0  0
 50 52  1  0  0  0  0
 51 64  1  0  0  0  0
 52 72  1  0  0  0  0
 53 55  1  0  0  0  0
 53 63  1  0  0  0  0
 54 65  1  0  0  0  0
 56 57  1  0  0  0  0
M  CHG  1  65   1
M  ISO  4  32 100  52 101  64 100  72 101
M  END
> <Batch ID>
0007

> <Smiles>
CNC(C)C(=O)NC(C(=O)N1Cc2cc([101O:1][101CH2:1]CC[100NH:0][100C:0](=O)N3CCCC(n4nc(-c5ccc(Oc6ccc(F)cc6F)cc5)c(C(N)=O)c4N)C3)ccc2CC1C(=O)NC1CCCc2ccccc21)C(C)(C)C

> <Shape>
0.222

> <Color>
0.068

> <Negative vol penalty>
0.000

$$$$

  -OEChem-04042320323D

 84 92  0     1  0  0  0  0  0999 V2000
  -21.9915  -23.9127   17.8814 C   0  0  0  0  0  0  0  0  0  0  0  0
  -23.1766  -23.1963   17.7475 C   0  0  0  0  0  0  0  0  0  0  0  0
  -22.3488  -28.2654   20.7356 C   0  0  0  0  0  0  0  0  0  0  0  0
  -23.2735  -26.6722   22.2988 C   0  0  0  0  0  0  0  0  0  0  0  0
  -21.1304  -23.6411   18.9438 C   0  0  0  0  0  0  0  0  0  0  0  0
  -23.5017  -22.2087   18.6767 C   0  0  0  0  0  0  0  0  0  0  0  0
  -26.4674  -16.9623   17.5873 C   0  0  0  0  0  0  0  0  0  0  0  0
  -32.0644  -21.2946   18.7674 C   0  0  0  0  0  0  0  0  0  0  0  0
  -31.9854  -19.9434   19.1045 C   0  0  0  0  0  0  0  0  0  0  0  0
  -21.0770  -28.0465   21.2647 C   0  0  0  0  0  0  0  0  0  0  0  0
  -22.0016  -26.4533   22.8281 C   0  0  0  0  0  0  0  0  0  0  0  0
  -27.7997  -16.5863   17.7523 C   0  0  0  0  0  0  0  0  0  0  0  0
  -19.3104  -29.0085   23.9826 C   0  0  0  0  0  0  0  0  0  0  0  0
  -18.5157  -30.1249   24.2430 C   0  0  0  0  0  0  0  0  0  0  0  0
  -27.2558  -15.6223   19.8957 C   0  0  0  0  0  0  0  0  0  0  0  0
  -16.8454  -29.2939   22.7078 C   0  0  0  0  0  0  0  0  0  0  0  0
  -23.4471  -27.5782   21.2526 C   0  0  0  0  0  0  0  0  0  0  0  0
  -25.7035  -28.7616   21.1253 C   0  0  0  0  0  0  0  0  0  0  0  0
  -21.4405  -22.6430   19.8810 C   0  0  0  0  0  0  0  0  0  0  0  0
  -25.5197  -16.6804   18.5818 C   0  0  0  0  0  0  0  0  0  0  0  0
  -22.6446  -21.9244   19.7534 C   0  0  0  0  0  0  0  0  0  0  0  0
  -25.9115  -15.9936   19.7397 C   0  0  0  0  0  0  0  0  0  0  0  0
  -31.3954  -22.2459   19.5377 C   0  0  0  0  0  0  0  0  0  0  0  0
  -31.2374  -19.5435   20.2118 C   0  0  0  0  0  0  0  0  0  0  0  0
  -20.9034  -27.1405   22.3110 C   0  0  0  0  0  0  0  0  0  0  0  0
  -28.1946  -15.9187   18.9080 C   0  0  0  0  0  0  0  0  0  0  0  0
  -18.8727  -28.0349   23.0847 C   0  0  0  0  0  0  0  0  0  0  0  0
  -17.2832  -30.2676   23.6056 C   0  0  0  0  0  0  0  0  0  0  0  0
  -17.6402  -28.1776   22.4473 C   0  0  0  0  0  0  0  0  0  0  0  0
  -30.6474  -21.8460   20.6450 C   0  0  0  0  0  0  0  0  0  0  0  0
  -30.5684  -20.4947   20.9821 C   0  0  0  0  0  0  0  0  0  0  0  0
  -24.7611  -27.8035   20.7059 C   0  0  0  0  0  0  0  0  0  0  0  0
  -26.7804  -28.5704   20.2946 C   0  0  0  0  0  0  0  0  0  0  0  0
  -25.6134  -29.7372   22.1721 C   0  0  0  0  0  0  0  0  0  0  0  0
  -23.6383  -18.4343   20.4493 C   0  0  0  0  0  0  0  0  0  0  0  0
  -22.4560  -15.5404   21.3152 C   0  0  0  0  0  0  0  0  0  0  0  0
  -22.9485  -12.1749   21.5934 C   0  0  0  0  0  0  0  0  0  0  0  0
  -29.6586  -24.3223   17.6142 C   0  0  0  0  0  0  0  0  0  0  0  0
  -20.5012  -22.4178   21.0393 C   0  0  0  0  0  0  0  0  0  0  0  0
  -24.0813  -17.0691   18.3766 C   0  0  0  0  0  0  0  0  0  0  0  0
  -24.9291  -15.6492   20.8282 C   0  0  0  0  0  0  0  0  0  0  0  0
  -20.7394  -21.0982   21.7689 C   0  0  0  0  0  0  0  0  0  0  0  0
  -27.4340  -26.4804   15.8620 C   0  0  0  0  0  0  0  0  0  0  0  0
  -22.2275  -20.8978   22.0376 C   0  0  0  0  0  0  0  0  0  0  0  0
  -26.6055  -27.1307   16.9715 C   0  0  0  0  0  0  0  0  0  0  0  0
  -27.7625  -25.0240   16.1828 C   0  0  0  0  0  0  0  0  0  0  0  0
  -27.5776  -25.4585   18.6017 C   0  0  0  0  0  0  0  0  0  0  0  0
  -23.0203  -20.8284   20.7269 C   0  0  1  0  0  0  0  0  0  0  0  0
  -23.3019  -17.1865   19.6829 C   0  0  1  0  0  0  0  0  0  0  0  0
  -27.2690  -26.9442   18.3493 C   0  0  2  0  0  0  0  0  0  0  0  0
  -21.8148  -10.0758   22.3717 C   0  0  0  0  0  0  0  0  0  0  0  0
  -22.9930  -16.3279   24.2137 C   0  0  0  0  0  0  0  0  0  0  0  0
  -22.7525  -13.9160   24.8405 C   0  0  0  0  0  0  0  0  0  0  0  0
  -20.8237  -15.1412   23.8399 C   0  0  0  0  0  0  0  0  0  0  0  0
  -23.0620  -10.9734   18.8911 C   0  0  0  0  0  0  0  0  0  0  0  0
  -31.4820  -23.6898   19.1744 C   0  0  0  0  0  0  0  0  0  0  0  0
  -31.4861  -15.7853   20.3902 C   0  0  0  0  0  0  0  0  0  0  0  0
  -31.8196  -17.1518   19.8038 C   0  0  0  0  0  0  0  0  0  0  0  0
  -29.9900  -15.4949   20.4090 C   0  0  0  0  0  0  0  0  0  1  0  0
  -22.7920  -14.5229   22.3786 C   0  0  1  0  0  0  0  0  0  0  0  0
  -22.0847  -10.9937   21.1896 C   0  0  2  0  0  0  0  0  0  0  0  0
  -22.3594  -14.9851   23.7987 C   0  0  0  0  0  0  0  0  0  0  0  0
  -25.2007  -27.0590   19.6879 N   0  0  0  0  0  0  0  0  0  0  0  0
  -26.4312  -27.5494   19.4605 N   0  0  0  0  0  0  0  0  0  0  0  0
  -23.5354  -16.0560   20.5839 N   0  0  0  0  0  0  0  0  0  0  0  0
  -28.3908  -24.9165   17.5018 N   0  0  0  0  0  0  0  0  0  0  0  0
  -27.9826  -29.1777   20.2035 N   0  0  0  0  0  0  0  0  0  0  0  0
  -24.4356  -29.7978   22.9294 N   0  0  0  0  0  0  0  0  0  0  0  0
  -31.1603  -18.2001   20.5446 N   0  0  0  0  0  0  0  0  0  0  0  0
  -22.8651  -19.5283   20.1105 N   0  0  0  0  0  0  0  0  0  0  0  0
  -22.1860  -13.2675   21.9483 N   0  0  0  0  0  0  0  0  0  0  0  0
  -30.1848  -24.2661   18.8990 N   0  0  0  0  0  0  0  0  0  0  0  0
  -22.7580  -10.2003   20.1227 N   0  3  0  0  0  0  0  0  0  0  0  0
  -26.5432  -30.5425   22.4176 O   0  0  0  0  0  0  0  0  0  0  0  0
  -24.5322  -18.4063   21.2871 O   0  0  0  0  0  0  0  0  0  0  0  0
  -21.2784  -15.8605   21.1350 O   0  0  0  0  0  0  0  0  0  0  0  0
  -24.1768  -12.1314   21.5974 O   0  0  0  0  0  0  0  0  0  0  0  0
  -30.2782  -23.8798   16.6409 O   0  0  0  0  0  0  0  0  0  0  0  0
  -19.6625  -26.9268   22.8278 O   0  0  0  0  0  0  0  0  0  0  0  0
  -29.4946  -15.5511   19.0719 O   0  0  0  0  0  0  0  0  0  1  0  0
  -16.5195  -31.3389   23.8570 F   0  0  0  0  0  0  0  0  0  0  0  0
  -17.2138  -27.2450   21.5847 F   0  0  0  0  0  0  0  0  0  0  0  0
  -30.0013  -22.7528   21.3910 F   0  0  0  0  0  0  0  0  0  0  0  0
  -29.8471  -20.1214   22.0487 F   0  0  0  0  0  0  0  0  0  0  0  0
  1  2  1  0  0  0  0
  1  5  2  0  0  0  0
  2  6  2  0  0  0  0
  3 10  2  0  0  0  0
  3 17  1  0  0  0  0
  4 11  1  0  0  0  0
  4 17  2  0  0  0  0
  5 19  1  0  0  0  0
  6 21  1  0  0  0  0
  7 12  2  0  0  0  0
  7 20  1  0  0  0  0
  8  9  2  0  0  0  0
  8 23  1  0  0  0  0
  9 24  1  0  0  0  0
 10 25  1  0  0  0  0
 11 25  2  0  0  0  0
 12 26  1  0  0  0  0
 13 14  2  0  0  0  0
 13 27  1  0  0  0  0
 14 28  1  0  0  0  0
 15 22  1  0  0  0  0
 15 26  2  0  0  0  0
 16 28  2  0  0  0  0
 16 29  1  0  0  0  0
 17 32  1  0  0  0  0
 18 32  1  0  0  0  0
 18 33  2  0  0  0  0
 18 34  1  0  0  0  0
 19 21  2  0  0  0  0
 19 39  1  0  0  0  0
 20 22  2  0  0  0  0
 20 40  1  0  0  0  0
 21 48  1  0  0  0  0
 22 41  1  0  0  0  0
 23 30  2  0  0  0  0
 23 56  1  0  0  0  0
 24 31  2  0  0  0  0
 24 69  1  0  0  0  0
 25 79  1  0  0  0  0
 26 80  1  0  0  0  0
 27 29  2  0  0  0  0
 27 79  1  0  0  0  0
 28 81  1  0  0  0  0
 29 82  1  0  0  0  0
 30 31  1  0  0  0  0
 30 83  1  0  0  0  0
 31 84  1  0  0  0  0
 32 63  2  0  0  0  0
 33 64  1  0  0  0  0
 33 67  1  0  0  0  0
 34 68  1  0  0  0  0
 34 74  2  0  0  0  0
 35 49  1  0  0  0  0
 35 70  1  0  0  0  0
 35 75  2  0  0  0  0
 36 60  1  0  0  0  0
 36 65  1  0  0  0  0
 36 76  2  0  0  0  0
 37 61  1  0  0  0  0
 37 71  1  0  0  0  0
 37 77  2  0  0  0  0
 38 66  1  0  0  0  0
 38 72  1  0  0  0  0
 38 78  2  0  0  0  0
 39 42  1  0  0  0  0
 40 49  1  0  0  0  0
 41 65  1  0  0  0  0
 42 44  1  0  0  0  0
 43 45  1  0  0  0  0
 43 46  1  0  0  0  0
 44 48  1  0  0  0  0
 45 50  1  0  0  0  0
 46 66  1  0  0  0  0
 47 50  1  0  0  0  0
 47 66  1  0  0  0  0
 48 70  1  0  0  0  0
 49 65  1  0  0  0  0
 50 64  1  0  0  0  0
 51 61  1  0  0  0  0
 52 62  1  0  0  0  0
 53 62  1  0  0  0  0
 54 62  1  0  0  0  0
 55 73  1  0  0  0  0
 56 72  1  0  0  0  0
 57 58  1  0  0  0  0
 57 59  1  0  0  0  0
 58 69  1  0  0  0  0
 59 80  1  0  0  0  0
 60 62  1  0  0  0  0
 60 71  1  0  0  0  0
 61 73  1  0  0  0  0
 63 64  1  0  0  0  0
M  CHG  1  73   1
M  ISO  4  38 100  59 101  72 100  80 101
M  END
> <Batch ID>
0007

> <Smiles>
CNC(C)C(=O)NC(C(=O)N1Cc2cc([101O:1][101CH2:1]CCNc3ccc(C[100NH:0][100C:0](=O)N4CCCC(n5nc(-c6ccc(Oc7ccc(F)cc7F)cc6)c(C(N)=O)c5N)C4)c(F)c3F)ccc2CC1C(=O)NC1CCCc2ccccc21)C(C)(C)C

> <Shape>
0.221

> <Color>
0.049

> <Negative vol penalty>
0.000

$$$$

  -OEChem-04042320323D

 87 96  0     1  0  0  0  0  0999 V2000
  -30.2906  -12.8101   20.1952 C   0  0  0  0  0  0  0  0  0  0  0  0
  -29.9743  -13.9967   19.5416 C   0  0  0  0  0  0  0  0  0  0  0  0
  -27.6873  -23.7950   20.6866 C   0  0  0  0  0  0  0  0  0  0  0  0
  -28.4433  -25.0538   22.6052 C   0  0  0  0  0  0  0  0  0  0  0  0
  -29.2961  -11.8641   20.4404 C   0  0  0  0  0  0  0  0  0  0  0  0
  -28.6633  -14.2377   19.1319 C   0  0  0  0  0  0  0  0  0  0  0  0
  -25.0436  -20.0044   21.4845 C   0  0  0  0  0  0  0  0  0  0  0  0
  -17.8642  -27.1765   22.8372 C   0  0  0  0  0  0  0  0  0  0  0  0
  -18.8856  -26.2509   22.6237 C   0  0  0  0  0  0  0  0  0  0  0  0
  -27.9996  -22.6052   21.3442 C   0  0  0  0  0  0  0  0  0  0  0  0
  -28.7556  -23.8640   23.2628 C   0  0  0  0  0  0  0  0  0  0  0  0
  -24.3580  -21.1956   21.7236 C   0  0  0  0  0  0  0  0  0  0  0  0
  -28.9336  -19.2468   22.3798 C   0  0  0  0  0  0  0  0  0  0  0  0
  -29.6105  -18.2636   21.6583 C   0  0  0  0  0  0  0  0  0  0  0  0
  -22.4551  -20.3611   20.4863 C   0  0  0  0  0  0  0  0  0  0  0  0
  -19.4192  -28.9832   22.4438 C   0  0  0  0  0  0  0  0  0  0  0  0
  -31.4430  -19.7948   21.2913 C   0  0  0  0  0  0  0  0  0  0  0  0
  -27.9092  -25.0194   21.3171 C   0  0  0  0  0  0  0  0  0  0  0  0
  -28.1191  -26.7112   19.4194 C   0  0  0  0  0  0  0  0  0  0  0  0
  -27.9704  -12.0979   20.0421 C   0  0  0  0  0  0  0  0  0  0  0  0
  -24.4310  -18.9798   20.7576 C   0  0  0  0  0  0  0  0  0  0  0  0
  -27.6504  -13.2935   19.3709 C   0  0  0  0  0  0  0  0  0  0  0  0
  -23.1322  -19.1609   20.2543 C   0  0  0  0  0  0  0  0  0  0  0  0
  -18.1310  -28.5427   22.7472 C   0  0  0  0  0  0  0  0  0  0  0  0
  -20.1739  -26.6914   22.3204 C   0  0  0  0  0  0  0  0  0  0  0  0
  -20.4407  -28.0576   22.2304 C   0  0  0  0  0  0  0  0  0  0  0  0
  -28.5337  -22.6397   22.6323 C   0  0  0  0  0  0  0  0  0  0  0  0
  -23.0670  -21.3735   21.2255 C   0  0  0  0  0  0  0  0  0  0  0  0
  -29.5113  -20.5040   22.5571 C   0  0  0  0  0  0  0  0  0  0  0  0
  -30.8653  -18.5376   21.1140 C   0  0  0  0  0  0  0  0  0  0  0  0
  -30.7660  -20.7780   22.0128 C   0  0  0  0  0  0  0  0  0  0  0  0
  -27.5874  -26.2488   20.6381 C   0  0  0  0  0  0  0  0  0  0  0  0
  -27.4955  -27.9166   19.2081 C   0  0  0  0  0  0  0  0  0  0  0  0
  -29.0899  -26.1053   18.5556 C   0  0  0  0  0  0  0  0  0  0  0  0
  -24.6969  -15.5136   19.3467 C   0  0  0  0  0  0  0  0  0  0  0  0
  -21.8508  -15.8097   20.4524 C   0  0  0  0  0  0  0  0  0  0  0  0
  -19.4686  -16.2595   22.4587 C   0  0  0  0  0  0  0  0  0  0  0  0
  -22.1612  -29.8557   21.7985 C   0  0  0  0  0  0  0  0  0  0  0  0
  -26.9390  -11.0251   20.2870 C   0  0  0  0  0  0  0  0  0  0  0  0
  -25.1550  -17.7039   20.4234 C   0  0  0  0  0  0  0  0  0  0  0  0
  -22.5260  -18.0449   19.4481 C   0  0  0  0  0  0  0  0  0  0  0  0
  -25.5013  -11.5208   20.1541 C   0  0  0  0  0  0  0  0  0  0  0  0
  -25.5091  -31.4172   21.9079 C   0  0  0  0  0  0  0  0  0  0  0  0
  -25.3400  -12.3578   18.8892 C   0  0  0  0  0  0  0  0  0  0  0  0
  -26.4653  -30.4159   21.2579 C   0  0  0  0  0  0  0  0  0  0  0  0
  -22.8053  -24.7370   20.5461 C   0  0  0  0  0  0  0  0  0  0  0  0
  -22.9651  -24.2917   23.0060 C   0  0  0  0  0  0  0  0  0  0  0  0
  -24.0977  -31.3414   21.3421 C   0  0  0  0  0  0  0  0  0  0  0  0
  -21.3813  -25.2610   20.7363 C   0  0  0  0  0  0  0  0  0  0  0  0
  -21.5427  -24.8238   23.1934 C   0  0  0  0  0  0  0  0  0  0  0  0
  -24.4496  -28.8636   21.2558 C   0  0  0  0  0  0  0  0  0  0  0  0
  -26.2351  -13.6021   18.9331 C   0  0  1  0  0  0  0  0  0  0  0  0
  -24.2306  -16.4734   20.4016 C   0  0  1  0  0  0  0  0  0  0  0  0
  -25.7385  -29.2746   20.5269 C   0  0  2  0  0  0  0  0  0  0  0  0
  -23.1896  -23.7154   21.6123 C   0  0  0  0  0  0  0  0  0  1  0  0
  -17.4008  -16.2733   23.8805 C   0  0  0  0  0  0  0  0  0  0  0  0
  -20.8246  -16.2958   17.6214 C   0  0  0  0  0  0  0  0  0  0  0  0
  -18.4917  -16.1188   18.5127 C   0  0  0  0  0  0  0  0  0  0  0  0
  -20.0352  -14.1651   18.6661 C   0  0  0  0  0  0  0  0  0  0  0  0
  -20.6036  -14.2700   24.3329 C   0  0  0  0  0  0  0  0  0  0  0  0
  -20.4134  -16.1642   20.1669 C   0  0  1  0  0  0  0  0  0  0  0  0
  -18.6079  -15.4674   23.4263 C   0  0  2  0  0  0  0  0  0  0  0  0
  -17.0386  -29.5320   22.9754 C   0  0  0  0  0  0  0  0  0  0  0  0
  -19.9594  -15.7050   18.7525 C   0  0  0  0  0  0  0  0  0  0  0  0
  -26.6949  -27.0918   21.1642 N   0  0  0  0  0  0  0  0  0  0  0  0
  -26.6610  -28.0961   20.2718 N   0  0  0  0  0  0  0  0  0  0  0  0
  -21.1842  -25.7445   22.1095 N   0  0  0  0  0  0  0  0  0  0  0  0
  -22.8198  -16.7502   20.0822 N   0  0  0  0  0  0  0  0  0  0  0  0
  -23.5345  -29.9954   21.4817 N   0  0  0  0  0  0  0  0  0  0  0  0
  -27.5852  -28.8299   18.2181 N   0  0  0  0  0  0  0  0  0  0  0  0
  -28.6398  -25.2489   17.5415 N   0  0  0  0  0  0  0  0  0  0  0  0
  -21.7413  -28.5290   21.9231 N   0  0  0  0  0  0  0  0  0  0  0  0
  -25.6507  -14.6152   19.7855 N   0  0  0  0  0  0  0  0  0  0  0  0
  -19.6288  -15.5988   21.2591 N   0  0  0  0  0  0  0  0  0  0  0  0
  -19.3988  -15.0865   24.6306 N   0  3  0  0  0  0  0  0  0  0  0  0
  -30.3211  -26.3041   18.6897 O   0  0  0  0  0  0  0  0  0  0  0  0
  -24.2256  -15.5811   18.2176 O   0  0  0  0  0  0  0  0  0  0  0  0
  -22.1107  -14.7265   20.9839 O   0  0  0  0  0  0  0  0  0  0  0  0
  -19.9476  -17.3564   22.7377 O   0  0  0  0  0  0  0  0  0  0  0  0
  -21.4307  -30.8359   21.9591 O   0  0  0  0  0  0  0  0  0  0  0  0
  -28.8383  -21.4788   23.2743 O   0  0  0  0  0  0  0  0  0  0  0  0
  -22.4017  -22.5371   21.4665 O   0  0  0  0  0  0  0  0  0  1  0  0
  -31.5159  -17.5928   20.4224 F   0  0  0  0  0  0  0  0  0  0  0  0
  -31.3266  -21.9835   22.1807 F   0  0  0  0  0  0  0  0  0  0  0  0
  -15.8323  -28.9591   23.2629 F   0  0  0  0  0  0  0  0  0  0  0  0
  -17.2829  -30.3867   24.0125 F   0  0  0  0  0  0  0  0  0  0  0  0
  -16.8159  -30.3283   21.8894 F   0  0  0  0  0  0  0  0  0  0  0  0
  1  2  1  0  0  0  0
  1  5  2  0  0  0  0
  2  6  2  0  0  0  0
  3 10  2  0  0  0  0
  3 18  1  0  0  0  0
  4 11  1  0  0  0  0
  4 18  2  0  0  0  0
  5 20  1  0  0  0  0
  6 22  1  0  0  0  0
  7 12  2  0  0  0  0
  7 21  1  0  0  0  0
  8  9  2  0  0  0  0
  8 24  1  0  0  0  0
  9 25  1  0  0  0  0
 10 27  1  0  0  0  0
 11 27  2  0  0  0  0
 12 28  1  0  0  0  0
 13 14  2  0  0  0  0
 13 29  1  0  0  0  0
 14 30  1  0  0  0  0
 15 23  1  0  0  0  0
 15 28  2  0  0  0  0
 16 24  2  0  0  0  0
 16 26  1  0  0  0  0
 17 30  2  0  0  0  0
 17 31  1  0  0  0  0
 18 32  1  0  0  0  0
 19 32  1  0  0  0  0
 19 33  2  0  0  0  0
 19 34  1  0  0  0  0
 20 22  2  0  0  0  0
 20 39  1  0  0  0  0
 21 23  2  0  0  0  0
 21 40  1  0  0  0  0
 22 52  1  0  0  0  0
 23 41  1  0  0  0  0
 24 63  1  0  0  0  0
 25 26  2  0  0  0  0
 25 67  1  0  0  0  0
 26 72  1  0  0  0  0
 27 81  1  0  0  0  0
 28 82  1  0  0  0  0
 29 31  2  0  0  0  0
 29 81  1  0  0  0  0
 30 83  1  0  0  0  0
 31 84  1  0  0  0  0
 32 65  2  0  0  0  0
 33 66  1  0  0  0  0
 33 70  1  0  0  0  0
 34 71  1  0  0  0  0
 34 76  2  0  0  0  0
 35 53  1  0  0  0  0
 35 73  1  0  0  0  0
 35 77  2  0  0  0  0
 36 61  1  0  0  0  0
 36 68  1  0  0  0  0
 36 78  2  0  0  0  0
 37 62  1  0  0  0  0
 37 74  1  0  0  0  0
 37 79  2  0  0  0  0
 38 69  1  0  0  0  0
 38 72  1  0  0  0  0
 38 80  2  0  0  0  0
 39 42  1  0  0  0  0
 40 53  1  0  0  0  0
 41 68  1  0  0  0  0
 42 44  1  0  0  0  0
 43 45  1  0  0  0  0
 43 48  1  0  0  0  0
 44 52  1  0  0  0  0
 45 54  1  0  0  0  0
 46 49  1  0  0  0  0
 46 55  1  0  0  0  0
 47 50  1  0  0  0  0
 47 55  1  0  0  0  0
 48 69  1  0  0  0  0
 49 67  1  0  0  0  0
 50 67  1  0  0  0  0
 51 54  1  0  0  0  0
 51 69  1  0  0  0  0
 52 73  1  0  0  0  0
 53 68  1  0  0  0  0
 54 66  1  0  0  0  0
 55 82  1  0  0  0  0
 56 62  1  0  0  0  0
 57 64  1  0  0  0  0
 58 64  1  0  0  0  0
 59 64  1  0  0  0  0
 60 75  1  0  0  0  0
 61 64  1  0  0  0  0
 61 74  1  0  0  0  0
 62 75  1  0  0  0  0
 63 85  1  0  0  0  0
 63 86  1  0  0  0  0
 63 87  1  0  0  0  0
 65 66  1  0  0  0  0
M  CHG  1  75   1
M  ISO  4  38 100  55 101  72 100  82 101
M  END
> <Batch ID>
0007

> <Smiles>
CNC(C)C(=O)NC(C(=O)N1Cc2cc([101O:1][101CH:1]3CCN(c4ccc(C(F)(F)F)cc4[100NH:0][100C:0](=O)N4CCCC(n5nc(-c6ccc(Oc7ccc(F)cc7F)cc6)c(C(N)=O)c5N)C4)CC3)ccc2CC1C(=O)NC1CCCc2ccccc21)C(C)(C)C

> <Shape>
0.238

> <Color>
0.093

> <Negative vol penalty>
0.000

$$$$

  -OEChem-04042320323D

 85 94  0     1  0  0  0  0  0999 V2000
  -25.4002  -34.6384   27.5587 C   0  0  0  0  0  0  0  0  0  0  0  0
  -26.1061  -33.5880   26.9810 C   0  0  0  0  0  0  0  0  0  0  0  0
  -26.4621  -11.4899   21.1941 C   0  0  0  0  0  0  0  0  0  0  0  0
  -25.8435  -12.9665   19.3847 C   0  0  0  0  0  0  0  0  0  0  0  0
  -24.0198  -34.7283   27.3844 C   0  0  0  0  0  0  0  0  0  0  0  0
  -25.4318  -32.6262   26.2295 C   0  0  0  0  0  0  0  0  0  0  0  0
  -27.5226  -29.6926   21.2769 C   0  0  0  0  0  0  0  0  0  0  0  0
  -29.8959  -20.8557   17.1121 C   0  0  0  0  0  0  0  0  0  0  0  0
  -30.2161  -19.5897   17.6024 C   0  0  0  0  0  0  0  0  0  0  0  0
  -25.1144  -11.2956   21.4964 C   0  0  0  0  0  0  0  0  0  0  0  0
  -24.4957  -12.7722   19.6869 C   0  0  0  0  0  0  0  0  0  0  0  0
  -28.0924  -28.4319   21.1043 C   0  0  0  0  0  0  0  0  0  0  0  0
  -22.5297   -9.4756   20.2965 C   0  0  0  0  0  0  0  0  0  0  0  0
  -22.1019   -8.1709   20.5420 C   0  0  0  0  0  0  0  0  0  0  0  0
  -25.9333  -27.5463   20.4935 C   0  0  0  0  0  0  0  0  0  0  0  0
  -31.4535  -20.6040   19.4128 C   0  0  0  0  0  0  0  0  0  0  0  0
  -21.3976   -8.8193   22.7603 C   0  0  0  0  0  0  0  0  0  0  0  0
  -26.8267  -12.3254   20.1383 C   0  0  0  0  0  0  0  0  0  0  0  0
  -29.0091  -11.7715   18.9390 C   0  0  0  0  0  0  0  0  0  0  0  0
  -23.3296  -33.7725   26.6224 C   0  0  0  0  0  0  0  0  0  0  0  0
  -26.1495  -29.8875   21.0693 C   0  0  0  0  0  0  0  0  0  0  0  0
  -24.0407  -32.7027   26.0460 C   0  0  0  0  0  0  0  0  0  0  0  0
  -25.3490  -28.8110   20.6616 C   0  0  0  0  0  0  0  0  0  0  0  0
  -30.3545  -21.9958   17.7720 C   0  0  0  0  0  0  0  0  0  0  0  0
  -30.9949  -19.4639   18.7528 C   0  0  0  0  0  0  0  0  0  0  0  0
  -24.1311  -11.9368   20.7428 C   0  0  0  0  0  0  0  0  0  0  0  0
  -27.2973  -27.3579   20.7154 C   0  0  0  0  0  0  0  0  0  0  0  0
  -22.3915  -10.4522   21.2829 C   0  0  0  0  0  0  0  0  0  0  0  0
  -21.5359   -7.8427   21.7739 C   0  0  0  0  0  0  0  0  0  0  0  0
  -31.1332  -21.8700   18.9223 C   0  0  0  0  0  0  0  0  0  0  0  0
  -21.8254  -10.1240   22.5147 C   0  0  0  0  0  0  0  0  0  0  0  0
  -28.2188  -12.5269   19.8260 C   0  0  0  0  0  0  0  0  0  0  0  0
  -30.2481  -12.3613   18.9957 C   0  0  0  0  0  0  0  0  0  0  0  0
  -29.1044  -25.2300   18.6737 C   0  0  0  0  0  0  0  0  0  0  0  0
  -28.6547  -10.6380   18.1358 C   0  0  0  0  0  0  0  0  0  0  0  0
  -23.7129  -30.8036   22.8934 C   0  0  0  0  0  0  0  0  0  0  0  0
  -22.0891  -30.7268   20.0863 C   0  0  0  0  0  0  0  0  0  0  0  0
  -21.8397  -29.4870   16.9165 C   0  0  0  0  0  0  0  0  0  0  0  0
  -32.0843  -17.8770   20.3780 C   0  0  0  0  0  0  0  0  0  0  0  0
  -21.8305  -33.8853   26.5013 C   0  0  0  0  0  0  0  0  0  0  0  0
  -25.5551  -31.2594   21.2337 C   0  0  0  0  0  0  0  0  0  0  0  0
  -23.8734  -28.9720   20.4062 C   0  0  0  0  0  0  0  0  0  0  0  0
  -21.2442  -33.0331   25.3786 C   0  0  0  0  0  0  0  0  0  0  0  0
  -33.0824  -14.8434   21.9521 C   0  0  0  0  0  0  0  0  0  0  0  0
  -21.8300  -31.6252   25.4156 C   0  0  0  0  0  0  0  0  0  0  0  0
  -32.0238  -13.8349   21.4999 C   0  0  0  0  0  0  0  0  0  0  0  0
  -27.0672  -24.1848   19.3384 C   0  0  0  0  0  0  0  0  0  0  0  0
  -32.4813  -16.2270   22.1932 C   0  0  0  0  0  0  0  0  0  0  0  0
  -27.6582  -23.4286   18.1648 C   0  0  0  0  0  0  0  0  0  0  0  0
  -30.6431  -15.7605   20.6207 C   0  0  0  0  0  0  0  0  0  0  0  0
  -23.3484  -31.6536   25.2032 C   0  0  1  0  0  0  0  0  0  0  0  0
  -27.7479  -25.5482   19.2707 C   0  0  1  0  0  0  0  0  0  1  0  0
  -24.0521  -31.2321   21.4937 C   0  0  1  0  0  0  0  0  0  0  0  0
  -31.2125  -14.3682   20.3028 C   0  0  2  0  0  0  0  0  0  0  0  0
  -20.3844  -29.5789   14.8742 C   0  0  0  0  0  0  0  0  0  0  0  0
  -20.0570  -28.9086   21.4556 C   0  0  0  0  0  0  0  0  0  0  0  0
  -19.1953  -28.2819   19.1900 C   0  0  0  0  0  0  0  0  0  0  0  0
  -19.0597  -30.6498   19.9629 C   0  0  0  0  0  0  0  0  0  0  0  0
  -24.0344  -30.5813   15.2598 C   0  0  0  0  0  0  0  0  0  0  0  0
  -30.0058  -23.3565   17.2419 C   0  0  0  0  0  0  0  0  0  0  0  0
  -21.3071  -29.6787   19.3319 C   0  0  1  0  0  0  0  0  0  0  0  0
  -21.5920  -30.1709   15.5840 C   0  0  2  0  0  0  0  0  0  0  0  0
  -19.9322  -29.3760   19.9917 C   0  0  0  0  0  0  0  0  0  0  0  0
  -28.8988  -13.5207   20.4038 N   0  0  0  0  0  0  0  0  0  0  0  0
  -30.1295  -13.3938   19.8789 N   0  0  0  0  0  0  0  0  0  0  0  0
  -28.9789  -23.9990   18.0330 N   0  0  0  0  0  0  0  0  0  0  0  0
  -23.3378  -30.3315   20.5866 N   0  0  0  0  0  0  0  0  0  0  0  0
  -31.7311  -16.6689   21.0156 N   0  0  0  0  0  0  0  0  0  0  0  0
  -31.4168  -12.0923   18.3757 N   0  0  0  0  0  0  0  0  0  0  0  0
  -27.3384  -10.1607   18.1973 N   0  0  0  0  0  0  0  0  0  0  0  0
  -31.3219  -18.1779   19.2498 N   0  0  0  0  0  0  0  0  0  0  0  0
  -23.6593  -31.8428   23.8026 N   0  0  0  0  0  0  0  0  0  0  0  0
  -21.2179  -30.1493   17.9538 N   0  0  0  0  0  0  0  0  0  0  0  0
  -22.7795  -30.0206   14.6961 N   0  3  0  0  0  0  0  0  0  0  0  0
  -30.0899  -25.9483   18.7467 O   0  0  0  0  0  0  0  0  0  0  0  0
  -29.4852  -10.0552   17.3980 O   0  0  0  0  0  0  0  0  0  0  0  0
  -23.5130  -29.6180   23.1306 O   0  0  0  0  0  0  0  0  0  0  0  0
  -21.6127  -31.8567   20.2205 O   0  0  0  0  0  0  0  0  0  0  0  0
  -22.5140  -28.4653   17.0257 O   0  0  0  0  0  0  0  0  0  0  0  0
  -33.0137  -18.5784   20.7858 O   0  0  0  0  0  0  0  0  0  0  0  0
  -22.8159  -11.7472   21.0373 O   0  0  0  0  0  0  0  0  0  0  0  0
  -27.8508  -26.1262   20.5469 O   0  0  0  0  0  0  0  0  0  1  0  0
  -21.1237   -6.5901   22.0090 F   0  0  0  0  0  0  0  0  0  0  0  0
  -31.5784  -22.9596   19.5634 F   0  0  0  0  0  0  0  0  0  0  0  0
  -21.6889  -11.0582   23.4658 F   0  0  0  0  0  0  0  0  0  0  0  0
  1  2  1  0  0  0  0
  1  5  2  0  0  0  0
  2  6  2  0  0  0  0
  3 10  2  0  0  0  0
  3 18  1  0  0  0  0
  4 11  1  0  0  0  0
  4 18  2  0  0  0  0
  5 20  1  0  0  0  0
  6 22  1  0  0  0  0
  7 12  2  0  0  0  0
  7 21  1  0  0  0  0
  8  9  2  0  0  0  0
  8 24  1  0  0  0  0
  9 25  1  0  0  0  0
 10 26  1  0  0  0  0
 11 26  2  0  0  0  0
 12 27  1  0  0  0  0
 13 14  2  0  0  0  0
 13 28  1  0  0  0  0
 14 29  1  0  0  0  0
 15 23  1  0  0  0  0
 15 27  2  0  0  0  0
 16 25  2  0  0  0  0
 16 30  1  0  0  0  0
 17 29  2  0  0  0  0
 17 31  1  0  0  0  0
 18 32  1  0  0  0  0
 19 32  1  0  0  0  0
 19 33  2  0  0  0  0
 19 35  1  0  0  0  0
 20 22  2  0  0  0  0
 20 40  1  0  0  0  0
 21 23  2  0  0  0  0
 21 41  1  0  0  0  0
 22 51  1  0  0  0  0
 23 42  1  0  0  0  0
 24 30  2  0  0  0  0
 24 60  1  0  0  0  0
 25 71  1  0  0  0  0
 26 81  1  0  0  0  0
 27 82  1  0  0  0  0
 28 31  2  0  0  0  0
 28 81  1  0  0  0  0
 29 83  1  0  0  0  0
 30 84  1  0  0  0  0
 31 85  1  0  0  0  0
 32 64  2  0  0  0  0
 33 65  1  0  0  0  0
 33 69  1  0  0  0  0
 34 52  1  0  0  0  0
 34 66  1  0  0  0  0
 34 75  2  0  0  0  0
 35 70  1  0  0  0  0
 35 76  2  0  0  0  0
 36 53  1  0  0  0  0
 36 72  1  0  0  0  0
 36 77  2  0  0  0  0
 37 61  1  0  0  0  0
 37 67  1  0  0  0  0
 37 78  2  0  0  0  0
 38 62  1  0  0  0  0
 38 73  1  0  0  0  0
 38 79  2  0  0  0  0
 39 68  1  0  0  0  0
 39 71  1  0  0  0  0
 39 80  2  0  0  0  0
 40 43  1  0  0  0  0
 41 53  1  0  0  0  0
 42 67  1  0  0  0  0
 43 45  1  0  0  0  0
 44 46  1  0  0  0  0
 44 48  1  0  0  0  0
 45 51  1  0  0  0  0
 46 54  1  0  0  0  0
 47 49  1  0  0  0  0
 47 52  1  0  0  0  0
 48 68  1  0  0  0  0
 49 66  1  0  0  0  0
 50 54  1  0  0  0  0
 50 68  1  0  0  0  0
 51 72  1  0  0  0  0
 52 82  1  0  0  0  0
 53 67  1  0  0  0  0
 54 65  1  0  0  0  0
 55 62  1  0  0  0  0
 56 63  1  0  0  0  0
 57 63  1  0  0  0  0
 58 63  1  0  0  0  0
 59 74  1  0  0  0  0
 60 66  1  0  0  0  0
 61 63  1  0  0  0  0
 61 73  1  0  0  0  0
 62 74  1  0  0  0  0
 64 65  1  0  0  0  0
M  CHG  1  74   1
M  ISO  4  39 100  52 101  71 100  82 101
M  END
> <Batch ID>
0007

> <Smiles>
CNC(C)C(=O)NC(C(=O)N1Cc2cc([101O:1][101CH:1]3CCN(Cc4ccc([100NH:0][100C:0](=O)N5CCCC(n6nc(-c7ccc(Oc8ccc(F)cc8F)cc7)c(C(N)=O)c6N)C5)cc4F)C3=O)ccc2CC1C(=O)NC1CCCc2ccccc21)C(C)(C)C

> <Shape>
0.274

> <Color>
0.083

> <Negative vol penalty>
0.000

$$$$

  -OEChem-04042320323D

 79 87  0     1  0  0  0  0  0999 V2000
  -16.9162  -27.6289   23.7381 C   0  0  0  0  0  0  0  0  0  0  0  0
  -17.6348  -26.9244   22.7775 C   0  0  0  0  0  0  0  0  0  0  0  0
  -27.5511  -12.6213   23.1702 C   0  0  0  0  0  0  0  0  0  0  0  0
  -26.2861  -13.3556   21.2472 C   0  0  0  0  0  0  0  0  0  0  0  0
  -17.3090  -28.9184   24.0941 C   0  0  0  0  0  0  0  0  0  0  0  0
  -18.7460  -27.5096   22.1715 C   0  0  0  0  0  0  0  0  0  0  0  0
  -22.6852  -24.3419   21.8660 C   0  0  0  0  0  0  0  0  0  0  0  0
  -26.4798  -11.8225   23.5699 C   0  0  0  0  0  0  0  0  0  0  0  0
  -25.2148  -12.5567   21.6469 C   0  0  0  0  0  0  0  0  0  0  0  0
  -22.6515  -23.3793   20.8580 C   0  0  0  0  0  0  0  0  0  0  0  0
  -24.3630   -9.2889   21.5194 C   0  0  0  0  0  0  0  0  0  0  0  0
  -23.7317   -8.5182   20.5432 C   0  0  0  0  0  0  0  0  0  0  0  0
  -24.1182  -24.7438   19.5141 C   0  0  0  0  0  0  0  0  0  0  0  0
  -21.6499   -9.6610   20.9872 C   0  0  0  0  0  0  0  0  0  0  0  0
  -27.4543  -13.3879   22.0089 C   0  0  0  0  0  0  0  0  0  0  0  0
  -29.6272  -13.8468   20.7536 C   0  0  0  0  0  0  0  0  0  0  0  0
  -18.4313  -29.5160   23.4991 C   0  0  0  0  0  0  0  0  0  0  0  0
  -23.4282  -25.5197   21.7008 C   0  0  0  0  0  0  0  0  0  0  0  0
  -19.1533  -28.8088   22.5189 C   0  0  0  0  0  0  0  0  0  0  0  0
  -24.1617  -25.7187   20.5224 C   0  0  0  0  0  0  0  0  0  0  0  0
  -25.3117  -11.7902   22.8083 C   0  0  0  0  0  0  0  0  0  0  0  0
  -23.3657  -23.5814   19.6807 C   0  0  0  0  0  0  0  0  0  0  0  0
  -23.6378  -10.2457   22.2296 C   0  0  0  0  0  0  0  0  0  0  0  0
  -22.3752   -8.7042   20.2771 C   0  0  0  0  0  0  0  0  0  0  0  0
  -22.2812  -10.4318   21.9635 C   0  0  0  0  0  0  0  0  0  0  0  0
  -28.5604  -14.2137   21.5957 C   0  0  0  0  0  0  0  0  0  0  0  0
  -30.4046  -14.9762   20.6724 C   0  0  0  0  0  0  0  0  0  0  0  0
  -29.8917  -12.5969   20.1029 C   0  0  0  0  0  0  0  0  0  0  0  0
  -22.7272  -28.6185   21.6002 C   0  0  0  0  0  0  0  0  0  0  0  0
  -25.9533  -28.9473   21.5195 C   0  0  0  0  0  0  0  0  0  0  0  0
  -28.9880  -27.5734   20.7779 C   0  0  0  0  0  0  0  0  0  0  0  0
  -27.4088  -18.2333   19.8632 C   0  0  0  0  0  0  0  0  0  0  0  0
  -18.7894  -30.9301   23.8822 C   0  0  0  0  0  0  0  0  0  0  0  0
  -23.4757  -26.5362   22.8084 C   0  0  0  0  0  0  0  0  0  0  0  0
  -24.9912  -26.9568   20.3041 C   0  0  0  0  0  0  0  0  0  0  0  0
  -20.2005  -31.3356   23.4642 C   0  0  0  0  0  0  0  0  0  0  0  0
  -28.4578  -18.4819   23.1794 C   0  0  0  0  0  0  0  0  0  0  0  0
  -24.2236  -18.3058   21.6696 C   0  0  0  0  0  0  0  0  0  0  0  0
  -20.4692  -30.9221   22.0207 C   0  0  0  0  0  0  0  0  0  0  0  0
  -29.8946  -17.9655   23.0681 C   0  0  0  0  0  0  0  0  0  0  0  0
  -23.6986  -18.1873   20.2425 C   0  0  0  0  0  0  0  0  0  0  0  0
  -28.0640  -19.3780   22.0079 C   0  0  0  0  0  0  0  0  0  0  0  0
  -25.5676  -18.9799   21.4809 C   0  0  0  0  0  0  0  0  0  0  0  0
  -29.7774  -18.3181   20.5791 C   0  0  0  0  0  0  0  0  0  0  0  0
  -20.3790  -29.4001   21.8569 C   0  0  1  0  0  0  0  0  0  0  0  0
  -23.8522  -27.9324   22.3224 C   0  0  1  0  0  0  0  0  0  0  0  0
  -30.2311  -17.3498   21.6921 C   0  0  2  0  0  0  0  0  0  0  0  0
  -24.9564  -18.0179   19.3722 C   0  0  1  0  0  0  0  0  0  0  0  0
  -31.4420  -28.0980   20.7827 C   0  0  0  0  0  0  0  0  0  0  0  0
  -25.5917  -30.6507   19.0140 C   0  0  0  0  0  0  0  0  0  0  0  0
  -28.0309  -30.3457   18.5391 C   0  0  0  0  0  0  0  0  0  0  0  0
  -27.3036  -31.5103   20.6217 C   0  0  0  0  0  0  0  0  0  0  0  0
  -29.5693  -25.3893   22.6886 C   0  0  0  0  0  0  0  0  0  0  0  0
  -24.8568  -18.8811   18.1163 C   0  0  0  0  0  0  0  0  0  0  0  0
  -24.4906  -22.5318   17.8672 C   0  0  0  0  0  0  0  0  0  1  0  0
  -24.6247  -21.1014   17.3819 C   0  0  0  0  0  0  0  0  0  0  0  0
  -26.9948  -29.0085   20.4284 C   0  0  1  0  0  0  0  0  0  0  0  0
  -30.2825  -27.5044   21.5677 C   0  0  2  0  0  0  0  0  0  0  0  0
  -26.9632  -30.3562   19.6538 C   0  0  0  0  0  0  0  0  0  0  0  0
  -28.6489  -15.4773   22.0194 N   0  0  0  0  0  0  0  0  0  0  0  0
  -29.7807  -15.9142   21.4412 N   0  0  0  0  0  0  0  0  0  0  0  0
  -25.0006  -27.9241   21.4139 N   0  0  0  0  0  0  0  0  0  0  0  0
  -28.3850  -18.7393   20.7292 N   0  0  0  0  0  0  0  0  0  0  0  0
  -26.0768  -18.3757   20.2525 N   0  0  0  0  0  0  0  0  0  0  0  0
  -31.5542  -15.2484   20.0192 N   0  0  0  0  0  0  0  0  0  0  0  0
  -28.9904  -11.5406   20.2934 N   0  0  0  0  0  0  0  0  0  0  0  0
  -21.5802  -28.7659   22.3565 N   0  0  0  0  0  0  0  0  0  0  0  0
  -28.2733  -28.7165   21.0675 N   0  0  0  0  0  0  0  0  0  0  0  0
  -30.6136  -26.0892   21.8970 N   0  3  0  0  0  0  0  0  0  0  0  0
  -30.9061  -12.4169   19.3874 O   0  0  0  0  0  0  0  0  0  0  0  0
  -22.8885  -28.9881   20.4430 O   0  0  0  0  0  0  0  0  0  0  0  0
  -25.9883  -29.7725   22.4357 O   0  0  0  0  0  0  0  0  0  0  0  0
  -28.6468  -26.7024   19.9807 O   0  0  0  0  0  0  0  0  0  0  0  0
  -27.7213  -17.7009   18.7919 O   0  0  0  0  0  0  0  0  0  0  0  0
  -24.2662  -11.0106   23.1979 O   0  0  0  0  0  0  0  0  0  0  0  0
  -23.3338  -22.6373   18.6883 O   0  0  0  0  0  0  0  0  0  1  0  0
  -24.7232  -20.2362   18.5072 O   0  0  0  0  0  0  0  0  0  0  0  0
  -21.7694   -7.9651   19.3385 F   0  0  0  0  0  0  0  0  0  0  0  0
  -21.5796  -11.3502   22.6416 F   0  0  0  0  0  0  0  0  0  0  0  0
  1  2  1  0  0  0  0
  1  5  2  0  0  0  0
  2  6  2  0  0  0  0
  3  8  2  0  0  0  0
  3 15  1  0  0  0  0
  4  9  1  0  0  0  0
  4 15  2  0  0  0  0
  5 17  1  0  0  0  0
  6 19  1  0  0  0  0
  7 10  2  0  0  0  0
  7 18  1  0  0  0  0
  8 21  1  0  0  0  0
  9 21  2  0  0  0  0
 10 22  1  0  0  0  0
 11 12  2  0  0  0  0
 11 23  1  0  0  0  0
 12 24  1  0  0  0  0
 13 20  1  0  0  0  0
 13 22  2  0  0  0  0
 14 24  2  0  0  0  0
 14 25  1  0  0  0  0
 15 26  1  0  0  0  0
 16 26  1  0  0  0  0
 16 27  2  0  0  0  0
 16 28  1  0  0  0  0
 17 19  2  0  0  0  0
 17 33  1  0  0  0  0
 18 20  2  0  0  0  0
 18 34  1  0  0  0  0
 19 45  1  0  0  0  0
 20 35  1  0  0  0  0
 21 75  1  0  0  0  0
 22 76  1  0  0  0  0
 23 25  2  0  0  0  0
 23 75  1  0  0  0  0
 24 78  1  0  0  0  0
 25 79  1  0  0  0  0
 26 60  2  0  0  0  0
 27 61  1  0  0  0  0
 27 65  1  0  0  0  0
 28 66  1  0  0  0  0
 28 70  2  0  0  0  0
 29 46  1  0  0  0  0
 29 67  1  0  0  0  0
 29 71  2  0  0  0  0
 30 57  1  0  0  0  0
 30 62  1  0  0  0  0
 30 72  2  0  0  0  0
 31 58  1  0  0  0  0
 31 68  1  0  0  0  0
 31 73  2  0  0  0  0
 32 63  1  0  0  0  0
 32 64  1  0  0  0  0
 32 74  2  0  0  0  0
 33 36  1  0  0  0  0
 34 46  1  0  0  0  0
 35 62  1  0  0  0  0
 36 39  1  0  0  0  0
 37 40  1  0  0  0  0
 37 42  1  0  0  0  0
 38 41  1  0  0  0  0
 38 43  1  0  0  0  0
 39 45  1  0  0  0  0
 40 47  1  0  0  0  0
 41 48  1  0  0  0  0
 42 63  1  0  0  0  0
 43 64  1  0  0  0  0
 44 47  1  0  0  0  0
 44 63  1  0  0  0  0
 45 67  1  0  0  0  0
 46 62  1  0  0  0  0
 47 61  1  0  0  0  0
 48 54  1  0  0  0  0
 48 64  1  0  0  0  0
 49 58  1  0  0  0  0
 50 59  1  0  0  0  0
 51 59  1  0  0  0  0
 52 59  1  0  0  0  0
 53 69  1  0  0  0  0
 54 77  1  0  0  0  0
 55 56  1  0  0  0  0
 55 76  1  0  0  0  0
 56 77  1  0  0  0  0
 57 59  1  0  0  0  0
 57 68  1  0  0  0  0
 58 69  1  0  0  0  0
 60 61  1  0  0  0  0
M  CHG  1  69   1
M  ISO  4  32 100  55 101  64 100  76 101
M  END
> <Batch ID>
0007

> <Smiles>
CNC(C)C(=O)NC(C(=O)N1Cc2cc([101O:1][101CH2:1]COCC3CCC[100N:0]3[100C:0](=O)N3CCCC(n4nc(-c5ccc(Oc6ccc(F)cc6F)cc5)c(C(N)=O)c4N)C3)ccc2CC1C(=O)NC1CCCc2ccccc21)C(C)(C)C

> <Shape>
0.254

> <Color>
0.071

> <Negative vol penalty>
0.000

$$$$

  -OEChem-04042320323D

 81 89  0     1  0  0  0  0  0999 V2000
  -17.7155  -33.3419   18.0836 C   0  0  0  0  0  0  0  0  0  0  0  0
  -18.9138  -32.9824   17.4751 C   0  0  0  0  0  0  0  0  0  0  0  0
  -24.8012  -10.2786   22.6259 C   0  0  0  0  0  0  0  0  0  0  0  0
  -24.4888  -11.7693   24.5013 C   0  0  0  0  0  0  0  0  0  0  0  0
  -17.7254  -33.9232   19.3508 C   0  0  0  0  0  0  0  0  0  0  0  0
  -20.1229  -33.2051   18.1332 C   0  0  0  0  0  0  0  0  0  0  0  0
  -24.6112  -27.7615   19.5870 C   0  0  0  0  0  0  0  0  0  0  0  0
  -29.5131  -20.7821   21.9189 C   0  0  0  0  0  0  0  0  0  0  0  0
  -24.3855   -9.2034   23.4112 C   0  0  0  0  0  0  0  0  0  0  0  0
  -24.0729  -10.6941   25.2866 C   0  0  0  0  0  0  0  0  0  0  0  0
  -25.6185  -26.8047   19.7133 C   0  0  0  0  0  0  0  0  0  0  0  0
  -29.3851  -22.1504   22.1577 C   0  0  0  0  0  0  0  0  0  0  0  0
  -21.4645   -7.9153   24.5255 C   0  0  0  0  0  0  0  0  0  0  0  0
  -20.5567   -7.0164   23.9656 C   0  0  0  0  0  0  0  0  0  0  0  0
  -27.0248  -28.4182   20.8389 C   0  0  0  0  0  0  0  0  0  0  0  0
  -27.1423  -20.6374   21.4769 C   0  0  0  0  0  0  0  0  0  0  0  0
  -22.1505   -5.2245   24.2582 C   0  0  0  0  0  0  0  0  0  0  0  0
  -24.8529  -11.5615   23.1710 C   0  0  0  0  0  0  0  0  0  0  0  0
  -24.4755  -13.5061   21.5635 C   0  0  0  0  0  0  0  0  0  0  0  0
  -18.9346  -34.1443   20.0288 C   0  0  0  0  0  0  0  0  0  0  0  0
  -24.8012  -29.0475   20.1004 C   0  0  0  0  0  0  0  0  0  0  0  0
  -20.1490  -33.7912   19.4101 C   0  0  0  0  0  0  0  0  0  0  0  0
  -26.0146  -29.3772   20.7264 C   0  0  0  0  0  0  0  0  0  0  0  0
  -28.3917  -20.0256   21.5784 C   0  0  0  0  0  0  0  0  0  0  0  0
  -24.0213   -9.4111   24.7416 C   0  0  0  0  0  0  0  0  0  0  0  0
  -26.8224  -27.1323   20.3375 C   0  0  0  0  0  0  0  0  0  0  0  0
  -22.7154   -7.4688   24.9517 C   0  0  0  0  0  0  0  0  0  0  0  0
  -28.1357  -22.7621   22.0562 C   0  0  0  0  0  0  0  0  0  0  0  0
  -20.8997   -5.6710   23.8320 C   0  0  0  0  0  0  0  0  0  0  0  0
  -27.0143  -22.0057   21.7158 C   0  0  0  0  0  0  0  0  0  0  0  0
  -23.0584   -6.1234   24.8181 C   0  0  0  0  0  0  0  0  0  0  0  0
  -25.2829  -12.6725   22.3604 C   0  0  0  0  0  0  0  0  0  0  0  0
  -25.3542  -14.3993   21.0010 C   0  0  0  0  0  0  0  0  0  0  0  0
  -23.0579  -13.4758   21.3509 C   0  0  0  0  0  0  0  0  0  0  0  0
  -23.3724  -32.4735   20.6455 C   0  0  0  0  0  0  0  0  0  0  0  0
  -24.8881  -31.7227   23.2046 C   0  0  0  0  0  0  0  0  0  0  0  0
  -26.3005  -30.3471   25.9886 C   0  0  0  0  0  0  0  0  0  0  0  0
  -29.6878  -17.8733   21.3941 C   0  0  0  0  0  0  0  0  0  0  0  0
  -18.8980  -34.8190   21.3772 C   0  0  0  0  0  0  0  0  0  0  0  0
  -23.7676  -30.1278   19.9324 C   0  0  0  0  0  0  0  0  0  0  0  0
  -26.1880  -30.7830   21.2329 C   0  0  0  0  0  0  0  0  0  0  0  0
  -20.1981  -34.6777   22.1645 C   0  0  0  0  0  0  0  0  0  0  0  0
  -30.4150  -14.4228   20.9013 C   0  0  0  0  0  0  0  0  0  0  0  0
  -21.3979  -34.9814   21.2727 C   0  0  0  0  0  0  0  0  0  0  0  0
  -29.0782  -13.7284   21.1714 C   0  0  0  0  0  0  0  0  0  0  0  0
  -30.6319  -15.6163   21.8299 C   0  0  0  0  0  0  0  0  0  0  0  0
  -28.2019  -15.9022   22.1169 C   0  0  0  0  0  0  0  0  0  0  0  0
  -21.4794  -33.9940   20.1023 C   0  0  1  0  0  0  0  0  0  0  0  0
  -23.7025  -31.0923   21.1301 C   0  0  1  0  0  0  0  0  0  0  0  0
  -27.9093  -14.7331   21.1623 C   0  0  2  0  0  0  0  0  0  0  0  0
  -26.8460  -30.8668   28.3823 C   0  0  0  0  0  0  0  0  0  0  0  0
  -27.2368  -33.4417   22.2923 C   0  0  0  0  0  0  0  0  0  0  0  0
  -28.2509  -33.1347   24.5607 C   0  0  0  0  0  0  0  0  0  0  0  0
  -26.0517  -34.2882   24.3254 C   0  0  0  0  0  0  0  0  0  0  0  0
  -24.5818  -28.1504   26.9783 C   0  0  0  0  0  0  0  0  0  0  0  0
  -28.6649  -26.3010   21.5911 C   0  0  0  0  0  0  0  0  0  1  0  0
  -29.1408  -24.9163   21.9857 C   0  0  0  0  0  0  0  0  0  0  0  0
  -26.1840  -31.7882   23.9726 C   0  0  1  0  0  0  0  0  0  0  0  0
  -25.8232  -30.2708   27.4276 C   0  0  2  0  0  0  0  0  0  0  0  0
  -26.9242  -33.1407   23.7717 C   0  0  0  0  0  0  0  0  0  0  0  0
  -26.5752  -13.0063   22.3111 N   0  0  0  0  0  0  0  0  0  0  0  0
  -26.5866  -14.0595   21.4764 N   0  0  0  0  0  0  0  0  0  0  0  0
  -24.9536  -31.2347   21.8939 N   0  0  0  0  0  0  0  0  0  0  0  0
  -29.4868  -16.5270   21.7655 N   0  0  0  0  0  0  0  0  0  0  0  0
  -25.1853  -15.4344   20.1511 N   0  0  0  0  0  0  0  0  0  0  0  0
  -22.3048  -12.4921   22.0063 N   0  0  0  0  0  0  0  0  0  0  0  0
  -28.5216  -18.6356   21.3358 N   0  0  0  0  0  0  0  0  0  0  0  0
  -22.0175  -32.7263   20.5470 N   0  0  0  0  0  0  0  0  0  0  0  0
  -25.8510  -31.4898   25.3613 N   0  0  0  0  0  0  0  0  0  0  0  0
  -25.5846  -28.8529   27.8197 N   0  3  0  0  0  0  0  0  0  0  0  0
  -22.4784  -14.2864   20.5889 O   0  0  0  0  0  0  0  0  0  0  0  0
  -24.2795  -33.2539   20.3813 O   0  0  0  0  0  0  0  0  0  0  0  0
  -23.8455  -32.0986   23.7477 O   0  0  0  0  0  0  0  0  0  0  0  0
  -27.0049  -29.4816   25.4736 O   0  0  0  0  0  0  0  0  0  0  0  0
  -30.8084  -18.3104   21.1197 O   0  0  0  0  0  0  0  0  0  0  0  0
  -23.6153   -8.3622   25.5081 O   0  0  0  0  0  0  0  0  0  0  0  0
  -27.7998  -26.1921   20.4615 O   0  0  0  0  0  0  0  0  0  1  0  0
  -28.0119  -24.1064   22.2905 O   0  0  0  0  0  0  0  0  0  0  0  0
  -20.0272   -4.8077   23.2957 F   0  0  0  0  0  0  0  0  0  0  0  0
  -25.8115  -22.5881   21.6156 F   0  0  0  0  0  0  0  0  0  0  0  0
  -24.2582   -5.6883   25.2268 F   0  0  0  0  0  0  0  0  0  0  0  0
  1  2  1  0  0  0  0
  1  5  2  0  0  0  0
  2  6  2  0  0  0  0
  3  9  2  0  0  0  0
  3 18  1  0  0  0  0
  4 10  1  0  0  0  0
  4 18  2  0  0  0  0
  5 20  1  0  0  0  0
  6 22  1  0  0  0  0
  7 11  2  0  0  0  0
  7 21  1  0  0  0  0
  8 12  2  0  0  0  0
  8 24  1  0  0  0  0
  9 25  1  0  0  0  0
 10 25  2  0  0  0  0
 11 26  1  0  0  0  0
 12 28  1  0  0  0  0
 13 14  2  0  0  0  0
 13 27  1  0  0  0  0
 14 29  1  0  0  0  0
 15 23  1  0  0  0  0
 15 26  2  0  0  0  0
 16 24  2  0  0  0  0
 16 30  1  0  0  0  0
 17 29  2  0  0  0  0
 17 31  1  0  0  0  0
 18 32  1  0  0  0  0
 19 32  1  0  0  0  0
 19 33  2  0  0  0  0
 19 34  1  0  0  0  0
 20 22  2  0  0  0  0
 20 39  1  0  0  0  0
 21 23  2  0  0  0  0
 21 40  1  0  0  0  0
 22 48  1  0  0  0  0
 23 41  1  0  0  0  0
 24 67  1  0  0  0  0
 25 76  1  0  0  0  0
 26 77  1  0  0  0  0
 27 31  2  0  0  0  0
 27 76  1  0  0  0  0
 28 30  2  0  0  0  0
 28 78  1  0  0  0  0
 29 79  1  0  0  0  0
 30 80  1  0  0  0  0
 31 81  1  0  0  0  0
 32 61  2  0  0  0  0
 33 62  1  0  0  0  0
 33 65  1  0  0  0  0
 34 66  1  0  0  0  0
 34 71  2  0  0  0  0
 35 49  1  0  0  0  0
 35 68  1  0  0  0  0
 35 72  2  0  0  0  0
 36 58  1  0  0  0  0
 36 63  1  0  0  0  0
 36 73  2  0  0  0  0
 37 59  1  0  0  0  0
 37 69  1  0  0  0  0
 37 74  2  0  0  0  0
 38 64  1  0  0  0  0
 38 67  1  0  0  0  0
 38 75  2  0  0  0  0
 39 42  1  0  0  0  0
 40 49  1  0  0  0  0
 41 63  1  0  0  0  0
 42 44  1  0  0  0  0
 43 45  1  0  0  0  0
 43 46  1  0  0  0  0
 44 48  1  0  0  0  0
 45 50  1  0  0  0  0
 46 64  1  0  0  0  0
 47 50  1  0  0  0  0
 47 64  1  0  0  0  0
 48 68  1  0  0  0  0
 49 63  1  0  0  0  0
 50 62  1  0  0  0  0
 51 59  1  0  0  0  0
 52 60  1  0  0  0  0
 53 60  1  0  0  0  0
 54 60  1  0  0  0  0
 55 70  1  0  0  0  0
 56 57  1  0  0  0  0
 56 77  1  0  0  0  0
 57 78  1  0  0  0  0
 58 60  1  0  0  0  0
 58 69  1  0  0  0  0
 59 70  1  0  0  0  0
 61 62  1  0  0  0  0
M  CHG  1  70   1
M  ISO  4  38 100  56 101  67 100  77 101
M  END
> <Batch ID>
0007

> <Smiles>
CNC(C)C(=O)NC(C(=O)N1Cc2cc([101O:1][101CH2:1]COc3ccc([100NH:0][100C:0](=O)N4CCCC(n5nc(-c6ccc(Oc7ccc(F)cc7F)cc6)c(C(N)=O)c5N)C4)cc3F)ccc2CC1C(=O)NC1CCCc2ccccc21)C(C)(C)C

> <Shape>
0.265

> <Color>
0.145

> <Negative vol penalty>
0.000

$$$$

  -OEChem-04042320323D

 81 89  0     1  0  0  0  0  0999 V2000
  -32.3399  -13.7140   19.1259 C   0  0  0  0  0  0  0  0  0  0  0  0
  -31.6865  -14.9422   19.1340 C   0  0  0  0  0  0  0  0  0  0  0  0
  -28.9603  -24.7324   21.0823 C   0  0  0  0  0  0  0  0  0  0  0  0
  -29.9784  -26.2293   19.4823 C   0  0  0  0  0  0  0  0  0  0  0  0
  -31.6086  -12.5357   19.2696 C   0  0  0  0  0  0  0  0  0  0  0  0
  -30.3012  -14.9927   19.2847 C   0  0  0  0  0  0  0  0  0  0  0  0
  -27.0707  -19.2951   22.2104 C   0  0  0  0  0  0  0  0  0  0  0  0
  -29.5298  -23.6421   20.4246 C   0  0  0  0  0  0  0  0  0  0  0  0
  -30.5479  -25.1390   18.8246 C   0  0  0  0  0  0  0  0  0  0  0  0
  -26.3707  -20.4125   21.7576 C   0  0  0  0  0  0  0  0  0  0  0  0
  -30.4224  -20.4382   18.9541 C   0  0  0  0  0  0  0  0  0  0  0  0
  -29.6137  -19.3265   18.7184 C   0  0  0  0  0  0  0  0  0  0  0  0
  -21.9058  -26.6082   22.2892 C   0  0  0  0  0  0  0  0  0  0  0  0
  -22.6035  -28.0567   24.0925 C   0  0  0  0  0  0  0  0  0  0  0  0
  -24.3279  -19.1295   21.7679 C   0  0  0  0  0  0  0  0  0  0  0  0
  -22.2252  -25.7069   24.5079 C   0  0  0  0  0  0  0  0  0  0  0  0
  -28.1111  -20.6962   17.4134 C   0  0  0  0  0  0  0  0  0  0  0  0
  -29.1846  -26.0260   20.6111 C   0  0  0  0  0  0  0  0  0  0  0  0
  -22.2645  -27.8742   22.7518 C   0  0  0  0  0  0  0  0  0  0  0  0
  -29.1573  -27.8980   22.3438 C   0  0  0  0  0  0  0  0  0  0  0  0
  -30.2146  -12.5723   19.4318 C   0  0  0  0  0  0  0  0  0  0  0  0
  -26.4053  -18.0813   22.4353 C   0  0  0  0  0  0  0  0  0  0  0  0
  -29.5504  -13.8137   19.4294 C   0  0  0  0  0  0  0  0  0  0  0  0
  -25.0213  -17.9988   22.2260 C   0  0  0  0  0  0  0  0  0  0  0  0
  -21.8862  -25.5245   23.1672 C   0  0  0  0  0  0  0  0  0  0  0  0
  -30.3236  -23.8454   19.2958 C   0  0  0  0  0  0  0  0  0  0  0  0
  -24.9996  -20.3291   21.5335 C   0  0  0  0  0  0  0  0  0  0  0  0
  -30.0754  -21.6791   18.4196 C   0  0  0  0  0  0  0  0  0  0  0  0
  -28.4581  -19.4554   17.9480 C   0  0  0  0  0  0  0  0  0  0  0  0
  -22.5839  -26.9730   24.9705 C   0  0  0  0  0  0  0  0  0  0  0  0
  -28.9197  -21.8080   17.6492 C   0  0  0  0  0  0  0  0  0  0  0  0
  -28.5961  -27.1527   21.2897 C   0  0  0  0  0  0  0  0  0  0  0  0
  -28.2112  -28.8511   22.6322 C   0  0  0  0  0  0  0  0  0  0  0  0
  -22.2843  -29.0158   21.8280 C   0  0  0  0  0  0  0  0  0  0  0  0
  -30.4209  -27.7429   23.0034 C   0  0  0  0  0  0  0  0  0  0  0  0
  -26.6051  -15.1538   21.2134 C   0  0  0  0  0  0  0  0  0  0  0  0
  -24.4675  -14.4539   23.5507 C   0  0  0  0  0  0  0  0  0  0  0  0
  -22.0377  -15.5551   25.6791 C   0  0  0  0  0  0  0  0  0  0  0  0
  -29.4615  -11.2698   19.5361 C   0  0  0  0  0  0  0  0  0  0  0  0
  -27.1702  -16.8925   22.9493 C   0  0  0  0  0  0  0  0  0  0  0  0
  -24.2567  -16.7247   22.4717 C   0  0  0  0  0  0  0  0  0  0  0  0
  -28.0391  -11.4294   20.0666 C   0  0  0  0  0  0  0  0  0  0  0  0
  -24.6779  -31.3663   20.6084 C   0  0  0  0  0  0  0  0  0  0  0  0
  -27.3318  -12.5813   19.3596 C   0  0  0  0  0  0  0  0  0  0  0  0
  -26.0062  -30.6165   20.7247 C   0  0  0  0  0  0  0  0  0  0  0  0
  -23.5331  -30.4296   20.2307 C   0  0  0  0  0  0  0  0  0  0  0  0
  -24.7107  -28.5048   21.2374 C   0  0  0  0  0  0  0  0  0  0  0  0
  -28.0517  -13.9109   19.6154 C   0  0  1  0  0  0  0  0  0  0  0  0
  -26.4801  -15.5646   22.6533 C   0  0  1  0  0  0  0  0  0  0  0  0
  -25.8817  -29.4040   21.6664 C   0  0  1  0  0  0  0  0  0  0  0  0
  -20.4475  -14.7431   27.4424 C   0  0  0  0  0  0  0  0  0  0  0  0
  -22.6798  -13.2601   21.3853 C   0  0  0  0  0  0  0  0  0  0  0  0
  -20.7760  -13.3430   23.0092 C   0  0  0  0  0  0  0  0  0  0  0  0
  -22.7760  -11.9370   23.5054 C   0  0  0  0  0  0  0  0  0  0  0  0
  -23.2547  -17.2938   27.7418 C   0  0  0  0  0  0  0  0  0  0  0  0
  -21.5002  -24.1625   22.6702 C   0  0  0  0  0  0  0  0  0  0  0  0
  -23.6667  -23.6942   21.5190 C   0  0  0  0  0  0  0  0  0  0  0  0
  -24.8096  -22.6991   21.4782 C   0  0  0  0  0  0  0  0  0  1  0  0
  -22.9617  -14.4538   23.6572 C   0  0  1  0  0  0  0  0  0  0  0  0
  -21.8226  -15.3304   27.1649 C   0  0  2  0  0  0  0  0  0  0  0  0
  -22.3128  -13.2721   22.8827 C   0  0  0  0  0  0  0  0  0  0  0  0
  -27.3871  -27.5941   20.9326 N   0  0  0  0  0  0  0  0  0  0  0  0
  -27.1808  -28.6271   21.7672 N   0  0  0  0  0  0  0  0  0  0  0  0
  -23.4724  -29.2913   21.1468 N   0  0  0  0  0  0  0  0  0  0  0  0
  -25.0502  -15.5882   22.9679 N   0  0  0  0  0  0  0  0  0  0  0  0
  -28.1685  -29.8504   23.5388 N   0  0  0  0  0  0  0  0  0  0  0  0
  -31.2724  -26.7124   22.5821 N   0  0  0  0  0  0  0  0  0  0  0  0
  -27.7365  -14.4103   20.9366 N   0  0  0  0  0  0  0  0  0  0  0  0
  -22.6533  -14.4748   25.0830 N   0  0  0  0  0  0  0  0  0  0  0  0
  -21.9421  -16.6177   27.9061 N   0  3  0  0  0  0  0  0  0  0  0  0
  -22.6628  -23.2467   22.5170 N   0  3  0  0  0  0  0  0  0  0  0  0
  -21.2390  -29.6574   21.7345 O   0  0  0  0  0  0  0  0  0  0  0  0
  -30.7772  -28.4855   23.9495 O   0  0  0  0  0  0  0  0  0  0  0  0
  -25.7385  -15.4855   20.4130 O   0  0  0  0  0  0  0  0  0  0  0  0
  -25.1039  -13.4863   23.9757 O   0  0  0  0  0  0  0  0  0  0  0  0
  -21.6907  -16.5844   25.1039 O   0  0  0  0  0  0  0  0  0  0  0  0
  -30.8797  -22.7817   18.6539 O   0  0  0  0  0  0  0  0  0  0  0  0
  -24.3141  -21.4181   21.0910 O   0  0  0  0  0  0  0  0  0  1  0  0
  -27.6824  -18.3874   17.7203 F   0  0  0  0  0  0  0  0  0  0  0  0
  -22.9079  -27.1485   26.2584 F   0  0  0  0  0  0  0  0  0  0  0  0
  -28.5818  -22.9972   17.1321 F   0  0  0  0  0  0  0  0  0  0  0  0
  1  2  1  0  0  0  0
  1  5  2  0  0  0  0
  2  6  2  0  0  0  0
  3  8  2  0  0  0  0
  3 18  1  0  0  0  0
  4  9  1  0  0  0  0
  4 18  2  0  0  0  0
  5 21  1  0  0  0  0
  6 23  1  0  0  0  0
  7 10  2  0  0  0  0
  7 22  1  0  0  0  0
  8 26  1  0  0  0  0
  9 26  2  0  0  0  0
 10 27  1  0  0  0  0
 11 12  2  0  0  0  0
 11 28  1  0  0  0  0
 12 29  1  0  0  0  0
 13 19  1  0  0  0  0
 13 25  2  0  0  0  0
 14 19  2  0  0  0  0
 14 30  1  0  0  0  0
 15 24  1  0  0  0  0
 15 27  2  0  0  0  0
 16 25  1  0  0  0  0
 16 30  2  0  0  0  0
 17 29  2  0  0  0  0
 17 31  1  0  0  0  0
 18 32  1  0  0  0  0
 19 34  1  0  0  0  0
 20 32  1  0  0  0  0
 20 33  2  0  0  0  0
 20 35  1  0  0  0  0
 21 23  2  0  0  0  0
 21 39  1  0  0  0  0
 22 24  2  0  0  0  0
 22 40  1  0  0  0  0
 23 48  1  0  0  0  0
 24 41  1  0  0  0  0
 25 56  1  0  0  0  0
 26 77  1  0  0  0  0
 27 78  1  0  0  0  0
 28 31  2  0  0  0  0
 28 77  1  0  0  0  0
 29 79  1  0  0  0  0
 30 80  1  0  0  0  0
 31 81  1  0  0  0  0
 32 62  2  0  0  0  0
 33 63  1  0  0  0  0
 33 66  1  0  0  0  0
 34 64  1  0  0  0  0
 34 72  2  0  0  0  0
 35 67  1  0  0  0  0
 35 73  2  0  0  0  0
 36 49  1  0  0  0  0
 36 68  1  0  0  0  0
 36 74  2  0  0  0  0
 37 59  1  0  0  0  0
 37 65  1  0  0  0  0
 37 75  2  0  0  0  0
 38 60  1  0  0  0  0
 38 69  1  0  0  0  0
 38 76  2  0  0  0  0
 39 42  1  0  0  0  0
 40 49  1  0  0  0  0
 41 65  1  0  0  0  0
 42 44  1  0  0  0  0
 43 45  1  0  0  0  0
 43 46  1  0  0  0  0
 44 48  1  0  0  0  0
 45 50  1  0  0  0  0
 46 64  1  0  0  0  0
 47 50  1  0  0  0  0
 47 64  1  0  0  0  0
 48 68  1  0  0  0  0
 49 65  1  0  0  0  0
 50 63  1  0  0  0  0
 51 60  1  0  0  0  0
 52 61  1  0  0  0  0
 53 61  1  0  0  0  0
 54 61  1  0  0  0  0
 55 70  1  0  0  0  0
 56 71  1  0  0  0  0
 57 58  1  0  0  0  0
 57 71  1  0  0  0  0
 58 78  1  0  0  0  0
 59 61  1  0  0  0  0
 59 69  1  0  0  0  0
 60 70  1  0  0  0  0
 62 63  1  0  0  0  0
M  CHG  2  70   1  71   1
M  ISO  4  19 100  34 100  58 101  78 101
M  END
> <Batch ID>
0007

> <Smiles>
CNC(C)C(=O)NC(C(=O)N1Cc2cc([101O:1][101CH2:1]CNCc3cc(F)c[100c:0]([100C:0](=O)N4CCCC(n5nc(-c6ccc(Oc7ccc(F)cc7F)cc6)c(C(N)=O)c5N)C4)c3)ccc2CC1C(=O)NC1CCCc2ccccc21)C(C)(C)C

> <Shape>
0.213

> <Color>
0.054

> <Negative vol penalty>
0.000

$$$$

  -OEChem-04042320323D

 87 96  0     1  0  0  0  0  0999 V2000
  -26.5211  -35.7477   16.5152 C   0  0  0  0  0  0  0  0  0  0  0  0
  -27.1409  -34.6690   17.1379 C   0  0  0  0  0  0  0  0  0  0  0  0
  -24.0866   -7.6051   19.7536 C   0  0  0  0  0  0  0  0  0  0  0  0
  -22.9930   -9.6793   20.3357 C   0  0  0  0  0  0  0  0  0  0  0  0
  -25.4289  -36.3674   17.1211 C   0  0  0  0  0  0  0  0  0  0  0  0
  -26.6696  -34.2101   18.3674 C   0  0  0  0  0  0  0  0  0  0  0  0
  -26.2973  -29.0799   18.5525 C   0  0  0  0  0  0  0  0  0  0  0  0
  -23.1327   -6.8970   20.4845 C   0  0  0  0  0  0  0  0  0  0  0  0
  -22.0390   -8.9712   21.0666 C   0  0  0  0  0  0  0  0  0  0  0  0
  -27.4617  -28.3378   18.7457 C   0  0  0  0  0  0  0  0  0  0  0  0
  -22.5098   -6.1785   23.7280 C   0  0  0  0  0  0  0  0  0  0  0  0
  -22.9626   -5.1639   24.5712 C   0  0  0  0  0  0  0  0  0  0  0  0
  -26.9484  -28.1556   21.0955 C   0  0  0  0  0  0  0  0  0  0  0  0
  -29.5115  -19.9992   21.2619 C   0  0  0  0  0  0  0  0  0  0  0  0
  -27.2397  -18.4295   20.8652 C   0  0  0  0  0  0  0  0  0  0  0  0
  -21.6474   -3.5540   23.3401 C   0  0  0  0  0  0  0  0  0  0  0  0
  -24.0168   -8.9963   19.6792 C   0  0  0  0  0  0  0  0  0  0  0  0
  -25.2821   -9.6084   17.5504 C   0  0  0  0  0  0  0  0  0  0  0  0
  -24.9380  -35.9097   18.3540 C   0  0  0  0  0  0  0  0  0  0  0  0
  -25.4533  -29.3751   19.6329 C   0  0  0  0  0  0  0  0  0  0  0  0
  -25.5707  -34.8252   18.9910 C   0  0  0  0  0  0  0  0  0  0  0  0
  -25.7716  -28.8975   20.9124 C   0  0  0  0  0  0  0  0  0  0  0  0
  -28.2454  -20.5833   21.2970 C   0  0  0  0  0  0  0  0  0  0  0  0
  -28.5059  -17.8453   20.8300 C   0  0  0  0  0  0  0  0  0  0  0  0
  -22.1089   -7.5800   21.1410 C   0  0  0  0  0  0  0  0  0  0  0  0
  -27.7885  -27.8774   20.0177 C   0  0  0  0  0  0  0  0  0  0  0  0
  -21.6258   -5.8810   22.6909 C   0  0  0  0  0  0  0  0  0  0  0  0
  -22.5314   -3.8516   24.3772 C   0  0  0  0  0  0  0  0  0  0  0  0
  -29.6418  -18.6302   21.0283 C   0  0  0  0  0  0  0  0  0  0  0  0
  -27.1095  -19.7985   21.0987 C   0  0  0  0  0  0  0  0  0  0  0  0
  -21.1946   -4.5687   22.4969 C   0  0  0  0  0  0  0  0  0  0  0  0
  -25.0022   -9.7283   18.9248 C   0  0  0  0  0  0  0  0  0  0  0  0
  -26.2910  -10.5127   17.3252 C   0  0  0  0  0  0  0  0  0  0  0  0
  -24.6836   -8.7557   16.5652 C   0  0  0  0  0  0  0  0  0  0  0  0
  -24.3758  -32.0201   21.0782 C   0  0  0  0  0  0  0  0  0  0  0  0
  -22.5966  -29.7583   22.7431 C   0  0  0  0  0  0  0  0  0  0  0  0
  -20.0550  -31.3555   24.3646 C   0  0  0  0  0  0  0  0  0  0  0  0
  -27.6134  -15.5267   20.3694 C   0  0  0  0  0  0  0  0  0  0  0  0
  -23.7843  -36.6416   18.9929 C   0  0  0  0  0  0  0  0  0  0  0  0
  -24.1860  -30.1517   19.3976 C   0  0  0  0  0  0  0  0  0  0  0  0
  -24.8971  -29.1841   22.1032 C   0  0  0  0  0  0  0  0  0  0  0  0
  -23.1125  -35.8569   20.1167 C   0  0  0  0  0  0  0  0  0  0  0  0
  -29.6958  -12.3056   20.2590 C   0  0  0  0  0  0  0  0  0  0  0  0
  -24.1598  -35.2658   21.0551 C   0  0  0  0  0  0  0  0  0  0  0  0
  -28.9562  -11.5635   19.1484 C   0  0  0  0  0  0  0  0  0  0  0  0
  -29.4921  -13.8134   20.1812 C   0  0  0  0  0  0  0  0  0  0  0  0
  -29.1031  -22.6624   22.3490 C   0  0  0  0  0  0  0  0  0  0  0  0
  -27.3168  -22.8178   20.6654 C   0  0  0  0  0  0  0  0  0  0  0  0
  -27.0981  -13.1329   19.9327 C   0  0  0  0  0  0  0  0  0  0  0  0
  -30.0605  -23.4192   21.4305 C   0  0  0  0  0  0  0  0  0  0  0  0
  -28.2331  -23.5727   19.7098 C   0  0  0  0  0  0  0  0  0  0  0  0
  -25.0732  -34.2826   20.3132 C   0  0  1  0  0  0  0  0  0  0  0  0
  -23.6181  -30.7908   20.6632 C   0  0  1  0  0  0  0  0  0  0  0  0
  -27.5742  -12.1698   18.8340 C   0  0  2  0  0  0  0  0  0  0  0  0
  -17.6862  -31.0235   25.1233 C   0  0  0  0  0  0  0  0  0  0  0  0
  -21.6285  -30.1368   19.8752 C   0  0  0  0  0  0  0  0  0  0  0  0
  -19.3780  -30.7431   20.7897 C   0  0  0  0  0  0  0  0  0  0  0  0
  -20.3212  -28.4717   21.2066 C   0  0  0  0  0  0  0  0  0  0  0  0
  -20.7894  -31.7361   27.2062 C   0  0  0  0  0  0  0  0  0  0  0  0
  -30.1574  -25.1661   19.6463 C   0  0  0  0  0  0  0  0  0  0  0  0
  -29.3753  -26.3520   19.1170 C   0  0  0  0  0  0  0  0  0  1  0  0
  -21.3037  -30.4628   22.4157 C   0  0  1  0  0  0  0  0  0  0  0  0
  -19.1544  -30.9166   25.5051 C   0  0  2  0  0  0  0  0  0  0  0  0
  -20.6811  -29.9680   21.0797 C   0  0  0  0  0  0  0  0  0  0  0  0
  -25.7713  -10.6372   19.5302 N   0  0  0  0  0  0  0  0  0  0  0  0
  -26.5444  -11.0964   18.5315 N   0  0  0  0  0  0  0  0  0  0  0  0
  -28.1180  -21.9487   21.5299 N   0  0  0  0  0  0  0  0  0  0  0  0
  -23.6330  -29.8707   21.8076 N   0  0  0  0  0  0  0  0  0  0  0  0
  -28.0751  -14.2042   20.1594 N   0  0  0  0  0  0  0  0  0  0  0  0
  -26.9772  -10.8576   16.2150 N   0  0  0  0  0  0  0  0  0  0  0  0
  -23.5689   -9.2295   15.8599 N   0  0  0  0  0  0  0  0  0  0  0  0
  -28.6349  -16.4544   20.5897 N   0  0  0  0  0  0  0  0  0  0  0  0
  -24.4011  -33.0156   20.1202 N   0  0  0  0  0  0  0  0  0  0  0  0
  -20.4391  -30.2902   23.5781 N   0  0  0  0  0  0  0  0  0  0  0  0
  -29.2636  -24.3333   20.5216 N   0  3  0  0  0  0  0  0  0  0  0  0
  -19.3903  -31.7650   26.7074 N   0  3  0  0  0  0  0  0  0  0  0  0
  -25.1141   -7.6014   16.3294 O   0  0  0  0  0  0  0  0  0  0  0  0
  -24.8976  -32.0629   22.1862 O   0  0  0  0  0  0  0  0  0  0  0  0
  -22.6851  -29.1189   23.7951 O   0  0  0  0  0  0  0  0  0  0  0  0
  -20.3819  -32.5269   24.1869 O   0  0  0  0  0  0  0  0  0  0  0  0
  -26.4129  -15.8059   20.3415 O   0  0  0  0  0  0  0  0  0  0  0  0
  -21.1778   -6.8894   21.8541 O   0  0  0  0  0  0  0  0  0  0  0  0
  -28.9241  -27.1523   20.2090 O   0  0  0  0  0  0  0  0  0  1  0  0
  -22.9675   -2.8770   25.1861 F   0  0  0  0  0  0  0  0  0  0  0  0
  -30.8634  -18.0789   20.9951 F   0  0  0  0  0  0  0  0  0  0  0  0
  -25.8875  -20.3491   21.1290 F   0  0  0  0  0  0  0  0  0  0  0  0
  -20.3463   -4.2766   21.5015 F   0  0  0  0  0  0  0  0  0  0  0  0
  1  2  1  0  0  0  0
  1  5  2  0  0  0  0
  2  6  2  0  0  0  0
  3  8  2  0  0  0  0
  3 17  1  0  0  0  0
  4  9  1  0  0  0  0
  4 17  2  0  0  0  0
  5 19  1  0  0  0  0
  6 21  1  0  0  0  0
  7 10  2  0  0  0  0
  7 20  1  0  0  0  0
  8 25  1  0  0  0  0
  9 25  2  0  0  0  0
 10 26  1  0  0  0  0
 11 12  2  0  0  0  0
 11 27  1  0  0  0  0
 12 28  1  0  0  0  0
 13 22  1  0  0  0  0
 13 26  2  0  0  0  0
 14 23  1  0  0  0  0
 14 29  2  0  0  0  0
 15 24  2  0  0  0  0
 15 30  1  0  0  0  0
 16 28  2  0  0  0  0
 16 31  1  0  0  0  0
 17 32  1  0  0  0  0
 18 32  1  0  0  0  0
 18 33  2  0  0  0  0
 18 34  1  0  0  0  0
 19 21  2  0  0  0  0
 19 39  1  0  0  0  0
 20 22  2  0  0  0  0
 20 40  1  0  0  0  0
 21 52  1  0  0  0  0
 22 41  1  0  0  0  0
 23 30  2  0  0  0  0
 23 67  1  0  0  0  0
 24 29  1  0  0  0  0
 24 72  1  0  0  0  0
 25 82  1  0  0  0  0
 26 83  1  0  0  0  0
 27 31  2  0  0  0  0
 27 82  1  0  0  0  0
 28 84  1  0  0  0  0
 29 85  1  0  0  0  0
 30 86  1  0  0  0  0
 31 87  1  0  0  0  0
 32 65  2  0  0  0  0
 33 66  1  0  0  0  0
 33 70  1  0  0  0  0
 34 71  1  0  0  0  0
 34 77  2  0  0  0  0
 35 53  1  0  0  0  0
 35 73  1  0  0  0  0
 35 78  2  0  0  0  0
 36 62  1  0  0  0  0
 36 68  1  0  0  0  0
 36 79  2  0  0  0  0
 37 63  1  0  0  0  0
 37 74  1  0  0  0  0
 37 80  2  0  0  0  0
 38 69  1  0  0  0  0
 38 72  1  0  0  0  0
 38 81  2  0  0  0  0
 39 42  1  0  0  0  0
 40 53  1  0  0  0  0
 41 68  1  0  0  0  0
 42 44  1  0  0  0  0
 43 45  1  0  0  0  0
 43 46  1  0  0  0  0
 44 52  1  0  0  0  0
 45 54  1  0  0  0  0
 46 69  1  0  0  0  0
 47 50  1  0  0  0  0
 47 67  1  0  0  0  0
 48 51  1  0  0  0  0
 48 67  1  0  0  0  0
 49 54  1  0  0  0  0
 49 69  1  0  0  0  0
 50 75  1  0  0  0  0
 51 75  1  0  0  0  0
 52 73  1  0  0  0  0
 53 68  1  0  0  0  0
 54 66  1  0  0  0  0
 55 63  1  0  0  0  0
 56 64  1  0  0  0  0
 57 64  1  0  0  0  0
 58 64  1  0  0  0  0
 59 76  1  0  0  0  0
 60 61  1  0  0  0  0
 60 75  1  0  0  0  0
 61 83  1  0  0  0  0
 62 64  1  0  0  0  0
 62 74  1  0  0  0  0
 63 76  1  0  0  0  0
 65 66  1  0  0  0  0
M  CHG  2  75   1  76   1
M  ISO  4  38 100  61 101  72 100  83 101
M  END
> <Batch ID>
0007

> <Smiles>
CNC(C)C(=O)NC(C(=O)N1Cc2cc([101O:1][101CH2:1]CN3CCN(c4cc(F)c([100NH:0][100C:0](=O)N5CCCC(n6nc(-c7ccc(Oc8ccc(F)cc8F)cc7)c(C(N)=O)c6N)C5)cc4F)CC3)ccc2CC1C(=O)NC1CCCc2ccccc21)C(C)(C)C

> <Shape>
0.270

> <Color>
0.099

> <Negative vol penalty>
0.000

$$$$

  -OEChem-04042320323D

 84 93  0     1  0  0  0  0  0999 V2000
  -24.9584  -35.4869   22.5234 C   0  0  0  0  0  0  0  0  0  0  0  0
  -25.6957  -34.3260   22.3133 C   0  0  0  0  0  0  0  0  0  0  0  0
  -28.4570  -23.8916   24.5736 C   0  0  0  0  0  0  0  0  0  0  0  0
  -24.3363  -13.5759   20.1185 C   0  0  0  0  0  0  0  0  0  0  0  0
  -26.1726  -13.6269   21.6877 C   0  0  0  0  0  0  0  0  0  0  0  0
  -23.7221  -35.4198   23.1644 C   0  0  0  0  0  0  0  0  0  0  0  0
  -25.1974  -33.0973   22.7452 C   0  0  0  0  0  0  0  0  0  0  0  0
  -25.7336  -29.4535   19.2697 C   0  0  0  0  0  0  0  0  0  0  0  0
  -29.5307  -24.6970   24.1941 C   0  0  0  0  0  0  0  0  0  0  0  0
  -27.8890  -23.0083   23.6555 C   0  0  0  0  0  0  0  0  0  0  0  0
  -24.4194  -12.1846   20.0664 C   0  0  0  0  0  0  0  0  0  0  0  0
  -26.2557  -12.2355   21.6357 C   0  0  0  0  0  0  0  0  0  0  0  0
  -26.9991  -28.8844   19.1338 C   0  0  0  0  0  0  0  0  0  0  0  0
  -23.4574   -9.5588   21.9672 C   0  0  0  0  0  0  0  0  0  0  0  0
  -22.2673   -8.8352   22.0412 C   0  0  0  0  0  0  0  0  0  0  0  0
  -26.2880  -27.0006   20.4623 C   0  0  0  0  0  0  0  0  0  0  0  0
  -29.4685  -23.7359   21.9784 C   0  0  0  0  0  0  0  0  0  0  0  0
  -22.7196   -7.8697   19.8731 C   0  0  0  0  0  0  0  0  0  0  0  0
  -25.2129  -14.2971   20.9291 C   0  0  0  0  0  0  0  0  0  0  0  0
  -24.3515  -16.5077   21.8667 C   0  0  0  0  0  0  0  0  0  0  0  0
  -23.2040  -34.1885   23.5957 C   0  0  0  0  0  0  0  0  0  0  0  0
  -24.7375  -28.8045   20.0132 C   0  0  0  0  0  0  0  0  0  0  0  0
  -23.9536  -33.0138   23.3938 C   0  0  0  0  0  0  0  0  0  0  0  0
  -25.0099  -27.5623   20.6039 C   0  0  0  0  0  0  0  0  0  0  0  0
  -30.0365  -24.6191   22.8965 C   0  0  0  0  0  0  0  0  0  0  0  0
  -28.3947  -22.9305   22.3579 C   0  0  0  0  0  0  0  0  0  0  0  0
  -25.3791  -11.5143   20.8250 C   0  0  0  0  0  0  0  0  0  0  0  0
  -27.2774  -27.6592   19.7326 C   0  0  0  0  0  0  0  0  0  0  0  0
  -24.2786   -9.4380   20.8462 C   0  0  0  0  0  0  0  0  0  0  0  0
  -21.8984   -7.9906   20.9942 C   0  0  0  0  0  0  0  0  0  0  0  0
  -23.9098   -8.5935   19.7992 C   0  0  0  0  0  0  0  0  0  0  0  0
  -25.1280  -15.7345   20.9829 C   0  0  0  0  0  0  0  0  0  0  0  0
  -24.6196  -17.8073   21.5121 C   0  0  0  0  0  0  0  0  0  0  0  0
  -31.4609  -26.3323   20.1289 C   0  0  0  0  0  0  0  0  0  0  0  0
  -23.4672  -16.0886   22.9145 C   0  0  0  0  0  0  0  0  0  0  0  0
  -23.0758  -29.5068   22.6304 C   0  0  0  0  0  0  0  0  0  0  0  0
  -21.4950  -26.7731   21.8887 C   0  0  0  0  0  0  0  0  0  0  0  0
  -22.3519  -23.4733   20.7078 C   0  0  0  0  0  0  0  0  0  0  0  0
  -28.1991  -21.8315   20.0995 C   0  0  0  0  0  0  0  0  0  0  0  0
  -21.8846  -34.1718   24.3262 C   0  0  0  0  0  0  0  0  0  0  0  0
  -23.3693  -29.4188   20.1279 C   0  0  0  0  0  0  0  0  0  0  0  0
  -23.9690  -26.8153   21.3956 C   0  0  0  0  0  0  0  0  0  0  0  0
  -30.8830  -27.4790   19.3316 C   0  0  0  0  0  0  0  0  0  0  0  0
  -21.2570  -32.7834   24.4186 C   0  0  0  0  0  0  0  0  0  0  0  0
  -27.0564  -19.6899   17.4947 C   0  0  0  0  0  0  0  0  0  0  0  0
  -22.2977  -31.7547   24.8493 C   0  0  0  0  0  0  0  0  0  0  0  0
  -26.3889  -18.5335   18.2427 C   0  0  0  0  0  0  0  0  0  0  0  0
  -28.2958  -20.1995   18.2281 C   0  0  0  0  0  0  0  0  0  0  0  0
  -27.4139  -19.3988   20.3846 C   0  0  0  0  0  0  0  0  0  0  0  0
  -29.8987  -27.4288   21.5293 C   0  0  0  0  0  0  0  0  0  0  0  0
  -23.4356  -31.6591   23.8257 C   0  0  1  0  0  0  0  0  0  0  0  0
  -22.5880  -28.9158   21.3379 C   0  0  1  0  0  0  0  0  0  0  0  0
  -26.1238  -18.8947   19.7175 C   0  0  2  0  0  0  0  0  0  0  0  0
  -29.6169  -27.8503   20.0989 C   0  0  2  0  0  0  0  0  0  1  0  0
  -21.0099  -21.8129   19.3888 C   0  0  0  0  0  0  0  0  0  0  0  0
  -20.7594  -25.6328   24.6216 C   0  0  0  0  0  0  0  0  0  0  0  0
  -20.9081  -23.3398   23.6274 C   0  0  0  0  0  0  0  0  0  0  0  0
  -19.2233  -24.9646   22.7646 C   0  0  0  0  0  0  0  0  0  0  0  0
  -24.4348  -23.2780   18.6145 C   0  0  0  0  0  0  0  0  0  0  0  0
  -31.1923  -25.4862   22.4886 C   0  0  0  0  0  0  0  0  0  0  0  0
  -21.6691  -25.3121   22.2267 C   0  0  1  0  0  0  0  0  0  0  0  0
  -22.0719  -22.8999   19.3304 C   0  0  2  0  0  0  0  0  0  0  0  0
  -20.6622  -24.8301   23.3089 C   0  0  0  0  0  0  0  0  0  0  0  0
  -25.8360  -16.4806   20.1309 N   0  0  0  0  0  0  0  0  0  0  0  0
  -25.5055  -17.7362   20.4776 N   0  0  0  0  0  0  0  0  0  0  0  0
  -30.8540  -26.3535   21.3806 N   0  0  0  0  0  0  0  0  0  0  0  0
  -22.6484  -27.4601   21.4844 N   0  0  0  0  0  0  0  0  0  0  0  0
  -27.9677  -20.5257   19.6176 N   0  0  0  0  0  0  0  0  0  0  0  0
  -24.1814  -18.9924   21.9874 N   0  0  0  0  0  0  0  0  0  0  0  0
  -23.3075  -14.7154   23.1448 N   0  0  0  0  0  0  0  0  0  0  0  0
  -27.8180  -22.0326   21.4257 N   0  0  0  0  0  0  0  0  0  0  0  0
  -23.0172  -30.8866   22.6756 N   0  0  0  0  0  0  0  0  0  0  0  0
  -21.5810  -24.5875   20.9635 N   0  0  0  0  0  0  0  0  0  0  0  0
  -23.3135  -22.3132   18.7514 N   0  3  0  0  0  0  0  0  0  0  0  0
  -32.3334  -25.5777   19.7250 O   0  0  0  0  0  0  0  0  0  0  0  0
  -22.8246  -16.9074   23.6148 O   0  0  0  0  0  0  0  0  0  0  0  0
  -23.4744  -28.7657   23.5212 O   0  0  0  0  0  0  0  0  0  0  0  0
  -20.3755  -27.2840   21.9733 O   0  0  0  0  0  0  0  0  0  0  0  0
  -23.1697  -22.9797   21.4812 O   0  0  0  0  0  0  0  0  0  0  0  0
  -28.6734  -22.7142   19.3799 O   0  0  0  0  0  0  0  0  0  0  0  0
  -25.4603  -10.1566   20.7746 O   0  0  0  0  0  0  0  0  0  0  0  0
  -28.5120  -27.1018   19.6021 O   0  0  0  0  0  0  0  0  0  1  0  0
  -20.7563   -7.2945   21.0660 F   0  0  0  0  0  0  0  0  0  0  0  0
  -24.6952   -8.4724   18.7202 F   0  0  0  0  0  0  0  0  0  0  0  0
  1  2  1  0  0  0  0
  1  6  2  0  0  0  0
  2  7  2  0  0  0  0
  3  9  2  0  0  0  0
  3 10  1  0  0  0  0
  4 11  2  0  0  0  0
  4 19  1  0  0  0  0
  5 12  1  0  0  0  0
  5 19  2  0  0  0  0
  6 21  1  0  0  0  0
  7 23  1  0  0  0  0
  8 13  2  0  0  0  0
  8 22  1  0  0  0  0
  9 25  1  0  0  0  0
 10 26  2  0  0  0  0
 11 27  1  0  0  0  0
 12 27  2  0  0  0  0
 13 28  1  0  0  0  0
 14 15  2  0  0  0  0
 14 29  1  0  0  0  0
 15 30  1  0  0  0  0
 16 24  1  0  0  0  0
 16 28  2  0  0  0  0
 17 25  2  0  0  0  0
 17 26  1  0  0  0  0
 18 30  2  0  0  0  0
 18 31  1  0  0  0  0
 19 32  1  0  0  0  0
 20 32  1  0  0  0  0
 20 33  2  0  0  0  0
 20 35  1  0  0  0  0
 21 23  2  0  0  0  0
 21 40  1  0  0  0  0
 22 24  2  0  0  0  0
 22 41  1  0  0  0  0
 23 51  1  0  0  0  0
 24 42  1  0  0  0  0
 25 60  1  0  0  0  0
 26 71  1  0  0  0  0
 27 81  1  0  0  0  0
 28 82  1  0  0  0  0
 29 31  2  0  0  0  0
 29 81  1  0  0  0  0
 30 83  1  0  0  0  0
 31 84  1  0  0  0  0
 32 64  2  0  0  0  0
 33 65  1  0  0  0  0
 33 69  1  0  0  0  0
 34 43  1  0  0  0  0
 34 66  1  0  0  0  0
 34 75  2  0  0  0  0
 35 70  1  0  0  0  0
 35 76  2  0  0  0  0
 36 52  1  0  0  0  0
 36 72  1  0  0  0  0
 36 77  2  0  0  0  0
 37 61  1  0  0  0  0
 37 67  1  0  0  0  0
 37 78  2  0  0  0  0
 38 62  1  0  0  0  0
 38 73  1  0  0  0  0
 38 79  2  0  0  0  0
 39 68  1  0  0  0  0
 39 71  1  0  0  0  0
 39 80  2  0  0  0  0
 40 44  1  0  0  0  0
 41 52  1  0  0  0  0
 42 67  1  0  0  0  0
 43 54  1  0  0  0  0
 44 46  1  0  0  0  0
 45 47  1  0  0  0  0
 45 48  1  0  0  0  0
 46 51  1  0  0  0  0
 47 53  1  0  0  0  0
 48 68  1  0  0  0  0
 49 53  1  0  0  0  0
 49 68  1  0  0  0  0
 50 54  1  0  0  0  0
 50 66  1  0  0  0  0
 51 72  1  0  0  0  0
 52 67  1  0  0  0  0
 53 65  1  0  0  0  0
 54 82  1  0  0  0  0
 55 62  1  0  0  0  0
 56 63  1  0  0  0  0
 57 63  1  0  0  0  0
 58 63  1  0  0  0  0
 59 74  1  0  0  0  0
 60 66  1  0  0  0  0
 61 63  1  0  0  0  0
 61 73  1  0  0  0  0
 62 74  1  0  0  0  0
 64 65  1  0  0  0  0
M  CHG  1  74   1
M  ISO  4  39 100  54 101  71 100  82 101
M  END
> <Batch ID>
0007

> <Smiles>
CNC(C)C(=O)NC(C(=O)N1Cc2cc([101O:1][101CH:1]3CC(=O)N(Cc4cccc([100NH:0][100C:0](=O)N5CCCC(n6nc(-c7ccc(Oc8ccc(F)cc8F)cc7)c(C(N)=O)c6N)C5)c4)C3)ccc2CC1C(=O)NC1CCCc2ccccc21)C(C)(C)C

> <Shape>
0.236

> <Color>
0.102

> <Negative vol penalty>
0.000

$$$$

  -OEChem-04042320323D

 84 92  0     1  0  0  0  0  0999 V2000
  -23.6701  -23.9523   19.2924 C   0  0  0  0  0  0  0  0  0  0  0  0
  -24.7529  -23.1546   19.6487 C   0  0  0  0  0  0  0  0  0  0  0  0
  -19.5921  -28.8945   22.4447 C   0  0  0  0  0  0  0  0  0  0  0  0
  -20.2038  -26.6858   23.2092 C   0  0  0  0  0  0  0  0  0  0  0  0
  -22.3752  -23.5574   19.6259 C   0  0  0  0  0  0  0  0  0  0  0  0
  -24.5413  -21.9621   20.3398 C   0  0  0  0  0  0  0  0  0  0  0  0
  -27.2750  -18.1270   18.4786 C   0  0  0  0  0  0  0  0  0  0  0  0
  -31.6214  -25.2144   21.7042 C   0  0  0  0  0  0  0  0  0  0  0  0
  -29.8607  -24.7282   23.2856 C   0  0  0  0  0  0  0  0  0  0  0  0
  -32.0537  -23.8903   21.7785 C   0  0  0  0  0  0  0  0  0  0  0  0
  -30.2930  -23.4041   23.3598 C   0  0  0  0  0  0  0  0  0  0  0  0
  -18.2493  -28.5175   22.4300 C   0  0  0  0  0  0  0  0  0  0  0  0
  -18.8609  -26.3088   23.1946 C   0  0  0  0  0  0  0  0  0  0  0  0
  -28.6246  -18.0801   18.8252 C   0  0  0  0  0  0  0  0  0  0  0  0
  -15.7513  -28.1119   24.6724 C   0  0  0  0  0  0  0  0  0  0  0  0
  -14.8233  -28.9980   25.2196 C   0  0  0  0  0  0  0  0  0  0  0  0
  -28.1288  -16.4237   20.5074 C   0  0  0  0  0  0  0  0  0  0  0  0
  -13.6960  -29.1341   23.0870 C   0  0  0  0  0  0  0  0  0  0  0  0
  -20.5694  -27.9786   22.8342 C   0  0  0  0  0  0  0  0  0  0  0  0
  -22.6690  -28.9356   23.9221 C   0  0  0  0  0  0  0  0  0  0  0  0
  -22.1470  -22.3547   20.3129 C   0  0  0  0  0  0  0  0  0  0  0  0
  -26.3389  -17.3293   19.1523 C   0  0  0  0  0  0  0  0  0  0  0  0
  -23.2423  -21.5515   20.6840 C   0  0  0  0  0  0  0  0  0  0  0  0
  -26.7682  -16.4605   20.1657 C   0  0  0  0  0  0  0  0  0  0  0  0
  -30.5249  -25.6334   22.4579 C   0  0  0  0  0  0  0  0  0  0  0  0
  -31.3895  -22.9851   22.6063 C   0  0  0  0  0  0  0  0  0  0  0  0
  -17.8836  -27.2247   22.8050 C   0  0  0  0  0  0  0  0  0  0  0  0
  -29.0513  -17.2305   19.8417 C   0  0  0  0  0  0  0  0  0  0  0  0
  -15.6517  -27.7370   23.3326 C   0  0  0  0  0  0  0  0  0  0  0  0
  -13.7956  -29.5090   24.4269 C   0  0  0  0  0  0  0  0  0  0  0  0
  -14.6240  -28.2481   22.5399 C   0  0  0  0  0  0  0  0  0  0  0  0
  -21.9568  -28.3672   22.8490 C   0  0  0  0  0  0  0  0  0  0  0  0
  -23.9395  -29.1173   23.4330 C   0  0  0  0  0  0  0  0  0  0  0  0
  -22.2220  -29.2695   25.2428 C   0  0  0  0  0  0  0  0  0  0  0  0
  -23.7802  -17.9054   20.9480 C   0  0  0  0  0  0  0  0  0  0  0  0
  -23.4462  -14.6814   20.8191 C   0  0  0  0  0  0  0  0  0  0  0  0
  -24.9127  -11.6323   20.3730 C   0  0  0  0  0  0  0  0  0  0  0  0
  -28.3667  -27.2705   20.5808 C   0  0  0  0  0  0  0  0  0  0  0  0
  -20.7331  -21.9929   20.6932 C   0  0  0  0  0  0  0  0  0  0  0  0
  -24.8907  -17.3720   18.7484 C   0  0  0  0  0  0  0  0  0  0  0  0
  -25.8063  -15.5689   20.9060 C   0  0  0  0  0  0  0  0  0  0  0  0
  -20.5662  -20.5303   21.0970 C   0  0  0  0  0  0  0  0  0  0  0  0
  -25.7320  -28.7724   18.7155 C   0  0  0  0  0  0  0  0  0  0  0  0
  -21.6694  -20.1144   22.0648 C   0  0  0  0  0  0  0  0  0  0  0  0
  -24.5726  -28.8418   19.7109 C   0  0  0  0  0  0  0  0  0  0  0  0
  -26.5604  -27.5031   18.9017 C   0  0  0  0  0  0  0  0  0  0  0  0
  -25.8937  -27.3503   21.2694 C   0  0  0  0  0  0  0  0  0  0  0  0
  -23.0515  -20.2387   21.4123 C   0  0  1  0  0  0  0  0  0  0  0  0
  -23.9490  -16.8942   19.8495 C   0  0  1  0  0  0  0  0  0  0  0  0
  -25.0626  -28.6399   21.1574 C   0  0  2  0  0  0  0  0  0  0  0  0
  -24.3907   -9.1778   20.3635 C   0  0  0  0  0  0  0  0  0  0  0  0
  -23.3290  -14.6970   23.8680 C   0  0  0  0  0  0  0  0  0  0  0  0
  -23.7648  -12.2319   23.8279 C   0  0  0  0  0  0  0  0  0  0  0  0
  -21.7006  -13.1491   22.7693 C   0  0  0  0  0  0  0  0  0  0  0  0
  -25.7449  -11.3481   17.5471 C   0  0  0  0  0  0  0  0  0  0  0  0
  -30.0623  -27.0490   22.3795 C   0  0  0  0  0  0  0  0  0  0  0  0
  -32.9663  -21.1845   21.9013 C   0  0  0  0  0  0  0  0  0  0  0  0
  -33.1550  -19.6989   22.1437 C   0  0  0  0  0  0  0  0  0  0  0  0
  -32.0064  -17.4928   21.9150 C   0  0  0  0  0  0  0  0  0  0  0  0
  -30.6767  -16.8690   21.5397 C   0  0  0  0  0  0  0  0  0  1  0  0
  -23.9374  -13.5216   21.6512 C   0  0  1  0  0  0  0  0  0  0  0  0
  -24.5166  -10.4387   19.5227 C   0  0  2  0  0  0  0  0  0  0  0  0
  -23.2011  -13.4180   23.0167 C   0  0  0  0  0  0  0  0  0  0  0  0
  -22.7121  -28.1989   21.7603 N   0  0  0  0  0  0  0  0  0  0  0  0
  -23.9121  -28.6645   22.1467 N   0  0  0  0  0  0  0  0  0  0  0  0
  -24.3998  -15.6513   20.4789 N   0  0  0  0  0  0  0  0  0  0  0  0
  -26.9953  -27.3719   20.2943 N   0  0  0  0  0  0  0  0  0  0  0  0
  -25.0664  -29.6186   23.9820 N   0  0  0  0  0  0  0  0  0  0  0  0
  -20.8853  -29.0167   25.5797 N   0  0  0  0  0  0  0  0  0  0  0  0
  -31.8114  -21.6879   22.6778 N   0  0  0  0  0  0  0  0  0  0  0  0
  -23.2912  -19.1248   20.5199 N   0  0  0  0  0  0  0  0  0  0  0  0
  -23.8105  -12.3347   20.8124 N   0  0  0  0  0  0  0  0  0  0  0  0
  -28.6933  -27.1557   21.9265 N   0  0  0  0  0  0  0  0  0  0  0  0
  -25.5357  -10.1969   18.4626 N   0  3  0  0  0  0  0  0  0  0  0  0
  -31.9132  -18.9677   21.7735 N   0  3  0  0  0  0  0  0  0  0  0  0
  -22.9813  -29.7922   26.0937 O   0  0  0  0  0  0  0  0  0  0  0  0
  -24.0705  -17.6012   22.0990 O   0  0  0  0  0  0  0  0  0  0  0  0
  -22.2616  -14.7216   20.4773 O   0  0  0  0  0  0  0  0  0  0  0  0
  -26.0827  -11.9113   20.6254 O   0  0  0  0  0  0  0  0  0  0  0  0
  -29.2361  -27.2870   19.7028 O   0  0  0  0  0  0  0  0  0  0  0  0
  -16.5733  -26.8567   22.7911 O   0  0  0  0  0  0  0  0  0  0  0  0
  -30.3679  -17.1832   20.1824 O   0  0  0  0  0  0  0  0  0  1  0  0
  -12.9036  -30.3587   24.9528 F   0  0  0  0  0  0  0  0  0  0  0  0
  -14.5225  -27.8906   21.2523 F   0  0  0  0  0  0  0  0  0  0  0  0
  1  2  1  0  0  0  0
  1  5  2  0  0  0  0
  2  6  2  0  0  0  0
  3 12  2  0  0  0  0
  3 19  1  0  0  0  0
  4 13  1  0  0  0  0
  4 19  2  0  0  0  0
  5 21  1  0  0  0  0
  6 23  1  0  0  0  0
  7 14  2  0  0  0  0
  7 22  1  0  0  0  0
  8 10  2  0  0  0  0
  8 25  1  0  0  0  0
  9 11  1  0  0  0  0
  9 25  2  0  0  0  0
 10 26  1  0  0  0  0
 11 26  2  0  0  0  0
 12 27  1  0  0  0  0
 13 27  2  0  0  0  0
 14 28  1  0  0  0  0
 15 16  2  0  0  0  0
 15 29  1  0  0  0  0
 16 30  1  0  0  0  0
 17 24  1  0  0  0  0
 17 28  2  0  0  0  0
 18 30  2  0  0  0  0
 18 31  1  0  0  0  0
 19 32  1  0  0  0  0
 20 32  1  0  0  0  0
 20 33  2  0  0  0  0
 20 34  1  0  0  0  0
 21 23  2  0  0  0  0
 21 39  1  0  0  0  0
 22 24  2  0  0  0  0
 22 40  1  0  0  0  0
 23 48  1  0  0  0  0
 24 41  1  0  0  0  0
 25 56  1  0  0  0  0
 26 70  1  0  0  0  0
 27 81  1  0  0  0  0
 28 82  1  0  0  0  0
 29 31  2  0  0  0  0
 29 81  1  0  0  0  0
 30 83  1  0  0  0  0
 31 84  1  0  0  0  0
 32 64  2  0  0  0  0
 33 65  1  0  0  0  0
 33 68  1  0  0  0  0
 34 69  1  0  0  0  0
 34 76  2  0  0  0  0
 35 49  1  0  0  0  0
 35 71  1  0  0  0  0
 35 77  2  0  0  0  0
 36 61  1  0  0  0  0
 36 66  1  0  0  0  0
 36 78  2  0  0  0  0
 37 62  1  0  0  0  0
 37 72  1  0  0  0  0
 37 79  2  0  0  0  0
 38 67  1  0  0  0  0
 38 73  1  0  0  0  0
 38 80  2  0  0  0  0
 39 42  1  0  0  0  0
 40 49  1  0  0  0  0
 41 66  1  0  0  0  0
 42 44  1  0  0  0  0
 43 45  1  0  0  0  0
 43 46  1  0  0  0  0
 44 48  1  0  0  0  0
 45 50  1  0  0  0  0
 46 67  1  0  0  0  0
 47 50  1  0  0  0  0
 47 67  1  0  0  0  0
 48 71  1  0  0  0  0
 49 66  1  0  0  0  0
 50 65  1  0  0  0  0
 51 62  1  0  0  0  0
 52 63  1  0  0  0  0
 53 63  1  0  0  0  0
 54 63  1  0  0  0  0
 55 74  1  0  0  0  0
 56 73  1  0  0  0  0
 57 58  1  0  0  0  0
 57 70  1  0  0  0  0
 58 75  1  0  0  0  0
 59 60  1  0  0  0  0
 59 75  1  0  0  0  0
 60 82  1  0  0  0  0
 61 63  1  0  0  0  0
 61 72  1  0  0  0  0
 62 74  1  0  0  0  0
 64 65  1  0  0  0  0
M  CHG  2  74   1  75   1
M  ISO  4  38 100  60 101  73 100  82 101
M  END
> <Batch ID>
0007

> <Smiles>
CNC(C)C(=O)NC(C(=O)N1Cc2cc([101O:1][101CH2:1]CNCCNc3ccc(C[100NH:0][100C:0](=O)N4CCCC(n5nc(-c6ccc(Oc7ccc(F)cc7F)cc6)c(C(N)=O)c5N)C4)cc3)ccc2CC1C(=O)NC1CCCc2ccccc21)C(C)(C)C

> <Shape>
0.198

> <Color>
0.093

> <Negative vol penalty>
0.000

$$$$

  -OEChem-04042320323D

 84 92  0     1  0  0  0  0  0999 V2000
  -33.1317  -15.3429   21.3457 C   0  0  0  0  0  0  0  0  0  0  0  0
  -32.1987  -16.3019   21.7268 C   0  0  0  0  0  0  0  0  0  0  0  0
  -28.4776  -26.0927   19.1930 C   0  0  0  0  0  0  0  0  0  0  0  0
  -26.4376  -24.9021   19.7010 C   0  0  0  0  0  0  0  0  0  0  0  0
  -32.7596  -14.3154   20.4798 C   0  0  0  0  0  0  0  0  0  0  0  0
  -30.8933  -16.2346   21.2413 C   0  0  0  0  0  0  0  0  0  0  0  0
  -25.7748  -17.8101   24.2119 C   0  0  0  0  0  0  0  0  0  0  0  0
  -29.1081  -24.8849   18.8943 C   0  0  0  0  0  0  0  0  0  0  0  0
  -27.0681  -23.6943   19.4022 C   0  0  0  0  0  0  0  0  0  0  0  0
  -24.9916  -18.9632   24.1847 C   0  0  0  0  0  0  0  0  0  0  0  0
  -29.2164  -21.5650   20.9127 C   0  0  0  0  0  0  0  0  0  0  0  0
  -29.0245  -20.4990   21.7915 C   0  0  0  0  0  0  0  0  0  0  0  0
  -23.5227  -17.9204   22.5803 C   0  0  0  0  0  0  0  0  0  0  0  0
  -28.0524  -19.1989   20.0021 C   0  0  0  0  0  0  0  0  0  0  0  0
  -27.1423  -26.1013   19.5964 C   0  0  0  0  0  0  0  0  0  0  0  0
  -26.3002  -28.4450   19.0435 C   0  0  0  0  0  0  0  0  0  0  0  0
  -31.4464  -14.2299   19.9911 C   0  0  0  0  0  0  0  0  0  0  0  0
  -25.4434  -16.7056   23.4140 C   0  0  0  0  0  0  0  0  0  0  0  0
  -30.5036  -15.2057   20.3670 C   0  0  0  0  0  0  0  0  0  0  0  0
  -24.3019  -16.7535   22.6012 C   0  0  0  0  0  0  0  0  0  0  0  0
  -28.4034  -23.6857   18.9988 C   0  0  0  0  0  0  0  0  0  0  0  0
  -23.8670  -19.0196   23.3666 C   0  0  0  0  0  0  0  0  0  0  0  0
  -28.8263  -21.4480   19.5786 C   0  0  0  0  0  0  0  0  0  0  0  0
  -28.4425  -19.3160   21.3362 C   0  0  0  0  0  0  0  0  0  0  0  0
  -28.2443  -20.2650   19.1233 C   0  0  0  0  0  0  0  0  0  0  0  0
  -26.4906  -27.3486   19.9057 C   0  0  0  0  0  0  0  0  0  0  0  0
  -25.6353  -29.3720   19.8084 C   0  0  0  0  0  0  0  0  0  0  0  0
  -26.6896  -28.6107   17.6736 C   0  0  0  0  0  0  0  0  0  0  0  0
  -26.8718  -15.1412   21.0442 C   0  0  0  0  0  0  0  0  0  0  0  0
  -24.3442  -13.1337   21.3667 C   0  0  0  0  0  0  0  0  0  0  0  0
  -20.7898  -13.4404   21.9047 C   0  0  0  0  0  0  0  0  0  0  0  0
  -22.1031  -28.9086   24.6209 C   0  0  0  0  0  0  0  0  0  0  0  0
  -31.1035  -13.1281   19.0200 C   0  0  0  0  0  0  0  0  0  0  0  0
  -26.2834  -15.4593   23.4749 C   0  0  0  0  0  0  0  0  0  0  0  0
  -23.8915  -15.5874   21.7407 C   0  0  0  0  0  0  0  0  0  0  0  0
  -29.6020  -12.9142   18.8469 C   0  0  0  0  0  0  0  0  0  0  0  0
  -25.1078  -30.7986   24.3446 C   0  0  0  0  0  0  0  0  0  0  0  0
  -28.8911  -14.2500   18.6546 C   0  0  0  0  0  0  0  0  0  0  0  0
  -25.7857  -30.2277   23.0978 C   0  0  0  0  0  0  0  0  0  0  0  0
  -24.3871  -29.7138   25.1420 C   0  0  0  0  0  0  0  0  0  0  0  0
  -17.6862  -24.8808   22.0889 C   0  0  0  0  0  0  0  0  0  0  0  0
  -24.1055  -28.3369   23.1174 C   0  0  0  0  0  0  0  0  0  0  0  0
  -19.8192  -25.7941   22.7877 C   0  0  0  0  0  0  0  0  0  0  0  0
  -17.0389  -26.2586   22.1477 C   0  0  0  0  0  0  0  0  0  0  0  0
  -29.0714  -15.1525   19.8812 C   0  0  1  0  0  0  0  0  0  0  0  0
  -26.1433  -14.5831   22.2340 C   0  0  1  0  0  0  0  0  0  0  0  0
  -24.7984  -29.4024   22.2509 C   0  0  2  0  0  0  0  0  0  0  0  0
  -19.2315  -27.2071   22.8603 C   0  0  2  0  0  0  0  0  0  0  0  0
  -19.1591  -11.8601   22.9728 C   0  0  0  0  0  0  0  0  0  0  0  0
  -23.8558  -12.1680   18.5138 C   0  0  0  0  0  0  0  0  0  0  0  0
  -21.4273  -11.9439   19.0797 C   0  0  0  0  0  0  0  0  0  0  0  0
  -23.1209  -10.5738   20.2951 C   0  0  0  0  0  0  0  0  0  0  0  0
  -22.5077  -22.2491   19.6314 C   0  0  0  0  0  0  0  0  0  0  0  0
  -19.8796  -15.4966   23.8289 C   0  0  0  0  0  0  0  0  0  0  0  0
  -19.8742  -28.0405   23.9595 C   0  0  0  0  0  0  0  0  0  0  0  0
  -19.7186  -23.6483   21.6927 C   0  0  0  0  0  0  0  0  0  0  0  0
  -20.9940  -23.6472   20.8668 C   0  0  0  0  0  0  0  0  0  0  0  0
  -22.2525  -21.9434   22.0007 C   0  0  0  0  0  0  0  0  0  0  0  0
  -22.4226  -20.4365   22.1168 C   0  0  0  0  0  0  0  0  0  1  0  0
  -22.9606  -13.0522   20.7684 C   0  0  1  0  0  0  0  0  0  0  0  0
  -20.0290  -13.0916   23.1712 C   0  0  2  0  0  0  0  0  0  0  0  0
  -22.8545  -11.9594   19.6675 C   0  0  0  0  0  0  0  0  0  0  0  0
  -25.9874  -27.5581   21.1251 N   0  0  0  0  0  0  0  0  0  0  0  0
  -25.4744  -28.7970   21.0346 N   0  0  0  0  0  0  0  0  0  0  0  0
  -24.7485  -14.3937   21.8303 N   0  0  0  0  0  0  0  0  0  0  0  0
  -23.4648  -28.9692   24.2812 N   0  0  0  0  0  0  0  0  0  0  0  0
  -19.1201  -24.9798   21.7821 N   0  0  1  0  0  0  0  0  0  0  0  0
  -25.1784  -30.6147   19.5450 N   0  0  0  0  0  0  0  0  0  0  0  0
  -25.7931  -28.2148   16.6716 N   0  0  0  0  0  0  0  0  0  0  0  0
  -28.1892  -14.7350   20.9498 N   0  0  0  0  0  0  0  0  0  0  0  0
  -22.0427  -12.8648   21.8867 N   0  0  0  0  0  0  0  0  0  0  0  0
  -21.2970  -28.1880   23.7482 N   0  0  0  0  0  0  0  0  0  0  0  0
  -21.5790  -22.3086   20.7624 N   0  0  2  0  0  0  0  0  0  0  0  0
  -17.7639  -27.0963   23.1475 N   0  3  0  0  0  0  0  0  0  0  0  0
  -19.1520  -14.2260   23.5776 N   0  3  0  0  0  0  0  0  0  0  0  0
  -27.8062  -29.0803   17.3477 O   0  0  0  0  0  0  0  0  0  0  0  0
  -26.2819  -15.8840   20.2684 O   0  0  0  0  0  0  0  0  0  0  0  0
  -25.0379  -12.1155   21.4272 O   0  0  0  0  0  0  0  0  0  0  0  0
  -20.3184  -14.1492   21.0183 O   0  0  0  0  0  0  0  0  0  0  0  0
  -21.6393  -29.4604   25.6245 O   0  0  0  0  0  0  0  0  0  0  0  0
  -29.0182  -22.5070   18.7071 O   0  0  0  0  0  0  0  0  0  0  0  0
  -23.1013  -20.1441   23.3376 O   0  0  0  0  0  0  0  0  0  1  0  0
  -28.2597  -18.2918   22.1799 F   0  0  0  0  0  0  0  0  0  0  0  0
  -27.8686  -20.1462   17.8425 F   0  0  0  0  0  0  0  0  0  0  0  0
  1  2  1  0  0  0  0
  1  5  2  0  0  0  0
  2  6  2  0  0  0  0
  3  8  2  0  0  0  0
  3 15  1  0  0  0  0
  4  9  1  0  0  0  0
  4 15  2  0  0  0  0
  5 17  1  0  0  0  0
  6 19  1  0  0  0  0
  7 10  2  0  0  0  0
  7 18  1  0  0  0  0
  8 21  1  0  0  0  0
  9 21  2  0  0  0  0
 10 22  1  0  0  0  0
 11 12  2  0  0  0  0
 11 23  1  0  0  0  0
 12 24  1  0  0  0  0
 13 20  1  0  0  0  0
 13 22  2  0  0  0  0
 14 24  2  0  0  0  0
 14 25  1  0  0  0  0
 15 26  1  0  0  0  0
 16 26  1  0  0  0  0
 16 27  2  0  0  0  0
 16 28  1  0  0  0  0
 17 19  2  0  0  0  0
 17 33  1  0  0  0  0
 18 20  2  0  0  0  0
 18 34  1  0  0  0  0
 19 45  1  0  0  0  0
 20 35  1  0  0  0  0
 21 81  1  0  0  0  0
 22 82  1  0  0  0  0
 23 25  2  0  0  0  0
 23 81  1  0  0  0  0
 24 83  1  0  0  0  0
 25 84  1  0  0  0  0
 26 63  2  0  0  0  0
 27 64  1  0  0  0  0
 27 68  1  0  0  0  0
 28 69  1  0  0  0  0
 28 76  2  0  0  0  0
 29 46  1  0  0  0  0
 29 70  1  0  0  0  0
 29 77  2  0  0  0  0
 30 60  1  0  0  0  0
 30 65  1  0  0  0  0
 30 78  2  0  0  0  0
 31 61  1  0  0  0  0
 31 71  1  0  0  0  0
 31 79  2  0  0  0  0
 32 66  1  0  0  0  0
 32 72  1  0  0  0  0
 32 80  2  0  0  0  0
 33 36  1  0  0  0  0
 34 46  1  0  0  0  0
 35 65  1  0  0  0  0
 36 38  1  0  0  0  0
 37 39  1  0  0  0  0
 37 40  1  0  0  0  0
 38 45  1  0  0  0  0
 39 47  1  0  0  0  0
 40 66  1  0  0  0  0
 41 44  1  0  0  0  0
 41 67  1  0  0  0  0
 42 47  1  0  0  0  0
 42 66  1  0  0  0  0
 43 48  1  0  0  0  0
 43 67  1  0  0  0  0
 44 74  1  0  0  0  0
 45 70  1  0  0  0  0
 46 65  1  0  0  0  0
 47 64  1  0  0  0  0
 48 55  1  0  0  0  0
 48 74  1  0  0  0  0
 49 61  1  0  0  0  0
 50 62  1  0  0  0  0
 51 62  1  0  0  0  0
 52 62  1  0  0  0  0
 53 73  1  0  0  0  0
 54 75  1  0  0  0  0
 55 72  1  0  0  0  0
 56 57  1  0  0  0  0
 56 67  1  0  0  0  0
 57 73  1  0  0  0  0
 58 59  1  0  0  0  0
 58 73  1  0  0  0  0
 59 82  1  0  0  0  0
 60 62  1  0  0  0  0
 60 71  1  0  0  0  0
 61 75  1  0  0  0  0
 63 64  1  0  0  0  0
M  CHG  2  74   1  75   1
M  ISO  4  32 100  59 101  72 100  82 101
M  END
> <Batch ID>
0007

> <Smiles>
CNC(C)C(=O)NC(C(=O)N1Cc2cc([101O:1][101CH2:1]CN(C)CCN3CCNC(C[100NH:0][100C:0](=O)N4CCCC(n5nc(-c6ccc(Oc7ccc(F)cc7F)cc6)c(C(N)=O)c5N)C4)C3)ccc2CC1C(=O)NC1CCCc2ccccc21)C(C)(C)C

> <Shape>
0.245

> <Color>
0.061

> <Negative vol penalty>
0.000

$$$$

  -OEChem-04042320323D

 86 94  0     1  0  0  0  0  0999 V2000
  -33.9757  -11.4217   38.7526 C   0  0  0  0  0  0  0  0  0  0  0  0
  -33.2966  -11.5035   37.5412 C   0  0  0  0  0  0  0  0  0  0  0  0
  -23.0764   -9.8873   19.9688 C   0  0  0  0  0  0  0  0  0  0  0  0
  -23.9522   -9.8863   22.2204 C   0  0  0  0  0  0  0  0  0  0  0  0
  -34.4169  -10.1847   39.2209 C   0  0  0  0  0  0  0  0  0  0  0  0
  -33.0593  -10.3485   36.7968 C   0  0  0  0  0  0  0  0  0  0  0  0
  -28.3243  -10.1244   35.0150 C   0  0  0  0  0  0  0  0  0  0  0  0
  -22.3707   -8.7157   20.2427 C   0  0  0  0  0  0  0  0  0  0  0  0
  -23.2464   -8.7148   22.4944 C   0  0  0  0  0  0  0  0  0  0  0  0
  -28.0285  -10.8988   33.8941 C   0  0  0  0  0  0  0  0  0  0  0  0
  -20.0708   -7.8410   23.2509 C   0  0  0  0  0  0  0  0  0  0  0  0
  -19.3757   -7.7722   24.4583 C   0  0  0  0  0  0  0  0  0  0  0  0
  -28.2537   -8.9475   32.4938 C   0  0  0  0  0  0  0  0  0  0  0  0
  -29.6841  -11.6571   28.4639 C   0  0  0  0  0  0  0  0  0  0  0  0
  -27.2911  -11.4477   28.7221 C   0  0  0  0  0  0  0  0  0  0  0  0
  -20.6936   -5.8544   25.1079 C   0  0  0  0  0  0  0  0  0  0  0  0
  -23.8672  -10.4726   20.9576 C   0  0  0  0  0  0  0  0  0  0  0  0
  -24.1492  -13.0056   20.8499 C   0  0  0  0  0  0  0  0  0  0  0  0
  -34.1764   -9.0128   38.4866 C   0  0  0  0  0  0  0  0  0  0  0  0
  -28.5983   -8.7555   34.8822 C   0  0  0  0  0  0  0  0  0  0  0  0
  -33.4988   -9.0949   37.2551 C   0  0  0  0  0  0  0  0  0  0  0  0
  -28.5503   -8.1573   33.6149 C   0  0  0  0  0  0  0  0  0  0  0  0
  -29.5101  -11.9893   27.1204 C   0  0  0  0  0  0  0  0  0  0  0  0
  -27.1171  -11.7800   27.3786 C   0  0  0  0  0  0  0  0  0  0  0  0
  -28.5746  -11.3862   29.2647 C   0  0  0  0  0  0  0  0  0  0  0  0
  -22.4557   -8.1295   21.5055 C   0  0  0  0  0  0  0  0  0  0  0  0
  -27.9960  -10.3111   32.6329 C   0  0  0  0  0  0  0  0  0  0  0  0
  -21.0773   -6.9163   22.9720 C   0  0  0  0  0  0  0  0  0  0  0  0
  -28.2266  -12.0508   26.5777 C   0  0  0  0  0  0  0  0  0  0  0  0
  -19.6871   -6.7790   25.3868 C   0  0  0  0  0  0  0  0  0  0  0  0
  -21.3887   -5.9231   23.9005 C   0  0  0  0  0  0  0  0  0  0  0  0
  -24.5968  -11.6825   20.6751 C   0  0  0  0  0  0  0  0  0  0  0  0
  -25.2053  -13.7824   20.4404 C   0  0  0  0  0  0  0  0  0  0  0  0
  -22.8912  -13.4894   21.3389 C   0  0  0  0  0  0  0  0  0  0  0  0
  -31.1077   -6.9010   35.4883 C   0  0  0  0  0  0  0  0  0  0  0  0
  -29.0496   -4.5224   34.6949 C   0  0  0  0  0  0  0  0  0  0  0  0
  -26.2326   -3.5666   33.0224 C   0  0  0  0  0  0  0  0  0  0  0  0
  -30.8193  -14.6097   20.7808 C   0  0  0  0  0  0  0  0  0  0  0  0
  -34.7139   -7.7046   39.0106 C   0  0  0  0  0  0  0  0  0  0  0  0
  -28.8894   -7.9285   36.1043 C   0  0  0  0  0  0  0  0  0  0  0  0
  -28.8169   -6.6877   33.4211 C   0  0  0  0  0  0  0  0  0  0  0  0
  -34.0934   -6.4800   38.3430 C   0  0  0  0  0  0  0  0  0  0  0  0
  -29.4604  -12.5677   18.0086 C   0  0  0  0  0  0  0  0  0  0  0  0
  -34.0618   -6.6564   36.8282 C   0  0  0  0  0  0  0  0  0  0  0  0
  -28.0630  -12.2103   18.5121 C   0  0  0  0  0  0  0  0  0  0  0  0
  -30.4382  -12.7890   19.1587 C   0  0  0  0  0  0  0  0  0  0  0  0
  -28.5819  -13.4383   20.6576 C   0  0  0  0  0  0  0  0  0  0  0  0
  -33.2005   -7.8613   36.4309 C   0  0  1  0  0  0  0  0  0  0  0  0
  -29.6576   -6.6484   35.7905 C   0  0  1  0  0  0  0  0  0  0  0  0
  -27.5611  -13.2544   19.5246 C   0  0  2  0  0  0  0  0  0  0  0  0
  -30.7101  -12.2745   26.2786 C   0  0  0  0  0  0  0  0  0  0  0  0
  -25.7352  -11.8400   26.8159 C   0  0  0  0  0  0  0  0  0  0  0  0
  -24.8232   -1.5496   32.5295 C   0  0  0  0  0  0  0  0  0  0  0  0
  -31.1315   -3.5627   32.6813 C   0  0  0  0  0  0  0  0  0  0  0  0
  -29.3429   -2.1919   31.5906 C   0  0  0  0  0  0  0  0  0  0  0  0
  -29.9931   -1.7365   33.9554 C   0  0  0  0  0  0  0  0  0  0  0  0
  -31.1753  -16.4451   22.3883 C   0  0  0  0  0  0  0  0  0  0  0  0
  -23.8618   -4.7593   34.3322 C   0  0  0  0  0  0  0  0  0  0  0  0
  -28.2987  -15.5205   23.1924 C   0  0  0  0  0  0  0  0  0  0  0  0
  -28.4276  -14.0408   23.5553 C   0  0  0  0  0  0  0  0  0  0  0  0
  -28.8570  -15.8334   21.8078 C   0  0  0  0  0  0  0  0  0  0  0  0
  -27.9008  -13.7605   24.9571 C   0  0  0  0  0  0  0  0  0  0  0  0
  -28.6691   -3.8211   33.4134 C   0  0  1  0  0  0  0  0  0  0  0  0
  -25.0369   -2.7374   33.4549 C   0  0  2  0  0  0  0  0  0  0  0  0
  -29.7810   -2.8561   32.9133 C   0  0  0  0  0  0  0  0  0  0  0  0
  -25.8404  -11.6185   20.1919 N   0  0  0  0  0  0  0  0  0  0  0  0
  -26.1832  -12.9112   20.0596 N   0  0  0  0  0  0  0  0  0  0  0  0
  -29.1031   -5.9226   34.6459 N   0  0  0  0  0  0  0  0  0  0  0  0
  -29.9174  -13.7532   20.1283 N   0  0  0  0  0  0  0  0  0  0  0  0
  -25.3836  -15.1188   20.3724 N   0  0  0  0  0  0  0  0  0  0  0  0
  -21.9172  -12.5550   21.7165 N   0  0  0  0  0  0  0  0  0  0  0  0
  -28.7497  -11.0518   30.6139 N   0  0  0  0  0  0  0  0  0  1  0  0
  -31.7949   -7.5262   36.5111 N   0  0  0  0  0  0  0  0  0  0  0  0
  -27.3864   -3.1742   33.6674 N   0  0  0  0  0  0  0  0  0  0  0  0
  -30.2816  -15.5281   21.6952 N   0  0  0  0  0  0  0  0  0  0  0  0
  -23.7998   -3.5684   33.4463 N   0  3  0  0  0  0  0  0  0  0  0  0
  -22.6323  -14.7139   21.4226 O   0  0  0  0  0  0  0  0  0  0  0  0
  -31.5692   -6.5530   34.4077 O   0  0  0  0  0  0  0  0  0  0  0  0
  -29.2836   -3.8529   35.7042 O   0  0  0  0  0  0  0  0  0  0  0  0
  -26.1519   -4.4694   32.1923 O   0  0  0  0  0  0  0  0  0  0  0  0
  -32.0347  -14.5629   20.5517 O   0  0  0  0  0  0  0  0  0  0  0  0
  -21.7671   -6.9864   21.7733 O   0  0  0  0  0  0  0  0  0  0  0  0
  -28.0560  -12.3773   25.2644 O   0  0  0  0  0  0  0  0  0  0  0  0
  -27.7082  -11.0648   31.5371 O   0  0  0  0  0  0  0  0  0  1  0  0
  -19.0205   -6.7140   26.5468 F   0  0  0  0  0  0  0  0  0  0  0  0
  -22.3555   -5.0328   23.6387 F   0  0  0  0  0  0  0  0  0  0  0  0
  1  2  1  0  0  0  0
  1  5  2  0  0  0  0
  2  6  2  0  0  0  0
  3  8  2  0  0  0  0
  3 17  1  0  0  0  0
  4  9  1  0  0  0  0
  4 17  2  0  0  0  0
  5 19  1  0  0  0  0
  6 21  1  0  0  0  0
  7 10  2  0  0  0  0
  7 20  1  0  0  0  0
  8 26  1  0  0  0  0
  9 26  2  0  0  0  0
 10 27  1  0  0  0  0
 11 12  2  0  0  0  0
 11 28  1  0  0  0  0
 12 30  1  0  0  0  0
 13 22  1  0  0  0  0
 13 27  2  0  0  0  0
 14 23  2  0  0  0  0
 14 25  1  0  0  0  0
 15 24  1  0  0  0  0
 15 25  2  0  0  0  0
 16 30  2  0  0  0  0
 16 31  1  0  0  0  0
 17 32  1  0  0  0  0
 18 32  1  0  0  0  0
 18 33  2  0  0  0  0
 18 34  1  0  0  0  0
 19 21  2  0  0  0  0
 19 39  1  0  0  0  0
 20 22  2  0  0  0  0
 20 40  1  0  0  0  0
 21 48  1  0  0  0  0
 22 41  1  0  0  0  0
 23 29  1  0  0  0  0
 23 51  1  0  0  0  0
 24 29  2  0  0  0  0
 24 52  1  0  0  0  0
 25 72  1  0  0  0  0
 26 82  1  0  0  0  0
 27 84  1  0  0  0  0
 28 31  2  0  0  0  0
 28 82  1  0  0  0  0
 29 83  1  0  0  0  0
 30 85  1  0  0  0  0
 31 86  1  0  0  0  0
 32 66  2  0  0  0  0
 33 67  1  0  0  0  0
 33 70  1  0  0  0  0
 34 71  1  0  0  0  0
 34 77  2  0  0  0  0
 35 49  1  0  0  0  0
 35 73  1  0  0  0  0
 35 78  2  0  0  0  0
 36 63  1  0  0  0  0
 36 68  1  0  0  0  0
 36 79  2  0  0  0  0
 37 64  1  0  0  0  0
 37 74  1  0  0  0  0
 37 80  2  0  0  0  0
 38 69  1  0  0  0  0
 38 75  1  0  0  0  0
 38 81  2  0  0  0  0
 39 42  1  0  0  0  0
 40 49  1  0  0  0  0
 41 68  1  0  0  0  0
 42 44  1  0  0  0  0
 43 45  1  0  0  0  0
 43 46  1  0  0  0  0
 44 48  1  0  0  0  0
 45 50  1  0  0  0  0
 46 69  1  0  0  0  0
 47 50  1  0  0  0  0
 47 69  1  0  0  0  0
 48 73  1  0  0  0  0
 49 68  1  0  0  0  0
 50 67  1  0  0  0  0
 53 64  1  0  0  0  0
 54 65  1  0  0  0  0
 55 65  1  0  0  0  0
 56 65  1  0  0  0  0
 57 75  1  0  0  0  0
 58 76  1  0  0  0  0
 59 60  1  0  0  0  0
 59 61  1  0  0  0  0
 60 62  1  0  0  0  0
 61 75  1  0  0  0  0
 62 83  1  0  0  0  0
 63 65  1  0  0  0  0
 63 74  1  0  0  0  0
 64 76  1  0  0  0  0
 66 67  1  0  0  0  0
 72 84  1  0  0  0  0
M  CHG  1  76   1
M  ISO  4  38 100  72 101  75 100  84 101
M  END
> <Batch ID>
0007

> <Smiles>
CNC(C)C(=O)NC(C(=O)N1Cc2cc([101O:1][101NH:1]c3cc(C)c(OCCCC[100N:0](C)[100C:0](=O)N4CCCC(n5nc(-c6ccc(Oc7ccc(F)cc7F)cc6)c(C(N)=O)c5N)C4)c(C)c3)ccc2CC1C(=O)NC1CCCc2ccccc21)C(C)(C)C

> <Shape>
0.162

> <Color>
0.190

> <Negative vol penalty>
0.000

$$$$

  -OEChem-04042320323D

 79 88  0     1  0  0  0  0  0999 V2000
  -19.5264  -26.6475   24.3071 C   0  0  0  0  0  0  0  0  0  0  0  0
  -20.2700  -25.4840   24.1378 C   0  0  0  0  0  0  0  0  0  0  0  0
  -22.7950  -15.6999   21.2231 C   0  0  0  0  0  0  0  0  0  0  0  0
  -22.2571  -14.4760   19.2106 C   0  0  0  0  0  0  0  0  0  0  0  0
  -19.6924  -27.7141   23.4247 C   0  0  0  0  0  0  0  0  0  0  0  0
  -21.1794  -25.3860   23.0852 C   0  0  0  0  0  0  0  0  0  0  0  0
  -26.5454  -22.4348   23.1184 C   0  0  0  0  0  0  0  0  0  0  0  0
  -21.6751  -16.5087   21.0305 C   0  0  0  0  0  0  0  0  0  0  0  0
  -21.1371  -15.2848   19.0181 C   0  0  0  0  0  0  0  0  0  0  0  0
  -26.9267  -21.1764   22.6548 C   0  0  0  0  0  0  0  0  0  0  0  0
  -20.8153  -19.1566   19.1139 C   0  0  0  0  0  0  0  0  0  0  0  0
  -20.9734  -20.5321   19.2831 C   0  0  0  0  0  0  0  0  0  0  0  0
  -27.6949  -22.1740   20.5971 C   0  0  0  0  0  0  0  0  0  0  0  0
  -19.3175  -20.5060   21.0422 C   0  0  0  0  0  0  0  0  0  0  0  0
  -23.0861  -14.6835   20.3131 C   0  0  0  0  0  0  0  0  0  0  0  0
  -24.3058  -12.6390   21.2294 C   0  0  0  0  0  0  0  0  0  0  0  0
  -20.6112  -27.6329   22.3665 C   0  0  0  0  0  0  0  0  0  0  0  0
  -26.7263  -23.5727   22.3191 C   0  0  0  0  0  0  0  0  0  0  0  0
  -21.3568  -26.4521   22.1870 C   0  0  0  0  0  0  0  0  0  0  0  0
  -27.3174  -23.4460   21.0539 C   0  0  0  0  0  0  0  0  0  0  0  0
  -20.8461  -16.3012   19.9281 C   0  0  0  0  0  0  0  0  0  0  0  0
  -27.4989  -21.0455   21.3928 C   0  0  0  0  0  0  0  0  0  0  0  0
  -19.9083  -18.4558   19.9088 C   0  0  0  0  0  0  0  0  0  0  0  0
  -20.2245  -21.2068   20.2473 C   0  0  0  0  0  0  0  0  0  0  0  0
  -19.1594  -19.1305   20.8730 C   0  0  0  0  0  0  0  0  0  0  0  0
  -24.2432  -13.8480   20.5111 C   0  0  0  0  0  0  0  0  0  0  0  0
  -25.6160  -12.2419   21.1197 C   0  0  0  0  0  0  0  0  0  0  0  0
  -23.2720  -11.9375   21.9329 C   0  0  0  0  0  0  0  0  0  0  0  0
  -24.7896  -25.7346   21.0233 C   0  0  0  0  0  0  0  0  0  0  0  0
  -27.5798  -27.1618   20.1866 C   0  0  0  0  0  0  0  0  0  0  0  0
  -30.9164  -26.8462   19.5429 C   0  0  0  0  0  0  0  0  0  0  0  0
  -30.6961  -15.0875   20.2274 C   0  0  0  0  0  0  0  0  0  0  0  0
  -20.7217  -28.7940   21.4103 C   0  0  0  0  0  0  0  0  0  0  0  0
  -26.3342  -24.9264   22.8446 C   0  0  0  0  0  0  0  0  0  0  0  0
  -27.5518  -24.6391   20.1651 C   0  0  0  0  0  0  0  0  0  0  0  0
  -21.9774  -28.7517   20.5433 C   0  0  0  0  0  0  0  0  0  0  0  0
  -31.4517  -17.8206   22.8247 C   0  0  0  0  0  0  0  0  0  0  0  0
  -29.4067  -12.5538   18.2333 C   0  0  0  0  0  0  0  0  0  0  0  0
  -22.1773  -27.3561   19.9609 C   0  0  0  0  0  0  0  0  0  0  0  0
  -31.3615  -19.1986   22.1746 C   0  0  0  0  0  0  0  0  0  0  0  0
  -27.9373  -12.4758   18.6441 C   0  0  0  0  0  0  0  0  0  0  0  0
  -29.8744  -14.0021   18.1604 C   0  0  0  0  0  0  0  0  0  0  0  0
  -31.6683  -16.6781   21.8400 C   0  0  0  0  0  0  0  0  0  0  0  0
  -28.2213  -14.6872   19.8722 C   0  0  0  0  0  0  0  0  0  0  0  0
  -30.3475  -18.4271   19.9769 C   0  0  0  0  0  0  0  0  0  0  0  0
  -28.6231  -17.6176   21.5222 C   0  0  0  0  0  0  0  0  0  0  0  0
  -22.3711  -26.3172   21.0720 C   0  0  1  0  0  0  0  0  0  0  0  0
  -26.0931  -25.9496   21.7390 C   0  0  1  0  0  0  0  0  0  0  0  0
  -30.2460  -19.3974   21.1453 C   0  0  1  0  0  0  0  0  0  0  0  0
  -27.6937  -13.2407   19.9561 C   0  0  1  0  0  0  0  0  0  0  0  0
  -28.8497  -19.1135   21.7063 C   0  0  1  0  0  0  0  0  0  1  0  0
  -32.9231  -28.1821   18.8458 C   0  0  0  0  0  0  0  0  0  0  0  0
  -26.5553  -27.1967   17.3127 C   0  0  0  0  0  0  0  0  0  0  0  0
  -28.9005  -27.6379   16.5557 C   0  0  0  0  0  0  0  0  0  0  0  0
  -27.7357  -29.2833   18.0248 C   0  0  0  0  0  0  0  0  0  0  0  0
  -32.3467  -26.2278   22.0590 C   0  0  0  0  0  0  0  0  0  0  0  0
  -28.5075  -27.0814   18.9984 C   0  0  1  0  0  0  0  0  0  0  0  0
  -32.1142  -27.6487   20.0179 C   0  0  2  0  0  0  0  0  0  0  0  0
  -27.9187  -27.7769   17.7386 C   0  0  0  0  0  0  0  0  0  0  0  0
  -25.4201  -14.1963   19.9841 N   0  0  0  0  0  0  0  0  0  0  0  0
  -26.2346  -13.2001   20.3717 N   0  0  0  0  0  0  0  0  0  0  0  0
  -27.1457  -25.9404   20.7210 N   0  0  0  0  0  0  0  0  0  0  0  0
  -29.6169  -14.7100   19.4139 N   0  0  0  0  0  0  0  0  0  0  0  0
  -30.5399  -16.2624   20.9998 N   0  0  0  0  0  0  0  0  0  0  0  0
  -26.2879  -11.1700   21.5911 N   0  0  0  0  0  0  0  0  0  0  0  0
  -21.9821  -12.4854   21.9454 N   0  0  0  0  0  0  0  0  0  0  0  0
  -23.7167  -26.3870   21.6001 N   0  0  0  0  0  0  0  0  0  0  0  0
  -29.7856  -27.6285   19.4406 N   0  0  0  0  0  0  0  0  0  0  0  0
  -29.6161  -17.2093   20.4587 N   0  3  2  0  0  0  0  0  0  0  0  0
  -33.0065  -26.7998   20.8571 N   0  3  0  0  0  0  0  0  0  0  0  0
  -23.4895  -10.8652   22.5465 O   0  0  0  0  0  0  0  0  0  0  0  0
  -24.7597  -25.0301   20.0210 O   0  0  0  0  0  0  0  0  0  0  0  0
  -27.2580  -28.2675   20.6288 O   0  0  0  0  0  0  0  0  0  0  0  0
  -30.9786  -25.6462   19.2845 O   0  0  0  0  0  0  0  0  0  0  0  0
  -31.7447  -14.4306   20.2560 O   0  0  0  0  0  0  0  0  0  0  0  0
  -19.7530  -17.0901   19.7401 O   0  0  0  0  0  0  0  0  0  0  0  0
  -27.8734  -19.8117   20.9351 O   0  0  0  0  0  0  0  0  0  1  0  0
  -20.3775  -22.5274   20.4108 F   0  0  0  0  0  0  0  0  0  0  0  0
  -18.2873  -18.4624   21.6404 F   0  0  0  0  0  0  0  0  0  0  0  0
  1  2  1  0  0  0  0
  1  5  2  0  0  0  0
  2  6  2  0  0  0  0
  3  8  2  0  0  0  0
  3 15  1  0  0  0  0
  4  9  1  0  0  0  0
  4 15  2  0  0  0  0
  5 17  1  0  0  0  0
  6 19  1  0  0  0  0
  7 10  2  0  0  0  0
  7 18  1  0  0  0  0
  8 21  1  0  0  0  0
  9 21  2  0  0  0  0
 10 22  1  0  0  0  0
 11 12  2  0  0  0  0
 11 23  1  0  0  0  0
 12 24  1  0  0  0  0
 13 20  1  0  0  0  0
 13 22  2  0  0  0  0
 14 24  2  0  0  0  0
 14 25  1  0  0  0  0
 15 26  1  0  0  0  0
 16 26  1  0  0  0  0
 16 27  2  0  0  0  0
 16 28  1  0  0  0  0
 17 19  2  0  0  0  0
 17 33  1  0  0  0  0
 18 20  2  0  0  0  0
 18 34  1  0  0  0  0
 19 47  1  0  0  0  0
 20 35  1  0  0  0  0
 21 76  1  0  0  0  0
 22 77  1  0  0  0  0
 23 25  2  0  0  0  0
 23 76  1  0  0  0  0
 24 78  1  0  0  0  0
 25 79  1  0  0  0  0
 26 60  2  0  0  0  0
 27 61  1  0  0  0  0
 27 65  1  0  0  0  0
 28 66  1  0  0  0  0
 28 71  2  0  0  0  0
 29 48  1  0  0  0  0
 29 67  1  0  0  0  0
 29 72  2  0  0  0  0
 30 57  1  0  0  0  0
 30 62  1  0  0  0  0
 30 73  2  0  0  0  0
 31 58  1  0  0  0  0
 31 68  1  0  0  0  0
 31 74  2  0  0  0  0
 32 63  1  0  0  0  0
 32 64  1  0  0  0  0
 32 75  2  0  0  0  0
 33 36  1  0  0  0  0
 34 48  1  0  0  0  0
 35 62  1  0  0  0  0
 36 39  1  0  0  0  0
 37 40  1  0  0  0  0
 37 43  1  0  0  0  0
 38 41  1  0  0  0  0
 38 42  1  0  0  0  0
 39 47  1  0  0  0  0
 40 49  1  0  0  0  0
 41 50  1  0  0  0  0
 42 63  1  0  0  0  0
 43 64  1  0  0  0  0
 44 50  1  0  0  0  0
 44 63  1  0  0  0  0
 45 49  1  0  0  0  0
 45 69  1  0  0  0  0
 46 51  1  0  0  0  0
 46 69  1  0  0  0  0
 47 67  1  0  0  0  0
 48 62  1  0  0  0  0
 49 51  1  0  0  0  0
 50 61  1  0  0  0  0
 51 77  1  0  0  0  0
 52 58  1  0  0  0  0
 53 59  1  0  0  0  0
 54 59  1  0  0  0  0
 55 59  1  0  0  0  0
 56 70  1  0  0  0  0
 57 59  1  0  0  0  0
 57 68  1  0  0  0  0
 58 70  1  0  0  0  0
 60 61  1  0  0  0  0
 64 69  1  0  0  0  0
M  CHG  2  69   1  70   1
M  ISO  4  32 100  51 101  64 100  77 101
M  END
> <Batch ID>
0007

> <Smiles>
CNC(C)C(=O)NC(C(=O)N1Cc2cc([101O:1][101CH:1]3CN4CC3CCC[100N:0]4[100C:0](=O)N3CCCC(n4nc(-c5ccc(Oc6ccc(F)cc6F)cc5)c(C(N)=O)c4N)C3)ccc2CC1C(=O)NC1CCCc2ccccc21)C(C)(C)C

> <Shape>
0.228

> <Color>
0.085

> <Negative vol penalty>
0.000

$$$$

  -OEChem-04042320323D

 85 94  0     1  0  0  0  0  0999 V2000
  -17.3410  -25.4675   25.1517 C   0  0  0  0  0  0  0  0  0  0  0  0
  -18.4840  -24.7833   25.5527 C   0  0  0  0  0  0  0  0  0  0  0  0
  -23.3900   -9.9512   22.0999 C   0  0  0  0  0  0  0  0  0  0  0  0
  -23.9608  -11.3637   23.9750 C   0  0  0  0  0  0  0  0  0  0  0  0
  -17.4158  -26.4032   24.1208 C   0  0  0  0  0  0  0  0  0  0  0  0
  -19.7023  -25.0336   24.9223 C   0  0  0  0  0  0  0  0  0  0  0  0
  -26.7361  -25.2665   26.2593 C   0  0  0  0  0  0  0  0  0  0  0  0
  -31.9518  -19.2709   20.6775 C   0  0  0  0  0  0  0  0  0  0  0  0
  -31.5182  -17.9654   20.4467 C   0  0  0  0  0  0  0  0  0  0  0  0
  -22.7319   -9.0735   22.9614 C   0  0  0  0  0  0  0  0  0  0  0  0
  -23.3026  -10.4861   24.8365 C   0  0  0  0  0  0  0  0  0  0  0  0
  -27.9413  -24.7569   25.7783 C   0  0  0  0  0  0  0  0  0  0  0  0
  -19.7578   -8.9164   24.5623 C   0  0  0  0  0  0  0  0  0  0  0  0
  -18.5029   -8.4468   24.1747 C   0  0  0  0  0  0  0  0  0  0  0  0
  -27.9666  -26.4527   24.0628 C   0  0  0  0  0  0  0  0  0  0  0  0
  -29.2282  -18.7341   20.4004 C   0  0  0  0  0  0  0  0  0  0  0  0
  -19.3336   -6.1788   24.2328 C   0  0  0  0  0  0  0  0  0  0  0  0
  -24.0045  -11.0963   22.6068 C   0  0  0  0  0  0  0  0  0  0  0  0
  -24.1335  -13.1127   21.0495 C   0  0  0  0  0  0  0  0  0  0  0  0
  -18.6375  -26.6722   23.4839 C   0  0  0  0  0  0  0  0  0  0  0  0
  -26.1305  -26.3681   25.6380 C   0  0  0  0  0  0  0  0  0  0  0  0
  -19.7932  -25.9729   23.8810 C   0  0  0  0  0  0  0  0  0  0  0  0
  -26.7550  -26.9759   24.5395 C   0  0  0  0  0  0  0  0  0  0  0  0
  -31.0235  -20.3080   20.7699 C   0  0  0  0  0  0  0  0  0  0  0  0
  -29.6618  -20.0396   20.6313 C   0  0  0  0  0  0  0  0  0  0  0  0
  -30.1565  -17.6970   20.3081 C   0  0  0  0  0  0  0  0  0  0  0  0
  -22.6881   -9.3410   24.3297 C   0  0  0  0  0  0  0  0  0  0  0  0
  -28.5553  -25.3482   24.6780 C   0  0  0  0  0  0  0  0  0  0  0  0
  -20.8007   -8.0172   24.7851 C   0  0  0  0  0  0  0  0  0  0  0  0
  -18.2907   -7.0780   24.0100 C   0  0  0  0  0  0  0  0  0  0  0  0
  -20.5885   -6.6484   24.6203 C   0  0  0  0  0  0  0  0  0  0  0  0
  -24.6851  -12.0030   21.7174 C   0  0  0  0  0  0  0  0  0  0  0  0
  -25.1818  -13.6392   20.3350 C   0  0  0  0  0  0  0  0  0  0  0  0
  -30.1538  -23.3883   22.3188 C   0  0  0  0  0  0  0  0  0  0  0  0
  -22.7936  -13.6222   21.0730 C   0  0  0  0  0  0  0  0  0  0  0  0
  -23.3703  -26.8617   24.1409 C   0  0  0  0  0  0  0  0  0  0  0  0
  -24.3799  -29.9443   24.1201 C   0  0  0  0  0  0  0  0  0  0  0  0
  -26.9905  -32.1389   24.2453 C   0  0  0  0  0  0  0  0  0  0  0  0
  -30.5046  -15.2276   19.9509 C   0  0  0  0  0  0  0  0  0  0  0  0
  -18.6597  -27.6580   22.3427 C   0  0  0  0  0  0  0  0  0  0  0  0
  -24.8439  -26.9224   26.1856 C   0  0  0  0  0  0  0  0  0  0  0  0
  -26.1562  -28.1732   23.8493 C   0  0  0  0  0  0  0  0  0  0  0  0
  -20.0626  -28.1372   21.9789 C   0  0  0  0  0  0  0  0  0  0  0  0
  -29.7975  -11.7810   19.4055 C   0  0  0  0  0  0  0  0  0  0  0  0
  -21.0238  -26.9561   21.8898 C   0  0  0  0  0  0  0  0  0  0  0  0
  -28.3590  -11.6227   19.9034 C   0  0  0  0  0  0  0  0  0  0  0  0
  -30.7834  -22.6975   24.5122 C   0  0  0  0  0  0  0  0  0  0  0  0
  -30.5902  -12.7641   20.2650 C   0  0  0  0  0  0  0  0  0  0  0  0
  -31.1683  -21.6196   23.5179 C   0  0  0  0  0  0  0  0  0  0  0  0
  -28.5232  -13.9209   20.9420 C   0  0  0  0  0  0  0  0  0  0  0  0
  -21.1380  -26.2349   23.2383 C   0  0  1  0  0  0  0  0  0  0  0  0
  -29.7331  -23.5173   23.7693 C   0  0  1  0  0  0  0  0  0  1  0  0
  -24.0558  -27.7292   25.1583 C   0  0  1  0  0  0  0  0  0  0  0  0
  -27.6664  -12.9897   20.0688 C   0  0  2  0  0  0  0  0  0  0  0  0
  -28.6500  -21.1343   20.7243 C   0  0  0  0  0  0  0  0  0  0  0  0
  -27.5058  -34.5936   24.1680 C   0  0  0  0  0  0  0  0  0  0  0  0
  -23.9204  -29.9433   21.1037 C   0  0  0  0  0  0  0  0  0  0  0  0
  -25.3135  -32.0187   20.9610 C   0  0  0  0  0  0  0  0  0  0  0  0
  -23.1897  -32.0317   22.2696 C   0  0  0  0  0  0  0  0  0  0  0  0
  -28.1822  -32.0922   26.9539 C   0  0  0  0  0  0  0  0  0  0  0  0
  -31.5141  -21.7048   21.0196 C   0  0  0  0  0  0  0  0  0  0  0  0
  -25.1985  -30.7949   23.1791 C   0  0  1  0  0  0  0  0  0  0  0  0
  -27.2080  -33.3999   25.0620 C   0  0  2  0  0  0  0  0  0  0  0  0
  -24.4161  -31.1734   21.8899 C   0  0  0  0  0  0  0  0  0  0  0  0
  -25.9828  -11.8334   21.4508 N   0  0  0  0  0  0  0  0  0  0  0  0
  -26.2555  -12.8435   20.6074 N   0  0  0  0  0  0  0  0  0  0  0  0
  -30.9682  -22.2606   22.2388 N   0  0  0  0  0  0  0  0  0  0  0  0
  -24.8941  -28.6744   24.4181 N   0  0  0  0  0  0  0  0  0  0  0  0
  -29.8753  -14.0376   20.3736 N   0  0  0  0  0  0  0  0  0  0  0  0
  -25.2805  -14.7004   19.5064 N   0  0  0  0  0  0  0  0  0  0  0  0
  -21.8410  -12.9609   21.8602 N   0  0  0  0  0  0  0  0  0  0  0  0
  -29.7158  -16.3712   20.0716 N   0  0  0  0  0  0  0  0  0  0  0  0
  -21.9934  -26.9783   24.1383 N   0  0  0  0  0  0  0  0  0  0  0  0
  -25.6566  -31.9402   23.9580 N   0  0  0  0  0  0  0  0  0  0  0  0
  -28.3516  -33.2185   26.0002 N   0  3  0  0  0  0  0  0  0  0  0  0
  -29.8101  -24.1391   21.4184 O   0  0  0  0  0  0  0  0  0  0  0  0
  -22.4472  -14.6242   20.4026 O   0  0  0  0  0  0  0  0  0  0  0  0
  -24.0410  -26.1410   23.4112 O   0  0  0  0  0  0  0  0  0  0  0  0
  -23.3267  -30.3930   24.5797 O   0  0  0  0  0  0  0  0  0  0  0  0
  -27.9121  -31.4055   23.8940 O   0  0  0  0  0  0  0  0  0  0  0  0
  -31.6484  -15.2280   19.4887 O   0  0  0  0  0  0  0  0  0  0  0  0
  -22.0458   -8.4849   25.1706 O   0  0  0  0  0  0  0  0  0  0  0  0
  -29.7315  -24.8524   24.2060 O   0  0  0  0  0  0  0  0  0  1  0  0
  -17.0851   -6.6271   23.6393 F   0  0  0  0  0  0  0  0  0  0  0  0
  -21.5862   -5.7797   24.8341 F   0  0  0  0  0  0  0  0  0  0  0  0
  1  2  1  0  0  0  0
  1  5  2  0  0  0  0
  2  6  2  0  0  0  0
  3 10  2  0  0  0  0
  3 18  1  0  0  0  0
  4 11  1  0  0  0  0
  4 18  2  0  0  0  0
  5 20  1  0  0  0  0
  6 22  1  0  0  0  0
  7 12  2  0  0  0  0
  7 21  1  0  0  0  0
  8  9  2  0  0  0  0
  8 24  1  0  0  0  0
  9 26  1  0  0  0  0
 10 27  1  0  0  0  0
 11 27  2  0  0  0  0
 12 28  1  0  0  0  0
 13 14  2  0  0  0  0
 13 29  1  0  0  0  0
 14 30  1  0  0  0  0
 15 23  1  0  0  0  0
 15 28  2  0  0  0  0
 16 25  1  0  0  0  0
 16 26  2  0  0  0  0
 17 30  2  0  0  0  0
 17 31  1  0  0  0  0
 18 32  1  0  0  0  0
 19 32  1  0  0  0  0
 19 33  2  0  0  0  0
 19 35  1  0  0  0  0
 20 22  2  0  0  0  0
 20 40  1  0  0  0  0
 21 23  2  0  0  0  0
 21 41  1  0  0  0  0
 22 51  1  0  0  0  0
 23 42  1  0  0  0  0
 24 25  2  0  0  0  0
 24 61  1  0  0  0  0
 25 55  1  0  0  0  0
 26 72  1  0  0  0  0
 27 82  1  0  0  0  0
 28 83  1  0  0  0  0
 29 31  2  0  0  0  0
 29 82  1  0  0  0  0
 30 84  1  0  0  0  0
 31 85  1  0  0  0  0
 32 65  2  0  0  0  0
 33 66  1  0  0  0  0
 33 70  1  0  0  0  0
 34 52  1  0  0  0  0
 34 67  1  0  0  0  0
 34 76  2  0  0  0  0
 35 71  1  0  0  0  0
 35 77  2  0  0  0  0
 36 53  1  0  0  0  0
 36 73  1  0  0  0  0
 36 78  2  0  0  0  0
 37 62  1  0  0  0  0
 37 68  1  0  0  0  0
 37 79  2  0  0  0  0
 38 63  1  0  0  0  0
 38 74  1  0  0  0  0
 38 80  2  0  0  0  0
 39 69  1  0  0  0  0
 39 72  1  0  0  0  0
 39 81  2  0  0  0  0
 40 43  1  0  0  0  0
 41 53  1  0  0  0  0
 42 68  1  0  0  0  0
 43 45  1  0  0  0  0
 44 46  1  0  0  0  0
 44 48  1  0  0  0  0
 45 51  1  0  0  0  0
 46 54  1  0  0  0  0
 47 49  1  0  0  0  0
 47 52  1  0  0  0  0
 48 69  1  0  0  0  0
 49 67  1  0  0  0  0
 50 54  1  0  0  0  0
 50 69  1  0  0  0  0
 51 73  1  0  0  0  0
 52 83  1  0  0  0  0
 53 68  1  0  0  0  0
 54 66  1  0  0  0  0
 56 63  1  0  0  0  0
 57 64  1  0  0  0  0
 58 64  1  0  0  0  0
 59 64  1  0  0  0  0
 60 75  1  0  0  0  0
 61 67  1  0  0  0  0
 62 64  1  0  0  0  0
 62 74  1  0  0  0  0
 63 75  1  0  0  0  0
 65 66  1  0  0  0  0
M  CHG  1  75   1
M  ISO  4  39 100  52 101  72 100  83 101
M  END
> <Batch ID>
0007

> <Smiles>
CNC(C)C(=O)NC(C(=O)N1Cc2cc([101O:1][101CH:1]3CCN(Cc4ccc([100NH:0][100C:0](=O)N5CCCC(n6nc(-c7ccc(Oc8ccc(F)cc8F)cc7)c(C(N)=O)c6N)C5)cc4C)C3=O)ccc2CC1C(=O)NC1CCCc2ccccc21)C(C)(C)C

> <Shape>
0.259

> <Color>
0.111

> <Negative vol penalty>
0.000

$$$$

  -OEChem-04042320323D

 89 98  0     1  0  0  0  0  0999 V2000
  -25.7019   -4.9847   23.0895 C   0  0  0  0  0  0  0  0  0  0  0  0
  -26.6225   -6.0200   23.2161 C   0  0  0  0  0  0  0  0  0  0  0  0
  -22.4155  -28.6637   20.7193 C   0  0  0  0  0  0  0  0  0  0  0  0
  -23.5794  -27.3260   22.3604 C   0  0  0  0  0  0  0  0  0  0  0  0
  -30.2100  -22.3643   22.5016 C   0  0  0  0  0  0  0  0  0  0  0  0
  -24.6356   -5.1065   22.1995 C   0  0  0  0  0  0  0  0  0  0  0  0
  -26.4779   -7.1774   22.4518 C   0  0  0  0  0  0  0  0  0  0  0  0
  -27.6369  -14.2405   22.7427 C   0  0  0  0  0  0  0  0  0  0  0  0
  -29.5072  -21.1780   22.2911 C   0  0  0  0  0  0  0  0  0  0  0  0
  -21.1949  -28.2965   21.2857 C   0  0  0  0  0  0  0  0  0  0  0  0
  -22.3587  -26.9588   22.9268 C   0  0  0  0  0  0  0  0  0  0  0  0
  -28.2536  -15.2614   22.0208 C   0  0  0  0  0  0  0  0  0  0  0  0
  -19.3340  -29.1640   23.9722 C   0  0  0  0  0  0  0  0  0  0  0  0
  -18.3869  -30.1672   24.1780 C   0  0  0  0  0  0  0  0  0  0  0  0
  -29.5473  -21.5698   19.9084 C   0  0  0  0  0  0  0  0  0  0  0  0
  -26.3280  -15.3933   20.5738 C   0  0  0  0  0  0  0  0  0  0  0  0
  -16.8410  -29.0049   22.7301 C   0  0  0  0  0  0  0  0  0  0  0  0
  -23.6078  -28.1784   21.2566 C   0  0  0  0  0  0  0  0  0  0  0  0
  -30.5897  -23.1556   21.4106 C   0  0  0  0  0  0  0  0  0  0  0  0
  -25.6650  -29.6670   21.0122 C   0  0  0  0  0  0  0  0  0  0  0  0
  -24.4724   -6.2698   21.4310 C   0  0  0  0  0  0  0  0  0  0  0  0
  -26.3634  -13.7801   22.3783 C   0  0  0  0  0  0  0  0  0  0  0  0
  -25.4092   -7.3143   21.5497 C   0  0  0  0  0  0  0  0  0  0  0  0
  -30.2625  -22.7593   20.1043 C   0  0  0  0  0  0  0  0  0  0  0  0
  -25.6962  -14.3682   21.2943 C   0  0  0  0  0  0  0  0  0  0  0  0
  -29.1752  -20.7816   20.9973 C   0  0  0  0  0  0  0  0  0  0  0  0
  -21.1664  -27.4441   22.3894 C   0  0  0  0  0  0  0  0  0  0  0  0
  -27.6004  -15.8360   20.9344 C   0  0  0  0  0  0  0  0  0  0  0  0
  -19.0345  -28.0813   23.1452 C   0  0  0  0  0  0  0  0  0  0  0  0
  -17.1405  -30.0877   23.5570 C   0  0  0  0  0  0  0  0  0  0  0  0
  -17.7881  -28.0018   22.5242 C   0  0  0  0  0  0  0  0  0  0  0  0
  -24.8690  -28.5569   20.6717 C   0  0  0  0  0  0  0  0  0  0  0  0
  -26.7499  -29.5815   20.1743 C   0  0  0  0  0  0  0  0  0  0  0  0
  -31.3186  -24.4307   21.6493 C   0  0  0  0  0  0  0  0  0  0  0  0
  -25.4436  -30.6843   21.9979 C   0  0  0  0  0  0  0  0  0  0  0  0
  -25.1807  -10.9989   21.3937 C   0  0  0  0  0  0  0  0  0  0  0  0
  -22.3469  -12.5563   21.6518 C   0  0  0  0  0  0  0  0  0  0  0  0
  -20.6663  -15.5263   21.6900 C   0  0  0  0  0  0  0  0  0  0  0  0
  -29.3487  -25.0026   17.3227 C   0  0  0  0  0  0  0  0  0  0  0  0
  -23.3307   -6.3362   20.4478 C   0  0  0  0  0  0  0  0  0  0  0  0
  -25.7006  -12.6964   23.1836 C   0  0  0  0  0  0  0  0  0  0  0  0
  -24.3196  -13.9239   20.8747 C   0  0  0  0  0  0  0  0  0  0  0  0
  -23.0379   -7.7489   19.9488 C   0  0  0  0  0  0  0  0  0  0  0  0
  -28.0279  -27.9659   15.8560 C   0  0  0  0  0  0  0  0  0  0  0  0
  -24.3313   -8.4543   19.5536 C   0  0  0  0  0  0  0  0  0  0  0  0
  -27.1404  -28.5535   16.9546 C   0  0  0  0  0  0  0  0  0  0  0  0
  -27.9756  -26.4397   15.8443 C   0  0  0  0  0  0  0  0  0  0  0  0
  -31.9410  -24.3564   19.2371 C   0  0  0  0  0  0  0  0  0  0  0  0
  -27.3885  -26.3875   18.2373 C   0  0  0  0  0  0  0  0  0  0  0  0
  -25.2723   -8.5955   20.7562 C   0  0  1  0  0  0  0  0  0  0  0  0
  -30.6399  -23.6220   18.9307 C   0  0  2  0  0  0  0  0  0  0  0  0
  -24.6172  -11.9534   22.4081 C   0  0  1  0  0  0  0  0  0  0  0  0
  -27.4518  -27.9219   18.3248 C   0  0  2  0  0  0  0  0  0  0  0  0
  -18.3519  -16.4778   21.8791 C   0  0  0  0  0  0  0  0  0  0  0  0
  -21.7781  -11.7398   18.7674 C   0  0  0  0  0  0  0  0  0  0  0  0
  -19.9676  -13.4680   18.7086 C   0  0  0  0  0  0  0  0  0  0  0  0
  -19.8168  -11.5601   20.3086 C   0  0  0  0  0  0  0  0  0  0  0  0
  -33.8492  -26.0248   21.5954 C   0  0  0  0  0  0  0  0  0  0  0  0
  -33.1626  -26.6931   19.2780 C   0  0  0  0  0  0  0  0  0  0  0  0
  -31.7593  -27.3610   21.2461 C   0  0  0  0  0  0  0  0  0  0  0  0
  -21.3525  -17.0100   24.1571 C   0  0  0  0  0  0  0  0  0  0  0  0
  -28.0876  -19.1191   19.4877 C   0  0  0  0  0  0  0  0  0  0  0  0
  -27.3476  -17.7980   19.6143 C   0  0  0  0  0  0  0  0  0  1  0  0
  -21.5016  -13.3982   20.7267 C   0  0  1  0  0  0  0  0  0  0  0  0
  -19.6096  -16.0737   22.6325 C   0  0  2  0  0  0  0  0  0  0  0  0
  -20.7928  -12.5488   19.6343 C   0  0  0  0  0  0  0  0  0  0  0  0
  -32.6584  -26.2660   20.6605 C   0  0  0  0  0  0  0  0  0  0  0  0
  -25.4027  -27.8204   19.6935 N   0  0  0  0  0  0  0  0  0  0  0  0
  -26.5456  -28.4690   19.4123 N   0  0  0  0  0  0  0  0  0  0  0  0
  -31.8939  -25.0357   20.5286 N   0  0  0  0  0  0  0  0  0  0  0  0
  -23.7159  -12.8568   21.6898 N   0  0  0  0  0  0  0  0  0  0  0  0
  -28.2818  -25.9039   17.1729 N   0  0  0  0  0  0  0  0  0  0  0  0
  -27.8492  -30.3502   20.0224 N   0  0  0  0  0  0  0  0  0  0  0  0
  -24.2773  -30.6215   22.7727 N   0  0  0  0  0  0  0  0  0  0  0  0
  -28.4729  -19.6055   20.7927 N   0  0  0  0  0  0  0  0  0  0  0  0
  -24.8385   -9.6782   21.6130 N   0  0  0  0  0  0  0  0  0  0  0  0
  -20.5912  -14.1539   21.5803 N   0  0  0  0  0  0  0  0  0  0  0  0
  -29.5749  -24.5480   18.6161 N   0  0  0  0  0  0  0  0  0  0  0  0
  -20.1292  -17.2691   23.3550 N   0  3  0  0  0  0  0  0  0  0  0  0
  -31.3695  -24.8822   22.7911 O   0  0  0  0  0  0  0  0  0  0  0  0
  -26.2478  -31.6306   22.1748 O   0  0  0  0  0  0  0  0  0  0  0  0
  -25.8734  -11.4289   20.4788 O   0  0  0  0  0  0  0  0  0  0  0  0
  -21.8111  -11.6697   22.3214 O   0  0  0  0  0  0  0  0  0  0  0  0
  -21.4748  -16.2447   21.1063 O   0  0  0  0  0  0  0  0  0  0  0  0
  -30.0511  -24.6347   16.3750 O   0  0  0  0  0  0  0  0  0  0  0  0
  -19.9755  -27.0858   22.9425 O   0  0  0  0  0  0  0  0  0  0  0  0
  -28.2004  -16.8322   20.2276 O   0  0  0  0  0  0  0  0  0  1  0  0
  -16.2306  -31.0503   23.7561 F   0  0  0  0  0  0  0  0  0  0  0  0
  -17.4942  -26.9634   21.7297 F   0  0  0  0  0  0  0  0  0  0  0  0
  1  2  1  0  0  0  0
  1  6  2  0  0  0  0
  2  7  2  0  0  0  0
  3 10  2  0  0  0  0
  3 18  1  0  0  0  0
  4 11  1  0  0  0  0
  4 18  2  0  0  0  0
  5  9  2  0  0  0  0
  5 19  1  0  0  0  0
  6 21  1  0  0  0  0
  7 23  1  0  0  0  0
  8 12  2  0  0  0  0
  8 22  1  0  0  0  0
  9 26  1  0  0  0  0
 10 27  1  0  0  0  0
 11 27  2  0  0  0  0
 12 28  1  0  0  0  0
 13 14  2  0  0  0  0
 13 29  1  0  0  0  0
 14 30  1  0  0  0  0
 15 24  1  0  0  0  0
 15 26  2  0  0  0  0
 16 25  1  0  0  0  0
 16 28  2  0  0  0  0
 17 30  2  0  0  0  0
 17 31  1  0  0  0  0
 18 32  1  0  0  0  0
 19 24  2  0  0  0  0
 19 34  1  0  0  0  0
 20 32  1  0  0  0  0
 20 33  2  0  0  0  0
 20 35  1  0  0  0  0
 21 23  2  0  0  0  0
 21 40  1  0  0  0  0
 22 25  2  0  0  0  0
 22 41  1  0  0  0  0
 23 50  1  0  0  0  0
 24 51  1  0  0  0  0
 25 42  1  0  0  0  0
 26 75  1  0  0  0  0
 27 86  1  0  0  0  0
 28 87  1  0  0  0  0
 29 31  2  0  0  0  0
 29 86  1  0  0  0  0
 30 88  1  0  0  0  0
 31 89  1  0  0  0  0
 32 68  2  0  0  0  0
 33 69  1  0  0  0  0
 33 73  1  0  0  0  0
 34 70  1  0  0  0  0
 34 80  2  0  0  0  0
 35 74  1  0  0  0  0
 35 81  2  0  0  0  0
 36 52  1  0  0  0  0
 36 76  1  0  0  0  0
 36 82  2  0  0  0  0
 37 64  1  0  0  0  0
 37 71  1  0  0  0  0
 37 83  2  0  0  0  0
 38 65  1  0  0  0  0
 38 77  1  0  0  0  0
 38 84  2  0  0  0  0
 39 72  1  0  0  0  0
 39 78  1  0  0  0  0
 39 85  2  0  0  0  0
 40 43  1  0  0  0  0
 41 52  1  0  0  0  0
 42 71  1  0  0  0  0
 43 45  1  0  0  0  0
 44 46  1  0  0  0  0
 44 47  1  0  0  0  0
 45 50  1  0  0  0  0
 46 53  1  0  0  0  0
 47 72  1  0  0  0  0
 48 51  1  0  0  0  0
 48 70  1  0  0  0  0
 49 53  1  0  0  0  0
 49 72  1  0  0  0  0
 50 76  1  0  0  0  0
 51 78  1  0  0  0  0
 52 71  1  0  0  0  0
 53 69  1  0  0  0  0
 54 65  1  0  0  0  0
 55 66  1  0  0  0  0
 56 66  1  0  0  0  0
 57 66  1  0  0  0  0
 58 67  1  0  0  0  0
 59 67  1  0  0  0  0
 60 67  1  0  0  0  0
 61 79  1  0  0  0  0
 62 63  1  0  0  0  0
 62 75  1  0  0  0  0
 63 87  1  0  0  0  0
 64 66  1  0  0  0  0
 64 77  1  0  0  0  0
 65 79  1  0  0  0  0
 67 70  1  0  0  0  0
 68 69  1  0  0  0  0
M  CHG  1  79   1
M  ISO  4  39 100  63 101  78 100  87 101
M  END
> <Batch ID>
0007

> <Smiles>
CNC(C)C(=O)NC(C(=O)N1Cc2cc([101O:1][101CH2:1]CNc3ccc4c(c3)C([100NH:0][100C:0](=O)N3CCCC(n5nc(-c6ccc(Oc7ccc(F)cc7F)cc6)c(C(N)=O)c5N)C3)CN(C(C)(C)C)C4=O)ccc2CC1C(=O)NC1CCCc2ccccc21)C(C)(C)C

> <Shape>
0.268

> <Color>
0.048

> <Negative vol penalty>
0.000

$$$$

  -OEChem-04042320323D

 86 95  0     1  0  0  0  0  0999 V2000
  -28.8150  -32.1232   21.2099 C   0  0  0  0  0  0  0  0  0  0  0  0
  -28.9134  -30.7357   21.1833 C   0  0  0  0  0  0  0  0  0  0  0  0
  -22.9798   -9.9818   19.9775 C   0  0  0  0  0  0  0  0  0  0  0  0
  -23.6294   -9.9722   22.3045 C   0  0  0  0  0  0  0  0  0  0  0  0
  -28.2725  -32.7612   22.3246 C   0  0  0  0  0  0  0  0  0  0  0  0
  -28.4702  -29.9855   22.2720 C   0  0  0  0  0  0  0  0  0  0  0  0
  -25.7369  -25.9586   20.8728 C   0  0  0  0  0  0  0  0  0  0  0  0
  -22.1476   -8.8859   20.2052 C   0  0  0  0  0  0  0  0  0  0  0  0
  -22.7971   -8.8762   22.5323 C   0  0  0  0  0  0  0  0  0  0  0  0
  -26.4351  -24.8480   20.4009 C   0  0  0  0  0  0  0  0  0  0  0  0
  -22.8854   -5.5340   22.0295 C   0  0  0  0  0  0  0  0  0  0  0  0
  -23.3945   -4.4803   22.7885 C   0  0  0  0  0  0  0  0  0  0  0  0
  -26.2027  -23.7929   22.5577 C   0  0  0  0  0  0  0  0  0  0  0  0
  -29.3486  -17.3865   21.4448 C   0  0  0  0  0  0  0  0  0  0  0  0
  -30.8459  -19.5996   20.6429 C   0  0  0  0  0  0  0  0  0  0  0  0
  -21.6304   -4.7952   24.4090 C   0  0  0  0  0  0  0  0  0  0  0  0
  -23.7208  -10.5250   21.0271 C   0  0  0  0  0  0  0  0  0  0  0  0
  -24.2404  -13.0189   20.8934 C   0  0  0  0  0  0  0  0  0  0  0  0
  -27.8136  -32.0179   23.4235 C   0  0  0  0  0  0  0  0  0  0  0  0
  -25.2750  -25.9994   22.1962 C   0  0  0  0  0  0  0  0  0  0  0  0
  -27.9223  -30.6143   23.4030 C   0  0  0  0  0  0  0  0  0  0  0  0
  -25.4967  -24.9042   23.0433 C   0  0  0  0  0  0  0  0  0  0  0  0
  -30.7156  -17.4395   21.7172 C   0  0  0  0  0  0  0  0  0  0  0  0
  -22.0563   -8.3331   21.4826 C   0  0  0  0  0  0  0  0  0  0  0  0
  -26.6706  -23.7661   21.2442 C   0  0  0  0  0  0  0  0  0  0  0  0
  -21.7488   -6.2184   22.4603 C   0  0  0  0  0  0  0  0  0  0  0  0
  -29.4789  -19.5466   20.3704 C   0  0  0  0  0  0  0  0  0  0  0  0
  -22.7671   -4.1109   23.9782 C   0  0  0  0  0  0  0  0  0  0  0  0
  -28.7303  -18.4400   20.7713 C   0  0  0  0  0  0  0  0  0  0  0  0
  -31.4642  -18.5461   21.3163 C   0  0  0  0  0  0  0  0  0  0  0  0
  -21.1213   -5.8490   23.6500 C   0  0  0  0  0  0  0  0  0  0  0  0
  -24.5811  -11.6568   20.7924 C   0  0  0  0  0  0  0  0  0  0  0  0
  -25.3973  -13.6868   20.5741 C   0  0  0  0  0  0  0  0  0  0  0  0
  -22.9899  -13.6263   21.2445 C   0  0  0  0  0  0  0  0  0  0  0  0
  -25.8388  -27.8580   24.7125 C   0  0  0  0  0  0  0  0  0  0  0  0
  -23.4605  -26.1042   26.0503 C   0  0  0  0  0  0  0  0  0  0  0  0
  -21.6778  -23.1943   26.0913 C   0  0  0  0  0  0  0  0  0  0  0  0
  -30.8650  -14.3660   20.9450 C   0  0  0  0  0  0  0  0  0  0  0  0
  -27.2783  -32.7547   24.6256 C   0  0  0  0  0  0  0  0  0  0  0  0
  -24.5002  -27.1936   22.6820 C   0  0  0  0  0  0  0  0  0  0  0  0
  -25.0041  -24.8900   24.4665 C   0  0  0  0  0  0  0  0  0  0  0  0
  -26.4874  -31.8661   25.5822 C   0  0  0  0  0  0  0  0  0  0  0  0
  -31.3041  -15.0297   24.4828 C   0  0  0  0  0  0  0  0  0  0  0  0
  -29.7349  -12.0366   18.5943 C   0  0  0  0  0  0  0  0  0  0  0  0
  -31.3322  -16.4646   23.9718 C   0  0  0  0  0  0  0  0  0  0  0  0
  -27.2393  -30.5657   25.8478 C   0  0  0  0  0  0  0  0  0  0  0  0
  -28.2694  -11.8176   18.9648 C   0  0  0  0  0  0  0  0  0  0  0  0
  -30.5967  -12.1676   19.8438 C   0  0  0  0  0  0  0  0  0  0  0  0
  -30.4350  -14.3223   23.4546 C   0  0  0  0  0  0  0  0  0  0  0  0
  -28.6903  -13.0722   21.1400 C   0  0  0  0  0  0  0  0  0  0  0  0
  -31.3825  -16.2960   22.4475 C   0  0  1  0  0  0  0  0  0  0  0  0
  -27.4297  -29.7645   24.5542 C   0  0  1  0  0  0  0  0  0  0  0  0
  -24.5233  -27.3436   24.2000 C   0  0  1  0  0  0  0  0  0  0  0  0
  -27.7733  -12.9258   19.9083 C   0  0  2  0  0  0  0  0  0  0  0  0
  -19.8224  -22.0380   27.3233 C   0  0  0  0  0  0  0  0  0  0  0  0
  -25.3656  -25.5124   28.3591 C   0  0  0  0  0  0  0  0  0  0  0  0
  -23.8452  -23.6446   29.0432 C   0  0  0  0  0  0  0  0  0  0  0  0
  -23.0103  -25.9953   29.0476 C   0  0  0  0  0  0  0  0  0  0  0  0
  -20.0036  -23.0352   23.6560 C   0  0  0  0  0  0  0  0  0  0  0  0
  -28.3281  -22.9080   19.7703 C   0  0  0  0  0  0  0  0  0  1  0  0
  -29.4325  -21.8763   19.8949 C   0  0  0  0  0  0  0  0  0  0  0  0
  -23.3943  -24.8205   26.8421 C   0  0  1  0  0  0  0  0  0  0  0  0
  -20.1842  -22.9287   26.1450 C   0  0  2  0  0  0  0  0  0  0  0  0
  -23.9149  -24.9940   28.2968 C   0  0  0  0  0  0  0  0  0  0  0  0
  -25.8547  -11.4688   20.4366 N   0  0  0  0  0  0  0  0  0  0  0  0
  -26.3244  -12.7217   20.3112 N   0  0  0  0  0  0  0  0  0  0  0  0
  -24.2570  -26.0835   24.8967 N   0  0  0  0  0  0  0  0  0  0  0  0
  -30.0947  -13.2156   20.7332 N   0  0  0  0  0  0  0  0  0  0  0  0
  -30.7572  -14.9892   22.1916 N   0  0  0  0  0  0  0  0  0  0  0  0
  -25.7018  -14.9996   20.4953 N   0  0  0  0  0  0  0  0  0  0  0  0
  -21.9032  -12.7932   21.5436 N   0  0  0  0  0  0  0  0  0  0  0  0
  -26.2029  -29.0863   24.1946 N   0  0  0  0  0  0  0  0  0  0  0  0
  -22.0140  -24.3565   26.7527 N   0  0  0  0  0  0  0  0  0  0  0  0
  -19.7319  -22.2586   24.8930 N   0  3  0  0  0  0  0  0  0  0  0  0
  -22.8362  -14.8708   21.2756 O   0  0  0  0  0  0  0  0  0  0  0  0
  -26.4756  -27.1906   25.5192 O   0  0  0  0  0  0  0  0  0  0  0  0
  -22.8230  -27.0868   26.4372 O   0  0  0  0  0  0  0  0  0  0  0  0
  -22.4678  -22.4437   25.5230 O   0  0  0  0  0  0  0  0  0  0  0  0
  -31.6273  -14.8031   20.0733 O   0  0  0  0  0  0  0  0  0  0  0  0
  -21.2441   -7.2638   21.7052 O   0  0  0  0  0  0  0  0  0  0  0  0
  -27.3571  -22.6737   20.7832 O   0  0  0  0  0  0  0  0  0  1  0  0
  -28.8771  -20.5747   19.7123 O   0  0  0  0  0  0  0  0  0  0  0  0
  -23.2552   -3.0980   24.7062 F   0  0  0  0  0  0  0  0  0  0  0  0
  -27.4167  -18.3830   20.5119 F   0  0  0  0  0  0  0  0  0  0  0  0
  -32.7781  -18.6064   21.5744 F   0  0  0  0  0  0  0  0  0  0  0  0
  -20.0284   -6.5019   24.0683 F   0  0  0  0  0  0  0  0  0  0  0  0
  1  2  1  0  0  0  0
  1  5  2  0  0  0  0
  2  6  2  0  0  0  0
  3  8  2  0  0  0  0
  3 17  1  0  0  0  0
  4  9  1  0  0  0  0
  4 17  2  0  0  0  0
  5 19  1  0  0  0  0
  6 21  1  0  0  0  0
  7 10  2  0  0  0  0
  7 20  1  0  0  0  0
  8 24  1  0  0  0  0
  9 24  2  0  0  0  0
 10 25  1  0  0  0  0
 11 12  2  0  0  0  0
 11 26  1  0  0  0  0
 12 28  1  0  0  0  0
 13 22  1  0  0  0  0
 13 25  2  0  0  0  0
 14 23  2  0  0  0  0
 14 29  1  0  0  0  0
 15 27  1  0  0  0  0
 15 30  2  0  0  0  0
 16 28  2  0  0  0  0
 16 31  1  0  0  0  0
 17 32  1  0  0  0  0
 18 32  1  0  0  0  0
 18 33  2  0  0  0  0
 18 34  1  0  0  0  0
 19 21  2  0  0  0  0
 19 39  1  0  0  0  0
 20 22  2  0  0  0  0
 20 40  1  0  0  0  0
 21 52  1  0  0  0  0
 22 41  1  0  0  0  0
 23 30  1  0  0  0  0
 23 51  1  0  0  0  0
 24 80  1  0  0  0  0
 25 81  1  0  0  0  0
 26 31  2  0  0  0  0
 26 80  1  0  0  0  0
 27 29  2  0  0  0  0
 27 82  1  0  0  0  0
 28 83  1  0  0  0  0
 29 84  1  0  0  0  0
 30 85  1  0  0  0  0
 31 86  1  0  0  0  0
 32 65  2  0  0  0  0
 33 66  1  0  0  0  0
 33 70  1  0  0  0  0
 34 71  1  0  0  0  0
 34 75  2  0  0  0  0
 35 53  1  0  0  0  0
 35 72  1  0  0  0  0
 35 76  2  0  0  0  0
 36 62  1  0  0  0  0
 36 67  1  0  0  0  0
 36 77  2  0  0  0  0
 37 63  1  0  0  0  0
 37 73  1  0  0  0  0
 37 78  2  0  0  0  0
 38 68  1  0  0  0  0
 38 69  1  0  0  0  0
 38 79  2  0  0  0  0
 39 42  1  0  0  0  0
 40 53  1  0  0  0  0
 41 67  1  0  0  0  0
 42 46  1  0  0  0  0
 43 45  1  0  0  0  0
 43 49  1  0  0  0  0
 44 47  1  0  0  0  0
 44 48  1  0  0  0  0
 45 51  1  0  0  0  0
 46 52  1  0  0  0  0
 47 54  1  0  0  0  0
 48 68  1  0  0  0  0
 49 69  1  0  0  0  0
 50 54  1  0  0  0  0
 50 68  1  0  0  0  0
 51 69  1  0  0  0  0
 52 72  1  0  0  0  0
 53 67  1  0  0  0  0
 54 66  1  0  0  0  0
 55 63  1  0  0  0  0
 56 64  1  0  0  0  0
 57 64  1  0  0  0  0
 58 64  1  0  0  0  0
 59 74  1  0  0  0  0
 60 61  1  0  0  0  0
 60 81  1  0  0  0  0
 61 82  1  0  0  0  0
 62 64  1  0  0  0  0
 62 73  1  0  0  0  0
 63 74  1  0  0  0  0
 65 66  1  0  0  0  0
M  CHG  1  74   1
M  ISO  4  38 100  60 101  69 100  81 101
M  END
> <Batch ID>
0007

> <Smiles>
CNC(C)C(=O)NC(C(=O)N1Cc2cc([101O:1][101CH2:1]COc3cc(F)c(C4CCC[100N:0]4[100C:0](=O)N4CCCC(n5nc(-c6ccc(Oc7ccc(F)cc7F)cc6)c(C(N)=O)c5N)C4)cc3F)ccc2CC1C(=O)NC1CCCc2ccccc21)C(C)(C)C

> <Shape>
0.281

> <Color>
0.214

> <Negative vol penalty>
0.000

$$$$

  -OEChem-04042320323D

 85 94  0     1  0  0  0  0  0999 V2000
  -32.1135  -15.1816   21.6033 C   0  0  0  0  0  0  0  0  0  0  0  0
  -31.1881  -16.2202   21.5852 C   0  0  0  0  0  0  0  0  0  0  0  0
  -18.3433  -27.6618   21.7938 C   0  0  0  0  0  0  0  0  0  0  0  0
  -18.4037  -26.2880   21.5583 C   0  0  0  0  0  0  0  0  0  0  0  0
  -20.7902  -25.2062   24.1878 C   0  0  0  0  0  0  0  0  0  0  0  0
  -28.8388  -26.1341   19.6150 C   0  0  0  0  0  0  0  0  0  0  0  0
  -26.6428  -25.3033   19.0453 C   0  0  0  0  0  0  0  0  0  0  0  0
  -31.7504  -13.9178   21.1397 C   0  0  0  0  0  0  0  0  0  0  0  0
  -29.8993  -15.9959   21.1024 C   0  0  0  0  0  0  0  0  0  0  0  0
  -24.7144  -18.5543   23.1217 C   0  0  0  0  0  0  0  0  0  0  0  0
  -19.0925  -28.2261   22.8220 C   0  0  0  0  0  0  0  0  0  0  0  0
  -20.8505  -23.8324   23.9523 C   0  0  0  0  0  0  0  0  0  0  0  0
  -29.4055  -24.9379   19.1753 C   0  0  0  0  0  0  0  0  0  0  0  0
  -27.2096  -24.1070   18.6054 C   0  0  0  0  0  0  0  0  0  0  0  0
  -23.9571  -19.6297   22.6595 C   0  0  0  0  0  0  0  0  0  0  0  0
  -28.0422  -20.6959   17.6668 C   0  0  0  0  0  0  0  0  0  0  0  0
  -27.4288  -19.5057   18.0575 C   0  0  0  0  0  0  0  0  0  0  0  0
  -19.2888  -24.0755   22.1275 C   0  0  0  0  0  0  0  0  0  0  0  0
  -22.5236  -18.0997   21.4664 C   0  0  0  0  0  0  0  0  0  0  0  0
  -27.8022  -20.0744   20.3758 C   0  0  0  0  0  0  0  0  0  0  0  0
  -19.2160  -25.4602   22.3503 C   0  0  0  0  0  0  0  0  0  0  0  0
  -19.9778  -26.0340   23.3959 C   0  0  0  0  0  0  0  0  0  0  0  0
  -27.4574  -26.3168   19.5501 C   0  0  0  0  0  0  0  0  0  0  0  0
  -26.6308  -28.7104   19.2417 C   0  0  0  0  0  0  0  0  0  0  0  0
  -30.4535  -13.6754   20.6599 C   0  0  0  0  0  0  0  0  0  0  0  0
  -24.3880  -17.2421   22.7503 C   0  0  0  0  0  0  0  0  0  0  0  0
  -29.5189  -14.7281   20.6307 C   0  0  0  0  0  0  0  0  0  0  0  0
  -23.2768  -17.0092   21.9274 C   0  0  0  0  0  0  0  0  0  0  0  0
  -19.9049  -27.4187   23.6187 C   0  0  0  0  0  0  0  0  0  0  0  0
  -28.5910  -23.9243   18.6704 C   0  0  0  0  0  0  0  0  0  0  0  0
  -20.1013  -23.2681   22.9241 C   0  0  0  0  0  0  0  0  0  0  0  0
  -22.8633  -19.4028   21.8294 C   0  0  0  0  0  0  0  0  0  0  0  0
  -28.5357  -21.5754   18.6305 C   0  0  0  0  0  0  0  0  0  0  0  0
  -27.3088  -19.1949   19.4120 C   0  0  0  0  0  0  0  0  0  0  0  0
  -28.4156  -21.2646   19.9850 C   0  0  0  0  0  0  0  0  0  0  0  0
  -26.8713  -27.5521   20.0048 C   0  0  0  0  0  0  0  0  0  0  0  0
  -26.0655  -29.5942   20.1281 C   0  0  0  0  0  0  0  0  0  0  0  0
  -26.8947  -28.9647   17.8556 C   0  0  0  0  0  0  0  0  0  0  0  0
  -25.8651  -14.9329   21.1410 C   0  0  0  0  0  0  0  0  0  0  0  0
  -23.2861  -13.1863   22.0469 C   0  0  0  0  0  0  0  0  0  0  0  0
  -20.0199  -13.1409   23.0351 C   0  0  0  0  0  0  0  0  0  0  0  0
  -22.9875  -28.8634   25.2117 C   0  0  0  0  0  0  0  0  0  0  0  0
  -30.1217  -12.3048   20.1252 C   0  0  0  0  0  0  0  0  0  0  0  0
  -25.1989  -16.0909   23.2791 C   0  0  0  0  0  0  0  0  0  0  0  0
  -22.8723  -15.6179   21.5161 C   0  0  0  0  0  0  0  0  0  0  0  0
  -28.6230  -12.0548   19.9783 C   0  0  0  0  0  0  0  0  0  0  0  0
  -26.0030  -30.7067   24.7810 C   0  0  0  0  0  0  0  0  0  0  0  0
  -27.9475  -13.2426   19.3003 C   0  0  0  0  0  0  0  0  0  0  0  0
  -26.5458  -30.2117   23.4393 C   0  0  0  0  0  0  0  0  0  0  0  0
  -25.3311  -29.5830   25.5671 C   0  0  0  0  0  0  0  0  0  0  0  0
  -24.8244  -28.3589   23.4890 C   0  0  0  0  0  0  0  0  0  0  0  0
  -28.1037  -14.5178   20.1376 C   0  0  1  0  0  0  0  0  0  0  0  0
  -25.0839  -14.8349   22.4208 C   0  0  1  0  0  0  0  0  0  0  0  0
  -25.4617  -29.4687   22.6355 C   0  0  2  0  0  0  0  0  0  0  0  0
  -18.1745  -11.5618   23.6663 C   0  0  0  0  0  0  0  0  0  0  0  0
  -22.8896  -12.4778   19.1057 C   0  0  0  0  0  0  0  0  0  0  0  0
  -20.5687  -11.7282   19.6711 C   0  0  0  0  0  0  0  0  0  0  0  0
  -22.5325  -10.5789   20.6935 C   0  0  0  0  0  0  0  0  0  0  0  0
  -19.8002  -14.2991   25.7498 C   0  0  0  0  0  0  0  0  0  0  0  0
  -20.6839  -28.0899   24.7074 C   0  0  0  0  0  0  0  0  0  0  0  0
  -19.9612  -21.4882   21.3531 C   0  0  0  0  0  0  0  0  0  0  0  0
  -20.7397  -20.2074   21.1230 C   0  0  0  0  0  0  0  0  0  1  0  0
  -21.9228  -12.9096   21.4604 C   0  0  1  0  0  0  0  0  0  0  0  0
  -19.3222  -12.4204   24.1747 C   0  0  2  0  0  0  0  0  0  0  0  0
  -21.9869  -11.9501   20.2387 C   0  0  0  0  0  0  0  0  0  0  0  0
  -26.4902  -27.6850   21.2780 N   0  0  0  0  0  0  0  0  0  0  0  0
  -26.0045  -28.9373   21.3218 N   0  0  0  0  0  0  0  0  0  0  0  0
  -23.7004  -14.5258   22.0539 N   0  0  0  0  0  0  0  0  0  0  0  0
  -24.3125  -28.9202   24.7490 N   0  0  0  0  0  0  0  0  0  0  0  0
  -25.6197  -30.8615   19.9952 N   0  0  0  0  0  0  0  0  0  0  0  0
  -27.4794  -27.9473   17.0892 N   0  0  0  0  0  0  0  0  0  0  0  0
  -27.1761  -14.5098   21.2484 N   0  0  0  0  0  0  0  0  0  0  0  0
  -21.0967  -12.4227   22.5599 N   0  0  0  0  0  0  0  0  0  0  0  0
  -22.0842  -28.2229   24.3723 N   0  0  0  0  0  0  0  0  0  0  0  0
  -18.7762  -13.4039   25.1522 N   0  3  0  0  0  0  0  0  0  0  0  0
  -26.6353  -30.0673   17.3167 O   0  0  0  0  0  0  0  0  0  0  0  0
  -25.3184  -15.3594   20.1306 O   0  0  0  0  0  0  0  0  0  0  0  0
  -23.9557  -12.2495   22.4892 O   0  0  0  0  0  0  0  0  0  0  0  0
  -19.6447  -14.2301   22.6068 O   0  0  0  0  0  0  0  0  0  0  0  0
  -22.6345  -29.3521   26.2904 O   0  0  0  0  0  0  0  0  0  0  0  0
  -29.1437  -22.7570   18.2410 O   0  0  0  0  0  0  0  0  0  0  0  0
  -20.1610  -21.9189   22.6940 O   0  0  0  0  0  0  0  0  0  0  0  0
  -22.1228  -20.4507   21.3762 O   0  0  0  0  0  0  0  0  0  1  0  0
  -26.7184  -18.0526   19.7871 F   0  0  0  0  0  0  0  0  0  0  0  0
  -28.8867  -22.1061   20.9155 F   0  0  0  0  0  0  0  0  0  0  0  0
  1  2  1  0  0  0  0
  1  8  2  0  0  0  0
  2  9  2  0  0  0  0
  3  4  2  0  0  0  0
  3 11  1  0  0  0  0
  4 21  1  0  0  0  0
  5 12  2  0  0  0  0
  5 22  1  0  0  0  0
  6 13  2  0  0  0  0
  6 23  1  0  0  0  0
  7 14  1  0  0  0  0
  7 23  2  0  0  0  0
  8 25  1  0  0  0  0
  9 27  1  0  0  0  0
 10 15  2  0  0  0  0
 10 26  1  0  0  0  0
 11 29  2  0  0  0  0
 12 31  1  0  0  0  0
 13 30  1  0  0  0  0
 14 30  2  0  0  0  0
 15 32  1  0  0  0  0
 16 17  2  0  0  0  0
 16 33  1  0  0  0  0
 17 34  1  0  0  0  0
 18 21  1  0  0  0  0
 18 31  2  0  0  0  0
 19 28  1  0  0  0  0
 19 32  2  0  0  0  0
 20 34  2  0  0  0  0
 20 35  1  0  0  0  0
 21 22  2  0  0  0  0
 22 29  1  0  0  0  0
 23 36  1  0  0  0  0
 24 36  1  0  0  0  0
 24 37  2  0  0  0  0
 24 38  1  0  0  0  0
 25 27  2  0  0  0  0
 25 43  1  0  0  0  0
 26 28  2  0  0  0  0
 26 44  1  0  0  0  0
 27 52  1  0  0  0  0
 28 45  1  0  0  0  0
 29 60  1  0  0  0  0
 30 81  1  0  0  0  0
 31 82  1  0  0  0  0
 32 83  1  0  0  0  0
 33 35  2  0  0  0  0
 33 81  1  0  0  0  0
 34 84  1  0  0  0  0
 35 85  1  0  0  0  0
 36 66  2  0  0  0  0
 37 67  1  0  0  0  0
 37 70  1  0  0  0  0
 38 71  1  0  0  0  0
 38 76  2  0  0  0  0
 39 53  1  0  0  0  0
 39 72  1  0  0  0  0
 39 77  2  0  0  0  0
 40 63  1  0  0  0  0
 40 68  1  0  0  0  0
 40 78  2  0  0  0  0
 41 64  1  0  0  0  0
 41 73  1  0  0  0  0
 41 79  2  0  0  0  0
 42 69  1  0  0  0  0
 42 74  1  0  0  0  0
 42 80  2  0  0  0  0
 43 46  1  0  0  0  0
 44 53  1  0  0  0  0
 45 68  1  0  0  0  0
 46 48  1  0  0  0  0
 47 49  1  0  0  0  0
 47 50  1  0  0  0  0
 48 52  1  0  0  0  0
 49 54  1  0  0  0  0
 50 69  1  0  0  0  0
 51 54  1  0  0  0  0
 51 69  1  0  0  0  0
 52 72  1  0  0  0  0
 53 68  1  0  0  0  0
 54 67  1  0  0  0  0
 55 64  1  0  0  0  0
 56 65  1  0  0  0  0
 57 65  1  0  0  0  0
 58 65  1  0  0  0  0
 59 75  1  0  0  0  0
 60 74  1  0  0  0  0
 61 62  1  0  0  0  0
 61 82  1  0  0  0  0
 62 83  1  0  0  0  0
 63 65  1  0  0  0  0
 63 73  1  0  0  0  0
 64 75  1  0  0  0  0
 66 67  1  0  0  0  0
M  CHG  1  75   1
M  ISO  4  42 100  62 101  74 100  83 101
M  END
> <Batch ID>
0007

> <Smiles>
CNC(C)C(=O)NC(C(=O)N1Cc2cc([101O:1][101CH2:1]COc3ccc4c(C[100NH:0][100C:0](=O)N5CCCC(n6nc(-c7ccc(Oc8ccc(F)cc8F)cc7)c(C(N)=O)c6N)C5)cccc4c3)ccc2CC1C(=O)NC1CCCc2ccccc21)C(C)(C)C

> <Shape>
0.252

> <Color>
0.068

> <Negative vol penalty>
0.000

$$$$

  -OEChem-04042320323D

 83 92  0     1  0  0  0  0  0999 V2000
  -27.5490  -34.3165   25.5178 C   0  0  0  0  0  0  0  0  0  0  0  0
  -28.0726  -33.0487   25.2858 C   0  0  0  0  0  0  0  0  0  0  0  0
  -23.1626   -9.7560   19.9100 C   0  0  0  0  0  0  0  0  0  0  0  0
  -23.9124   -9.7760   22.2066 C   0  0  0  0  0  0  0  0  0  0  0  0
  -26.2331  -34.6028   25.1569 C   0  0  0  0  0  0  0  0  0  0  0  0
  -27.2802  -32.0660   24.6937 C   0  0  0  0  0  0  0  0  0  0  0  0
  -29.1225  -27.6817   20.8350 C   0  0  0  0  0  0  0  0  0  0  0  0
  -30.9477  -19.3500   20.7005 C   0  0  0  0  0  0  0  0  0  0  0  0
  -30.8454  -17.9591   20.6808 C   0  0  0  0  0  0  0  0  0  0  0  0
  -22.4747   -8.5656   20.1449 C   0  0  0  0  0  0  0  0  0  0  0  0
  -23.2244   -8.5855   22.4416 C   0  0  0  0  0  0  0  0  0  0  0  0
  -29.4390  -26.3372   21.0250 C   0  0  0  0  0  0  0  0  0  0  0  0
  -20.0366   -7.6256   23.0218 C   0  0  0  0  0  0  0  0  0  0  0  0
  -19.2780   -7.5367   24.1889 C   0  0  0  0  0  0  0  0  0  0  0  0
  -27.2010  -25.7236   20.3661 C   0  0  0  0  0  0  0  0  0  0  0  0
  -29.3027  -19.4461   22.4673 C   0  0  0  0  0  0  0  0  0  0  0  0
  -20.6093   -5.6543   24.9109 C   0  0  0  0  0  0  0  0  0  0  0  0
  -23.8815  -10.3613   20.9409 C   0  0  0  0  0  0  0  0  0  0  0  0
  -24.1006  -12.9011   20.8482 C   0  0  0  0  0  0  0  0  0  0  0  0
  -25.4271  -33.6259   24.5512 C   0  0  0  0  0  0  0  0  0  0  0  0
  -27.8375  -28.0585   20.4190 C   0  0  0  0  0  0  0  0  0  0  0  0
  -25.9518  -32.3390   24.3255 C   0  0  0  0  0  0  0  0  0  0  0  0
  -26.8715  -27.0733   20.1692 C   0  0  0  0  0  0  0  0  0  0  0  0
  -30.1764  -20.0935   21.5938 C   0  0  0  0  0  0  0  0  0  0  0  0
  -29.9717  -17.3116   21.5544 C   0  0  0  0  0  0  0  0  0  0  0  0
  -22.5056   -7.9803   21.4107 C   0  0  0  0  0  0  0  0  0  0  0  0
  -28.4773  -25.3581   20.7933 C   0  0  0  0  0  0  0  0  0  0  0  0
  -21.0815   -6.7288   22.7992 C   0  0  0  0  0  0  0  0  0  0  0  0
  -19.5643   -6.5511   25.1335 C   0  0  0  0  0  0  0  0  0  0  0  0
  -29.2004  -18.0551   22.4476 C   0  0  0  0  0  0  0  0  0  0  0  0
  -21.3679   -5.7432   23.7437 C   0  0  0  0  0  0  0  0  0  0  0  0
  -24.5927  -11.5907   20.6987 C   0  0  0  0  0  0  0  0  0  0  0  0
  -25.1564  -13.7065   20.4974 C   0  0  0  0  0  0  0  0  0  0  0  0
  -22.8049  -13.3502   21.2668 C   0  0  0  0  0  0  0  0  0  0  0  0
  -25.4986  -29.8105   21.6695 C   0  0  0  0  0  0  0  0  0  0  0  0
  -24.1193  -29.3325   18.7727 C   0  0  0  0  0  0  0  0  0  0  0  0
  -23.8767  -27.4143   15.9605 C   0  0  0  0  0  0  0  0  0  0  0  0
  -30.5646  -15.0146   20.7066 C   0  0  0  0  0  0  0  0  0  0  0  0
  -23.9957  -33.9680   24.2217 C   0  0  0  0  0  0  0  0  0  0  0  0
  -27.5200  -29.5113   20.1929 C   0  0  0  0  0  0  0  0  0  0  0  0
  -25.4834  -27.4242   19.7019 C   0  0  0  0  0  0  0  0  0  0  0  0
  -23.3405  -32.9828   23.2571 C   0  0  0  0  0  0  0  0  0  0  0  0
  -29.5780  -12.5743   18.3089 C   0  0  0  0  0  0  0  0  0  0  0  0
  -23.6263  -31.5468   23.6849 C   0  0  0  0  0  0  0  0  0  0  0  0
  -28.1526  -12.2087   18.7292 C   0  0  0  0  0  0  0  0  0  0  0  0
  -31.1393  -23.6438   21.3325 C   0  0  0  0  0  0  0  0  0  0  0  0
  -30.4762  -12.8348   19.5168 C   0  0  0  0  0  0  0  0  0  0  0  0
  -31.1624  -22.2347   20.7404 C   0  0  0  0  0  0  0  0  0  0  0  0
  -28.5310  -13.4513   20.8971 C   0  0  0  0  0  0  0  0  0  0  0  0
  -29.5082  -22.3341   22.5080 C   0  0  0  0  0  0  0  0  0  0  0  0
  -25.1313  -31.2538   23.6627 C   0  0  1  0  0  0  0  0  0  0  0  0
  -26.0265  -29.8144   20.2627 C   0  0  1  0  0  0  0  0  0  0  0  0
  -27.5723  -13.2433   19.7133 C   0  0  2  0  0  0  0  0  0  0  0  0
  -29.7600  -23.7412   21.9679 C   0  0  2  0  0  0  0  0  0  1  0  0
  -22.6355  -27.2556   13.7853 C   0  0  0  0  0  0  0  0  0  0  0  0
  -21.6615  -28.2954   20.2537 C   0  0  0  0  0  0  0  0  0  0  0  0
  -20.8730  -27.2921   18.0997 C   0  0  0  0  0  0  0  0  0  0  0  0
  -21.1558  -29.7630   18.2929 C   0  0  0  0  0  0  0  0  0  0  0  0
  -26.3705  -27.6620   14.3860 C   0  0  0  0  0  0  0  0  0  0  0  0
  -23.2046  -28.2858   18.1838 C   0  0  1  0  0  0  0  0  0  0  0  0
  -23.8776  -27.7815   14.4875 C   0  0  2  0  0  0  0  0  0  0  0  0
  -21.7492  -28.4023   18.7182 C   0  0  0  0  0  0  0  0  0  0  0  0
  -25.8624  -11.5608   20.2850 N   0  0  0  0  0  0  0  0  0  0  0  0
  -26.1769  -12.8624   20.1714 N   0  0  0  0  0  0  0  0  0  0  0  0
  -30.2780  -21.4687   21.6135 N   0  0  3  0  0  0  0  0  0  0  0  0
  -25.2196  -28.8587   19.5013 N   0  0  0  0  0  0  0  0  0  0  0  0
  -29.8644  -13.8280   20.4023 N   0  0  0  0  0  0  0  0  0  0  0  0
  -25.3021  -15.0473   20.4389 N   0  0  0  0  0  0  0  0  0  0  0  0
  -21.8371  -12.3895   21.5904 N   0  0  0  0  0  0  0  0  0  0  0  0
  -29.8698  -15.8985   21.5316 N   0  0  0  0  0  0  0  0  0  0  0  0
  -25.5836  -31.0343   22.3056 N   0  0  0  0  0  0  0  0  0  0  0  0
  -23.3210  -28.4106   16.7349 N   0  0  0  0  0  0  0  0  0  0  0  0
  -25.0769  -27.2102   13.8120 N   0  3  0  0  0  0  0  0  0  0  0  0
  -22.5089  -14.5673   21.3357 O   0  0  0  0  0  0  0  0  0  0  0  0
  -25.0463  -28.7744   22.1423 O   0  0  0  0  0  0  0  0  0  0  0  0
  -23.8709  -30.5263   18.5869 O   0  0  0  0  0  0  0  0  0  0  0  0
  -24.3210  -26.3485   16.3815 O   0  0  0  0  0  0  0  0  0  0  0  0
  -31.6859  -15.2428   20.2457 O   0  0  0  0  0  0  0  0  0  0  0  0
  -21.8343   -6.8188   21.6403 O   0  0  0  0  0  0  0  0  0  0  0  0
  -28.7834  -24.0452   20.9786 O   0  0  0  0  0  0  0  0  0  1  0  0
  -18.8367   -6.4668   26.2549 F   0  0  0  0  0  0  0  0  0  0  0  0
  -28.3571  -17.4432   23.2914 F   0  0  0  0  0  0  0  0  0  0  0  0
  -22.3713   -4.8795   23.5360 F   0  0  0  0  0  0  0  0  0  0  0  0
  1  2  1  0  0  0  0
  1  5  2  0  0  0  0
  2  6  2  0  0  0  0
  3 10  2  0  0  0  0
  3 18  1  0  0  0  0
  4 11  1  0  0  0  0
  4 18  2  0  0  0  0
  5 20  1  0  0  0  0
  6 22  1  0  0  0  0
  7 12  2  0  0  0  0
  7 21  1  0  0  0  0
  8  9  2  0  0  0  0
  8 24  1  0  0  0  0
  9 25  1  0  0  0  0
 10 26  1  0  0  0  0
 11 26  2  0  0  0  0
 12 27  1  0  0  0  0
 13 14  2  0  0  0  0
 13 28  1  0  0  0  0
 14 29  1  0  0  0  0
 15 23  1  0  0  0  0
 15 27  2  0  0  0  0
 16 24  2  0  0  0  0
 16 30  1  0  0  0  0
 17 29  2  0  0  0  0
 17 31  1  0  0  0  0
 18 32  1  0  0  0  0
 19 32  1  0  0  0  0
 19 33  2  0  0  0  0
 19 34  1  0  0  0  0
 20 22  2  0  0  0  0
 20 39  1  0  0  0  0
 21 23  2  0  0  0  0
 21 40  1  0  0  0  0
 22 51  1  0  0  0  0
 23 41  1  0  0  0  0
 24 65  1  0  0  0  0
 25 30  2  0  0  0  0
 25 70  1  0  0  0  0
 26 79  1  0  0  0  0
 27 80  1  0  0  0  0
 28 31  2  0  0  0  0
 28 79  1  0  0  0  0
 29 81  1  0  0  0  0
 30 82  1  0  0  0  0
 31 83  1  0  0  0  0
 32 63  2  0  0  0  0
 33 64  1  0  0  0  0
 33 68  1  0  0  0  0
 34 69  1  0  0  0  0
 34 74  2  0  0  0  0
 35 52  1  0  0  0  0
 35 71  1  0  0  0  0
 35 75  2  0  0  0  0
 36 60  1  0  0  0  0
 36 66  1  0  0  0  0
 36 76  2  0  0  0  0
 37 61  1  0  0  0  0
 37 72  1  0  0  0  0
 37 77  2  0  0  0  0
 38 67  1  0  0  0  0
 38 70  1  0  0  0  0
 38 78  2  0  0  0  0
 39 42  1  0  0  0  0
 40 52  1  0  0  0  0
 41 66  1  0  0  0  0
 42 44  1  0  0  0  0
 43 45  1  0  0  0  0
 43 47  1  0  0  0  0
 44 51  1  0  0  0  0
 45 53  1  0  0  0  0
 46 48  1  0  0  0  0
 46 54  1  0  0  0  0
 47 67  1  0  0  0  0
 48 65  1  0  0  0  0
 49 53  1  0  0  0  0
 49 67  1  0  0  0  0
 50 54  1  0  0  0  0
 50 65  1  0  0  0  0
 51 71  1  0  0  0  0
 52 66  1  0  0  0  0
 53 64  1  0  0  0  0
 54 80  1  0  0  0  0
 55 61  1  0  0  0  0
 56 62  1  0  0  0  0
 57 62  1  0  0  0  0
 58 62  1  0  0  0  0
 59 73  1  0  0  0  0
 60 62  1  0  0  0  0
 60 72  1  0  0  0  0
 61 73  1  0  0  0  0
 63 64  1  0  0  0  0
M  CHG  1  73   1
M  ISO  4  38 100  54 101  70 100  80 101
M  END
> <Batch ID>
0007

> <Smiles>
CNC(C)C(=O)NC(C(=O)N1Cc2cc([101O:1][101CH:1]3CCN(c4ccc([100NH:0][100C:0](=O)N5CCCC(n6nc(-c7ccc(Oc8ccc(F)cc8F)cc7)c(C(N)=O)c6N)C5)c(F)c4)C3)ccc2CC1C(=O)NC1CCCc2ccccc21)C(C)(C)C

> <Shape>
0.353

> <Color>
0.208

> <Negative vol penalty>
0.000

$$$$

  -OEChem-04042320323D

 76 83  0     1  0  0  0  0  0999 V2000
  -31.1753  -20.7749   18.2163 C   0  0  0  0  0  0  0  0  0  0  0  0
  -31.4461  -20.1985   19.2346 C   0  0  0  0  0  0  0  0  0  1  0  0
  -28.3758  -10.6092   20.5787 C   0  0  0  0  0  0  0  0  0  0  0  0
  -28.9427  -11.8372   20.2528 C   0  0  0  0  0  0  0  0  0  0  0  0
  -24.8967  -29.4258   22.1571 C   0  0  0  0  0  0  0  0  0  0  0  0
  -24.1311  -27.2575   21.4160 C   0  0  0  0  0  0  0  0  0  0  0  0
  -26.9932  -10.4963   20.7191 C   0  0  0  0  0  0  0  0  0  0  0  0
  -28.1271  -12.9527   20.0661 C   0  0  0  0  0  0  0  0  0  0  0  0
  -29.9364  -17.0881   22.3618 C   0  0  0  0  0  0  0  0  0  0  0  0
  -23.5944  -29.9170   22.0656 C   0  0  0  0  0  0  0  0  0  0  0  0
  -22.8287  -27.7486   21.3245 C   0  0  0  0  0  0  0  0  0  0  0  0
  -30.9848  -17.7582   21.7329 C   0  0  0  0  0  0  0  0  0  0  0  0
  -20.2718  -28.4296   23.4266 C   0  0  0  0  0  0  0  0  0  0  0  0
  -19.2454  -27.6412   23.9468 C   0  0  0  0  0  0  0  0  0  0  0  0
  -29.4210  -19.3762   20.8636 C   0  0  0  0  0  0  0  0  0  0  0  0
  -18.2142  -27.5435   21.7641 C   0  0  0  0  0  0  0  0  0  0  0  0
  -25.1650  -28.0961   21.8323 C   0  0  0  0  0  0  0  0  0  0  0  0
  -27.3201  -27.5341   23.0762 C   0  0  0  0  0  0  0  0  0  0  0  0
  -26.1611  -11.6131   20.5435 C   0  0  0  0  0  0  0  0  0  0  0  0
  -28.6188  -17.5515   22.2371 C   0  0  0  0  0  0  0  0  0  0  0  0
  -26.7320  -12.8543   20.2030 C   0  0  0  0  0  0  0  0  0  0  0  0
  -28.3580  -18.7116   21.4940 C   0  0  0  0  0  0  0  0  0  0  0  0
  -22.5604  -29.0784   21.6493 C   0  0  0  0  0  0  0  0  0  0  0  0
  -30.7269  -18.9008   20.9813 C   0  0  0  0  0  0  0  0  0  0  0  0
  -20.2693  -28.7751   22.0752 C   0  0  0  0  0  0  0  0  0  0  0  0
  -18.2167  -27.1981   23.1155 C   0  0  0  0  0  0  0  0  0  0  0  0
  -19.2406  -28.3320   21.2439 C   0  0  0  0  0  0  0  0  0  0  0  0
  -26.5102  -27.5883   21.9261 C   0  0  0  0  0  0  0  0  0  0  0  0
  -28.4956  -26.9716   22.6423 C   0  0  0  0  0  0  0  0  0  0  0  0
  -27.0353  -27.9546   24.4171 C   0  0  0  0  0  0  0  0  0  0  0  0
  -25.9281  -16.3644   21.0311 C   0  0  0  0  0  0  0  0  0  0  0  0
  -24.6334  -19.0587   22.2910 C   0  0  0  0  0  0  0  0  0  0  0  0
  -25.5264  -22.5461   22.5307 C   0  0  0  0  0  0  0  0  0  0  0  0
  -29.6923  -23.3369   18.1465 C   0  0  0  0  0  0  0  0  0  0  0  0
  -24.6684  -11.4316   20.6592 C   0  0  0  0  0  0  0  0  0  0  0  0
  -27.5025  -16.8325   22.9437 C   0  0  0  0  0  0  0  0  0  0  0  0
  -26.9638  -19.2618   21.3458 C   0  0  0  0  0  0  0  0  0  0  0  0
  -23.9052  -12.7447   20.8128 C   0  0  0  0  0  0  0  0  0  0  0  0
  -31.2318  -26.5585   18.7372 C   0  0  0  0  0  0  0  0  0  0  0  0
  -24.3993  -13.7711   19.7983 C   0  0  0  0  0  0  0  0  0  0  0  0
  -30.2590  -27.1811   19.7402 C   0  0  0  0  0  0  0  0  0  0  0  0
  -30.4917  -25.7335   17.6884 C   0  0  0  0  0  0  0  0  0  0  0  0
  -28.6396  -25.2892   19.2523 C   0  0  0  0  0  0  0  0  0  0  0  0
  -25.8827  -14.0929   20.0168 C   0  0  1  0  0  0  0  0  0  0  0  0
  -26.1338  -17.0998   22.3252 C   0  0  1  0  0  0  0  0  0  0  0  0
  -29.3282  -26.1175   20.3522 C   0  0  2  0  0  0  0  0  0  0  0  0
  -24.8879  -24.2808   24.2279 C   0  0  0  0  0  0  0  0  0  0  0  0
  -31.9834  -21.3157   15.9550 C   0  0  0  0  0  0  0  0  0  0  0  0
  -29.5463  -20.9135   16.3762 C   0  0  0  0  0  0  0  0  0  0  0  0
  -22.3983  -19.7386   20.3284 C   0  0  0  0  0  0  0  0  0  0  0  0
  -22.7399  -22.1557   20.8846 C   0  0  0  0  0  0  0  0  0  0  0  0
  -22.0232  -20.5580   22.6613 C   0  0  0  0  0  0  0  0  0  0  0  0
  -28.3568  -23.1869   23.1115 C   0  0  0  0  0  0  0  0  0  0  0  0
  -24.3962  -20.4642   21.7939 C   0  0  1  0  0  0  0  0  0  0  0  0
  -25.9532  -23.2910   23.7827 C   0  0  2  0  0  0  0  0  0  0  0  0
  -30.8421  -21.4829   16.9643 C   0  0  0  0  0  0  0  0  0  0  0  0
  -22.9110  -20.7133   21.4073 C   0  0  0  0  0  0  0  0  0  0  0  0
  -27.1196  -27.0994   20.8428 N   0  0  0  0  0  0  0  0  0  0  0  0
  -28.3250  -26.7327   21.3103 N   0  0  0  0  0  0  0  0  0  0  0  0
  -25.9053  -18.5198   22.0504 N   0  0  0  0  0  0  0  0  0  0  0  0
  -29.6379  -24.7277   18.3361 N   0  0  0  0  0  0  0  0  0  0  0  0
  -29.6481  -26.6631   23.2738 N   0  0  0  0  0  0  0  0  0  0  0  0
  -27.3438  -29.2716   24.7840 N   0  0  0  0  0  0  0  0  0  0  0  0
  -26.0448  -14.9918   21.1393 N   0  0  0  0  0  0  0  0  0  0  0  0
  -24.9006  -21.3553   22.8332 N   0  0  0  0  0  0  0  0  0  0  0  0
  -30.6610  -22.8872   17.2576 N   0  0  0  0  0  0  0  0  0  0  0  0
  -27.2169  -24.0407   23.5339 N   0  3  0  0  0  0  0  0  0  0  0  0
  -26.5376  -27.1804   25.2693 O   0  0  0  0  0  0  0  0  0  0  0  0
  -25.6803  -16.9955   20.0103 O   0  0  0  0  0  0  0  0  0  0  0  0
  -23.7261  -18.4635   22.8776 O   0  0  0  0  0  0  0  0  0  0  0  0
  -25.7248  -22.9793   21.3977 O   0  0  0  0  0  0  0  0  0  0  0  0
  -28.9366  -22.5527   18.7305 O   0  0  0  0  0  0  0  0  0  0  0  0
  -31.7483  -19.5565   20.3658 O   0  0  0  0  0  0  0  0  0  1  0  0
  -21.2894  -29.5572   21.5601 O   0  0  0  0  0  0  0  0  0  0  0  0
  -17.2319  -26.4397   23.6148 F   0  0  0  0  0  0  0  0  0  0  0  0
  -19.2335  -28.6597   19.9445 F   0  0  0  0  0  0  0  0  0  0  0  0
  1  2  3  0  0  0  0
  1 56  1  0  0  0  0
  2 73  1  0  0  0  0
  3  4  1  0  0  0  0
  3  7  2  0  0  0  0
  4  8  2  0  0  0  0
  5 10  2  0  0  0  0
  5 17  1  0  0  0  0
  6 11  1  0  0  0  0
  6 17  2  0  0  0  0
  7 19  1  0  0  0  0
  8 21  1  0  0  0  0
  9 12  2  0  0  0  0
  9 20  1  0  0  0  0
 10 23  1  0  0  0  0
 11 23  2  0  0  0  0
 12 24  1  0  0  0  0
 13 14  2  0  0  0  0
 13 25  1  0  0  0  0
 14 26  1  0  0  0  0
 15 22  1  0  0  0  0
 15 24  2  0  0  0  0
 16 26  2  0  0  0  0
 16 27  1  0  0  0  0
 17 28  1  0  0  0  0
 18 28  1  0  0  0  0
 18 29  2  0  0  0  0
 18 30  1  0  0  0  0
 19 21  2  0  0  0  0
 19 35  1  0  0  0  0
 20 22  2  0  0  0  0
 20 36  1  0  0  0  0
 21 44  1  0  0  0  0
 22 37  1  0  0  0  0
 23 74  1  0  0  0  0
 24 73  1  0  0  0  0
 25 27  2  0  0  0  0
 25 74  1  0  0  0  0
 26 75  1  0  0  0  0
 27 76  1  0  0  0  0
 28 58  2  0  0  0  0
 29 59  1  0  0  0  0
 29 62  1  0  0  0  0
 30 63  1  0  0  0  0
 30 68  2  0  0  0  0
 31 45  1  0  0  0  0
 31 64  1  0  0  0  0
 31 69  2  0  0  0  0
 32 54  1  0  0  0  0
 32 60  1  0  0  0  0
 32 70  2  0  0  0  0
 33 55  1  0  0  0  0
 33 65  1  0  0  0  0
 33 71  2  0  0  0  0
 34 61  1  0  0  0  0
 34 66  1  0  0  0  0
 34 72  2  0  0  0  0
 35 38  1  0  0  0  0
 36 45  1  0  0  0  0
 37 60  1  0  0  0  0
 38 40  1  0  0  0  0
 39 41  1  0  0  0  0
 39 42  1  0  0  0  0
 40 44  1  0  0  0  0
 41 46  1  0  0  0  0
 42 61  1  0  0  0  0
 43 46  1  0  0  0  0
 43 61  1  0  0  0  0
 44 64  1  0  0  0  0
 45 60  1  0  0  0  0
 46 59  1  0  0  0  0
 47 55  1  0  0  0  0
 48 56  1  0  0  0  0
 49 56  1  0  0  0  0
 50 57  1  0  0  0  0
 51 57  1  0  0  0  0
 52 57  1  0  0  0  0
 53 67  1  0  0  0  0
 54 57  1  0  0  0  0
 54 65  1  0  0  0  0
 55 67  1  0  0  0  0
 56 66  1  0  0  0  0
 58 59  1  0  0  0  0
M  CHG  1  67   1
M  ISO  4   2 101  34 100  66 100  73 101
M  END
> <Batch ID>
0007

> <Smiles>
CNC(C)C(=O)NC(C(=O)N1Cc2cc([101O:1][101C:1]#CC(C)(C)[100NH:0][100C:0](=O)N3CCCC(n4nc(-c5ccc(Oc6ccc(F)cc6F)cc5)c(C(N)=O)c4N)C3)ccc2CC1C(=O)NC1CCCc2ccccc21)C(C)(C)C

> <Shape>
0.223

> <Color>
0.061

> <Negative vol penalty>
0.000

$$$$

  -OEChem-04042320323D

 73 80  0     1  0  0  0  0  0999 V2000
  -28.7807  -11.4027   19.8413 C   0  0  0  0  0  0  0  0  0  0  0  0
  -28.8747  -12.6791   19.2960 C   0  0  0  0  0  0  0  0  0  0  0  0
  -25.9114  -28.9143   20.8188 C   0  0  0  0  0  0  0  0  0  0  0  0
  -25.2447  -26.5922   20.8056 C   0  0  0  0  0  0  0  0  0  0  0  0
  -27.5741  -10.9659   20.3863 C   0  0  0  0  0  0  0  0  0  0  0  0
  -27.7616  -13.5191   19.2943 C   0  0  0  0  0  0  0  0  0  0  0  0
  -28.8908  -18.2435   20.7261 C   0  0  0  0  0  0  0  0  0  0  0  0
  -24.5811  -29.2972   20.6476 C   0  0  0  0  0  0  0  0  0  0  0  0
  -23.9144  -26.9751   20.6344 C   0  0  0  0  0  0  0  0  0  0  0  0
  -29.5037  -19.0657   19.7816 C   0  0  0  0  0  0  0  0  0  0  0  0
  -20.2991  -27.3512   20.5553 C   0  0  0  0  0  0  0  0  0  0  0  0
  -19.3346  -26.7145   21.3363 C   0  0  0  0  0  0  0  0  0  0  0  0
  -27.3782  -20.1087   19.3193 C   0  0  0  0  0  0  0  0  0  0  0  0
  -20.4277  -27.5133   23.3374 C   0  0  0  0  0  0  0  0  0  0  0  0
  -26.2432  -27.5618   20.8978 C   0  0  0  0  0  0  0  0  0  0  0  0
  -28.2943  -26.9641   22.2918 C   0  0  0  0  0  0  0  0  0  0  0  0
  -26.4483  -11.8044   20.4000 C   0  0  0  0  0  0  0  0  0  0  0  0
  -27.5128  -18.3403   20.9669 C   0  0  0  0  0  0  0  0  0  0  0  0
  -26.5384  -13.0925   19.8388 C   0  0  0  0  0  0  0  0  0  0  0  0
  -26.7507  -19.2883   20.2692 C   0  0  0  0  0  0  0  0  0  0  0  0
  -23.5826  -28.3276   20.5554 C   0  0  0  0  0  0  0  0  0  0  0  0
  -28.7469  -19.9965   19.0760 C   0  0  0  0  0  0  0  0  0  0  0  0
  -21.3280  -28.0688   21.1653 C   0  0  0  0  0  0  0  0  0  0  0  0
  -19.3988  -26.7956   22.7274 C   0  0  0  0  0  0  0  0  0  0  0  0
  -21.3923  -28.1499   22.5564 C   0  0  0  0  0  0  0  0  0  0  0  0
  -27.6173  -27.1656   21.0741 C   0  0  0  0  0  0  0  0  0  0  0  0
  -29.5659  -26.6003   21.9215 C   0  0  0  0  0  0  0  0  0  0  0  0
  -27.8165  -27.0941   23.6374 C   0  0  0  0  0  0  0  0  0  0  0  0
  -25.0394  -16.3661   20.6693 C   0  0  0  0  0  0  0  0  0  0  0  0
  -23.4301  -18.7916   22.1009 C   0  0  0  0  0  0  0  0  0  0  0  0
  -23.2352  -22.1273   22.7949 C   0  0  0  0  0  0  0  0  0  0  0  0
  -31.8053  -24.0606   16.9833 C   0  0  0  0  0  0  0  0  0  0  0  0
  -25.1525  -11.2708   20.9575 C   0  0  0  0  0  0  0  0  0  0  0  0
  -26.8716  -17.4645   22.0082 C   0  0  0  0  0  0  0  0  0  0  0  0
  -25.2716  -19.4460   20.5052 C   0  0  0  0  0  0  0  0  0  0  0  0
  -24.1234  -12.3586   21.2544 C   0  0  0  0  0  0  0  0  0  0  0  0
  -32.7528  -27.1859   18.4013 C   0  0  0  0  0  0  0  0  0  0  0  0
  -24.0228  -13.3319   20.0842 C   0  0  0  0  0  0  0  0  0  0  0  0
  -31.6052  -27.5169   19.3570 C   0  0  0  0  0  0  0  0  0  0  0  0
  -32.2517  -26.4924   17.1365 C   0  0  0  0  0  0  0  0  0  0  0  0
  -30.2768  -25.6255   18.3290 C   0  0  0  0  0  0  0  0  0  0  0  0
  -25.3600  -14.0420   19.8407 C   0  0  1  0  0  0  0  0  0  0  0  0
  -25.3693  -17.2948   21.8034 C   0  0  1  0  0  0  0  0  0  0  0  0
  -30.7390  -26.2758   19.6442 C   0  0  2  0  0  0  0  0  0  0  0  0
  -21.7856  -23.8170   23.9528 C   0  0  0  0  0  0  0  0  0  0  0  0
  -21.4554  -18.6861   19.7772 C   0  0  0  0  0  0  0  0  0  0  0  0
  -20.6243  -20.9432   20.4723 C   0  0  0  0  0  0  0  0  0  0  0  0
  -20.4056  -19.0030   22.0249 C   0  0  0  0  0  0  0  0  0  0  0  0
  -25.3980  -22.8660   24.6752 C   0  0  0  0  0  0  0  0  0  0  0  0
  -31.2354  -21.6456   16.9357 C   0  0  0  0  0  0  0  0  0  0  0  0
  -30.7465  -20.6355   17.9583 C   0  0  0  0  0  0  0  0  0  1  0  0
  -22.6870  -20.0136   21.6176 C   0  0  1  0  0  0  0  0  0  0  0  0
  -22.9697  -22.8728   24.0904 C   0  0  2  0  0  0  0  0  0  0  0  0
  -21.3206  -19.6574   20.9669 C   0  0  0  0  0  0  0  0  0  0  0  0
  -28.3944  -26.9480   20.0099 N   0  0  0  0  0  0  0  0  0  0  0  0
  -29.5730  -26.6061   20.5576 N   0  0  0  0  0  0  0  0  0  0  0  0
  -24.6895  -18.5623   21.5289 N   0  0  0  0  0  0  0  0  0  0  0  0
  -31.4385  -25.3228   17.4784 N   0  0  0  0  0  0  0  0  0  0  0  0
  -30.6675  -26.2792   22.6327 N   0  0  0  0  0  0  0  0  0  0  0  0
  -26.4833  -27.4765   23.8389 N   0  0  0  0  0  0  0  0  0  0  0  0
  -25.5584  -15.0937   20.8148 N   0  0  0  0  0  0  0  0  0  0  0  0
  -22.5873  -20.9105   22.7639 N   0  0  0  0  0  0  0  0  0  0  0  0
  -30.9843  -23.0048   17.3602 N   0  0  0  0  0  0  0  0  0  0  0  0
  -24.1650  -23.6719   24.4825 N   0  3  0  0  0  0  0  0  0  0  0  0
  -28.5547  -26.8935   24.6315 O   0  0  0  0  0  0  0  0  0  0  0  0
  -24.3627  -16.7733   19.7323 O   0  0  0  0  0  0  0  0  0  0  0  0
  -22.9152  -18.0710   22.9596 O   0  0  0  0  0  0  0  0  0  0  0  0
  -23.9432  -22.5808   21.8985 O   0  0  0  0  0  0  0  0  0  0  0  0
  -32.7944  -23.8864   16.2633 O   0  0  0  0  0  0  0  0  0  0  0  0
  -22.2844  -28.7009   20.3885 O   0  0  0  0  0  0  0  0  0  0  0  0
  -29.3424  -20.7999   18.1530 O   0  0  0  0  0  0  0  0  0  1  0  0
  -18.4716  -26.1855   23.4772 F   0  0  0  0  0  0  0  0  0  0  0  0
  -22.3777  -28.8388   23.1481 F   0  0  0  0  0  0  0  0  0  0  0  0
  1  2  1  0  0  0  0
  1  5  2  0  0  0  0
  2  6  2  0  0  0  0
  3  8  2  0  0  0  0
  3 15  1  0  0  0  0
  4  9  1  0  0  0  0
  4 15  2  0  0  0  0
  5 17  1  0  0  0  0
  6 19  1  0  0  0  0
  7 10  2  0  0  0  0
  7 18  1  0  0  0  0
  8 21  1  0  0  0  0
  9 21  2  0  0  0  0
 10 22  1  0  0  0  0
 11 12  2  0  0  0  0
 11 23  1  0  0  0  0
 12 24  1  0  0  0  0
 13 20  1  0  0  0  0
 13 22  2  0  0  0  0
 14 24  2  0  0  0  0
 14 25  1  0  0  0  0
 15 26  1  0  0  0  0
 16 26  1  0  0  0  0
 16 27  2  0  0  0  0
 16 28  1  0  0  0  0
 17 19  2  0  0  0  0
 17 33  1  0  0  0  0
 18 20  2  0  0  0  0
 18 34  1  0  0  0  0
 19 42  1  0  0  0  0
 20 35  1  0  0  0  0
 21 70  1  0  0  0  0
 22 71  1  0  0  0  0
 23 25  2  0  0  0  0
 23 70  1  0  0  0  0
 24 72  1  0  0  0  0
 25 73  1  0  0  0  0
 26 55  2  0  0  0  0
 27 56  1  0  0  0  0
 27 59  1  0  0  0  0
 28 60  1  0  0  0  0
 28 65  2  0  0  0  0
 29 43  1  0  0  0  0
 29 61  1  0  0  0  0
 29 66  2  0  0  0  0
 30 52  1  0  0  0  0
 30 57  1  0  0  0  0
 30 67  2  0  0  0  0
 31 53  1  0  0  0  0
 31 62  1  0  0  0  0
 31 68  2  0  0  0  0
 32 58  1  0  0  0  0
 32 63  1  0  0  0  0
 32 69  2  0  0  0  0
 33 36  1  0  0  0  0
 34 43  1  0  0  0  0
 35 57  1  0  0  0  0
 36 38  1  0  0  0  0
 37 39  1  0  0  0  0
 37 40  1  0  0  0  0
 38 42  1  0  0  0  0
 39 44  1  0  0  0  0
 40 58  1  0  0  0  0
 41 44  1  0  0  0  0
 41 58  1  0  0  0  0
 42 61  1  0  0  0  0
 43 57  1  0  0  0  0
 44 56  1  0  0  0  0
 45 53  1  0  0  0  0
 46 54  1  0  0  0  0
 47 54  1  0  0  0  0
 48 54  1  0  0  0  0
 49 64  1  0  0  0  0
 50 51  1  0  0  0  0
 50 63  1  0  0  0  0
 51 71  1  0  0  0  0
 52 54  1  0  0  0  0
 52 62  1  0  0  0  0
 53 64  1  0  0  0  0
 55 56  1  0  0  0  0
M  CHG  1  64   1
M  ISO  4  32 100  51 101  63 100  71 101
M  END
> <Batch ID>
0007

> <Smiles>
CNC(C)C(=O)NC(C(=O)N1Cc2cc([101O:1][101CH2:1]C[100NH:0][100C:0](=O)N3CCCC(n4nc(-c5ccc(Oc6ccc(F)cc6F)cc5)c(C(N)=O)c4N)C3)ccc2CC1C(=O)NC1CCCc2ccccc21)C(C)(C)C

> <Shape>
0.226

> <Color>
0.066

> <Negative vol penalty>
0.000

$$$$

  -OEChem-04042320323D

 81 90  0     1  0  0  0  0  0999 V2000
  -25.7370  -10.9413   20.2905 C   0  0  0  0  0  0  0  0  0  0  0  0
  -26.6299  -11.8649   19.7566 C   0  0  0  0  0  0  0  0  0  0  0  0
  -21.3600  -24.8511   22.4853 C   0  0  0  0  0  0  0  0  0  0  0  0
  -19.6835  -26.0044   21.1828 C   0  0  0  0  0  0  0  0  0  0  0  0
  -24.5222  -11.3738   20.8207 C   0  0  0  0  0  0  0  0  0  0  0  0
  -26.3080  -13.2217   19.7516 C   0  0  0  0  0  0  0  0  0  0  0  0
  -29.3554  -19.6844   20.2645 C   0  0  0  0  0  0  0  0  0  0  0  0
  -20.3570  -24.2636   23.2562 C   0  0  0  0  0  0  0  0  0  0  0  0
  -18.6804  -25.4167   21.9537 C   0  0  0  0  0  0  0  0  0  0  0  0
  -29.4085  -20.9063   19.5953 C   0  0  0  0  0  0  0  0  0  0  0  0
  -18.3385  -25.1560   25.8162 C   0  0  0  0  0  0  0  0  0  0  0  0
  -18.5108  -25.1409   27.2002 C   0  0  0  0  0  0  0  0  0  0  0  0
  -27.3157  -21.5463   20.6102 C   0  0  0  0  0  0  0  0  0  0  0  0
  -18.4232  -22.7265   27.1849 C   0  0  0  0  0  0  0  0  0  0  0  0
  -21.0233  -25.7216   21.4487 C   0  0  0  0  0  0  0  0  0  0  0  0
  -22.6293  -25.8227   19.4693 C   0  0  0  0  0  0  0  0  0  0  0  0
  -24.1895  -12.7376   20.8310 C   0  0  0  0  0  0  0  0  0  0  0  0
  -28.2748  -19.3793   21.1045 C   0  0  0  0  0  0  0  0  0  0  0  0
  -25.0870  -13.6728   20.2812 C   0  0  0  0  0  0  0  0  0  0  0  0
  -27.2525  -20.3209   21.2909 C   0  0  0  0  0  0  0  0  0  0  0  0
  -19.0172  -24.5463   22.9904 C   0  0  0  0  0  0  0  0  0  0  0  0
  -28.3872  -21.8363   19.7658 C   0  0  0  0  0  0  0  0  0  0  0  0
  -18.2084  -23.9563   25.1164 C   0  0  0  0  0  0  0  0  0  0  0  0
  -18.5532  -23.9262   27.8846 C   0  0  0  0  0  0  0  0  0  0  0  0
  -18.2508  -22.7416   25.8008 C   0  0  0  0  0  0  0  0  0  0  0  0
  -22.0590  -26.3294   20.6524 C   0  0  0  0  0  0  0  0  0  0  0  0
  -23.5594  -26.7655   19.1053 C   0  0  0  0  0  0  0  0  0  0  0  0
  -29.6781  -27.4063   21.1875 C   0  0  0  0  0  0  0  0  0  0  0  0
  -28.7521  -28.3743   21.2173 C   0  0  0  0  0  0  0  0  0  0  0  0
  -22.3438  -24.6084   18.7624 C   0  0  0  0  0  0  0  0  0  0  0  0
  -26.0091  -17.1500   21.1248 C   0  0  0  0  0  0  0  0  0  0  0  0
  -25.2784  -18.4723   23.9954 C   0  0  0  0  0  0  0  0  0  0  0  0
  -25.3985  -21.1994   26.0437 C   0  0  0  0  0  0  0  0  0  0  0  0
  -27.5909  -30.2997   20.2126 C   0  0  0  0  0  0  0  0  0  0  0  0
  -22.8442  -13.1525   21.3721 C   0  0  0  0  0  0  0  0  0  0  0  0
  -28.2456  -18.0677   21.8401 C   0  0  0  0  0  0  0  0  0  0  0  0
  -26.0807  -20.0501   22.1975 C   0  0  0  0  0  0  0  0  0  0  0  0
  -22.7413  -14.6464   21.6684 C   0  0  0  0  0  0  0  0  0  0  0  0
  -24.3849  -31.4407   20.8319 C   0  0  0  0  0  0  0  0  0  0  0  0
  -23.2988  -15.4610   20.5054 C   0  0  0  0  0  0  0  0  0  0  0  0
  -23.5256  -30.1792   20.7475 C   0  0  0  0  0  0  0  0  0  0  0  0
  -25.6969  -31.1605   21.5561 C   0  0  0  0  0  0  0  0  0  0  0  0
  -29.5971  -29.3420   19.1371 C   0  0  0  0  0  0  0  0  0  0  0  0
  -25.6519  -28.7887   20.8573 C   0  0  0  0  0  0  0  0  0  0  0  0
  -30.5746  -25.7422   19.5132 C   0  0  0  0  0  0  0  0  0  0  0  0
  -29.1398  -27.0769   18.0560 C   0  0  0  0  0  0  0  0  0  0  0  0
  -24.7846  -15.1555   20.2801 C   0  0  1  0  0  0  0  0  0  0  0  0
  -30.5911  -27.1791   20.0141 C   0  0  1  0  0  0  0  0  0  0  0  0
  -26.8413  -17.6545   22.2696 C   0  0  1  0  0  0  0  0  0  0  0  0
  -30.1574  -27.9681   18.7757 C   0  0  2  0  0  0  0  0  0  0  0  0
  -24.3149  -29.0149   20.1233 C   0  0  1  0  0  0  0  0  0  0  0  0
  -24.6832  -21.9897   28.3155 C   0  0  0  0  0  0  0  0  0  0  0  0
  -22.4156  -18.7781   22.9849 C   0  0  0  0  0  0  0  0  0  0  0  0
  -22.0004  -20.3867   24.8579 C   0  0  0  0  0  0  0  0  0  0  0  0
  -22.6081  -18.0201   25.3604 C   0  0  0  0  0  0  0  0  0  0  0  0
  -28.1957  -21.6691   26.8887 C   0  0  0  0  0  0  0  0  0  0  0  0
  -29.4199  -24.6074   17.5817 C   0  0  0  0  0  0  0  0  0  0  0  0
  -29.5617  -23.2641   18.2698 C   0  0  0  0  0  0  0  0  0  1  0  0
  -24.3742  -19.5887   24.4590 C   0  0  1  0  0  0  0  0  0  0  0  0
  -25.7957  -21.3476   27.5013 C   0  0  2  0  0  0  0  0  0  0  0  0
  -22.8706  -19.1980   24.3969 C   0  0  0  0  0  0  0  0  0  0  0  0
  -22.5830  -27.5029   21.0160 N   0  0  0  0  0  0  0  0  0  0  0  0
  -23.4925  -27.7414   20.0557 N   0  0  0  0  0  0  0  0  0  0  0  0
  -28.5627  -29.2809   20.1822 N   0  0  0  0  0  0  0  0  0  0  0  0
  -26.0945  -18.7508   22.8898 N   0  0  0  0  0  0  0  0  0  0  0  0
  -26.4138  -30.0458   20.9364 N   0  0  0  0  0  0  0  0  0  0  0  0
  -24.4199  -26.8466   18.0682 N   0  0  0  0  0  0  0  0  0  0  0  0
  -21.3587  -23.7530   19.2745 N   0  0  0  0  0  0  0  0  0  0  0  0
  -25.5959  -15.8388   21.2646 N   0  0  0  0  0  0  0  0  0  0  0  0
  -24.8394  -19.9648   25.7896 N   0  0  0  0  0  0  0  0  0  0  0  0
  -29.3627  -25.6866   18.6137 N   0  3  1  0  0  0  0  0  0  0  0  0
  -27.0157  -22.1949   27.6222 N   0  3  0  0  0  0  0  0  0  0  0  0
  -22.9560  -24.2833   17.7169 O   0  0  0  0  0  0  0  0  0  0  0  0
  -25.7590  -17.8955   20.1850 O   0  0  0  0  0  0  0  0  0  0  0  0
  -25.2665  -17.3952   24.5965 O   0  0  0  0  0  0  0  0  0  0  0  0
  -25.5641  -22.0910   25.2142 O   0  0  0  0  0  0  0  0  0  0  0  0
  -27.7666  -31.3712   19.6180 O   0  0  0  0  0  0  0  0  0  0  0  0
  -18.0382  -23.9729   23.7422 O   0  0  0  0  0  0  0  0  0  0  0  0
  -28.4366  -23.0381   19.1085 O   0  0  0  0  0  0  0  0  0  1  0  0
  -18.7203  -23.9118   29.2135 F   0  0  0  0  0  0  0  0  0  0  0  0
  -18.1276  -21.5859   25.1338 F   0  0  0  0  0  0  0  0  0  0  0  0
  1  2  1  0  0  0  0
  1  5  2  0  0  0  0
  2  6  2  0  0  0  0
  3  8  2  0  0  0  0
  3 15  1  0  0  0  0
  4  9  1  0  0  0  0
  4 15  2  0  0  0  0
  5 17  1  0  0  0  0
  6 19  1  0  0  0  0
  7 10  2  0  0  0  0
  7 18  1  0  0  0  0
  8 21  1  0  0  0  0
  9 21  2  0  0  0  0
 10 22  1  0  0  0  0
 11 12  2  0  0  0  0
 11 23  1  0  0  0  0
 12 24  1  0  0  0  0
 13 20  1  0  0  0  0
 13 22  2  0  0  0  0
 14 24  2  0  0  0  0
 14 25  1  0  0  0  0
 15 26  1  0  0  0  0
 16 26  1  0  0  0  0
 16 27  2  0  0  0  0
 16 30  1  0  0  0  0
 17 19  2  0  0  0  0
 17 35  1  0  0  0  0
 18 20  2  0  0  0  0
 18 36  1  0  0  0  0
 19 47  1  0  0  0  0
 20 37  1  0  0  0  0
 21 78  1  0  0  0  0
 22 79  1  0  0  0  0
 23 25  2  0  0  0  0
 23 78  1  0  0  0  0
 24 80  1  0  0  0  0
 25 81  1  0  0  0  0
 26 62  2  0  0  0  0
 27 63  1  0  0  0  0
 27 67  1  0  0  0  0
 28 29  2  0  0  0  0
 28 48  1  0  0  0  0
 29 64  1  0  0  0  0
 30 68  1  0  0  0  0
 30 73  2  0  0  0  0
 31 49  1  0  0  0  0
 31 69  1  0  0  0  0
 31 74  2  0  0  0  0
 32 59  1  0  0  0  0
 32 65  1  0  0  0  0
 32 75  2  0  0  0  0
 33 60  1  0  0  0  0
 33 70  1  0  0  0  0
 33 76  2  0  0  0  0
 34 64  1  0  0  0  0
 34 66  1  0  0  0  0
 34 77  2  0  0  0  0
 35 38  1  0  0  0  0
 36 49  1  0  0  0  0
 37 65  1  0  0  0  0
 38 40  1  0  0  0  0
 39 41  1  0  0  0  0
 39 42  1  0  0  0  0
 40 47  1  0  0  0  0
 41 51  1  0  0  0  0
 42 66  1  0  0  0  0
 43 50  1  0  0  0  0
 43 64  1  0  0  0  0
 44 51  1  0  0  0  0
 44 66  1  0  0  0  0
 45 48  1  0  0  0  0
 45 71  1  0  0  0  0
 46 50  1  0  0  0  0
 46 71  1  0  0  0  0
 47 69  1  0  0  0  0
 48 50  1  0  0  0  0
 49 65  1  0  0  0  0
 51 63  1  0  0  0  0
 52 60  1  0  0  0  0
 53 61  1  0  0  0  0
 54 61  1  0  0  0  0
 55 61  1  0  0  0  0
 56 72  1  0  0  0  0
 57 58  1  0  0  0  0
 57 71  1  0  0  0  0
 58 79  1  0  0  0  0
 59 61  1  0  0  0  0
 59 70  1  0  0  0  0
 60 72  1  0  0  0  0
 62 63  1  0  0  0  0
M  CHG  2  71   1  72   1
M  ISO  4  34 100  58 101  64 100  79 101
M  END
> <Batch ID>
0007

> <Smiles>
CNC(C)C(=O)NC(C(=O)N1Cc2cc([101O:1][101CH2:1]CN3CC4C=C[100N:0]([100C:0](=O)N5CCCC(n6nc(-c7ccc(Oc8ccc(F)cc8F)cc7)c(C(N)=O)c6N)C5)CC4C3)ccc2CC1C(=O)NC1CCCc2ccccc21)C(C)(C)C

> <Shape>
0.207

> <Color>
0.050

> <Negative vol penalty>
0.000

$$$$

  -OEChem-04042320323D

 83 92  0     1  0  0  0  0  0999 V2000
  -26.5745  -34.0133   26.8363 C   0  0  0  0  0  0  0  0  0  0  0  0
  -27.1208  -32.9181   26.1749 C   0  0  0  0  0  0  0  0  0  0  0  0
  -23.6398   -9.7307   20.0191 C   0  0  0  0  0  0  0  0  0  0  0  0
  -24.2297  -10.0211   22.3439 C   0  0  0  0  0  0  0  0  0  0  0  0
  -25.1910  -34.1308   26.9628 C   0  0  0  0  0  0  0  0  0  0  0  0
  -26.2839  -31.9391   25.6406 C   0  0  0  0  0  0  0  0  0  0  0  0
  -27.1941  -28.7156   20.5135 C   0  0  0  0  0  0  0  0  0  0  0  0
  -29.7335  -20.4977   20.5054 C   0  0  0  0  0  0  0  0  0  0  0  0
  -27.9863  -20.4327   22.1727 C   0  0  0  0  0  0  0  0  0  0  0  0
  -29.8571  -19.1104   20.5807 C   0  0  0  0  0  0  0  0  0  0  0  0
  -28.1098  -19.0453   22.2480 C   0  0  0  0  0  0  0  0  0  0  0  0
  -23.1361   -8.4619   20.3054 C   0  0  0  0  0  0  0  0  0  0  0  0
  -23.7260   -8.7523   22.6302 C   0  0  0  0  0  0  0  0  0  0  0  0
  -27.6932  -27.4336   20.2878 C   0  0  0  0  0  0  0  0  0  0  0  0
  -20.7006   -7.3259   23.1129 C   0  0  0  0  0  0  0  0  0  0  0  0
  -19.8932   -7.1905   24.2422 C   0  0  0  0  0  0  0  0  0  0  0  0
  -25.4397  -26.5763   20.2104 C   0  0  0  0  0  0  0  0  0  0  0  0
  -21.4579   -5.6006   25.1702 C   0  0  0  0  0  0  0  0  0  0  0  0
  -24.1867  -10.5103   21.0384 C   0  0  0  0  0  0  0  0  0  0  0  0
  -24.0053  -13.0406   20.7693 C   0  0  0  0  0  0  0  0  0  0  0  0
  -24.3363  -33.1577   26.4213 C   0  0  0  0  0  0  0  0  0  0  0  0
  -25.8119  -28.9362   20.6004 C   0  0  0  0  0  0  0  0  0  0  0  0
  -24.8877  -32.0430   25.7611 C   0  0  0  0  0  0  0  0  0  0  0  0
  -24.9255  -27.8625   20.4347 C   0  0  0  0  0  0  0  0  0  0  0  0
  -28.7981  -21.1589   21.3014 C   0  0  0  0  0  0  0  0  0  0  0  0
  -29.0453  -18.3842   21.4520 C   0  0  0  0  0  0  0  0  0  0  0  0
  -23.1791   -7.9727   21.6109 C   0  0  0  0  0  0  0  0  0  0  0  0
  -26.8162  -26.3632   20.1390 C   0  0  0  0  0  0  0  0  0  0  0  0
  -21.8866   -6.5986   23.0122 C   0  0  0  0  0  0  0  0  0  0  0  0
  -20.2718   -6.3279   25.2709 C   0  0  0  0  0  0  0  0  0  0  0  0
  -22.2653   -5.7360   24.0408 C   0  0  0  0  0  0  0  0  0  0  0  0
  -24.7077  -11.8209   20.7432 C   0  0  0  0  0  0  0  0  0  0  0  0
  -24.9400  -13.9827   20.4153 C   0  0  0  0  0  0  0  0  0  0  0  0
  -28.9190  -23.3813   20.0950 C   0  0  0  0  0  0  0  0  0  0  0  0
  -22.6309  -13.2990   21.0853 C   0  0  0  0  0  0  0  0  0  0  0  0
  -23.8484  -30.0029   22.8610 C   0  0  0  0  0  0  0  0  0  0  0  0
  -21.6478  -29.8331   20.4838 C   0  0  0  0  0  0  0  0  0  0  0  0
  -20.6912  -28.4484   17.5149 C   0  0  0  0  0  0  0  0  0  0  0  0
  -30.0477  -16.1643   20.8089 C   0  0  0  0  0  0  0  0  0  0  0  0
  -22.8490  -33.3038   26.6244 C   0  0  0  0  0  0  0  0  0  0  0  0
  -25.2886  -30.3295   20.8177 C   0  0  0  0  0  0  0  0  0  0  0  0
  -23.4324  -28.0497   20.4992 C   0  0  0  0  0  0  0  0  0  0  0  0
  -22.0182  -32.4140   25.7033 C   0  0  0  0  0  0  0  0  0  0  0  0
  -29.6150  -13.4460   18.5504 C   0  0  0  0  0  0  0  0  0  0  0  0
  -22.5766  -30.9946   25.6861 C   0  0  0  0  0  0  0  0  0  0  0  0
  -28.2420  -12.8812   18.9217 C   0  0  0  0  0  0  0  0  0  0  0  0
  -28.5390  -24.7979   21.9868 C   0  0  0  0  0  0  0  0  0  0  0  0
  -30.3821  -13.9268   19.7809 C   0  0  0  0  0  0  0  0  0  0  0  0
  -28.1716  -23.3672   22.3348 C   0  0  0  0  0  0  0  0  0  0  0  0
  -28.2801  -14.3065   21.0083 C   0  0  0  0  0  0  0  0  0  0  0  0
  -24.0118  -30.9729   25.1464 C   0  0  1  0  0  0  0  0  0  0  0  0
  -28.5665  -24.8051   20.4688 C   0  0  2  0  0  0  0  0  0  1  0  0
  -23.8789  -30.3542   21.4004 C   0  0  1  0  0  0  0  0  0  0  0  0
  -27.4436  -13.8690   19.7949 C   0  0  2  0  0  0  0  0  0  0  0  0
  -18.8252  -28.4795   15.8373 C   0  0  0  0  0  0  0  0  0  0  0  0
  -19.9382  -28.1371   22.3576 C   0  0  0  0  0  0  0  0  0  0  0  0
  -18.5917  -27.4244   20.3709 C   0  0  0  0  0  0  0  0  0  0  0  0
  -18.6643  -29.8296   21.0284 C   0  0  0  0  0  0  0  0  0  0  0  0
  -22.4855  -29.4034   15.3638 C   0  0  0  0  0  0  0  0  0  0  0  0
  -20.7039  -28.7706   19.9746 C   0  0  1  0  0  0  0  0  0  0  0  0
  -20.1678  -29.0733   16.2342 C   0  0  2  0  0  0  0  0  0  0  0  0
  -19.5027  -28.5363   20.9335 C   0  0  0  0  0  0  0  0  0  0  0  0
  -25.9896  -11.9713   20.3996 N   0  0  0  0  0  0  0  0  0  0  0  0
  -26.1001  -13.2967   20.2065 N   0  0  0  0  0  0  0  0  0  0  0  0
  -28.6718  -22.5785   21.2247 N   0  0  0  0  0  0  0  0  0  0  0  0
  -22.9698  -29.4298   20.7198 N   0  0  0  0  0  0  0  0  0  0  0  0
  -29.5655  -14.8624   20.5572 N   0  0  0  0  0  0  0  0  0  0  0  0
  -24.8744  -15.3227   20.2653 N   0  0  0  0  0  0  0  0  0  0  0  0
  -21.8093  -12.2165   21.4282 N   0  0  0  0  0  0  0  0  0  0  0  0
  -29.1706  -16.9749   21.5287 N   0  0  0  0  0  0  0  0  0  0  0  0
  -24.0110  -31.0859   23.7036 N   0  0  0  0  0  0  0  0  0  0  0  0
  -20.3219  -29.1762   18.6263 N   0  0  0  0  0  0  0  0  0  0  0  0
  -21.1293  -28.8492   15.1179 N   0  3  0  0  0  0  0  0  0  0  0  0
  -29.2825  -23.0669   18.9707 O   0  0  0  0  0  0  0  0  0  0  0  0
  -22.1417  -14.4535   21.0483 O   0  0  0  0  0  0  0  0  0  0  0  0
  -23.6876  -28.8359   23.1985 O   0  0  0  0  0  0  0  0  0  0  0  0
  -21.2295  -30.9802   20.6586 O   0  0  0  0  0  0  0  0  0  0  0  0
  -21.3576  -27.4159   17.5283 O   0  0  0  0  0  0  0  0  0  0  0  0
  -31.1456  -16.5417   20.3914 O   0  0  0  0  0  0  0  0  0  0  0  0
  -22.6875   -6.7347   21.8907 O   0  0  0  0  0  0  0  0  0  0  0  0
  -27.3008  -25.1107   19.9193 O   0  0  0  0  0  0  0  0  0  1  0  0
  -19.4972   -6.1991   26.3560 F   0  0  0  0  0  0  0  0  0  0  0  0
  -23.4041   -5.0356   23.9503 F   0  0  0  0  0  0  0  0  0  0  0  0
  1  2  1  0  0  0  0
  1  5  2  0  0  0  0
  2  6  2  0  0  0  0
  3 12  2  0  0  0  0
  3 19  1  0  0  0  0
  4 13  1  0  0  0  0
  4 19  2  0  0  0  0
  5 21  1  0  0  0  0
  6 23  1  0  0  0  0
  7 14  2  0  0  0  0
  7 22  1  0  0  0  0
  8 10  2  0  0  0  0
  8 25  1  0  0  0  0
  9 11  1  0  0  0  0
  9 25  2  0  0  0  0
 10 26  1  0  0  0  0
 11 26  2  0  0  0  0
 12 27  1  0  0  0  0
 13 27  2  0  0  0  0
 14 28  1  0  0  0  0
 15 16  2  0  0  0  0
 15 29  1  0  0  0  0
 16 30  1  0  0  0  0
 17 24  1  0  0  0  0
 17 28  2  0  0  0  0
 18 30  2  0  0  0  0
 18 31  1  0  0  0  0
 19 32  1  0  0  0  0
 20 32  1  0  0  0  0
 20 33  2  0  0  0  0
 20 35  1  0  0  0  0
 21 23  2  0  0  0  0
 21 40  1  0  0  0  0
 22 24  2  0  0  0  0
 22 41  1  0  0  0  0
 23 51  1  0  0  0  0
 24 42  1  0  0  0  0
 25 65  1  0  0  0  0
 26 70  1  0  0  0  0
 27 80  1  0  0  0  0
 28 81  1  0  0  0  0
 29 31  2  0  0  0  0
 29 80  1  0  0  0  0
 30 82  1  0  0  0  0
 31 83  1  0  0  0  0
 32 63  2  0  0  0  0
 33 64  1  0  0  0  0
 33 68  1  0  0  0  0
 34 52  1  0  0  0  0
 34 65  1  0  0  0  0
 34 74  2  0  0  0  0
 35 69  1  0  0  0  0
 35 75  2  0  0  0  0
 36 53  1  0  0  0  0
 36 71  1  0  0  0  0
 36 76  2  0  0  0  0
 37 60  1  0  0  0  0
 37 66  1  0  0  0  0
 37 77  2  0  0  0  0
 38 61  1  0  0  0  0
 38 72  1  0  0  0  0
 38 78  2  0  0  0  0
 39 67  1  0  0  0  0
 39 70  1  0  0  0  0
 39 79  2  0  0  0  0
 40 43  1  0  0  0  0
 41 53  1  0  0  0  0
 42 66  1  0  0  0  0
 43 45  1  0  0  0  0
 44 46  1  0  0  0  0
 44 48  1  0  0  0  0
 45 51  1  0  0  0  0
 46 54  1  0  0  0  0
 47 49  1  0  0  0  0
 47 52  1  0  0  0  0
 48 67  1  0  0  0  0
 49 65  1  0  0  0  0
 50 54  1  0  0  0  0
 50 67  1  0  0  0  0
 51 71  1  0  0  0  0
 52 81  1  0  0  0  0
 53 66  1  0  0  0  0
 54 64  1  0  0  0  0
 55 61  1  0  0  0  0
 56 62  1  0  0  0  0
 57 62  1  0  0  0  0
 58 62  1  0  0  0  0
 59 73  1  0  0  0  0
 60 62  1  0  0  0  0
 60 72  1  0  0  0  0
 61 73  1  0  0  0  0
 63 64  1  0  0  0  0
M  CHG  1  73   1
M  ISO  4  39 100  52 101  70 100  81 101
M  END
> <Batch ID>
0007

> <Smiles>
CNC(C)C(=O)NC(C(=O)N1Cc2cc([101O:1][101CH:1]3CCN(c4ccc([100NH:0][100C:0](=O)N5CCCC(n6nc(-c7ccc(Oc8ccc(F)cc8F)cc7)c(C(N)=O)c6N)C5)cc4)C3=O)ccc2CC1C(=O)NC1CCCc2ccccc21)C(C)(C)C

> <Shape>
0.351

> <Color>
0.189

> <Negative vol penalty>
0.000

$$$$

  -OEChem-04042320323D

 87 96  0     1  0  0  0  0  0999 V2000
  -21.1608  -23.5525   24.3656 C   0  0  0  0  0  0  0  0  0  0  0  0
  -22.4321  -23.1042   24.7093 C   0  0  0  0  0  0  0  0  0  0  0  0
  -22.9992   -9.8463   20.0110 C   0  0  0  0  0  0  0  0  0  0  0  0
  -23.6915   -9.9724   22.3222 C   0  0  0  0  0  0  0  0  0  0  0  0
  -20.9606  -24.2180   23.1569 C   0  0  0  0  0  0  0  0  0  0  0  0
  -23.5039  -23.3202   23.8438 C   0  0  0  0  0  0  0  0  0  0  0  0
  -27.6448  -24.9631   26.2520 C   0  0  0  0  0  0  0  0  0  0  0  0
  -32.5867  -17.5224   23.3754 C   0  0  0  0  0  0  0  0  0  0  0  0
  -32.0098  -16.5974   22.5053 C   0  0  0  0  0  0  0  0  0  0  0  0
  -22.2305   -8.7195   20.3027 C   0  0  0  0  0  0  0  0  0  0  0  0
  -22.9228   -8.8456   22.6139 C   0  0  0  0  0  0  0  0  0  0  0  0
  -28.4003  -24.0141   26.9393 C   0  0  0  0  0  0  0  0  0  0  0  0
  -23.1784   -5.4937   22.2528 C   0  0  0  0  0  0  0  0  0  0  0  0
  -23.7566   -4.5022   23.0454 C   0  0  0  0  0  0  0  0  0  0  0  0
  -29.9561  -23.9279   25.0977 C   0  0  0  0  0  0  0  0  0  0  0  0
  -30.4017  -18.4363   23.8525 C   0  0  0  0  0  0  0  0  0  0  0  0
  -22.0087   -4.7956   24.6874 C   0  0  0  0  0  0  0  0  0  0  0  0
  -23.7298  -10.4727   21.0207 C   0  0  0  0  0  0  0  0  0  0  0  0
  -24.1141  -12.9821   20.7696 C   0  0  0  0  0  0  0  0  0  0  0  0
  -22.0323  -24.4508   22.2806 C   0  0  0  0  0  0  0  0  0  0  0  0
  -28.0339  -25.3943   24.9757 C   0  0  0  0  0  0  0  0  0  0  0  0
  -23.3177  -23.9883   22.6217 C   0  0  0  0  0  0  0  0  0  0  0  0
  -29.2051  -24.8844   24.3974 C   0  0  0  0  0  0  0  0  0  0  0  0
  -31.7826  -18.4418   24.0491 C   0  0  0  0  0  0  0  0  0  0  0  0
  -30.6289  -16.5918   22.3087 C   0  0  0  0  0  0  0  0  0  0  0  0
  -22.1923   -8.2192   21.6041 C   0  0  0  0  0  0  0  0  0  0  0  0
  -29.5545  -23.4942   26.3609 C   0  0  0  0  0  0  0  0  0  0  0  0
  -22.0154   -6.1363   22.6776 C   0  0  0  0  0  0  0  0  0  0  0  0
  -23.1718   -4.1531   24.2627 C   0  0  0  0  0  0  0  0  0  0  0  0
  -29.8248  -17.5113   22.9823 C   0  0  0  0  0  0  0  0  0  0  0  0
  -21.4306   -5.7872   23.8949 C   0  0  0  0  0  0  0  0  0  0  0  0
  -24.5245  -11.6364   20.7199 C   0  0  0  0  0  0  0  0  0  0  0  0
  -25.2280  -13.6946   20.3979 C   0  0  0  0  0  0  0  0  0  0  0  0
  -22.8401  -13.5383   21.1204 C   0  0  0  0  0  0  0  0  0  0  0  0
  -26.7383  -25.2743   22.0756 C   0  0  0  0  0  0  0  0  0  0  0  0
  -29.2990  -27.1005   21.2816 C   0  0  0  0  0  0  0  0  0  0  0  0
  -31.1875  -20.3198   27.0072 C   0  0  0  0  0  0  0  0  0  0  0  0
  -32.4898  -28.0811   21.9913 C   0  0  0  0  0  0  0  0  0  0  0  0
  -30.7022  -14.6727   20.6784 C   0  0  0  0  0  0  0  0  0  0  0  0
  -21.7582  -25.1329   20.9637 C   0  0  0  0  0  0  0  0  0  0  0  0
  -27.2226  -26.4384   24.2587 C   0  0  0  0  0  0  0  0  0  0  0  0
  -29.6772  -25.3294   23.0382 C   0  0  0  0  0  0  0  0  0  0  0  0
  -23.0167  -25.6524   20.2733 C   0  0  0  0  0  0  0  0  0  0  0  0
  -33.4251  -16.9624   28.2784 C   0  0  0  0  0  0  0  0  0  0  0  0
  -29.6204  -12.1445   18.4168 C   0  0  0  0  0  0  0  0  0  0  0  0
  -24.1100  -24.5887   20.2856 C   0  0  0  0  0  0  0  0  0  0  0  0
  -28.1644  -11.8976   18.8184 C   0  0  0  0  0  0  0  0  0  0  0  0
  -32.4363  -18.1238   28.5088 C   0  0  0  0  0  0  0  0  0  0  0  0
  -33.4925  -17.4109   26.8039 C   0  0  0  0  0  0  0  0  0  0  0  0
  -30.5033  -12.4282   19.6307 C   0  0  0  0  0  0  0  0  0  0  0  0
  -28.5682  -13.2559   20.9110 C   0  0  0  0  0  0  0  0  0  0  0  0
  -24.5101  -24.2254   21.7206 C   0  0  1  0  0  0  0  0  0  0  0  0
  -27.4326  -26.4249   22.7478 C   0  0  1  0  0  0  0  0  0  0  0  0
  -27.6277  -13.0298   19.7160 C   0  0  2  0  0  0  0  0  0  0  0  0
  -32.0882  -18.0267   27.0050 C   0  0  0  0  0  0  0  0  0  0  0  0
  -34.3328  -29.5561   21.1397 C   0  0  0  0  0  0  0  0  0  0  0  0
  -29.9163  -25.0630   19.0958 C   0  0  0  0  0  0  0  0  0  0  0  0
  -32.2139  -26.0434   18.9278 C   0  0  0  0  0  0  0  0  0  0  0  0
  -30.2190  -27.4497   18.4128 C   0  0  0  0  0  0  0  0  0  0  0  0
  -32.4893  -29.7064   24.4646 C   0  0  0  0  0  0  0  0  0  0  0  0
  -32.4034  -19.4383   24.9849 C   0  0  0  0  0  0  0  0  0  0  0  0
  -31.0124  -21.6190   26.2417 C   0  0  0  0  0  0  0  0  0  1  0  0
  -30.7067  -26.8218   20.8128 C   0  0  1  0  0  0  0  0  0  0  0  0
  -33.1285  -29.4564   22.0630 C   0  0  2  0  0  0  0  0  0  0  0  0
  -30.7543  -26.3345   19.3371 C   0  0  0  0  0  0  0  0  0  0  0  0
  -25.7994  -11.4995   20.3459 N   0  0  0  0  0  0  0  0  0  0  0  0
  -26.1998  -12.7685   20.1572 N   0  0  0  0  0  0  0  0  0  0  0  0
  -28.8464  -26.3475   22.3743 N   0  0  0  0  0  0  0  0  0  0  0  0
  -29.9350  -13.5146   20.4316 N   0  0  0  0  0  0  0  0  0  0  0  0
  -25.4611  -15.0168   20.2567 N   0  0  0  0  0  0  0  0  0  0  0  0
  -21.8047  -12.6637   21.4775 N   0  0  0  0  0  0  0  0  0  0  0  0
  -30.0456  -15.6514   21.4238 N   0  0  0  0  0  0  0  0  0  0  0  0
  -25.3718  -25.2455   22.2787 N   0  0  0  0  0  0  0  0  0  0  0  0
  -31.4694  -28.0396   21.0648 N   0  0  0  0  0  0  0  0  0  0  0  0
  -31.8867  -19.3066   26.3451 N   0  0  0  0  0  0  0  0  0  0  0  0
  -33.5775  -29.7471   23.4540 N   0  3  0  0  0  0  0  0  0  0  0  0
  -22.6214  -14.7733   21.1015 O   0  0  0  0  0  0  0  0  0  0  0  0
  -27.3937  -24.4729   21.4199 O   0  0  0  0  0  0  0  0  0  0  0  0
  -28.6283  -27.9597   20.7041 O   0  0  0  0  0  0  0  0  0  0  0  0
  -30.7221  -20.1886   28.1419 O   0  0  0  0  0  0  0  0  0  0  0  0
  -32.8615  -27.1371   22.6849 O   0  0  0  0  0  0  0  0  0  0  0  0
  -31.8470  -14.7990   20.2363 O   0  0  0  0  0  0  0  0  0  0  0  0
  -21.4421   -7.1199   21.8892 O   0  0  0  0  0  0  0  0  0  0  0  0
  -30.2935  -22.5673   27.0293 O   0  0  0  0  0  0  0  0  0  1  0  0
  -23.7262   -3.1999   25.0230 F   0  0  0  0  0  0  0  0  0  0  0  0
  -28.4966  -17.5160   22.7998 F   0  0  0  0  0  0  0  0  0  0  0  0
  -20.3126   -6.4000   24.3076 F   0  0  0  0  0  0  0  0  0  0  0  0
  1  2  1  0  0  0  0
  1  5  2  0  0  0  0
  2  6  2  0  0  0  0
  3 10  2  0  0  0  0
  3 18  1  0  0  0  0
  4 11  1  0  0  0  0
  4 18  2  0  0  0  0
  5 20  1  0  0  0  0
  6 22  1  0  0  0  0
  7 12  2  0  0  0  0
  7 21  1  0  0  0  0
  8  9  2  0  0  0  0
  8 24  1  0  0  0  0
  9 25  1  0  0  0  0
 10 26  1  0  0  0  0
 11 26  2  0  0  0  0
 12 27  1  0  0  0  0
 13 14  2  0  0  0  0
 13 28  1  0  0  0  0
 14 29  1  0  0  0  0
 15 23  1  0  0  0  0
 15 27  2  0  0  0  0
 16 24  2  0  0  0  0
 16 30  1  0  0  0  0
 17 29  2  0  0  0  0
 17 31  1  0  0  0  0
 18 32  1  0  0  0  0
 19 32  1  0  0  0  0
 19 33  2  0  0  0  0
 19 34  1  0  0  0  0
 20 22  2  0  0  0  0
 20 40  1  0  0  0  0
 21 23  2  0  0  0  0
 21 41  1  0  0  0  0
 22 52  1  0  0  0  0
 23 42  1  0  0  0  0
 24 61  1  0  0  0  0
 25 30  2  0  0  0  0
 25 72  1  0  0  0  0
 26 83  1  0  0  0  0
 27 84  1  0  0  0  0
 28 31  2  0  0  0  0
 28 83  1  0  0  0  0
 29 85  1  0  0  0  0
 30 86  1  0  0  0  0
 31 87  1  0  0  0  0
 32 66  2  0  0  0  0
 33 67  1  0  0  0  0
 33 70  1  0  0  0  0
 34 71  1  0  0  0  0
 34 77  2  0  0  0  0
 35 53  1  0  0  0  0
 35 73  1  0  0  0  0
 35 78  2  0  0  0  0
 36 63  1  0  0  0  0
 36 68  1  0  0  0  0
 36 79  2  0  0  0  0
 37 62  1  0  0  0  0
 37 75  1  0  0  0  0
 37 80  2  0  0  0  0
 38 64  1  0  0  0  0
 38 74  1  0  0  0  0
 38 81  2  0  0  0  0
 39 69  1  0  0  0  0
 39 72  1  0  0  0  0
 39 82  2  0  0  0  0
 40 43  1  0  0  0  0
 41 53  1  0  0  0  0
 42 68  1  0  0  0  0
 43 46  1  0  0  0  0
 44 48  1  0  0  0  0
 44 49  1  0  0  0  0
 45 47  1  0  0  0  0
 45 50  1  0  0  0  0
 46 52  1  0  0  0  0
 47 54  1  0  0  0  0
 48 55  1  0  0  0  0
 49 55  1  0  0  0  0
 50 69  1  0  0  0  0
 51 54  1  0  0  0  0
 51 69  1  0  0  0  0
 52 73  1  0  0  0  0
 53 68  1  0  0  0  0
 54 67  1  0  0  0  0
 55 75  1  0  0  0  0
 56 64  1  0  0  0  0
 57 65  1  0  0  0  0
 58 65  1  0  0  0  0
 59 65  1  0  0  0  0
 60 76  1  0  0  0  0
 61 75  1  0  0  0  0
 62 84  1  0  0  0  0
 63 65  1  0  0  0  0
 63 74  1  0  0  0  0
 64 76  1  0  0  0  0
 66 67  1  0  0  0  0
M  CHG  1  76   1
M  ISO  4  39 100  62 101  72 100  84 101
M  END
> <Batch ID>
0007

> <Smiles>
CNC(C)C(=O)NC(C(=O)N1Cc2cc([101O:1][101CH2:1]C(=O)N(Cc3ccc([100NH:0][100C:0](=O)N4CCCC(n5nc(-c6ccc(Oc7ccc(F)cc7F)cc6)c(C(N)=O)c5N)C4)c(F)c3)C3CCC3)ccc2CC1C(=O)NC1CCCc2ccccc21)C(C)(C)C

> <Shape>
0.224

> <Color>
0.200

> <Negative vol penalty>
0.000

$$$$

  -OEChem-04042320323D

 79 87  0     1  0  0  0  0  0999 V2000
  -18.7497  -30.3687   24.8120 C   0  0  0  0  0  0  0  0  0  0  0  0
  -20.1327  -30.2644   24.7029 C   0  0  0  0  0  0  0  0  0  0  0  0
  -31.8685  -25.3164   17.9012 C   0  0  0  0  0  0  0  0  0  0  0  0
  -24.8986  -14.7296   19.1310 C   0  0  0  0  0  0  0  0  0  0  0  0
  -26.9577  -14.9713   20.3715 C   0  0  0  0  0  0  0  0  0  0  0  0
  -17.9285  -29.4626   24.1423 C   0  0  0  0  0  0  0  0  0  0  0  0
  -20.6953  -29.2531   23.9249 C   0  0  0  0  0  0  0  0  0  0  0  0
  -25.8223  -29.5928   20.5926 C   0  0  0  0  0  0  0  0  0  0  0  0
  -31.5827  -25.8031   19.1767 C   0  0  0  0  0  0  0  0  0  0  0  0
  -31.0911  -24.2958   17.3536 C   0  0  0  0  0  0  0  0  0  0  0  0
  -24.8558  -13.3762   19.4658 C   0  0  0  0  0  0  0  0  0  0  0  0
  -26.9149  -13.6179   20.7063 C   0  0  0  0  0  0  0  0  0  0  0  0
  -27.1314  -29.1826   20.8411 C   0  0  0  0  0  0  0  0  0  0  0  0
  -23.9903  -11.4981   22.1409 C   0  0  0  0  0  0  0  0  0  0  0  0
  -22.7706  -10.9747   22.5696 C   0  0  0  0  0  0  0  0  0  0  0  0
  -26.7082  -27.1293   19.6477 C   0  0  0  0  0  0  0  0  0  0  0  0
  -29.7421  -24.2486   19.3574 C   0  0  0  0  0  0  0  0  0  0  0  0
  -22.7921   -9.4140   20.7254 C   0  0  0  0  0  0  0  0  0  0  0  0
  -25.9496  -15.5272   19.5838 C   0  0  0  0  0  0  0  0  0  0  0  0
  -25.4352  -17.9976   19.9580 C   0  0  0  0  0  0  0  0  0  0  0  0
  -18.4811  -28.4457   23.3479 C   0  0  0  0  0  0  0  0  0  0  0  0
  -24.9415  -28.7682   19.8780 C   0  0  0  0  0  0  0  0  0  0  0  0
  -19.8807  -28.3318   23.2450 C   0  0  0  0  0  0  0  0  0  0  0  0
  -25.3892  -27.5325   19.3893 C   0  0  0  0  0  0  0  0  0  0  0  0
  -30.5195  -25.2692   19.9048 C   0  0  0  0  0  0  0  0  0  0  0  0
  -30.0279  -23.7619   18.0818 C   0  0  0  0  0  0  0  0  0  0  0  0
  -25.8639  -12.8204   20.2534 C   0  0  0  0  0  0  0  0  0  0  0  0
  -27.5737  -27.9494   20.3711 C   0  0  0  0  0  0  0  0  0  0  0  0
  -24.6110  -10.9796   21.0044 C   0  0  0  0  0  0  0  0  0  0  0  0
  -22.1715   -9.9326   21.8619 C   0  0  0  0  0  0  0  0  0  0  0  0
  -24.0119   -9.9375   20.2967 C   0  0  0  0  0  0  0  0  0  0  0  0
  -25.9947  -16.9251   19.2378 C   0  0  0  0  0  0  0  0  0  0  0  0
  -25.7515  -19.1104   19.2177 C   0  0  0  0  0  0  0  0  0  0  0  0
  -24.6957  -17.9887   21.1863 C   0  0  0  0  0  0  0  0  0  0  0  0
  -22.1834  -27.3309   20.5342 C   0  0  0  0  0  0  0  0  0  0  0  0
  -22.2793  -26.5669   17.3831 C   0  0  0  0  0  0  0  0  0  0  0  0
  -24.1590  -26.0695   14.5784 C   0  0  0  0  0  0  0  0  0  0  0  0
  -29.3865  -22.1300   16.2729 C   0  0  0  0  0  0  0  0  0  0  0  0
  -17.5539  -27.4608   22.6809 C   0  0  0  0  0  0  0  0  0  0  0  0
  -23.5405  -29.2368   19.5953 C   0  0  0  0  0  0  0  0  0  0  0  0
  -24.4891  -26.6190   18.5994 C   0  0  0  0  0  0  0  0  0  0  0  0
  -18.2223  -26.6474   21.5755 C   0  0  0  0  0  0  0  0  0  0  0  0
  -27.6713  -19.5270   14.5527 C   0  0  0  0  0  0  0  0  0  0  0  0
  -19.5722  -26.1152   22.0461 C   0  0  0  0  0  0  0  0  0  0  0  0
  -27.0362  -18.7062   15.6775 C   0  0  0  0  0  0  0  0  0  0  0  0
  -29.0493  -20.0565   14.9455 C   0  0  0  0  0  0  0  0  0  0  0  0
  -28.4556  -19.9805   17.3353 C   0  0  0  0  0  0  0  0  0  0  0  0
  -20.5282  -27.2636   22.3907 C   0  0  1  0  0  0  0  0  0  0  0  0
  -22.5759  -28.0925   19.2998 C   0  0  1  0  0  0  0  0  0  0  0  0
  -27.0387  -19.4802   17.0103 C   0  0  2  0  0  0  0  0  0  0  0  0
  -23.9598  -25.4156   12.1639 C   0  0  0  0  0  0  0  0  0  0  0  0
  -21.8961  -23.6538   18.2061 C   0  0  0  0  0  0  0  0  0  0  0  0
  -22.6472  -22.9804   15.9146 C   0  0  0  0  0  0  0  0  0  0  0  0
  -20.5823  -24.3514   16.1957 C   0  0  0  0  0  0  0  0  0  0  0  0
  -25.2636  -28.6591   13.6659 C   0  0  0  0  0  0  0  0  0  0  0  0
  -30.2114  -25.7949   21.2816 C   0  0  0  0  0  0  0  0  0  0  0  0
  -22.8413  -25.4204   16.5776 C   0  0  1  0  0  0  0  0  0  0  0  0
  -23.9952  -26.5690   13.1543 C   0  0  2  0  0  0  0  0  0  0  0  0
  -22.0084  -24.1176   16.7400 C   0  0  0  0  0  0  0  0  0  0  0  0
  -26.6190  -17.3210   18.1254 N   0  0  0  0  0  0  0  0  0  0  0  0
  -26.4536  -18.6546   18.1409 N   0  0  0  0  0  0  0  0  0  0  0  0
  -23.1263  -27.1191   18.3544 N   0  0  0  0  0  0  0  0  0  0  0  0
  -28.9735  -20.7821   16.2154 N   0  0  0  0  0  0  0  0  0  0  0  0
  -25.4947  -20.4246   19.3892 N   0  0  0  0  0  0  0  0  0  0  0  0
  -24.4602  -16.7586   21.8154 N   0  0  0  0  0  0  0  0  0  0  0  0
  -29.2380  -22.7257   17.5250 N   0  0  0  0  0  0  0  0  0  0  0  0
  -21.0769  -27.8439   21.1837 N   0  0  0  0  0  0  0  0  0  0  0  0
  -22.9416  -25.8980   15.2028 N   0  0  0  0  0  0  0  0  0  0  0  0
  -28.8490  -26.2992   21.3769 N   0  0  0  0  0  0  0  0  0  1  0  0
  -25.1253  -27.4688   12.7878 N   0  3  0  0  0  0  0  0  0  0  0  0
  -24.2426  -19.0386   21.7019 O   0  0  0  0  0  0  0  0  0  0  0  0
  -22.8353  -26.3496   20.8714 O   0  0  0  0  0  0  0  0  0  0  0  0
  -21.1337  -26.9626   17.1538 O   0  0  0  0  0  0  0  0  0  0  0  0
  -25.2570  -25.8495   15.0850 O   0  0  0  0  0  0  0  0  0  0  0  0
  -29.8132  -22.7210   15.2776 O   0  0  0  0  0  0  0  0  0  0  0  0
  -25.8223  -11.4998   20.5805 O   0  0  0  0  0  0  0  0  0  0  0  0
  -28.8508  -27.5463   20.6129 O   0  0  0  0  0  0  0  0  0  1  0  0
  -21.0009   -9.4290   22.2746 F   0  0  0  0  0  0  0  0  0  0  0  0
  -24.6040   -9.4345   19.2048 F   0  0  0  0  0  0  0  0  0  0  0  0
  1  2  1  0  0  0  0
  1  6  2  0  0  0  0
  2  7  2  0  0  0  0
  3  9  2  0  0  0  0
  3 10  1  0  0  0  0
  4 11  2  0  0  0  0
  4 19  1  0  0  0  0
  5 12  1  0  0  0  0
  5 19  2  0  0  0  0
  6 21  1  0  0  0  0
  7 23  1  0  0  0  0
  8 13  2  0  0  0  0
  8 22  1  0  0  0  0
  9 25  1  0  0  0  0
 10 26  2  0  0  0  0
 11 27  1  0  0  0  0
 12 27  2  0  0  0  0
 13 28  1  0  0  0  0
 14 15  2  0  0  0  0
 14 29  1  0  0  0  0
 15 30  1  0  0  0  0
 16 24  1  0  0  0  0
 16 28  2  0  0  0  0
 17 25  2  0  0  0  0
 17 26  1  0  0  0  0
 18 30  2  0  0  0  0
 18 31  1  0  0  0  0
 19 32  1  0  0  0  0
 20 32  1  0  0  0  0
 20 33  2  0  0  0  0
 20 34  1  0  0  0  0
 21 23  2  0  0  0  0
 21 39  1  0  0  0  0
 22 24  2  0  0  0  0
 22 40  1  0  0  0  0
 23 48  1  0  0  0  0
 24 41  1  0  0  0  0
 25 56  1  0  0  0  0
 26 66  1  0  0  0  0
 27 76  1  0  0  0  0
 28 77  1  0  0  0  0
 29 31  2  0  0  0  0
 29 76  1  0  0  0  0
 30 78  1  0  0  0  0
 31 79  1  0  0  0  0
 32 60  2  0  0  0  0
 33 61  1  0  0  0  0
 33 64  1  0  0  0  0
 34 65  1  0  0  0  0
 34 71  2  0  0  0  0
 35 49  1  0  0  0  0
 35 67  1  0  0  0  0
 35 72  2  0  0  0  0
 36 57  1  0  0  0  0
 36 62  1  0  0  0  0
 36 73  2  0  0  0  0
 37 58  1  0  0  0  0
 37 68  1  0  0  0  0
 37 74  2  0  0  0  0
 38 63  1  0  0  0  0
 38 66  1  0  0  0  0
 38 75  2  0  0  0  0
 39 42  1  0  0  0  0
 40 49  1  0  0  0  0
 41 62  1  0  0  0  0
 42 44  1  0  0  0  0
 43 45  1  0  0  0  0
 43 46  1  0  0  0  0
 44 48  1  0  0  0  0
 45 50  1  0  0  0  0
 46 63  1  0  0  0  0
 47 50  1  0  0  0  0
 47 63  1  0  0  0  0
 48 67  1  0  0  0  0
 49 62  1  0  0  0  0
 50 61  1  0  0  0  0
 51 58  1  0  0  0  0
 52 59  1  0  0  0  0
 53 59  1  0  0  0  0
 54 59  1  0  0  0  0
 55 70  1  0  0  0  0
 56 69  1  0  0  0  0
 57 59  1  0  0  0  0
 57 68  1  0  0  0  0
 58 70  1  0  0  0  0
 60 61  1  0  0  0  0
 69 77  1  0  0  0  0
M  CHG  1  70   1
M  ISO  4  38 100  66 100  69 101  77 101
M  END
> <Batch ID>
0007

> <Smiles>
CNC(C)C(=O)NC(C(=O)N1Cc2cc([101O:1][101NH:1]Cc3cccc([100NH:0][100C:0](=O)N4CCCC(n5nc(-c6ccc(Oc7ccc(F)cc7F)cc6)c(C(N)=O)c5N)C4)c3)ccc2CC1C(=O)NC1CCCc2ccccc21)C(C)(C)C

> <Shape>
0.227

> <Color>
0.062

> <Negative vol penalty>
0.000

$$$$

  -OEChem-04042320323D

 81 89  0     1  0  0  0  0  0999 V2000
  -28.5889  -11.9360   18.9441 C   0  0  0  0  0  0  0  0  0  0  0  0
  -27.5062  -12.4884   19.6209 C   0  0  0  0  0  0  0  0  0  0  0  0
  -26.1884  -29.6281   22.7675 C   0  0  0  0  0  0  0  0  0  0  0  0
  -25.3367  -30.2107   24.9521 C   0  0  0  0  0  0  0  0  0  0  0  0
  -29.8475  -12.5276   19.0442 C   0  0  0  0  0  0  0  0  0  0  0  0
  -27.6817  -13.6321   20.3991 C   0  0  0  0  0  0  0  0  0  0  0  0
  -23.6624  -18.1795   21.2191 C   0  0  0  0  0  0  0  0  0  0  0  0
  -16.5679  -22.5339   23.9921 C   0  0  0  0  0  0  0  0  0  0  0  0
  -27.0850  -30.6946   22.8326 C   0  0  0  0  0  0  0  0  0  0  0  0
  -26.2333  -31.2772   25.0172 C   0  0  0  0  0  0  0  0  0  0  0  0
  -22.7584  -18.4591   22.2431 C   0  0  0  0  0  0  0  0  0  0  0  0
  -27.0041  -34.0460   22.4012 C   0  0  0  0  0  0  0  0  0  0  0  0
  -27.1333  -34.8530   21.2709 C   0  0  0  0  0  0  0  0  0  0  0  0
  -16.7033  -21.2946   23.3665 C   0  0  0  0  0  0  0  0  0  0  0  0
  -24.3693  -19.9450   23.2513 C   0  0  0  0  0  0  0  0  0  0  0  0
  -18.6769  -22.1945   25.1208 C   0  0  0  0  0  0  0  0  0  0  0  0
  -29.4791  -34.2905   21.1373 C   0  0  0  0  0  0  0  0  0  0  0  0
  -25.3142  -29.3862   23.8272 C   0  0  0  0  0  0  0  0  0  0  0  0
  -24.6034  -26.9643   24.1970 C   0  0  0  0  0  0  0  0  0  0  0  0
  -30.0365  -13.6846   19.8163 C   0  0  0  0  0  0  0  0  0  0  0  0
  -24.9328  -18.7731   21.2094 C   0  0  0  0  0  0  0  0  0  0  0  0
  -28.9442  -14.2389   20.5107 C   0  0  0  0  0  0  0  0  0  0  0  0
  -25.2866  -19.6732   22.2247 C   0  0  0  0  0  0  0  0  0  0  0  0
  -17.5548  -22.9839   24.8692 C   0  0  0  0  0  0  0  0  0  0  0  0
  -18.8122  -20.9552   24.4953 C   0  0  0  0  0  0  0  0  0  0  0  0
  -27.1075  -31.5192   23.9574 C   0  0  0  0  0  0  0  0  0  0  0  0
  -23.1128  -19.3397   23.2609 C   0  0  0  0  0  0  0  0  0  0  0  0
  -28.1125  -33.3613   22.8996 C   0  0  0  0  0  0  0  0  0  0  0  0
  -28.3707  -34.9753   20.6389 C   0  0  0  0  0  0  0  0  0  0  0  0
  -29.3499  -33.4835   22.2677 C   0  0  0  0  0  0  0  0  0  0  0  0
  -17.8254  -20.5052   23.6181 C   0  0  0  0  0  0  0  0  0  0  0  0
  -24.3873  -28.2850   23.7603 C   0  0  0  0  0  0  0  0  0  0  0  0
  -23.4282  -26.3123   23.9136 C   0  0  0  0  0  0  0  0  0  0  0  0
  -25.7628  -26.3791   24.8046 C   0  0  0  0  0  0  0  0  0  0  0  0
  -27.9171  -17.6877   21.3492 C   0  0  0  0  0  0  0  0  0  0  0  0
  -28.6604  -20.8005   20.8195 C   0  0  0  0  0  0  0  0  0  0  0  0
  -27.7282  -24.0771   21.0236 C   0  0  0  0  0  0  0  0  0  0  0  0
  -17.8508  -26.1197   23.8991 C   0  0  0  0  0  0  0  0  0  0  0  0
  -31.4253  -14.2611   19.9323 C   0  0  0  0  0  0  0  0  0  0  0  0
  -25.8865  -18.4817   20.0834 C   0  0  0  0  0  0  0  0  0  0  0  0
  -26.6306  -20.3525   22.2493 C   0  0  0  0  0  0  0  0  0  0  0  0
  -31.4494  -15.6872   20.4763 C   0  0  0  0  0  0  0  0  0  0  0  0
  -19.4358  -27.7661   21.1689 C   0  0  0  0  0  0  0  0  0  0  0  0
  -30.5477  -15.8067   21.7008 C   0  0  0  0  0  0  0  0  0  0  0  0
  -20.8807  -27.9443   21.6383 C   0  0  0  0  0  0  0  0  0  0  0  0
  -18.4444  -27.9324   22.3185 C   0  0  0  0  0  0  0  0  0  0  0  0
  -20.1529  -27.2567   23.9613 C   0  0  0  0  0  0  0  0  0  0  0  0
  -29.0895  -15.4931   21.3449 C   0  0  1  0  0  0  0  0  0  0  0  0
  -27.3433  -18.7465   20.4507 C   0  0  1  0  0  0  0  0  0  0  0  0
  -21.1926  -27.0428   22.8480 C   0  0  2  0  0  0  0  0  0  0  0  0
  -28.5618  -26.3957   20.5477 C   0  0  0  0  0  0  0  0  0  0  0  0
  -30.4345  -20.6688   23.2985 C   0  0  0  0  0  0  0  0  0  0  0  0
  -30.4702  -23.1721   23.3205 C   0  0  0  0  0  0  0  0  0  0  0  0
  -31.4195  -21.9299   21.3766 C   0  0  0  0  0  0  0  0  0  0  0  0
  -25.5379  -24.5953   19.1018 C   0  0  0  0  0  0  0  0  0  0  0  0
  -17.4096  -24.3092   25.5382 C   0  0  0  0  0  0  0  0  0  0  0  0
  -20.0386  -20.1340   24.7929 C   0  0  0  0  0  0  0  0  0  0  0  0
  -28.9126  -22.0035   21.6959 C   0  0  1  0  0  0  0  0  0  0  0  0
  -27.7836  -25.2052   20.0093 C   0  0  2  0  0  0  0  0  0  0  0  0
  -30.2845  -21.9294   22.4237 C   0  0  0  0  0  0  0  0  0  0  0  0
  -23.1706  -28.4631   23.2390 N   0  0  0  0  0  0  0  0  0  0  0  0
  -22.6116  -27.2457   23.3462 N   0  0  0  0  0  0  0  0  0  0  0  0
  -27.5307  -20.0303   21.1297 N   0  0  0  0  0  0  0  0  0  0  0  0
  -18.7955  -27.0488   23.4329 N   0  0  0  0  0  0  0  0  0  0  0  0
  -23.0241  -25.0373   24.0969 N   0  0  0  0  0  0  0  0  0  0  0  0
  -26.8838  -27.1911   25.0242 N   0  0  0  0  0  0  0  0  0  0  0  0
  -28.4792  -16.6210   20.6742 N   0  0  0  0  0  0  0  0  0  0  0  0
  -28.7532  -23.1734   20.8390 N   0  0  0  0  0  0  0  0  0  0  0  0
  -18.2667  -25.3166   24.9540 N   0  0  0  0  0  0  0  0  0  0  0  0
  -21.0111  -20.2006   23.7115 N   0  0  0  0  0  0  0  0  0  1  0  0
  -26.4070  -25.6604   19.6651 N   0  3  0  0  0  0  0  0  0  0  0  0
  -25.8093  -25.1679   25.1276 O   0  0  0  0  0  0  0  0  0  0  0  0
  -27.8557  -17.8289   22.5650 O   0  0  0  0  0  0  0  0  0  0  0  0
  -29.4333  -20.5573   19.8894 O   0  0  0  0  0  0  0  0  0  0  0  0
  -26.8643  -24.0067   21.8950 O   0  0  0  0  0  0  0  0  0  0  0  0
  -16.7222  -26.0101   23.4078 O   0  0  0  0  0  0  0  0  0  0  0  0
  -27.9824  -32.5598   24.0214 O   0  0  0  0  0  0  0  0  0  0  0  0
  -22.2326  -19.6138   24.2619 O   0  0  0  0  0  0  0  0  0  1  0  0
  -28.4943  -35.7491   19.5526 F   0  0  0  0  0  0  0  0  0  0  0  0
  -30.4180  -32.8272   22.7412 F   0  0  0  0  0  0  0  0  0  0  0  0
  -17.9592  -18.9776   22.8260 Cl  0  0  0  0  0  0  0  0  0  0  0  0
  1  2  1  0  0  0  0
  1  5  2  0  0  0  0
  2  6  2  0  0  0  0
  3  9  2  0  0  0  0
  3 18  1  0  0  0  0
  4 10  1  0  0  0  0
  4 18  2  0  0  0  0
  5 20  1  0  0  0  0
  6 22  1  0  0  0  0
  7 11  2  0  0  0  0
  7 21  1  0  0  0  0
  8 14  2  0  0  0  0
  8 24  1  0  0  0  0
  9 26  1  0  0  0  0
 10 26  2  0  0  0  0
 11 27  1  0  0  0  0
 12 13  2  0  0  0  0
 12 28  1  0  0  0  0
 13 29  1  0  0  0  0
 14 31  1  0  0  0  0
 15 23  1  0  0  0  0
 15 27  2  0  0  0  0
 16 24  2  0  0  0  0
 16 25  1  0  0  0  0
 17 29  2  0  0  0  0
 17 30  1  0  0  0  0
 18 32  1  0  0  0  0
 19 32  1  0  0  0  0
 19 33  2  0  0  0  0
 19 34  1  0  0  0  0
 20 22  2  0  0  0  0
 20 39  1  0  0  0  0
 21 23  2  0  0  0  0
 21 40  1  0  0  0  0
 22 48  1  0  0  0  0
 23 41  1  0  0  0  0
 24 56  1  0  0  0  0
 25 31  2  0  0  0  0
 25 57  1  0  0  0  0
 26 77  1  0  0  0  0
 27 78  1  0  0  0  0
 28 30  2  0  0  0  0
 28 77  1  0  0  0  0
 29 79  1  0  0  0  0
 30 80  1  0  0  0  0
 31 81  1  0  0  0  0
 32 61  2  0  0  0  0
 33 62  1  0  0  0  0
 33 65  1  0  0  0  0
 34 66  1  0  0  0  0
 34 72  2  0  0  0  0
 35 49  1  0  0  0  0
 35 67  1  0  0  0  0
 35 73  2  0  0  0  0
 36 58  1  0  0  0  0
 36 63  1  0  0  0  0
 36 74  2  0  0  0  0
 37 59  1  0  0  0  0
 37 68  1  0  0  0  0
 37 75  2  0  0  0  0
 38 64  1  0  0  0  0
 38 69  1  0  0  0  0
 38 76  2  0  0  0  0
 39 42  1  0  0  0  0
 40 49  1  0  0  0  0
 41 63  1  0  0  0  0
 42 44  1  0  0  0  0
 43 45  1  0  0  0  0
 43 46  1  0  0  0  0
 44 48  1  0  0  0  0
 45 50  1  0  0  0  0
 46 64  1  0  0  0  0
 47 50  1  0  0  0  0
 47 64  1  0  0  0  0
 48 67  1  0  0  0  0
 49 63  1  0  0  0  0
 50 62  1  0  0  0  0
 51 59  1  0  0  0  0
 52 60  1  0  0  0  0
 53 60  1  0  0  0  0
 54 60  1  0  0  0  0
 55 71  1  0  0  0  0
 56 69  1  0  0  0  0
 57 70  1  0  0  0  0
 58 60  1  0  0  0  0
 58 68  1  0  0  0  0
 59 71  1  0  0  0  0
 61 62  1  0  0  0  0
 70 78  1  0  0  0  0
M  CHG  1  71   1
M  ISO  4  38 100  69 100  70 101  78 101
M  END
> <Batch ID>
0007

> <Smiles>
CNC(C)C(=O)NC(C(=O)N1Cc2cc([101O:1][101NH:1]Cc3cc(C[100NH:0][100C:0](=O)N4CCCC(n5nc(-c6ccc(Oc7ccc(F)cc7F)cc6)c(C(N)=O)c5N)C4)ccc3Cl)ccc2CC1C(=O)NC1CCCc2ccccc21)C(C)(C)C

> <Shape>
0.191

> <Color>
0.069

> <Negative vol penalty>
0.000

$$$$

  -OEChem-04042320323D

 89 98  0     1  0  0  0  0  0999 V2000
  -29.6764  -11.8608   19.8585 C   0  0  0  0  0  0  0  0  0  0  0  0
  -29.5659  -12.8570   20.8232 C   0  0  0  0  0  0  0  0  0  0  0  0
  -29.8687  -20.6491   17.7096 C   0  0  0  0  0  0  0  0  0  0  0  0
  -29.1989  -20.4855   20.0251 C   0  0  0  0  0  0  0  0  0  0  0  0
  -28.8214  -11.8605   18.7572 C   0  0  0  0  0  0  0  0  0  0  0  0
  -28.6009  -13.8543   20.6866 C   0  0  0  0  0  0  0  0  0  0  0  0
  -24.2973  -18.0324   24.6030 C   0  0  0  0  0  0  0  0  0  0  0  0
  -22.4540  -25.3635   21.4295 C   0  0  0  0  0  0  0  0  0  0  0  0
  -20.7275  -24.9157   23.0591 C   0  0  0  0  0  0  0  0  0  0  0  0
  -23.0341  -24.1250   21.7038 C   0  0  0  0  0  0  0  0  0  0  0  0
  -21.3076  -23.6771   23.3333 C   0  0  0  0  0  0  0  0  0  0  0  0
  -30.3617  -19.3452   17.7601 C   0  0  0  0  0  0  0  0  0  0  0  0
  -29.6919  -19.1817   20.0756 C   0  0  0  0  0  0  0  0  0  0  0  0
  -23.9572  -19.3744   24.7677 C   0  0  0  0  0  0  0  0  0  0  0  0
  -33.1205  -17.7688   18.9128 C   0  0  0  0  0  0  0  0  0  0  0  0
  -34.3724  -17.5278   18.3471 C   0  0  0  0  0  0  0  0  0  0  0  0
  -22.4826  -19.2280   22.8641 C   0  0  0  0  0  0  0  0  0  0  0  0
  -25.3499  -29.1044   22.4225 C   0  0  0  0  0  0  0  0  0  0  0  0
  -27.2091  -30.4461   23.1840 C   0  0  0  0  0  0  0  0  0  0  0  0
  -25.0151  -30.7668   24.1434 C   0  0  0  0  0  0  0  0  0  0  0  0
  -33.3765  -15.9455   16.8168 C   0  0  0  0  0  0  0  0  0  0  0  0
  -29.2874  -21.2193   18.8421 C   0  0  0  0  0  0  0  0  0  0  0  0
  -27.4755  -22.9701   18.4426 C   0  0  0  0  0  0  0  0  0  0  0  0
  -27.8391  -12.8528   18.6120 C   0  0  0  0  0  0  0  0  0  0  0  0
  -23.7400  -17.2798   23.5593 C   0  0  0  0  0  0  0  0  0  0  0  0
  -27.7328  -13.8681   19.5817 C   0  0  0  0  0  0  0  0  0  0  0  0
  -22.8154  -17.8759   22.6900 C   0  0  0  0  0  0  0  0  0  0  0  0
  -21.3007  -25.7589   22.1073 C   0  0  0  0  0  0  0  0  0  0  0  0
  -22.4609  -23.2818   22.6556 C   0  0  0  0  0  0  0  0  0  0  0  0
  -26.7009  -29.4448   22.3565 C   0  0  0  0  0  0  0  0  0  0  0  0
  -30.2733  -18.6115   18.9431 C   0  0  0  0  0  0  0  0  0  0  0  0
  -23.0519  -19.9732   23.8964 C   0  0  0  0  0  0  0  0  0  0  0  0
  -31.9964  -17.0981   18.4305 C   0  0  0  0  0  0  0  0  0  0  0  0
  -24.5069  -29.7655   23.3158 C   0  0  0  0  0  0  0  0  0  0  0  0
  -34.5005  -16.6162   17.2991 C   0  0  0  0  0  0  0  0  0  0  0  0
  -26.3662  -31.1071   24.0775 C   0  0  0  0  0  0  0  0  0  0  0  0
  -32.1244  -16.1865   17.3826 C   0  0  0  0  0  0  0  0  0  0  0  0
  -28.7784  -22.5663   18.7907 C   0  0  0  0  0  0  0  0  0  0  0  0
  -27.5009  -24.3393   18.5475 C   0  0  0  0  0  0  0  0  0  0  0  0
  -26.3436  -22.1782   18.0587 C   0  0  0  0  0  0  0  0  0  0  0  0
  -24.9026  -15.7558   21.0237 C   0  0  0  0  0  0  0  0  0  0  0  0
  -21.8321  -14.7608   20.7005 C   0  0  0  0  0  0  0  0  0  0  0  0
  -18.5257  -15.3104   21.3427 C   0  0  0  0  0  0  0  0  0  0  0  0
  -28.9218  -28.9914   21.2571 C   0  0  0  0  0  0  0  0  0  0  0  0
  -26.9689  -12.8380   17.3802 C   0  0  0  0  0  0  0  0  0  0  0  0
  -24.0968  -15.8261   23.4115 C   0  0  0  0  0  0  0  0  0  0  0  0
  -22.1733  -17.1061   21.5659 C   0  0  0  0  0  0  0  0  0  0  0  0
  -25.7265  -13.7167   17.5016 C   0  0  0  0  0  0  0  0  0  0  0  0
  -31.3879  -27.5255   19.1484 C   0  0  0  0  0  0  0  0  0  0  0  0
  -26.0928  -15.0832   18.0719 C   0  0  0  0  0  0  0  0  0  0  0  0
  -30.8217  -26.1379   18.8387 C   0  0  0  0  0  0  0  0  0  0  0  0
  -31.0779  -27.9579   20.5804 C   0  0  0  0  0  0  0  0  0  0  0  0
  -29.0943  -26.4985   20.6479 C   0  0  0  0  0  0  0  0  0  0  0  0
  -26.6824  -14.9528   19.4815 C   0  0  1  0  0  0  0  0  0  0  0  0
  -23.8601  -15.2931   22.0019 C   0  0  1  0  0  0  0  0  0  0  0  0
  -29.3252  -26.0471   19.1965 C   0  0  2  0  0  0  0  0  0  0  0  0
  -16.2492  -14.3441   20.9172 C   0  0  0  0  0  0  0  0  0  0  0  0
  -21.9270  -15.8054   17.8352 C   0  0  0  0  0  0  0  0  0  0  0  0
  -19.4264  -15.6920   17.7850 C   0  0  0  0  0  0  0  0  0  0  0  0
  -20.7614  -13.6095   18.1070 C   0  0  0  0  0  0  0  0  0  0  0  0
  -18.0138  -14.9430   24.2343 C   0  0  0  0  0  0  0  0  0  0  0  0
  -20.6800  -27.0830   21.8151 C   0  0  0  0  0  0  0  0  0  0  0  0
  -21.2398  -28.1943   22.7139 C   0  0  0  0  0  0  0  0  0  0  0  0
  -22.7335  -28.4028   22.5071 C   0  0  0  0  0  0  0  0  0  0  0  0
  -20.6069  -15.2867   19.9926 C   0  0  1  0  0  0  0  0  0  0  0  0
  -17.4356  -14.3936   21.8674 C   0  0  2  0  0  0  0  0  0  0  0  0
  -20.6938  -15.1137   18.4499 C   0  0  0  0  0  0  0  0  0  0  0  0
  -29.5736  -23.5957   19.0940 N   0  0  0  0  0  0  0  0  0  0  0  0
  -28.7681  -24.6600   18.9366 N   0  0  0  0  0  0  0  0  0  0  0  0
  -22.5593  -15.6894   21.4588 N   0  0  0  0  0  0  0  0  0  0  0  0
  -29.6417  -27.8497   20.8460 N   0  0  0  0  0  0  0  0  0  0  0  0
  -26.5626  -25.2883   18.3438 N   0  0  0  0  0  0  0  0  0  0  0  0
  -26.4907  -20.7856   18.0021 N   0  0  0  0  0  0  0  0  0  0  0  0
  -27.5575  -28.7748   21.4481 N   0  0  0  0  0  0  0  0  0  0  0  0
  -23.0422  -22.0370   22.9300 N   0  0  0  0  0  0  0  0  0  1  0  0
  -25.6308  -14.7307   20.4506 N   0  0  0  0  0  0  0  0  0  0  0  0
  -19.4635  -14.6190   20.6052 N   0  0  0  0  0  0  0  0  0  0  0  0
  -16.9544  -14.8682   23.1956 N   0  3  0  0  0  0  0  0  0  0  0  0
  -25.2391  -22.6916   17.7584 O   0  0  0  0  0  0  0  0  0  0  0  0
  -25.0355  -16.9540   20.8041 O   0  0  0  0  0  0  0  0  0  0  0  0
  -22.1290  -13.5686   20.5908 O   0  0  0  0  0  0  0  0  0  0  0  0
  -18.5417  -16.5197   21.5617 O   0  0  0  0  0  0  0  0  0  0  0  0
  -29.4699  -30.0872   21.4010 O   0  0  0  0  0  0  0  0  0  0  0  0
  -30.7540  -17.3391   18.9926 O   0  0  0  0  0  0  0  0  0  0  0  0
  -23.1790  -29.4313   23.3803 O   0  0  0  0  0  0  0  0  0  0  0  0
  -22.7187  -21.2831   24.0544 O   0  0  0  0  0  0  0  0  0  1  0  0
  -35.7026  -16.3859   16.7550 F   0  0  0  0  0  0  0  0  0  0  0  0
  -26.8536  -32.0702   24.8708 F   0  0  0  0  0  0  0  0  0  0  0  0
  -31.0481  -15.5401   16.9142 F   0  0  0  0  0  0  0  0  0  0  0  0
  1  2  1  0  0  0  0
  1  5  2  0  0  0  0
  2  6  2  0  0  0  0
  3 12  2  0  0  0  0
  3 22  1  0  0  0  0
  4 13  1  0  0  0  0
  4 22  2  0  0  0  0
  5 24  1  0  0  0  0
  6 26  1  0  0  0  0
  7 14  2  0  0  0  0
  7 25  1  0  0  0  0
  8 10  2  0  0  0  0
  8 28  1  0  0  0  0
  9 11  1  0  0  0  0
  9 28  2  0  0  0  0
 10 29  1  0  0  0  0
 11 29  2  0  0  0  0
 12 31  1  0  0  0  0
 13 31  2  0  0  0  0
 14 32  1  0  0  0  0
 15 16  2  0  0  0  0
 15 33  1  0  0  0  0
 16 35  1  0  0  0  0
 17 27  1  0  0  0  0
 17 32  2  0  0  0  0
 18 30  1  0  0  0  0
 18 34  2  0  0  0  0
 19 30  2  0  0  0  0
 19 36  1  0  0  0  0
 20 34  1  0  0  0  0
 20 36  2  0  0  0  0
 21 35  2  0  0  0  0
 21 37  1  0  0  0  0
 22 38  1  0  0  0  0
 23 38  1  0  0  0  0
 23 39  2  0  0  0  0
 23 40  1  0  0  0  0
 24 26  2  0  0  0  0
 24 45  1  0  0  0  0
 25 27  2  0  0  0  0
 25 46  1  0  0  0  0
 26 54  1  0  0  0  0
 27 47  1  0  0  0  0
 28 62  1  0  0  0  0
 29 75  1  0  0  0  0
 30 74  1  0  0  0  0
 31 84  1  0  0  0  0
 32 86  1  0  0  0  0
 33 37  2  0  0  0  0
 33 84  1  0  0  0  0
 34 85  1  0  0  0  0
 35 87  1  0  0  0  0
 36 88  1  0  0  0  0
 37 89  1  0  0  0  0
 38 68  2  0  0  0  0
 39 69  1  0  0  0  0
 39 72  1  0  0  0  0
 40 73  1  0  0  0  0
 40 79  2  0  0  0  0
 41 55  1  0  0  0  0
 41 76  1  0  0  0  0
 41 80  2  0  0  0  0
 42 65  1  0  0  0  0
 42 70  1  0  0  0  0
 42 81  2  0  0  0  0
 43 66  1  0  0  0  0
 43 77  1  0  0  0  0
 43 82  2  0  0  0  0
 44 71  1  0  0  0  0
 44 74  1  0  0  0  0
 44 83  2  0  0  0  0
 45 48  1  0  0  0  0
 46 55  1  0  0  0  0
 47 70  1  0  0  0  0
 48 50  1  0  0  0  0
 49 51  1  0  0  0  0
 49 52  1  0  0  0  0
 50 54  1  0  0  0  0
 51 56  1  0  0  0  0
 52 71  1  0  0  0  0
 53 56  1  0  0  0  0
 53 71  1  0  0  0  0
 54 76  1  0  0  0  0
 55 70  1  0  0  0  0
 56 69  1  0  0  0  0
 57 66  1  0  0  0  0
 58 67  1  0  0  0  0
 59 67  1  0  0  0  0
 60 67  1  0  0  0  0
 61 78  1  0  0  0  0
 62 63  1  0  0  0  0
 63 64  1  0  0  0  0
 64 85  1  0  0  0  0
 65 67  1  0  0  0  0
 65 77  1  0  0  0  0
 66 78  1  0  0  0  0
 68 69  1  0  0  0  0
 75 86  1  0  0  0  0
M  CHG  1  78   1
M  ISO  4  44 100  74 100  75 101  86 101
M  END
> <Batch ID>
0007

> <Smiles>
CNC(C)C(=O)NC(C(=O)N1Cc2cc([101O:1][101NH:1]c3ccc(CCCOc4cc(F)cc([100NH:0][100C:0](=O)N5CCCC(n6nc(-c7ccc(Oc8ccc(F)cc8F)cc7)c(C(N)=O)c6N)C5)c4)cc3)ccc2CC1C(=O)NC1CCCc2ccccc21)C(C)(C)C

> <Shape>
0.212

> <Color>
0.065

> <Negative vol penalty>
0.000

$$$$

  -OEChem-04042320323D

 83 92  0     1  0  0  0  0  0999 V2000
  -27.5490  -34.3165   25.5178 C   0  0  0  0  0  0  0  0  0  0  0  0
  -28.0726  -33.0487   25.2858 C   0  0  0  0  0  0  0  0  0  0  0  0
  -23.1626   -9.7560   19.9100 C   0  0  0  0  0  0  0  0  0  0  0  0
  -23.9124   -9.7760   22.2066 C   0  0  0  0  0  0  0  0  0  0  0  0
  -26.2331  -34.6028   25.1569 C   0  0  0  0  0  0  0  0  0  0  0  0
  -27.2802  -32.0660   24.6937 C   0  0  0  0  0  0  0  0  0  0  0  0
  -29.1225  -27.6817   20.8350 C   0  0  0  0  0  0  0  0  0  0  0  0
  -30.9477  -19.3500   20.7005 C   0  0  0  0  0  0  0  0  0  0  0  0
  -30.8454  -17.9591   20.6808 C   0  0  0  0  0  0  0  0  0  0  0  0
  -22.4747   -8.5656   20.1449 C   0  0  0  0  0  0  0  0  0  0  0  0
  -23.2244   -8.5855   22.4416 C   0  0  0  0  0  0  0  0  0  0  0  0
  -29.4390  -26.3372   21.0250 C   0  0  0  0  0  0  0  0  0  0  0  0
  -20.0366   -7.6256   23.0218 C   0  0  0  0  0  0  0  0  0  0  0  0
  -19.2780   -7.5367   24.1889 C   0  0  0  0  0  0  0  0  0  0  0  0
  -27.2010  -25.7236   20.3661 C   0  0  0  0  0  0  0  0  0  0  0  0
  -29.3027  -19.4461   22.4673 C   0  0  0  0  0  0  0  0  0  0  0  0
  -20.6093   -5.6543   24.9109 C   0  0  0  0  0  0  0  0  0  0  0  0
  -23.8815  -10.3613   20.9409 C   0  0  0  0  0  0  0  0  0  0  0  0
  -24.1006  -12.9011   20.8482 C   0  0  0  0  0  0  0  0  0  0  0  0
  -25.4271  -33.6259   24.5512 C   0  0  0  0  0  0  0  0  0  0  0  0
  -27.8375  -28.0585   20.4190 C   0  0  0  0  0  0  0  0  0  0  0  0
  -25.9518  -32.3390   24.3255 C   0  0  0  0  0  0  0  0  0  0  0  0
  -26.8715  -27.0733   20.1692 C   0  0  0  0  0  0  0  0  0  0  0  0
  -30.1764  -20.0935   21.5938 C   0  0  0  0  0  0  0  0  0  0  0  0
  -29.9717  -17.3116   21.5544 C   0  0  0  0  0  0  0  0  0  0  0  0
  -22.5056   -7.9803   21.4107 C   0  0  0  0  0  0  0  0  0  0  0  0
  -28.4773  -25.3581   20.7933 C   0  0  0  0  0  0  0  0  0  0  0  0
  -21.0815   -6.7288   22.7992 C   0  0  0  0  0  0  0  0  0  0  0  0
  -19.5643   -6.5511   25.1335 C   0  0  0  0  0  0  0  0  0  0  0  0
  -29.2004  -18.0551   22.4476 C   0  0  0  0  0  0  0  0  0  0  0  0
  -21.3679   -5.7432   23.7437 C   0  0  0  0  0  0  0  0  0  0  0  0
  -24.5927  -11.5907   20.6987 C   0  0  0  0  0  0  0  0  0  0  0  0
  -25.1564  -13.7065   20.4974 C   0  0  0  0  0  0  0  0  0  0  0  0
  -22.8049  -13.3502   21.2668 C   0  0  0  0  0  0  0  0  0  0  0  0
  -25.4986  -29.8105   21.6695 C   0  0  0  0  0  0  0  0  0  0  0  0
  -24.1193  -29.3325   18.7727 C   0  0  0  0  0  0  0  0  0  0  0  0
  -23.8767  -27.4143   15.9605 C   0  0  0  0  0  0  0  0  0  0  0  0
  -30.5646  -15.0146   20.7066 C   0  0  0  0  0  0  0  0  0  0  0  0
  -23.9957  -33.9680   24.2217 C   0  0  0  0  0  0  0  0  0  0  0  0
  -27.5200  -29.5113   20.1929 C   0  0  0  0  0  0  0  0  0  0  0  0
  -25.4834  -27.4242   19.7019 C   0  0  0  0  0  0  0  0  0  0  0  0
  -23.3405  -32.9828   23.2571 C   0  0  0  0  0  0  0  0  0  0  0  0
  -29.5780  -12.5743   18.3089 C   0  0  0  0  0  0  0  0  0  0  0  0
  -23.6263  -31.5468   23.6849 C   0  0  0  0  0  0  0  0  0  0  0  0
  -28.1526  -12.2087   18.7292 C   0  0  0  0  0  0  0  0  0  0  0  0
  -31.1393  -23.6438   21.3325 C   0  0  0  0  0  0  0  0  0  0  0  0
  -30.4762  -12.8348   19.5168 C   0  0  0  0  0  0  0  0  0  0  0  0
  -31.1624  -22.2347   20.7404 C   0  0  0  0  0  0  0  0  0  0  0  0
  -28.5310  -13.4513   20.8971 C   0  0  0  0  0  0  0  0  0  0  0  0
  -29.5082  -22.3341   22.5080 C   0  0  0  0  0  0  0  0  0  0  0  0
  -25.1313  -31.2538   23.6627 C   0  0  1  0  0  0  0  0  0  0  0  0
  -26.0265  -29.8144   20.2627 C   0  0  1  0  0  0  0  0  0  0  0  0
  -27.5723  -13.2433   19.7133 C   0  0  2  0  0  0  0  0  0  0  0  0
  -29.7600  -23.7412   21.9679 C   0  0  2  0  0  0  0  0  0  1  0  0
  -22.6355  -27.2556   13.7853 C   0  0  0  0  0  0  0  0  0  0  0  0
  -21.6615  -28.2954   20.2537 C   0  0  0  0  0  0  0  0  0  0  0  0
  -20.8730  -27.2921   18.0997 C   0  0  0  0  0  0  0  0  0  0  0  0
  -21.1558  -29.7630   18.2929 C   0  0  0  0  0  0  0  0  0  0  0  0
  -26.3705  -27.6620   14.3860 C   0  0  0  0  0  0  0  0  0  0  0  0
  -23.2046  -28.2858   18.1838 C   0  0  1  0  0  0  0  0  0  0  0  0
  -23.8776  -27.7815   14.4875 C   0  0  2  0  0  0  0  0  0  0  0  0
  -21.7492  -28.4023   18.7182 C   0  0  0  0  0  0  0  0  0  0  0  0
  -25.8624  -11.5608   20.2850 N   0  0  0  0  0  0  0  0  0  0  0  0
  -26.1769  -12.8624   20.1714 N   0  0  0  0  0  0  0  0  0  0  0  0
  -30.2780  -21.4687   21.6135 N   0  0  3  0  0  0  0  0  0  0  0  0
  -25.2196  -28.8587   19.5013 N   0  0  0  0  0  0  0  0  0  0  0  0
  -29.8644  -13.8280   20.4023 N   0  0  0  0  0  0  0  0  0  0  0  0
  -25.3021  -15.0473   20.4389 N   0  0  0  0  0  0  0  0  0  0  0  0
  -21.8371  -12.3895   21.5904 N   0  0  0  0  0  0  0  0  0  0  0  0
  -29.8698  -15.8985   21.5316 N   0  0  0  0  0  0  0  0  0  0  0  0
  -25.5836  -31.0343   22.3056 N   0  0  0  0  0  0  0  0  0  0  0  0
  -23.3210  -28.4106   16.7349 N   0  0  0  0  0  0  0  0  0  0  0  0
  -25.0769  -27.2102   13.8120 N   0  3  0  0  0  0  0  0  0  0  0  0
  -22.5089  -14.5673   21.3357 O   0  0  0  0  0  0  0  0  0  0  0  0
  -25.0463  -28.7744   22.1423 O   0  0  0  0  0  0  0  0  0  0  0  0
  -23.8709  -30.5263   18.5869 O   0  0  0  0  0  0  0  0  0  0  0  0
  -24.3210  -26.3485   16.3815 O   0  0  0  0  0  0  0  0  0  0  0  0
  -31.6859  -15.2428   20.2457 O   0  0  0  0  0  0  0  0  0  0  0  0
  -21.8343   -6.8188   21.6403 O   0  0  0  0  0  0  0  0  0  0  0  0
  -28.7834  -24.0452   20.9786 O   0  0  0  0  0  0  0  0  0  1  0  0
  -18.8367   -6.4668   26.2549 F   0  0  0  0  0  0  0  0  0  0  0  0
  -28.3571  -17.4432   23.2914 F   0  0  0  0  0  0  0  0  0  0  0  0
  -22.3713   -4.8795   23.5360 F   0  0  0  0  0  0  0  0  0  0  0  0
  1  2  1  0  0  0  0
  1  5  2  0  0  0  0
  2  6  2  0  0  0  0
  3 10  2  0  0  0  0
  3 18  1  0  0  0  0
  4 11  1  0  0  0  0
  4 18  2  0  0  0  0
  5 20  1  0  0  0  0
  6 22  1  0  0  0  0
  7 12  2  0  0  0  0
  7 21  1  0  0  0  0
  8  9  2  0  0  0  0
  8 24  1  0  0  0  0
  9 25  1  0  0  0  0
 10 26  1  0  0  0  0
 11 26  2  0  0  0  0
 12 27  1  0  0  0  0
 13 14  2  0  0  0  0
 13 28  1  0  0  0  0
 14 29  1  0  0  0  0
 15 23  1  0  0  0  0
 15 27  2  0  0  0  0
 16 24  2  0  0  0  0
 16 30  1  0  0  0  0
 17 29  2  0  0  0  0
 17 31  1  0  0  0  0
 18 32  1  0  0  0  0
 19 32  1  0  0  0  0
 19 33  2  0  0  0  0
 19 34  1  0  0  0  0
 20 22  2  0  0  0  0
 20 39  1  0  0  0  0
 21 23  2  0  0  0  0
 21 40  1  0  0  0  0
 22 51  1  0  0  0  0
 23 41  1  0  0  0  0
 24 65  1  0  0  0  0
 25 30  2  0  0  0  0
 25 70  1  0  0  0  0
 26 79  1  0  0  0  0
 27 80  1  0  0  0  0
 28 31  2  0  0  0  0
 28 79  1  0  0  0  0
 29 81  1  0  0  0  0
 30 82  1  0  0  0  0
 31 83  1  0  0  0  0
 32 63  2  0  0  0  0
 33 64  1  0  0  0  0
 33 68  1  0  0  0  0
 34 69  1  0  0  0  0
 34 74  2  0  0  0  0
 35 52  1  0  0  0  0
 35 71  1  0  0  0  0
 35 75  2  0  0  0  0
 36 60  1  0  0  0  0
 36 66  1  0  0  0  0
 36 76  2  0  0  0  0
 37 61  1  0  0  0  0
 37 72  1  0  0  0  0
 37 77  2  0  0  0  0
 38 67  1  0  0  0  0
 38 70  1  0  0  0  0
 38 78  2  0  0  0  0
 39 42  1  0  0  0  0
 40 52  1  0  0  0  0
 41 66  1  0  0  0  0
 42 44  1  0  0  0  0
 43 45  1  0  0  0  0
 43 47  1  0  0  0  0
 44 51  1  0  0  0  0
 45 53  1  0  0  0  0
 46 48  1  0  0  0  0
 46 54  1  0  0  0  0
 47 67  1  0  0  0  0
 48 65  1  0  0  0  0
 49 53  1  0  0  0  0
 49 67  1  0  0  0  0
 50 54  1  0  0  0  0
 50 65  1  0  0  0  0
 51 71  1  0  0  0  0
 52 66  1  0  0  0  0
 53 64  1  0  0  0  0
 54 80  1  0  0  0  0
 55 61  1  0  0  0  0
 56 62  1  0  0  0  0
 57 62  1  0  0  0  0
 58 62  1  0  0  0  0
 59 73  1  0  0  0  0
 60 62  1  0  0  0  0
 60 72  1  0  0  0  0
 61 73  1  0  0  0  0
 63 64  1  0  0  0  0
M  CHG  1  73   1
M  ISO  4  38 100  54 101  70 100  80 101
M  END
> <Batch ID>
0007

> <Smiles>
CNC(C)C(=O)NC(C(=O)N1Cc2cc([101O:1][101CH:1]3CCN(c4ccc([100NH:0][100C:0](=O)N5CCCC(n6nc(-c7ccc(Oc8ccc(F)cc8F)cc7)c(C(N)=O)c6N)C5)c(F)c4)C3)ccc2CC1C(=O)NC1CCCc2ccccc21)C(C)(C)C

> <Shape>
0.353

> <Color>
0.208

> <Negative vol penalty>
0.000

$$$$

  -OEChem-04042320323D

 80 88  0     1  0  0  0  0  0999 V2000
  -18.4718  -33.3272   23.6746 C   0  0  0  0  0  0  0  0  0  0  0  0
  -19.7703  -33.0129   24.0627 C   0  0  0  0  0  0  0  0  0  0  0  0
  -27.1294  -14.4308   19.0050 C   0  0  0  0  0  0  0  0  0  0  0  0
  -26.2545  -14.3986   21.2567 C   0  0  0  0  0  0  0  0  0  0  0  0
  -17.5886  -32.3113   23.3118 C   0  0  0  0  0  0  0  0  0  0  0  0
  -20.1859  -31.6821   24.0893 C   0  0  0  0  0  0  0  0  0  0  0  0
  -25.7961  -29.4699   20.1493 C   0  0  0  0  0  0  0  0  0  0  0  0
  -26.1675  -13.4978   18.6179 C   0  0  0  0  0  0  0  0  0  0  0  0
  -25.2925  -13.4656   20.8696 C   0  0  0  0  0  0  0  0  0  0  0  0
  -26.9888  -29.0137   19.5877 C   0  0  0  0  0  0  0  0  0  0  0  0
  -25.1420  -10.1392   20.2839 C   0  0  0  0  0  0  0  0  0  0  0  0
  -24.9277   -9.0441   21.1208 C   0  0  0  0  0  0  0  0  0  0  0  0
  -26.5298  -26.7823   20.3988 C   0  0  0  0  0  0  0  0  0  0  0  0
  -22.6213   -9.7076   21.3985 C   0  0  0  0  0  0  0  0  0  0  0  0
  -27.1730  -14.8812   20.3244 C   0  0  0  0  0  0  0  0  0  0  0  0
  -29.5655  -15.6979   20.6651 C   0  0  0  0  0  0  0  0  0  0  0  0
  -17.9966  -30.9681   23.3247 C   0  0  0  0  0  0  0  0  0  0  0  0
  -24.9572  -28.5797   20.8254 C   0  0  0  0  0  0  0  0  0  0  0  0
  -19.3069  -30.6471   23.7277 C   0  0  0  0  0  0  0  0  0  0  0  0
  -25.3278  -27.2309   20.9527 C   0  0  0  0  0  0  0  0  0  0  0  0
  -25.2491  -13.0152   19.5502 C   0  0  0  0  0  0  0  0  0  0  0  0
  -27.3548  -27.6733   19.7124 C   0  0  0  0  0  0  0  0  0  0  0  0
  -24.0960  -11.0186   20.0044 C   0  0  0  0  0  0  0  0  0  0  0  0
  -23.6674   -8.8282   21.6780 C   0  0  0  0  0  0  0  0  0  0  0  0
  -22.8356  -10.8028   20.5616 C   0  0  0  0  0  0  0  0  0  0  0  0
  -28.1667  -15.8445   20.7251 C   0  0  0  0  0  0  0  0  0  0  0  0
  -30.0563  -16.8826   21.1572 C   0  0  0  0  0  0  0  0  0  0  0  0
  -30.6116  -25.3726   20.4175 C   0  0  0  0  0  0  0  0  0  0  0  0
  -30.3511  -14.5899   20.2057 C   0  0  0  0  0  0  0  0  0  0  0  0
  -21.7498  -28.0707   22.7042 C   0  0  0  0  0  0  0  0  0  0  0  0
  -22.1114  -25.6303   20.8810 C   0  0  0  0  0  0  0  0  0  0  0  0
  -21.6711  -22.9158   18.8624 C   0  0  0  0  0  0  0  0  0  0  0  0
  -30.0303  -22.3533   21.2889 C   0  0  0  0  0  0  0  0  0  0  0  0
  -16.9919  -29.9008   22.9697 C   0  0  0  0  0  0  0  0  0  0  0  0
  -23.6929  -29.0397   21.4991 C   0  0  0  0  0  0  0  0  0  0  0  0
  -24.4110  -26.3165   21.7185 C   0  0  0  0  0  0  0  0  0  0  0  0
  -17.6249  -28.5455   22.6651 C   0  0  0  0  0  0  0  0  0  0  0  0
  -31.9916  -26.6346   22.6747 C   0  0  0  0  0  0  0  0  0  0  0  0
  -27.7114  -20.6935   23.5172 C   0  0  0  0  0  0  0  0  0  0  0  0
  -18.6634  -28.1911   23.7247 C   0  0  0  0  0  0  0  0  0  0  0  0
  -30.9974  -25.5208   22.9403 C   0  0  0  0  0  0  0  0  0  0  0  0
  -27.7421  -19.2625   22.9772 C   0  0  0  0  0  0  0  0  0  0  0  0
  -31.5189  -27.4662   21.4966 C   0  0  0  0  0  0  0  0  0  0  0  0
  -27.7986  -21.7133   22.3856 C   0  0  0  0  0  0  0  0  0  0  0  0
  -29.0150  -20.1172   20.9550 C   0  0  0  0  0  0  0  0  0  0  0  0
  -19.8027  -29.2174   23.7456 C   0  0  1  0  0  0  0  0  0  0  0  0
  -30.9229  -24.6293   21.7137 C   0  0  1  0  0  0  0  0  0  0  0  0
  -22.5662  -27.9922   21.4477 C   0  0  1  0  0  0  0  0  0  0  0  0
  -28.9528  -19.0387   22.0518 C   0  0  2  0  0  0  0  0  0  0  0  0
  -20.5412  -20.6762   18.7917 C   0  0  0  0  0  0  0  0  0  0  0  0
  -24.2566  -24.4939   22.7277 C   0  0  0  0  0  0  0  0  0  0  0  0
  -23.6803  -22.2113   21.8758 C   0  0  0  0  0  0  0  0  0  0  0  0
  -21.9659  -23.5575   23.0887 C   0  0  0  0  0  0  0  0  0  0  0  0
  -20.0310  -23.6875   16.5229 C   0  0  0  0  0  0  0  0  0  0  0  0
  -30.9135  -27.4360   19.0999 C   0  0  0  0  0  0  0  0  0  0  0  0
  -29.5874  -28.1742   19.0624 C   0  0  0  0  0  0  0  0  0  1  0  0
  -22.6299  -24.2214   20.7413 C   0  0  1  0  0  0  0  0  0  0  0  0
  -20.4223  -22.1546   18.4557 C   0  0  2  0  0  0  0  0  0  0  0  0
  -23.1411  -23.6416   22.0904 C   0  0  0  0  0  0  0  0  0  0  0  0
  -27.7930  -17.0289   21.2166 N   0  0  0  0  0  0  0  0  0  0  0  0
  -28.9642  -17.6372   21.4700 N   0  0  0  0  0  0  0  0  0  0  0  0
  -31.0814  -26.6865   20.3381 N   0  0  0  0  0  0  0  0  0  0  0  0
  -23.0114  -26.5912   21.3576 N   0  0  0  0  0  0  0  0  0  0  0  0
  -28.9825  -21.4559   21.5535 N   0  0  0  0  0  0  0  0  0  0  0  0
  -31.3112  -17.3419   21.3485 N   0  0  0  0  0  0  0  0  0  0  0  0
  -29.6864  -13.4504   19.7322 N   0  0  0  0  0  0  0  0  0  0  0  0
  -20.7139  -28.9834   22.6459 N   0  0  0  0  0  0  0  0  0  0  0  0
  -21.5544  -23.4495   20.1284 N   0  0  0  0  0  0  0  0  0  0  0  0
  -29.9200  -23.6022   21.8879 N   0  0  0  0  0  0  0  0  0  0  0  0
  -20.1899  -22.2861   16.9895 N   0  3  0  0  0  0  0  0  0  0  0  0
  -30.0719  -24.7852   19.4755 O   0  0  0  0  0  0  0  0  0  0  0  0
  -31.6051  -14.6034   20.2301 O   0  0  0  0  0  0  0  0  0  0  0  0
  -22.0367  -27.3552   23.6568 O   0  0  0  0  0  0  0  0  0  0  0  0
  -20.9391  -25.8740   20.5817 O   0  0  0  0  0  0  0  0  0  0  0  0
  -22.6535  -23.0228   18.1317 O   0  0  0  0  0  0  0  0  0  0  0  0
  -30.9963  -22.0613   20.5756 O   0  0  0  0  0  0  0  0  0  0  0  0
  -24.3102  -12.1050   19.1727 O   0  0  0  0  0  0  0  0  0  0  0  0
  -28.5184  -27.2337   19.1578 O   0  0  0  0  0  0  0  0  0  1  0  0
  -23.4613   -7.7757   22.4804 F   0  0  0  0  0  0  0  0  0  0  0  0
  -21.8265  -11.6435   20.2958 F   0  0  0  0  0  0  0  0  0  0  0  0
  1  2  1  0  0  0  0
  1  5  2  0  0  0  0
  2  6  2  0  0  0  0
  3  8  2  0  0  0  0
  3 15  1  0  0  0  0
  4  9  1  0  0  0  0
  4 15  2  0  0  0  0
  5 17  1  0  0  0  0
  6 19  1  0  0  0  0
  7 10  2  0  0  0  0
  7 18  1  0  0  0  0
  8 21  1  0  0  0  0
  9 21  2  0  0  0  0
 10 22  1  0  0  0  0
 11 12  2  0  0  0  0
 11 23  1  0  0  0  0
 12 24  1  0  0  0  0
 13 20  1  0  0  0  0
 13 22  2  0  0  0  0
 14 24  2  0  0  0  0
 14 25  1  0  0  0  0
 15 26  1  0  0  0  0
 16 26  1  0  0  0  0
 16 27  2  0  0  0  0
 16 29  1  0  0  0  0
 17 19  2  0  0  0  0
 17 34  1  0  0  0  0
 18 20  2  0  0  0  0
 18 35  1  0  0  0  0
 19 46  1  0  0  0  0
 20 36  1  0  0  0  0
 21 77  1  0  0  0  0
 22 78  1  0  0  0  0
 23 25  2  0  0  0  0
 23 77  1  0  0  0  0
 24 79  1  0  0  0  0
 25 80  1  0  0  0  0
 26 60  2  0  0  0  0
 27 61  1  0  0  0  0
 27 65  1  0  0  0  0
 28 47  1  0  0  0  0
 28 62  1  0  0  0  0
 28 71  2  0  0  0  0
 29 66  1  0  0  0  0
 29 72  2  0  0  0  0
 30 48  1  0  0  0  0
 30 67  1  0  0  0  0
 30 73  2  0  0  0  0
 31 57  1  0  0  0  0
 31 63  1  0  0  0  0
 31 74  2  0  0  0  0
 32 58  1  0  0  0  0
 32 68  1  0  0  0  0
 32 75  2  0  0  0  0
 33 64  1  0  0  0  0
 33 69  1  0  0  0  0
 33 76  2  0  0  0  0
 34 37  1  0  0  0  0
 35 48  1  0  0  0  0
 36 63  1  0  0  0  0
 37 40  1  0  0  0  0
 38 41  1  0  0  0  0
 38 43  1  0  0  0  0
 39 42  1  0  0  0  0
 39 44  1  0  0  0  0
 40 46  1  0  0  0  0
 41 47  1  0  0  0  0
 42 49  1  0  0  0  0
 43 62  1  0  0  0  0
 44 64  1  0  0  0  0
 45 49  1  0  0  0  0
 45 64  1  0  0  0  0
 46 67  1  0  0  0  0
 47 69  1  0  0  0  0
 48 63  1  0  0  0  0
 49 61  1  0  0  0  0
 50 58  1  0  0  0  0
 51 59  1  0  0  0  0
 52 59  1  0  0  0  0
 53 59  1  0  0  0  0
 54 70  1  0  0  0  0
 55 56  1  0  0  0  0
 55 62  1  0  0  0  0
 56 78  1  0  0  0  0
 57 59  1  0  0  0  0
 57 68  1  0  0  0  0
 58 70  1  0  0  0  0
 60 61  1  0  0  0  0
M  CHG  1  70   1
M  ISO  4  33 100  56 101  69 100  78 101
M  END
> <Batch ID>
0007

> <Smiles>
CNC(C)C(=O)NC(C(=O)N1Cc2cc([101O:1][101CH2:1]CN3CCCC([100NH:0][100C:0](=O)N4CCCC(n5nc(-c6ccc(Oc7ccc(F)cc7F)cc6)c(C(N)=O)c5N)C4)C3=O)ccc2CC1C(=O)NC1CCCc2ccccc21)C(C)(C)C

> <Shape>
0.259

> <Color>
0.087

> <Negative vol penalty>
0.000

$$$$

  -OEChem-04042320323D

 84 92  0     1  0  0  0  0  0999 V2000
  -31.9677  -18.1865   19.5296 C   0  0  0  0  0  0  0  0  0  0  0  0
  -31.5088  -17.4893   20.6414 C   0  0  0  0  0  0  0  0  0  0  0  0
  -26.6887  -29.7545   19.2968 C   0  0  0  0  0  0  0  0  0  0  0  0
  -26.2705  -29.0525   21.5704 C   0  0  0  0  0  0  0  0  0  0  0  0
  -27.2355  -20.6078   24.9700 C   0  0  0  0  0  0  0  0  0  0  0  0
  -31.1690  -18.2802   18.3919 C   0  0  0  0  0  0  0  0  0  0  0  0
  -30.2560  -16.8755   20.6117 C   0  0  0  0  0  0  0  0  0  0  0  0
  -29.0677  -14.0342   24.4481 C   0  0  0  0  0  0  0  0  0  0  0  0
  -27.8336  -21.4635   24.0450 C   0  0  0  0  0  0  0  0  0  0  0  0
  -25.5406  -30.5459   19.3299 C   0  0  0  0  0  0  0  0  0  0  0  0
  -25.1223  -29.8439   21.6036 C   0  0  0  0  0  0  0  0  0  0  0  0
  -28.7604  -14.5542   25.7046 C   0  0  0  0  0  0  0  0  0  0  0  0
  -22.5221  -32.4714   18.6942 C   0  0  0  0  0  0  0  0  0  0  0  0
  -21.6667  -32.4222   17.5935 C   0  0  0  0  0  0  0  0  0  0  0  0
  -26.4170  -14.1633   25.2866 C   0  0  0  0  0  0  0  0  0  0  0  0
  -27.7322  -19.7246   22.3707 C   0  0  0  0  0  0  0  0  0  0  0  0
  -21.3437  -30.0547   17.9504 C   0  0  0  0  0  0  0  0  0  0  0  0
  -27.0537  -29.0078   20.4171 C   0  0  0  0  0  0  0  0  0  0  0  0
  -26.8858  -19.3104   24.5954 C   0  0  0  0  0  0  0  0  0  0  0  0
  -29.5460  -28.5714   20.7418 C   0  0  0  0  0  0  0  0  0  0  0  0
  -29.9008  -17.6776   18.3535 C   0  0  0  0  0  0  0  0  0  0  0  0
  -28.0493  -13.5841   23.5956 C   0  0  0  0  0  0  0  0  0  0  0  0
  -29.4450  -16.9385   19.4641 C   0  0  0  0  0  0  0  0  0  0  0  0
  -26.7142  -13.6356   24.0208 C   0  0  0  0  0  0  0  0  0  0  0  0
  -28.0820  -21.0220   22.7454 C   0  0  0  0  0  0  0  0  0  0  0  0
  -24.7574  -30.5906   20.4833 C   0  0  0  0  0  0  0  0  0  0  0  0
  -27.4347  -14.6216   26.1229 C   0  0  0  0  0  0  0  0  0  0  0  0
  -22.7883  -31.3122   19.4230 C   0  0  0  0  0  0  0  0  0  0  0  0
  -21.0775  -31.2139   17.2217 C   0  0  0  0  0  0  0  0  0  0  0  0
  -27.1341  -18.8689   23.2958 C   0  0  0  0  0  0  0  0  0  0  0  0
  -22.1991  -30.1039   19.0511 C   0  0  0  0  0  0  0  0  0  0  0  0
  -28.2393  -28.1897   20.3833 C   0  0  0  0  0  0  0  0  0  0  0  0
  -30.3023  -27.4439   20.5337 C   0  0  0  0  0  0  0  0  0  0  0  0
  -26.2516  -18.4016   25.5848 C   0  0  0  0  0  0  0  0  0  0  0  0
  -30.0326  -29.8324   21.2202 C   0  0  0  0  0  0  0  0  0  0  0  0
  -26.9992  -14.4258   20.7159 C   0  0  0  0  0  0  0  0  0  0  0  0
  -25.1169  -11.8072   21.0655 C   0  0  0  0  0  0  0  0  0  0  0  0
  -23.5850   -9.6004   23.1703 C   0  0  0  0  0  0  0  0  0  0  0  0
  -29.0052  -21.6113   20.4768 C   0  0  0  0  0  0  0  0  0  0  0  0
  -29.0811  -17.8038   17.0936 C   0  0  0  0  0  0  0  0  0  0  0  0
  -28.3995  -13.0011   22.2540 C   0  0  0  0  0  0  0  0  0  0  0  0
  -25.5856  -13.1468   23.1515 C   0  0  0  0  0  0  0  0  0  0  0  0
  -27.6020  -17.5044   17.3141 C   0  0  0  0  0  0  0  0  0  0  0  0
  -30.4700  -23.4929   17.8327 C   0  0  0  0  0  0  0  0  0  0  0  0
  -27.4440  -16.1935   18.0700 C   0  0  0  0  0  0  0  0  0  0  0  0
  -30.1884  -24.9458   18.2224 C   0  0  0  0  0  0  0  0  0  0  0  0
  -29.3102  -22.5709   18.2050 C   0  0  0  0  0  0  0  0  0  0  0  0
  -28.5963  -24.1047   19.9957 C   0  0  0  0  0  0  0  0  0  0  0  0
  -28.0731  -16.2888   19.4657 C   0  0  1  0  0  0  0  0  0  0  0  0
  -27.2414  -13.0470   21.2619 C   0  0  1  0  0  0  0  0  0  0  0  0
  -29.7632  -25.0608   19.6994 C   0  0  2  0  0  0  0  0  0  0  0  0
  -22.0831   -7.5900   23.1635 C   0  0  0  0  0  0  0  0  0  0  0  0
  -22.7247  -13.5995   20.4532 C   0  0  0  0  0  0  0  0  0  0  0  0
  -21.2366  -11.8113   21.3786 C   0  0  0  0  0  0  0  0  0  0  0  0
  -22.6436  -11.3459   19.3720 C   0  0  0  0  0  0  0  0  0  0  0  0
  -25.6333   -7.9214   24.4911 C   0  0  0  0  0  0  0  0  0  0  0  0
  -27.1981  -17.0774   28.7484 C   0  0  0  0  0  0  0  0  0  0  0  0
  -26.0913  -17.7916   27.9844 C   0  0  0  0  0  0  0  0  0  0  0  0
  -28.0063  -16.1283   27.8719 C   0  0  0  0  0  0  0  0  0  1  0  0
  -23.7451  -11.5455   21.6388 C   0  0  1  0  0  0  0  0  0  0  0  0
  -23.5215   -8.0837   23.1671 C   0  0  2  0  0  0  0  0  0  0  0  0
  -22.6084  -12.0866   20.7265 C   0  0  0  0  0  0  0  0  0  0  0  0
  -28.1661  -26.9190   19.9781 N   0  0  0  0  0  0  0  0  0  0  0  0
  -29.4364  -26.4926   20.0806 N   0  0  0  0  0  0  0  0  0  0  0  0
  -25.9784  -12.5911   21.8459 N   0  0  0  0  0  0  0  0  0  0  0  0
  -28.9655  -22.7311   19.6193 N   0  0  0  0  0  0  0  0  0  0  0  0
  -31.6170  -27.1835   20.6959 N   0  0  0  0  0  0  0  0  0  0  0  0
  -29.1204  -30.8848   21.3765 N   0  0  0  0  0  0  0  0  0  0  0  0
  -28.6895  -21.8914   21.8059 N   0  0  0  0  0  0  0  0  0  0  0  0
  -26.6016  -18.6042   26.9150 N   0  0  0  0  0  0  0  0  0  0  0  0
  -28.0894  -14.9734   20.0670 N   0  0  0  0  0  0  0  0  0  0  0  0
  -23.6757  -10.1105   21.8925 N   0  0  0  0  0  0  0  0  0  0  0  0
  -24.2039   -7.5341   24.3726 N   0  3  0  0  0  0  0  0  0  0  0  0
  -25.4858  -17.5260   25.1905 O   0  0  0  0  0  0  0  0  0  0  0  0
  -31.2435  -30.0250   21.4851 O   0  0  0  0  0  0  0  0  0  0  0  0
  -25.9039  -14.9530   20.8705 O   0  0  0  0  0  0  0  0  0  0  0  0
  -25.4156  -11.3276   19.9690 O   0  0  0  0  0  0  0  0  0  0  0  0
  -23.5533  -10.2662   24.2029 O   0  0  0  0  0  0  0  0  0  0  0  0
  -29.3243  -20.4919   20.0680 O   0  0  0  0  0  0  0  0  0  0  0  0
  -23.6371  -31.3629   20.5160 O   0  0  0  0  0  0  0  0  0  0  0  0
  -27.1319  -15.1293   27.3486 O   0  0  0  0  0  0  0  0  0  1  0  0
  -20.2549  -31.1671   16.1656 F   0  0  0  0  0  0  0  0  0  0  0  0
  -26.8026  -17.6239   22.9247 F   0  0  0  0  0  0  0  0  0  0  0  0
  -22.4501  -28.9872   19.7481 F   0  0  0  0  0  0  0  0  0  0  0  0
  1  2  1  0  0  0  0
  1  6  2  0  0  0  0
  2  7  2  0  0  0  0
  3 10  2  0  0  0  0
  3 18  1  0  0  0  0
  4 11  1  0  0  0  0
  4 18  2  0  0  0  0
  5  9  2  0  0  0  0
  5 19  1  0  0  0  0
  6 21  1  0  0  0  0
  7 23  1  0  0  0  0
  8 12  2  0  0  0  0
  8 22  1  0  0  0  0
  9 25  1  0  0  0  0
 10 26  1  0  0  0  0
 11 26  2  0  0  0  0
 12 27  1  0  0  0  0
 13 14  2  0  0  0  0
 13 28  1  0  0  0  0
 14 29  1  0  0  0  0
 15 24  1  0  0  0  0
 15 27  2  0  0  0  0
 16 25  2  0  0  0  0
 16 30  1  0  0  0  0
 17 29  2  0  0  0  0
 17 31  1  0  0  0  0
 18 32  1  0  0  0  0
 19 30  2  0  0  0  0
 19 34  1  0  0  0  0
 20 32  1  0  0  0  0
 20 33  2  0  0  0  0
 20 35  1  0  0  0  0
 21 23  2  0  0  0  0
 21 40  1  0  0  0  0
 22 24  2  0  0  0  0
 22 41  1  0  0  0  0
 23 49  1  0  0  0  0
 24 42  1  0  0  0  0
 25 69  1  0  0  0  0
 26 80  1  0  0  0  0
 27 81  1  0  0  0  0
 28 31  2  0  0  0  0
 28 80  1  0  0  0  0
 29 82  1  0  0  0  0
 30 83  1  0  0  0  0
 31 84  1  0  0  0  0
 32 63  2  0  0  0  0
 33 64  1  0  0  0  0
 33 67  1  0  0  0  0
 34 70  1  0  0  0  0
 34 74  2  0  0  0  0
 35 68  1  0  0  0  0
 35 75  2  0  0  0  0
 36 50  1  0  0  0  0
 36 71  1  0  0  0  0
 36 76  2  0  0  0  0
 37 60  1  0  0  0  0
 37 65  1  0  0  0  0
 37 77  2  0  0  0  0
 38 61  1  0  0  0  0
 38 72  1  0  0  0  0
 38 78  2  0  0  0  0
 39 66  1  0  0  0  0
 39 69  1  0  0  0  0
 39 79  2  0  0  0  0
 40 43  1  0  0  0  0
 41 50  1  0  0  0  0
 42 65  1  0  0  0  0
 43 45  1  0  0  0  0
 44 46  1  0  0  0  0
 44 47  1  0  0  0  0
 45 49  1  0  0  0  0
 46 51  1  0  0  0  0
 47 66  1  0  0  0  0
 48 51  1  0  0  0  0
 48 66  1  0  0  0  0
 49 71  1  0  0  0  0
 50 65  1  0  0  0  0
 51 64  1  0  0  0  0
 52 61  1  0  0  0  0
 53 62  1  0  0  0  0
 54 62  1  0  0  0  0
 55 62  1  0  0  0  0
 56 73  1  0  0  0  0
 57 58  1  0  0  0  0
 57 59  1  0  0  0  0
 58 70  1  0  0  0  0
 59 81  1  0  0  0  0
 60 62  1  0  0  0  0
 60 72  1  0  0  0  0
 61 73  1  0  0  0  0
 63 64  1  0  0  0  0
M  CHG  1  73   1
M  ISO  4  39 100  59 101  69 100  81 101
M  END
> <Batch ID>
0007

> <Smiles>
CNC(C)C(=O)NC(C(=O)N1Cc2cc([101O:1][101CH2:1]CCNC(=O)c3ccc([100NH:0][100C:0](=O)N4CCCC(n5nc(-c6ccc(Oc7ccc(F)cc7F)cc6)c(C(N)=O)c5N)C4)cc3F)ccc2CC1C(=O)NC1CCCc2ccccc21)C(C)(C)C

> <Shape>
0.227

> <Color>
0.061

> <Negative vol penalty>
0.000

$$$$

  -OEChem-04042320323D

 81 89  0     1  0  0  0  0  0999 V2000
  -24.2603  -29.1848   17.4882 C   0  0  0  0  0  0  0  0  0  0  0  0
  -25.1130  -28.1432   17.8393 C   0  0  0  0  0  0  0  0  0  0  0  0
  -23.1459   -9.7833   19.9863 C   0  0  0  0  0  0  0  0  0  0  0  0
  -23.8272   -9.9290   22.2997 C   0  0  0  0  0  0  0  0  0  0  0  0
  -23.8988  -30.1387   18.4386 C   0  0  0  0  0  0  0  0  0  0  0  0
  -25.6058  -28.0555   19.1408 C   0  0  0  0  0  0  0  0  0  0  0  0
  -26.7538  -22.9400   22.3061 C   0  0  0  0  0  0  0  0  0  0  0  0
  -22.4227   -8.6254   20.2721 C   0  0  0  0  0  0  0  0  0  0  0  0
  -23.1040   -8.7710   22.5856 C   0  0  0  0  0  0  0  0  0  0  0  0
  -27.9296  -22.2314   22.5493 C   0  0  0  0  0  0  0  0  0  0  0  0
  -19.4475   -7.8272   21.6665 C   0  0  0  0  0  0  0  0  0  0  0  0
  -18.1594   -7.7214   21.1420 C   0  0  0  0  0  0  0  0  0  0  0  0
  -28.1754  -23.3751   24.6590 C   0  0  0  0  0  0  0  0  0  0  0  0
  -31.2332  -19.3422   21.2898 C   0  0  0  0  0  0  0  0  0  0  0  0
  -30.9325  -18.7119   23.6026 C   0  0  0  0  0  0  0  0  0  0  0  0
  -18.8115   -5.7280   19.9427 C   0  0  0  0  0  0  0  0  0  0  0  0
  -23.8482  -10.4351   21.0000 C   0  0  0  0  0  0  0  0  0  0  0  0
  -24.1314  -12.9588   20.7586 C   0  0  0  0  0  0  0  0  0  0  0  0
  -24.3797  -30.0573   19.7550 C   0  0  0  0  0  0  0  0  0  0  0  0
  -26.2850  -23.8810   23.2341 C   0  0  0  0  0  0  0  0  0  0  0  0
  -25.2515  -29.0101   20.1094 C   0  0  0  0  0  0  0  0  0  0  0  0
  -26.9920  -24.0925   24.4264 C   0  0  0  0  0  0  0  0  0  0  0  0
  -31.3083  -19.6558   22.6468 C   0  0  0  0  0  0  0  0  0  0  0  0
  -30.7823  -18.0846   20.8884 C   0  0  0  0  0  0  0  0  0  0  0  0
  -30.4816  -17.4544   23.2013 C   0  0  0  0  0  0  0  0  0  0  0  0
  -30.4066  -17.1407   21.8442 C   0  0  0  0  0  0  0  0  0  0  0  0
  -22.4017   -8.1192   21.5718 C   0  0  0  0  0  0  0  0  0  0  0  0
  -28.6421  -22.4510   23.7245 C   0  0  0  0  0  0  0  0  0  0  0  0
  -20.4177   -6.8835   21.3290 C   0  0  0  0  0  0  0  0  0  0  0  0
  -17.8413   -6.6718   20.2801 C   0  0  0  0  0  0  0  0  0  0  0  0
  -20.0997   -5.8339   20.4671 C   0  0  0  0  0  0  0  0  0  0  0  0
  -24.5959  -11.6310   20.7052 C   0  0  0  0  0  0  0  0  0  0  0  0
  -25.2164  -13.7171   20.3922 C   0  0  0  0  0  0  0  0  0  0  0  0
  -22.8351  -13.4618   21.1083 C   0  0  0  0  0  0  0  0  0  0  0  0
  -25.7542  -27.0145   23.1782 C   0  0  0  0  0  0  0  0  0  0  0  0
  -24.5201  -26.4642   26.1272 C   0  0  0  0  0  0  0  0  0  0  0  0
  -24.4258  -24.4841   28.9051 C   0  0  0  0  0  0  0  0  0  0  0  0
  -30.6460  -14.9145   20.6897 C   0  0  0  0  0  0  0  0  0  0  0  0
  -23.9989  -31.1385   20.7351 C   0  0  0  0  0  0  0  0  0  0  0  0
  -25.0007  -24.6177   22.9692 C   0  0  0  0  0  0  0  0  0  0  0  0
  -26.5204  -25.0769   25.4641 C   0  0  0  0  0  0  0  0  0  0  0  0
  -24.2659  -30.7629   22.1904 C   0  0  0  0  0  0  0  0  0  0  0  0
  -29.6726  -12.3528   18.4166 C   0  0  0  0  0  0  0  0  0  0  0  0
  -25.6574  -30.1557   22.3384 C   0  0  0  0  0  0  0  0  0  0  0  0
  -28.2268  -12.0459   18.8137 C   0  0  0  0  0  0  0  0  0  0  0  0
  -30.5405  -12.6676   19.6337 C   0  0  0  0  0  0  0  0  0  0  0  0
  -28.5705  -13.4118   20.9121 C   0  0  0  0  0  0  0  0  0  0  0  0
  -25.7871  -28.8670   21.5175 C   0  0  1  0  0  0  0  0  0  0  0  0
  -24.8903  -25.9251   23.7477 C   0  0  1  0  0  0  0  0  0  0  0  0
  -27.6427  -13.1522   19.7140 C   0  0  2  0  0  0  0  0  0  0  0  0
  -30.7125  -17.7783   19.4272 C   0  0  0  0  0  0  0  0  0  0  0  0
  -30.0865  -16.4639   24.2487 C   0  0  0  0  0  0  0  0  0  0  0  0
  -23.3505  -24.3119   31.1660 C   0  0  0  0  0  0  0  0  0  0  0  0
  -26.3804  -28.6438   27.1753 C   0  0  0  0  0  0  0  0  0  0  0  0
  -25.9701  -27.7835   29.4905 C   0  0  0  0  0  0  0  0  0  0  0  0
  -24.0747  -28.6860   28.1430 C   0  0  0  0  0  0  0  0  0  0  0  0
  -23.1445  -21.9038   28.2275 C   0  0  0  0  0  0  0  0  0  0  0  0
  -31.7946  -21.0133   23.0800 C   0  0  0  0  0  0  0  0  0  0  0  0
  -25.0739  -26.4456   27.5315 C   0  0  1  0  0  0  0  0  0  0  0  0
  -23.2627  -23.9181   29.6997 C   0  0  2  0  0  0  0  0  0  0  0  0
  -25.3850  -27.8725   28.0648 C   0  0  0  0  0  0  0  0  0  0  0  0
  -25.8762  -11.5471   20.3340 N   0  0  0  0  0  0  0  0  0  0  0  0
  -26.2255  -12.8318   20.1507 N   0  0  0  0  0  0  0  0  0  0  0  0
  -25.2625  -25.7773   25.1562 N   0  0  0  0  0  0  0  0  0  0  0  0
  -29.9268  -13.7273   20.4370 N   0  0  0  0  0  0  0  0  0  0  0  0
  -25.3962  -15.0481   20.2562 N   0  0  0  0  0  0  0  0  0  0  0  0
  -21.8351  -12.5449   21.4597 N   0  0  0  0  0  0  0  0  0  0  0  0
  -29.9486  -15.8632   21.4368 N   0  0  0  0  0  0  0  0  0  0  0  0
  -25.1370  -27.7671   22.1974 N   0  0  0  0  0  0  0  0  0  0  0  0
  -24.1132  -25.7020   28.3393 N   0  0  0  0  0  0  0  0  0  0  0  0
  -30.7705  -22.0346   22.9134 N   0  0  0  0  0  0  0  0  0  1  0  0
  -23.2511  -22.4304   29.6125 N   0  3  0  0  0  0  0  0  0  0  0  0
  -22.5667  -14.6871   21.0931 O   0  0  0  0  0  0  0  0  0  0  0  0
  -26.8958  -27.1623   23.5986 O   0  0  0  0  0  0  0  0  0  0  0  0
  -23.4639  -27.0601   25.9015 O   0  0  0  0  0  0  0  0  0  0  0  0
  -25.5051  -23.9055   28.8003 O   0  0  0  0  0  0  0  0  0  0  0  0
  -31.7858  -15.0886   20.2509 O   0  0  0  0  0  0  0  0  0  0  0  0
  -21.6959   -6.9895   21.8511 O   0  0  0  0  0  0  0  0  0  0  0  0
  -29.7904  -21.7611   23.9641 O   0  0  0  0  0  0  0  0  0  1  0  0
  -16.6039   -6.5694   19.7778 F   0  0  0  0  0  0  0  0  0  0  0  0
  -21.0271   -4.9235   20.1402 F   0  0  0  0  0  0  0  0  0  0  0  0
  1  2  1  0  0  0  0
  1  5  2  0  0  0  0
  2  6  2  0  0  0  0
  3  8  2  0  0  0  0
  3 17  1  0  0  0  0
  4  9  1  0  0  0  0
  4 17  2  0  0  0  0
  5 19  1  0  0  0  0
  6 21  1  0  0  0  0
  7 10  2  0  0  0  0
  7 20  1  0  0  0  0
  8 27  1  0  0  0  0
  9 27  2  0  0  0  0
 10 28  1  0  0  0  0
 11 12  2  0  0  0  0
 11 29  1  0  0  0  0
 12 30  1  0  0  0  0
 13 22  1  0  0  0  0
 13 28  2  0  0  0  0
 14 23  1  0  0  0  0
 14 24  2  0  0  0  0
 15 23  2  0  0  0  0
 15 25  1  0  0  0  0
 16 30  2  0  0  0  0
 16 31  1  0  0  0  0
 17 32  1  0  0  0  0
 18 32  1  0  0  0  0
 18 33  2  0  0  0  0
 18 34  1  0  0  0  0
 19 21  2  0  0  0  0
 19 39  1  0  0  0  0
 20 22  2  0  0  0  0
 20 40  1  0  0  0  0
 21 48  1  0  0  0  0
 22 41  1  0  0  0  0
 23 58  1  0  0  0  0
 24 26  1  0  0  0  0
 24 51  1  0  0  0  0
 25 26  2  0  0  0  0
 25 52  1  0  0  0  0
 26 68  1  0  0  0  0
 27 78  1  0  0  0  0
 28 79  1  0  0  0  0
 29 31  2  0  0  0  0
 29 78  1  0  0  0  0
 30 80  1  0  0  0  0
 31 81  1  0  0  0  0
 32 62  2  0  0  0  0
 33 63  1  0  0  0  0
 33 66  1  0  0  0  0
 34 67  1  0  0  0  0
 34 73  2  0  0  0  0
 35 49  1  0  0  0  0
 35 69  1  0  0  0  0
 35 74  2  0  0  0  0
 36 59  1  0  0  0  0
 36 64  1  0  0  0  0
 36 75  2  0  0  0  0
 37 60  1  0  0  0  0
 37 70  1  0  0  0  0
 37 76  2  0  0  0  0
 38 65  1  0  0  0  0
 38 68  1  0  0  0  0
 38 77  2  0  0  0  0
 39 42  1  0  0  0  0
 40 49  1  0  0  0  0
 41 64  1  0  0  0  0
 42 44  1  0  0  0  0
 43 45  1  0  0  0  0
 43 46  1  0  0  0  0
 44 48  1  0  0  0  0
 45 50  1  0  0  0  0
 46 65  1  0  0  0  0
 47 50  1  0  0  0  0
 47 65  1  0  0  0  0
 48 69  1  0  0  0  0
 49 64  1  0  0  0  0
 50 63  1  0  0  0  0
 53 60  1  0  0  0  0
 54 61  1  0  0  0  0
 55 61  1  0  0  0  0
 56 61  1  0  0  0  0
 57 72  1  0  0  0  0
 58 71  1  0  0  0  0
 59 61  1  0  0  0  0
 59 70  1  0  0  0  0
 60 72  1  0  0  0  0
 62 63  1  0  0  0  0
 71 79  1  0  0  0  0
M  CHG  1  72   1
M  ISO  4  38 100  68 100  71 101  79 101
M  END
> <Batch ID>
0007

> <Smiles>
CNC(C)C(=O)NC(C(=O)N1Cc2cc([101O:1][101NH:1]Cc3cc(C)c([100NH:0][100C:0](=O)N4CCCC(n5nc(-c6ccc(Oc7ccc(F)cc7F)cc6)c(C(N)=O)c5N)C4)c(C)c3)ccc2CC1C(=O)NC1CCCc2ccccc21)C(C)(C)C

> <Shape>
0.212

> <Color>
0.228

> <Negative vol penalty>
0.000

$$$$

  -OEChem-04042320323D

 83 91  0     1  0  0  0  0  0999 V2000
  -36.0471  -28.2137   15.6321 C   0  0  0  0  0  0  0  0  0  0  0  0
  -36.0338  -27.6678   16.9116 C   0  0  0  0  0  0  0  0  0  0  0  0
  -23.4535   -9.7229   21.1217 C   0  0  0  0  0  0  0  0  0  0  0  0
  -24.0909  -10.5180   23.3122 C   0  0  0  0  0  0  0  0  0  0  0  0
  -34.8468  -28.4419   14.9603 C   0  0  0  0  0  0  0  0  0  0  0  0
  -34.8201  -27.3508   17.5206 C   0  0  0  0  0  0  0  0  0  0  0  0
  -33.7146  -22.6676   21.3089 C   0  0  0  0  0  0  0  0  0  0  0  0
  -32.8289  -16.7419   23.2403 C   0  0  0  0  0  0  0  0  0  0  0  0
  -32.3016  -15.7038   22.4724 C   0  0  0  0  0  0  0  0  0  0  0  0
  -22.8269   -8.6211   21.7039 C   0  0  0  0  0  0  0  0  0  0  0  0
  -23.4643   -9.4162   23.8945 C   0  0  0  0  0  0  0  0  0  0  0  0
  -33.6451  -22.5816   22.6987 C   0  0  0  0  0  0  0  0  0  0  0  0
  -21.3694   -5.4104   22.5930 C   0  0  0  0  0  0  0  0  0  0  0  0
  -21.5911   -4.1583   22.0197 C   0  0  0  0  0  0  0  0  0  0  0  0
  -31.2472  -22.8208   22.5875 C   0  0  0  0  0  0  0  0  0  0  0  0
  -31.4823  -16.0370   25.1182 C   0  0  0  0  0  0  0  0  0  0  0  0
  -23.9596   -4.3860   22.4386 C   0  0  0  0  0  0  0  0  0  0  0  0
  -24.0855  -10.6714   21.9258 C   0  0  0  0  0  0  0  0  0  0  0  0
  -24.1580  -13.0618   21.0380 C   0  0  0  0  0  0  0  0  0  0  0  0
  -33.6183  -28.1185   15.5575 C   0  0  0  0  0  0  0  0  0  0  0  0
  -32.5500  -22.8420   20.5474 C   0  0  0  0  0  0  0  0  0  0  0  0
  -33.6022  -27.5760   16.8567 C   0  0  0  0  0  0  0  0  0  0  0  0
  -31.3044  -22.9061   21.1880 C   0  0  0  0  0  0  0  0  0  0  0  0
  -32.4193  -16.9085   24.5633 C   0  0  0  0  0  0  0  0  0  0  0  0
  -31.3646  -14.8322   23.0274 C   0  0  0  0  0  0  0  0  0  0  0  0
  -22.8323   -8.4677   23.0903 C   0  0  0  0  0  0  0  0  0  0  0  0
  -32.4116  -22.6611   23.3384 C   0  0  0  0  0  0  0  0  0  0  0  0
  -22.4427   -6.1503   23.0892 C   0  0  0  0  0  0  0  0  0  0  0  0
  -22.8863   -3.6461   21.9425 C   0  0  0  0  0  0  0  0  0  0  0  0
  -30.9549  -14.9988   24.3503 C   0  0  0  0  0  0  0  0  0  0  0  0
  -23.7378   -5.6381   23.0120 C   0  0  0  0  0  0  0  0  0  0  0  0
  -24.7334  -11.8095   21.3249 C   0  0  0  0  0  0  0  0  0  0  0  0
  -25.1797  -13.7889   20.4777 C   0  0  0  0  0  0  0  0  0  0  0  0
  -22.8196  -13.5264   21.2584 C   0  0  0  0  0  0  0  0  0  0  0  0
  -31.4749  -25.0921   18.5764 C   0  0  0  0  0  0  0  0  0  0  0  0
  -29.0800  -22.9619   18.0772 C   0  0  0  0  0  0  0  0  0  0  0  0
  -27.2717  -20.3110   19.2387 C   0  0  0  0  0  0  0  0  0  0  0  0
  -31.1307  -13.4763   20.9171 C   0  0  0  0  0  0  0  0  0  0  0  0
  -32.3447  -28.4271   14.8109 C   0  0  0  0  0  0  0  0  0  0  0  0
  -32.6393  -22.9061   19.0473 C   0  0  0  0  0  0  0  0  0  0  0  0
  -30.0227  -23.0728   20.4148 C   0  0  0  0  0  0  0  0  0  0  0  0
  -31.1188  -27.7156   15.3776 C   0  0  0  0  0  0  0  0  0  0  0  0
  -29.2011  -13.2511   17.9334 C   0  0  0  0  0  0  0  0  0  0  0  0
  -31.0785  -27.8495   16.8966 C   0  0  0  0  0  0  0  0  0  0  0  0
  -27.7829  -12.9759   18.4386 C   0  0  0  0  0  0  0  0  0  0  0  0
  -30.2539  -12.5457   18.7863 C   0  0  0  0  0  0  0  0  0  0  0  0
  -28.7447  -12.5335   20.7335 C   0  0  0  0  0  0  0  0  0  0  0  0
  -32.3070  -27.1959   17.5408 C   0  0  1  0  0  0  0  0  0  0  0  0
  -31.4410  -23.5995   18.4065 C   0  0  1  0  0  0  0  0  0  0  0  0
  -27.6533  -13.2756   19.9449 C   0  0  2  0  0  0  0  0  0  0  0  0
  -25.3540  -18.8137   18.6238 C   0  0  0  0  0  0  0  0  0  0  0  0
  -27.1186  -25.1963   18.7633 C   0  0  0  0  0  0  0  0  0  0  0  0
  -25.3463  -23.4535   19.0634 C   0  0  0  0  0  0  0  0  0  0  0  0
  -26.4293  -23.7581   16.8370 C   0  0  0  0  0  0  0  0  0  0  0  0
  -28.9871  -17.8998   19.2884 C   0  0  0  0  0  0  0  0  0  0  0  0
  -32.9855  -18.0258   25.3891 C   0  0  0  0  0  0  0  0  0  0  0  0
  -31.4979  -21.3491   26.5742 C   0  0  0  0  0  0  0  0  0  0  0  0
  -32.5346  -20.2429   26.4474 C   0  0  0  0  0  0  0  0  0  0  0  0
  -31.1513  -22.0192   25.2504 C   0  0  0  0  0  0  0  0  0  1  0  0
  -27.7398  -22.6907   18.7172 C   0  0  1  0  0  0  0  0  0  0  0  0
  -26.8620  -19.0055   18.5811 C   0  0  2  0  0  0  0  0  0  0  0  0
  -26.6826  -23.7734   18.3602 C   0  0  0  0  0  0  0  0  0  0  0  0
  -26.0208  -11.7413   20.9756 N   0  0  0  0  0  0  0  0  0  0  0  0
  -26.2627  -12.9600   20.4633 N   0  0  0  0  0  0  0  0  0  0  0  0
  -30.1627  -23.1368   18.9507 N   0  0  0  0  0  0  0  0  0  0  0  0
  -30.0717  -12.8799   20.2005 N   0  0  0  0  0  0  0  0  0  0  0  0
  -25.2484  -15.0499   20.0008 N   0  0  0  0  0  0  0  0  0  0  0  0
  -21.8961  -12.6500   21.8444 N   0  0  0  0  0  0  0  0  0  0  0  0
  -30.8301  -13.7788   22.2448 N   0  0  0  0  0  0  0  0  0  0  0  0
  -32.1550  -25.7570   17.5740 N   0  0  0  0  0  0  0  0  0  0  0  0
  -27.3655  -21.3370   18.3224 N   0  0  0  0  0  0  0  0  0  0  0  0
  -27.5023  -17.8526   19.2753 N   0  3  0  0  0  0  0  0  0  0  0  0
  -32.0292  -19.1507   25.5830 N   0  3  0  0  0  0  0  0  0  0  0  0
  -22.4491  -14.6789   20.9298 O   0  0  0  0  0  0  0  0  0  0  0  0
  -30.9236  -25.6027   19.5443 O   0  0  0  0  0  0  0  0  0  0  0  0
  -29.1643  -23.0096   16.8475 O   0  0  0  0  0  0  0  0  0  0  0  0
  -27.4833  -20.4114   20.4453 O   0  0  0  0  0  0  0  0  0  0  0  0
  -32.2147  -13.7270   20.3842 O   0  0  0  0  0  0  0  0  0  0  0  0
  -22.2208   -7.3928   23.6588 O   0  0  0  0  0  0  0  0  0  0  0  0
  -32.3409  -22.5782   24.6949 O   0  0  0  0  0  0  0  0  0  1  0  0
  -23.0989   -2.4431   21.3932 F   0  0  0  0  0  0  0  0  0  0  0  0
  -30.0537  -14.1680   24.8936 F   0  0  0  0  0  0  0  0  0  0  0  0
  -24.7729   -6.3438   23.4880 F   0  0  0  0  0  0  0  0  0  0  0  0
  1  2  1  0  0  0  0
  1  5  2  0  0  0  0
  2  6  2  0  0  0  0
  3 10  2  0  0  0  0
  3 18  1  0  0  0  0
  4 11  1  0  0  0  0
  4 18  2  0  0  0  0
  5 20  1  0  0  0  0
  6 22  1  0  0  0  0
  7 12  2  0  0  0  0
  7 21  1  0  0  0  0
  8  9  2  0  0  0  0
  8 24  1  0  0  0  0
  9 25  1  0  0  0  0
 10 26  1  0  0  0  0
 11 26  2  0  0  0  0
 12 27  1  0  0  0  0
 13 14  2  0  0  0  0
 13 28  1  0  0  0  0
 14 29  1  0  0  0  0
 15 23  1  0  0  0  0
 15 27  2  0  0  0  0
 16 24  2  0  0  0  0
 16 30  1  0  0  0  0
 17 29  2  0  0  0  0
 17 31  1  0  0  0  0
 18 32  1  0  0  0  0
 19 32  1  0  0  0  0
 19 33  2  0  0  0  0
 19 34  1  0  0  0  0
 20 22  2  0  0  0  0
 20 39  1  0  0  0  0
 21 23  2  0  0  0  0
 21 40  1  0  0  0  0
 22 48  1  0  0  0  0
 23 41  1  0  0  0  0
 24 56  1  0  0  0  0
 25 30  2  0  0  0  0
 25 69  1  0  0  0  0
 26 79  1  0  0  0  0
 27 80  1  0  0  0  0
 28 31  2  0  0  0  0
 28 79  1  0  0  0  0
 29 81  1  0  0  0  0
 30 82  1  0  0  0  0
 31 83  1  0  0  0  0
 32 63  2  0  0  0  0
 33 64  1  0  0  0  0
 33 67  1  0  0  0  0
 34 68  1  0  0  0  0
 34 74  2  0  0  0  0
 35 49  1  0  0  0  0
 35 70  1  0  0  0  0
 35 75  2  0  0  0  0
 36 60  1  0  0  0  0
 36 65  1  0  0  0  0
 36 76  2  0  0  0  0
 37 61  1  0  0  0  0
 37 71  1  0  0  0  0
 37 77  2  0  0  0  0
 38 66  1  0  0  0  0
 38 69  1  0  0  0  0
 38 78  2  0  0  0  0
 39 42  1  0  0  0  0
 40 49  1  0  0  0  0
 41 65  1  0  0  0  0
 42 44  1  0  0  0  0
 43 45  1  0  0  0  0
 43 46  1  0  0  0  0
 44 48  1  0  0  0  0
 45 50  1  0  0  0  0
 46 66  1  0  0  0  0
 47 50  1  0  0  0  0
 47 66  1  0  0  0  0
 48 70  1  0  0  0  0
 49 65  1  0  0  0  0
 50 64  1  0  0  0  0
 51 61  1  0  0  0  0
 52 62  1  0  0  0  0
 53 62  1  0  0  0  0
 54 62  1  0  0  0  0
 55 72  1  0  0  0  0
 56 73  1  0  0  0  0
 57 58  1  0  0  0  0
 57 59  1  0  0  0  0
 58 73  1  0  0  0  0
 59 80  1  0  0  0  0
 60 62  1  0  0  0  0
 60 71  1  0  0  0  0
 61 72  1  0  0  0  0
 63 64  1  0  0  0  0
M  CHG  2  72   1  73   1
M  ISO  4  38 100  59 101  69 100  80 101
M  END
> <Batch ID>
0007

> <Smiles>
CNC(C)C(=O)NC(C(=O)N1Cc2cc([101O:1][101CH2:1]CCNCc3ccc([100NH:0][100C:0](=O)N4CCCC(n5nc(-c6ccc(Oc7ccc(F)cc7F)cc6)c(C(N)=O)c5N)C4)c(F)c3)ccc2CC1C(=O)NC1CCCc2ccccc21)C(C)(C)C

> <Shape>
0.216

> <Color>
0.158

> <Negative vol penalty>
0.000

$$$$

  -OEChem-04042320323D

 86 95  0     1  0  0  0  0  0999 V2000
  -28.1586  -25.4052   30.8820 C   0  0  0  0  0  0  0  0  0  0  0  0
  -28.5927  -25.2556   29.5688 C   0  0  0  0  0  0  0  0  0  0  0  0
  -22.7717  -10.0666   20.2340 C   0  0  0  0  0  0  0  0  0  0  0  0
  -24.2891   -9.6134   22.0587 C   0  0  0  0  0  0  0  0  0  0  0  0
  -27.0847  -26.2470   31.1684 C   0  0  0  0  0  0  0  0  0  0  0  0
  -27.9524  -25.9470   28.5410 C   0  0  0  0  0  0  0  0  0  0  0  0
  -31.2658  -28.1289   25.2619 C   0  0  0  0  0  0  0  0  0  0  0  0
  -31.6000  -19.2677   21.4327 C   0  0  0  0  0  0  0  0  0  0  0  0
  -31.1794  -17.9880   21.0705 C   0  0  0  0  0  0  0  0  0  0  0  0
  -22.0672   -8.8997   20.5300 C   0  0  0  0  0  0  0  0  0  0  0  0
  -23.5845   -8.4465   22.3547 C   0  0  0  0  0  0  0  0  0  0  0  0
  -31.8814  -27.3213   24.3066 C   0  0  0  0  0  0  0  0  0  0  0  0
  -20.7202   -7.6017   23.9367 C   0  0  0  0  0  0  0  0  0  0  0  0
  -20.4244   -7.3472   25.2758 C   0  0  0  0  0  0  0  0  0  0  0  0
  -30.2612  -28.0346   22.6682 C   0  0  0  0  0  0  0  0  0  0  0  0
  -30.1562  -19.1943   23.3685 C   0  0  0  0  0  0  0  0  0  0  0  0
  -21.6735   -5.2825   25.1593 C   0  0  0  0  0  0  0  0  0  0  0  0
  -23.8827  -10.4234   20.9983 C   0  0  0  0  0  0  0  0  0  0  0  0
  -24.1137  -12.9453   20.6910 C   0  0  0  0  0  0  0  0  0  0  0  0
  -26.4370  -26.9565   30.1447 C   0  0  0  0  0  0  0  0  0  0  0  0
  -30.1349  -28.8891   24.9300 C   0  0  0  0  0  0  0  0  0  0  0  0
  -26.8680  -26.7980   28.8137 C   0  0  0  0  0  0  0  0  0  0  0  0
  -29.6361  -28.8547   23.6198 C   0  0  0  0  0  0  0  0  0  0  0  0
  -29.7356  -17.9147   23.0063 C   0  0  0  0  0  0  0  0  0  0  0  0
  -31.0884  -19.8708   22.5817 C   0  0  0  0  0  0  0  0  0  0  0  0
  -30.2472  -17.3115   21.8573 C   0  0  0  0  0  0  0  0  0  0  0  0
  -22.4736   -8.0897   21.5904 C   0  0  0  0  0  0  0  0  0  0  0  0
  -31.3777  -27.2723   23.0102 C   0  0  0  0  0  0  0  0  0  0  0  0
  -21.4927   -6.6966   23.2088 C   0  0  0  0  0  0  0  0  0  0  0  0
  -20.9010   -6.1876   25.8871 C   0  0  0  0  0  0  0  0  0  0  0  0
  -21.9694   -5.5370   23.8202 C   0  0  0  0  0  0  0  0  0  0  0  0
  -24.6112  -11.6284   20.6927 C   0  0  0  0  0  0  0  0  0  0  0  0
  -25.1920  -13.7193   20.3380 C   0  0  0  0  0  0  0  0  0  0  0  0
  -22.7947  -13.4260   20.9824 C   0  0  0  0  0  0  0  0  0  0  0  0
  -27.0891  -29.0589   25.8996 C   0  0  0  0  0  0  0  0  0  0  0  0
  -27.1111  -31.6410   23.8054 C   0  0  0  0  0  0  0  0  0  0  0  0
  -24.3580  -33.5602   24.4194 C   0  0  0  0  0  0  0  0  0  0  0  0
  -30.5784  -15.0593   20.7784 C   0  0  0  0  0  0  0  0  0  0  0  0
  -25.2504  -27.8181   30.4971 C   0  0  0  0  0  0  0  0  0  0  0  0
  -29.5038  -29.7775   25.9677 C   0  0  0  0  0  0  0  0  0  0  0  0
  -28.4279  -29.6543   23.2129 C   0  0  0  0  0  0  0  0  0  0  0  0
  -24.8658  -28.8044   29.3973 C   0  0  0  0  0  0  0  0  0  0  0  0
  -29.7434  -12.4091   18.5521 C   0  0  0  0  0  0  0  0  0  0  0  0
  -24.8337  -28.1062   28.0414 C   0  0  0  0  0  0  0  0  0  0  0  0
  -28.2929  -12.0781   18.9104 C   0  0  0  0  0  0  0  0  0  0  0  0
  -30.5621  -12.7806   19.7872 C   0  0  0  0  0  0  0  0  0  0  0  0
  -32.8557  -21.6148   22.6019 C   0  0  0  0  0  0  0  0  0  0  0  0
  -30.5639  -22.2208   23.2577 C   0  0  0  0  0  0  0  0  0  0  0  0
  -28.5329  -13.5126   20.9771 C   0  0  0  0  0  0  0  0  0  0  0  0
  -32.7708  -22.5339   21.3851 C   0  0  0  0  0  0  0  0  0  0  0  0
  -30.4264  -23.1482   22.0561 C   0  0  0  0  0  0  0  0  0  0  0  0
  -26.2149  -27.5501   27.6744 C   0  0  1  0  0  0  0  0  0  0  0  0
  -28.0650  -30.1715   25.6402 C   0  0  1  0  0  0  0  0  0  0  0  0
  -27.6525  -13.1953   19.7573 C   0  0  2  0  0  0  0  0  0  0  0  0
  -28.7371  -17.2128   23.8685 C   0  0  0  0  0  0  0  0  0  0  0  0
  -23.5660  -35.9409   24.3720 C   0  0  0  0  0  0  0  0  0  0  0  0
  -28.6511  -32.2010   26.3784 C   0  0  0  0  0  0  0  0  0  0  0  0
  -27.1313  -34.1495   26.7806 C   0  0  0  0  0  0  0  0  0  0  0  0
  -28.5942  -34.1072   24.7604 C   0  0  0  0  0  0  0  0  0  0  0  0
  -22.2671  -32.9466   22.4167 C   0  0  0  0  0  0  0  0  0  0  0  0
  -31.7353  -24.6470   20.5442 C   0  0  0  0  0  0  0  0  0  0  0  0
  -31.1450  -25.9495   21.0475 C   0  0  0  0  0  0  0  0  0  1  0  0
  -26.5884  -32.5721   24.8706 C   0  0  1  0  0  0  0  0  0  0  0  0
  -23.6772  -34.6381   23.5954 C   0  0  2  0  0  0  0  0  0  0  0  0
  -27.7306  -33.2313   25.6941 C   0  0  0  0  0  0  0  0  0  0  0  0
  -25.9049  -11.5656   20.3665 N   0  0  0  0  0  0  0  0  0  0  0  0
  -26.2294  -12.8527   20.1565 N   0  0  0  0  0  0  0  0  0  0  0  0
  -31.5084  -21.1466   22.9430 N   0  0  0  0  0  0  0  0  0  0  0  0
  -27.9011  -30.5674   24.2356 N   0  0  0  0  0  0  0  0  0  0  0  0
  -29.8966  -13.8477   20.5378 N   0  0  0  0  0  0  0  0  0  0  0  0
  -25.3445  -15.0498   20.1682 N   0  0  0  0  0  0  0  0  0  0  0  0
  -21.8055  -12.4951   21.3280 N   0  0  0  0  0  0  0  0  0  0  0  0
  -29.8338  -16.0117   21.4734 N   0  0  0  0  0  0  0  0  0  0  0  0
  -27.0796  -28.6125   27.2073 N   0  0  0  0  0  0  0  0  0  0  0  0
  -25.7171  -33.5235   24.1894 N   0  0  0  0  0  0  0  0  0  0  0  0
  -31.8019  -23.6620   21.6773 N   0  3  0  0  0  0  0  0  0  0  0  0
  -22.3055  -34.2041   23.2067 N   0  3  0  0  0  0  0  0  0  0  0  0
  -22.4978  -14.6432   20.9218 O   0  0  0  0  0  0  0  0  0  0  0  0
  -26.3951  -28.6377   24.9817 O   0  0  0  0  0  0  0  0  0  0  0  0
  -26.8344  -31.8617   22.6230 O   0  0  0  0  0  0  0  0  0  0  0  0
  -23.7460  -32.8267   25.1927 O   0  0  0  0  0  0  0  0  0  0  0  0
  -31.7279  -15.2487   20.3724 O   0  0  0  0  0  0  0  0  0  0  0  0
  -21.7862   -6.9511   21.8796 O   0  0  0  0  0  0  0  0  0  0  0  0
  -31.9770  -26.4852   22.0757 O   0  0  0  0  0  0  0  0  0  1  0  0
  -20.6181   -5.9441   27.1736 F   0  0  0  0  0  0  0  0  0  0  0  0
  -22.7129   -4.6643   23.1264 F   0  0  0  0  0  0  0  0  0  0  0  0
  1  2  1  0  0  0  0
  1  5  2  0  0  0  0
  2  6  2  0  0  0  0
  3 10  2  0  0  0  0
  3 18  1  0  0  0  0
  4 11  1  0  0  0  0
  4 18  2  0  0  0  0
  5 20  1  0  0  0  0
  6 22  1  0  0  0  0
  7 12  2  0  0  0  0
  7 21  1  0  0  0  0
  8  9  2  0  0  0  0
  8 25  1  0  0  0  0
  9 26  1  0  0  0  0
 10 27  1  0  0  0  0
 11 27  2  0  0  0  0
 12 28  1  0  0  0  0
 13 14  2  0  0  0  0
 13 29  1  0  0  0  0
 14 30  1  0  0  0  0
 15 23  1  0  0  0  0
 15 28  2  0  0  0  0
 16 24  1  0  0  0  0
 16 25  2  0  0  0  0
 17 30  2  0  0  0  0
 17 31  1  0  0  0  0
 18 32  1  0  0  0  0
 19 32  1  0  0  0  0
 19 33  2  0  0  0  0
 19 34  1  0  0  0  0
 20 22  2  0  0  0  0
 20 39  1  0  0  0  0
 21 23  2  0  0  0  0
 21 40  1  0  0  0  0
 22 52  1  0  0  0  0
 23 41  1  0  0  0  0
 24 26  2  0  0  0  0
 24 55  1  0  0  0  0
 25 68  1  0  0  0  0
 26 73  1  0  0  0  0
 27 83  1  0  0  0  0
 28 84  1  0  0  0  0
 29 31  2  0  0  0  0
 29 83  1  0  0  0  0
 30 85  1  0  0  0  0
 31 86  1  0  0  0  0
 32 66  2  0  0  0  0
 33 67  1  0  0  0  0
 33 71  1  0  0  0  0
 34 72  1  0  0  0  0
 34 78  2  0  0  0  0
 35 53  1  0  0  0  0
 35 74  1  0  0  0  0
 35 79  2  0  0  0  0
 36 63  1  0  0  0  0
 36 69  1  0  0  0  0
 36 80  2  0  0  0  0
 37 64  1  0  0  0  0
 37 75  1  0  0  0  0
 37 81  2  0  0  0  0
 38 70  1  0  0  0  0
 38 73  1  0  0  0  0
 38 82  2  0  0  0  0
 39 42  1  0  0  0  0
 40 53  1  0  0  0  0
 41 69  1  0  0  0  0
 42 44  1  0  0  0  0
 43 45  1  0  0  0  0
 43 46  1  0  0  0  0
 44 52  1  0  0  0  0
 45 54  1  0  0  0  0
 46 70  1  0  0  0  0
 47 50  1  0  0  0  0
 47 68  1  0  0  0  0
 48 51  1  0  0  0  0
 48 68  1  0  0  0  0
 49 54  1  0  0  0  0
 49 70  1  0  0  0  0
 50 76  1  0  0  0  0
 51 76  1  0  0  0  0
 52 74  1  0  0  0  0
 53 69  1  0  0  0  0
 54 67  1  0  0  0  0
 56 64  1  0  0  0  0
 57 65  1  0  0  0  0
 58 65  1  0  0  0  0
 59 65  1  0  0  0  0
 60 77  1  0  0  0  0
 61 62  1  0  0  0  0
 61 76  1  0  0  0  0
 62 84  1  0  0  0  0
 63 65  1  0  0  0  0
 63 75  1  0  0  0  0
 64 77  1  0  0  0  0
 66 67  1  0  0  0  0
M  CHG  2  76   1  77   1
M  ISO  4  38 100  62 101  73 100  84 101
M  END
> <Batch ID>
0007

> <Smiles>
CNC(C)C(=O)NC(C(=O)N1Cc2cc([101O:1][101CH2:1]CN3CCN(c4ccc([100NH:0][100C:0](=O)N5CCCC(n6nc(-c7ccc(Oc8ccc(F)cc8F)cc7)c(C(N)=O)c6N)C5)c(C)c4)CC3)ccc2CC1C(=O)NC1CCCc2ccccc21)C(C)(C)C

> <Shape>
0.279

> <Color>
0.202

> <Negative vol penalty>
0.000

$$$$

  -OEChem-04042320323D

 90100  0     1  0  0  0  0  0999 V2000
  -27.9736  -37.2614   23.2872 C   0  0  0  0  0  0  0  0  0  0  0  0
  -28.3862  -36.1810   22.5140 C   0  0  0  0  0  0  0  0  0  0  0  0
  -26.4672  -10.1585   18.6249 C   0  0  0  0  0  0  0  0  0  0  0  0
  -26.8805   -9.2396   20.8208 C   0  0  0  0  0  0  0  0  0  0  0  0
  -27.1600  -37.0507   24.3997 C   0  0  0  0  0  0  0  0  0  0  0  0
  -27.9863  -34.8890   22.8535 C   0  0  0  0  0  0  0  0  0  0  0  0
  -28.6286  -20.9513   16.6817 C   0  0  0  0  0  0  0  0  0  0  0  0
  -26.7249  -30.2948   19.0054 C   0  0  0  0  0  0  0  0  0  0  0  0
  -29.5064  -22.0081   16.4405 C   0  0  0  0  0  0  0  0  0  0  0  0
  -27.3856   -9.2629   18.0772 C   0  0  0  0  0  0  0  0  0  0  0  0
  -27.7989   -8.3439   20.2731 C   0  0  0  0  0  0  0  0  0  0  0  0
  -27.4764  -29.2055   18.5668 C   0  0  0  0  0  0  0  0  0  0  0  0
  -27.7184   -5.4229   18.5755 C   0  0  0  0  0  0  0  0  0  0  0  0
  -27.6525   -4.0935   18.9924 C   0  0  0  0  0  0  0  0  0  0  0  0
  -26.4540  -27.8257   20.2610 C   0  0  0  0  0  0  0  0  0  0  0  0
  -28.7149  -21.4200   19.0502 C   0  0  0  0  0  0  0  0  0  0  0  0
  -29.9174   -4.2407   19.8204 C   0  0  0  0  0  0  0  0  0  0  0  0
  -26.2147  -10.1469   19.9967 C   0  0  0  0  0  0  0  0  0  0  0  0
  -23.8844  -10.8717   20.7396 C   0  0  0  0  0  0  0  0  0  0  0  0
  -28.2328  -20.6573   17.9865 C   0  0  0  0  0  0  0  0  0  0  0  0
  -26.7421  -35.7565   24.7474 C   0  0  0  0  0  0  0  0  0  0  0  0
  -25.8388  -30.1602   20.0840 C   0  0  0  0  0  0  0  0  0  0  0  0
  -27.1675  -34.6606   23.9725 C   0  0  0  0  0  0  0  0  0  0  0  0
  -25.6905  -28.9142   20.7097 C   0  0  0  0  0  0  0  0  0  0  0  0
  -29.9886  -22.7708   17.5042 C   0  0  0  0  0  0  0  0  0  0  0  0
  -28.0515   -8.3556   18.9013 C   0  0  0  0  0  0  0  0  0  0  0  0
  -27.3431  -27.9714   19.1964 C   0  0  0  0  0  0  0  0  0  0  0  0
  -28.8839   -6.1613   18.7810 C   0  0  0  0  0  0  0  0  0  0  0  0
  -28.7519   -3.5024   19.6149 C   0  0  0  0  0  0  0  0  0  0  0  0
  -29.5928  -22.4768   18.8091 C   0  0  0  0  0  0  0  0  0  0  0  0
  -29.9834   -5.5702   19.4034 C   0  0  0  0  0  0  0  0  0  0  0  0
  -25.2665  -11.0723   20.5631 C   0  0  0  0  0  0  0  0  0  0  0  0
  -23.4386  -12.0377   21.3124 C   0  0  0  0  0  0  0  0  0  0  0  0
  -30.2274  -25.9672   18.5068 C   0  0  0  0  0  0  0  0  0  0  0  0
  -23.0757   -9.7331   20.4148 C   0  0  0  0  0  0  0  0  0  0  0  0
  -25.6099  -31.4620   22.9748 C   0  0  0  0  0  0  0  0  0  0  0  0
  -22.8177  -29.8137   23.0690 C   0  0  0  0  0  0  0  0  0  0  0  0
  -20.9623  -27.1895   21.9209 C   0  0  0  0  0  0  0  0  0  0  0  0
  -25.2880  -17.6077   21.2911 C   0  0  0  0  0  0  0  0  0  0  0  0
  -25.9016  -35.5734   25.9862 C   0  0  0  0  0  0  0  0  0  0  0  0
  -25.0157  -31.3383   20.5278 C   0  0  0  0  0  0  0  0  0  0  0  0
  -24.7381  -28.7123   21.8588 C   0  0  0  0  0  0  0  0  0  0  0  0
  -25.2146  -34.2122   26.0605 C   0  0  0  0  0  0  0  0  0  0  0  0
  -24.8770  -15.6387   24.1022 C   0  0  0  0  0  0  0  0  0  0  0  0
  -26.2002  -33.0977   25.7239 C   0  0  0  0  0  0  0  0  0  0  0  0
  -24.7920  -14.2190   23.5422 C   0  0  0  0  0  0  0  0  0  0  0  0
  -27.9218  -18.4095   19.1145 C   0  0  0  0  0  0  0  0  0  0  0  0
  -25.9560  -19.9867   18.8750 C   0  0  0  0  0  0  0  0  0  0  0  0
  -29.2921  -27.1832   16.6719 C   0  0  0  0  0  0  0  0  0  0  0  0
  -25.9462  -16.4480   23.3775 C   0  0  0  0  0  0  0  0  0  0  0  0
  -26.9426  -17.2678   19.4023 C   0  0  0  0  0  0  0  0  0  0  0  0
  -25.0254  -18.8070   19.1414 C   0  0  0  0  0  0  0  0  0  0  0  0
  -29.4947  -25.7324   16.2716 C   0  0  0  0  0  0  0  0  0  0  0  0
  -25.6669  -15.1005   21.3222 C   0  0  0  0  0  0  0  0  0  0  0  0
  -27.2783  -19.5077   18.2489 C   0  0  0  0  0  0  0  0  0  0  0  0
  -26.7343  -33.2468   24.2942 C   0  0  1  0  0  0  0  0  0  0  0  0
  -29.3523  -27.1599   18.1974 C   0  0  1  0  0  0  0  0  0  1  0  0
  -24.5235  -31.2152   21.9665 C   0  0  1  0  0  0  0  0  0  0  0  0
  -24.5935  -14.2375   22.0162 C   0  0  1  0  0  0  0  0  0  0  0  0
  -18.7316  -26.0774   22.2121 C   0  0  0  0  0  0  0  0  0  0  0  0
  -23.7730  -28.5908   25.6961 C   0  0  0  0  0  0  0  0  0  0  0  0
  -22.0032  -26.8381   25.4432 C   0  0  0  0  0  0  0  0  0  0  0  0
  -21.3574  -29.2375   25.6640 C   0  0  0  0  0  0  0  0  0  0  0  0
  -20.2227  -27.6725   19.0963 C   0  0  0  0  0  0  0  0  0  0  0  0
  -30.9281  -23.8995   17.2435 C   0  0  0  0  0  0  0  0  0  0  0  0
  -22.4076  -28.4296   23.5107 C   0  0  1  0  0  0  0  0  0  0  0  0
  -19.5286  -27.1086   21.4285 C   0  0  2  0  0  0  0  0  0  0  0  0
  -22.4048  -28.2779   25.0581 C   0  0  0  0  0  0  0  0  0  0  0  0
  -25.6721  -12.2714   20.9892 N   0  0  0  0  0  0  0  0  0  0  0  0
  -24.5379  -12.8349   21.4389 N   0  0  0  0  0  0  0  0  0  0  0  0
  -30.2819  -25.1895   17.3531 N   0  0  0  0  0  0  0  0  0  0  0  0
  -23.9600  -29.8959   22.2603 N   0  0  0  0  0  0  0  0  0  0  0  0
  -25.7249  -16.4383   21.9316 N   0  0  0  0  0  0  0  0  0  0  0  0
  -25.6862  -17.7893   19.9581 N   0  0  0  0  0  0  0  0  0  0  0  0
  -22.2173  -12.4486   21.7150 N   0  0  0  0  0  0  0  0  0  0  0  0
  -23.6942   -8.6189   19.8313 N   0  0  0  0  0  0  0  0  0  0  0  0
  -25.7507  -32.7881   23.3369 N   0  0  0  0  0  0  0  0  0  0  0  0
  -21.1178  -28.1658   22.8821 N   0  0  0  0  0  0  0  0  0  0  0  0
  -19.4965  -26.7311   19.9871 N   0  3  0  0  0  0  0  0  0  0  0  0
  -30.7306  -25.7370   19.5968 O   0  0  0  0  0  0  0  0  0  0  0  0
  -21.8385   -9.7109   20.6204 O   0  0  0  0  0  0  0  0  0  0  0  0
  -26.2704  -30.5189   23.3942 O   0  0  0  0  0  0  0  0  0  0  0  0
  -22.1449  -30.7853   23.4223 O   0  0  0  0  0  0  0  0  0  0  0  0
  -21.8541  -26.4571   21.4981 O   0  0  0  0  0  0  0  0  0  0  0  0
  -24.5832  -18.4404   21.8749 O   0  0  0  0  0  0  0  0  0  0  0  0
  -28.9475   -7.4813   18.3672 O   0  0  0  0  0  0  0  0  0  0  0  0
  -28.0853  -26.8931   18.7653 O   0  0  0  0  0  0  0  0  0  1  0  0
  -28.6879   -2.2262   20.0166 F   0  0  0  0  0  0  0  0  0  0  0  0
  -30.0517  -23.2036   19.8376 F   0  0  0  0  0  0  0  0  0  0  0  0
  -31.1053   -6.2749   19.6046 F   0  0  0  0  0  0  0  0  0  0  0  0
  1  2  1  0  0  0  0
  1  5  2  0  0  0  0
  2  6  2  0  0  0  0
  3 10  2  0  0  0  0
  3 18  1  0  0  0  0
  4 11  1  0  0  0  0
  4 18  2  0  0  0  0
  5 21  1  0  0  0  0
  6 23  1  0  0  0  0
  7  9  2  0  0  0  0
  7 20  1  0  0  0  0
  8 12  2  0  0  0  0
  8 22  1  0  0  0  0
  9 25  1  0  0  0  0
 10 26  1  0  0  0  0
 11 26  2  0  0  0  0
 12 27  1  0  0  0  0
 13 14  2  0  0  0  0
 13 28  1  0  0  0  0
 14 29  1  0  0  0  0
 15 24  1  0  0  0  0
 15 27  2  0  0  0  0
 16 20  2  0  0  0  0
 16 30  1  0  0  0  0
 17 29  2  0  0  0  0
 17 31  1  0  0  0  0
 18 32  1  0  0  0  0
 19 32  1  0  0  0  0
 19 33  2  0  0  0  0
 19 35  1  0  0  0  0
 20 55  1  0  0  0  0
 21 23  2  0  0  0  0
 21 40  1  0  0  0  0
 22 24  2  0  0  0  0
 22 41  1  0  0  0  0
 23 56  1  0  0  0  0
 24 42  1  0  0  0  0
 25 30  2  0  0  0  0
 25 65  1  0  0  0  0
 26 86  1  0  0  0  0
 27 87  1  0  0  0  0
 28 31  2  0  0  0  0
 28 86  1  0  0  0  0
 29 88  1  0  0  0  0
 30 89  1  0  0  0  0
 31 90  1  0  0  0  0
 32 69  2  0  0  0  0
 33 70  1  0  0  0  0
 33 75  1  0  0  0  0
 34 57  1  0  0  0  0
 34 71  1  0  0  0  0
 34 80  2  0  0  0  0
 35 76  1  0  0  0  0
 35 81  2  0  0  0  0
 36 58  1  0  0  0  0
 36 77  1  0  0  0  0
 36 82  2  0  0  0  0
 37 66  1  0  0  0  0
 37 72  1  0  0  0  0
 37 83  2  0  0  0  0
 38 67  1  0  0  0  0
 38 78  1  0  0  0  0
 38 84  2  0  0  0  0
 39 73  1  0  0  0  0
 39 74  1  0  0  0  0
 39 85  2  0  0  0  0
 40 43  1  0  0  0  0
 41 58  1  0  0  0  0
 42 72  1  0  0  0  0
 43 45  1  0  0  0  0
 44 46  1  0  0  0  0
 44 50  1  0  0  0  0
 45 56  1  0  0  0  0
 46 59  1  0  0  0  0
 47 51  1  0  0  0  0
 47 55  1  0  0  0  0
 48 52  1  0  0  0  0
 48 55  1  0  0  0  0
 49 53  1  0  0  0  0
 49 57  1  0  0  0  0
 50 73  1  0  0  0  0
 51 74  1  0  0  0  0
 52 74  1  0  0  0  0
 53 71  1  0  0  0  0
 54 59  1  0  0  0  0
 54 73  1  0  0  0  0
 56 77  1  0  0  0  0
 57 87  1  0  0  0  0
 58 72  1  0  0  0  0
 59 70  1  0  0  0  0
 60 67  1  0  0  0  0
 61 68  1  0  0  0  0
 62 68  1  0  0  0  0
 63 68  1  0  0  0  0
 64 79  1  0  0  0  0
 65 71  1  0  0  0  0
 66 68  1  0  0  0  0
 66 78  1  0  0  0  0
 67 79  1  0  0  0  0
 69 70  1  0  0  0  0
M  CHG  1  79   1
M  ISO  4  39 100  57 101  74 100  87 101
M  END
> <Batch ID>
0007

> <Smiles>
CNC(C)C(=O)NC(C(=O)N1Cc2cc([101O:1][101CH:1]3CCN(Cc4ccc(C5CC[100N:0]([100C:0](=O)N6CCCC(n7nc(-c8ccc(Oc9ccc(F)cc9F)cc8)c(C(N)=O)c7N)C6)CC5)cc4F)C3=O)ccc2CC1C(=O)NC1CCCc2ccccc21)C(C)(C)C

> <Shape>
0.272

> <Color>
0.081

> <Negative vol penalty>
0.000

$$$$

  -OEChem-04042320323D

 81 89  0     1  0  0  0  0  0999 V2000
  -19.9749  -24.3773   20.1803 C   0  0  0  0  0  0  0  0  0  0  0  0
  -21.0015  -23.4917   20.4918 C   0  0  0  0  0  0  0  0  0  0  0  0
  -32.6685  -17.4753   23.4343 C   0  0  0  0  0  0  0  0  0  0  0  0
  -23.0768   -9.8677   19.9415 C   0  0  0  0  0  0  0  0  0  0  0  0
  -23.8344   -9.8777   22.2357 C   0  0  0  0  0  0  0  0  0  0  0  0
  -19.6798  -25.4319   21.0433 C   0  0  0  0  0  0  0  0  0  0  0  0
  -21.7344  -23.6607   21.6659 C   0  0  0  0  0  0  0  0  0  0  0  0
  -24.0811  -19.2503   25.2081 C   0  0  0  0  0  0  0  0  0  0  0  0
  -32.0620  -16.5978   22.5356 C   0  0  0  0  0  0  0  0  0  0  0  0
  -31.8876  -18.3507   24.1890 C   0  0  0  0  0  0  0  0  0  0  0  0
  -22.3329   -8.7148   20.1921 C   0  0  0  0  0  0  0  0  0  0  0  0
  -23.0904   -8.7248   22.4863 C   0  0  0  0  0  0  0  0  0  0  0  0
  -25.3609  -18.7054   25.3036 C   0  0  0  0  0  0  0  0  0  0  0  0
  -19.8617   -7.9272   23.0865 C   0  0  0  0  0  0  0  0  0  0  0  0
  -19.1036   -7.8887   24.2567 C   0  0  0  0  0  0  0  0  0  0  0  0
  -25.8491  -20.1897   27.1414 C   0  0  0  0  0  0  0  0  0  0  0  0
  -20.3445   -5.9523   24.9969 C   0  0  0  0  0  0  0  0  0  0  0  0
  -23.8276  -10.4492   20.9632 C   0  0  0  0  0  0  0  0  0  0  0  0
  -24.1692  -12.9742   20.8404 C   0  0  0  0  0  0  0  0  0  0  0  0
  -20.4031  -25.6082   22.2334 C   0  0  0  0  0  0  0  0  0  0  0  0
  -23.6788  -20.2782   26.0729 C   0  0  0  0  0  0  0  0  0  0  0  0
  -21.4496  -24.7194   22.5450 C   0  0  0  0  0  0  0  0  0  0  0  0
  -24.5629  -20.7441   27.0565 C   0  0  0  0  0  0  0  0  0  0  0  0
  -29.8937  -17.4711   23.1463 C   0  0  0  0  0  0  0  0  0  0  0  0
  -30.6746  -16.5956   22.3916 C   0  0  0  0  0  0  0  0  0  0  0  0
  -22.3396   -8.1433   21.4645 C   0  0  0  0  0  0  0  0  0  0  0  0
  -26.2461  -19.1771   26.2684 C   0  0  0  0  0  0  0  0  0  0  0  0
  -30.5002  -18.3486   24.0450 C   0  0  0  0  0  0  0  0  0  0  0  0
  -20.8612   -6.9783   22.8715 C   0  0  0  0  0  0  0  0  0  0  0  0
  -19.3450   -6.9013   25.2119 C   0  0  0  0  0  0  0  0  0  0  0  0
  -21.1027   -5.9909   23.8266 C   0  0  0  0  0  0  0  0  0  0  0  0
  -24.5968  -11.6399   20.7048 C   0  0  0  0  0  0  0  0  0  0  0  0
  -25.2616  -13.7234   20.4773 C   0  0  0  0  0  0  0  0  0  0  0  0
  -22.8982  -13.4904   21.2573 C   0  0  0  0  0  0  0  0  0  0  0  0
  -22.7591  -23.2972   25.6939 C   0  0  0  0  0  0  0  0  0  0  0  0
  -22.1728  -23.1096   28.8788 C   0  0  0  0  0  0  0  0  0  0  0  0
  -22.8446  -21.5990   31.8643 C   0  0  0  0  0  0  0  0  0  0  0  0
  -30.7274  -14.7701   20.6563 C   0  0  0  0  0  0  0  0  0  0  0  0
  -20.0787  -26.7907   23.1116 C   0  0  0  0  0  0  0  0  0  0  0  0
  -22.2857  -20.8369   25.9745 C   0  0  0  0  0  0  0  0  0  0  0  0
  -24.1727  -21.8320   28.0223 C   0  0  0  0  0  0  0  0  0  0  0  0
  -20.6562  -26.6798   24.5204 C   0  0  0  0  0  0  0  0  0  0  0  0
  -29.6159  -12.3531   18.2900 C   0  0  0  0  0  0  0  0  0  0  0  0
  -22.1158  -26.2400   24.4659 C   0  0  0  0  0  0  0  0  0  0  0  0
  -28.1758  -12.0619   18.7184 C   0  0  0  0  0  0  0  0  0  0  0  0
  -30.5297  -12.5836   19.4923 C   0  0  0  0  0  0  0  0  0  0  0  0
  -28.6212  -13.3095   20.8706 C   0  0  0  0  0  0  0  0  0  0  0  0
  -22.2509  -24.8550   23.8216 C   0  0  1  0  0  0  0  0  0  0  0  0
  -22.1592  -22.2351   26.5713 C   0  0  1  0  0  0  0  0  0  0  0  0
  -27.6496  -13.1346   19.6920 C   0  0  2  0  0  0  0  0  0  0  0  0
  -28.4047  -17.4772   22.9988 C   0  0  0  0  0  0  0  0  0  0  0  0
  -22.2379  -21.6882   34.2977 C   0  0  0  0  0  0  0  0  0  0  0  0
  -23.9079  -25.5966   29.2177 C   0  0  0  0  0  0  0  0  0  0  0  0
  -24.0455  -25.0820   31.6640 C   0  0  0  0  0  0  0  0  0  0  0  0
  -21.8351  -25.5721   30.6168 C   0  0  0  0  0  0  0  0  0  0  0  0
  -21.7928  -18.8330   31.8227 C   0  0  0  0  0  0  0  0  0  0  0  0
  -28.5319  -19.5080   26.8354 C   0  0  0  0  0  0  0  0  0  1  0  0
  -29.8477  -19.0891   26.2087 C   0  0  0  0  0  0  0  0  0  0  0  0
  -22.9757  -23.3687   30.1307 C   0  0  1  0  0  0  0  0  0  0  0  0
  -21.9294  -21.0586   32.9482 C   0  0  2  0  0  0  0  0  0  0  0  0
  -23.1994  -24.8857   30.3880 C   0  0  0  0  0  0  0  0  0  0  0  0
  -25.8621  -11.5437   20.2879 N   0  0  0  0  0  0  0  0  0  0  0  0
  -26.2389  -12.8272   20.1584 N   0  0  0  0  0  0  0  0  0  0  0  0
  -22.8020  -22.3506   27.8819 N   0  0  0  0  0  0  0  0  0  0  0  0
  -29.9697  -13.6155   20.3678 N   0  0  0  0  0  0  0  0  0  0  0  0
  -25.4719  -15.0548   20.4028 N   0  0  0  0  0  0  0  0  0  0  0  0
  -21.8861  -12.5815   21.5947 N   0  0  0  0  0  0  0  0  0  0  0  0
  -30.0791  -15.6961   21.4729 N   0  0  0  0  0  0  0  0  0  0  0  0
  -21.8813  -23.8209   24.7640 N   0  0  0  0  0  0  0  0  0  0  0  0
  -22.2824  -22.6753   31.2110 N   0  0  0  0  0  0  0  0  0  0  0  0
  -22.0880  -19.5819   33.0713 N   0  3  0  0  0  0  0  0  0  0  0  0
  -22.6617  -14.7210   21.3129 O   0  0  0  0  0  0  0  0  0  0  0  0
  -23.9312  -23.6188   25.8500 O   0  0  0  0  0  0  0  0  0  0  0  0
  -21.0269  -23.5580   28.7916 O   0  0  0  0  0  0  0  0  0  0  0  0
  -23.9494  -21.1171   31.6239 O   0  0  0  0  0  0  0  0  0  0  0  0
  -31.8570  -14.9384   20.1897 O   0  0  0  0  0  0  0  0  0  0  0  0
  -21.6136   -7.0184   21.7096 O   0  0  0  0  0  0  0  0  0  0  0  0
  -27.4960  -18.6475   26.3634 O   0  0  0  0  0  0  0  0  0  1  0  0
  -29.7503  -19.2156   24.7953 O   0  0  0  0  0  0  0  0  0  0  0  0
  -18.6179   -6.8653   26.3362 F   0  0  0  0  0  0  0  0  0  0  0  0
  -22.0623   -5.0773   23.6262 F   0  0  0  0  0  0  0  0  0  0  0  0
  1  2  1  0  0  0  0
  1  6  2  0  0  0  0
  2  7  2  0  0  0  0
  3  9  1  0  0  0  0
  3 10  2  0  0  0  0
  4 11  2  0  0  0  0
  4 18  1  0  0  0  0
  5 12  1  0  0  0  0
  5 18  2  0  0  0  0
  6 20  1  0  0  0  0
  7 22  1  0  0  0  0
  8 13  2  0  0  0  0
  8 21  1  0  0  0  0
  9 25  2  0  0  0  0
 10 28  1  0  0  0  0
 11 26  1  0  0  0  0
 12 26  2  0  0  0  0
 13 27  1  0  0  0  0
 14 15  2  0  0  0  0
 14 29  1  0  0  0  0
 15 30  1  0  0  0  0
 16 23  1  0  0  0  0
 16 27  2  0  0  0  0
 17 30  2  0  0  0  0
 17 31  1  0  0  0  0
 18 32  1  0  0  0  0
 19 32  1  0  0  0  0
 19 33  2  0  0  0  0
 19 34  1  0  0  0  0
 20 22  2  0  0  0  0
 20 39  1  0  0  0  0
 21 23  2  0  0  0  0
 21 40  1  0  0  0  0
 22 48  1  0  0  0  0
 23 41  1  0  0  0  0
 24 25  1  0  0  0  0
 24 28  2  0  0  0  0
 24 51  1  0  0  0  0
 25 68  1  0  0  0  0
 26 77  1  0  0  0  0
 27 78  1  0  0  0  0
 28 79  1  0  0  0  0
 29 31  2  0  0  0  0
 29 77  1  0  0  0  0
 30 80  1  0  0  0  0
 31 81  1  0  0  0  0
 32 62  2  0  0  0  0
 33 63  1  0  0  0  0
 33 66  1  0  0  0  0
 34 67  1  0  0  0  0
 34 72  2  0  0  0  0
 35 49  1  0  0  0  0
 35 69  1  0  0  0  0
 35 73  2  0  0  0  0
 36 59  1  0  0  0  0
 36 64  1  0  0  0  0
 36 74  2  0  0  0  0
 37 60  1  0  0  0  0
 37 70  1  0  0  0  0
 37 75  2  0  0  0  0
 38 65  1  0  0  0  0
 38 68  1  0  0  0  0
 38 76  2  0  0  0  0
 39 42  1  0  0  0  0
 40 49  1  0  0  0  0
 41 64  1  0  0  0  0
 42 44  1  0  0  0  0
 43 45  1  0  0  0  0
 43 46  1  0  0  0  0
 44 48  1  0  0  0  0
 45 50  1  0  0  0  0
 46 65  1  0  0  0  0
 47 50  1  0  0  0  0
 47 65  1  0  0  0  0
 48 69  1  0  0  0  0
 49 64  1  0  0  0  0
 50 63  1  0  0  0  0
 52 60  1  0  0  0  0
 53 61  1  0  0  0  0
 54 61  1  0  0  0  0
 55 61  1  0  0  0  0
 56 71  1  0  0  0  0
 57 58  1  0  0  0  0
 57 78  1  0  0  0  0
 58 79  1  0  0  0  0
 59 61  1  0  0  0  0
 59 70  1  0  0  0  0
 60 71  1  0  0  0  0
 62 63  1  0  0  0  0
M  CHG  1  71   1
M  ISO  4  38 100  57 101  68 100  78 101
M  END
> <Batch ID>
0007

> <Smiles>
CNC(C)C(=O)NC(C(=O)N1Cc2cc([101O:1][101CH2:1]COc3cccc([100NH:0][100C:0](=O)N4CCCC(n5nc(-c6ccc(Oc7ccc(F)cc7F)cc6)c(C(N)=O)c5N)C4)c3C)ccc2CC1C(=O)NC1CCCc2ccccc21)C(C)(C)C

> <Shape>
0.193

> <Color>
0.196

> <Negative vol penalty>
0.000

$$$$

  -OEChem-04042320323D

 85 93  0     1  0  0  0  0  0999 V2000
  -26.2666   -7.4710   26.2546 C   0  0  0  0  0  0  0  0  0  0  0  0
  -25.8047   -8.6790   25.7419 C   0  0  0  0  0  0  0  0  0  0  0  0
  -28.5627  -17.6175   20.4065 C   0  0  0  0  0  0  0  0  0  0  0  0
  -26.8404  -29.0571   19.4775 C   0  0  0  0  0  0  0  0  0  0  0  0
  -25.6770  -27.5569   20.9718 C   0  0  0  0  0  0  0  0  0  0  0  0
  -27.5843   -7.0766   26.0267 C   0  0  0  0  0  0  0  0  0  0  0  0
  -26.6608   -9.4939   25.0020 C   0  0  0  0  0  0  0  0  0  0  0  0
  -24.4727  -11.3130   20.8129 C   0  0  0  0  0  0  0  0  0  0  0  0
  -27.6489  -17.5401   21.4575 C   0  0  0  0  0  0  0  0  0  0  0  0
  -29.2353  -18.8132   20.1537 C   0  0  0  0  0  0  0  0  0  0  0  0
  -25.6242  -29.6300   19.1058 C   0  0  0  0  0  0  0  0  0  0  0  0
  -24.4608  -28.1299   20.6002 C   0  0  0  0  0  0  0  0  0  0  0  0
  -23.5961  -12.3861   20.9671 C   0  0  0  0  0  0  0  0  0  0  0  0
  -21.0816  -29.4407   20.3145 C   0  0  0  0  0  0  0  0  0  0  0  0
  -20.1721  -29.7470   21.3266 C   0  0  0  0  0  0  0  0  0  0  0  0
  -25.3385  -13.9017   20.2697 C   0  0  0  0  0  0  0  0  0  0  0  0
  -28.0801  -19.8539   22.0029 C   0  0  0  0  0  0  0  0  0  0  0  0
  -21.7909  -31.2326   22.3316 C   0  0  0  0  0  0  0  0  0  0  0  0
  -26.8668  -28.0204   20.4104 C   0  0  0  0  0  0  0  0  0  0  0  0
  -28.9637  -27.8271   21.8503 C   0  0  0  0  0  0  0  0  0  0  0  0
  -28.4542   -7.8825   25.2754 C   0  0  0  0  0  0  0  0  0  0  0  0
  -25.7942  -11.5276   20.3957 C   0  0  0  0  0  0  0  0  0  0  0  0
  -27.9918   -9.1106   24.7649 C   0  0  0  0  0  0  0  0  0  0  0  0
  -26.2291  -12.8293   20.1085 C   0  0  0  0  0  0  0  0  0  0  0  0
  -27.4076  -18.6582   22.2556 C   0  0  0  0  0  0  0  0  0  0  0  0
  -28.9939  -19.9313   20.9519 C   0  0  0  0  0  0  0  0  0  0  0  0
  -24.4344  -29.1665   19.6672 C   0  0  0  0  0  0  0  0  0  0  0  0
  -24.0298  -13.6810   20.6982 C   0  0  0  0  0  0  0  0  0  0  0  0
  -22.3459  -30.0302   20.3109 C   0  0  0  0  0  0  0  0  0  0  0  0
  -20.5267  -30.6430   22.3352 C   0  0  0  0  0  0  0  0  0  0  0  0
  -22.7004  -30.9261   21.3195 C   0  0  0  0  0  0  0  0  0  0  0  0
  -28.1228  -27.4277   20.7943 C   0  0  0  0  0  0  0  0  0  0  0  0
  -30.0212  -26.9523   21.7967 C   0  0  0  0  0  0  0  0  0  0  0  0
  -28.8033  -28.8935   22.7952 C   0  0  0  0  0  0  0  0  0  0  0  0
  -28.6601  -11.0217   21.6740 C   0  0  0  0  0  0  0  0  0  0  0  0
  -29.7004  -11.9706   18.7518 C   0  0  0  0  0  0  0  0  0  0  0  0
  -29.0860  -13.7144   15.8833 C   0  0  0  0  0  0  0  0  0  0  0  0
  -30.6161  -21.3911   19.6934 C   0  0  0  0  0  0  0  0  0  0  0  0
  -29.8836   -7.4364   25.0955 C   0  0  0  0  0  0  0  0  0  0  0  0
  -26.7195  -10.3566   20.2086 C   0  0  0  0  0  0  0  0  0  0  0  0
  -27.6320  -13.1111   19.6384 C   0  0  0  0  0  0  0  0  0  0  0  0
  -30.6188   -8.1811   23.9841 C   0  0  0  0  0  0  0  0  0  0  0  0
  -32.4945  -24.2517   18.7107 C   0  0  0  0  0  0  0  0  0  0  0  0
  -30.3726   -9.6824   24.0939 C   0  0  0  0  0  0  0  0  0  0  0  0
  -31.6662  -25.4269   19.2349 C   0  0  0  0  0  0  0  0  0  0  0  0
  -31.6087  -23.1149   18.2040 C   0  0  0  0  0  0  0  0  0  0  0  0
  -29.7682  -23.8193   19.6822 C   0  0  0  0  0  0  0  0  0  0  0  0
  -28.8829  -10.0103   23.9364 C   0  0  1  0  0  0  0  0  0  0  0  0
  -28.1937  -10.7438   20.2730 C   0  0  1  0  0  0  0  0  0  0  0  0
  -30.6166  -24.9622   20.2634 C   0  0  2  0  0  0  0  0  0  0  0  0
  -30.1398  -14.3376   13.6927 C   0  0  0  0  0  0  0  0  0  0  0  0
  -23.7986  -19.8168   24.6436 C   0  0  0  0  0  0  0  0  0  0  0  0
  -31.4450  -14.0272   20.1790 C   0  0  0  0  0  0  0  0  0  0  0  0
  -31.7206  -15.2098   17.9895 C   0  0  0  0  0  0  0  0  0  0  0  0
  -32.5531  -12.8735   18.2566 C   0  0  0  0  0  0  0  0  0  0  0  0
  -26.9623  -12.3477   14.3403 C   0  0  0  0  0  0  0  0  0  0  0  0
  -26.4246  -18.5744   23.3860 C   0  0  0  0  0  0  0  0  0  0  0  0
  -22.1587  -14.6029   21.8406 C   0  0  0  0  0  0  0  0  0  1  0  0
  -21.8190  -15.9784   22.3811 C   0  0  0  0  0  0  0  0  0  0  0  0
  -22.7313  -17.8582   23.4566 C   0  0  0  0  0  0  0  0  0  0  0  0
  -30.0637  -13.2947   18.1243 C   0  0  1  0  0  0  0  0  0  0  0  0
  -29.2529  -13.3402   14.4216 C   0  0  2  0  0  0  0  0  0  0  0  0
  -24.0155  -18.4419   24.0322 C   0  0  1  0  0  0  0  0  0  0  0  0
  -31.4197  -13.8465   18.6480 C   0  0  0  0  0  0  0  0  0  0  0  0
  -28.6045  -26.3808   20.1192 N   0  0  0  0  0  0  0  0  0  0  0  0
  -29.7598  -26.1149   20.7524 N   0  0  0  0  0  0  0  0  0  0  0  0
  -28.5009  -11.9337   19.4768 N   0  0  0  0  0  0  0  0  0  0  0  0
  -30.6423  -22.7245   19.2327 N   0  0  0  0  0  0  0  0  0  0  0  0
  -31.1400  -26.8254   22.5415 N   0  0  0  0  0  0  0  0  0  0  0  0
  -27.6579  -29.6965   22.7083 N   0  0  0  0  0  0  0  0  0  0  0  0
  -29.6778  -21.1455   20.6953 N   0  0  0  0  0  0  0  0  0  0  0  0
  -28.4988   -9.9587   22.5420 N   0  0  0  0  0  0  0  0  0  0  0  0
  -30.0202  -13.0880   16.6808 N   0  0  0  0  0  0  0  0  0  0  0  0
  -27.9275  -13.3050   13.7412 N   0  3  0  0  0  0  0  0  0  0  0  0
  -25.0116  -18.5756   22.9295 N   0  3  0  0  0  0  0  0  0  0  0  0
  -29.6586  -29.1377   23.6797 O   0  0  0  0  0  0  0  0  0  0  0  0
  -29.1328  -12.1189   21.9470 O   0  0  0  0  0  0  0  0  0  0  0  0
  -30.4497  -11.0028   18.5981 O   0  0  0  0  0  0  0  0  0  0  0  0
  -28.2163  -14.4882   16.2776 O   0  0  0  0  0  0  0  0  0  0  0  0
  -31.3892  -20.5368   19.2522 O   0  0  0  0  0  0  0  0  0  0  0  0
  -23.2475  -29.7256   19.3050 O   0  0  0  0  0  0  0  0  0  0  0  0
  -23.1765  -14.7304   20.8485 O   0  0  0  0  0  0  0  0  0  1  0  0
  -22.9921  -16.5634   22.9333 O   0  0  0  0  0  0  0  0  0  0  0  0
  -19.6526  -30.9383   23.3062 F   0  0  0  0  0  0  0  0  0  0  0  0
  -23.9131  -31.4966   21.3207 F   0  0  0  0  0  0  0  0  0  0  0  0
  1  2  1  0  0  0  0
  1  6  2  0  0  0  0
  2  7  2  0  0  0  0
  3  9  2  0  0  0  0
  3 10  1  0  0  0  0
  4 11  2  0  0  0  0
  4 19  1  0  0  0  0
  5 12  1  0  0  0  0
  5 19  2  0  0  0  0
  6 21  1  0  0  0  0
  7 23  1  0  0  0  0
  8 13  2  0  0  0  0
  8 22  1  0  0  0  0
  9 25  1  0  0  0  0
 10 26  2  0  0  0  0
 11 27  1  0  0  0  0
 12 27  2  0  0  0  0
 13 28  1  0  0  0  0
 14 15  2  0  0  0  0
 14 29  1  0  0  0  0
 15 30  1  0  0  0  0
 16 24  1  0  0  0  0
 16 28  2  0  0  0  0
 17 25  2  0  0  0  0
 17 26  1  0  0  0  0
 18 30  2  0  0  0  0
 18 31  1  0  0  0  0
 19 32  1  0  0  0  0
 20 32  1  0  0  0  0
 20 33  2  0  0  0  0
 20 34  1  0  0  0  0
 21 23  2  0  0  0  0
 21 39  1  0  0  0  0
 22 24  2  0  0  0  0
 22 40  1  0  0  0  0
 23 48  1  0  0  0  0
 24 41  1  0  0  0  0
 25 57  1  0  0  0  0
 26 71  1  0  0  0  0
 27 81  1  0  0  0  0
 28 82  1  0  0  0  0
 29 31  2  0  0  0  0
 29 81  1  0  0  0  0
 30 84  1  0  0  0  0
 31 85  1  0  0  0  0
 32 65  2  0  0  0  0
 33 66  1  0  0  0  0
 33 69  1  0  0  0  0
 34 70  1  0  0  0  0
 34 76  2  0  0  0  0
 35 49  1  0  0  0  0
 35 72  1  0  0  0  0
 35 77  2  0  0  0  0
 36 61  1  0  0  0  0
 36 67  1  0  0  0  0
 36 78  2  0  0  0  0
 37 62  1  0  0  0  0
 37 73  1  0  0  0  0
 37 79  2  0  0  0  0
 38 68  1  0  0  0  0
 38 71  1  0  0  0  0
 38 80  2  0  0  0  0
 39 42  1  0  0  0  0
 40 49  1  0  0  0  0
 41 67  1  0  0  0  0
 42 44  1  0  0  0  0
 43 45  1  0  0  0  0
 43 46  1  0  0  0  0
 44 48  1  0  0  0  0
 45 50  1  0  0  0  0
 46 68  1  0  0  0  0
 47 50  1  0  0  0  0
 47 68  1  0  0  0  0
 48 72  1  0  0  0  0
 49 67  1  0  0  0  0
 50 66  1  0  0  0  0
 51 62  1  0  0  0  0
 52 63  1  0  0  0  0
 53 64  1  0  0  0  0
 54 64  1  0  0  0  0
 55 64  1  0  0  0  0
 56 74  1  0  0  0  0
 57 75  1  0  0  0  0
 58 59  1  0  0  0  0
 58 82  1  0  0  0  0
 59 83  1  0  0  0  0
 60 63  1  0  0  0  0
 60 83  1  0  0  0  0
 61 64  1  0  0  0  0
 61 73  1  0  0  0  0
 62 74  1  0  0  0  0
 63 75  1  0  0  0  0
 65 66  1  0  0  0  0
M  CHG  2  74   1  75   1
M  ISO  4  38 100  58 101  71 100  82 101
M  END
> <Batch ID>
0007

> <Smiles>
CNC(C)C(=O)NC(C(=O)N1Cc2cc([101O:1][101CH2:1]COCC(C)NCc3cccc([100NH:0][100C:0](=O)N4CCCC(n5nc(-c6ccc(Oc7ccc(F)cc7F)cc6)c(C(N)=O)c5N)C4)c3)ccc2CC1C(=O)NC1CCCc2ccccc21)C(C)(C)C

> <Shape>
0.240

> <Color>
0.056

> <Negative vol penalty>
0.000

$$$$

  -OEChem-04042320323D

 83 92  0     1  0  0  0  0  0999 V2000
  -28.8988  -11.5020   20.4473 C   0  0  0  0  0  0  0  0  0  0  0  0
  -29.0613  -12.8387   20.0973 C   0  0  0  0  0  0  0  0  0  0  0  0
  -23.9792  -28.3369   19.2763 C   0  0  0  0  0  0  0  0  0  0  0  0
  -23.7222  -26.2814   20.5197 C   0  0  0  0  0  0  0  0  0  0  0  0
  -27.6177  -10.9729   20.5981 C   0  0  0  0  0  0  0  0  0  0  0  0
  -27.9426  -13.6467   19.8969 C   0  0  0  0  0  0  0  0  0  0  0  0
  -28.3972  -18.1781   22.1116 C   0  0  0  0  0  0  0  0  0  0  0  0
  -23.0685  -28.9648   20.1260 C   0  0  0  0  0  0  0  0  0  0  0  0
  -22.8115  -26.9093   21.3694 C   0  0  0  0  0  0  0  0  0  0  0  0
  -29.1889  -19.1262   21.4650 C   0  0  0  0  0  0  0  0  0  0  0  0
  -19.5515  -27.8033   21.3045 C   0  0  0  0  0  0  0  0  0  0  0  0
  -18.3797  -27.1158   21.6204 C   0  0  0  0  0  0  0  0  0  0  0  0
  -27.2034  -20.1705   20.5783 C   0  0  0  0  0  0  0  0  0  0  0  0
  -18.9719  -27.1825   23.9618 C   0  0  0  0  0  0  0  0  0  0  0  0
  -24.3060  -26.9951   19.4731 C   0  0  0  0  0  0  0  0  0  0  0  0
  -26.6428  -26.2670   18.7542 C   0  0  0  0  0  0  0  0  0  0  0  0
  -26.4829  -11.7772   20.4090 C   0  0  0  0  0  0  0  0  0  0  0  0
  -27.0009  -18.2126   21.9873 C   0  0  0  0  0  0  0  0  0  0  0  0
  -26.6451  -13.1274   20.0441 C   0  0  0  0  0  0  0  0  0  0  0  0
  -26.3961  -19.2232   21.2263 C   0  0  0  0  0  0  0  0  0  0  0  0
  -22.4847  -28.2510   21.1726 C   0  0  0  0  0  0  0  0  0  0  0  0
  -28.5922  -20.1209   20.6959 C   0  0  0  0  0  0  0  0  0  0  0  0
  -20.4336  -28.1803   22.3172 C   0  0  0  0  0  0  0  0  0  0  0  0
  -18.0899  -26.8054   22.9491 C   0  0  0  0  0  0  0  0  0  0  0  0
  -20.1437  -27.8699   23.6459 C   0  0  0  0  0  0  0  0  0  0  0  0
  -25.2463  -26.3458   18.5954 C   0  0  0  0  0  0  0  0  0  0  0  0
  -27.0727  -25.5522   17.6630 C   0  0  0  0  0  0  0  0  0  0  0  0
  -27.4769  -26.7929   19.7951 C   0  0  0  0  0  0  0  0  0  0  0  0
  -24.8034  -16.2358   20.8181 C   0  0  0  0  0  0  0  0  0  0  0  0
  -22.7453  -18.4249   22.0405 C   0  0  0  0  0  0  0  0  0  0  0  0
  -21.6865  -21.8014   22.7447 C   0  0  0  0  0  0  0  0  0  0  0  0
  -26.5443  -21.2505   14.1471 C   0  0  0  0  0  0  0  0  0  0  0  0
  -25.1180  -11.1486   20.5370 C   0  0  0  0  0  0  0  0  0  0  0  0
  -26.1596  -17.1986   22.7128 C   0  0  0  0  0  0  0  0  0  0  0  0
  -24.9002  -19.3163   21.0776 C   0  0  0  0  0  0  0  0  0  0  0  0
  -23.9888  -12.1667   20.6732 C   0  0  0  0  0  0  0  0  0  0  0  0
  -24.6215  -24.1673   13.4606 C   0  0  0  0  0  0  0  0  0  0  0  0
  -24.1433  -13.2769   19.6385 C   0  0  0  0  0  0  0  0  0  0  0  0
  -24.7228  -24.9841   14.7501 C   0  0  0  0  0  0  0  0  0  0  0  0
  -32.9233  -19.9160   16.6313 C   0  0  0  0  0  0  0  0  0  0  0  0
  -24.5533  -22.6687   13.7457 C   0  0  0  0  0  0  0  0  0  0  0  0
  -32.1529  -19.3732   15.4364 C   0  0  0  0  0  0  0  0  0  0  0  0
  -25.7441  -22.9660   15.8829 C   0  0  0  0  0  0  0  0  0  0  0  0
  -25.4565  -14.0421   19.8424 C   0  0  1  0  0  0  0  0  0  0  0  0
  -24.7745  -17.0218   22.0983 C   0  0  1  0  0  0  0  0  0  0  0  0
  -25.8718  -24.4803   15.6441 C   0  0  2  0  0  0  0  0  0  0  0  0
  -29.8759  -20.2136   15.3240 C   0  0  2  0  0  0  0  0  0  0  0  0
  -32.2671  -21.1833   17.1691 C   0  0  2  0  0  0  0  0  0  0  0  0
  -30.1080  -19.8743   16.7686 C   0  0  1  0  0  0  0  0  0  0  0  0
  -34.4531  -22.1594   17.8885 C   0  0  0  0  0  0  0  0  0  0  0  0
  -19.6821  -22.6567   23.9889 C   0  0  0  0  0  0  0  0  0  0  0  0
  -21.4538  -18.5676   19.2797 C   0  0  0  0  0  0  0  0  0  0  0  0
  -20.3472  -20.7000   19.9843 C   0  0  0  0  0  0  0  0  0  0  0  0
  -19.8384  -18.5756   21.1888 C   0  0  0  0  0  0  0  0  0  0  0  0
  -23.3661  -23.3952   24.5879 C   0  0  0  0  0  0  0  0  0  0  0  0
  -28.5639  -19.9131   14.6875 C   0  0  0  0  0  0  0  0  0  0  0  0
  -33.0834  -21.7553   18.3260 C   0  0  0  0  0  0  0  0  0  0  0  0
  -30.0129  -22.0229   17.9637 C   0  0  0  0  0  0  0  0  0  0  0  0
  -28.8572  -21.5887   18.8435 C   0  0  0  0  0  0  0  0  0  1  0  0
  -22.0878  -19.6808   21.5213 C   0  0  1  0  0  0  0  0  0  0  0  0
  -21.1660  -22.3333   24.0678 C   0  0  2  0  0  0  0  0  0  0  0  0
  -20.9601  -19.3784   20.4946 C   0  0  0  0  0  0  0  0  0  0  0  0
  -24.8175  -25.7303   17.4903 N   0  0  0  0  0  0  0  0  0  0  0  0
  -25.9512  -25.2580   16.9447 N   0  0  0  0  0  0  0  0  0  0  0  0
  -24.1210  -18.2981   21.8011 N   0  0  0  0  0  0  0  0  0  0  0  0
  -25.6717  -22.2551   14.5967 N   0  0  0  0  0  0  0  0  0  0  0  0
  -30.7456  -19.0936   15.7056 N   0  0  2  0  0  0  0  0  0  0  0  0
  -28.2968  -25.1529   17.2574 N   0  0  0  0  0  0  0  0  0  0  0  0
  -26.8722  -27.5024   20.8416 N   0  0  0  0  0  0  0  0  0  0  0  0
  -25.3358  -14.9673   20.9486 N   0  0  0  0  0  0  0  0  0  0  0  0
  -21.6434  -20.4241   22.6954 N   0  0  0  0  0  0  0  0  0  0  0  0
  -27.5812  -20.9230   15.0122 N   0  0  0  0  0  0  0  0  0  0  0  0
  -30.8601  -20.8445   17.6505 N   0  3  2  0  0  0  0  0  0  0  0  0
  -21.8976  -23.5737   24.4512 N   0  3  0  0  0  0  0  0  0  0  0  0
  -28.7234  -26.6522   19.7886 O   0  0  0  0  0  0  0  0  0  0  0  0
  -24.3731  -16.7420   19.7884 O   0  0  0  0  0  0  0  0  0  0  0  0
  -22.0649  -17.5907   22.6426 O   0  0  0  0  0  0  0  0  0  0  0  0
  -22.0876  -22.5345   21.8434 O   0  0  0  0  0  0  0  0  0  0  0  0
  -26.4125  -20.6909   13.0533 O   0  0  0  0  0  0  0  0  0  0  0  0
  -21.5962  -28.8635   22.0020 O   0  0  0  0  0  0  0  0  0  0  0  0
  -29.3626  -21.0472   20.0632 O   0  0  0  0  0  0  0  0  0  1  0  0
  -16.9638  -26.1466   23.2525 F   0  0  0  0  0  0  0  0  0  0  0  0
  -20.9867  -28.2305   24.6232 F   0  0  0  0  0  0  0  0  0  0  0  0
  1  2  1  0  0  0  0
  1  5  2  0  0  0  0
  2  6  2  0  0  0  0
  3  8  2  0  0  0  0
  3 15  1  0  0  0  0
  4  9  1  0  0  0  0
  4 15  2  0  0  0  0
  5 17  1  0  0  0  0
  6 19  1  0  0  0  0
  7 10  2  0  0  0  0
  7 18  1  0  0  0  0
  8 21  1  0  0  0  0
  9 21  2  0  0  0  0
 10 22  1  0  0  0  0
 11 12  2  0  0  0  0
 11 23  1  0  0  0  0
 12 24  1  0  0  0  0
 13 20  1  0  0  0  0
 13 22  2  0  0  0  0
 14 24  2  0  0  0  0
 14 25  1  0  0  0  0
 15 26  1  0  0  0  0
 16 26  1  0  0  0  0
 16 27  2  0  0  0  0
 16 28  1  0  0  0  0
 17 19  2  0  0  0  0
 17 33  1  0  0  0  0
 18 20  2  0  0  0  0
 18 34  1  0  0  0  0
 19 44  1  0  0  0  0
 20 35  1  0  0  0  0
 21 80  1  0  0  0  0
 22 81  1  0  0  0  0
 23 25  2  0  0  0  0
 23 80  1  0  0  0  0
 24 82  1  0  0  0  0
 25 83  1  0  0  0  0
 26 63  2  0  0  0  0
 27 64  1  0  0  0  0
 27 68  1  0  0  0  0
 28 69  1  0  0  0  0
 28 75  2  0  0  0  0
 29 45  1  0  0  0  0
 29 70  1  0  0  0  0
 29 76  2  0  0  0  0
 30 60  1  0  0  0  0
 30 65  1  0  0  0  0
 30 77  2  0  0  0  0
 31 61  1  0  0  0  0
 31 71  1  0  0  0  0
 31 78  2  0  0  0  0
 32 66  1  0  0  0  0
 32 72  1  0  0  0  0
 32 79  2  0  0  0  0
 33 36  1  0  0  0  0
 34 45  1  0  0  0  0
 35 65  1  0  0  0  0
 36 38  1  0  0  0  0
 37 39  1  0  0  0  0
 37 41  1  0  0  0  0
 38 44  1  0  0  0  0
 39 46  1  0  0  0  0
 40 42  1  0  0  0  0
 40 48  1  0  0  0  0
 41 66  1  0  0  0  0
 42 67  1  0  0  0  0
 43 46  1  0  0  0  0
 43 66  1  0  0  0  0
 44 70  1  0  0  0  0
 45 65  1  0  0  0  0
 46 64  1  0  0  0  0
 47 49  1  0  0  0  0
 47 56  1  0  0  0  0
 47 67  1  0  0  0  0
 48 57  1  0  0  0  0
 48 73  1  0  0  0  0
 49 67  1  0  0  0  0
 49 73  1  0  0  0  0
 50 57  1  0  0  0  0
 51 61  1  0  0  0  0
 52 62  1  0  0  0  0
 53 62  1  0  0  0  0
 54 62  1  0  0  0  0
 55 74  1  0  0  0  0
 56 72  1  0  0  0  0
 58 59  1  0  0  0  0
 58 73  1  0  0  0  0
 59 81  1  0  0  0  0
 60 62  1  0  0  0  0
 60 71  1  0  0  0  0
 61 74  1  0  0  0  0
 63 64  1  0  0  0  0
M  CHG  2  73   1  74   1
M  ISO  4  32 100  59 101  72 100  81 101
M  END
> <Batch ID>
0007

> <Smiles>
CCC1CCN2C(C[100NH:0][100C:0](=O)N3CCCC(n4nc(-c5ccc(Oc6ccc(F)cc6F)cc5)c(C(N)=O)c4N)C3)C2N1C[101CH2:1][101O:1]c1ccc2c(c1)CN(C(=O)C(NC(=O)C(C)NC)C(C)(C)C)C(C(=O)NC1CCCc3ccccc31)C2

> <Shape>
0.179

> <Color>
0.073

> <Negative vol penalty>
0.000

$$$$

  -OEChem-04042320323D

 80 88  0     1  0  0  0  0  0999 V2000
  -28.6461  -32.3442   24.3264 C   0  0  0  0  0  0  0  0  0  0  0  0
  -29.7875  -31.5596   24.4559 C   0  0  0  0  0  0  0  0  0  0  0  0
  -23.0350   -9.9755   19.9347 C   0  0  0  0  0  0  0  0  0  0  0  0
  -23.8165   -9.9205   22.2202 C   0  0  0  0  0  0  0  0  0  0  0  0
  -27.3931  -31.7399   24.2327 C   0  0  0  0  0  0  0  0  0  0  0  0
  -29.6766  -30.1700   24.4927 C   0  0  0  0  0  0  0  0  0  0  0  0
  -33.1901  -24.2355   22.5554 C   0  0  0  0  0  0  0  0  0  0  0  0
  -32.8547  -17.2656   23.4829 C   0  0  0  0  0  0  0  0  0  0  0  0
  -32.2317  -16.4150   22.5697 C   0  0  0  0  0  0  0  0  0  0  0  0
  -22.2616   -8.8392   20.1718 C   0  0  0  0  0  0  0  0  0  0  0  0
  -23.0430   -8.7842   22.4573 C   0  0  0  0  0  0  0  0  0  0  0  0
  -33.6443  -23.0302   23.0889 C   0  0  0  0  0  0  0  0  0  0  0  0
  -19.3061   -8.0992   21.6382 C   0  0  0  0  0  0  0  0  0  0  0  0
  -17.9939   -8.0979   21.1653 C   0  0  0  0  0  0  0  0  0  0  0  0
  -31.4352  -22.0939   22.8388 C   0  0  0  0  0  0  0  0  0  0  0  0
  -30.7030  -18.1669   24.1113 C   0  0  0  0  0  0  0  0  0  0  0  0
  -18.4865   -6.1639   19.8036 C   0  0  0  0  0  0  0  0  0  0  0  0
  -23.8125  -10.5161   20.9589 C   0  0  0  0  0  0  0  0  0  0  0  0
  -24.2237  -13.0325   20.8799 C   0  0  0  0  0  0  0  0  0  0  0  0
  -27.2676  -30.3420   24.2587 C   0  0  0  0  0  0  0  0  0  0  0  0
  -31.8501  -24.3828   22.1691 C   0  0  0  0  0  0  0  0  0  0  0  0
  -28.4206  -29.5465   24.4006 C   0  0  0  0  0  0  0  0  0  0  0  0
  -30.9671  -23.3013   22.2983 C   0  0  0  0  0  0  0  0  0  0  0  0
  -32.0903  -18.1415   24.2538 C   0  0  0  0  0  0  0  0  0  0  0  0
  -30.8444  -16.4404   22.4272 C   0  0  0  0  0  0  0  0  0  0  0  0
  -22.2656   -8.2436   21.4331 C   0  0  0  0  0  0  0  0  0  0  0  0
  -32.7662  -21.9601   23.2334 C   0  0  0  0  0  0  0  0  0  0  0  0
  -20.2086   -7.1328   21.1938 C   0  0  0  0  0  0  0  0  0  0  0  0
  -17.5840   -7.1303   20.2480 C   0  0  0  0  0  0  0  0  0  0  0  0
  -30.0800  -17.3164   23.1980 C   0  0  0  0  0  0  0  0  0  0  0  0
  -19.7987   -6.1652   20.2765 C   0  0  0  0  0  0  0  0  0  0  0  0
  -24.6121  -11.6896   20.7145 C   0  0  0  0  0  0  0  0  0  0  0  0
  -25.3329  -13.7577   20.5189 C   0  0  0  0  0  0  0  0  0  0  0  0
  -22.9722  -13.5759   21.3204 C   0  0  0  0  0  0  0  0  0  0  0  0
  -29.4453  -26.2511   23.0804 C   0  0  0  0  0  0  0  0  0  0  0  0
  -27.9260  -24.8559   20.5769 C   0  0  0  0  0  0  0  0  0  0  0  0
  -27.6776  -22.1920   18.4583 C   0  0  0  0  0  0  0  0  0  0  0  0
  -30.8276  -14.6477   20.6574 C   0  0  0  0  0  0  0  0  0  0  0  0
  -25.8877  -29.7359   24.2017 C   0  0  0  0  0  0  0  0  0  0  0  0
  -31.3822  -25.6810   21.5705 C   0  0  0  0  0  0  0  0  0  0  0  0
  -29.5237  -23.4017   21.8799 C   0  0  0  0  0  0  0  0  0  0  0  0
  -25.8903  -28.2454   23.8718 C   0  0  0  0  0  0  0  0  0  0  0  0
  -29.6237  -12.3084   18.2584 C   0  0  0  0  0  0  0  0  0  0  0  0
  -26.9314  -27.5142   24.7134 C   0  0  0  0  0  0  0  0  0  0  0  0
  -28.1806  -12.0493   18.6971 C   0  0  0  0  0  0  0  0  0  0  0  0
  -30.5562  -12.4902   19.4547 C   0  0  0  0  0  0  0  0  0  0  0  0
  -28.6835  -13.2426   20.8674 C   0  0  0  0  0  0  0  0  0  0  0  0
  -28.3434  -28.0353   24.4194 C   0  0  1  0  0  0  0  0  0  0  0  0
  -29.8747  -25.8841   21.6880 C   0  0  1  0  0  0  0  0  0  0  0  0
  -27.6951  -13.1175   19.6965 C   0  0  2  0  0  0  0  0  0  0  0  0
  -26.3136  -21.3208   16.5405 C   0  0  0  0  0  0  0  0  0  0  0  0
  -25.6823  -24.1209   22.5097 C   0  0  0  0  0  0  0  0  0  0  0  0
  -24.8493  -22.4822   20.8100 C   0  0  0  0  0  0  0  0  0  0  0  0
  -24.9095  -24.9164   20.2682 C   0  0  0  0  0  0  0  0  0  0  0  0
  -30.0253  -22.1491   16.6567 C   0  0  0  0  0  0  0  0  0  0  0  0
  -32.7627  -19.0606   25.2388 C   0  0  0  0  0  0  0  0  0  0  0  0
  -27.0769  -23.6210   20.3952 C   0  0  1  0  0  0  0  0  0  0  0  0
  -27.5448  -22.1150   16.9480 C   0  0  2  0  0  0  0  0  0  0  0  0
  -25.6562  -23.7835   21.0055 C   0  0  0  0  0  0  0  0  0  0  0  0
  -25.8698  -11.5661   20.2820 N   0  0  0  0  0  0  0  0  0  0  0  0
  -26.2812  -12.8408   20.1725 N   0  0  0  0  0  0  0  0  0  0  0  0
  -29.1125  -24.6936   21.3060 N   0  0  0  0  0  0  0  0  0  0  0  0
  -30.0347  -13.5203   20.3556 N   0  0  0  0  0  0  0  0  0  0  0  0
  -25.5798  -15.0839   20.4672 N   0  0  0  0  0  0  0  0  0  0  0  0
  -21.9385  -12.6894   21.6518 N   0  0  0  0  0  0  0  0  0  0  0  0
  -30.2142  -15.5756   21.4984 N   0  0  0  0  0  0  0  0  0  0  0  0
  -28.8350  -27.4873   23.1735 N   0  0  0  0  0  0  0  0  0  0  0  0
  -27.0833  -23.3279   18.9660 N   0  0  0  0  0  0  0  0  0  0  0  0
  -32.4597  -20.4589   24.9694 N   0  0  0  0  0  0  0  0  0  1  0  0
  -28.7446  -21.4592   16.3553 N   0  3  0  0  0  0  0  0  0  0  0  0
  -22.7710  -14.8114   21.4017 O   0  0  0  0  0  0  0  0  0  0  0  0
  -29.6510  -25.4698   24.0018 O   0  0  0  0  0  0  0  0  0  0  0  0
  -27.5538  -25.9236   20.0838 O   0  0  0  0  0  0  0  0  0  0  0  0
  -28.2479  -21.3287   19.1216 O   0  0  0  0  0  0  0  0  0  0  0  0
  -31.9565  -14.7932   20.1816 O   0  0  0  0  0  0  0  0  0  0  0  0
  -21.5108   -7.1349   21.6649 O   0  0  0  0  0  0  0  0  0  0  0  0
  -33.2068  -20.7827   23.7544 O   0  0  0  0  0  0  0  0  0  1  0  0
  -16.3235   -7.1283   19.7951 F   0  0  0  0  0  0  0  0  0  0  0  0
  -28.7460  -17.3503   23.0684 F   0  0  0  0  0  0  0  0  0  0  0  0
  -20.6608   -5.2336   19.8468 F   0  0  0  0  0  0  0  0  0  0  0  0
  1  2  1  0  0  0  0
  1  5  2  0  0  0  0
  2  6  2  0  0  0  0
  3 10  2  0  0  0  0
  3 18  1  0  0  0  0
  4 11  1  0  0  0  0
  4 18  2  0  0  0  0
  5 20  1  0  0  0  0
  6 22  1  0  0  0  0
  7 12  2  0  0  0  0
  7 21  1  0  0  0  0
  8  9  2  0  0  0  0
  8 24  1  0  0  0  0
  9 25  1  0  0  0  0
 10 26  1  0  0  0  0
 11 26  2  0  0  0  0
 12 27  1  0  0  0  0
 13 14  2  0  0  0  0
 13 28  1  0  0  0  0
 14 29  1  0  0  0  0
 15 23  1  0  0  0  0
 15 27  2  0  0  0  0
 16 24  2  0  0  0  0
 16 30  1  0  0  0  0
 17 29  2  0  0  0  0
 17 31  1  0  0  0  0
 18 32  1  0  0  0  0
 19 32  1  0  0  0  0
 19 33  2  0  0  0  0
 19 34  1  0  0  0  0
 20 22  2  0  0  0  0
 20 39  1  0  0  0  0
 21 23  2  0  0  0  0
 21 40  1  0  0  0  0
 22 48  1  0  0  0  0
 23 41  1  0  0  0  0
 24 56  1  0  0  0  0
 25 30  2  0  0  0  0
 25 66  1  0  0  0  0
 26 76  1  0  0  0  0
 27 77  1  0  0  0  0
 28 31  2  0  0  0  0
 28 76  1  0  0  0  0
 29 78  1  0  0  0  0
 30 79  1  0  0  0  0
 31 80  1  0  0  0  0
 32 60  2  0  0  0  0
 33 61  1  0  0  0  0
 33 64  1  0  0  0  0
 34 65  1  0  0  0  0
 34 71  2  0  0  0  0
 35 49  1  0  0  0  0
 35 67  1  0  0  0  0
 35 72  2  0  0  0  0
 36 57  1  0  0  0  0
 36 62  1  0  0  0  0
 36 73  2  0  0  0  0
 37 58  1  0  0  0  0
 37 68  1  0  0  0  0
 37 74  2  0  0  0  0
 38 63  1  0  0  0  0
 38 66  1  0  0  0  0
 38 75  2  0  0  0  0
 39 42  1  0  0  0  0
 40 49  1  0  0  0  0
 41 62  1  0  0  0  0
 42 44  1  0  0  0  0
 43 45  1  0  0  0  0
 43 46  1  0  0  0  0
 44 48  1  0  0  0  0
 45 50  1  0  0  0  0
 46 63  1  0  0  0  0
 47 50  1  0  0  0  0
 47 63  1  0  0  0  0
 48 67  1  0  0  0  0
 49 62  1  0  0  0  0
 50 61  1  0  0  0  0
 51 58  1  0  0  0  0
 52 59  1  0  0  0  0
 53 59  1  0  0  0  0
 54 59  1  0  0  0  0
 55 70  1  0  0  0  0
 56 69  1  0  0  0  0
 57 59  1  0  0  0  0
 57 68  1  0  0  0  0
 58 70  1  0  0  0  0
 60 61  1  0  0  0  0
 69 77  1  0  0  0  0
M  CHG  1  70   1
M  ISO  4  38 100  66 100  69 101  77 101
M  END
> <Batch ID>
0007

> <Smiles>
CNC(C)C(=O)NC(C(=O)N1Cc2cc([101O:1][101NH:1]Cc3ccc([100NH:0][100C:0](=O)N4CCCC(n5nc(-c6ccc(Oc7ccc(F)cc7F)cc6)c(C(N)=O)c5N)C4)c(F)c3)ccc2CC1C(=O)NC1CCCc2ccccc21)C(C)(C)C

> <Shape>
0.216

> <Color>
0.211

> <Negative vol penalty>
0.000

$$$$

  -OEChem-04042320323D

 82 90  0     1  0  0  0  0  0999 V2000
  -40.0633  -23.6973   19.7985 C   0  0  0  0  0  0  0  0  0  0  0  0
  -38.7050  -23.4670   19.9920 C   0  0  0  0  0  0  0  0  0  0  0  0
  -23.0959   -9.8268   19.9552 C   0  0  0  0  0  0  0  0  0  0  0  0
  -23.8450   -9.8732   22.2517 C   0  0  0  0  0  0  0  0  0  0  0  0
  -40.5675  -24.9946   19.8790 C   0  0  0  0  0  0  0  0  0  0  0  0
  -37.8503  -24.5339   20.2672 C   0  0  0  0  0  0  0  0  0  0  0  0
  -33.5601  -24.3281   17.5845 C   0  0  0  0  0  0  0  0  0  0  0  0
  -22.3662   -8.6671   20.2166 C   0  0  0  0  0  0  0  0  0  0  0  0
  -23.1152   -8.7136   22.5131 C   0  0  0  0  0  0  0  0  0  0  0  0
  -32.5787  -23.4389   18.0203 C   0  0  0  0  0  0  0  0  0  0  0  0
  -19.8952   -7.8806   23.1114 C   0  0  0  0  0  0  0  0  0  0  0  0
  -19.1334   -7.8456   24.2793 C   0  0  0  0  0  0  0  0  0  0  0  0
  -31.4001  -25.2635   19.0697 C   0  0  0  0  0  0  0  0  0  0  0  0
  -31.0639  -17.7684   20.5461 C   0  0  0  0  0  0  0  0  0  0  0  0
  -29.5741  -19.3503   22.2955 C   0  0  0  0  0  0  0  0  0  0  0  0
  -20.3970   -5.9344   25.0462 C   0  0  0  0  0  0  0  0  0  0  0  0
  -23.8353  -10.4298   20.9727 C   0  0  0  0  0  0  0  0  0  0  0  0
  -24.1442  -12.9576   20.8218 C   0  0  0  0  0  0  0  0  0  0  0  0
  -39.7171  -26.0792   20.1457 C   0  0  0  0  0  0  0  0  0  0  0  0
  -33.4744  -25.6923   17.8979 C   0  0  0  0  0  0  0  0  0  0  0  0
  -38.3439  -25.8468   20.3526 C   0  0  0  0  0  0  0  0  0  0  0  0
  -32.3804  -26.1683   18.6345 C   0  0  0  0  0  0  0  0  0  0  0  0
  -30.1674  -17.1728   21.4333 C   0  0  0  0  0  0  0  0  0  0  0  0
  -22.3759   -8.1105   21.4956 C   0  0  0  0  0  0  0  0  0  0  0  0
  -31.5000  -23.9061   18.7654 C   0  0  0  0  0  0  0  0  0  0  0  0
  -20.9078   -6.9425   22.9108 C   0  0  0  0  0  0  0  0  0  0  0  0
  -30.4706  -19.9459   21.4083 C   0  0  0  0  0  0  0  0  0  0  0  0
  -19.3843   -6.8725   25.2467 C   0  0  0  0  0  0  0  0  0  0  0  0
  -31.2155  -19.1550   20.5336 C   0  0  0  0  0  0  0  0  0  0  0  0
  -29.4225  -17.9637   22.3080 C   0  0  0  0  0  0  0  0  0  0  0  0
  -21.1587   -5.9694   23.8782 C   0  0  0  0  0  0  0  0  0  0  0  0
  -24.5897  -11.6275   20.7031 C   0  0  0  0  0  0  0  0  0  0  0  0
  -25.2280  -13.7168   20.4538 C   0  0  0  0  0  0  0  0  0  0  0  0
  -22.8650  -13.4617   21.2283 C   0  0  0  0  0  0  0  0  0  0  0  0
  -35.2702  -27.7323   19.5462 C   0  0  0  0  0  0  0  0  0  0  0  0
  -33.1470  -29.9091   18.4167 C   0  0  0  0  0  0  0  0  0  0  0  0
  -30.0229  -30.5484   17.2009 C   0  0  0  0  0  0  0  0  0  0  0  0
  -30.6790  -14.8373   20.6395 C   0  0  0  0  0  0  0  0  0  0  0  0
  -40.3159  -27.4578   20.2699 C   0  0  0  0  0  0  0  0  0  0  0  0
  -34.5274  -26.6427   17.3975 C   0  0  0  0  0  0  0  0  0  0  0  0
  -32.2313  -27.6267   18.9801 C   0  0  0  0  0  0  0  0  0  0  0  0
  -39.2832  -28.5795   20.1945 C   0  0  0  0  0  0  0  0  0  0  0  0
  -29.6077  -12.3787   18.2975 C   0  0  0  0  0  0  0  0  0  0  0  0
  -38.0861  -28.2638   21.0858 C   0  0  0  0  0  0  0  0  0  0  0  0
  -28.1701  -12.0735   18.7243 C   0  0  0  0  0  0  0  0  0  0  0  0
  -30.5141  -12.6350   19.5002 C   0  0  0  0  0  0  0  0  0  0  0  0
  -28.5913  -13.3517   20.8635 C   0  0  0  0  0  0  0  0  0  0  0  0
  -37.3810  -26.9811   20.6285 C   0  0  1  0  0  0  0  0  0  0  0  0
  -34.6066  -27.9298   18.2127 C   0  0  1  0  0  0  0  0  0  0  0  0
  -27.6263  -13.1504   19.6836 C   0  0  2  0  0  0  0  0  0  0  0  0
  -28.5673  -32.4295   16.4010 C   0  0  0  0  0  0  0  0  0  0  0  0
  -32.7107  -30.7957   21.3034 C   0  0  0  0  0  0  0  0  0  0  0  0
  -30.6228  -31.9585   20.5573 C   0  0  0  0  0  0  0  0  0  0  0  0
  -32.8349  -32.6641   19.6457 C   0  0  0  0  0  0  0  0  0  0  0  0
  -29.7537  -29.3494   14.5086 C   0  0  0  0  0  0  0  0  0  0  0  0
  -29.8739  -23.3603   20.4128 C   0  0  0  0  0  0  0  0  0  1  0  0
  -29.4565  -22.0750   21.1009 C   0  0  0  0  0  0  0  0  0  0  0  0
  -31.8300  -30.4678   18.8987 C   0  0  1  0  0  0  0  0  0  0  0  0
  -29.5542  -31.3453   15.9969 C   0  0  2  0  0  0  0  0  0  0  0  0
  -32.0031  -31.4437   20.0966 C   0  0  0  0  0  0  0  0  0  0  0  0
  -25.8577  -11.5431   20.2918 N   0  0  0  0  0  0  0  0  0  0  0  0
  -26.2181  -12.8299   20.1487 N   0  0  0  0  0  0  0  0  0  0  0  0
  -33.2901  -28.5155   18.4736 N   0  0  0  0  0  0  0  0  0  0  0  0
  -29.9374  -13.6695   20.3617 N   0  0  0  0  0  0  0  0  0  0  0  0
  -25.4211  -15.0499   20.3646 N   0  0  0  0  0  0  0  0  0  0  0  0
  -21.8637  -12.5436   21.5727 N   0  0  0  0  0  0  0  0  0  0  0  0
  -30.0156  -15.7640   21.4431 N   0  0  0  0  0  0  0  0  0  0  0  0
  -36.5599  -27.2428   19.4658 N   0  0  0  0  0  0  0  0  0  0  0  0
  -31.1872  -31.0622   17.7317 N   0  0  0  0  0  0  0  0  0  0  0  0
  -28.8893  -30.4489   15.0094 N   0  3  0  0  0  0  0  0  0  0  0  0
  -22.6122  -14.6897   21.2688 O   0  0  0  0  0  0  0  0  0  0  0  0
  -34.6580  -28.0053   20.5721 O   0  0  0  0  0  0  0  0  0  0  0  0
  -34.0142  -30.6802   17.9982 O   0  0  0  0  0  0  0  0  0  0  0  0
  -29.4149  -29.5703   17.6301 O   0  0  0  0  0  0  0  0  0  0  0  0
  -31.8079  -15.0150   20.1748 O   0  0  0  0  0  0  0  0  0  0  0  0
  -21.6638   -6.9791   21.7511 O   0  0  0  0  0  0  0  0  0  0  0  0
  -30.5410  -23.0402   19.1926 O   0  0  0  0  0  0  0  0  0  1  0  0
  -30.6174  -21.3080   21.3964 O   0  0  0  0  0  0  0  0  0  0  0  0
  -18.6537   -6.8400   26.3689 F   0  0  0  0  0  0  0  0  0  0  0  0
  -32.0780  -19.7218   19.6791 F   0  0  0  0  0  0  0  0  0  0  0  0
  -28.5584  -17.4016   23.1655 F   0  0  0  0  0  0  0  0  0  0  0  0
  -22.1310   -5.0663   23.6916 F   0  0  0  0  0  0  0  0  0  0  0  0
  1  2  1  0  0  0  0
  1  5  2  0  0  0  0
  2  6  2  0  0  0  0
  3  8  2  0  0  0  0
  3 17  1  0  0  0  0
  4  9  1  0  0  0  0
  4 17  2  0  0  0  0
  5 19  1  0  0  0  0
  6 21  1  0  0  0  0
  7 10  2  0  0  0  0
  7 20  1  0  0  0  0
  8 24  1  0  0  0  0
  9 24  2  0  0  0  0
 10 25  1  0  0  0  0
 11 12  2  0  0  0  0
 11 26  1  0  0  0  0
 12 28  1  0  0  0  0
 13 22  1  0  0  0  0
 13 25  2  0  0  0  0
 14 23  2  0  0  0  0
 14 29  1  0  0  0  0
 15 27  1  0  0  0  0
 15 30  2  0  0  0  0
 16 28  2  0  0  0  0
 16 31  1  0  0  0  0
 17 32  1  0  0  0  0
 18 32  1  0  0  0  0
 18 33  2  0  0  0  0
 18 34  1  0  0  0  0
 19 21  2  0  0  0  0
 19 39  1  0  0  0  0
 20 22  2  0  0  0  0
 20 40  1  0  0  0  0
 21 48  1  0  0  0  0
 22 41  1  0  0  0  0
 23 30  1  0  0  0  0
 23 67  1  0  0  0  0
 24 76  1  0  0  0  0
 25 77  1  0  0  0  0
 26 31  2  0  0  0  0
 26 76  1  0  0  0  0
 27 29  2  0  0  0  0
 27 78  1  0  0  0  0
 28 79  1  0  0  0  0
 29 80  1  0  0  0  0
 30 81  1  0  0  0  0
 31 82  1  0  0  0  0
 32 61  2  0  0  0  0
 33 62  1  0  0  0  0
 33 65  1  0  0  0  0
 34 66  1  0  0  0  0
 34 71  2  0  0  0  0
 35 49  1  0  0  0  0
 35 68  1  0  0  0  0
 35 72  2  0  0  0  0
 36 58  1  0  0  0  0
 36 63  1  0  0  0  0
 36 73  2  0  0  0  0
 37 59  1  0  0  0  0
 37 69  1  0  0  0  0
 37 74  2  0  0  0  0
 38 64  1  0  0  0  0
 38 67  1  0  0  0  0
 38 75  2  0  0  0  0
 39 42  1  0  0  0  0
 40 49  1  0  0  0  0
 41 63  1  0  0  0  0
 42 44  1  0  0  0  0
 43 45  1  0  0  0  0
 43 46  1  0  0  0  0
 44 48  1  0  0  0  0
 45 50  1  0  0  0  0
 46 64  1  0  0  0  0
 47 50  1  0  0  0  0
 47 64  1  0  0  0  0
 48 68  1  0  0  0  0
 49 63  1  0  0  0  0
 50 62  1  0  0  0  0
 51 59  1  0  0  0  0
 52 60  1  0  0  0  0
 53 60  1  0  0  0  0
 54 60  1  0  0  0  0
 55 70  1  0  0  0  0
 56 57  1  0  0  0  0
 56 77  1  0  0  0  0
 57 78  1  0  0  0  0
 58 60  1  0  0  0  0
 58 69  1  0  0  0  0
 59 70  1  0  0  0  0
 61 62  1  0  0  0  0
M  CHG  1  70   1
M  ISO  4  38 100  56 101  67 100  77 101
M  END
> <Batch ID>
0007

> <Smiles>
CNC(C)C(=O)NC(C(=O)N1Cc2cc([101O:1][101CH2:1]COc3cc(F)c([100NH:0][100C:0](=O)N4CCCC(n5nc(-c6ccc(Oc7ccc(F)cc7F)cc6)c(C(N)=O)c5N)C4)cc3F)ccc2CC1C(=O)NC1CCCc2ccccc21)C(C)(C)C

> <Shape>
0.216

> <Color>
0.197

> <Negative vol penalty>
0.000

$$$$

  -OEChem-04042320323D

 79 87  0     1  0  0  0  0  0999 V2000
  -26.8163  -24.1409   17.1690 C   0  0  0  0  0  0  0  0  0  0  0  0
  -25.6815  -24.5653   17.8528 C   0  0  0  0  0  0  0  0  0  0  0  0
  -26.8065  -16.2920   20.6598 C   0  0  0  0  0  0  0  0  0  0  0  0
  -26.1662  -17.1668   18.5007 C   0  0  0  0  0  0  0  0  0  0  0  0
  -28.0826  -24.4767   17.6462 C   0  0  0  0  0  0  0  0  0  0  0  0
  -25.8124  -25.3249   19.0148 C   0  0  0  0  0  0  0  0  0  0  0  0
  -22.6351  -29.2665   19.1275 C   0  0  0  0  0  0  0  0  0  0  0  0
  -26.8556  -15.0051   20.1239 C   0  0  0  0  0  0  0  0  0  0  0  0
  -26.2154  -15.8800   17.9647 C   0  0  0  0  0  0  0  0  0  0  0  0
  -21.3062  -29.0039   19.4575 C   0  0  0  0  0  0  0  0  0  0  0  0
  -28.9852  -13.1682   18.2468 C   0  0  0  0  0  0  0  0  0  0  0  0
  -30.0821  -12.3712   18.5741 C   0  0  0  0  0  0  0  0  0  0  0  0
  -21.7250  -29.7504   21.7128 C   0  0  0  0  0  0  0  0  0  0  0  0
  -28.6010  -10.7405   19.5663 C   0  0  0  0  0  0  0  0  0  0  0  0
  -26.4617  -17.3728   19.8482 C   0  0  0  0  0  0  0  0  0  0  0  0
  -27.4612  -19.6366   20.4681 C   0  0  0  0  0  0  0  0  0  0  0  0
  -28.2289  -25.2489   18.8093 C   0  0  0  0  0  0  0  0  0  0  0  0
  -23.5231  -29.7636   20.0922 C   0  0  0  0  0  0  0  0  0  0  0  0
  -27.0819  -25.6702   19.5088 C   0  0  0  0  0  0  0  0  0  0  0  0
  -23.0640  -30.0209   21.3919 C   0  0  0  0  0  0  0  0  0  0  0  0
  -26.5601  -14.7991   18.7763 C   0  0  0  0  0  0  0  0  0  0  0  0
  -20.8517  -29.2431   20.7510 C   0  0  0  0  0  0  0  0  0  0  0  0
  -27.6962  -12.7515   18.5793 C   0  0  0  0  0  0  0  0  0  0  0  0
  -29.8900  -11.1573   19.2338 C   0  0  0  0  0  0  0  0  0  0  0  0
  -27.5041  -11.5376   19.2390 C   0  0  0  0  0  0  0  0  0  0  0  0
  -26.4103  -18.7023   20.4014 C   0  0  0  0  0  0  0  0  0  0  0  0
  -26.9057  -20.7352   21.0771 C   0  0  0  0  0  0  0  0  0  0  0  0
  -28.8181  -19.5216   20.0196 C   0  0  0  0  0  0  0  0  0  0  0  0
  -26.2119  -28.7101   21.4205 C   0  0  0  0  0  0  0  0  0  0  0  0
  -26.2293  -31.6511   22.7888 C   0  0  0  0  0  0  0  0  0  0  0  0
  -24.4576  -34.3886   23.7958 C   0  0  0  0  0  0  0  0  0  0  0  0
  -21.3411  -22.6888   21.3481 C   0  0  0  0  0  0  0  0  0  0  0  0
  -29.6190  -25.5469   19.3127 C   0  0  0  0  0  0  0  0  0  0  0  0
  -24.9468  -30.0669   19.7133 C   0  0  0  0  0  0  0  0  0  0  0  0
  -23.9721  -30.5734   22.4589 C   0  0  0  0  0  0  0  0  0  0  0  0
  -29.6654  -26.6715   20.3439 C   0  0  0  0  0  0  0  0  0  0  0  0
  -23.4742  -21.9621   24.1798 C   0  0  0  0  0  0  0  0  0  0  0  0
  -17.2526  -24.6547   20.3656 C   0  0  0  0  0  0  0  0  0  0  0  0
  -28.5773  -26.4771   21.3951 C   0  0  0  0  0  0  0  0  0  0  0  0
  -24.5751  -21.1260   23.5247 C   0  0  0  0  0  0  0  0  0  0  0  0
  -18.2382  -23.6706   20.9883 C   0  0  0  0  0  0  0  0  0  0  0  0
  -22.1099  -21.6555   23.5693 C   0  0  0  0  0  0  0  0  0  0  0  0
  -23.1439  -20.9904   21.4335 C   0  0  0  0  0  0  0  0  0  0  0  0
  -16.9710  -25.8322   21.2865 C   0  0  0  0  0  0  0  0  0  0  0  0
  -19.2317  -25.5552   22.3438 C   0  0  0  0  0  0  0  0  0  0  0  0
  -27.1825  -26.5166   20.7592 C   0  0  1  0  0  0  0  0  0  0  0  0
  -25.8924  -30.0868   20.9103 C   0  0  1  0  0  0  0  0  0  0  0  0
  -24.5511  -21.2706   21.9915 C   0  0  2  0  0  0  0  0  0  0  0  0
  -19.5250  -24.3756   21.4204 C   0  0  1  0  0  0  0  0  0  0  0  0
  -24.7416  -36.6161   24.9161 C   0  0  0  0  0  0  0  0  0  0  0  0
  -26.4999  -30.2559   25.4888 C   0  0  0  0  0  0  0  0  0  0  0  0
  -25.8289  -32.4034   26.5873 C   0  0  0  0  0  0  0  0  0  0  0  0
  -27.9158  -32.3004   25.2245 C   0  0  0  0  0  0  0  0  0  0  0  0
  -23.4618  -35.8418   21.4178 C   0  0  0  0  0  0  0  0  0  0  0  0
  -18.0426  -27.7448   22.4728 C   0  0  0  0  0  0  0  0  0  0  0  0
  -19.2862  -28.6105   22.4258 C   0  0  0  0  0  0  0  0  0  1  0  0
  -25.6717  -32.2416   24.0614 C   0  0  1  0  0  0  0  0  0  0  0  0
  -24.6948  -35.8737   23.5897 C   0  0  2  0  0  0  0  0  0  0  0  0
  -26.4622  -31.7881   25.3211 C   0  0  0  0  0  0  0  0  0  0  0  0
  -25.2733  -19.1668   20.9263 N   0  0  0  0  0  0  0  0  0  0  0  0
  -25.6065  -20.4050   21.3286 N   0  0  0  0  0  0  0  0  0  0  0  0
  -25.3569  -30.8476   22.0410 N   0  0  0  0  0  0  0  0  0  0  0  0
  -22.1501  -21.8300   22.1105 N   0  0  0  0  0  0  0  0  0  0  0  0
  -27.4068  -21.9419   21.4166 N   0  0  0  0  0  0  0  0  0  0  0  0
  -29.2228  -18.3236   19.4151 N   0  0  0  0  0  0  0  0  0  0  0  0
  -26.7931  -27.8821   20.4793 N   0  0  0  0  0  0  0  0  0  0  0  0
  -25.6425  -33.6865   23.8624 N   0  0  0  0  0  0  0  0  0  0  0  0
  -20.4210  -23.4442   22.0647 N   0  0  0  0  0  0  0  0  0  0  0  0
  -18.2721  -26.5014   21.6580 N   0  3  2  0  0  0  0  0  0  0  0  0
  -23.6055  -36.4620   22.7600 N   0  3  0  0  0  0  0  0  0  0  0  0
  -29.6516  -20.4476   20.1659 O   0  0  0  0  0  0  0  0  0  0  0  0
  -25.9517  -28.4210   22.5826 O   0  0  0  0  0  0  0  0  0  0  0  0
  -27.3937  -31.8997   22.4663 O   0  0  0  0  0  0  0  0  0  0  0  0
  -23.3337  -33.9006   23.8922 O   0  0  0  0  0  0  0  0  0  0  0  0
  -21.4353  -22.7799   20.1193 O   0  0  0  0  0  0  0  0  0  0  0  0
  -26.6082  -13.5436   18.2530 O   0  0  0  0  0  0  0  0  0  0  0  0
  -19.5552  -28.9871   21.0759 O   0  0  0  0  0  0  0  0  0  1  0  0
  -30.9433  -10.3912   19.5467 F   0  0  0  0  0  0  0  0  0  0  0  0
  -26.2681  -11.1314   19.5600 F   0  0  0  0  0  0  0  0  0  0  0  0
  1  2  1  0  0  0  0
  1  5  2  0  0  0  0
  2  6  2  0  0  0  0
  3  8  2  0  0  0  0
  3 15  1  0  0  0  0
  4  9  1  0  0  0  0
  4 15  2  0  0  0  0
  5 17  1  0  0  0  0
  6 19  1  0  0  0  0
  7 10  2  0  0  0  0
  7 18  1  0  0  0  0
  8 21  1  0  0  0  0
  9 21  2  0  0  0  0
 10 22  1  0  0  0  0
 11 12  2  0  0  0  0
 11 23  1  0  0  0  0
 12 24  1  0  0  0  0
 13 20  1  0  0  0  0
 13 22  2  0  0  0  0
 14 24  2  0  0  0  0
 14 25  1  0  0  0  0
 15 26  1  0  0  0  0
 16 26  1  0  0  0  0
 16 27  2  0  0  0  0
 16 28  1  0  0  0  0
 17 19  2  0  0  0  0
 17 33  1  0  0  0  0
 18 20  2  0  0  0  0
 18 34  1  0  0  0  0
 19 46  1  0  0  0  0
 20 35  1  0  0  0  0
 21 76  1  0  0  0  0
 22 77  1  0  0  0  0
 23 25  2  0  0  0  0
 23 76  1  0  0  0  0
 24 78  1  0  0  0  0
 25 79  1  0  0  0  0
 26 60  2  0  0  0  0
 27 61  1  0  0  0  0
 27 64  1  0  0  0  0
 28 65  1  0  0  0  0
 28 71  2  0  0  0  0
 29 47  1  0  0  0  0
 29 66  1  0  0  0  0
 29 72  2  0  0  0  0
 30 57  1  0  0  0  0
 30 62  1  0  0  0  0
 30 73  2  0  0  0  0
 31 58  1  0  0  0  0
 31 67  1  0  0  0  0
 31 74  2  0  0  0  0
 32 63  1  0  0  0  0
 32 68  1  0  0  0  0
 32 75  2  0  0  0  0
 33 36  1  0  0  0  0
 34 47  1  0  0  0  0
 35 62  1  0  0  0  0
 36 39  1  0  0  0  0
 37 40  1  0  0  0  0
 37 42  1  0  0  0  0
 38 41  1  0  0  0  0
 38 44  1  0  0  0  0
 39 46  1  0  0  0  0
 40 48  1  0  0  0  0
 41 49  1  0  0  0  0
 42 63  1  0  0  0  0
 43 48  1  0  0  0  0
 43 63  1  0  0  0  0
 44 69  1  0  0  0  0
 45 49  1  0  0  0  0
 45 69  1  0  0  0  0
 46 66  1  0  0  0  0
 47 62  1  0  0  0  0
 48 61  1  0  0  0  0
 49 68  1  0  0  0  0
 50 58  1  0  0  0  0
 51 59  1  0  0  0  0
 52 59  1  0  0  0  0
 53 59  1  0  0  0  0
 54 70  1  0  0  0  0
 55 56  1  0  0  0  0
 55 69  1  0  0  0  0
 56 77  1  0  0  0  0
 57 59  1  0  0  0  0
 57 67  1  0  0  0  0
 58 70  1  0  0  0  0
 60 61  1  0  0  0  0
M  CHG  2  69   1  70   1
M  ISO  4  32 100  56 101  68 100  77 101
M  END
> <Batch ID>
0007

> <Smiles>
CNC(C)C(=O)NC(C(=O)N1Cc2cc([101O:1][101CH2:1]CN3CCCC([100NH:0][100C:0](=O)N4CCCC(n5nc(-c6ccc(Oc7ccc(F)cc7F)cc6)c(C(N)=O)c5N)C4)C3)ccc2CC1C(=O)NC1CCCc2ccccc21)C(C)(C)C

> <Shape>
0.297

> <Color>
0.074

> <Negative vol penalty>
0.000

$$$$

  -OEChem-04042320323D

 85 92  0     1  0  0  0  0  0999 V2000
  -32.9008  -15.7673   21.5193 C   0  0  0  0  0  0  0  0  0  0  0  0
  -31.9678  -16.6159   20.9320 C   0  0  0  0  0  0  0  0  0  0  0  0
  -29.9508  -22.3797   20.7817 C   0  0  0  0  0  0  0  0  0  0  0  0
  -28.4268  -22.6698   18.9295 C   0  0  0  0  0  0  0  0  0  0  0  0
  -32.6465  -14.3985   21.5940 C   0  0  0  0  0  0  0  0  0  0  0  0
  -30.7805  -16.0959   20.4180 C   0  0  0  0  0  0  0  0  0  0  0  0
  -25.2797  -18.7880   20.4143 C   0  0  0  0  0  0  0  0  0  0  0  0
  -30.0418  -21.0180   20.4936 C   0  0  0  0  0  0  0  0  0  0  0  0
  -28.5178  -21.3080   18.6414 C   0  0  0  0  0  0  0  0  0  0  0  0
  -24.5842  -19.4994   19.4376 C   0  0  0  0  0  0  0  0  0  0  0  0
  -30.6947  -19.2286   17.1060 C   0  0  0  0  0  0  0  0  0  0  0  0
  -30.8623  -18.8598   15.7713 C   0  0  0  0  0  0  0  0  0  0  0  0
  -23.3992  -17.4892   18.8259 C   0  0  0  0  0  0  0  0  0  0  0  0
  -28.7991  -17.6058   15.8587 C   0  0  0  0  0  0  0  0  0  0  0  0
  -29.1433  -23.2056   19.9996 C   0  0  0  0  0  0  0  0  0  0  0  0
  -29.8602  -25.6449   19.7905 C   0  0  0  0  0  0  0  0  0  0  0  0
  -31.4511  -13.8627   21.0893 C   0  0  0  0  0  0  0  0  0  0  0  0
  -25.0476  -17.4172   20.5972 C   0  0  0  0  0  0  0  0  0  0  0  0
  -30.5106  -14.7185   20.4848 C   0  0  0  0  0  0  0  0  0  0  0  0
  -24.0912  -16.7633   19.8074 C   0  0  0  0  0  0  0  0  0  0  0  0
  -29.3253  -20.4821   19.4235 C   0  0  0  0  0  0  0  0  0  0  0  0
  -23.6459  -18.8494   18.6413 C   0  0  0  0  0  0  0  0  0  0  0  0
  -29.5794  -18.7859   17.8172 C   0  0  0  0  0  0  0  0  0  0  0  0
  -29.9145  -18.0485   15.1476 C   0  0  0  0  0  0  0  0  0  0  0  0
  -28.6315  -17.9745   17.1935 C   0  0  0  0  0  0  0  0  0  0  0  0
  -29.0484  -24.6123   20.2970 C   0  0  0  0  0  0  0  0  0  0  0  0
  -29.3673  -26.7865   20.3737 C   0  0  0  0  0  0  0  0  0  0  0  0
  -30.9613  -25.5780   18.8746 C   0  0  0  0  0  0  0  0  0  0  0  0
  -26.8188  -14.7895   20.3484 C   0  0  0  0  0  0  0  0  0  0  0  0
  -24.1662  -13.3578   21.5467 C   0  0  0  0  0  0  0  0  0  0  0  0
  -21.8442  -25.3764   19.0591 C   0  0  0  0  0  0  0  0  0  0  0  0
  -20.7843  -13.4369   21.9977 C   0  0  0  0  0  0  0  0  0  0  0  0
  -24.0025  -28.2376   22.6018 C   0  0  0  0  0  0  0  0  0  0  0  0
  -31.2417  -12.3704   21.1504 C   0  0  0  0  0  0  0  0  0  0  0  0
  -25.7868  -16.6700   21.6731 C   0  0  0  0  0  0  0  0  0  0  0  0
  -23.7904  -15.2973   19.9775 C   0  0  0  0  0  0  0  0  0  0  0  0
  -29.7930  -11.9487   20.9185 C   0  0  0  0  0  0  0  0  0  0  0  0
  -27.1227  -28.3088   24.3152 C   0  0  0  0  0  0  0  0  0  0  0  0
  -29.2110  -12.6788   19.7124 C   0  0  0  0  0  0  0  0  0  0  0  0
  -28.0433  -27.4627   23.4340 C   0  0  0  0  0  0  0  0  0  0  0  0
  -25.6999  -27.7549   24.3403 C   0  0  0  0  0  0  0  0  0  0  0  0
  -26.0108  -26.7073   22.1313 C   0  0  0  0  0  0  0  0  0  0  0  0
  -29.1999  -14.1955   19.9381 C   0  0  1  0  0  0  0  0  0  0  0  0
  -25.8415  -15.1655   21.4260 C   0  0  1  0  0  0  0  0  0  0  0  0
  -27.4434  -27.2585   22.0299 C   0  0  2  0  0  0  0  0  0  0  0  0
  -19.9402  -24.6508   20.5239 C   0  0  0  0  0  0  0  0  0  0  0  0
  -18.8964  -12.1076   22.9806 C   0  0  0  0  0  0  0  0  0  0  0  0
  -24.2710  -11.4528   19.1655 C   0  0  0  0  0  0  0  0  0  0  0  0
  -21.9063  -10.8034   19.6698 C   0  0  0  0  0  0  0  0  0  0  0  0
  -23.7020  -10.3674   21.3455 C   0  0  0  0  0  0  0  0  0  0  0  0
  -23.6312  -29.8968   18.9777 C   0  0  0  0  0  0  0  0  0  0  0  0
  -21.1642  -29.6025   18.7655 C   0  0  0  0  0  0  0  0  0  0  0  0
  -20.0986  -15.5985   23.8994 C   0  0  0  0  0  0  0  0  0  0  0  0
  -21.4195  -21.3245   17.2612 C   0  0  0  0  0  0  0  0  0  0  0  0
  -22.6599  -27.6270   18.4080 C   0  0  0  0  0  0  0  0  0  0  0  0
  -22.3942  -28.6373   20.7544 C   0  0  0  0  0  0  0  0  0  0  0  0
  -21.0630  -22.7929   17.4372 C   0  0  0  0  0  0  0  0  0  0  0  0
  -22.7269  -20.9260   17.9348 C   0  0  0  0  0  0  0  0  0  1  0  0
  -22.9234  -12.7404   20.9521 C   0  0  1  0  0  0  0  0  0  0  0  0
  -20.5749  -24.5484   19.1457 C   0  0  2  0  0  0  0  0  0  0  0  0
  -19.9262  -13.1991   23.2272 C   0  0  2  0  0  0  0  0  0  0  0  0
  -23.2075  -11.3682   20.2785 C   0  0  0  0  0  0  0  0  0  0  0  0
  -22.4656  -28.9205   19.2354 C   0  0  0  0  0  0  0  0  0  0  0  0
  -28.1111  -25.0585   21.1375 N   0  0  0  0  0  0  0  0  0  0  0  0
  -28.3309  -26.3840   21.1636 N   0  0  0  0  0  0  0  0  0  0  0  0
  -24.5437  -14.6088   21.0387 N   0  0  0  0  0  0  0  0  0  0  0  0
  -25.1889  -27.5864   22.9778 N   0  0  0  0  0  0  0  0  0  0  0  0
  -29.7238  -28.0854   20.2829 N   0  0  0  0  0  0  0  0  0  0  0  0
  -31.3362  -24.3251   18.3709 N   0  0  0  0  0  0  0  0  0  0  0  0
  -28.1038  -14.5693   20.8061 N   0  0  0  0  0  0  0  0  0  0  0  0
  -21.6063  -26.6540   18.5748 N   0  0  0  0  0  0  0  0  0  0  0  0
  -21.9400  -12.6855   22.0283 N   0  0  0  0  0  0  0  0  0  0  0  0
  -23.5917  -28.0297   21.2908 N   0  0  0  0  0  0  0  0  0  0  0  0
  -19.2061  -14.4477   23.6058 N   0  3  0  0  0  0  0  0  0  0  0  0
  -20.8720  -23.1153   18.8708 N   0  3  0  0  0  0  0  0  0  0  0  0
  -31.6044  -26.5972   18.5264 O   0  0  0  0  0  0  0  0  0  0  0  0
  -26.4350  -14.7040   19.1877 O   0  0  0  0  0  0  0  0  0  0  0  0
  -24.7753  -12.7555   22.4344 O   0  0  0  0  0  0  0  0  0  0  0  0
  -22.9458  -24.9436   19.3904 O   0  0  0  0  0  0  0  0  0  0  0  0
  -20.4599  -14.2091   21.0982 O   0  0  0  0  0  0  0  0  0  0  0  0
  -23.3600  -28.9557   23.3755 O   0  0  0  0  0  0  0  0  0  0  0  0
  -29.4140  -19.1534   19.1420 O   0  0  0  0  0  0  0  0  0  0  0  0
  -22.9661  -19.5412   17.6867 O   0  0  0  0  0  0  0  0  0  1  0  0
  -30.0747  -17.6958   13.8654 F   0  0  0  0  0  0  0  0  0  0  0  0
  -27.5573  -17.5471   17.8712 F   0  0  0  0  0  0  0  0  0  0  0  0
  1  2  1  0  0  0  0
  1  5  2  0  0  0  0
  2  6  2  0  0  0  0
  3  8  2  0  0  0  0
  3 15  1  0  0  0  0
  4  9  1  0  0  0  0
  4 15  2  0  0  0  0
  5 17  1  0  0  0  0
  6 19  1  0  0  0  0
  7 10  2  0  0  0  0
  7 18  1  0  0  0  0
  8 21  1  0  0  0  0
  9 21  2  0  0  0  0
 10 22  1  0  0  0  0
 11 12  2  0  0  0  0
 11 23  1  0  0  0  0
 12 24  1  0  0  0  0
 13 20  1  0  0  0  0
 13 22  2  0  0  0  0
 14 24  2  0  0  0  0
 14 25  1  0  0  0  0
 15 26  1  0  0  0  0
 16 26  1  0  0  0  0
 16 27  2  0  0  0  0
 16 28  1  0  0  0  0
 17 19  2  0  0  0  0
 17 34  1  0  0  0  0
 18 20  2  0  0  0  0
 18 35  1  0  0  0  0
 19 43  1  0  0  0  0
 20 36  1  0  0  0  0
 21 82  1  0  0  0  0
 22 83  1  0  0  0  0
 23 25  2  0  0  0  0
 23 82  1  0  0  0  0
 24 84  1  0  0  0  0
 25 85  1  0  0  0  0
 26 64  2  0  0  0  0
 27 65  1  0  0  0  0
 27 68  1  0  0  0  0
 28 69  1  0  0  0  0
 28 76  2  0  0  0  0
 29 44  1  0  0  0  0
 29 70  1  0  0  0  0
 29 77  2  0  0  0  0
 30 59  1  0  0  0  0
 30 66  1  0  0  0  0
 30 78  2  0  0  0  0
 31 60  1  0  0  0  0
 31 71  1  0  0  0  0
 31 79  2  0  0  0  0
 32 61  1  0  0  0  0
 32 72  1  0  0  0  0
 32 80  2  0  0  0  0
 33 67  1  0  0  0  0
 33 73  1  0  0  0  0
 33 81  2  0  0  0  0
 34 37  1  0  0  0  0
 35 44  1  0  0  0  0
 36 66  1  0  0  0  0
 37 39  1  0  0  0  0
 38 40  1  0  0  0  0
 38 41  1  0  0  0  0
 39 43  1  0  0  0  0
 40 45  1  0  0  0  0
 41 67  1  0  0  0  0
 42 45  1  0  0  0  0
 42 67  1  0  0  0  0
 43 70  1  0  0  0  0
 44 66  1  0  0  0  0
 45 65  1  0  0  0  0
 46 60  1  0  0  0  0
 47 61  1  0  0  0  0
 48 62  1  0  0  0  0
 49 62  1  0  0  0  0
 50 62  1  0  0  0  0
 51 63  1  0  0  0  0
 52 63  1  0  0  0  0
 53 74  1  0  0  0  0
 54 57  1  0  0  0  0
 54 58  1  0  0  0  0
 55 63  1  0  0  0  0
 55 71  1  0  0  0  0
 56 63  1  0  0  0  0
 56 73  1  0  0  0  0
 57 75  1  0  0  0  0
 58 83  1  0  0  0  0
 59 62  1  0  0  0  0
 59 72  1  0  0  0  0
 60 75  1  0  0  0  0
 61 74  1  0  0  0  0
 64 65  1  0  0  0  0
M  CHG  2  74   1  75   1
M  ISO  4  33 100  58 101  73 100  83 101
M  END
> <Batch ID>
0007

> <Smiles>
CNC(C)C(=O)NC(C(=O)N1Cc2cc([101O:1][101CH2:1]CCNC(C)C(=O)NCC(C)(C)C[100NH:0][100C:0](=O)N3CCCC(n4nc(-c5ccc(Oc6ccc(F)cc6F)cc5)c(C(N)=O)c4N)C3)ccc2CC1C(=O)NC1CCCc2ccccc21)C(C)(C)C

> <Shape>
0.219

> <Color>
0.041

> <Negative vol penalty>
0.000

$$$$

  -OEChem-04042320323D

 82 90  0     1  0  0  0  0  0999 V2000
  -23.0684  -19.9435   20.7808 C   0  0  0  0  0  0  0  0  0  0  0  0
  -24.1384  -20.6988   20.3117 C   0  0  0  0  0  0  0  0  0  0  0  0
  -26.2028  -12.7770   21.6683 C   0  0  0  0  0  0  0  0  0  0  0  0
  -26.1637  -12.1956   19.3236 C   0  0  0  0  0  0  0  0  0  0  0  0
  -21.8660  -20.5686   21.1085 C   0  0  0  0  0  0  0  0  0  0  0  0
  -24.0062  -22.0796   20.1692 C   0  0  0  0  0  0  0  0  0  0  0  0
  -28.0106  -24.6097   21.9604 C   0  0  0  0  0  0  0  0  0  0  0  0
  -24.9932  -12.1078   21.8544 C   0  0  0  0  0  0  0  0  0  0  0  0
  -24.9542  -11.5264   19.5097 C   0  0  0  0  0  0  0  0  0  0  0  0
  -29.1521  -24.6436   21.1607 C   0  0  0  0  0  0  0  0  0  0  0  0
  -21.7337  -10.8581   22.8730 C   0  0  0  0  0  0  0  0  0  0  0  0
  -20.7502  -11.4920   23.6322 C   0  0  0  0  0  0  0  0  0  0  0  0
  -28.5543  -26.8574   20.4118 C   0  0  0  0  0  0  0  0  0  0  0  0
  -20.7247  -13.3300   22.0643 C   0  0  0  0  0  0  0  0  0  0  0  0
  -26.7881  -12.8210   20.4029 C   0  0  0  0  0  0  0  0  0  0  0  0
  -29.3332  -12.9741   20.3216 C   0  0  0  0  0  0  0  0  0  0  0  0
  -21.7222  -21.9590   20.9791 C   0  0  0  0  0  0  0  0  0  0  0  0
  -27.1252  -25.6968   21.9835 C   0  0  0  0  0  0  0  0  0  0  0  0
  -22.8004  -22.7237   20.4942 C   0  0  0  0  0  0  0  0  0  0  0  0
  -27.4036  -26.8358   21.2146 C   0  0  0  0  0  0  0  0  0  0  0  0
  -24.3689  -11.4825   20.7751 C   0  0  0  0  0  0  0  0  0  0  0  0
  -29.4226  -25.7664   20.3840 C   0  0  0  0  0  0  0  0  0  0  0  0
  -22.2128  -11.4601   21.7094 C   0  0  0  0  0  0  0  0  0  0  0  0
  -20.2456  -12.7279   23.2278 C   0  0  0  0  0  0  0  0  0  0  0  0
  -21.7082  -12.6961   21.3051 C   0  0  0  0  0  0  0  0  0  0  0  0
  -28.0373  -13.5126   20.2099 C   0  0  0  0  0  0  0  0  0  0  0  0
  -30.1683  -14.0290   20.0453 C   0  0  0  0  0  0  0  0  0  0  0  0
  -29.7452  -11.6397   20.6460 C   0  0  0  0  0  0  0  0  0  0  0  0
  -24.0700  -26.1182   21.2142 C   0  0  0  0  0  0  0  0  0  0  0  0
  -24.5634  -29.0665   22.4739 C   0  0  0  0  0  0  0  0  0  0  0  0
  -26.7704  -31.5452   23.2687 C   0  0  0  0  0  0  0  0  0  0  0  0
  -29.3897  -18.9285   16.8446 C   0  0  0  0  0  0  0  0  0  0  0  0
  -20.3878  -22.5839   21.3010 C   0  0  0  0  0  0  0  0  0  0  0  0
  -25.9122  -25.6554   22.8720 C   0  0  0  0  0  0  0  0  0  0  0  0
  -26.4955  -28.0374   21.2195 C   0  0  0  0  0  0  0  0  0  0  0  0
  -20.4512  -24.0989   21.4766 C   0  0  0  0  0  0  0  0  0  0  0  0
  -30.3893  -18.8021   20.3206 C   0  0  0  0  0  0  0  0  0  0  0  0
  -21.2566  -24.7340   20.3476 C   0  0  0  0  0  0  0  0  0  0  0  0
  -30.0166  -17.3657   20.6922 C   0  0  0  0  0  0  0  0  0  0  0  0
  -31.7515  -22.3690   16.2394 C   0  0  0  0  0  0  0  0  0  0  0  0
  -29.3404  -23.0767   16.0633 C   0  0  0  0  0  0  0  0  0  0  0  0
  -29.3651  -19.4097   19.3666 C   0  0  0  0  0  0  0  0  0  0  0  0
  -28.7653  -17.1852   18.4919 C   0  0  0  0  0  0  0  0  0  0  0  0
  -32.1591  -23.8250   16.4189 C   0  0  0  0  0  0  0  0  0  0  0  0
  -29.7604  -24.5291   16.2435 C   0  0  0  0  0  0  0  0  0  0  0  0
  -22.7039  -24.2270   20.3494 C   0  0  1  0  0  0  0  0  0  0  0  0
  -24.8110  -26.6117   22.4246 C   0  0  1  0  0  0  0  0  0  0  0  0
  -30.4561  -22.2371   15.4301 C   0  0  0  0  0  0  0  0  0  0  0  0
  -29.7740  -16.5071   19.4368 C   0  0  2  0  0  0  0  0  0  0  0  0
  -26.8720  -33.8515   24.2525 C   0  0  0  0  0  0  0  0  0  0  0  0
  -31.1498  -19.9580   14.6470 C   0  0  0  0  0  0  0  0  0  0  0  0
  -28.7511  -20.6612   14.4827 C   0  0  0  0  0  0  0  0  0  0  0  0
  -23.4871  -30.2244   19.8641 C   0  0  0  0  0  0  0  0  0  0  0  0
  -24.4810  -32.4287   20.5134 C   0  0  0  0  0  0  0  0  0  0  0  0
  -22.7032  -31.3989   21.9282 C   0  0  0  0  0  0  0  0  0  0  0  0
  -28.4964  -30.6442   25.4977 C   0  0  0  0  0  0  0  0  0  0  0  0
  -31.4202  -26.0054   17.3751 C   0  0  0  0  0  0  0  0  0  0  0  0
  -30.4640  -26.5747   18.4046 C   0  0  0  0  0  0  0  0  0  1  0  0
  -25.0247  -30.3975   21.9310 C   0  0  1  0  0  0  0  0  0  0  0  0
  -26.9567  -32.3598   24.5360 C   0  0  2  0  0  0  0  0  0  0  0  0
  -30.0350  -20.7736   15.3161 C   0  0  0  0  0  0  0  0  0  0  0  0
  -23.9403  -31.0891   21.0574 C   0  0  0  0  0  0  0  0  0  0  0  0
  -28.0435  -14.8089   19.8879 N   0  0  0  0  0  0  0  0  0  0  0  0
  -29.3536  -15.0938   19.7949 N   0  0  0  0  0  0  0  0  0  0  0  0
  -25.3188  -27.9462   22.0997 N   0  0  0  0  0  0  0  0  0  0  0  0
  -29.1946  -18.5535   18.1843 N   0  0  0  0  0  0  0  0  0  0  0  0
  -31.5127  -14.1403   19.9945 N   0  0  0  0  0  0  0  0  0  0  0  0
  -28.7573  -10.6789   20.9015 N   0  0  0  0  0  0  0  0  0  0  0  0
  -23.4689  -24.8859   21.3863 N   0  0  0  0  0  0  0  0  0  0  0  0
  -25.4531  -31.1821   23.0839 N   0  0  0  0  0  0  0  0  0  0  0  0
  -29.7891  -20.2433   16.6388 N   0  0  0  0  0  0  0  0  0  0  0  0
  -31.0268  -24.5878   17.0627 N   0  3  0  0  0  0  0  0  0  0  0  0
  -28.2856  -32.0721   25.1461 N   0  3  0  0  0  0  0  0  0  0  0  0
  -30.9539  -11.3132   20.7237 O   0  0  0  0  0  0  0  0  0  0  0  0
  -24.0442  -26.8053   20.1999 O   0  0  0  0  0  0  0  0  0  0  0  0
  -23.5736  -29.0233   23.2088 O   0  0  0  0  0  0  0  0  0  0  0  0
  -27.6999  -31.2625   22.5159 O   0  0  0  0  0  0  0  0  0  0  0  0
  -29.2253  -18.1473   15.9012 O   0  0  0  0  0  0  0  0  0  0  0  0
  -23.1887  -10.8291   20.9564 O   0  0  0  0  0  0  0  0  0  0  0  0
  -30.5358  -25.8019   19.6020 O   0  0  0  0  0  0  0  0  0  1  0  0
  -19.3001  -13.3359   23.9562 F   0  0  0  0  0  0  0  0  0  0  0  0
  -22.1637  -13.2789   20.1876 F   0  0  0  0  0  0  0  0  0  0  0  0
  1  2  1  0  0  0  0
  1  5  2  0  0  0  0
  2  6  2  0  0  0  0
  3  8  2  0  0  0  0
  3 15  1  0  0  0  0
  4  9  1  0  0  0  0
  4 15  2  0  0  0  0
  5 17  1  0  0  0  0
  6 19  1  0  0  0  0
  7 10  2  0  0  0  0
  7 18  1  0  0  0  0
  8 21  1  0  0  0  0
  9 21  2  0  0  0  0
 10 22  1  0  0  0  0
 11 12  2  0  0  0  0
 11 23  1  0  0  0  0
 12 24  1  0  0  0  0
 13 20  1  0  0  0  0
 13 22  2  0  0  0  0
 14 24  2  0  0  0  0
 14 25  1  0  0  0  0
 15 26  1  0  0  0  0
 16 26  1  0  0  0  0
 16 27  2  0  0  0  0
 16 28  1  0  0  0  0
 17 19  2  0  0  0  0
 17 33  1  0  0  0  0
 18 20  2  0  0  0  0
 18 34  1  0  0  0  0
 19 46  1  0  0  0  0
 20 35  1  0  0  0  0
 21 79  1  0  0  0  0
 22 80  1  0  0  0  0
 23 25  2  0  0  0  0
 23 79  1  0  0  0  0
 24 81  1  0  0  0  0
 25 82  1  0  0  0  0
 26 63  2  0  0  0  0
 27 64  1  0  0  0  0
 27 67  1  0  0  0  0
 28 68  1  0  0  0  0
 28 74  2  0  0  0  0
 29 47  1  0  0  0  0
 29 69  1  0  0  0  0
 29 75  2  0  0  0  0
 30 59  1  0  0  0  0
 30 65  1  0  0  0  0
 30 76  2  0  0  0  0
 31 60  1  0  0  0  0
 31 70  1  0  0  0  0
 31 77  2  0  0  0  0
 32 66  1  0  0  0  0
 32 71  1  0  0  0  0
 32 78  2  0  0  0  0
 33 36  1  0  0  0  0
 34 47  1  0  0  0  0
 35 65  1  0  0  0  0
 36 38  1  0  0  0  0
 37 39  1  0  0  0  0
 37 42  1  0  0  0  0
 38 46  1  0  0  0  0
 39 49  1  0  0  0  0
 40 44  1  0  0  0  0
 40 48  1  0  0  0  0
 41 45  1  0  0  0  0
 41 48  1  0  0  0  0
 42 66  1  0  0  0  0
 43 49  1  0  0  0  0
 43 66  1  0  0  0  0
 44 72  1  0  0  0  0
 45 72  1  0  0  0  0
 46 69  1  0  0  0  0
 47 65  1  0  0  0  0
 48 61  1  0  0  0  0
 49 64  1  0  0  0  0
 50 60  1  0  0  0  0
 51 61  1  0  0  0  0
 52 61  1  0  0  0  0
 53 62  1  0  0  0  0
 54 62  1  0  0  0  0
 55 62  1  0  0  0  0
 56 73  1  0  0  0  0
 57 58  1  0  0  0  0
 57 72  1  0  0  0  0
 58 80  1  0  0  0  0
 59 62  1  0  0  0  0
 59 70  1  0  0  0  0
 60 73  1  0  0  0  0
 61 71  1  0  0  0  0
 63 64  1  0  0  0  0
M  CHG  2  72   1  73   1
M  ISO  4  32 100  58 101  71 100  80 101
M  END
> <Batch ID>
0007

> <Smiles>
CNC(C)C(=O)NC(C(=O)N1Cc2cc([101O:1][101CH2:1]CN3CCC(C(C)(C)[100NH:0][100C:0](=O)N4CCCC(n5nc(-c6ccc(Oc7ccc(F)cc7F)cc6)c(C(N)=O)c5N)C4)CC3)ccc2CC1C(=O)NC1CCCc2ccccc21)C(C)(C)C

> <Shape>
0.248

> <Color>
0.060

> <Negative vol penalty>
0.000

$$$$

  -OEChem-04042320323D

 82 90  0     1  0  0  0  0  0999 V2000
  -40.0633  -23.6973   19.7985 C   0  0  0  0  0  0  0  0  0  0  0  0
  -38.7050  -23.4670   19.9920 C   0  0  0  0  0  0  0  0  0  0  0  0
  -23.0959   -9.8268   19.9552 C   0  0  0  0  0  0  0  0  0  0  0  0
  -23.8450   -9.8732   22.2517 C   0  0  0  0  0  0  0  0  0  0  0  0
  -40.5675  -24.9946   19.8790 C   0  0  0  0  0  0  0  0  0  0  0  0
  -37.8503  -24.5339   20.2672 C   0  0  0  0  0  0  0  0  0  0  0  0
  -33.5601  -24.3281   17.5845 C   0  0  0  0  0  0  0  0  0  0  0  0
  -22.3662   -8.6671   20.2166 C   0  0  0  0  0  0  0  0  0  0  0  0
  -23.1152   -8.7136   22.5131 C   0  0  0  0  0  0  0  0  0  0  0  0
  -32.5787  -23.4389   18.0203 C   0  0  0  0  0  0  0  0  0  0  0  0
  -19.8952   -7.8806   23.1114 C   0  0  0  0  0  0  0  0  0  0  0  0
  -19.1334   -7.8456   24.2793 C   0  0  0  0  0  0  0  0  0  0  0  0
  -31.4001  -25.2635   19.0697 C   0  0  0  0  0  0  0  0  0  0  0  0
  -31.0639  -17.7684   20.5461 C   0  0  0  0  0  0  0  0  0  0  0  0
  -29.5741  -19.3503   22.2955 C   0  0  0  0  0  0  0  0  0  0  0  0
  -20.3970   -5.9344   25.0462 C   0  0  0  0  0  0  0  0  0  0  0  0
  -23.8353  -10.4298   20.9727 C   0  0  0  0  0  0  0  0  0  0  0  0
  -24.1442  -12.9576   20.8218 C   0  0  0  0  0  0  0  0  0  0  0  0
  -39.7171  -26.0792   20.1457 C   0  0  0  0  0  0  0  0  0  0  0  0
  -33.4744  -25.6923   17.8979 C   0  0  0  0  0  0  0  0  0  0  0  0
  -38.3439  -25.8468   20.3526 C   0  0  0  0  0  0  0  0  0  0  0  0
  -32.3804  -26.1683   18.6345 C   0  0  0  0  0  0  0  0  0  0  0  0
  -30.1674  -17.1728   21.4333 C   0  0  0  0  0  0  0  0  0  0  0  0
  -22.3759   -8.1105   21.4956 C   0  0  0  0  0  0  0  0  0  0  0  0
  -31.5000  -23.9061   18.7654 C   0  0  0  0  0  0  0  0  0  0  0  0
  -20.9078   -6.9425   22.9108 C   0  0  0  0  0  0  0  0  0  0  0  0
  -30.4706  -19.9459   21.4083 C   0  0  0  0  0  0  0  0  0  0  0  0
  -19.3843   -6.8725   25.2467 C   0  0  0  0  0  0  0  0  0  0  0  0
  -31.2155  -19.1550   20.5336 C   0  0  0  0  0  0  0  0  0  0  0  0
  -29.4225  -17.9637   22.3080 C   0  0  0  0  0  0  0  0  0  0  0  0
  -21.1587   -5.9694   23.8782 C   0  0  0  0  0  0  0  0  0  0  0  0
  -24.5897  -11.6275   20.7031 C   0  0  0  0  0  0  0  0  0  0  0  0
  -25.2280  -13.7168   20.4538 C   0  0  0  0  0  0  0  0  0  0  0  0
  -22.8650  -13.4617   21.2283 C   0  0  0  0  0  0  0  0  0  0  0  0
  -35.2702  -27.7323   19.5462 C   0  0  0  0  0  0  0  0  0  0  0  0
  -33.1470  -29.9091   18.4167 C   0  0  0  0  0  0  0  0  0  0  0  0
  -30.0229  -30.5484   17.2009 C   0  0  0  0  0  0  0  0  0  0  0  0
  -30.6790  -14.8373   20.6395 C   0  0  0  0  0  0  0  0  0  0  0  0
  -40.3159  -27.4578   20.2699 C   0  0  0  0  0  0  0  0  0  0  0  0
  -34.5274  -26.6427   17.3975 C   0  0  0  0  0  0  0  0  0  0  0  0
  -32.2313  -27.6267   18.9801 C   0  0  0  0  0  0  0  0  0  0  0  0
  -39.2832  -28.5795   20.1945 C   0  0  0  0  0  0  0  0  0  0  0  0
  -29.6077  -12.3787   18.2975 C   0  0  0  0  0  0  0  0  0  0  0  0
  -38.0861  -28.2638   21.0858 C   0  0  0  0  0  0  0  0  0  0  0  0
  -28.1701  -12.0735   18.7243 C   0  0  0  0  0  0  0  0  0  0  0  0
  -30.5141  -12.6350   19.5002 C   0  0  0  0  0  0  0  0  0  0  0  0
  -28.5913  -13.3517   20.8635 C   0  0  0  0  0  0  0  0  0  0  0  0
  -37.3810  -26.9811   20.6285 C   0  0  1  0  0  0  0  0  0  0  0  0
  -34.6066  -27.9298   18.2127 C   0  0  1  0  0  0  0  0  0  0  0  0
  -27.6263  -13.1504   19.6836 C   0  0  2  0  0  0  0  0  0  0  0  0
  -28.5673  -32.4295   16.4010 C   0  0  0  0  0  0  0  0  0  0  0  0
  -32.7107  -30.7957   21.3034 C   0  0  0  0  0  0  0  0  0  0  0  0
  -30.6228  -31.9585   20.5573 C   0  0  0  0  0  0  0  0  0  0  0  0
  -32.8349  -32.6641   19.6457 C   0  0  0  0  0  0  0  0  0  0  0  0
  -29.7537  -29.3494   14.5086 C   0  0  0  0  0  0  0  0  0  0  0  0
  -29.8739  -23.3603   20.4128 C   0  0  0  0  0  0  0  0  0  1  0  0
  -29.4565  -22.0750   21.1009 C   0  0  0  0  0  0  0  0  0  0  0  0
  -31.8300  -30.4678   18.8987 C   0  0  1  0  0  0  0  0  0  0  0  0
  -29.5542  -31.3453   15.9969 C   0  0  2  0  0  0  0  0  0  0  0  0
  -32.0031  -31.4437   20.0966 C   0  0  0  0  0  0  0  0  0  0  0  0
  -25.8577  -11.5431   20.2918 N   0  0  0  0  0  0  0  0  0  0  0  0
  -26.2181  -12.8299   20.1487 N   0  0  0  0  0  0  0  0  0  0  0  0
  -33.2901  -28.5155   18.4736 N   0  0  0  0  0  0  0  0  0  0  0  0
  -29.9374  -13.6695   20.3617 N   0  0  0  0  0  0  0  0  0  0  0  0
  -25.4211  -15.0499   20.3646 N   0  0  0  0  0  0  0  0  0  0  0  0
  -21.8637  -12.5436   21.5727 N   0  0  0  0  0  0  0  0  0  0  0  0
  -30.0156  -15.7640   21.4431 N   0  0  0  0  0  0  0  0  0  0  0  0
  -36.5599  -27.2428   19.4658 N   0  0  0  0  0  0  0  0  0  0  0  0
  -31.1872  -31.0622   17.7317 N   0  0  0  0  0  0  0  0  0  0  0  0
  -28.8893  -30.4489   15.0094 N   0  3  0  0  0  0  0  0  0  0  0  0
  -22.6122  -14.6897   21.2688 O   0  0  0  0  0  0  0  0  0  0  0  0
  -34.6580  -28.0053   20.5721 O   0  0  0  0  0  0  0  0  0  0  0  0
  -34.0142  -30.6802   17.9982 O   0  0  0  0  0  0  0  0  0  0  0  0
  -29.4149  -29.5703   17.6301 O   0  0  0  0  0  0  0  0  0  0  0  0
  -31.8079  -15.0150   20.1748 O   0  0  0  0  0  0  0  0  0  0  0  0
  -21.6638   -6.9791   21.7511 O   0  0  0  0  0  0  0  0  0  0  0  0
  -30.5410  -23.0402   19.1926 O   0  0  0  0  0  0  0  0  0  1  0  0
  -30.6174  -21.3080   21.3964 O   0  0  0  0  0  0  0  0  0  0  0  0
  -18.6537   -6.8400   26.3689 F   0  0  0  0  0  0  0  0  0  0  0  0
  -32.0780  -19.7218   19.6791 F   0  0  0  0  0  0  0  0  0  0  0  0
  -28.5584  -17.4016   23.1655 F   0  0  0  0  0  0  0  0  0  0  0  0
  -22.1310   -5.0663   23.6916 F   0  0  0  0  0  0  0  0  0  0  0  0
  1  2  1  0  0  0  0
  1  5  2  0  0  0  0
  2  6  2  0  0  0  0
  3  8  2  0  0  0  0
  3 17  1  0  0  0  0
  4  9  1  0  0  0  0
  4 17  2  0  0  0  0
  5 19  1  0  0  0  0
  6 21  1  0  0  0  0
  7 10  2  0  0  0  0
  7 20  1  0  0  0  0
  8 24  1  0  0  0  0
  9 24  2  0  0  0  0
 10 25  1  0  0  0  0
 11 12  2  0  0  0  0
 11 26  1  0  0  0  0
 12 28  1  0  0  0  0
 13 22  1  0  0  0  0
 13 25  2  0  0  0  0
 14 23  2  0  0  0  0
 14 29  1  0  0  0  0
 15 27  1  0  0  0  0
 15 30  2  0  0  0  0
 16 28  2  0  0  0  0
 16 31  1  0  0  0  0
 17 32  1  0  0  0  0
 18 32  1  0  0  0  0
 18 33  2  0  0  0  0
 18 34  1  0  0  0  0
 19 21  2  0  0  0  0
 19 39  1  0  0  0  0
 20 22  2  0  0  0  0
 20 40  1  0  0  0  0
 21 48  1  0  0  0  0
 22 41  1  0  0  0  0
 23 30  1  0  0  0  0
 23 67  1  0  0  0  0
 24 76  1  0  0  0  0
 25 77  1  0  0  0  0
 26 31  2  0  0  0  0
 26 76  1  0  0  0  0
 27 29  2  0  0  0  0
 27 78  1  0  0  0  0
 28 79  1  0  0  0  0
 29 80  1  0  0  0  0
 30 81  1  0  0  0  0
 31 82  1  0  0  0  0
 32 61  2  0  0  0  0
 33 62  1  0  0  0  0
 33 65  1  0  0  0  0
 34 66  1  0  0  0  0
 34 71  2  0  0  0  0
 35 49  1  0  0  0  0
 35 68  1  0  0  0  0
 35 72  2  0  0  0  0
 36 58  1  0  0  0  0
 36 63  1  0  0  0  0
 36 73  2  0  0  0  0
 37 59  1  0  0  0  0
 37 69  1  0  0  0  0
 37 74  2  0  0  0  0
 38 64  1  0  0  0  0
 38 67  1  0  0  0  0
 38 75  2  0  0  0  0
 39 42  1  0  0  0  0
 40 49  1  0  0  0  0
 41 63  1  0  0  0  0
 42 44  1  0  0  0  0
 43 45  1  0  0  0  0
 43 46  1  0  0  0  0
 44 48  1  0  0  0  0
 45 50  1  0  0  0  0
 46 64  1  0  0  0  0
 47 50  1  0  0  0  0
 47 64  1  0  0  0  0
 48 68  1  0  0  0  0
 49 63  1  0  0  0  0
 50 62  1  0  0  0  0
 51 59  1  0  0  0  0
 52 60  1  0  0  0  0
 53 60  1  0  0  0  0
 54 60  1  0  0  0  0
 55 70  1  0  0  0  0
 56 57  1  0  0  0  0
 56 77  1  0  0  0  0
 57 78  1  0  0  0  0
 58 60  1  0  0  0  0
 58 69  1  0  0  0  0
 59 70  1  0  0  0  0
 61 62  1  0  0  0  0
M  CHG  1  70   1
M  ISO  4  38 100  56 101  67 100  77 101
M  END
> <Batch ID>
0007

> <Smiles>
CNC(C)C(=O)NC(C(=O)N1Cc2cc([101O:1][101CH2:1]COc3cc(F)c([100NH:0][100C:0](=O)N4CCCC(n5nc(-c6ccc(Oc7ccc(F)cc7F)cc6)c(C(N)=O)c5N)C4)cc3F)ccc2CC1C(=O)NC1CCCc2ccccc21)C(C)(C)C

> <Shape>
0.216

> <Color>
0.197

> <Negative vol penalty>
0.000

$$$$

  -OEChem-04042320323D

 80 88  0     1  0  0  0  0  0999 V2000
  -43.9923  -20.8713   28.1156 C   0  0  0  0  0  0  0  0  0  0  0  0
  -42.8324  -20.1189   27.9608 C   0  0  0  0  0  0  0  0  0  0  0  0
  -23.0003   -9.8943   19.9811 C   0  0  0  0  0  0  0  0  0  0  0  0
  -23.7257   -9.9448   22.2850 C   0  0  0  0  0  0  0  0  0  0  0  0
  -44.2389  -21.9519   27.2698 C   0  0  0  0  0  0  0  0  0  0  0  0
  -41.9179  -20.4473   26.9607 C   0  0  0  0  0  0  0  0  0  0  0  0
  -38.4719  -16.5697   23.7056 C   0  0  0  0  0  0  0  0  0  0  0  0
  -22.2335   -8.7599   20.2473 C   0  0  0  0  0  0  0  0  0  0  0  0
  -22.9589   -8.8105   22.5514 C   0  0  0  0  0  0  0  0  0  0  0  0
  -37.1436  -16.1648   23.8295 C   0  0  0  0  0  0  0  0  0  0  0  0
  -23.2024   -5.4715   22.0790 C   0  0  0  0  0  0  0  0  0  0  0  0
  -23.7898   -4.4541   22.8310 C   0  0  0  0  0  0  0  0  0  0  0  0
  -36.4929  -17.8228   22.2025 C   0  0  0  0  0  0  0  0  0  0  0  0
  -32.0593  -16.5475   22.5624 C   0  0  0  0  0  0  0  0  0  0  0  0
  -31.8572  -18.3412   24.1682 C   0  0  0  0  0  0  0  0  0  0  0  0
  -22.0662   -4.6972   24.5064 C   0  0  0  0  0  0  0  0  0  0  0  0
  -23.7464  -10.4867   20.9999 C   0  0  0  0  0  0  0  0  0  0  0  0
  -24.1323  -13.0022   20.8241 C   0  0  0  0  0  0  0  0  0  0  0  0
  -43.3316  -22.2878   26.2526 C   0  0  0  0  0  0  0  0  0  0  0  0
  -38.8198  -17.6132   22.8359 C   0  0  0  0  0  0  0  0  0  0  0  0
  -42.1520  -21.5342   26.1013 C   0  0  0  0  0  0  0  0  0  0  0  0
  -37.8267  -18.2373   22.0675 C   0  0  0  0  0  0  0  0  0  0  0  0
  -32.6500  -17.4430   23.4538 C   0  0  0  0  0  0  0  0  0  0  0  0
  -30.6756  -16.5502   22.3852 C   0  0  0  0  0  0  0  0  0  0  0  0
  -22.2128   -8.2180   21.5325 C   0  0  0  0  0  0  0  0  0  0  0  0
  -36.1534  -16.7933   23.0800 C   0  0  0  0  0  0  0  0  0  0  0  0
  -22.0469   -6.1019   22.5408 C   0  0  0  0  0  0  0  0  0  0  0  0
  -23.2217   -4.0669   24.0446 C   0  0  0  0  0  0  0  0  0  0  0  0
  -30.4736  -18.3439   23.9911 C   0  0  0  0  0  0  0  0  0  0  0  0
  -21.4788   -5.7147   23.7544 C   0  0  0  0  0  0  0  0  0  0  0  0
  -29.8828  -17.4484   23.0996 C   0  0  0  0  0  0  0  0  0  0  0  0
  -24.5391  -11.6582   20.7253 C   0  0  0  0  0  0  0  0  0  0  0  0
  -25.2422  -13.7246   20.4597 C   0  0  0  0  0  0  0  0  0  0  0  0
  -22.8645  -13.5489   21.2108 C   0  0  0  0  0  0  0  0  0  0  0  0
  -40.1284  -20.4880   23.1921 C   0  0  0  0  0  0  0  0  0  0  0  0
  -40.0878  -20.4791   19.9485 C   0  0  0  0  0  0  0  0  0  0  0  0
  -38.7070  -19.2690   17.0717 C   0  0  0  0  0  0  0  0  0  0  0  0
  -30.7219  -14.6844   20.6932 C   0  0  0  0  0  0  0  0  0  0  0  0
  -43.6184  -23.4935   25.3931 C   0  0  0  0  0  0  0  0  0  0  0  0
  -40.2609  -18.0202   22.6939 C   0  0  0  0  0  0  0  0  0  0  0  0
  -38.1508  -19.3490   21.1045 C   0  0  0  0  0  0  0  0  0  0  0  0
  -42.7805  -23.5459   24.1182 C   0  0  0  0  0  0  0  0  0  0  0  0
  -29.6028  -12.2321   18.3671 C   0  0  0  0  0  0  0  0  0  0  0  0
  -41.3164  -23.2522   24.4292 C   0  0  0  0  0  0  0  0  0  0  0  0
  -28.1522  -11.9747   18.7814 C   0  0  0  0  0  0  0  0  0  0  0  0
  -30.5035  -12.4751   19.5768 C   0  0  0  0  0  0  0  0  0  0  0  0
  -28.5885  -13.2643   20.9106 C   0  0  0  0  0  0  0  0  0  0  0  0
  -41.1479  -21.8439   25.0122 C   0  0  1  0  0  0  0  0  0  0  0  0
  -40.4312  -19.4390   22.1598 C   0  0  1  0  0  0  0  0  0  0  0  0
  -27.6306  -13.0783   19.7225 C   0  0  2  0  0  0  0  0  0  0  0  0
  -38.8571  -19.4768   14.5754 C   0  0  0  0  0  0  0  0  0  0  0  0
  -38.6117  -23.1460   20.0843 C   0  0  0  0  0  0  0  0  0  0  0  0
  -37.9648  -22.8306   17.6863 C   0  0  0  0  0  0  0  0  0  0  0  0
  -40.3722  -23.0171   18.3127 C   0  0  0  0  0  0  0  0  0  0  0  0
  -39.4296  -16.4158   16.7614 C   0  0  0  0  0  0  0  0  0  0  0  0
  -39.1007  -20.9095   18.8905 C   0  0  1  0  0  0  0  0  0  0  0  0
  -39.3380  -18.7211   15.8044 C   0  0  2  0  0  0  0  0  0  0  0  0
  -39.0056  -22.4562   18.7629 C   0  0  0  0  0  0  0  0  0  0  0  0
  -25.8083  -11.5314   20.3290 N   0  0  0  0  0  0  0  0  0  0  0  0
  -26.2086  -12.8051   20.1755 N   0  0  0  0  0  0  0  0  0  0  0  0
  -39.5733  -19.7153   21.0058 N   0  0  0  0  0  0  0  0  0  0  0  0
  -29.9488  -13.5361   20.4203 N   0  0  0  0  0  0  0  0  0  0  0  0
  -25.4759  -15.0503   20.3578 N   0  0  0  0  0  0  0  0  0  0  0  0
  -21.8325  -12.6649   21.5544 N   0  0  0  0  0  0  0  0  0  0  0  0
  -30.0779  -15.6397   21.4790 N   0  0  0  0  0  0  0  0  0  0  0  0
  -34.0396  -17.4414   23.6322 N   0  0  0  0  0  0  0  0  0  1  0  0
  -41.2170  -20.8505   23.9621 N   0  0  0  0  0  0  0  0  0  0  0  0
  -39.4985  -20.2319   17.6613 N   0  0  0  0  0  0  0  0  0  0  0  0
  -38.9939  -17.2811   15.6351 N   0  3  0  0  0  0  0  0  0  0  0  0
  -22.6481  -14.7842   21.2348 O   0  0  0  0  0  0  0  0  0  0  0  0
  -38.9915  -20.9365   23.2822 O   0  0  0  0  0  0  0  0  0  0  0  0
  -41.2730  -20.8023   19.8372 O   0  0  0  0  0  0  0  0  0  0  0  0
  -37.6190  -18.8841   17.4943 O   0  0  0  0  0  0  0  0  0  0  0  0
  -31.8605  -14.8231   20.2391 O   0  0  0  0  0  0  0  0  0  0  0  0
  -21.4645   -7.1113   21.7927 O   0  0  0  0  0  0  0  0  0  0  0  0
  -34.8560  -16.4005   23.1994 O   0  0  0  0  0  0  0  0  0  1  0  0
  -23.7850   -3.0888   24.7658 F   0  0  0  0  0  0  0  0  0  0  0  0
  -29.7115  -19.2058   24.6771 F   0  0  0  0  0  0  0  0  0  0  0  0
  -20.3681   -6.3158   24.2027 F   0  0  0  0  0  0  0  0  0  0  0  0
  -28.5522  -17.4608   22.9368 F   0  0  0  0  0  0  0  0  0  0  0  0
  1  2  1  0  0  0  0
  1  5  2  0  0  0  0
  2  6  2  0  0  0  0
  3  8  2  0  0  0  0
  3 17  1  0  0  0  0
  4  9  1  0  0  0  0
  4 17  2  0  0  0  0
  5 19  1  0  0  0  0
  6 21  1  0  0  0  0
  7 10  2  0  0  0  0
  7 20  1  0  0  0  0
  8 25  1  0  0  0  0
  9 25  2  0  0  0  0
 10 26  1  0  0  0  0
 11 12  2  0  0  0  0
 11 27  1  0  0  0  0
 12 28  1  0  0  0  0
 13 22  1  0  0  0  0
 13 26  2  0  0  0  0
 14 23  2  0  0  0  0
 14 24  1  0  0  0  0
 15 23  1  0  0  0  0
 15 29  2  0  0  0  0
 16 28  2  0  0  0  0
 16 30  1  0  0  0  0
 17 32  1  0  0  0  0
 18 32  1  0  0  0  0
 18 33  2  0  0  0  0
 18 34  1  0  0  0  0
 19 21  2  0  0  0  0
 19 39  1  0  0  0  0
 20 22  2  0  0  0  0
 20 40  1  0  0  0  0
 21 48  1  0  0  0  0
 22 41  1  0  0  0  0
 23 66  1  0  0  0  0
 24 31  2  0  0  0  0
 24 65  1  0  0  0  0
 25 75  1  0  0  0  0
 26 76  1  0  0  0  0
 27 30  2  0  0  0  0
 27 75  1  0  0  0  0
 28 77  1  0  0  0  0
 29 31  1  0  0  0  0
 29 78  1  0  0  0  0
 30 79  1  0  0  0  0
 31 80  1  0  0  0  0
 32 59  2  0  0  0  0
 33 60  1  0  0  0  0
 33 63  1  0  0  0  0
 34 64  1  0  0  0  0
 34 70  2  0  0  0  0
 35 49  1  0  0  0  0
 35 67  1  0  0  0  0
 35 71  2  0  0  0  0
 36 56  1  0  0  0  0
 36 61  1  0  0  0  0
 36 72  2  0  0  0  0
 37 57  1  0  0  0  0
 37 68  1  0  0  0  0
 37 73  2  0  0  0  0
 38 62  1  0  0  0  0
 38 65  1  0  0  0  0
 38 74  2  0  0  0  0
 39 42  1  0  0  0  0
 40 49  1  0  0  0  0
 41 61  1  0  0  0  0
 42 44  1  0  0  0  0
 43 45  1  0  0  0  0
 43 46  1  0  0  0  0
 44 48  1  0  0  0  0
 45 50  1  0  0  0  0
 46 62  1  0  0  0  0
 47 50  1  0  0  0  0
 47 62  1  0  0  0  0
 48 67  1  0  0  0  0
 49 61  1  0  0  0  0
 50 60  1  0  0  0  0
 51 57  1  0  0  0  0
 52 58  1  0  0  0  0
 53 58  1  0  0  0  0
 54 58  1  0  0  0  0
 55 69  1  0  0  0  0
 56 58  1  0  0  0  0
 56 68  1  0  0  0  0
 57 69  1  0  0  0  0
 59 60  1  0  0  0  0
 66 76  1  0  0  0  0
M  CHG  1  69   1
M  ISO  4  38 100  65 100  66 101  76 101
M  END
> <Batch ID>
0007

> <Smiles>
CNC(C)C(=O)NC(C(=O)N1Cc2cc([101O:1][101NH:1]c3cc(F)c(F)c([100NH:0][100C:0](=O)N4CCCC(n5nc(-c6ccc(Oc7ccc(F)cc7F)cc6)c(C(N)=O)c5N)C4)c3)ccc2CC1C(=O)NC1CCCc2ccccc21)C(C)(C)C

> <Shape>
0.176

> <Color>
0.206

> <Negative vol penalty>
0.000

$$$$

  -OEChem-04042320323D

 87 96  0     1  0  0  0  0  0999 V2000
  -37.0529  -29.1178   28.8238 C   0  0  0  0  0  0  0  0  0  0  0  0
  -36.8382  -28.2415   27.7648 C   0  0  0  0  0  0  0  0  0  0  0  0
  -28.8949  -18.7885   18.9999 C   0  0  0  0  0  0  0  0  0  0  0  0
  -23.1254   -9.9096   19.8577 C   0  0  0  0  0  0  0  0  0  0  0  0
  -23.8784   -9.8158   22.1514 C   0  0  0  0  0  0  0  0  0  0  0  0
  -36.9498  -28.6610   30.1370 C   0  0  0  0  0  0  0  0  0  0  0  0
  -36.5214  -26.9075   28.0185 C   0  0  0  0  0  0  0  0  0  0  0  0
  -29.1620  -17.9173   20.0559 C   0  0  0  0  0  0  0  0  0  0  0  0
  -32.7228  -25.2280   25.1210 C   0  0  0  0  0  0  0  0  0  0  0  0
  -29.7859  -19.8202   18.7045 C   0  0  0  0  0  0  0  0  0  0  0  0
  -22.4037   -8.7310   20.0464 C   0  0  0  0  0  0  0  0  0  0  0  0
  -23.1566   -8.6372   22.3402 C   0  0  0  0  0  0  0  0  0  0  0  0
  -33.0269  -24.8973   23.8012 C   0  0  0  0  0  0  0  0  0  0  0  0
  -23.0404   -5.4139   20.1721 C   0  0  0  0  0  0  0  0  0  0  0  0
  -23.1303   -4.4345   19.1831 C   0  0  0  0  0  0  0  0  0  0  0  0
  -31.2111  -19.1096   20.5213 C   0  0  0  0  0  0  0  0  0  0  0  0
  -33.1031  -22.5642   24.4098 C   0  0  0  0  0  0  0  0  0  0  0  0
  -20.7439   -4.5712   18.8310 C   0  0  0  0  0  0  0  0  0  0  0  0
  -23.8628  -10.4520   20.9102 C   0  0  0  0  0  0  0  0  0  0  0  0
  -24.1552  -12.9862   20.9188 C   0  0  0  0  0  0  0  0  0  0  0  0
  -30.3201  -18.0778   20.8166 C   0  0  0  0  0  0  0  0  0  0  0  0
  -36.6221  -27.3229   30.4070 C   0  0  0  0  0  0  0  0  0  0  0  0
  -32.6171  -24.2286   26.0990 C   0  0  0  0  0  0  0  0  0  0  0  0
  -36.4152  -26.4320   29.3366 C   0  0  0  0  0  0  0  0  0  0  0  0
  -32.7950  -22.8847   25.7407 C   0  0  0  0  0  0  0  0  0  0  0  0
  -30.9440  -19.9808   19.4651 C   0  0  0  0  0  0  0  0  0  0  0  0
  -22.4193   -8.0949   21.2876 C   0  0  0  0  0  0  0  0  0  0  0  0
  -33.2200  -23.5655   23.4460 C   0  0  0  0  0  0  0  0  0  0  0  0
  -21.8023   -5.9720   20.4906 C   0  0  0  0  0  0  0  0  0  0  0  0
  -21.9820   -4.0131   18.5125 C   0  0  0  0  0  0  0  0  0  0  0  0
  -20.6541   -5.5506   19.8200 C   0  0  0  0  0  0  0  0  0  0  0  0
  -24.6090  -11.6692   20.7157 C   0  0  0  0  0  0  0  0  0  0  0  0
  -25.2334  -13.7742   20.5979 C   0  0  0  0  0  0  0  0  0  0  0  0
  -22.8736  -13.4553   21.3582 C   0  0  0  0  0  0  0  0  0  0  0  0
  -34.1659  -23.5517   28.7910 C   0  0  0  0  0  0  0  0  0  0  0  0
  -31.8625  -21.2872   29.0884 C   0  0  0  0  0  0  0  0  0  0  0  0
  -29.5556  -19.2839   27.5679 C   0  0  0  0  0  0  0  0  0  0  0  0
  -30.6317  -14.9207   20.7944 C   0  0  0  0  0  0  0  0  0  0  0  0
  -36.5685  -26.8641   31.8427 C   0  0  0  0  0  0  0  0  0  0  0  0
  -32.2621  -24.5994   27.5128 C   0  0  0  0  0  0  0  0  0  0  0  0
  -32.6727  -21.7723   26.7488 C   0  0  0  0  0  0  0  0  0  0  0  0
  -35.8607  -25.5244   32.0280 C   0  0  0  0  0  0  0  0  0  0  0  0
  -29.7059  -16.2973   24.0189 C   0  0  0  0  0  0  0  0  0  0  0  0
  -29.6045  -12.6474   18.3437 C   0  0  0  0  0  0  0  0  0  0  0  0
  -29.9850  -17.6006   23.2811 C   0  0  0  0  0  0  0  0  0  0  0  0
  -36.3539  -24.5131   30.9979 C   0  0  0  0  0  0  0  0  0  0  0  0
  -28.1822  -12.2745   18.7571 C   0  0  0  0  0  0  0  0  0  0  0  0
  -30.5074  -12.7788   19.5638 C   0  0  0  0  0  0  0  0  0  0  0  0
  -29.2703  -15.3632   22.9007 C   0  0  0  0  0  0  0  0  0  0  0  0
  -28.5899  -13.4261   20.9910 C   0  0  0  0  0  0  0  0  0  0  0  0
  -30.6096  -17.1322   21.9602 C   0  0  1  0  0  0  0  0  0  0  0  0
  -36.0452  -24.9835   29.5714 C   0  0  1  0  0  0  0  0  0  0  0  0
  -32.6860  -23.5457   28.5313 C   0  0  1  0  0  0  0  0  0  0  0  0
  -27.6343  -13.2733   19.7899 C   0  0  2  0  0  0  0  0  0  0  0  0
  -27.8504  -17.5120   28.0680 C   0  0  0  0  0  0  0  0  0  0  0  0
  -34.0968  -19.2386   29.4363 C   0  0  0  0  0  0  0  0  0  0  0  0
  -32.4206  -17.4361   28.9789 C   0  0  0  0  0  0  0  0  0  0  0  0
  -32.1427  -18.9206   30.9643 C   0  0  0  0  0  0  0  0  0  0  0  0
  -27.3457  -20.9516   26.5218 C   0  0  0  0  0  0  0  0  0  0  0  0
  -31.8964  -21.0844   19.1496 C   0  0  0  0  0  0  0  0  0  0  0  0
  -32.2720  -24.1641   18.7172 C   0  0  0  0  0  0  0  0  0  0  0  0
  -33.0031  -24.0931   21.1372 C   0  0  0  0  0  0  0  0  0  1  0  0
  -31.7139  -19.8496   28.6523 C   0  0  1  0  0  0  0  0  0  0  0  0
  -28.0990  -19.0016   27.8889 C   0  0  2  0  0  0  0  0  0  0  0  0
  -32.8116  -23.3003   19.8504 C   0  0  1  0  0  0  0  0  0  0  0  0
  -32.5978  -18.8821   29.4891 C   0  0  0  0  0  0  0  0  0  0  0  0
  -25.8767  -11.6193   20.2980 N   0  0  0  0  0  0  0  0  0  0  0  0
  -26.2286  -12.9148   20.2359 N   0  0  0  0  0  0  0  0  0  0  0  0
  -32.3302  -22.1863   28.1195 N   0  0  0  0  0  0  0  0  0  0  0  0
  -29.9564  -13.7205   20.5390 N   0  0  0  0  0  0  0  0  0  0  0  0
  -30.0787  -15.7761   21.7519 N   0  0  0  0  0  0  0  0  0  0  0  0
  -25.4177  -15.1115   20.5928 N   0  0  0  0  0  0  0  0  0  0  0  0
  -21.8788  -12.5107   21.6453 N   0  0  0  0  0  0  0  0  0  0  0  0
  -34.6507  -24.7593   29.2559 N   0  0  0  0  0  0  0  0  0  0  0  0
  -30.2867  -19.5522   28.7058 N   0  0  0  0  0  0  0  0  0  0  0  0
  -27.2213  -19.4958   26.7905 N   0  3  0  0  0  0  0  0  0  0  0  0
  -31.8304  -22.2160   20.1151 N   0  3  0  0  0  0  0  0  0  0  0  0
  -22.6129  -14.6766   21.4765 O   0  0  0  0  0  0  0  0  0  0  0  0
  -34.8194  -22.5354   28.5862 O   0  0  0  0  0  0  0  0  0  0  0  0
  -31.5673  -21.6022   30.2439 O   0  0  0  0  0  0  0  0  0  0  0  0
  -30.0012  -19.2645   26.4226 O   0  0  0  0  0  0  0  0  0  0  0  0
  -31.6868  -15.2052   20.2134 O   0  0  0  0  0  0  0  0  0  0  0  0
  -31.0059  -24.6964   19.0873 O   0  0  0  0  0  0  0  0  0  0  0  0
  -21.7149   -6.9449   21.4722 O   0  0  0  0  0  0  0  0  0  0  0  0
  -33.5196  -23.2378   22.1499 O   0  0  0  0  0  0  0  0  0  1  0  0
  -22.0687   -3.0736   17.5617 F   0  0  0  0  0  0  0  0  0  0  0  0
  -19.4621   -6.0839   20.1208 F   0  0  0  0  0  0  0  0  0  0  0  0
  1  2  1  0  0  0  0
  1  6  2  0  0  0  0
  2  7  2  0  0  0  0
  3  8  1  0  0  0  0
  3 10  2  0  0  0  0
  4 11  2  0  0  0  0
  4 19  1  0  0  0  0
  5 12  1  0  0  0  0
  5 19  2  0  0  0  0
  6 22  1  0  0  0  0
  7 24  1  0  0  0  0
  8 21  2  0  0  0  0
  9 13  2  0  0  0  0
  9 23  1  0  0  0  0
 10 26  1  0  0  0  0
 11 27  1  0  0  0  0
 12 27  2  0  0  0  0
 13 28  1  0  0  0  0
 14 15  2  0  0  0  0
 14 29  1  0  0  0  0
 15 30  1  0  0  0  0
 16 21  1  0  0  0  0
 16 26  2  0  0  0  0
 17 25  1  0  0  0  0
 17 28  2  0  0  0  0
 18 30  2  0  0  0  0
 18 31  1  0  0  0  0
 19 32  1  0  0  0  0
 20 32  1  0  0  0  0
 20 33  2  0  0  0  0
 20 34  1  0  0  0  0
 21 51  1  0  0  0  0
 22 24  2  0  0  0  0
 22 39  1  0  0  0  0
 23 25  2  0  0  0  0
 23 40  1  0  0  0  0
 24 52  1  0  0  0  0
 25 41  1  0  0  0  0
 26 60  1  0  0  0  0
 27 84  1  0  0  0  0
 28 85  1  0  0  0  0
 29 31  2  0  0  0  0
 29 84  1  0  0  0  0
 30 86  1  0  0  0  0
 31 87  1  0  0  0  0
 32 67  2  0  0  0  0
 33 68  1  0  0  0  0
 33 72  1  0  0  0  0
 34 73  1  0  0  0  0
 34 78  2  0  0  0  0
 35 53  1  0  0  0  0
 35 74  1  0  0  0  0
 35 79  2  0  0  0  0
 36 63  1  0  0  0  0
 36 69  1  0  0  0  0
 36 80  2  0  0  0  0
 37 64  1  0  0  0  0
 37 75  1  0  0  0  0
 37 81  2  0  0  0  0
 38 70  1  0  0  0  0
 38 71  1  0  0  0  0
 38 82  2  0  0  0  0
 39 42  1  0  0  0  0
 40 53  1  0  0  0  0
 41 69  1  0  0  0  0
 42 46  1  0  0  0  0
 43 45  1  0  0  0  0
 43 49  1  0  0  0  0
 44 47  1  0  0  0  0
 44 48  1  0  0  0  0
 45 51  1  0  0  0  0
 46 52  1  0  0  0  0
 47 54  1  0  0  0  0
 48 70  1  0  0  0  0
 49 71  1  0  0  0  0
 50 54  1  0  0  0  0
 50 70  1  0  0  0  0
 51 71  1  0  0  0  0
 52 74  1  0  0  0  0
 53 69  1  0  0  0  0
 54 68  1  0  0  0  0
 55 64  1  0  0  0  0
 56 66  1  0  0  0  0
 57 66  1  0  0  0  0
 58 66  1  0  0  0  0
 59 76  1  0  0  0  0
 60 77  1  0  0  0  0
 61 65  1  0  0  0  0
 61 83  1  0  0  0  0
 62 65  1  0  0  0  0
 62 85  1  0  0  0  0
 63 66  1  0  0  0  0
 63 75  1  0  0  0  0
 64 76  1  0  0  0  0
 65 77  1  0  0  0  0
 67 68  1  0  0  0  0
M  CHG  2  76   1  77   1
M  ISO  4  38 100  62 101  71 100  85 101
M  END
> <Batch ID>
0007

> <Smiles>
CNC(C)C(=O)NC(C(=O)N1Cc2cc([101O:1][101CH2:1]C(CO)NCc3cccc(C4CCC[100N:0]4[100C:0](=O)N4CCCC(n5nc(-c6ccc(Oc7ccc(F)cc7F)cc6)c(C(N)=O)c5N)C4)c3)ccc2CC1C(=O)NC1CCCc2ccccc21)C(C)(C)C

> <Shape>
0.182

> <Color>
0.191

> <Negative vol penalty>
0.000

$$$$

  -OEChem-04042320323D

 84 93  0     1  0  0  0  0  0999 V2000
  -27.2913  -32.2159   18.6520 C   0  0  0  0  0  0  0  0  0  0  0  0
  -28.1492  -31.3161   19.2762 C   0  0  0  0  0  0  0  0  0  0  0  0
  -23.1645   -9.7451   21.3547 C   0  0  0  0  0  0  0  0  0  0  0  0
  -23.8851  -10.5976   23.4974 C   0  0  0  0  0  0  0  0  0  0  0  0
  -25.9411  -32.2449   18.9986 C   0  0  0  0  0  0  0  0  0  0  0  0
  -27.6577  -30.4455   20.2483 C   0  0  0  0  0  0  0  0  0  0  0  0
  -29.3650  -25.7142   19.6611 C   0  0  0  0  0  0  0  0  0  0  0  0
  -32.3559  -18.5391   21.9438 C   0  0  0  0  0  0  0  0  0  0  0  0
  -31.8184  -17.3673   21.4114 C   0  0  0  0  0  0  0  0  0  0  0  0
  -22.4653   -8.7230   21.9965 C   0  0  0  0  0  0  0  0  0  0  0  0
  -23.1859   -9.5755   24.1392 C   0  0  0  0  0  0  0  0  0  0  0  0
  -30.6646  -25.4484   20.0906 C   0  0  0  0  0  0  0  0  0  0  0  0
  -23.1706   -5.7516   23.4450 C   0  0  0  0  0  0  0  0  0  0  0  0
  -23.2959   -4.4606   22.9322 C   0  0  0  0  0  0  0  0  0  0  0  0
  -29.7899  -24.4862   22.1224 C   0  0  0  0  0  0  0  0  0  0  0  0
  -30.1306  -19.4463   22.1936 C   0  0  0  0  0  0  0  0  0  0  0  0
  -20.9128   -4.3839   22.5426 C   0  0  0  0  0  0  0  0  0  0  0  0
  -23.8745  -10.6824   22.1052 C   0  0  0  0  0  0  0  0  0  0  0  0
  -24.1127  -13.0142   21.0984 C   0  0  0  0  0  0  0  0  0  0  0  0
  -25.4308  -31.3677   19.9684 C   0  0  0  0  0  0  0  0  0  0  0  0
  -28.2668  -25.3774   20.4654 C   0  0  0  0  0  0  0  0  0  0  0  0
  -26.2996  -30.4638   20.6091 C   0  0  0  0  0  0  0  0  0  0  0  0
  -28.4774  -24.7465   21.6998 C   0  0  0  0  0  0  0  0  0  0  0  0
  -31.5120  -19.5786   22.3350 C   0  0  0  0  0  0  0  0  0  0  0  0
  -30.4370  -17.2349   21.2700 C   0  0  0  0  0  0  0  0  0  0  0  0
  -22.4760   -8.6381   23.3887 C   0  0  0  0  0  0  0  0  0  0  0  0
  -30.8773  -24.8369   21.3226 C   0  0  0  0  0  0  0  0  0  0  0  0
  -21.9163   -6.3589   23.5067 C   0  0  0  0  0  0  0  0  0  0  0  0
  -22.1671   -3.7767   22.4810 C   0  0  0  0  0  0  0  0  0  0  0  0
  -29.5931  -18.2744   21.6611 C   0  0  0  0  0  0  0  0  0  0  0  0
  -20.7874   -5.6750   23.0555 C   0  0  0  0  0  0  0  0  0  0  0  0
  -24.5975  -11.7382   21.4428 C   0  0  0  0  0  0  0  0  0  0  0  0
  -25.1786  -13.6348   20.4940 C   0  0  0  0  0  0  0  0  0  0  0  0
  -22.8150  -13.5873   21.3063 C   0  0  0  0  0  0  0  0  0  0  0  0
  -25.9353  -27.0125   21.8775 C   0  0  0  0  0  0  0  0  0  0  0  0
  -24.8258  -24.0513   22.6006 C   0  0  0  0  0  0  0  0  0  0  0  0
  -25.5035  -20.7416   23.0834 C   0  0  0  0  0  0  0  0  0  0  0  0
  -30.5928  -14.9188   20.2913 C   0  0  0  0  0  0  0  0  0  0  0  0
  -23.9735  -31.4685   20.3437 C   0  0  0  0  0  0  0  0  0  0  0  0
  -26.8702  -25.6466   19.9759 C   0  0  0  0  0  0  0  0  0  0  0  0
  -27.3315  -24.3466   22.5916 C   0  0  0  0  0  0  0  0  0  0  0  0
  -23.4578  -30.2563   21.1150 C   0  0  0  0  0  0  0  0  0  0  0  0
  -29.6196  -11.7755   18.9312 C   0  0  0  0  0  0  0  0  0  0  0  0
  -24.4321  -29.8763   22.2255 C   0  0  0  0  0  0  0  0  0  0  0  0
  -28.1864  -11.5906   19.4351 C   0  0  0  0  0  0  0  0  0  0  0  0
  -34.2906  -23.5045   21.5841 C   0  0  0  0  0  0  0  0  0  0  0  0
  -30.5042  -12.4557   19.9746 C   0  0  0  0  0  0  0  0  0  0  0  0
  -28.5459  -13.5358   21.0079 C   0  0  0  0  0  0  0  0  0  0  0  0
  -33.9941  -22.4661   22.6472 C   0  0  0  0  0  0  0  0  0  0  0  0
  -32.3142  -22.3314   20.8697 C   0  0  0  0  0  0  0  0  0  0  0  0
  -25.7992  -29.4865   21.6506 C   0  0  1  0  0  0  0  0  0  0  0  0
  -25.8467  -25.7272   21.1044 C   0  0  1  0  0  0  0  0  0  0  0  0
  -27.6010  -12.9134   19.9671 C   0  0  2  0  0  0  0  0  0  0  0  0
  -32.9377  -23.7172   20.9270 C   0  0  1  0  0  0  0  0  0  1  0  0
  -25.0504  -18.3080   23.4953 C   0  0  0  0  0  0  0  0  0  0  0  0
  -24.7331  -24.9353   25.5195 C   0  0  0  0  0  0  0  0  0  0  0  0
  -24.5555  -22.5246   26.1714 C   0  0  0  0  0  0  0  0  0  0  0  0
  -22.7708  -23.5730   24.7792 C   0  0  0  0  0  0  0  0  0  0  0  0
  -25.1777  -20.1939   20.1933 C   0  0  0  0  0  0  0  0  0  0  0  0
  -32.0899  -20.8396   22.9068 C   0  0  0  0  0  0  0  0  0  0  0  0
  -25.0246  -23.0847   23.7430 C   0  0  1  0  0  0  0  0  0  0  0  0
  -24.8240  -19.4879   22.5629 C   0  0  2  0  0  0  0  0  0  0  0  0
  -24.2929  -23.5386   25.0376 C   0  0  0  0  0  0  0  0  0  0  0  0
  -25.8720  -11.5574   21.0867 N   0  0  0  0  0  0  0  0  0  0  0  0
  -26.1972  -12.7280   20.5121 N   0  0  0  0  0  0  0  0  0  0  0  0
  -25.9849  -24.6366   22.0717 N   0  0  0  0  0  0  0  0  0  0  0  0
  -29.8882  -13.7042   20.4293 N   0  0  0  0  0  0  0  0  0  0  0  0
  -25.3345  -14.8622   19.9540 N   0  0  0  0  0  0  0  0  0  0  0  0
  -21.8364  -12.8120   21.9430 N   0  0  0  0  0  0  0  0  0  0  0  0
  -29.8938  -16.0436   20.7283 N   0  0  0  0  0  0  0  0  0  0  0  0
  -25.7555  -28.1458   21.1076 N   0  0  0  0  0  0  0  0  0  0  0  0
  -24.6079  -21.7769   23.2483 N   0  0  0  0  0  0  0  0  0  0  0  0
  -33.0152  -21.5398   21.9642 N   0  3  2  0  0  0  0  0  0  0  0  0
  -25.3550  -19.1318   21.2167 N   0  3  0  0  0  0  0  0  0  0  0  0
  -22.5267  -14.7466   20.9236 O   0  0  0  0  0  0  0  0  0  0  0  0
  -26.1494  -26.9785   23.0837 O   0  0  0  0  0  0  0  0  0  0  0  0
  -23.6848  -24.2733   22.1879 O   0  0  0  0  0  0  0  0  0  0  0  0
  -26.7077  -20.7958   23.3235 O   0  0  0  0  0  0  0  0  0  0  0  0
  -31.7215  -14.9616   19.7952 O   0  0  0  0  0  0  0  0  0  0  0  0
  -21.7936   -7.6410   24.0153 O   0  0  0  0  0  0  0  0  0  0  0  0
  -32.1447  -24.5769   21.7444 O   0  0  0  0  0  0  0  0  0  1  0  0
  -22.2878   -2.5375   21.9871 F   0  0  0  0  0  0  0  0  0  0  0  0
  -28.2640  -18.1587   21.5284 F   0  0  0  0  0  0  0  0  0  0  0  0
  -19.5800   -6.2536   23.1111 F   0  0  0  0  0  0  0  0  0  0  0  0
  1  2  1  0  0  0  0
  1  5  2  0  0  0  0
  2  6  2  0  0  0  0
  3 10  2  0  0  0  0
  3 18  1  0  0  0  0
  4 11  1  0  0  0  0
  4 18  2  0  0  0  0
  5 20  1  0  0  0  0
  6 22  1  0  0  0  0
  7 12  2  0  0  0  0
  7 21  1  0  0  0  0
  8  9  2  0  0  0  0
  8 24  1  0  0  0  0
  9 25  1  0  0  0  0
 10 26  1  0  0  0  0
 11 26  2  0  0  0  0
 12 27  1  0  0  0  0
 13 14  2  0  0  0  0
 13 28  1  0  0  0  0
 14 29  1  0  0  0  0
 15 23  1  0  0  0  0
 15 27  2  0  0  0  0
 16 24  2  0  0  0  0
 16 30  1  0  0  0  0
 17 29  2  0  0  0  0
 17 31  1  0  0  0  0
 18 32  1  0  0  0  0
 19 32  1  0  0  0  0
 19 33  2  0  0  0  0
 19 34  1  0  0  0  0
 20 22  2  0  0  0  0
 20 39  1  0  0  0  0
 21 23  2  0  0  0  0
 21 40  1  0  0  0  0
 22 51  1  0  0  0  0
 23 41  1  0  0  0  0
 24 60  1  0  0  0  0
 25 30  2  0  0  0  0
 25 70  1  0  0  0  0
 26 80  1  0  0  0  0
 27 81  1  0  0  0  0
 28 31  2  0  0  0  0
 28 80  1  0  0  0  0
 29 82  1  0  0  0  0
 30 83  1  0  0  0  0
 31 84  1  0  0  0  0
 32 64  2  0  0  0  0
 33 65  1  0  0  0  0
 33 68  1  0  0  0  0
 34 69  1  0  0  0  0
 34 75  2  0  0  0  0
 35 52  1  0  0  0  0
 35 71  1  0  0  0  0
 35 76  2  0  0  0  0
 36 61  1  0  0  0  0
 36 66  1  0  0  0  0
 36 77  2  0  0  0  0
 37 62  1  0  0  0  0
 37 72  1  0  0  0  0
 37 78  2  0  0  0  0
 38 67  1  0  0  0  0
 38 70  1  0  0  0  0
 38 79  2  0  0  0  0
 39 42  1  0  0  0  0
 40 52  1  0  0  0  0
 41 66  1  0  0  0  0
 42 44  1  0  0  0  0
 43 45  1  0  0  0  0
 43 47  1  0  0  0  0
 44 51  1  0  0  0  0
 45 53  1  0  0  0  0
 46 49  1  0  0  0  0
 46 54  1  0  0  0  0
 47 67  1  0  0  0  0
 48 53  1  0  0  0  0
 48 67  1  0  0  0  0
 49 73  1  0  0  0  0
 50 54  1  0  0  0  0
 50 73  1  0  0  0  0
 51 71  1  0  0  0  0
 52 66  1  0  0  0  0
 53 65  1  0  0  0  0
 54 81  1  0  0  0  0
 55 62  1  0  0  0  0
 56 63  1  0  0  0  0
 57 63  1  0  0  0  0
 58 63  1  0  0  0  0
 59 74  1  0  0  0  0
 60 73  1  0  0  0  0
 61 63  1  0  0  0  0
 61 72  1  0  0  0  0
 62 74  1  0  0  0  0
 64 65  1  0  0  0  0
M  CHG  2  73   1  74   1
M  ISO  4  38 100  54 101  70 100  81 101
M  END
> <Batch ID>
0007

> <Smiles>
CNC(C)C(=O)NC(C(=O)N1Cc2cc([101O:1][101CH:1]3CCN(Cc4ccc([100NH:0][100C:0](=O)N5CCCC(n6nc(-c7ccc(Oc8ccc(F)cc8F)cc7)c(C(N)=O)c6N)C5)c(F)c4)C3)ccc2CC1C(=O)NC1CCCc2ccccc21)C(C)(C)C

> <Shape>
0.233

> <Color>
0.168

> <Negative vol penalty>
0.000

$$$$

  -OEChem-04042320323D

 86 95  0     1  0  0  0  0  0999 V2000
  -25.9660  -36.2233   22.8546 C   0  0  0  0  0  0  0  0  0  0  0  0
  -25.9175  -35.5408   21.6444 C   0  0  0  0  0  0  0  0  0  0  0  0
  -26.0569  -18.3198   16.7183 C   0  0  0  0  0  0  0  0  0  0  0  0
  -24.5497   -9.1337   20.6850 C   0  0  0  0  0  0  0  0  0  0  0  0
  -22.5892  -10.4749   21.1259 C   0  0  0  0  0  0  0  0  0  0  0  0
  -26.3924  -35.5641   24.0056 C   0  0  0  0  0  0  0  0  0  0  0  0
  -26.2840  -34.1957   21.5870 C   0  0  0  0  0  0  0  0  0  0  0  0
  -27.0200  -17.3865   16.3351 C   0  0  0  0  0  0  0  0  0  0  0  0
  -27.6138  -27.0320   18.2855 C   0  0  0  0  0  0  0  0  0  0  0  0
  -26.2487  -19.0898   17.8629 C   0  0  0  0  0  0  0  0  0  0  0  0
  -23.8313   -7.9802   20.9995 C   0  0  0  0  0  0  0  0  0  0  0  0
  -21.8708   -9.3214   21.4404 C   0  0  0  0  0  0  0  0  0  0  0  0
  -28.2568  -25.8091   18.4727 C   0  0  0  0  0  0  0  0  0  0  0  0
  -21.5657   -5.9694   19.4972 C   0  0  0  0  0  0  0  0  0  0  0  0
  -21.6978   -4.8716   18.6471 C   0  0  0  0  0  0  0  0  0  0  0  0
  -27.1800  -25.5783   20.6187 C   0  0  0  0  0  0  0  0  0  0  0  0
  -22.5439   -3.5505   20.4845 C   0  0  0  0  0  0  0  0  0  0  0  0
  -23.9287  -10.3811   20.7482 C   0  0  0  0  0  0  0  0  0  0  0  0
  -24.7986  -12.1767   19.1587 C   0  0  0  0  0  0  0  0  0  0  0  0
  -26.7760  -34.2137   23.9590 C   0  0  0  0  0  0  0  0  0  0  0  0
  -28.1819  -17.2098   17.0991 C   0  0  0  0  0  0  0  0  0  0  0  0
  -26.7556  -27.5434   19.2696 C   0  0  0  0  0  0  0  0  0  0  0  0
  -26.6943  -33.5063   22.7423 C   0  0  0  0  0  0  0  0  0  0  0  0
  -26.5238  -26.8055   20.4394 C   0  0  0  0  0  0  0  0  0  0  0  0
  -28.3842  -18.0029   18.2440 C   0  0  0  0  0  0  0  0  0  0  0  0
  -27.4063  -18.9316   18.6243 C   0  0  0  0  0  0  0  0  0  0  0  0
  -22.4919   -8.0740   21.3772 C   0  0  0  0  0  0  0  0  0  0  0  0
  -28.0417  -25.0832   19.6404 C   0  0  0  0  0  0  0  0  0  0  0  0
  -21.9229   -5.8579   20.8410 C   0  0  0  0  0  0  0  0  0  0  0  0
  -22.1868   -3.6621   19.1407 C   0  0  0  0  0  0  0  0  0  0  0  0
  -22.4119   -4.6485   21.3346 C   0  0  0  0  0  0  0  0  0  0  0  0
  -24.6704  -11.5731   20.4240 C   0  0  0  0  0  0  0  0  0  0  0  0
  -25.5969  -13.2722   19.3802 C   0  0  0  0  0  0  0  0  0  0  0  0
  -24.2455  -11.7825   17.8961 C   0  0  0  0  0  0  0  0  0  0  0  0
  -26.6328  -30.1627   21.1054 C   0  0  0  0  0  0  0  0  0  0  0  0
  -23.7104  -28.8114   21.9343 C   0  0  0  0  0  0  0  0  0  0  0  0
  -22.0943  -31.8029   22.2152 C   0  0  0  0  0  0  0  0  0  0  0  0
  -26.9898  -17.7457   22.4122 C   0  0  0  0  0  0  0  0  0  0  0  0
  -27.2221  -33.5471   25.2364 C   0  0  0  0  0  0  0  0  0  0  0  0
  -29.2284  -16.2203   16.6470 C   0  0  0  0  0  0  0  0  0  0  0  0
  -26.0480  -28.8506   19.0348 C   0  0  0  0  0  0  0  0  0  0  0  0
  -25.6094  -27.3091   21.5234 C   0  0  0  0  0  0  0  0  0  0  0  0
  -29.6121  -17.8283   19.0933 C   0  0  0  0  0  0  0  0  0  0  0  0
  -28.0067  -32.2619   24.9937 C   0  0  0  0  0  0  0  0  0  0  0  0
  -28.3109  -14.6021   23.4364 C   0  0  0  0  0  0  0  0  0  0  0  0
  -27.2544  -31.3701   24.0174 C   0  0  0  0  0  0  0  0  0  0  0  0
  -27.4881  -13.5841   22.6446 C   0  0  0  0  0  0  0  0  0  0  0  0
  -27.4652  -15.7983   23.8675 C   0  0  0  0  0  0  0  0  0  0  0  0
  -25.9169  -15.4523   21.9816 C   0  0  0  0  0  0  0  0  0  0  0  0
  -30.1798  -15.8044   17.7619 C   0  0  0  0  0  0  0  0  0  0  0  0
  -27.1172  -32.0513   22.6499 C   0  0  1  0  0  0  0  0  0  0  0  0
  -25.5361  -29.5061   20.3157 C   0  0  1  0  0  0  0  0  0  0  0  0
  -26.7397  -14.2546   21.4769 C   0  0  2  0  0  0  0  0  0  0  0  0
  -20.3003  -33.4269   22.8798 C   0  0  0  0  0  0  0  0  0  0  0  0
  -22.3505  -27.7844   19.4043 C   0  0  0  0  0  0  0  0  0  0  0  0
  -20.5883  -29.5334   19.7262 C   0  0  0  0  0  0  0  0  0  0  0  0
  -20.9094  -27.7572   21.4480 C   0  0  0  0  0  0  0  0  0  0  0  0
  -23.3627  -32.3082   24.8410 C   0  0  0  0  0  0  0  0  0  0  0  0
  -26.4268  -19.5970   20.8582 C   0  0  0  0  0  0  0  0  0  0  0  0
  -29.0055  -21.6514   19.0119 C   0  0  0  0  0  0  0  0  0  0  0  0
  -28.9671  -23.1250   18.6579 C   0  0  0  0  0  0  0  0  0  1  0  0
  -27.5718  -19.7897   19.8588 C   0  0  2  0  0  0  0  0  0  0  0  0
  -22.6332  -29.5931   21.2248 C   0  0  1  0  0  0  0  0  0  0  0  0
  -21.3462  -32.4391   23.3728 C   0  0  2  0  0  0  0  0  0  0  0  0
  -21.6478  -28.6743   20.4489 C   0  0  0  0  0  0  0  0  0  0  0  0
  -25.3342  -12.2304   21.3786 N   0  0  0  0  0  0  0  0  0  0  0  0
  -25.8873  -13.2585   20.7128 N   0  0  0  0  0  0  0  0  0  0  0  0
  -24.8795  -28.5445   21.2104 N   0  0  0  0  0  0  0  0  0  0  0  0
  -26.7834  -16.3894   22.7136 N   0  0  0  0  0  0  0  0  0  0  0  0
  -26.0718  -14.2363   18.5632 N   0  0  0  0  0  0  0  0  0  0  0  0
  -23.4476  -10.6313   17.8463 N   0  0  0  0  0  0  0  0  0  0  0  0
  -26.2241  -31.2716   21.8215 N   0  0  0  0  0  0  0  0  0  0  0  0
  -21.9989  -30.4276   22.2396 N   0  0  0  0  0  0  0  0  0  0  0  0
  -26.3109  -18.2246   21.2985 N   0  0  0  0  0  0  0  0  0  0  0  0
  -30.6964  -17.0347   18.4299 N   0  3  0  0  0  0  0  0  0  0  0  0
  -22.2937  -33.1645   24.2657 N   0  3  0  0  0  0  0  0  0  0  0  0
  -27.6769  -21.2367   19.5285 N   0  3  0  0  0  0  0  0  0  0  0  0
  -24.4661  -12.4226   16.8401 O   0  0  0  0  0  0  0  0  0  0  0  0
  -27.7657  -29.6968   21.0691 O   0  0  0  0  0  0  0  0  0  0  0  0
  -23.5200  -28.4399   23.0958 O   0  0  0  0  0  0  0  0  0  0  0  0
  -22.6994  -32.4605   21.3714 O   0  0  0  0  0  0  0  0  0  0  0  0
  -27.7290  -18.4745   23.0827 O   0  0  0  0  0  0  0  0  0  0  0  0
  -21.7905   -6.9486   21.6839 O   0  0  0  0  0  0  0  0  0  0  0  0
  -28.6675  -23.8890   19.8253 O   0  0  0  0  0  0  0  0  0  1  0  0
  -22.3121   -2.6074   18.3245 F   0  0  0  0  0  0  0  0  0  0  0  0
  -22.7556   -4.5350   22.6249 F   0  0  0  0  0  0  0  0  0  0  0  0
  1  2  1  0  0  0  0
  1  6  2  0  0  0  0
  2  7  2  0  0  0  0
  3  8  1  0  0  0  0
  3 10  2  0  0  0  0
  4 11  2  0  0  0  0
  4 18  1  0  0  0  0
  5 12  1  0  0  0  0
  5 18  2  0  0  0  0
  6 20  1  0  0  0  0
  7 23  1  0  0  0  0
  8 21  2  0  0  0  0
  9 13  2  0  0  0  0
  9 22  1  0  0  0  0
 10 26  1  0  0  0  0
 11 27  1  0  0  0  0
 12 27  2  0  0  0  0
 13 28  1  0  0  0  0
 14 15  2  0  0  0  0
 14 29  1  0  0  0  0
 15 30  1  0  0  0  0
 16 24  1  0  0  0  0
 16 28  2  0  0  0  0
 17 30  2  0  0  0  0
 17 31  1  0  0  0  0
 18 32  1  0  0  0  0
 19 32  1  0  0  0  0
 19 33  2  0  0  0  0
 19 34  1  0  0  0  0
 20 23  2  0  0  0  0
 20 39  1  0  0  0  0
 21 25  1  0  0  0  0
 21 40  1  0  0  0  0
 22 24  2  0  0  0  0
 22 41  1  0  0  0  0
 23 51  1  0  0  0  0
 24 42  1  0  0  0  0
 25 26  2  0  0  0  0
 25 43  1  0  0  0  0
 26 62  1  0  0  0  0
 27 83  1  0  0  0  0
 28 84  1  0  0  0  0
 29 31  2  0  0  0  0
 29 83  1  0  0  0  0
 30 85  1  0  0  0  0
 31 86  1  0  0  0  0
 32 66  2  0  0  0  0
 33 67  1  0  0  0  0
 33 70  1  0  0  0  0
 34 71  1  0  0  0  0
 34 78  2  0  0  0  0
 35 52  1  0  0  0  0
 35 72  1  0  0  0  0
 35 79  2  0  0  0  0
 36 63  1  0  0  0  0
 36 68  1  0  0  0  0
 36 80  2  0  0  0  0
 37 64  1  0  0  0  0
 37 73  1  0  0  0  0
 37 81  2  0  0  0  0
 38 69  1  0  0  0  0
 38 74  1  0  0  0  0
 38 82  2  0  0  0  0
 39 44  1  0  0  0  0
 40 50  1  0  0  0  0
 41 52  1  0  0  0  0
 42 68  1  0  0  0  0
 43 75  1  0  0  0  0
 44 46  1  0  0  0  0
 45 47  1  0  0  0  0
 45 48  1  0  0  0  0
 46 51  1  0  0  0  0
 47 53  1  0  0  0  0
 48 69  1  0  0  0  0
 49 53  1  0  0  0  0
 49 69  1  0  0  0  0
 50 75  1  0  0  0  0
 51 72  1  0  0  0  0
 52 68  1  0  0  0  0
 53 67  1  0  0  0  0
 54 64  1  0  0  0  0
 55 65  1  0  0  0  0
 56 65  1  0  0  0  0
 57 65  1  0  0  0  0
 58 76  1  0  0  0  0
 59 62  1  0  0  0  0
 59 74  1  0  0  0  0
 60 61  1  0  0  0  0
 60 77  1  0  0  0  0
 61 84  1  0  0  0  0
 62 77  1  0  0  0  0
 63 65  1  0  0  0  0
 63 73  1  0  0  0  0
 64 76  1  0  0  0  0
 66 67  1  0  0  0  0
M  CHG  3  75   1  76   1  77   1
M  ISO  4  38 100  61 101  74 100  84 101
M  END
> <Batch ID>
0007

> <Smiles>
CNC(C)C(=O)NC(C(=O)N1Cc2cc([101O:1][101CH2:1]CNC(C[100NH:0][100C:0](=O)N3CCCC(n4nc(-c5ccc(Oc6ccc(F)cc6F)cc5)c(C(N)=O)c4N)C3)c3cccc4c3CNCC4)ccc2CC1C(=O)NC1CCCc2ccccc21)C(C)(C)C

> <Shape>
0.265

> <Color>
0.095

> <Negative vol penalty>
0.000

$$$$

  -OEChem-04042320323D

 85 94  0     1  0  0  0  0  0999 V2000
  -29.6649  -34.2253   21.8826 C   0  0  0  0  0  0  0  0  0  0  0  0
  -30.6637  -33.4246   22.4273 C   0  0  0  0  0  0  0  0  0  0  0  0
  -22.9593  -10.0302   19.9054 C   0  0  0  0  0  0  0  0  0  0  0  0
  -23.8188   -9.8004   22.1516 C   0  0  0  0  0  0  0  0  0  0  0  0
  -28.3664  -33.7323   21.7615 C   0  0  0  0  0  0  0  0  0  0  0  0
  -30.3643  -32.1307   22.8521 C   0  0  0  0  0  0  0  0  0  0  0  0
  -33.2812  -25.6082   23.3668 C   0  0  0  0  0  0  0  0  0  0  0  0
  -33.0181  -16.8880   23.5862 C   0  0  0  0  0  0  0  0  0  0  0  0
  -32.3177  -16.1431   22.6419 C   0  0  0  0  0  0  0  0  0  0  0  0
  -22.1811   -8.8869   20.0861 C   0  0  0  0  0  0  0  0  0  0  0  0
  -23.0406   -8.6570   22.3324 C   0  0  0  0  0  0  0  0  0  0  0  0
  -33.4950  -24.5945   24.2998 C   0  0  0  0  0  0  0  0  0  0  0  0
  -21.5539   -5.4731   23.2613 C   0  0  0  0  0  0  0  0  0  0  0  0
  -22.1571   -4.3660   23.8580 C   0  0  0  0  0  0  0  0  0  0  0  0
  -31.2342  -23.8211   23.9685 C   0  0  0  0  0  0  0  0  0  0  0  0
  -23.7760   -4.2825   22.0665 C   0  0  0  0  0  0  0  0  0  0  0  0
  -23.7782  -10.4870   20.9381 C   0  0  0  0  0  0  0  0  0  0  0  0
  -24.2163  -12.9985   21.0285 C   0  0  0  0  0  0  0  0  0  0  0  0
  -28.0530  -32.4283   22.1762 C   0  0  0  0  0  0  0  0  0  0  0  0
  -32.0368  -25.7429   22.7346 C   0  0  0  0  0  0  0  0  0  0  0  0
  -29.0600  -31.6202   22.7377 C   0  0  0  0  0  0  0  0  0  0  0  0
  -31.0080  -24.8358   23.0259 C   0  0  0  0  0  0  0  0  0  0  0  0
  -30.9274  -17.7887   24.4376 C   0  0  0  0  0  0  0  0  0  0  0  0
  -30.2208  -17.0515   23.4693 C   0  0  0  0  0  0  0  0  0  0  0  0
  -32.3277  -17.7085   24.4776 C   0  0  0  0  0  0  0  0  0  0  0  0
  -30.9266  -16.2218   22.5849 C   0  0  0  0  0  0  0  0  0  0  0  0
  -22.2217   -8.2002   21.2996 C   0  0  0  0  0  0  0  0  0  0  0  0
  -32.4705  -23.7025   24.6029 C   0  0  0  0  0  0  0  0  0  0  0  0
  -22.0617   -5.9849   22.0672 C   0  0  0  0  0  0  0  0  0  0  0  0
  -23.2681   -3.7707   23.2606 C   0  0  0  0  0  0  0  0  0  0  0  0
  -23.1728   -5.3897   21.4698 C   0  0  0  0  0  0  0  0  0  0  0  0
  -24.5828  -11.6677   20.7518 C   0  0  0  0  0  0  0  0  0  0  0  0
  -25.3208  -13.7378   20.6824 C   0  0  0  0  0  0  0  0  0  0  0  0
  -22.9873  -13.5197   21.5516 C   0  0  0  0  0  0  0  0  0  0  0  0
  -29.8029  -28.0021   22.6377 C   0  0  0  0  0  0  0  0  0  0  0  0
  -28.4596  -26.0332   20.4375 C   0  0  0  0  0  0  0  0  0  0  0  0
  -28.1434  -22.8738   19.1864 C   0  0  0  0  0  0  0  0  0  0  0  0
  -30.8272  -14.5640   20.6907 C   0  0  0  0  0  0  0  0  0  0  0  0
  -26.6247  -31.9559   22.0688 C   0  0  0  0  0  0  0  0  0  0  0  0
  -31.8307  -26.8253   21.7108 C   0  0  0  0  0  0  0  0  0  0  0  0
  -30.2192  -18.7131   25.3963 C   0  0  0  0  0  0  0  0  0  0  0  0
  -28.7144  -17.0842   23.3981 C   0  0  0  0  0  0  0  0  0  0  0  0
  -29.6600  -24.9249   22.3600 C   0  0  0  0  0  0  0  0  0  0  0  0
  -26.4724  -30.4425   22.1976 C   0  0  0  0  0  0  0  0  0  0  0  0
  -28.7223  -18.4314   25.5112 C   0  0  0  0  0  0  0  0  0  0  0  0
  -28.1019  -18.2777   24.1286 C   0  0  0  0  0  0  0  0  0  0  0  0
  -29.5132  -12.4184   18.1714 C   0  0  0  0  0  0  0  0  0  0  0  0
  -27.2845  -29.9228   23.3796 C   0  0  0  0  0  0  0  0  0  0  0  0
  -28.0832  -12.1413   18.6409 C   0  0  0  0  0  0  0  0  0  0  0  0
  -30.4887  -12.5032   19.3440 C   0  0  0  0  0  0  0  0  0  0  0  0
  -28.6751  -13.1674   20.8734 C   0  0  0  0  0  0  0  0  0  0  0  0
  -28.7799  -30.2026   23.1871 C   0  0  1  0  0  0  0  0  0  0  0  0
  -30.3618  -27.1841   21.5080 C   0  0  1  0  0  0  0  0  0  0  0  0
  -27.6453  -13.1377   19.7322 C   0  0  2  0  0  0  0  0  0  0  0  0
  -26.9443  -21.5697   17.4090 C   0  0  0  0  0  0  0  0  0  0  0  0
  -25.8996  -26.1330   22.0947 C   0  0  0  0  0  0  0  0  0  0  0  0
  -25.0903  -24.1247   20.8378 C   0  0  0  0  0  0  0  0  0  0  0  0
  -25.5468  -26.2545   19.6218 C   0  0  0  0  0  0  0  0  0  0  0  0
  -30.6841  -22.0697   17.8989 C   0  0  0  0  0  0  0  0  0  0  0  0
  -33.1315  -18.5014   25.4657 C   0  0  0  0  0  0  0  0  0  0  0  0
  -33.9586  -20.7681   26.1112 C   0  0  0  0  0  0  0  0  0  0  0  0
  -34.0049  -22.2060   25.6333 C   0  0  0  0  0  0  0  0  0  1  0  0
  -27.4852  -24.8811   20.4871 C   0  0  1  0  0  0  0  0  0  0  0  0
  -28.2048  -22.3421   17.7658 C   0  0  2  0  0  0  0  0  0  0  0  0
  -26.0302  -25.3476   20.7745 C   0  0  0  0  0  0  0  0  0  0  0  0
  -25.8231  -11.5646   20.2672 N   0  0  0  0  0  0  0  0  0  0  0  0
  -26.2456  -12.8400   20.2365 N   0  0  0  0  0  0  0  0  0  0  0  0
  -29.5055  -26.0043   21.3707 N   0  0  0  0  0  0  0  0  0  0  0  0
  -30.0109  -13.4693   20.3356 N   0  0  0  0  0  0  0  0  0  0  0  0
  -25.5815  -15.0619   20.7189 N   0  0  0  0  0  0  0  0  0  0  0  0
  -21.9552  -12.6209   21.8537 N   0  0  0  0  0  0  0  0  0  0  0  0
  -30.2544  -15.4334   21.6184 N   0  0  0  0  0  0  0  0  0  0  0  0
  -29.3562  -29.2536   22.2589 N   0  0  0  0  0  0  0  0  0  0  0  0
  -27.6436  -24.1581   19.2298 N   0  0  0  0  0  0  0  0  0  0  0  0
  -29.3747  -21.4334   17.6029 N   0  3  0  0  0  0  0  0  0  0  0  0
  -33.2195  -19.9459   25.1202 N   0  3  0  0  0  0  0  0  0  0  0  0
  -22.8038  -14.7477   21.7299 O   0  0  0  0  0  0  0  0  0  0  0  0
  -29.7773  -27.5319   23.7691 O   0  0  0  0  0  0  0  0  0  0  0  0
  -28.3026  -26.9221   19.5968 O   0  0  0  0  0  0  0  0  0  0  0  0
  -28.4994  -22.2143   20.1604 O   0  0  0  0  0  0  0  0  0  0  0  0
  -31.9406  -14.7336   20.1871 O   0  0  0  0  0  0  0  0  0  0  0  0
  -21.4623   -7.0846   21.4764 O   0  0  0  0  0  0  0  0  0  0  0  0
  -32.6763  -22.7125   25.5137 O   0  0  0  0  0  0  0  0  0  1  0  0
  -23.8482   -2.7085   23.8345 F   0  0  0  0  0  0  0  0  0  0  0  0
  -23.6659   -5.8776   20.3233 F   0  0  0  0  0  0  0  0  0  0  0  0
  1  2  1  0  0  0  0
  1  5  2  0  0  0  0
  2  6  2  0  0  0  0
  3 10  2  0  0  0  0
  3 17  1  0  0  0  0
  4 11  1  0  0  0  0
  4 17  2  0  0  0  0
  5 19  1  0  0  0  0
  6 21  1  0  0  0  0
  7 12  2  0  0  0  0
  7 20  1  0  0  0  0
  8  9  2  0  0  0  0
  8 25  1  0  0  0  0
  9 26  1  0  0  0  0
 10 27  1  0  0  0  0
 11 27  2  0  0  0  0
 12 28  1  0  0  0  0
 13 14  2  0  0  0  0
 13 29  1  0  0  0  0
 14 30  1  0  0  0  0
 15 22  1  0  0  0  0
 15 28  2  0  0  0  0
 16 30  2  0  0  0  0
 16 31  1  0  0  0  0
 17 32  1  0  0  0  0
 18 32  1  0  0  0  0
 18 33  2  0  0  0  0
 18 34  1  0  0  0  0
 19 21  2  0  0  0  0
 19 39  1  0  0  0  0
 20 22  2  0  0  0  0
 20 40  1  0  0  0  0
 21 52  1  0  0  0  0
 22 43  1  0  0  0  0
 23 24  1  0  0  0  0
 23 25  2  0  0  0  0
 23 41  1  0  0  0  0
 24 26  2  0  0  0  0
 24 42  1  0  0  0  0
 25 60  1  0  0  0  0
 26 72  1  0  0  0  0
 27 82  1  0  0  0  0
 28 83  1  0  0  0  0
 29 31  2  0  0  0  0
 29 82  1  0  0  0  0
 30 84  1  0  0  0  0
 31 85  1  0  0  0  0
 32 66  2  0  0  0  0
 33 67  1  0  0  0  0
 33 70  1  0  0  0  0
 34 71  1  0  0  0  0
 34 77  2  0  0  0  0
 35 53  1  0  0  0  0
 35 73  1  0  0  0  0
 35 78  2  0  0  0  0
 36 63  1  0  0  0  0
 36 68  1  0  0  0  0
 36 79  2  0  0  0  0
 37 64  1  0  0  0  0
 37 74  1  0  0  0  0
 37 80  2  0  0  0  0
 38 69  1  0  0  0  0
 38 72  1  0  0  0  0
 38 81  2  0  0  0  0
 39 44  1  0  0  0  0
 40 53  1  0  0  0  0
 41 45  1  0  0  0  0
 42 46  1  0  0  0  0
 43 68  1  0  0  0  0
 44 48  1  0  0  0  0
 45 46  1  0  0  0  0
 47 49  1  0  0  0  0
 47 50  1  0  0  0  0
 48 52  1  0  0  0  0
 49 54  1  0  0  0  0
 50 69  1  0  0  0  0
 51 54  1  0  0  0  0
 51 69  1  0  0  0  0
 52 73  1  0  0  0  0
 53 68  1  0  0  0  0
 54 67  1  0  0  0  0
 55 64  1  0  0  0  0
 56 65  1  0  0  0  0
 57 65  1  0  0  0  0
 58 65  1  0  0  0  0
 59 75  1  0  0  0  0
 60 76  1  0  0  0  0
 61 62  1  0  0  0  0
 61 76  1  0  0  0  0
 62 83  1  0  0  0  0
 63 65  1  0  0  0  0
 63 74  1  0  0  0  0
 64 75  1  0  0  0  0
 66 67  1  0  0  0  0
M  CHG  2  75   1  76   1
M  ISO  4  38 100  62 101  72 100  83 101
M  END
> <Batch ID>
0007

> <Smiles>
CNC(C)C(=O)NC(C(=O)N1Cc2cc([101O:1][101CH2:1]CNCc3ccc([100NH:0][100C:0](=O)N4CCCC(n5nc(-c6ccc(Oc7ccc(F)cc7F)cc6)c(C(N)=O)c5N)C4)c4c3CCCC4)ccc2CC1C(=O)NC1CCCc2ccccc21)C(C)(C)C

> <Shape>
0.251

> <Color>
0.204

> <Negative vol penalty>
0.000

$$$$

  -OEChem-04042320323D

 80 88  0     1  0  0  0  0  0999 V2000
  -28.8221  -32.3676   24.3238 C   0  0  0  0  0  0  0  0  0  0  0  0
  -29.9570  -31.5720   24.4437 C   0  0  0  0  0  0  0  0  0  0  0  0
  -23.0350   -9.9802   19.9376 C   0  0  0  0  0  0  0  0  0  0  0  0
  -23.8151   -9.9291   22.2236 C   0  0  0  0  0  0  0  0  0  0  0  0
  -27.5625  -31.7754   24.2423 C   0  0  0  0  0  0  0  0  0  0  0  0
  -29.8329  -30.1837   24.4832 C   0  0  0  0  0  0  0  0  0  0  0  0
  -33.2707  -24.2132   22.5207 C   0  0  0  0  0  0  0  0  0  0  0  0
  -32.8765  -17.2480   23.4596 C   0  0  0  0  0  0  0  0  0  0  0  0
  -32.2374  -16.4032   22.5522 C   0  0  0  0  0  0  0  0  0  0  0  0
  -22.2603   -8.8452   20.1765 C   0  0  0  0  0  0  0  0  0  0  0  0
  -23.0403   -8.7941   22.4626 C   0  0  0  0  0  0  0  0  0  0  0  0
  -33.7181  -23.0041   23.0514 C   0  0  0  0  0  0  0  0  0  0  0  0
  -19.3032   -8.1111   21.6427 C   0  0  0  0  0  0  0  0  0  0  0  0
  -17.9913   -8.1102   21.1690 C   0  0  0  0  0  0  0  0  0  0  0  0
  -31.4978  -22.0891   22.8227 C   0  0  0  0  0  0  0  0  0  0  0  0
  -30.7393  -18.1713   24.1054 C   0  0  0  0  0  0  0  0  0  0  0  0
  -18.4827   -6.1729   19.8116 C   0  0  0  0  0  0  0  0  0  0  0  0
  -23.8124  -10.5222   20.9611 C   0  0  0  0  0  0  0  0  0  0  0  0
  -24.2261  -13.0380   20.8771 C   0  0  0  0  0  0  0  0  0  0  0  0
  -27.4237  -30.3788   24.2710 C   0  0  0  0  0  0  0  0  0  0  0  0
  -31.9287  -24.3731   22.1465 C   0  0  0  0  0  0  0  0  0  0  0  0
  -28.5702  -29.5723   24.4033 C   0  0  0  0  0  0  0  0  0  0  0  0
  -31.0365  -23.3004   22.2851 C   0  0  0  0  0  0  0  0  0  0  0  0
  -32.1275  -18.1321   24.2362 C   0  0  0  0  0  0  0  0  0  0  0  0
  -30.1002  -17.3266   23.1979 C   0  0  0  0  0  0  0  0  0  0  0  0
  -30.8493  -16.4425   22.4213 C   0  0  0  0  0  0  0  0  0  0  0  0
  -22.2629   -8.2521   21.4391 C   0  0  0  0  0  0  0  0  0  0  0  0
  -32.8310  -21.9428   23.2052 C   0  0  0  0  0  0  0  0  0  0  0  0
  -20.2050   -7.1429   21.2008 C   0  0  0  0  0  0  0  0  0  0  0  0
  -17.5810   -7.1411   20.2535 C   0  0  0  0  0  0  0  0  0  0  0  0
  -19.7947   -6.1738   20.2853 C   0  0  0  0  0  0  0  0  0  0  0  0
  -24.6133  -11.6943   20.7147 C   0  0  0  0  0  0  0  0  0  0  0  0
  -25.3363  -13.7613   20.5153 C   0  0  0  0  0  0  0  0  0  0  0  0
  -22.9749  -13.5835   21.3158 C   0  0  0  0  0  0  0  0  0  0  0  0
  -29.5507  -26.2656   23.0776 C   0  0  0  0  0  0  0  0  0  0  0  0
  -27.9949  -24.8826   20.5898 C   0  0  0  0  0  0  0  0  0  0  0  0
  -27.7012  -22.2189   18.4767 C   0  0  0  0  0  0  0  0  0  0  0  0
  -30.8318  -14.6461   20.6552 C   0  0  0  0  0  0  0  0  0  0  0  0
  -26.0375  -29.7861   24.2274 C   0  0  0  0  0  0  0  0  0  0  0  0
  -31.4679  -25.6751   21.5508 C   0  0  0  0  0  0  0  0  0  0  0  0
  -29.5904  -23.4143   21.8798 C   0  0  0  0  0  0  0  0  0  0  0  0
  -26.0226  -28.2953   23.8993 C   0  0  0  0  0  0  0  0  0  0  0  0
  -29.6270  -12.3031   18.2603 C   0  0  0  0  0  0  0  0  0  0  0  0
  -27.0643  -27.5549   24.7322 C   0  0  0  0  0  0  0  0  0  0  0  0
  -28.1834  -12.0463   18.6987 C   0  0  0  0  0  0  0  0  0  0  0  0
  -30.5590  -12.4864   19.4568 C   0  0  0  0  0  0  0  0  0  0  0  0
  -28.6861  -13.2437   20.8668 C   0  0  0  0  0  0  0  0  0  0  0  0
  -28.4784  -28.0619   24.4246 C   0  0  1  0  0  0  0  0  0  0  0  0
  -29.9637  -25.8930   21.6819 C   0  0  1  0  0  0  0  0  0  0  0  0
  -27.6983  -13.1171   19.6956 C   0  0  2  0  0  0  0  0  0  0  0  0
  -28.6121  -17.3922   23.0765 C   0  0  0  0  0  0  0  0  0  0  0  0
  -26.3113  -21.3589   16.5725 C   0  0  0  0  0  0  0  0  0  0  0  0
  -25.7621  -24.1715   22.5440 C   0  0  0  0  0  0  0  0  0  0  0  0
  -24.8976  -22.5392   20.8539 C   0  0  0  0  0  0  0  0  0  0  0  0
  -24.9765  -24.9721   20.3087 C   0  0  0  0  0  0  0  0  0  0  0  0
  -30.0318  -22.1513   16.6538 C   0  0  0  0  0  0  0  0  0  0  0  0
  -32.8177  -19.0456   25.2140 C   0  0  0  0  0  0  0  0  0  0  0  0
  -27.1323  -23.6558   20.4173 C   0  0  1  0  0  0  0  0  0  0  0  0
  -27.5538  -22.1416   16.9678 C   0  0  2  0  0  0  0  0  0  0  0  0
  -25.7189  -23.8328   21.0405 C   0  0  0  0  0  0  0  0  0  0  0  0
  -25.8711  -11.5687   20.2832 N   0  0  0  0  0  0  0  0  0  0  0  0
  -26.2839  -12.8427   20.1713 N   0  0  0  0  0  0  0  0  0  0  0  0
  -29.1865  -24.7095   21.3082 N   0  0  0  0  0  0  0  0  0  0  0  0
  -30.0379  -13.5190   20.3552 N   0  0  0  0  0  0  0  0  0  0  0  0
  -25.5845  -15.0872   20.4610 N   0  0  0  0  0  0  0  0  0  0  0  0
  -21.9401  -12.6987   21.6483 N   0  0  0  0  0  0  0  0  0  0  0  0
  -30.2188  -15.5764   21.4939 N   0  0  0  0  0  0  0  0  0  0  0  0
  -28.9533  -27.5079   23.1749 N   0  0  0  0  0  0  0  0  0  0  0  0
  -27.1227  -23.3611   18.9885 N   0  0  0  0  0  0  0  0  0  0  0  0
  -32.5259  -20.4465   24.9457 N   0  0  0  0  0  0  0  0  0  1  0  0
  -28.7417  -21.4735   16.3649 N   0  3  0  0  0  0  0  0  0  0  0  0
  -22.7749  -14.8194   21.3944 O   0  0  0  0  0  0  0  0  0  0  0  0
  -29.7572  -25.4834   23.9980 O   0  0  0  0  0  0  0  0  0  0  0  0
  -27.6286  -25.9533   20.0990 O   0  0  0  0  0  0  0  0  0  0  0  0
  -28.2692  -21.3509   19.1358 O   0  0  0  0  0  0  0  0  0  0  0  0
  -31.9611  -14.7896   20.1798 O   0  0  0  0  0  0  0  0  0  0  0  0
  -21.5069   -7.1447   21.6727 O   0  0  0  0  0  0  0  0  0  0  0  0
  -33.2649  -20.7617   23.7236 O   0  0  0  0  0  0  0  0  0  1  0  0
  -16.3207   -7.1394   19.7999 F   0  0  0  0  0  0  0  0  0  0  0  0
  -20.6561   -5.2404   19.8581 F   0  0  0  0  0  0  0  0  0  0  0  0
  1  2  1  0  0  0  0
  1  5  2  0  0  0  0
  2  6  2  0  0  0  0
  3 10  2  0  0  0  0
  3 18  1  0  0  0  0
  4 11  1  0  0  0  0
  4 18  2  0  0  0  0
  5 20  1  0  0  0  0
  6 22  1  0  0  0  0
  7 12  2  0  0  0  0
  7 21  1  0  0  0  0
  8  9  2  0  0  0  0
  8 24  1  0  0  0  0
  9 26  1  0  0  0  0
 10 27  1  0  0  0  0
 11 27  2  0  0  0  0
 12 28  1  0  0  0  0
 13 14  2  0  0  0  0
 13 29  1  0  0  0  0
 14 30  1  0  0  0  0
 15 23  1  0  0  0  0
 15 28  2  0  0  0  0
 16 24  2  0  0  0  0
 16 25  1  0  0  0  0
 17 30  2  0  0  0  0
 17 31  1  0  0  0  0
 18 32  1  0  0  0  0
 19 32  1  0  0  0  0
 19 33  2  0  0  0  0
 19 34  1  0  0  0  0
 20 22  2  0  0  0  0
 20 39  1  0  0  0  0
 21 23  2  0  0  0  0
 21 40  1  0  0  0  0
 22 48  1  0  0  0  0
 23 41  1  0  0  0  0
 24 57  1  0  0  0  0
 25 26  2  0  0  0  0
 25 51  1  0  0  0  0
 26 67  1  0  0  0  0
 27 77  1  0  0  0  0
 28 78  1  0  0  0  0
 29 31  2  0  0  0  0
 29 77  1  0  0  0  0
 30 79  1  0  0  0  0
 31 80  1  0  0  0  0
 32 61  2  0  0  0  0
 33 62  1  0  0  0  0
 33 65  1  0  0  0  0
 34 66  1  0  0  0  0
 34 72  2  0  0  0  0
 35 49  1  0  0  0  0
 35 68  1  0  0  0  0
 35 73  2  0  0  0  0
 36 58  1  0  0  0  0
 36 63  1  0  0  0  0
 36 74  2  0  0  0  0
 37 59  1  0  0  0  0
 37 69  1  0  0  0  0
 37 75  2  0  0  0  0
 38 64  1  0  0  0  0
 38 67  1  0  0  0  0
 38 76  2  0  0  0  0
 39 42  1  0  0  0  0
 40 49  1  0  0  0  0
 41 63  1  0  0  0  0
 42 44  1  0  0  0  0
 43 45  1  0  0  0  0
 43 46  1  0  0  0  0
 44 48  1  0  0  0  0
 45 50  1  0  0  0  0
 46 64  1  0  0  0  0
 47 50  1  0  0  0  0
 47 64  1  0  0  0  0
 48 68  1  0  0  0  0
 49 63  1  0  0  0  0
 50 62  1  0  0  0  0
 52 59  1  0  0  0  0
 53 60  1  0  0  0  0
 54 60  1  0  0  0  0
 55 60  1  0  0  0  0
 56 71  1  0  0  0  0
 57 70  1  0  0  0  0
 58 60  1  0  0  0  0
 58 69  1  0  0  0  0
 59 71  1  0  0  0  0
 61 62  1  0  0  0  0
 70 78  1  0  0  0  0
M  CHG  1  71   1
M  ISO  4  38 100  67 100  70 101  78 101
M  END
> <Batch ID>
0007

> <Smiles>
CNC(C)C(=O)NC(C(=O)N1Cc2cc([101O:1][101NH:1]Cc3ccc([100NH:0][100C:0](=O)N4CCCC(n5nc(-c6ccc(Oc7ccc(F)cc7F)cc6)c(C(N)=O)c5N)C4)c(C)c3)ccc2CC1C(=O)NC1CCCc2ccccc21)C(C)(C)C

> <Shape>
0.215

> <Color>
0.212

> <Negative vol penalty>
0.000

$$$$

  -OEChem-04042320323D

 81 89  0     1  0  0  0  0  0999 V2000
  -28.3975  -25.2371   22.3556 C   0  0  0  0  0  0  0  0  0  0  0  0
  -27.0635  -25.0621   22.0015 C   0  0  0  0  0  0  0  0  0  0  0  0
  -16.4389  -23.7005   17.5939 C   0  0  0  0  0  0  0  0  0  0  0  0
  -26.3291  -29.1000   21.6232 C   0  0  0  0  0  0  0  0  0  0  0  0
  -24.9720  -30.0608   19.8704 C   0  0  0  0  0  0  0  0  0  0  0  0
  -29.3584  -24.3253   21.9207 C   0  0  0  0  0  0  0  0  0  0  0  0
  -26.6899  -23.9757   21.2113 C   0  0  0  0  0  0  0  0  0  0  0  0
  -21.4565  -20.8118   21.5394 C   0  0  0  0  0  0  0  0  0  0  0  0
  -16.3787  -24.4950   18.7387 C   0  0  0  0  0  0  0  0  0  0  0  0
  -16.5167  -22.3127   17.7113 C   0  0  0  0  0  0  0  0  0  0  0  0
  -27.4489  -29.1703   20.7946 C   0  0  0  0  0  0  0  0  0  0  0  0
  -26.0919  -30.1311   19.0418 C   0  0  0  0  0  0  0  0  0  0  0  0
  -20.2754  -20.8733   20.8012 C   0  0  0  0  0  0  0  0  0  0  0  0
  -28.7500  -27.4200   18.2123 C   0  0  0  0  0  0  0  0  0  0  0  0
  -29.5855  -26.3045   18.1572 C   0  0  0  0  0  0  0  0  0  0  0  0
  -21.0637  -19.0736   19.4016 C   0  0  0  0  0  0  0  0  0  0  0  0
  -31.4287  -27.6453   18.9583 C   0  0  0  0  0  0  0  0  0  0  0  0
  -25.0905  -29.5452   21.1610 C   0  0  0  0  0  0  0  0  0  0  0  0
  -23.4742  -30.4573   22.9113 C   0  0  0  0  0  0  0  0  0  0  0  0
  -28.9949  -23.2218   21.1328 C   0  0  0  0  0  0  0  0  0  0  0  0
  -22.4564  -19.8866   21.2070 C   0  0  0  0  0  0  0  0  0  0  0  0
  -27.6470  -23.0490   20.7643 C   0  0  0  0  0  0  0  0  0  0  0  0
  -22.2555  -19.0007   20.1388 C   0  0  0  0  0  0  0  0  0  0  0  0
  -16.3965  -23.9018   20.0011 C   0  0  0  0  0  0  0  0  0  0  0  0
  -16.5346  -21.7195   18.9737 C   0  0  0  0  0  0  0  0  0  0  0  0
  -27.3304  -29.6858   19.5040 C   0  0  0  0  0  0  0  0  0  0  0  0
  -20.0801  -20.0061   19.7303 C   0  0  0  0  0  0  0  0  0  0  0  0
  -29.2539  -28.6483   18.6404 C   0  0  0  0  0  0  0  0  0  0  0  0
  -30.9248  -26.4171   18.5302 C   0  0  0  0  0  0  0  0  0  0  0  0
  -30.5933  -28.7609   19.0134 C   0  0  0  0  0  0  0  0  0  0  0  0
  -16.4744  -22.5141   20.1185 C   0  0  0  0  0  0  0  0  0  0  0  0
  -23.9332  -29.4724   22.0163 C   0  0  0  0  0  0  0  0  0  0  0  0
  -22.3506  -29.9084   23.4792 C   0  0  0  0  0  0  0  0  0  0  0  0
  -24.0151  -31.7527   23.2031 C   0  0  0  0  0  0  0  0  0  0  0  0
  -25.4819  -20.0983   20.2556 C   0  0  0  0  0  0  0  0  0  0  0  0
  -25.4021  -16.8719   20.5808 C   0  0  0  0  0  0  0  0  0  0  0  0
  -23.5402  -14.0127   20.6560 C   0  0  0  0  0  0  0  0  0  0  0  0
  -18.5417  -25.8425   21.5257 C   0  0  0  0  0  0  0  0  0  0  0  0
  -30.0759  -22.2891   20.6470 C   0  0  0  0  0  0  0  0  0  0  0  0
  -23.7134  -19.8149   22.0299 C   0  0  0  0  0  0  0  0  0  0  0  0
  -23.2893  -17.9753   19.7538 C   0  0  0  0  0  0  0  0  0  0  0  0
  -29.5422  -20.9576   20.1249 C   0  0  0  0  0  0  0  0  0  0  0  0
  -20.4136  -25.6826   24.6189 C   0  0  0  0  0  0  0  0  0  0  0  0
  -28.3572  -21.1863   19.1921 C   0  0  0  0  0  0  0  0  0  0  0  0
  -21.4911  -26.7413   24.3773 C   0  0  0  0  0  0  0  0  0  0  0  0
  -20.1008  -24.9106   23.3405 C   0  0  0  0  0  0  0  0  0  0  0  0
  -20.7788  -26.8240   21.9431 C   0  0  0  0  0  0  0  0  0  0  0  0
  -27.1988  -21.8693   19.9291 C   0  0  1  0  0  0  0  0  0  0  0  0
  -24.8817  -19.1798   21.2821 C   0  0  1  0  0  0  0  0  0  0  0  0
  -21.1239  -27.6545   23.1926 C   0  0  2  0  0  0  0  0  0  0  0  0
  -23.7598  -11.5249   20.9004 C   0  0  0  0  0  0  0  0  0  0  0  0
  -26.4250  -16.6828   17.7124 C   0  0  0  0  0  0  0  0  0  0  0  0
  -25.7262  -14.2787   17.6955 C   0  0  0  0  0  0  0  0  0  0  0  0
  -27.4688  -15.0579   19.3014 C   0  0  0  0  0  0  0  0  0  0  0  0
  -21.8763  -13.9897   23.1034 C   0  0  0  0  0  0  0  0  0  0  0  0
  -16.3319  -24.7552   21.2224 C   0  0  0  0  0  0  0  0  0  0  0  0
  -16.6189  -20.2212   19.0955 C   0  0  0  0  0  0  0  0  0  0  0  0
  -25.0561  -15.7143   19.6756 C   0  0  1  0  0  0  0  0  0  0  0  0
  -23.5294  -12.8428   21.6233 C   0  0  2  0  0  0  0  0  0  0  0  0
  -26.1502  -15.4539   18.6020 C   0  0  0  0  0  0  0  0  0  0  0  0
  -23.1641  -28.3804   22.0125 N   0  0  0  0  0  0  0  0  0  0  0  0
  -22.2105  -28.6759   22.9122 N   0  0  0  0  0  0  0  0  0  0  0  0
  -24.5043  -17.9487   20.5849 N   0  0  0  0  0  0  0  0  0  0  0  0
  -19.7408  -25.8366   22.2574 N   0  0  0  0  0  0  0  0  0  0  0  0
  -21.4786  -30.3645   24.4033 N   0  0  0  0  0  0  0  0  0  0  0  0
  -25.1748  -32.1597   22.5294 N   0  0  0  0  0  0  0  0  0  0  0  0
  -26.4853  -20.9118   20.7466 N   0  0  0  0  0  0  0  0  0  0  0  0
  -24.7942  -14.5764   20.5501 N   0  0  0  0  0  0  0  0  0  0  0  0
  -17.6141  -24.8708   21.8809 N   0  0  0  0  0  0  0  0  0  0  0  0
  -17.7778  -19.8050   19.8724 N   0  0  0  0  0  0  0  0  0  1  0  0
  -22.2201  -12.7681   22.3311 N   0  3  0  0  0  0  0  0  0  0  0  0
  -23.4951  -32.5196   24.0486 O   0  0  0  0  0  0  0  0  0  0  0  0
  -25.0665  -20.0700   19.1031 O   0  0  0  0  0  0  0  0  0  0  0  0
  -26.4274  -16.8193   21.2646 O   0  0  0  0  0  0  0  0  0  0  0  0
  -22.5375  -14.3866   20.0517 O   0  0  0  0  0  0  0  0  0  0  0  0
  -18.3120  -26.6573   20.6255 O   0  0  0  0  0  0  0  0  0  0  0  0
  -28.4230  -29.7547   18.6953 O   0  0  0  0  0  0  0  0  0  0  0  0
  -18.9285  -20.0644   19.0076 O   0  0  0  0  0  0  0  0  0  1  0  0
  -31.7266  -25.3453   18.4787 F   0  0  0  0  0  0  0  0  0  0  0  0
  -31.0828  -29.9380   19.4266 F   0  0  0  0  0  0  0  0  0  0  0  0
  -16.4931  -21.9438   21.3325 F   0  0  0  0  0  0  0  0  0  0  0  0
  1  2  1  0  0  0  0
  1  6  2  0  0  0  0
  2  7  2  0  0  0  0
  3  9  1  0  0  0  0
  3 10  2  0  0  0  0
  4 11  2  0  0  0  0
  4 18  1  0  0  0  0
  5 12  1  0  0  0  0
  5 18  2  0  0  0  0
  6 20  1  0  0  0  0
  7 22  1  0  0  0  0
  8 13  2  0  0  0  0
  8 21  1  0  0  0  0
  9 24  2  0  0  0  0
 10 25  1  0  0  0  0
 11 26  1  0  0  0  0
 12 26  2  0  0  0  0
 13 27  1  0  0  0  0
 14 15  2  0  0  0  0
 14 28  1  0  0  0  0
 15 29  1  0  0  0  0
 16 23  1  0  0  0  0
 16 27  2  0  0  0  0
 17 29  2  0  0  0  0
 17 30  1  0  0  0  0
 18 32  1  0  0  0  0
 19 32  1  0  0  0  0
 19 33  2  0  0  0  0
 19 34  1  0  0  0  0
 20 22  2  0  0  0  0
 20 39  1  0  0  0  0
 21 23  2  0  0  0  0
 21 40  1  0  0  0  0
 22 48  1  0  0  0  0
 23 41  1  0  0  0  0
 24 31  1  0  0  0  0
 24 56  1  0  0  0  0
 25 31  2  0  0  0  0
 25 57  1  0  0  0  0
 26 77  1  0  0  0  0
 27 78  1  0  0  0  0
 28 30  2  0  0  0  0
 28 77  1  0  0  0  0
 29 79  1  0  0  0  0
 30 80  1  0  0  0  0
 31 81  1  0  0  0  0
 32 61  2  0  0  0  0
 33 62  1  0  0  0  0
 33 65  1  0  0  0  0
 34 66  1  0  0  0  0
 34 72  2  0  0  0  0
 35 49  1  0  0  0  0
 35 67  1  0  0  0  0
 35 73  2  0  0  0  0
 36 58  1  0  0  0  0
 36 63  1  0  0  0  0
 36 74  2  0  0  0  0
 37 59  1  0  0  0  0
 37 68  1  0  0  0  0
 37 75  2  0  0  0  0
 38 64  1  0  0  0  0
 38 69  1  0  0  0  0
 38 76  2  0  0  0  0
 39 42  1  0  0  0  0
 40 49  1  0  0  0  0
 41 63  1  0  0  0  0
 42 44  1  0  0  0  0
 43 45  1  0  0  0  0
 43 46  1  0  0  0  0
 44 48  1  0  0  0  0
 45 50  1  0  0  0  0
 46 64  1  0  0  0  0
 47 50  1  0  0  0  0
 47 64  1  0  0  0  0
 48 67  1  0  0  0  0
 49 63  1  0  0  0  0
 50 62  1  0  0  0  0
 51 59  1  0  0  0  0
 52 60  1  0  0  0  0
 53 60  1  0  0  0  0
 54 60  1  0  0  0  0
 55 71  1  0  0  0  0
 56 69  1  0  0  0  0
 57 70  1  0  0  0  0
 58 60  1  0  0  0  0
 58 68  1  0  0  0  0
 59 71  1  0  0  0  0
 61 62  1  0  0  0  0
 70 78  1  0  0  0  0
M  CHG  1  71   1
M  ISO  4  38 100  69 100  70 101  78 101
M  END
> <Batch ID>
0007

> <Smiles>
CNC(C)C(=O)NC(C(=O)N1Cc2cc([101O:1][101NH:1]Cc3cccc(C[100NH:0][100C:0](=O)N4CCCC(n5nc(-c6ccc(Oc7ccc(F)cc7F)cc6)c(C(N)=O)c5N)C4)c3F)ccc2CC1C(=O)NC1CCCc2ccccc21)C(C)(C)C

> <Shape>
0.195

> <Color>
0.064

> <Negative vol penalty>
0.000

$$$$

  -OEChem-04042320323D

 81 89  0     1  0  0  0  0  0999 V2000
  -17.7155  -33.3419   18.0836 C   0  0  0  0  0  0  0  0  0  0  0  0
  -18.9138  -32.9824   17.4751 C   0  0  0  0  0  0  0  0  0  0  0  0
  -24.8012  -10.2786   22.6259 C   0  0  0  0  0  0  0  0  0  0  0  0
  -24.4888  -11.7693   24.5013 C   0  0  0  0  0  0  0  0  0  0  0  0
  -17.7254  -33.9232   19.3508 C   0  0  0  0  0  0  0  0  0  0  0  0
  -20.1229  -33.2051   18.1332 C   0  0  0  0  0  0  0  0  0  0  0  0
  -24.6112  -27.7615   19.5870 C   0  0  0  0  0  0  0  0  0  0  0  0
  -29.5131  -20.7821   21.9189 C   0  0  0  0  0  0  0  0  0  0  0  0
  -24.3855   -9.2034   23.4112 C   0  0  0  0  0  0  0  0  0  0  0  0
  -24.0729  -10.6941   25.2866 C   0  0  0  0  0  0  0  0  0  0  0  0
  -25.6185  -26.8047   19.7133 C   0  0  0  0  0  0  0  0  0  0  0  0
  -29.3851  -22.1504   22.1577 C   0  0  0  0  0  0  0  0  0  0  0  0
  -21.4645   -7.9153   24.5255 C   0  0  0  0  0  0  0  0  0  0  0  0
  -20.5567   -7.0164   23.9656 C   0  0  0  0  0  0  0  0  0  0  0  0
  -27.0248  -28.4182   20.8389 C   0  0  0  0  0  0  0  0  0  0  0  0
  -27.1423  -20.6374   21.4769 C   0  0  0  0  0  0  0  0  0  0  0  0
  -22.1505   -5.2245   24.2582 C   0  0  0  0  0  0  0  0  0  0  0  0
  -24.8529  -11.5615   23.1710 C   0  0  0  0  0  0  0  0  0  0  0  0
  -24.4755  -13.5061   21.5635 C   0  0  0  0  0  0  0  0  0  0  0  0
  -18.9346  -34.1443   20.0288 C   0  0  0  0  0  0  0  0  0  0  0  0
  -24.8012  -29.0475   20.1004 C   0  0  0  0  0  0  0  0  0  0  0  0
  -20.1490  -33.7912   19.4101 C   0  0  0  0  0  0  0  0  0  0  0  0
  -26.0146  -29.3772   20.7264 C   0  0  0  0  0  0  0  0  0  0  0  0
  -28.3917  -20.0256   21.5784 C   0  0  0  0  0  0  0  0  0  0  0  0
  -24.0213   -9.4111   24.7416 C   0  0  0  0  0  0  0  0  0  0  0  0
  -26.8224  -27.1323   20.3375 C   0  0  0  0  0  0  0  0  0  0  0  0
  -22.7154   -7.4688   24.9517 C   0  0  0  0  0  0  0  0  0  0  0  0
  -28.1357  -22.7621   22.0562 C   0  0  0  0  0  0  0  0  0  0  0  0
  -20.8997   -5.6710   23.8320 C   0  0  0  0  0  0  0  0  0  0  0  0
  -27.0143  -22.0057   21.7158 C   0  0  0  0  0  0  0  0  0  0  0  0
  -23.0584   -6.1234   24.8181 C   0  0  0  0  0  0  0  0  0  0  0  0
  -25.2829  -12.6725   22.3604 C   0  0  0  0  0  0  0  0  0  0  0  0
  -25.3542  -14.3993   21.0010 C   0  0  0  0  0  0  0  0  0  0  0  0
  -23.0579  -13.4758   21.3509 C   0  0  0  0  0  0  0  0  0  0  0  0
  -23.3724  -32.4735   20.6455 C   0  0  0  0  0  0  0  0  0  0  0  0
  -24.8881  -31.7227   23.2046 C   0  0  0  0  0  0  0  0  0  0  0  0
  -26.3005  -30.3471   25.9886 C   0  0  0  0  0  0  0  0  0  0  0  0
  -29.6878  -17.8733   21.3941 C   0  0  0  0  0  0  0  0  0  0  0  0
  -18.8980  -34.8190   21.3772 C   0  0  0  0  0  0  0  0  0  0  0  0
  -23.7676  -30.1278   19.9324 C   0  0  0  0  0  0  0  0  0  0  0  0
  -26.1880  -30.7830   21.2329 C   0  0  0  0  0  0  0  0  0  0  0  0
  -20.1981  -34.6777   22.1645 C   0  0  0  0  0  0  0  0  0  0  0  0
  -30.4150  -14.4228   20.9013 C   0  0  0  0  0  0  0  0  0  0  0  0
  -21.3979  -34.9814   21.2727 C   0  0  0  0  0  0  0  0  0  0  0  0
  -29.0782  -13.7284   21.1714 C   0  0  0  0  0  0  0  0  0  0  0  0
  -30.6319  -15.6163   21.8299 C   0  0  0  0  0  0  0  0  0  0  0  0
  -28.2019  -15.9022   22.1169 C   0  0  0  0  0  0  0  0  0  0  0  0
  -21.4794  -33.9940   20.1023 C   0  0  1  0  0  0  0  0  0  0  0  0
  -23.7025  -31.0923   21.1301 C   0  0  1  0  0  0  0  0  0  0  0  0
  -27.9093  -14.7331   21.1623 C   0  0  2  0  0  0  0  0  0  0  0  0
  -26.8460  -30.8668   28.3823 C   0  0  0  0  0  0  0  0  0  0  0  0
  -27.2368  -33.4417   22.2923 C   0  0  0  0  0  0  0  0  0  0  0  0
  -28.2509  -33.1347   24.5607 C   0  0  0  0  0  0  0  0  0  0  0  0
  -26.0517  -34.2882   24.3254 C   0  0  0  0  0  0  0  0  0  0  0  0
  -24.5818  -28.1504   26.9783 C   0  0  0  0  0  0  0  0  0  0  0  0
  -28.6649  -26.3010   21.5911 C   0  0  0  0  0  0  0  0  0  1  0  0
  -29.1408  -24.9163   21.9857 C   0  0  0  0  0  0  0  0  0  0  0  0
  -26.1840  -31.7882   23.9726 C   0  0  1  0  0  0  0  0  0  0  0  0
  -25.8232  -30.2708   27.4276 C   0  0  2  0  0  0  0  0  0  0  0  0
  -26.9242  -33.1407   23.7717 C   0  0  0  0  0  0  0  0  0  0  0  0
  -26.5752  -13.0063   22.3111 N   0  0  0  0  0  0  0  0  0  0  0  0
  -26.5866  -14.0595   21.4764 N   0  0  0  0  0  0  0  0  0  0  0  0
  -24.9536  -31.2347   21.8939 N   0  0  0  0  0  0  0  0  0  0  0  0
  -29.4868  -16.5270   21.7655 N   0  0  0  0  0  0  0  0  0  0  0  0
  -25.1853  -15.4344   20.1511 N   0  0  0  0  0  0  0  0  0  0  0  0
  -22.3048  -12.4921   22.0063 N   0  0  0  0  0  0  0  0  0  0  0  0
  -28.5216  -18.6356   21.3358 N   0  0  0  0  0  0  0  0  0  0  0  0
  -22.0175  -32.7263   20.5470 N   0  0  0  0  0  0  0  0  0  0  0  0
  -25.8510  -31.4898   25.3613 N   0  0  0  0  0  0  0  0  0  0  0  0
  -25.5846  -28.8529   27.8197 N   0  3  0  0  0  0  0  0  0  0  0  0
  -22.4784  -14.2864   20.5889 O   0  0  0  0  0  0  0  0  0  0  0  0
  -24.2795  -33.2539   20.3813 O   0  0  0  0  0  0  0  0  0  0  0  0
  -23.8455  -32.0986   23.7477 O   0  0  0  0  0  0  0  0  0  0  0  0
  -27.0049  -29.4816   25.4736 O   0  0  0  0  0  0  0  0  0  0  0  0
  -30.8084  -18.3104   21.1197 O   0  0  0  0  0  0  0  0  0  0  0  0
  -23.6153   -8.3622   25.5081 O   0  0  0  0  0  0  0  0  0  0  0  0
  -27.7998  -26.1921   20.4615 O   0  0  0  0  0  0  0  0  0  1  0  0
  -28.0119  -24.1064   22.2905 O   0  0  0  0  0  0  0  0  0  0  0  0
  -20.0272   -4.8077   23.2957 F   0  0  0  0  0  0  0  0  0  0  0  0
  -25.8115  -22.5881   21.6156 F   0  0  0  0  0  0  0  0  0  0  0  0
  -24.2582   -5.6883   25.2268 F   0  0  0  0  0  0  0  0  0  0  0  0
  1  2  1  0  0  0  0
  1  5  2  0  0  0  0
  2  6  2  0  0  0  0
  3  9  2  0  0  0  0
  3 18  1  0  0  0  0
  4 10  1  0  0  0  0
  4 18  2  0  0  0  0
  5 20  1  0  0  0  0
  6 22  1  0  0  0  0
  7 11  2  0  0  0  0
  7 21  1  0  0  0  0
  8 12  2  0  0  0  0
  8 24  1  0  0  0  0
  9 25  1  0  0  0  0
 10 25  2  0  0  0  0
 11 26  1  0  0  0  0
 12 28  1  0  0  0  0
 13 14  2  0  0  0  0
 13 27  1  0  0  0  0
 14 29  1  0  0  0  0
 15 23  1  0  0  0  0
 15 26  2  0  0  0  0
 16 24  2  0  0  0  0
 16 30  1  0  0  0  0
 17 29  2  0  0  0  0
 17 31  1  0  0  0  0
 18 32  1  0  0  0  0
 19 32  1  0  0  0  0
 19 33  2  0  0  0  0
 19 34  1  0  0  0  0
 20 22  2  0  0  0  0
 20 39  1  0  0  0  0
 21 23  2  0  0  0  0
 21 40  1  0  0  0  0
 22 48  1  0  0  0  0
 23 41  1  0  0  0  0
 24 67  1  0  0  0  0
 25 76  1  0  0  0  0
 26 77  1  0  0  0  0
 27 31  2  0  0  0  0
 27 76  1  0  0  0  0
 28 30  2  0  0  0  0
 28 78  1  0  0  0  0
 29 79  1  0  0  0  0
 30 80  1  0  0  0  0
 31 81  1  0  0  0  0
 32 61  2  0  0  0  0
 33 62  1  0  0  0  0
 33 65  1  0  0  0  0
 34 66  1  0  0  0  0
 34 71  2  0  0  0  0
 35 49  1  0  0  0  0
 35 68  1  0  0  0  0
 35 72  2  0  0  0  0
 36 58  1  0  0  0  0
 36 63  1  0  0  0  0
 36 73  2  0  0  0  0
 37 59  1  0  0  0  0
 37 69  1  0  0  0  0
 37 74  2  0  0  0  0
 38 64  1  0  0  0  0
 38 67  1  0  0  0  0
 38 75  2  0  0  0  0
 39 42  1  0  0  0  0
 40 49  1  0  0  0  0
 41 63  1  0  0  0  0
 42 44  1  0  0  0  0
 43 45  1  0  0  0  0
 43 46  1  0  0  0  0
 44 48  1  0  0  0  0
 45 50  1  0  0  0  0
 46 64  1  0  0  0  0
 47 50  1  0  0  0  0
 47 64  1  0  0  0  0
 48 68  1  0  0  0  0
 49 63  1  0  0  0  0
 50 62  1  0  0  0  0
 51 59  1  0  0  0  0
 52 60  1  0  0  0  0
 53 60  1  0  0  0  0
 54 60  1  0  0  0  0
 55 70  1  0  0  0  0
 56 57  1  0  0  0  0
 56 77  1  0  0  0  0
 57 78  1  0  0  0  0
 58 60  1  0  0  0  0
 58 69  1  0  0  0  0
 59 70  1  0  0  0  0
 61 62  1  0  0  0  0
M  CHG  1  70   1
M  ISO  4  38 100  56 101  67 100  77 101
M  END
> <Batch ID>
0007

> <Smiles>
CNC(C)C(=O)NC(C(=O)N1Cc2cc([101O:1][101CH2:1]COc3ccc([100NH:0][100C:0](=O)N4CCCC(n5nc(-c6ccc(Oc7ccc(F)cc7F)cc6)c(C(N)=O)c5N)C4)cc3F)ccc2CC1C(=O)NC1CCCc2ccccc21)C(C)(C)C

> <Shape>
0.265

> <Color>
0.145

> <Negative vol penalty>
0.000

$$$$

  -OEChem-04042320323D

 87 96  0     1  0  0  0  0  0999 V2000
  -20.3210  -24.4373   24.2351 C   0  0  0  0  0  0  0  0  0  0  0  0
  -21.4058  -24.5834   23.3765 C   0  0  0  0  0  0  0  0  0  0  0  0
  -23.3197   -9.1211   19.5351 C   0  0  0  0  0  0  0  0  0  0  0  0
  -24.5109   -9.1515   21.6368 C   0  0  0  0  0  0  0  0  0  0  0  0
  -19.2987  -25.3854   24.2324 C   0  0  0  0  0  0  0  0  0  0  0  0
  -21.4684  -25.6771   22.5137 C   0  0  0  0  0  0  0  0  0  0  0  0
  -26.0521  -27.8284   22.4333 C   0  0  0  0  0  0  0  0  0  0  0  0
  -27.1605  -23.5957   19.0916 C   0  0  0  0  0  0  0  0  0  0  0  0
  -22.1975   -8.5996   20.1787 C   0  0  0  0  0  0  0  0  0  0  0  0
  -23.3886   -8.6300   22.2804 C   0  0  0  0  0  0  0  0  0  0  0  0
  -27.0415  -27.1913   21.6857 C   0  0  0  0  0  0  0  0  0  0  0  0
  -27.1882  -24.9896   19.1364 C   0  0  0  0  0  0  0  0  0  0  0  0
  -21.9057   -5.6142   22.6505 C   0  0  0  0  0  0  0  0  0  0  0  0
  -22.1038   -4.5718   23.5559 C   0  0  0  0  0  0  0  0  0  0  0  0
  -26.6819  -28.7573   19.8864 C   0  0  0  0  0  0  0  0  0  0  0  0
  -29.3741  -23.5208   20.0564 C   0  0  0  0  0  0  0  0  0  0  0  0
  -21.1577   -5.9243   25.3202 C   0  0  0  0  0  0  0  0  0  0  0  0
  -24.4765   -9.3970   20.2642 C   0  0  0  0  0  0  0  0  0  0  0  0
  -26.3656   -9.3442   18.5507 C   0  0  0  0  0  0  0  0  0  0  0  0
  -19.3535  -26.4963   23.3760 C   0  0  0  0  0  0  0  0  0  0  0  0
  -25.3614  -28.9300   21.9078 C   0  0  0  0  0  0  0  0  0  0  0  0
  -20.4452  -26.6401   22.4985 C   0  0  0  0  0  0  0  0  0  0  0  0
  -25.6860  -29.4083   20.6303 C   0  0  0  0  0  0  0  0  0  0  0  0
  -29.4018  -24.9146   20.1013 C   0  0  0  0  0  0  0  0  0  0  0  0
  -28.2535  -22.8613   19.5516 C   0  0  0  0  0  0  0  0  0  0  0  0
  -22.2319   -8.3541   21.5513 C   0  0  0  0  0  0  0  0  0  0  0  0
  -27.3545  -27.6539   20.4109 C   0  0  0  0  0  0  0  0  0  0  0  0
  -28.3088  -25.6490   19.6412 C   0  0  0  0  0  0  0  0  0  1  0  0
  -21.3337   -6.8118   23.0800 C   0  0  0  0  0  0  0  0  0  0  0  0
  -21.7298   -4.7268   24.8907 C   0  0  0  0  0  0  0  0  0  0  0  0
  -20.9596   -6.9668   24.4148 C   0  0  0  0  0  0  0  0  0  0  0  0
  -25.6363   -9.9351   19.5998 C   0  0  0  0  0  0  0  0  0  0  0  0
  -27.3644  -10.2462   18.2762 C   0  0  0  0  0  0  0  0  0  0  0  0
  -26.1587   -8.0920   17.8837 C   0  0  0  0  0  0  0  0  0  0  0  0
  -22.3252  -29.5405   21.1922 C   0  0  0  0  0  0  0  0  0  0  0  0
  -23.4661  -32.5228   20.6206 C   0  0  0  0  0  0  0  0  0  0  0  0
  -26.1297  -34.5028   19.8260 C   0  0  0  0  0  0  0  0  0  0  0  0
  -27.5997  -16.1662   19.3493 C   0  0  0  0  0  0  0  0  0  0  0  0
  -18.2015  -27.4698   23.3753 C   0  0  0  0  0  0  0  0  0  0  0  0
  -24.3154  -29.6227   22.7375 C   0  0  0  0  0  0  0  0  0  0  0  0
  -24.9880  -30.5996   20.0287 C   0  0  0  0  0  0  0  0  0  0  0  0
  -18.5267  -28.7977   22.6961 C   0  0  0  0  0  0  0  0  0  0  0  0
  -29.1937  -13.3235   21.3882 C   0  0  0  0  0  0  0  0  0  0  0  0
  -19.2288  -28.5579   21.3634 C   0  0  0  0  0  0  0  0  0  0  0  0
  -29.2260  -12.3642   20.2022 C   0  0  0  0  0  0  0  0  0  0  0  0
  -27.1454  -19.3306   20.1147 C   0  0  0  0  0  0  0  0  0  0  0  0
  -29.4826  -19.3590   19.2177 C   0  0  0  0  0  0  0  0  0  0  0  0
  -29.0171  -14.7647   20.9200 C   0  0  0  0  0  0  0  0  0  0  0  0
  -26.9413  -20.7644   19.6253 C   0  0  0  0  0  0  0  0  0  0  0  0
  -29.2727  -20.7900   18.7247 C   0  0  0  0  0  0  0  0  0  0  0  0
  -27.1333  -13.7458   19.6411 C   0  0  0  0  0  0  0  0  0  0  0  0
  -20.5611  -27.8260   21.5655 C   0  0  1  0  0  0  0  0  0  0  0  0
  -23.3186  -30.4179   21.9001 C   0  0  1  0  0  0  0  0  0  0  0  0
  -28.0167  -12.5449   19.2590 C   0  0  2  0  0  0  0  0  0  0  0  0
  -28.1673  -18.5830   19.2604 C   0  0  0  0  0  0  0  0  0  0  0  0
  -26.7447  -36.8967   19.3923 C   0  0  0  0  0  0  0  0  0  0  0  0
  -22.1772  -32.3512   17.8603 C   0  0  0  0  0  0  0  0  0  0  0  0
  -23.5924  -34.2925   17.1555 C   0  0  0  0  0  0  0  0  0  0  0  0
  -21.9271  -34.5670   18.9924 C   0  0  0  0  0  0  0  0  0  0  0  0
  -28.0305  -34.5466   22.0941 C   0  0  0  0  0  0  0  0  0  0  0  0
  -24.0350  -33.2376   19.4188 C   0  0  1  0  0  0  0  0  0  0  0  0
  -26.6414  -35.7954   20.4359 C   0  0  2  0  0  0  0  0  0  0  0  0
  -30.6093  -25.6040   20.6453 C   0  0  0  0  0  0  0  0  0  0  0  0
  -22.9449  -33.5884   18.3670 C   0  0  0  0  0  0  0  0  0  0  0  0
  -26.1298  -11.1207   19.9670 N   0  0  0  0  0  0  0  0  0  0  0  0
  -27.1800  -11.2820   19.1441 N   0  0  0  0  0  0  0  0  0  0  0  0
  -28.2257  -21.4617   19.5057 N   0  0  0  0  0  0  0  0  0  0  0  0
  -23.9684  -31.2391   20.8766 N   0  0  0  0  0  0  0  0  0  0  0  0
  -27.9355  -14.9331   19.9412 N   0  0  0  0  0  0  0  0  0  0  0  0
  -28.3737  -10.2464   17.3797 N   0  0  0  0  0  0  0  0  0  0  0  0
  -25.0854   -7.2877   18.2905 N   0  0  0  0  0  0  0  0  0  0  0  0
  -21.5757  -28.7441   22.0369 N   0  0  0  0  0  0  0  0  0  0  0  0
  -24.7597  -34.3932   19.9365 N   0  0  0  0  0  0  0  0  0  0  0  0
  -28.3769  -17.2448   19.7640 N   0  0  0  0  0  0  0  0  0  0  0  0
  -27.9901  -35.5873   21.0347 N   0  3  0  0  0  0  0  0  0  0  0  0
  -26.9133   -7.6904   16.9657 O   0  0  0  0  0  0  0  0  0  0  0  0
  -22.2436  -29.5840   19.9703 O   0  0  0  0  0  0  0  0  0  0  0  0
  -22.6127  -33.0856   21.3110 O   0  0  0  0  0  0  0  0  0  0  0  0
  -26.8709  -33.6750   19.3007 O   0  0  0  0  0  0  0  0  0  0  0  0
  -26.6874  -16.2941   18.5272 O   0  0  0  0  0  0  0  0  0  0  0  0
  -21.1369   -7.8455   22.1797 O   0  0  0  0  0  0  0  0  0  0  0  0
  -28.3194  -27.0334   19.6788 O   0  0  0  0  0  0  0  0  0  1  0  0
  -21.9187   -3.7251   25.7596 F   0  0  0  0  0  0  0  0  0  0  0  0
  -20.4085   -8.1145   24.8330 F   0  0  0  0  0  0  0  0  0  0  0  0
  -31.5899  -24.7462   21.0538 F   0  0  0  0  0  0  0  0  0  0  0  0
  -31.2135  -26.4355   19.7467 F   0  0  0  0  0  0  0  0  0  0  0  0
  -30.3245  -26.3801   21.7305 F   0  0  0  0  0  0  0  0  0  0  0  0
  1  2  1  0  0  0  0
  1  5  2  0  0  0  0
  2  6  2  0  0  0  0
  3  9  2  0  0  0  0
  3 18  1  0  0  0  0
  4 10  1  0  0  0  0
  4 18  2  0  0  0  0
  5 20  1  0  0  0  0
  6 22  1  0  0  0  0
  7 11  2  0  0  0  0
  7 21  1  0  0  0  0
  8 12  2  0  0  0  0
  8 25  1  0  0  0  0
  9 26  1  0  0  0  0
 10 26  2  0  0  0  0
 11 27  1  0  0  0  0
 12 28  1  0  0  0  0
 13 14  2  0  0  0  0
 13 29  1  0  0  0  0
 14 30  1  0  0  0  0
 15 23  1  0  0  0  0
 15 27  2  0  0  0  0
 16 24  1  0  0  0  0
 16 25  2  0  0  0  0
 17 30  2  0  0  0  0
 17 31  1  0  0  0  0
 18 32  1  0  0  0  0
 19 32  1  0  0  0  0
 19 33  2  0  0  0  0
 19 34  1  0  0  0  0
 20 22  2  0  0  0  0
 20 39  1  0  0  0  0
 21 23  2  0  0  0  0
 21 40  1  0  0  0  0
 22 52  1  0  0  0  0
 23 41  1  0  0  0  0
 24 28  2  0  0  0  0
 24 63  1  0  0  0  0
 25 67  1  0  0  0  0
 26 81  1  0  0  0  0
 27 82  1  0  0  0  0
 28 82  1  0  0  0  0
 29 31  2  0  0  0  0
 29 81  1  0  0  0  0
 30 83  1  0  0  0  0
 31 84  1  0  0  0  0
 32 65  2  0  0  0  0
 33 66  1  0  0  0  0
 33 70  1  0  0  0  0
 34 71  1  0  0  0  0
 34 76  2  0  0  0  0
 35 53  1  0  0  0  0
 35 72  1  0  0  0  0
 35 77  2  0  0  0  0
 36 61  1  0  0  0  0
 36 68  1  0  0  0  0
 36 78  2  0  0  0  0
 37 62  1  0  0  0  0
 37 73  1  0  0  0  0
 37 79  2  0  0  0  0
 38 69  1  0  0  0  0
 38 74  1  0  0  0  0
 38 80  2  0  0  0  0
 39 42  1  0  0  0  0
 40 53  1  0  0  0  0
 41 68  1  0  0  0  0
 42 44  1  0  0  0  0
 43 45  1  0  0  0  0
 43 48  1  0  0  0  0
 44 52  1  0  0  0  0
 45 54  1  0  0  0  0
 46 49  1  0  0  0  0
 46 55  1  0  0  0  0
 47 50  1  0  0  0  0
 47 55  1  0  0  0  0
 48 69  1  0  0  0  0
 49 67  1  0  0  0  0
 50 67  1  0  0  0  0
 51 54  1  0  0  0  0
 51 69  1  0  0  0  0
 52 72  1  0  0  0  0
 53 68  1  0  0  0  0
 54 66  1  0  0  0  0
 55 74  1  0  0  0  0
 56 62  1  0  0  0  0
 57 64  1  0  0  0  0
 58 64  1  0  0  0  0
 59 64  1  0  0  0  0
 60 75  1  0  0  0  0
 61 64  1  0  0  0  0
 61 73  1  0  0  0  0
 62 75  1  0  0  0  0
 63 85  1  0  0  0  0
 63 86  1  0  0  0  0
 63 87  1  0  0  0  0
 65 66  1  0  0  0  0
M  CHG  1  75   1
M  ISO  4  28 101  38 100  74 100  82 101
M  END
> <Batch ID>
0007

> <Smiles>
CNC(C)C(=O)NC(C(=O)N1Cc2cc([101O:1][101c:1]3ccc(N4CCC([100NH:0][100C:0](=O)N5CCCC(n6nc(-c7ccc(Oc8ccc(F)cc8F)cc7)c(C(N)=O)c6N)C5)CC4)cc3C(F)(F)F)ccc2CC1C(=O)NC1CCCc2ccccc21)C(C)(C)C

> <Shape>
0.299

> <Color>
0.120

> <Negative vol penalty>
0.000

$$$$

  -OEChem-04042320323D

 88 96  0     1  0  0  0  0  0999 V2000
  -28.6290  -23.0720   18.7696 C   0  0  0  0  0  0  0  0  0  0  0  0
  -27.3823  -23.4248   19.2762 C   0  0  0  0  0  0  0  0  0  0  0  0
  -32.8216  -19.6190   18.5696 C   0  0  0  0  0  0  0  0  0  0  0  0
  -30.5274  -19.8524   17.8490 C   0  0  0  0  0  0  0  0  0  0  0  0
  -29.7824  -23.6592   19.2880 C   0  0  0  0  0  0  0  0  0  0  0  0
  -27.2884  -24.3642   20.3025 C   0  0  0  0  0  0  0  0  0  0  0  0
  -23.6261  -27.7666   19.4926 C   0  0  0  0  0  0  0  0  0  0  0  0
  -22.5120  -16.8364   19.4730 C   0  0  0  0  0  0  0  0  0  0  0  0
  -23.8508  -17.5680   21.3464 C   0  0  0  0  0  0  0  0  0  0  0  0
  -21.9601  -18.1131   19.3688 C   0  0  0  0  0  0  0  0  0  0  0  0
  -23.2989  -18.8448   21.2421 C   0  0  0  0  0  0  0  0  0  0  0  0
  -33.2433  -20.3646   17.4687 C   0  0  0  0  0  0  0  0  0  0  0  0
  -30.9490  -20.5980   16.7482 C   0  0  0  0  0  0  0  0  0  0  0  0
  -22.3160  -27.3653   19.7498 C   0  0  0  0  0  0  0  0  0  0  0  0
  -31.3906  -22.8688   13.9434 C   0  0  0  0  0  0  0  0  0  0  0  0
  -30.6846  -24.0324   13.6385 C   0  0  0  0  0  0  0  0  0  0  0  0
  -22.3919  -28.5016   21.8764 C   0  0  0  0  0  0  0  0  0  0  0  0
  -31.2310  -24.9336   15.8125 C   0  0  0  0  0  0  0  0  0  0  0  0
  -31.4637  -19.3629   18.7598 C   0  0  0  0  0  0  0  0  0  0  0  0
  -31.2222  -18.8989   21.2566 C   0  0  0  0  0  0  0  0  0  0  0  0
  -29.7019  -24.6134   20.3144 C   0  0  0  0  0  0  0  0  0  0  0  0
  -24.3339  -28.5305   20.4316 C   0  0  0  0  0  0  0  0  0  0  0  0
  -28.4419  -24.9636   20.8360 C   0  0  0  0  0  0  0  0  0  0  0  0
  -23.7100  -28.9135   21.6275 C   0  0  0  0  0  0  0  0  0  0  0  0
  -23.4574  -16.5638   20.4619 C   0  0  0  0  0  0  0  0  0  0  0  0
  -22.3535  -19.1174   20.2533 C   0  0  0  0  0  0  0  0  0  0  0  0
  -32.3070  -20.8541   16.5580 C   0  0  0  0  0  0  0  0  0  0  0  0
  -21.6996  -27.7303   20.9431 C   0  0  0  0  0  0  0  0  0  0  0  0
  -32.0168  -22.7375   15.1829 C   0  0  0  0  0  0  0  0  0  0  0  0
  -30.6048  -25.0649   14.5730 C   0  0  0  0  0  0  0  0  0  0  0  0
  -31.9370  -23.7699   16.1174 C   0  0  0  0  0  0  0  0  0  0  0  0
  -31.0276  -18.5923   19.8965 C   0  0  0  0  0  0  0  0  0  0  0  0
  -30.6253  -17.8620   21.9311 C   0  0  0  0  0  0  0  0  0  0  0  0
  -31.8833  -20.0208   21.8566 C   0  0  0  0  0  0  0  0  0  0  0  0
  -26.9821  -28.0992   22.1360 C   0  0  0  0  0  0  0  0  0  0  0  0
  -26.4676  -31.1854   22.9923 C   0  0  0  0  0  0  0  0  0  0  0  0
  -24.2546  -33.7544   23.3786 C   0  0  0  0  0  0  0  0  0  0  0  0
  -26.2434  -14.0450   20.4885 C   0  0  0  0  0  0  0  0  0  0  0  0
  -30.9796  -25.1858   20.8752 C   0  0  0  0  0  0  0  0  0  0  0  0
  -25.7374  -28.9780   20.1274 C   0  0  0  0  0  0  0  0  0  0  0  0
  -24.4195  -29.7501   22.6596 C   0  0  0  0  0  0  0  0  0  0  0  0
  -30.7682  -26.4495   21.7051 C   0  0  0  0  0  0  0  0  0  0  0  0
  -29.5624  -13.2192   21.4781 C   0  0  0  0  0  0  0  0  0  0  0  0
  -29.6101  -26.2606   22.6797 C   0  0  0  0  0  0  0  0  0  0  0  0
  -30.3318  -14.5303   21.3077 C   0  0  0  0  0  0  0  0  0  0  0  0
  -28.5053  -13.0397   20.3907 C   0  0  0  0  0  0  0  0  0  0  0  0
  -28.3347  -15.4784   20.0782 C   0  0  0  0  0  0  0  0  0  0  0  0
  -28.2974  -25.9970   21.9321 C   0  0  1  0  0  0  0  0  0  0  0  0
  -26.5401  -29.3196   21.3790 C   0  0  1  0  0  0  0  0  0  0  0  0
  -29.3740  -15.7305   21.1839 C   0  0  2  0  0  0  0  0  0  0  0  0
  -24.1228  -36.1444   24.1323 C   0  0  0  0  0  0  0  0  0  0  0  0
  -19.6979  -22.1001   23.6383 C   0  0  0  0  0  0  0  0  0  0  0  0
  -17.4642  -23.8680   20.9855 C   0  0  0  0  0  0  0  0  0  0  0  0
  -26.6321  -30.2750   25.8999 C   0  0  0  0  0  0  0  0  0  0  0  0
  -25.5720  -32.4432   26.5659 C   0  0  0  0  0  0  0  0  0  0  0  0
  -27.7867  -32.4404   25.4179 C   0  0  0  0  0  0  0  0  0  0  0  0
  -23.3335  -34.6643   20.7173 C   0  0  0  0  0  0  0  0  0  0  0  0
  -24.0479  -15.1991   20.5740 C   0  0  0  0  0  0  0  0  0  0  0  0
  -21.7607  -20.4909   20.1394 C   0  0  0  0  0  0  0  0  0  0  0  0
  -18.9458  -26.1171   22.6502 C   0  0  0  0  0  0  0  0  0  0  0  0
  -20.1954  -22.1564   21.1466 C   0  0  0  0  0  0  0  0  0  0  0  0
  -20.0626  -27.1385   22.5636 C   0  0  0  0  0  0  0  0  0  1  0  0
  -25.7057  -31.8753   24.0980 C   0  0  1  0  0  0  0  0  0  0  0  0
  -24.3148  -35.2091   22.9487 C   0  0  2  0  0  0  0  0  0  0  0  0
  -19.1248  -22.3456   22.2336 C   0  0  2  0  0  0  0  0  0  0  0  0
  -18.4213  -23.7239   22.1639 C   0  0  1  0  0  0  0  0  0  0  0  0
  -26.4111  -31.7411   25.4770 C   0  0  0  0  0  0  0  0  0  0  0  0
  -30.3594  -17.4499   19.7159 N   0  0  0  0  0  0  0  0  0  0  0  0
  -30.1291  -17.0296   20.9714 N   0  0  0  0  0  0  0  0  0  0  0  0
  -25.7926  -30.1575   22.3187 N   0  0  0  0  0  0  0  0  0  0  0  0
  -27.6287  -14.2116   20.3265 N   0  0  0  0  0  0  0  0  0  0  0  0
  -30.4818  -17.5902   23.2456 N   0  0  0  0  0  0  0  0  0  0  0  0
  -31.1272  -21.1641   22.1485 N   0  0  0  0  0  0  0  0  0  0  0  0
  -27.7636  -27.2313   21.3974 N   0  0  0  0  0  0  0  0  0  0  0  0
  -25.5078  -33.2526   23.6595 N   0  0  0  0  0  0  0  0  0  0  0  0
  -25.4856  -15.2077   20.4201 N   0  0  0  0  0  0  0  0  0  0  0  0
  -23.2516  -35.4969   21.9449 N   0  3  0  0  0  0  0  0  0  0  0  0
  -20.7573  -20.7822   21.1982 N   0  3  0  0  0  0  0  0  0  0  0  0
  -19.4156  -24.8279   22.0832 N   0  3  0  0  0  0  0  0  0  0  0  0
  -33.1117  -20.0157   22.1108 O   0  0  0  0  0  0  0  0  0  0  0  0
  -26.6407  -27.9564   23.3042 O   0  0  0  0  0  0  0  0  0  0  0  0
  -27.6167  -31.5500   22.7310 O   0  0  0  0  0  0  0  0  0  0  0  0
  -23.2008  -33.1273   23.4609 O   0  0  0  0  0  0  0  0  0  0  0  0
  -25.7212  -12.9426   20.6854 O   0  0  0  0  0  0  0  0  0  0  0  0
  -32.7180  -21.5819   15.4838 O   0  0  0  0  0  0  0  0  0  0  0  0
  -20.4211  -27.3394   21.1970 O   0  0  0  0  0  0  0  0  0  1  0  0
  -29.9280  -26.1829   14.2795 F   0  0  0  0  0  0  0  0  0  0  0  0
  -32.5376  -23.6500   17.3094 F   0  0  0  0  0  0  0  0  0  0  0  0
  1  2  1  0  0  0  0
  1  5  2  0  0  0  0
  2  6  2  0  0  0  0
  3 12  2  0  0  0  0
  3 19  1  0  0  0  0
  4 13  1  0  0  0  0
  4 19  2  0  0  0  0
  5 21  1  0  0  0  0
  6 23  1  0  0  0  0
  7 14  2  0  0  0  0
  7 22  1  0  0  0  0
  8 10  2  0  0  0  0
  8 25  1  0  0  0  0
  9 11  1  0  0  0  0
  9 25  2  0  0  0  0
 10 26  1  0  0  0  0
 11 26  2  0  0  0  0
 12 27  1  0  0  0  0
 13 27  2  0  0  0  0
 14 28  1  0  0  0  0
 15 16  2  0  0  0  0
 15 29  1  0  0  0  0
 16 30  1  0  0  0  0
 17 24  1  0  0  0  0
 17 28  2  0  0  0  0
 18 30  2  0  0  0  0
 18 31  1  0  0  0  0
 19 32  1  0  0  0  0
 20 32  1  0  0  0  0
 20 33  2  0  0  0  0
 20 34  1  0  0  0  0
 21 23  2  0  0  0  0
 21 39  1  0  0  0  0
 22 24  2  0  0  0  0
 22 40  1  0  0  0  0
 23 48  1  0  0  0  0
 24 41  1  0  0  0  0
 25 58  1  0  0  0  0
 26 59  1  0  0  0  0
 27 85  1  0  0  0  0
 28 86  1  0  0  0  0
 29 31  2  0  0  0  0
 29 85  1  0  0  0  0
 30 87  1  0  0  0  0
 31 88  1  0  0  0  0
 32 68  2  0  0  0  0
 33 69  1  0  0  0  0
 33 72  1  0  0  0  0
 34 73  1  0  0  0  0
 34 80  2  0  0  0  0
 35 49  1  0  0  0  0
 35 74  1  0  0  0  0
 35 81  2  0  0  0  0
 36 63  1  0  0  0  0
 36 70  1  0  0  0  0
 36 82  2  0  0  0  0
 37 64  1  0  0  0  0
 37 75  1  0  0  0  0
 37 83  2  0  0  0  0
 38 71  1  0  0  0  0
 38 76  1  0  0  0  0
 38 84  2  0  0  0  0
 39 42  1  0  0  0  0
 40 49  1  0  0  0  0
 41 70  1  0  0  0  0
 42 44  1  0  0  0  0
 43 45  1  0  0  0  0
 43 46  1  0  0  0  0
 44 48  1  0  0  0  0
 45 50  1  0  0  0  0
 46 71  1  0  0  0  0
 47 50  1  0  0  0  0
 47 71  1  0  0  0  0
 48 74  1  0  0  0  0
 49 70  1  0  0  0  0
 50 69  1  0  0  0  0
 51 64  1  0  0  0  0
 52 65  1  0  0  0  0
 53 66  1  0  0  0  0
 54 67  1  0  0  0  0
 55 67  1  0  0  0  0
 56 67  1  0  0  0  0
 57 77  1  0  0  0  0
 58 76  1  0  0  0  0
 59 78  1  0  0  0  0
 60 62  1  0  0  0  0
 60 79  1  0  0  0  0
 61 65  1  0  0  0  0
 61 78  1  0  0  0  0
 62 86  1  0  0  0  0
 63 67  1  0  0  0  0
 63 75  1  0  0  0  0
 64 77  1  0  0  0  0
 65 66  1  0  0  0  0
 66 79  1  0  0  0  0
 68 69  1  0  0  0  0
M  CHG  3  77   1  78   1  79   1
M  ISO  4  38 100  62 101  76 100  86 101
M  END
> <Batch ID>
0007

> <Smiles>
CNC(C)C(=O)NC(C(=O)N1Cc2cc([101O:1][101CH2:1]CNC(C)C(C)CNCc3ccc(C[100NH:0][100C:0](=O)N4CCCC(n5nc(-c6ccc(Oc7ccc(F)cc7F)cc6)c(C(N)=O)c5N)C4)cc3)ccc2CC1C(=O)NC1CCCc2ccccc21)C(C)(C)C

> <Shape>
0.252

> <Color>
0.073

> <Negative vol penalty>
0.000

$$$$

  -OEChem-04042320323D

 80 88  0     1  0  0  0  0  0999 V2000
  -40.5188  -26.0778   18.4892 C   0  0  0  0  0  0  0  0  0  0  0  0
  -39.7448  -25.0902   19.0900 C   0  0  0  0  0  0  0  0  0  0  0  0
  -23.0777   -9.8645   19.9438 C   0  0  0  0  0  0  0  0  0  0  0  0
  -23.8341   -9.8783   22.2382 C   0  0  0  0  0  0  0  0  0  0  0  0
  -40.3499  -27.4127   18.8544 C   0  0  0  0  0  0  0  0  0  0  0  0
  -38.8022  -25.4369   20.0573 C   0  0  0  0  0  0  0  0  0  0  0  0
  -33.3755  -22.7709   21.0314 C   0  0  0  0  0  0  0  0  0  0  0  0
  -30.4582  -18.3548   24.0317 C   0  0  0  0  0  0  0  0  0  0  0  0
  -29.8725  -17.4663   23.1299 C   0  0  0  0  0  0  0  0  0  0  0  0
  -22.3339   -8.7117   20.1959 C   0  0  0  0  0  0  0  0  0  0  0  0
  -23.0903   -8.7256   22.4904 C   0  0  0  0  0  0  0  0  0  0  0  0
  -32.9525  -21.8137   21.9526 C   0  0  0  0  0  0  0  0  0  0  0  0
  -19.8616   -7.9281   23.0903 C   0  0  0  0  0  0  0  0  0  0  0  0
  -19.1029   -7.8911   24.2602 C   0  0  0  0  0  0  0  0  0  0  0  0
  -32.1449  -23.5692   23.3967 C   0  0  0  0  0  0  0  0  0  0  0  0
  -32.0581  -16.6188   22.5453 C   0  0  0  0  0  0  0  0  0  0  0  0
  -20.3441   -5.9563   25.0040 C   0  0  0  0  0  0  0  0  0  0  0  0
  -23.8278  -10.4478   20.9649 C   0  0  0  0  0  0  0  0  0  0  0  0
  -24.1687  -12.9727   20.8382 C   0  0  0  0  0  0  0  0  0  0  0  0
  -39.3980  -27.7770   19.8197 C   0  0  0  0  0  0  0  0  0  0  0  0
  -33.1958  -24.1371   21.2913 C   0  0  0  0  0  0  0  0  0  0  0  0
  -38.6213  -26.7778   20.4367 C   0  0  0  0  0  0  0  0  0  0  0  0
  -32.5641  -24.5416   22.4760 C   0  0  0  0  0  0  0  0  0  0  0  0
  -31.8439  -18.3753   24.1902 C   0  0  0  0  0  0  0  0  0  0  0  0
  -30.6724  -16.5983   22.3867 C   0  0  0  0  0  0  0  0  0  0  0  0
  -22.3402   -8.1423   21.4692 C   0  0  0  0  0  0  0  0  0  0  0  0
  -32.3398  -22.2129   23.1368 C   0  0  0  0  0  0  0  0  0  0  0  0
  -20.8615   -6.9791   22.8772 C   0  0  0  0  0  0  0  0  0  0  0  0
  -19.3442   -6.9053   25.2171 C   0  0  0  0  0  0  0  0  0  0  0  0
  -32.6439  -17.5073   23.4471 C   0  0  0  0  0  0  0  0  0  0  0  0
  -21.1027   -5.9932   23.8341 C   0  0  0  0  0  0  0  0  0  0  0  0
  -24.5968  -11.6382   20.7050 C   0  0  0  0  0  0  0  0  0  0  0  0
  -25.2611  -13.7216   20.4745 C   0  0  0  0  0  0  0  0  0  0  0  0
  -22.8974  -13.4892   21.2538 C   0  0  0  0  0  0  0  0  0  0  0  0
  -35.1400  -26.6239   21.6652 C   0  0  0  0  0  0  0  0  0  0  0  0
  -32.3581  -28.2903   21.7461 C   0  0  0  0  0  0  0  0  0  0  0  0
  -28.9974  -28.2909   22.3399 C   0  0  0  0  0  0  0  0  0  0  0  0
  -30.7266  -14.7701   20.6544 C   0  0  0  0  0  0  0  0  0  0  0  0
  -39.2845  -29.2278   20.2160 C   0  0  0  0  0  0  0  0  0  0  0  0
  -33.6335  -25.1562   20.2752 C   0  0  0  0  0  0  0  0  0  0  0  0
  -32.3295  -25.9951   22.7932 C   0  0  0  0  0  0  0  0  0  0  0  0
  -38.0025  -29.5524   20.9786 C   0  0  0  0  0  0  0  0  0  0  0  0
  -29.6168  -12.3491   18.2913 C   0  0  0  0  0  0  0  0  0  0  0  0
  -37.7543  -28.5168   22.0707 C   0  0  0  0  0  0  0  0  0  0  0  0
  -28.1766  -12.0581   18.7196 C   0  0  0  0  0  0  0  0  0  0  0  0
  -30.5300  -12.5817   19.4937 C   0  0  0  0  0  0  0  0  0  0  0  0
  -28.6206  -13.3093   20.8700 C   0  0  0  0  0  0  0  0  0  0  0  0
  -37.5711  -27.1169   21.4722 C   0  0  1  0  0  0  0  0  0  0  0  0
  -33.8637  -26.5391   20.8768 C   0  0  1  0  0  0  0  0  0  0  0  0
  -27.6497  -13.1322   19.6912 C   0  0  2  0  0  0  0  0  0  0  0  0
  -27.0006  -29.8108   22.3591 C   0  0  0  0  0  0  0  0  0  0  0  0
  -33.2959  -29.4850   24.3924 C   0  0  0  0  0  0  0  0  0  0  0  0
  -30.9392  -30.2150   24.8180 C   0  0  0  0  0  0  0  0  0  0  0  0
  -32.1841  -31.1097   22.8502 C   0  0  0  0  0  0  0  0  0  0  0  0
  -27.6304  -26.7124   20.2427 C   0  0  0  0  0  0  0  0  0  0  0  0
  -32.4719  -19.3345   25.1661 C   0  0  0  0  0  0  0  0  0  0  0  0
  -31.3933  -28.7084   22.8294 C   0  0  1  0  0  0  0  0  0  0  0  0
  -27.8325  -28.8397   21.5359 C   0  0  2  0  0  0  0  0  0  0  0  0
  -31.9591  -29.8521   23.7177 C   0  0  0  0  0  0  0  0  0  0  0  0
  -25.8623  -11.5418   20.2888 N   0  0  0  0  0  0  0  0  0  0  0  0
  -26.2388  -12.8251   20.1574 N   0  0  0  0  0  0  0  0  0  0  0  0
  -32.7809  -26.9538   21.7711 N   0  0  0  0  0  0  0  0  0  0  0  0
  -29.9692  -13.6148   20.3673 N   0  0  0  0  0  0  0  0  0  0  0  0
  -25.4711  -15.0530   20.3980 N   0  0  0  0  0  0  0  0  0  0  0  0
  -21.8854  -12.5805   21.5921 N   0  0  0  0  0  0  0  0  0  0  0  0
  -30.0776  -15.6972   21.4692 N   0  0  0  0  0  0  0  0  0  0  0  0
  -36.2439  -26.9762   20.9125 N   0  0  0  0  0  0  0  0  0  0  0  0
  -30.1417  -29.0381   22.1563 N   0  0  0  0  0  0  0  0  0  0  0  0
  -33.0640  -20.4820   24.4935 N   0  0  0  0  0  0  0  0  0  1  0  0
  -26.9474  -27.7297   21.0827 N   0  3  0  0  0  0  0  0  0  0  0  0
  -22.6605  -14.7198   21.3073 O   0  0  0  0  0  0  0  0  0  0  0  0
  -35.1240  -26.3887   22.8678 O   0  0  0  0  0  0  0  0  0  0  0  0
  -32.7175  -29.1173   20.9043 O   0  0  0  0  0  0  0  0  0  0  0  0
  -28.9008  -27.3009   23.0617 O   0  0  0  0  0  0  0  0  0  0  0  0
  -31.8563  -14.9380   20.1880 O   0  0  0  0  0  0  0  0  0  0  0  0
  -21.6144   -7.0176   21.7156 O   0  0  0  0  0  0  0  0  0  0  0  0
  -31.9266  -21.2807   24.0380 O   0  0  0  0  0  0  0  0  0  1  0  0
  -18.6166   -6.8709   26.3411 F   0  0  0  0  0  0  0  0  0  0  0  0
  -33.9762  -17.5195   23.5926 F   0  0  0  0  0  0  0  0  0  0  0  0
  -22.0628   -5.0796   23.6355 F   0  0  0  0  0  0  0  0  0  0  0  0
  1  2  1  0  0  0  0
  1  5  2  0  0  0  0
  2  6  2  0  0  0  0
  3 10  2  0  0  0  0
  3 18  1  0  0  0  0
  4 11  1  0  0  0  0
  4 18  2  0  0  0  0
  5 20  1  0  0  0  0
  6 22  1  0  0  0  0
  7 12  2  0  0  0  0
  7 21  1  0  0  0  0
  8  9  2  0  0  0  0
  8 24  1  0  0  0  0
  9 25  1  0  0  0  0
 10 26  1  0  0  0  0
 11 26  2  0  0  0  0
 12 27  1  0  0  0  0
 13 14  2  0  0  0  0
 13 28  1  0  0  0  0
 14 29  1  0  0  0  0
 15 23  1  0  0  0  0
 15 27  2  0  0  0  0
 16 25  2  0  0  0  0
 16 30  1  0  0  0  0
 17 29  2  0  0  0  0
 17 31  1  0  0  0  0
 18 32  1  0  0  0  0
 19 32  1  0  0  0  0
 19 33  2  0  0  0  0
 19 34  1  0  0  0  0
 20 22  2  0  0  0  0
 20 39  1  0  0  0  0
 21 23  2  0  0  0  0
 21 40  1  0  0  0  0
 22 48  1  0  0  0  0
 23 41  1  0  0  0  0
 24 30  2  0  0  0  0
 24 56  1  0  0  0  0
 25 66  1  0  0  0  0
 26 76  1  0  0  0  0
 27 77  1  0  0  0  0
 28 31  2  0  0  0  0
 28 76  1  0  0  0  0
 29 78  1  0  0  0  0
 30 79  1  0  0  0  0
 31 80  1  0  0  0  0
 32 60  2  0  0  0  0
 33 61  1  0  0  0  0
 33 64  1  0  0  0  0
 34 65  1  0  0  0  0
 34 71  2  0  0  0  0
 35 49  1  0  0  0  0
 35 67  1  0  0  0  0
 35 72  2  0  0  0  0
 36 57  1  0  0  0  0
 36 62  1  0  0  0  0
 36 73  2  0  0  0  0
 37 58  1  0  0  0  0
 37 68  1  0  0  0  0
 37 74  2  0  0  0  0
 38 63  1  0  0  0  0
 38 66  1  0  0  0  0
 38 75  2  0  0  0  0
 39 42  1  0  0  0  0
 40 49  1  0  0  0  0
 41 62  1  0  0  0  0
 42 44  1  0  0  0  0
 43 45  1  0  0  0  0
 43 46  1  0  0  0  0
 44 48  1  0  0  0  0
 45 50  1  0  0  0  0
 46 63  1  0  0  0  0
 47 50  1  0  0  0  0
 47 63  1  0  0  0  0
 48 67  1  0  0  0  0
 49 62  1  0  0  0  0
 50 61  1  0  0  0  0
 51 58  1  0  0  0  0
 52 59  1  0  0  0  0
 53 59  1  0  0  0  0
 54 59  1  0  0  0  0
 55 70  1  0  0  0  0
 56 69  1  0  0  0  0
 57 59  1  0  0  0  0
 57 68  1  0  0  0  0
 58 70  1  0  0  0  0
 60 61  1  0  0  0  0
 69 77  1  0  0  0  0
M  CHG  1  70   1
M  ISO  4  38 100  66 100  69 101  77 101
M  END
> <Batch ID>
0007

> <Smiles>
CNC(C)C(=O)NC(C(=O)N1Cc2cc([101O:1][101NH:1]Cc3ccc([100NH:0][100C:0](=O)N4CCCC(n5nc(-c6ccc(Oc7ccc(F)cc7F)cc6)c(C(N)=O)c5N)C4)cc3F)ccc2CC1C(=O)NC1CCCc2ccccc21)C(C)(C)C

> <Shape>
0.197

> <Color>
0.205

> <Negative vol penalty>
0.000

$$$$

  -OEChem-04042320323D

 81 89  0     1  0  0  0  0  0999 V2000
  -17.7155  -33.3419   18.0836 C   0  0  0  0  0  0  0  0  0  0  0  0
  -18.9138  -32.9824   17.4751 C   0  0  0  0  0  0  0  0  0  0  0  0
  -24.8012  -10.2786   22.6259 C   0  0  0  0  0  0  0  0  0  0  0  0
  -24.4888  -11.7693   24.5013 C   0  0  0  0  0  0  0  0  0  0  0  0
  -17.7254  -33.9232   19.3508 C   0  0  0  0  0  0  0  0  0  0  0  0
  -20.1229  -33.2051   18.1332 C   0  0  0  0  0  0  0  0  0  0  0  0
  -24.6112  -27.7615   19.5870 C   0  0  0  0  0  0  0  0  0  0  0  0
  -29.5131  -20.7821   21.9189 C   0  0  0  0  0  0  0  0  0  0  0  0
  -24.3855   -9.2034   23.4112 C   0  0  0  0  0  0  0  0  0  0  0  0
  -24.0729  -10.6941   25.2866 C   0  0  0  0  0  0  0  0  0  0  0  0
  -25.6185  -26.8047   19.7133 C   0  0  0  0  0  0  0  0  0  0  0  0
  -29.3851  -22.1504   22.1577 C   0  0  0  0  0  0  0  0  0  0  0  0
  -21.4645   -7.9153   24.5255 C   0  0  0  0  0  0  0  0  0  0  0  0
  -20.5567   -7.0164   23.9656 C   0  0  0  0  0  0  0  0  0  0  0  0
  -27.0248  -28.4182   20.8389 C   0  0  0  0  0  0  0  0  0  0  0  0
  -27.1423  -20.6374   21.4769 C   0  0  0  0  0  0  0  0  0  0  0  0
  -22.1505   -5.2245   24.2582 C   0  0  0  0  0  0  0  0  0  0  0  0
  -24.8529  -11.5615   23.1710 C   0  0  0  0  0  0  0  0  0  0  0  0
  -24.4755  -13.5061   21.5635 C   0  0  0  0  0  0  0  0  0  0  0  0
  -18.9346  -34.1443   20.0288 C   0  0  0  0  0  0  0  0  0  0  0  0
  -24.8012  -29.0475   20.1004 C   0  0  0  0  0  0  0  0  0  0  0  0
  -20.1490  -33.7912   19.4101 C   0  0  0  0  0  0  0  0  0  0  0  0
  -26.0146  -29.3772   20.7264 C   0  0  0  0  0  0  0  0  0  0  0  0
  -28.3917  -20.0256   21.5784 C   0  0  0  0  0  0  0  0  0  0  0  0
  -24.0213   -9.4111   24.7416 C   0  0  0  0  0  0  0  0  0  0  0  0
  -26.8224  -27.1323   20.3375 C   0  0  0  0  0  0  0  0  0  0  0  0
  -22.7154   -7.4688   24.9517 C   0  0  0  0  0  0  0  0  0  0  0  0
  -28.1357  -22.7621   22.0562 C   0  0  0  0  0  0  0  0  0  0  0  0
  -20.8997   -5.6710   23.8320 C   0  0  0  0  0  0  0  0  0  0  0  0
  -27.0143  -22.0057   21.7158 C   0  0  0  0  0  0  0  0  0  0  0  0
  -23.0584   -6.1234   24.8181 C   0  0  0  0  0  0  0  0  0  0  0  0
  -25.2829  -12.6725   22.3604 C   0  0  0  0  0  0  0  0  0  0  0  0
  -25.3542  -14.3993   21.0010 C   0  0  0  0  0  0  0  0  0  0  0  0
  -23.0579  -13.4758   21.3509 C   0  0  0  0  0  0  0  0  0  0  0  0
  -23.3724  -32.4735   20.6455 C   0  0  0  0  0  0  0  0  0  0  0  0
  -24.8881  -31.7227   23.2046 C   0  0  0  0  0  0  0  0  0  0  0  0
  -26.3005  -30.3471   25.9886 C   0  0  0  0  0  0  0  0  0  0  0  0
  -29.6878  -17.8733   21.3941 C   0  0  0  0  0  0  0  0  0  0  0  0
  -18.8980  -34.8190   21.3772 C   0  0  0  0  0  0  0  0  0  0  0  0
  -23.7676  -30.1278   19.9324 C   0  0  0  0  0  0  0  0  0  0  0  0
  -26.1880  -30.7830   21.2329 C   0  0  0  0  0  0  0  0  0  0  0  0
  -20.1981  -34.6777   22.1645 C   0  0  0  0  0  0  0  0  0  0  0  0
  -30.4150  -14.4228   20.9013 C   0  0  0  0  0  0  0  0  0  0  0  0
  -21.3979  -34.9814   21.2727 C   0  0  0  0  0  0  0  0  0  0  0  0
  -29.0782  -13.7284   21.1714 C   0  0  0  0  0  0  0  0  0  0  0  0
  -30.6319  -15.6163   21.8299 C   0  0  0  0  0  0  0  0  0  0  0  0
  -28.2019  -15.9022   22.1169 C   0  0  0  0  0  0  0  0  0  0  0  0
  -21.4794  -33.9940   20.1023 C   0  0  1  0  0  0  0  0  0  0  0  0
  -23.7025  -31.0923   21.1301 C   0  0  1  0  0  0  0  0  0  0  0  0
  -27.9093  -14.7331   21.1623 C   0  0  2  0  0  0  0  0  0  0  0  0
  -26.8460  -30.8668   28.3823 C   0  0  0  0  0  0  0  0  0  0  0  0
  -27.2368  -33.4417   22.2923 C   0  0  0  0  0  0  0  0  0  0  0  0
  -28.2509  -33.1347   24.5607 C   0  0  0  0  0  0  0  0  0  0  0  0
  -26.0517  -34.2882   24.3254 C   0  0  0  0  0  0  0  0  0  0  0  0
  -24.5818  -28.1504   26.9783 C   0  0  0  0  0  0  0  0  0  0  0  0
  -28.6649  -26.3010   21.5911 C   0  0  0  0  0  0  0  0  0  1  0  0
  -29.1408  -24.9163   21.9857 C   0  0  0  0  0  0  0  0  0  0  0  0
  -26.1840  -31.7882   23.9726 C   0  0  1  0  0  0  0  0  0  0  0  0
  -25.8232  -30.2708   27.4276 C   0  0  2  0  0  0  0  0  0  0  0  0
  -26.9242  -33.1407   23.7717 C   0  0  0  0  0  0  0  0  0  0  0  0
  -26.5752  -13.0063   22.3111 N   0  0  0  0  0  0  0  0  0  0  0  0
  -26.5866  -14.0595   21.4764 N   0  0  0  0  0  0  0  0  0  0  0  0
  -24.9536  -31.2347   21.8939 N   0  0  0  0  0  0  0  0  0  0  0  0
  -29.4868  -16.5270   21.7655 N   0  0  0  0  0  0  0  0  0  0  0  0
  -25.1853  -15.4344   20.1511 N   0  0  0  0  0  0  0  0  0  0  0  0
  -22.3048  -12.4921   22.0063 N   0  0  0  0  0  0  0  0  0  0  0  0
  -28.5216  -18.6356   21.3358 N   0  0  0  0  0  0  0  0  0  0  0  0
  -22.0175  -32.7263   20.5470 N   0  0  0  0  0  0  0  0  0  0  0  0
  -25.8510  -31.4898   25.3613 N   0  0  0  0  0  0  0  0  0  0  0  0
  -25.5846  -28.8529   27.8197 N   0  3  0  0  0  0  0  0  0  0  0  0
  -22.4784  -14.2864   20.5889 O   0  0  0  0  0  0  0  0  0  0  0  0
  -24.2795  -33.2539   20.3813 O   0  0  0  0  0  0  0  0  0  0  0  0
  -23.8455  -32.0986   23.7477 O   0  0  0  0  0  0  0  0  0  0  0  0
  -27.0049  -29.4816   25.4736 O   0  0  0  0  0  0  0  0  0  0  0  0
  -30.8084  -18.3104   21.1197 O   0  0  0  0  0  0  0  0  0  0  0  0
  -23.6153   -8.3622   25.5081 O   0  0  0  0  0  0  0  0  0  0  0  0
  -27.7998  -26.1921   20.4615 O   0  0  0  0  0  0  0  0  0  1  0  0
  -28.0119  -24.1064   22.2905 O   0  0  0  0  0  0  0  0  0  0  0  0
  -20.0272   -4.8077   23.2957 F   0  0  0  0  0  0  0  0  0  0  0  0
  -25.8115  -22.5881   21.6156 F   0  0  0  0  0  0  0  0  0  0  0  0
  -24.2582   -5.6883   25.2268 F   0  0  0  0  0  0  0  0  0  0  0  0
  1  2  1  0  0  0  0
  1  5  2  0  0  0  0
  2  6  2  0  0  0  0
  3  9  2  0  0  0  0
  3 18  1  0  0  0  0
  4 10  1  0  0  0  0
  4 18  2  0  0  0  0
  5 20  1  0  0  0  0
  6 22  1  0  0  0  0
  7 11  2  0  0  0  0
  7 21  1  0  0  0  0
  8 12  2  0  0  0  0
  8 24  1  0  0  0  0
  9 25  1  0  0  0  0
 10 25  2  0  0  0  0
 11 26  1  0  0  0  0
 12 28  1  0  0  0  0
 13 14  2  0  0  0  0
 13 27  1  0  0  0  0
 14 29  1  0  0  0  0
 15 23  1  0  0  0  0
 15 26  2  0  0  0  0
 16 24  2  0  0  0  0
 16 30  1  0  0  0  0
 17 29  2  0  0  0  0
 17 31  1  0  0  0  0
 18 32  1  0  0  0  0
 19 32  1  0  0  0  0
 19 33  2  0  0  0  0
 19 34  1  0  0  0  0
 20 22  2  0  0  0  0
 20 39  1  0  0  0  0
 21 23  2  0  0  0  0
 21 40  1  0  0  0  0
 22 48  1  0  0  0  0
 23 41  1  0  0  0  0
 24 67  1  0  0  0  0
 25 76  1  0  0  0  0
 26 77  1  0  0  0  0
 27 31  2  0  0  0  0
 27 76  1  0  0  0  0
 28 30  2  0  0  0  0
 28 78  1  0  0  0  0
 29 79  1  0  0  0  0
 30 80  1  0  0  0  0
 31 81  1  0  0  0  0
 32 61  2  0  0  0  0
 33 62  1  0  0  0  0
 33 65  1  0  0  0  0
 34 66  1  0  0  0  0
 34 71  2  0  0  0  0
 35 49  1  0  0  0  0
 35 68  1  0  0  0  0
 35 72  2  0  0  0  0
 36 58  1  0  0  0  0
 36 63  1  0  0  0  0
 36 73  2  0  0  0  0
 37 59  1  0  0  0  0
 37 69  1  0  0  0  0
 37 74  2  0  0  0  0
 38 64  1  0  0  0  0
 38 67  1  0  0  0  0
 38 75  2  0  0  0  0
 39 42  1  0  0  0  0
 40 49  1  0  0  0  0
 41 63  1  0  0  0  0
 42 44  1  0  0  0  0
 43 45  1  0  0  0  0
 43 46  1  0  0  0  0
 44 48  1  0  0  0  0
 45 50  1  0  0  0  0
 46 64  1  0  0  0  0
 47 50  1  0  0  0  0
 47 64  1  0  0  0  0
 48 68  1  0  0  0  0
 49 63  1  0  0  0  0
 50 62  1  0  0  0  0
 51 59  1  0  0  0  0
 52 60  1  0  0  0  0
 53 60  1  0  0  0  0
 54 60  1  0  0  0  0
 55 70  1  0  0  0  0
 56 57  1  0  0  0  0
 56 77  1  0  0  0  0
 57 78  1  0  0  0  0
 58 60  1  0  0  0  0
 58 69  1  0  0  0  0
 59 70  1  0  0  0  0
 61 62  1  0  0  0  0
M  CHG  1  70   1
M  ISO  4  38 100  56 101  67 100  77 101
M  END
> <Batch ID>
0007

> <Smiles>
CNC(C)C(=O)NC(C(=O)N1Cc2cc([101O:1][101CH2:1]COc3ccc([100NH:0][100C:0](=O)N4CCCC(n5nc(-c6ccc(Oc7ccc(F)cc7F)cc6)c(C(N)=O)c5N)C4)cc3F)ccc2CC1C(=O)NC1CCCc2ccccc21)C(C)(C)C

> <Shape>
0.265

> <Color>
0.145

> <Negative vol penalty>
0.000

$$$$

  -OEChem-04042320323D

 82 90  0     1  0  0  0  0  0999 V2000
  -28.7056  -34.2817   19.8526 C   0  0  0  0  0  0  0  0  0  0  0  0
  -29.6920  -33.5960   20.5542 C   0  0  0  0  0  0  0  0  0  0  0  0
  -23.0680   -9.9276   19.9269 C   0  0  0  0  0  0  0  0  0  0  0  0
  -23.8409   -9.8994   22.2158 C   0  0  0  0  0  0  0  0  0  0  0  0
  -27.4514  -33.7011   19.6685 C   0  0  0  0  0  0  0  0  0  0  0  0
  -29.4244  -32.3298   21.0732 C   0  0  0  0  0  0  0  0  0  0  0  0
  -32.6248  -26.0713   22.4533 C   0  0  0  0  0  0  0  0  0  0  0  0
  -32.7630  -17.3871   23.4546 C   0  0  0  0  0  0  0  0  0  0  0  0
  -32.1426  -16.5273   22.5483 C   0  0  0  0  0  0  0  0  0  0  0  0
  -22.3133   -8.7795   20.1676 C   0  0  0  0  0  0  0  0  0  0  0  0
  -23.0861   -8.7513   22.4565 C   0  0  0  0  0  0  0  0  0  0  0  0
  -32.8066  -25.1607   23.4933 C   0  0  0  0  0  0  0  0  0  0  0  0
  -19.8531   -7.9807   23.0682 C   0  0  0  0  0  0  0  0  0  0  0  0
  -19.1024   -7.9350   24.2429 C   0  0  0  0  0  0  0  0  0  0  0  0
  -30.6294  -24.2236   23.0453 C   0  0  0  0  0  0  0  0  0  0  0  0
  -30.6071  -18.2737   24.0895 C   0  0  0  0  0  0  0  0  0  0  0  0
  -20.3272   -5.9760   24.9494 C   0  0  0  0  0  0  0  0  0  0  0  0
  -23.8319  -10.4875   20.9510 C   0  0  0  0  0  0  0  0  0  0  0  0
  -24.1999  -13.0101   20.8587 C   0  0  0  0  0  0  0  0  0  0  0  0
  -27.1714  -32.4230   20.1771 C   0  0  0  0  0  0  0  0  0  0  0  0
  -31.4374  -26.0719   21.7072 C   0  0  0  0  0  0  0  0  0  0  0  0
  -28.1648  -31.7321   20.8969 C   0  0  0  0  0  0  0  0  0  0  0  0
  -30.4361  -25.1334   21.9946 C   0  0  0  0  0  0  0  0  0  0  0  0
  -31.9952  -18.2603   24.2253 C   0  0  0  0  0  0  0  0  0  0  0  0
  -29.9866  -17.4139   23.1831 C   0  0  0  0  0  0  0  0  0  0  0  0
  -30.7544  -16.5408   22.4125 C   0  0  0  0  0  0  0  0  0  0  0  0
  -22.3223   -8.1914   21.4324 C   0  0  0  0  0  0  0  0  0  0  0  0
  -31.8076  -24.2386   23.7913 C   0  0  0  0  0  0  0  0  0  0  0  0
  -20.8408   -7.0240   22.8341 C   0  0  0  0  0  0  0  0  0  0  0  0
  -19.3394   -6.9327   25.1835 C   0  0  0  0  0  0  0  0  0  0  0  0
  -21.0779   -6.0217   23.7746 C   0  0  0  0  0  0  0  0  0  0  0  0
  -24.6121  -11.6731   20.7028 C   0  0  0  0  0  0  0  0  0  0  0  0
  -25.2979  -13.7522   20.4979 C   0  0  0  0  0  0  0  0  0  0  0  0
  -22.9374  -13.5344   21.2909 C   0  0  0  0  0  0  0  0  0  0  0  0
  -29.1047  -28.1720   21.2055 C   0  0  0  0  0  0  0  0  0  0  0  0
  -28.0729  -25.9343   19.0959 C   0  0  0  0  0  0  0  0  0  0  0  0
  -28.0397  -22.6616   18.1287 C   0  0  0  0  0  0  0  0  0  0  0  0
  -30.7759  -14.7376   20.6533 C   0  0  0  0  0  0  0  0  0  0  0  0
  -25.7858  -31.8563   19.9937 C   0  0  0  0  0  0  0  0  0  0  0  0
  -31.2678  -27.0430   20.5712 C   0  0  0  0  0  0  0  0  0  0  0  0
  -29.1512  -25.0794   21.2106 C   0  0  0  0  0  0  0  0  0  0  0  0
  -25.7030  -30.3541   20.2524 C   0  0  0  0  0  0  0  0  0  0  0  0
  -29.6224  -12.3639   18.2633 C   0  0  0  0  0  0  0  0  0  0  0  0
  -26.4310  -29.9938   21.5435 C   0  0  0  0  0  0  0  0  0  0  0  0
  -28.1822  -12.0826   18.6978 C   0  0  0  0  0  0  0  0  0  0  0  0
  -30.5467  -12.5688   19.4623 C   0  0  0  0  0  0  0  0  0  0  0  0
  -28.6554  -13.2971   20.8629 C   0  0  0  0  0  0  0  0  0  0  0  0
  -27.9207  -30.3463   21.4536 C   0  0  1  0  0  0  0  0  0  0  0  0
  -29.8065  -27.2914   20.2106 C   0  0  1  0  0  0  0  0  0  0  0  0
  -27.6742  -13.1481   19.6888 C   0  0  2  0  0  0  0  0  0  0  0  0
  -28.4980  -17.4520   23.0563 C   0  0  0  0  0  0  0  0  0  0  0  0
  -27.0776  -21.1317   16.3877 C   0  0  0  0  0  0  0  0  0  0  0  0
  -25.3716  -26.0259   20.5116 C   0  0  0  0  0  0  0  0  0  0  0  0
  -24.7873  -23.8668   19.3869 C   0  0  0  0  0  0  0  0  0  0  0  0
  -25.2385  -25.9022   18.0173 C   0  0  0  0  0  0  0  0  0  0  0  0
  -30.7257  -21.9021   17.1453 C   0  0  0  0  0  0  0  0  0  0  0  0
  -32.6629  -19.1867   25.1984 C   0  0  0  0  0  0  0  0  0  0  0  0
  -33.3066  -21.5487   25.6935 C   0  0  0  0  0  0  0  0  0  0  0  0
  -33.3196  -22.9379   25.0867 C   0  0  0  0  0  0  0  0  0  1  0  0
  -27.1606  -24.7338   19.1716 C   0  0  1  0  0  0  0  0  0  0  0  0
  -28.2578  -22.0089   16.7756 C   0  0  2  0  0  0  0  0  0  0  0  0
  -25.6628  -25.1342   19.2881 C   0  0  0  0  0  0  0  0  0  0  0  0
  -25.8735  -11.5688   20.2762 N   0  0  0  0  0  0  0  0  0  0  0  0
  -26.2634  -12.8497   20.1607 N   0  0  0  0  0  0  0  0  0  0  0  0
  -29.0300  -26.0537   20.1135 N   0  0  0  0  0  0  0  0  0  0  0  0
  -30.0037  -13.5951   20.3549 N   0  0  0  0  0  0  0  0  0  0  0  0
  -25.5221  -15.0821   20.4393 N   0  0  0  0  0  0  0  0  0  0  0  0
  -21.9178  -12.6321   21.6233 N   0  0  0  0  0  0  0  0  0  0  0  0
  -30.1431  -15.6598   21.4863 N   0  0  0  0  0  0  0  0  0  0  0  0
  -28.6284  -29.3546   20.6725 N   0  0  0  0  0  0  0  0  0  0  0  0
  -27.4705  -23.9116   18.0070 N   0  0  0  0  0  0  0  0  0  0  0  0
  -29.4843  -21.1626   16.8004 N   0  3  0  0  0  0  0  0  0  0  0  0
  -32.7050  -20.5969   24.7258 N   0  3  0  0  0  0  0  0  0  0  0  0
  -22.7146  -14.7667   21.3641 O   0  0  0  0  0  0  0  0  0  0  0  0
  -29.0017  -27.8050   22.3701 O   0  0  0  0  0  0  0  0  0  0  0  0
  -27.9459  -26.7326   18.1642 O   0  0  0  0  0  0  0  0  0  0  0  0
  -28.3405  -22.1156   19.1879 O   0  0  0  0  0  0  0  0  0  0  0  0
  -31.9041  -14.8999   20.1812 O   0  0  0  0  0  0  0  0  0  0  0  0
  -21.5858   -7.0712   21.6677 O   0  0  0  0  0  0  0  0  0  0  0  0
  -31.9822  -23.3492   24.8064 O   0  0  0  0  0  0  0  0  0  1  0  0
  -18.6195   -6.8898   26.3123 F   0  0  0  0  0  0  0  0  0  0  0  0
  -22.0262   -5.1005   23.5558 F   0  0  0  0  0  0  0  0  0  0  0  0
  1  2  1  0  0  0  0
  1  5  2  0  0  0  0
  2  6  2  0  0  0  0
  3 10  2  0  0  0  0
  3 18  1  0  0  0  0
  4 11  1  0  0  0  0
  4 18  2  0  0  0  0
  5 20  1  0  0  0  0
  6 22  1  0  0  0  0
  7 12  2  0  0  0  0
  7 21  1  0  0  0  0
  8  9  2  0  0  0  0
  8 24  1  0  0  0  0
  9 26  1  0  0  0  0
 10 27  1  0  0  0  0
 11 27  2  0  0  0  0
 12 28  1  0  0  0  0
 13 14  2  0  0  0  0
 13 29  1  0  0  0  0
 14 30  1  0  0  0  0
 15 23  1  0  0  0  0
 15 28  2  0  0  0  0
 16 24  2  0  0  0  0
 16 25  1  0  0  0  0
 17 30  2  0  0  0  0
 17 31  1  0  0  0  0
 18 32  1  0  0  0  0
 19 32  1  0  0  0  0
 19 33  2  0  0  0  0
 19 34  1  0  0  0  0
 20 22  2  0  0  0  0
 20 39  1  0  0  0  0
 21 23  2  0  0  0  0
 21 40  1  0  0  0  0
 22 48  1  0  0  0  0
 23 41  1  0  0  0  0
 24 57  1  0  0  0  0
 25 26  2  0  0  0  0
 25 51  1  0  0  0  0
 26 69  1  0  0  0  0
 27 79  1  0  0  0  0
 28 80  1  0  0  0  0
 29 31  2  0  0  0  0
 29 79  1  0  0  0  0
 30 81  1  0  0  0  0
 31 82  1  0  0  0  0
 32 63  2  0  0  0  0
 33 64  1  0  0  0  0
 33 67  1  0  0  0  0
 34 68  1  0  0  0  0
 34 74  2  0  0  0  0
 35 49  1  0  0  0  0
 35 70  1  0  0  0  0
 35 75  2  0  0  0  0
 36 60  1  0  0  0  0
 36 65  1  0  0  0  0
 36 76  2  0  0  0  0
 37 61  1  0  0  0  0
 37 71  1  0  0  0  0
 37 77  2  0  0  0  0
 38 66  1  0  0  0  0
 38 69  1  0  0  0  0
 38 78  2  0  0  0  0
 39 42  1  0  0  0  0
 40 49  1  0  0  0  0
 41 65  1  0  0  0  0
 42 44  1  0  0  0  0
 43 45  1  0  0  0  0
 43 46  1  0  0  0  0
 44 48  1  0  0  0  0
 45 50  1  0  0  0  0
 46 66  1  0  0  0  0
 47 50  1  0  0  0  0
 47 66  1  0  0  0  0
 48 70  1  0  0  0  0
 49 65  1  0  0  0  0
 50 64  1  0  0  0  0
 52 61  1  0  0  0  0
 53 62  1  0  0  0  0
 54 62  1  0  0  0  0
 55 62  1  0  0  0  0
 56 72  1  0  0  0  0
 57 73  1  0  0  0  0
 58 59  1  0  0  0  0
 58 73  1  0  0  0  0
 59 80  1  0  0  0  0
 60 62  1  0  0  0  0
 60 71  1  0  0  0  0
 61 72  1  0  0  0  0
 63 64  1  0  0  0  0
M  CHG  2  72   1  73   1
M  ISO  4  38 100  59 101  69 100  80 101
M  END
> <Batch ID>
0007

> <Smiles>
CNC(C)C(=O)NC(C(=O)N1Cc2cc([101O:1][101CH2:1]CNCc3ccc([100NH:0][100C:0](=O)N4CCCC(n5nc(-c6ccc(Oc7ccc(F)cc7F)cc6)c(C(N)=O)c5N)C4)c(C)c3)ccc2CC1C(=O)NC1CCCc2ccccc21)C(C)(C)C

> <Shape>
0.262

> <Color>
0.199

> <Negative vol penalty>
0.000

$$$$

  -OEChem-04042320323D

 84 93  0     1  0  0  0  0  0999 V2000
  -18.6133  -24.4469   23.4856 C   0  0  0  0  0  0  0  0  0  0  0  0
  -19.9879  -24.4497   23.2717 C   0  0  0  0  0  0  0  0  0  0  0  0
  -27.5057  -12.9293   20.3244 C   0  0  0  0  0  0  0  0  0  0  0  0
  -26.0825  -12.2117   18.5087 C   0  0  0  0  0  0  0  0  0  0  0  0
  -17.8687  -25.6001   23.2419 C   0  0  0  0  0  0  0  0  0  0  0  0
  -20.6186  -25.6056   22.8129 C   0  0  0  0  0  0  0  0  0  0  0  0
  -24.9028  -26.6070   25.3205 C   0  0  0  0  0  0  0  0  0  0  0  0
  -26.5347  -12.5307   21.2430 C   0  0  0  0  0  0  0  0  0  0  0  0
  -25.1116  -11.8129   19.4274 C   0  0  0  0  0  0  0  0  0  0  0  0
  -26.0308  -25.8635   24.9762 C   0  0  0  0  0  0  0  0  0  0  0  0
  -24.5616   -9.1913   21.4877 C   0  0  0  0  0  0  0  0  0  0  0  0
  -23.9561   -7.9503   21.2909 C   0  0  0  0  0  0  0  0  0  0  0  0
  -26.8242  -27.7017   23.6306 C   0  0  0  0  0  0  0  0  0  0  0  0
  -21.8023   -9.0298   21.1101 C   0  0  0  0  0  0  0  0  0  0  0  0
  -27.2796  -12.7699   18.9572 C   0  0  0  0  0  0  0  0  0  0  0  0
  -29.3343  -12.4031   17.4905 C   0  0  0  0  0  0  0  0  0  0  0  0
  -18.4920  -26.7736   22.7891 C   0  0  0  0  0  0  0  0  0  0  0  0
  -24.7214  -27.9015   24.8129 C   0  0  0  0  0  0  0  0  0  0  0  0
  -19.8815  -26.7752   22.5616 C   0  0  0  0  0  0  0  0  0  0  0  0
  -25.6943  -28.4605   23.9721 C   0  0  0  0  0  0  0  0  0  0  0  0
  -25.3377  -11.9725   20.7945 C   0  0  0  0  0  0  0  0  0  0  0  0
  -26.9903  -26.4097   24.1288 C   0  0  0  0  0  0  0  0  0  0  0  0
  -23.7874  -10.3516   21.4959 C   0  0  0  0  0  0  0  0  0  0  0  0
  -22.5765   -7.8695   21.1020 C   0  0  0  0  0  0  0  0  0  0  0  0
  -22.4078  -10.2709   21.3070 C   0  0  0  0  0  0  0  0  0  0  0  0
  -28.2819  -13.1821   18.0077 C   0  0  0  0  0  0  0  0  0  0  0  0
  -29.9984  -13.2478   16.6350 C   0  0  0  0  0  0  0  0  0  0  0  0
  -27.9409  -21.2914   21.6990 C   0  0  0  0  0  0  0  0  0  0  0  0
  -29.6805  -11.0380   17.7593 C   0  0  0  0  0  0  0  0  0  0  0  0
  -22.5468  -29.3022   22.9654 C   0  0  0  0  0  0  0  0  0  0  0  0
  -24.2277  -31.9813   23.6862 C   0  0  0  0  0  0  0  0  0  0  0  0
  -27.1867  -33.3680   24.6703 C   0  0  0  0  0  0  0  0  0  0  0  0
  -27.1061  -17.2758   18.0510 C   0  0  0  0  0  0  0  0  0  0  0  0
  -17.6385  -27.9817   22.4944 C   0  0  0  0  0  0  0  0  0  0  0  0
  -23.5122  -28.7006   25.2153 C   0  0  0  0  0  0  0  0  0  0  0  0
  -25.5566  -29.8537   23.4166 C   0  0  0  0  0  0  0  0  0  0  0  0
  -18.4379  -29.2759   22.3671 C   0  0  0  0  0  0  0  0  0  0  0  0
  -27.4276  -15.8789   14.7184 C   0  0  0  0  0  0  0  0  0  0  0  0
  -19.6617  -29.0626   21.4819 C   0  0  0  0  0  0  0  0  0  0  0  0
  -28.9366  -15.6766   14.5925 C   0  0  0  0  0  0  0  0  0  0  0  0
  -27.2168  -18.9026   21.2509 C   0  0  0  0  0  0  0  0  0  0  0  0
  -29.0597  -22.5545   19.8692 C   0  0  0  0  0  0  0  0  0  0  0  0
  -27.1088  -17.1204   15.5405 C   0  0  0  0  0  0  0  0  0  0  0  0
  -27.5456  -17.6141   20.5039 C   0  0  0  0  0  0  0  0  0  0  0  0
  -29.2434  -16.8954   16.7843 C   0  0  0  0  0  0  0  0  0  0  0  0
  -29.5412  -21.2437   19.2671 C   0  0  0  0  0  0  0  0  0  0  0  0
  -28.8807  -18.8631   18.8650 C   0  0  0  0  0  0  0  0  0  0  0  0
  -20.6055  -28.0169   22.0880 C   0  0  1  0  0  0  0  0  0  0  0  0
  -28.3076  -19.9613   21.0581 C   0  0  1  0  0  0  0  0  0  0  0  0
  -28.8673  -22.4502   21.3760 C   0  0  1  0  0  0  0  0  0  0  0  0
  -23.1774  -29.8153   24.2291 C   0  0  1  0  0  0  0  0  0  0  0  0
  -29.6405  -15.6507   15.9649 C   0  0  1  0  0  0  0  0  0  0  0  0
  -28.2649  -35.5860   25.1342 C   0  0  0  0  0  0  0  0  0  0  0  0
  -24.4489  -32.4984   20.6873 C   0  0  0  0  0  0  0  0  0  0  0  0
  -26.2847  -34.1296   21.1745 C   0  0  0  0  0  0  0  0  0  0  0  0
  -23.9901  -34.5340   22.0658 C   0  0  0  0  0  0  0  0  0  0  0  0
  -27.7152  -32.6514   27.4927 C   0  0  0  0  0  0  0  0  0  0  0  0
  -28.6698  -25.9416   22.5114 C   0  0  0  0  0  0  0  0  0  1  0  0
  -29.3177  -24.6734   21.9903 C   0  0  0  0  0  0  0  0  0  0  0  0
  -25.4069  -32.7000   23.0763 C   0  0  1  0  0  0  0  0  0  0  0  0
  -27.5094  -34.4075   25.7284 C   0  0  2  0  0  0  0  0  0  0  0  0
  -25.0346  -33.4385   21.7597 C   0  0  0  0  0  0  0  0  0  0  0  0
  -28.2740  -14.4261   17.5215 N   0  0  0  0  0  0  0  0  0  0  0  0
  -29.3297  -14.4352   16.6899 N   0  0  0  0  0  0  0  0  0  0  0  0
  -24.3537  -30.5928   23.8342 N   0  0  0  0  0  0  0  0  0  0  0  0
  -27.7940  -17.1036   16.8380 N   0  0  0  0  0  0  0  0  0  0  0  0
  -27.8136  -17.8911   19.0955 N   0  0  0  0  0  0  0  0  0  0  0  0
  -31.0833  -13.0833   15.8487 N   0  0  0  0  0  0  0  0  0  0  0  0
  -28.8920  -10.3144   18.6643 N   0  0  0  0  0  0  0  0  0  0  0  0
  -21.3760  -28.5966   23.1672 N   0  0  0  0  0  0  0  0  0  0  0  0
  -25.9388  -33.5701   24.1196 N   0  0  0  0  0  0  0  0  0  0  0  0
  -28.5311  -20.1604   19.5665 N   0  3  1  0  0  0  0  0  0  0  0  0
  -28.3464  -33.8075   26.8057 N   0  3  0  0  0  0  0  0  0  0  0  0
  -27.0059  -21.4092   22.4894 O   0  0  0  0  0  0  0  0  0  0  0  0
  -30.6699  -10.4814   17.2256 O   0  0  0  0  0  0  0  0  0  0  0  0
  -23.0821  -29.5309   21.8871 O   0  0  0  0  0  0  0  0  0  0  0  0
  -23.2343  -32.6291   24.0256 O   0  0  0  0  0  0  0  0  0  0  0  0
  -27.9654  -32.4690   24.3603 O   0  0  0  0  0  0  0  0  0  0  0  0
  -25.9297  -16.9170   18.1846 O   0  0  0  0  0  0  0  0  0  0  0  0
  -24.3901  -11.5831   21.6907 O   0  0  0  0  0  0  0  0  0  0  0  0
  -28.0994  -25.6810   23.7882 O   0  0  0  0  0  0  0  0  0  1  0  0
  -28.3225  -23.6644   21.8549 O   0  0  0  0  0  0  0  0  0  0  0  0
  -21.9954   -6.6778   20.9114 F   0  0  0  0  0  0  0  0  0  0  0  0
  -21.6590  -11.3822   21.3126 F   0  0  0  0  0  0  0  0  0  0  0  0
  1  2  1  0  0  0  0
  1  5  2  0  0  0  0
  2  6  2  0  0  0  0
  3  8  2  0  0  0  0
  3 15  1  0  0  0  0
  4  9  1  0  0  0  0
  4 15  2  0  0  0  0
  5 17  1  0  0  0  0
  6 19  1  0  0  0  0
  7 10  2  0  0  0  0
  7 18  1  0  0  0  0
  8 21  1  0  0  0  0
  9 21  2  0  0  0  0
 10 22  1  0  0  0  0
 11 12  2  0  0  0  0
 11 23  1  0  0  0  0
 12 24  1  0  0  0  0
 13 20  1  0  0  0  0
 13 22  2  0  0  0  0
 14 24  2  0  0  0  0
 14 25  1  0  0  0  0
 15 26  1  0  0  0  0
 16 26  1  0  0  0  0
 16 27  2  0  0  0  0
 16 29  1  0  0  0  0
 17 19  2  0  0  0  0
 17 34  1  0  0  0  0
 18 20  2  0  0  0  0
 18 35  1  0  0  0  0
 19 48  1  0  0  0  0
 20 36  1  0  0  0  0
 21 80  1  0  0  0  0
 22 81  1  0  0  0  0
 23 25  2  0  0  0  0
 23 80  1  0  0  0  0
 24 83  1  0  0  0  0
 25 84  1  0  0  0  0
 26 63  2  0  0  0  0
 27 64  1  0  0  0  0
 27 68  1  0  0  0  0
 28 49  1  0  0  0  0
 28 50  1  0  0  0  0
 28 74  2  0  0  0  0
 29 69  1  0  0  0  0
 29 75  2  0  0  0  0
 30 51  1  0  0  0  0
 30 70  1  0  0  0  0
 30 76  2  0  0  0  0
 31 60  1  0  0  0  0
 31 65  1  0  0  0  0
 31 77  2  0  0  0  0
 32 61  1  0  0  0  0
 32 71  1  0  0  0  0
 32 78  2  0  0  0  0
 33 66  1  0  0  0  0
 33 67  1  0  0  0  0
 33 79  2  0  0  0  0
 34 37  1  0  0  0  0
 35 51  1  0  0  0  0
 36 65  1  0  0  0  0
 37 39  1  0  0  0  0
 38 40  1  0  0  0  0
 38 43  1  0  0  0  0
 39 48  1  0  0  0  0
 40 52  1  0  0  0  0
 41 44  1  0  0  0  0
 41 49  1  0  0  0  0
 42 46  1  0  0  0  0
 42 50  1  0  0  0  0
 43 66  1  0  0  0  0
 44 67  1  0  0  0  0
 45 52  1  0  0  0  0
 45 66  1  0  0  0  0
 46 72  1  0  0  0  0
 47 67  1  0  0  0  0
 47 72  1  0  0  0  0
 48 70  1  0  0  0  0
 49 72  1  0  0  0  0
 50 82  1  0  0  0  0
 51 65  1  0  0  0  0
 52 64  1  0  0  0  0
 53 61  1  0  0  0  0
 54 62  1  0  0  0  0
 55 62  1  0  0  0  0
 56 62  1  0  0  0  0
 57 73  1  0  0  0  0
 58 59  1  0  0  0  0
 58 81  1  0  0  0  0
 59 82  1  0  0  0  0
 60 62  1  0  0  0  0
 60 71  1  0  0  0  0
 61 73  1  0  0  0  0
 63 64  1  0  0  0  0
M  CHG  2  72   1  73   1
M  ISO  4  33 100  58 101  67 100  81 101
M  END
> <Batch ID>
0007

> <Smiles>
CNC(C)C(=O)NC(C(=O)N1Cc2cc([101O:1][101CH2:1]COC3CCN4C[100N:0]([100C:0](=O)N5CCCC(n6nc(-c7ccc(Oc8ccc(F)cc8F)cc7)c(C(N)=O)c6N)C5)CCC4C3=O)ccc2CC1C(=O)NC1CCCc2ccccc21)C(C)(C)C

> <Shape>
0.279

> <Color>
0.070

> <Negative vol penalty>
0.000

$$$$

  -OEChem-04042320323D

 81 90  0     1  0  0  0  0  0999 V2000
  -18.0199  -10.3139   21.6178 C   0  0  0  0  0  0  0  0  0  0  0  0
  -18.1647  -11.6916   21.4906 C   0  0  0  0  0  0  0  0  0  0  0  0
  -23.4414  -28.9032   19.2655 C   0  0  0  0  0  0  0  0  0  0  0  0
  -23.6556  -27.1896   20.9551 C   0  0  0  0  0  0  0  0  0  0  0  0
  -19.0062   -9.5668   22.2605 C   0  0  0  0  0  0  0  0  0  0  0  0
  -19.2955  -12.3233   22.0071 C   0  0  0  0  0  0  0  0  0  0  0  0
  -23.6669  -17.8558   20.7426 C   0  0  0  0  0  0  0  0  0  0  0  0
  -22.0557  -28.7446   19.2802 C   0  0  0  0  0  0  0  0  0  0  0  0
  -22.2698  -27.0310   20.9699 C   0  0  0  0  0  0  0  0  0  0  0  0
  -24.2054  -18.9712   21.3826 C   0  0  0  0  0  0  0  0  0  0  0  0
  -18.7624  -26.4280   21.7130 C   0  0  0  0  0  0  0  0  0  0  0  0
  -18.1320  -26.3411   22.9543 C   0  0  0  0  0  0  0  0  0  0  0  0
  -25.8819  -17.5687   22.4031 C   0  0  0  0  0  0  0  0  0  0  0  0
  -18.9629  -28.5355   23.5299 C   0  0  0  0  0  0  0  0  0  0  0  0
  -24.2414  -28.1257   20.1029 C   0  0  0  0  0  0  0  0  0  0  0  0
  -26.4371  -29.1656   20.8806 C   0  0  0  0  0  0  0  0  0  0  0  0
  -20.1542  -10.1884   22.7766 C   0  0  0  0  0  0  0  0  0  0  0  0
  -24.2261  -16.5846   20.9369 C   0  0  0  0  0  0  0  0  0  0  0  0
  -20.2974  -11.5840   22.6585 C   0  0  0  0  0  0  0  0  0  0  0  0
  -25.3502  -16.4392   21.7623 C   0  0  0  0  0  0  0  0  0  0  0  0
  -21.4699  -27.8085   20.1324 C   0  0  0  0  0  0  0  0  0  0  0  0
  -25.3113  -18.8273   22.2153 C   0  0  0  0  0  0  0  0  0  0  0  0
  -19.4931  -27.5686   21.3802 C   0  0  0  0  0  0  0  0  0  0  0  0
  -18.2322  -27.3948   23.8627 C   0  0  0  0  0  0  0  0  0  0  0  0
  -19.5933  -28.6223   22.2886 C   0  0  0  0  0  0  0  0  0  0  0  0
  -25.6729  -28.2886   20.0877 C   0  0  0  0  0  0  0  0  0  0  0  0
  -27.7342  -28.9405   20.4891 C   0  0  0  0  0  0  0  0  0  0  0  0
  -26.0124  -30.1001   21.8816 C   0  0  0  0  0  0  0  0  0  0  0  0
  -23.1818  -13.8349   22.1420 C   0  0  0  0  0  0  0  0  0  0  0  0
  -26.0517  -12.7379   21.1017 C   0  0  0  0  0  0  0  0  0  0  0  0
  -29.2824  -13.4318   20.2486 C   0  0  0  0  0  0  0  0  0  0  0  0
  -30.0567  -23.9697   17.7837 C   0  0  0  0  0  0  0  0  0  0  0  0
  -21.1709   -9.3454   23.5049 C   0  0  0  0  0  0  0  0  0  0  0  0
  -23.6499  -15.3956   20.2181 C   0  0  0  0  0  0  0  0  0  0  0  0
  -26.0003  -15.0994   21.9881 C   0  0  0  0  0  0  0  0  0  0  0  0
  -22.5163  -10.0414   23.6938 C   0  0  0  0  0  0  0  0  0  0  0  0
  -30.3384  -27.5140   16.7383 C   0  0  0  0  0  0  0  0  0  0  0  0
  -22.3138  -11.4672   24.1968 C   0  0  0  0  0  0  0  0  0  0  0  0
  -29.1845  -28.1720   17.4941 C   0  0  0  0  0  0  0  0  0  0  0  0
  -30.1120  -23.9873   21.5077 C   0  0  0  0  0  0  0  0  0  0  0  0
  -30.0579  -26.0438   16.4415 C   0  0  0  0  0  0  0  0  0  0  0  0
  -30.7479  -24.3657   20.1774 C   0  0  0  0  0  0  0  0  0  0  0  0
  -30.4902  -22.0717   19.3004 C   0  0  0  0  0  0  0  0  0  0  0  0
  -28.5568  -25.9014   18.4015 C   0  0  0  0  0  0  0  0  0  0  0  0
  -29.3630  -22.0242   22.9250 C   0  0  0  0  0  0  0  0  0  0  0  0
  -28.4329  -21.5224   20.7092 C   0  0  0  0  0  0  0  0  0  0  0  0
  -21.5215  -12.3023   23.1837 C   0  0  1  0  0  0  0  0  0  0  0  0
  -23.9845  -14.0693   20.8936 C   0  0  1  0  0  0  0  0  0  0  0  0
  -30.3070  -22.4970   21.8227 C   0  0  1  0  0  0  0  0  0  0  0  0
  -29.9523  -21.5882   20.6438 C   0  0  2  0  0  0  0  0  0  0  0  0
  -28.8297  -27.3695   18.7578 C   0  0  2  0  0  0  0  0  0  0  0  0
  -31.3968  -12.3240   19.4743 C   0  0  0  0  0  0  0  0  0  0  0  0
  -26.5338  -11.6892   23.9262 C   0  0  0  0  0  0  0  0  0  0  0  0
  -28.9608  -11.4648   23.3536 C   0  0  0  0  0  0  0  0  0  0  0  0
  -27.2579  -10.1407   22.1007 C   0  0  0  0  0  0  0  0  0  0  0  0
  -29.3194  -14.9962   17.7366 C   0  0  0  0  0  0  0  0  0  0  0  0
  -26.8513  -22.0848   22.5899 C   0  0  0  0  0  0  0  0  0  0  0  0
  -25.7132  -21.1711   22.1800 C   0  0  0  0  0  0  0  0  0  1  0  0
  -27.4348  -12.6302   21.6971 C   0  0  1  0  0  0  0  0  0  0  0  0
  -30.1166  -13.0252   19.0473 C   0  0  2  0  0  0  0  0  0  0  0  0
  -27.5336  -11.5063   22.7669 C   0  0  0  0  0  0  0  0  0  0  0  0
  -26.4221  -27.5608   19.2553 N   0  0  0  0  0  0  0  0  0  0  0  0
  -27.6705  -27.9800   19.5229 N   0  0  0  0  0  0  0  0  0  0  0  0
  -25.3963  -13.9661   21.2681 N   0  0  0  0  0  0  0  0  0  0  0  0
  -29.6759  -25.3153   17.6510 N   0  0  0  0  0  0  0  0  0  0  0  0
  -30.2723  -23.5012   19.0907 N   0  0  0  0  0  0  0  0  0  0  0  0
  -28.9116  -29.4725   20.8804 N   0  0  0  0  0  0  0  0  0  0  0  0
  -24.6428  -30.2046   22.1601 N   0  0  0  0  0  0  0  0  0  0  0  0
  -22.3754  -12.7140   22.0902 N   0  0  0  0  0  0  0  0  0  0  0  0
  -28.3514  -12.4681   20.5737 N   0  0  0  0  0  0  0  0  0  0  0  0
  -28.1520  -21.4599   22.1972 N   0  3  2  0  0  0  0  0  0  0  0  0
  -30.4836  -14.2240   18.2418 N   0  3  0  0  0  0  0  0  0  0  0  0
  -26.8220  -30.8330   22.4989 O   0  0  0  0  0  0  0  0  0  0  0  0
  -23.2874  -14.6127   23.0831 O   0  0  0  0  0  0  0  0  0  0  0  0
  -25.5734  -11.7702   20.5045 O   0  0  0  0  0  0  0  0  0  0  0  0
  -29.4434  -14.4961   20.8418 O   0  0  0  0  0  0  0  0  0  0  0  0
  -30.1937  -23.2332   16.7991 O   0  0  0  0  0  0  0  0  0  0  0  0
  -20.1177  -27.6537   20.1472 O   0  0  0  0  0  0  0  0  0  0  0  0
  -25.8422  -19.9221   22.8462 O   0  0  0  0  0  0  0  0  0  1  0  0
  -17.6255  -27.3119   25.0540 F   0  0  0  0  0  0  0  0  0  0  0  0
  -20.2930  -29.7212   21.9741 F   0  0  0  0  0  0  0  0  0  0  0  0
  1  2  1  0  0  0  0
  1  5  2  0  0  0  0
  2  6  2  0  0  0  0
  3  8  2  0  0  0  0
  3 15  1  0  0  0  0
  4  9  1  0  0  0  0
  4 15  2  0  0  0  0
  5 17  1  0  0  0  0
  6 19  1  0  0  0  0
  7 10  2  0  0  0  0
  7 18  1  0  0  0  0
  8 21  1  0  0  0  0
  9 21  2  0  0  0  0
 10 22  1  0  0  0  0
 11 12  2  0  0  0  0
 11 23  1  0  0  0  0
 12 24  1  0  0  0  0
 13 20  1  0  0  0  0
 13 22  2  0  0  0  0
 14 24  2  0  0  0  0
 14 25  1  0  0  0  0
 15 26  1  0  0  0  0
 16 26  1  0  0  0  0
 16 27  2  0  0  0  0
 16 28  1  0  0  0  0
 17 19  2  0  0  0  0
 17 33  1  0  0  0  0
 18 20  2  0  0  0  0
 18 34  1  0  0  0  0
 19 47  1  0  0  0  0
 20 35  1  0  0  0  0
 21 78  1  0  0  0  0
 22 79  1  0  0  0  0
 23 25  2  0  0  0  0
 23 78  1  0  0  0  0
 24 80  1  0  0  0  0
 25 81  1  0  0  0  0
 26 62  2  0  0  0  0
 27 63  1  0  0  0  0
 27 67  1  0  0  0  0
 28 68  1  0  0  0  0
 28 73  2  0  0  0  0
 29 48  1  0  0  0  0
 29 69  1  0  0  0  0
 29 74  2  0  0  0  0
 30 59  1  0  0  0  0
 30 64  1  0  0  0  0
 30 75  2  0  0  0  0
 31 60  1  0  0  0  0
 31 70  1  0  0  0  0
 31 76  2  0  0  0  0
 32 65  1  0  0  0  0
 32 66  1  0  0  0  0
 32 77  2  0  0  0  0
 33 36  1  0  0  0  0
 34 48  1  0  0  0  0
 35 64  1  0  0  0  0
 36 38  1  0  0  0  0
 37 39  1  0  0  0  0
 37 41  1  0  0  0  0
 38 47  1  0  0  0  0
 39 51  1  0  0  0  0
 40 42  1  0  0  0  0
 40 49  1  0  0  0  0
 41 65  1  0  0  0  0
 42 66  1  0  0  0  0
 43 50  1  0  0  0  0
 43 66  1  0  0  0  0
 44 51  1  0  0  0  0
 44 65  1  0  0  0  0
 45 49  1  0  0  0  0
 45 71  1  0  0  0  0
 46 50  1  0  0  0  0
 46 71  1  0  0  0  0
 47 69  1  0  0  0  0
 48 64  1  0  0  0  0
 49 50  1  0  0  0  0
 51 63  1  0  0  0  0
 52 60  1  0  0  0  0
 53 61  1  0  0  0  0
 54 61  1  0  0  0  0
 55 61  1  0  0  0  0
 56 72  1  0  0  0  0
 57 58  1  0  0  0  0
 57 71  1  0  0  0  0
 58 79  1  0  0  0  0
 59 61  1  0  0  0  0
 59 70  1  0  0  0  0
 60 72  1  0  0  0  0
 62 63  1  0  0  0  0
M  CHG  2  71   1  72   1
M  ISO  4  32 100  58 101  66 100  79 101
M  END
> <Batch ID>
0007

> <Smiles>
CNC(C)C(=O)NC(C(=O)N1Cc2cc([101O:1][101CH2:1]CN3CC4CC[100N:0]([100C:0](=O)N5CCCC(n6nc(-c7ccc(Oc8ccc(F)cc8F)cc7)c(C(N)=O)c6N)C5)CC4C3)ccc2CC1C(=O)NC1CCCc2ccccc21)C(C)(C)C

> <Shape>
0.260

> <Color>
0.059

> <Negative vol penalty>
0.000

$$$$

  -OEChem-04042320323D

 86 94  0     1  0  0  0  0  0999 V2000
  -26.3993  -17.3381   25.4510 C   0  0  0  0  0  0  0  0  0  0  0  0
  -26.6821  -18.2519   24.4409 C   0  0  0  0  0  0  0  0  0  0  0  0
  -23.0707   -9.8420   20.0083 C   0  0  0  0  0  0  0  0  0  0  0  0
  -23.7785   -9.9635   22.3151 C   0  0  0  0  0  0  0  0  0  0  0  0
  -25.0750  -17.0571   25.7846 C   0  0  0  0  0  0  0  0  0  0  0  0
  -25.6406  -18.8844   23.7628 C   0  0  0  0  0  0  0  0  0  0  0  0
  -26.4373  -23.8510   23.1769 C   0  0  0  0  0  0  0  0  0  0  0  0
  -31.7467  -18.2011   19.8586 C   0  0  0  0  0  0  0  0  0  0  0  0
  -22.3023   -8.7159   20.3034 C   0  0  0  0  0  0  0  0  0  0  0  0
  -23.0100   -8.8374   22.6102 C   0  0  0  0  0  0  0  0  0  0  0  0
  -27.3195  -24.2399   22.1698 C   0  0  0  0  0  0  0  0  0  0  0  0
  -31.5833  -19.1852   18.8837 C   0  0  0  0  0  0  0  0  0  0  0  0
  -19.7562   -8.1237   23.1794 C   0  0  0  0  0  0  0  0  0  0  0  0
  -18.9724   -8.1599   24.3326 C   0  0  0  0  0  0  0  0  0  0  0  0
  -25.4481  -24.7464   20.7344 C   0  0  0  0  0  0  0  0  0  0  0  0
  -20.1645   -6.2471   25.2028 C   0  0  0  0  0  0  0  0  0  0  0  0
  -23.8089  -10.4658   21.0142 C   0  0  0  0  0  0  0  0  0  0  0  0
  -24.1953  -12.9749   20.7644 C   0  0  0  0  0  0  0  0  0  0  0  0
  -24.0169  -17.6937   25.1169 C   0  0  0  0  0  0  0  0  0  0  0  0
  -25.0517  -23.8967   22.9661 C   0  0  0  0  0  0  0  0  0  0  0  0
  -24.3009  -18.6107   24.0868 C   0  0  0  0  0  0  0  0  0  0  0  0
  -24.5504  -24.3600   21.7413 C   0  0  0  0  0  0  0  0  0  0  0  0
  -30.6974  -17.8975   20.7261 C   0  0  0  0  0  0  0  0  0  0  0  0
  -22.2719   -8.2136   21.6043 C   0  0  0  0  0  0  0  0  0  0  0  0
  -26.8251  -24.6850   20.9473 C   0  0  0  0  0  0  0  0  0  0  0  0
  -20.7441   -7.1491   23.0378 C   0  0  0  0  0  0  0  0  0  0  0  0
  -30.3705  -19.8658   18.7763 C   0  0  0  0  0  0  0  0  0  0  0  0
  -19.1766   -7.2216   25.3443 C   0  0  0  0  0  0  0  0  0  0  0  0
  -20.9482   -6.2108   24.0495 C   0  0  0  0  0  0  0  0  0  0  0  0
  -29.4846  -18.5782   20.6186 C   0  0  0  0  0  0  0  0  0  0  0  0
  -29.3211  -19.5623   19.6437 C   0  0  0  0  0  0  0  0  0  0  0  0
  -24.6033  -11.6287   20.7099 C   0  0  0  0  0  0  0  0  0  0  0  0
  -25.3077  -13.6864   20.3865 C   0  0  0  0  0  0  0  0  0  0  0  0
  -22.9244  -13.5325   21.1245 C   0  0  0  0  0  0  0  0  0  0  0  0
  -22.7167  -21.7404   22.9259 C   0  0  0  0  0  0  0  0  0  0  0  0
  -20.8296  -24.3618   22.6268 C   0  0  0  0  0  0  0  0  0  0  0  0
  -20.5343  -27.6257   21.6745 C   0  0  0  0  0  0  0  0  0  0  0  0
  -30.8020  -14.6298   20.6477 C   0  0  0  0  0  0  0  0  0  0  0  0
  -22.6010  -17.3223   25.4802 C   0  0  0  0  0  0  0  0  0  0  0  0
  -24.1129  -23.4990   24.0720 C   0  0  0  0  0  0  0  0  0  0  0  0
  -23.0711  -24.4472   21.4719 C   0  0  0  0  0  0  0  0  0  0  0  0
  -21.5605  -18.3151   24.9686 C   0  0  0  0  0  0  0  0  0  0  0  0
  -29.6792  -12.1353   18.3687 C   0  0  0  0  0  0  0  0  0  0  0  0
  -21.8294  -18.6654   23.5085 C   0  0  0  0  0  0  0  0  0  0  0  0
  -28.2276  -11.8880   18.7831 C   0  0  0  0  0  0  0  0  0  0  0  0
  -30.5724  -12.4078   19.5770 C   0  0  0  0  0  0  0  0  0  0  0  0
  -28.6522  -13.2432   20.8765 C   0  0  0  0  0  0  0  0  0  0  0  0
  -23.1989  -19.3357   23.3452 C   0  0  1  0  0  0  0  0  0  0  0  0
  -22.7300  -23.0993   23.5669 C   0  0  1  0  0  0  0  0  0  0  0  0
  -27.7022  -13.0191   19.6875 C   0  0  2  0  0  0  0  0  0  0  0  0
  -18.8590  -29.4871   21.5141 C   0  0  0  0  0  0  0  0  0  0  0  0
  -19.6091  -23.0473   20.1585 C   0  0  0  0  0  0  0  0  0  0  0  0
  -18.6750  -25.2799   19.5172 C   0  0  0  0  0  0  0  0  0  0  0  0
  -17.9633  -24.1979   21.6491 C   0  0  0  0  0  0  0  0  0  0  0  0
  -22.0806  -29.3333   23.5325 C   0  0  0  0  0  0  0  0  0  0  0  0
  -30.8757  -16.8439   21.7664 C   0  0  0  0  0  0  0  0  0  0  0  0
  -28.4560  -24.6892   17.7162 C   0  0  0  0  0  0  0  0  0  0  0  0
  -30.4012  -23.1734   17.3196 C   0  0  0  0  0  0  0  0  0  0  0  0
  -27.2505  -24.8790   18.6156 C   0  0  0  0  0  0  0  0  0  1  0  0
  -31.0935  -21.9458   17.8781 C   0  0  0  0  0  0  0  0  0  0  0  0
  -20.2920  -25.1654   21.4674 C   0  0  1  0  0  0  0  0  0  0  0  0
  -19.9263  -28.8280   22.3739 C   0  0  2  0  0  0  0  0  0  0  0  0
  -19.1628  -24.4193   20.7021 C   0  0  0  0  0  0  0  0  0  0  0  0
  -25.8755  -11.4905   20.3273 N   0  0  0  0  0  0  0  0  0  0  0  0
  -26.2766  -12.7591   20.1379 N   0  0  0  0  0  0  0  0  0  0  0  0
  -22.1938  -24.0412   22.5823 N   0  0  0  0  0  0  0  0  0  0  0  0
  -30.0192  -13.4918   20.3922 N   0  0  0  0  0  0  0  0  0  0  0  0
  -25.5419  -15.0084   20.2458 N   0  0  0  0  0  0  0  0  0  0  0  0
  -21.8902  -12.6589   21.4871 N   0  0  0  0  0  0  0  0  0  0  0  0
  -23.1361  -20.7210   23.7592 N   0  0  0  0  0  0  0  0  0  0  0  0
  -19.8898  -26.4557   22.0167 N   0  0  0  0  0  0  0  0  0  0  0  0
  -30.1995  -15.6126   21.4234 N   0  0  0  0  0  0  0  0  0  0  0  0
  -20.9786  -29.8395   22.6743 N   0  3  0  0  0  0  0  0  0  0  0  0
  -29.2053  -23.4829   18.1492 N   0  3  0  0  0  0  0  0  0  0  0  0
  -22.7075  -14.7679   21.1090 O   0  0  0  0  0  0  0  0  0  0  0  0
  -22.3513  -21.6250   21.7619 O   0  0  0  0  0  0  0  0  0  0  0  0
  -20.0688  -24.0369   23.5417 O   0  0  0  0  0  0  0  0  0  0  0  0
  -21.4836  -27.7159   20.8990 O   0  0  0  0  0  0  0  0  0  0  0  0
  -31.9507  -14.7625   20.2120 O   0  0  0  0  0  0  0  0  0  0  0  0
  -21.5220   -7.1150   21.8926 O   0  0  0  0  0  0  0  0  0  0  0  0
  -27.6840  -25.0645   19.9624 O   0  0  0  0  0  0  0  0  0  1  0  0
  -30.2107  -20.8333   17.8188 O   0  0  0  0  0  0  0  0  0  0  0  0
  -18.4248   -7.2575   26.4524 F   0  0  0  0  0  0  0  0  0  0  0  0
  -21.8966   -5.2729   23.9198 F   0  0  0  0  0  0  0  0  0  0  0  0
  -28.4706  -18.2939   21.4477 F   0  0  0  0  0  0  0  0  0  0  0  0
  -28.1536  -20.2128   19.5448 F   0  0  0  0  0  0  0  0  0  0  0  0
  1  2  1  0  0  0  0
  1  5  2  0  0  0  0
  2  6  2  0  0  0  0
  3  9  2  0  0  0  0
  3 17  1  0  0  0  0
  4 10  1  0  0  0  0
  4 17  2  0  0  0  0
  5 19  1  0  0  0  0
  6 21  1  0  0  0  0
  7 11  2  0  0  0  0
  7 20  1  0  0  0  0
  8 12  2  0  0  0  0
  8 23  1  0  0  0  0
  9 24  1  0  0  0  0
 10 24  2  0  0  0  0
 11 25  1  0  0  0  0
 12 27  1  0  0  0  0
 13 14  2  0  0  0  0
 13 26  1  0  0  0  0
 14 28  1  0  0  0  0
 15 22  1  0  0  0  0
 15 25  2  0  0  0  0
 16 28  2  0  0  0  0
 16 29  1  0  0  0  0
 17 32  1  0  0  0  0
 18 32  1  0  0  0  0
 18 33  2  0  0  0  0
 18 34  1  0  0  0  0
 19 21  2  0  0  0  0
 19 39  1  0  0  0  0
 20 22  2  0  0  0  0
 20 40  1  0  0  0  0
 21 48  1  0  0  0  0
 22 41  1  0  0  0  0
 23 30  2  0  0  0  0
 23 56  1  0  0  0  0
 24 80  1  0  0  0  0
 25 81  1  0  0  0  0
 26 29  2  0  0  0  0
 26 80  1  0  0  0  0
 27 31  2  0  0  0  0
 27 82  1  0  0  0  0
 28 83  1  0  0  0  0
 29 84  1  0  0  0  0
 30 31  1  0  0  0  0
 30 85  1  0  0  0  0
 31 86  1  0  0  0  0
 32 64  2  0  0  0  0
 33 65  1  0  0  0  0
 33 68  1  0  0  0  0
 34 69  1  0  0  0  0
 34 75  2  0  0  0  0
 35 49  1  0  0  0  0
 35 70  1  0  0  0  0
 35 76  2  0  0  0  0
 36 61  1  0  0  0  0
 36 66  1  0  0  0  0
 36 77  2  0  0  0  0
 37 62  1  0  0  0  0
 37 71  1  0  0  0  0
 37 78  2  0  0  0  0
 38 67  1  0  0  0  0
 38 72  1  0  0  0  0
 38 79  2  0  0  0  0
 39 42  1  0  0  0  0
 40 49  1  0  0  0  0
 41 66  1  0  0  0  0
 42 44  1  0  0  0  0
 43 45  1  0  0  0  0
 43 46  1  0  0  0  0
 44 48  1  0  0  0  0
 45 50  1  0  0  0  0
 46 67  1  0  0  0  0
 47 50  1  0  0  0  0
 47 67  1  0  0  0  0
 48 70  1  0  0  0  0
 49 66  1  0  0  0  0
 50 65  1  0  0  0  0
 51 62  1  0  0  0  0
 52 63  1  0  0  0  0
 53 63  1  0  0  0  0
 54 63  1  0  0  0  0
 55 73  1  0  0  0  0
 56 72  1  0  0  0  0
 57 59  1  0  0  0  0
 57 74  1  0  0  0  0
 58 60  1  0  0  0  0
 58 74  1  0  0  0  0
 59 81  1  0  0  0  0
 60 82  1  0  0  0  0
 61 63  1  0  0  0  0
 61 71  1  0  0  0  0
 62 73  1  0  0  0  0
 64 65  1  0  0  0  0
M  CHG  2  73   1  74   1
M  ISO  4  38 100  59 101  72 100  81 101
M  END
> <Batch ID>
0007

> <Smiles>
CNC(C)C(=O)NC(C(=O)N1Cc2cc([101O:1][101CH2:1]CNCCOc3ccc(C[100NH:0][100C:0](=O)N4CCCC(n5nc(-c6ccc(Oc7ccc(F)cc7F)cc6)c(C(N)=O)c5N)C4)c(F)c3F)ccc2CC1C(=O)NC1CCCc2ccccc21)C(C)(C)C

> <Shape>
0.265

> <Color>
0.198

> <Negative vol penalty>
0.000

$$$$

  -OEChem-04042320323D

 81 89  0     1  0  0  0  0  0999 V2000
  -17.7155  -33.3419   18.0836 C   0  0  0  0  0  0  0  0  0  0  0  0
  -18.9138  -32.9824   17.4751 C   0  0  0  0  0  0  0  0  0  0  0  0
  -24.8012  -10.2786   22.6259 C   0  0  0  0  0  0  0  0  0  0  0  0
  -24.4888  -11.7693   24.5013 C   0  0  0  0  0  0  0  0  0  0  0  0
  -17.7254  -33.9232   19.3508 C   0  0  0  0  0  0  0  0  0  0  0  0
  -20.1229  -33.2051   18.1332 C   0  0  0  0  0  0  0  0  0  0  0  0
  -24.6112  -27.7615   19.5870 C   0  0  0  0  0  0  0  0  0  0  0  0
  -29.5131  -20.7821   21.9189 C   0  0  0  0  0  0  0  0  0  0  0  0
  -24.3855   -9.2034   23.4112 C   0  0  0  0  0  0  0  0  0  0  0  0
  -24.0729  -10.6941   25.2866 C   0  0  0  0  0  0  0  0  0  0  0  0
  -25.6185  -26.8047   19.7133 C   0  0  0  0  0  0  0  0  0  0  0  0
  -29.3851  -22.1504   22.1577 C   0  0  0  0  0  0  0  0  0  0  0  0
  -21.4645   -7.9153   24.5255 C   0  0  0  0  0  0  0  0  0  0  0  0
  -20.5567   -7.0164   23.9656 C   0  0  0  0  0  0  0  0  0  0  0  0
  -27.0248  -28.4182   20.8389 C   0  0  0  0  0  0  0  0  0  0  0  0
  -27.1423  -20.6374   21.4769 C   0  0  0  0  0  0  0  0  0  0  0  0
  -22.1505   -5.2245   24.2582 C   0  0  0  0  0  0  0  0  0  0  0  0
  -24.8529  -11.5615   23.1710 C   0  0  0  0  0  0  0  0  0  0  0  0
  -24.4755  -13.5061   21.5635 C   0  0  0  0  0  0  0  0  0  0  0  0
  -18.9346  -34.1443   20.0288 C   0  0  0  0  0  0  0  0  0  0  0  0
  -24.8012  -29.0475   20.1004 C   0  0  0  0  0  0  0  0  0  0  0  0
  -20.1490  -33.7912   19.4101 C   0  0  0  0  0  0  0  0  0  0  0  0
  -26.0146  -29.3772   20.7264 C   0  0  0  0  0  0  0  0  0  0  0  0
  -28.3917  -20.0256   21.5784 C   0  0  0  0  0  0  0  0  0  0  0  0
  -24.0213   -9.4111   24.7416 C   0  0  0  0  0  0  0  0  0  0  0  0
  -26.8224  -27.1323   20.3375 C   0  0  0  0  0  0  0  0  0  0  0  0
  -22.7154   -7.4688   24.9517 C   0  0  0  0  0  0  0  0  0  0  0  0
  -28.1357  -22.7621   22.0562 C   0  0  0  0  0  0  0  0  0  0  0  0
  -20.8997   -5.6710   23.8320 C   0  0  0  0  0  0  0  0  0  0  0  0
  -27.0143  -22.0057   21.7158 C   0  0  0  0  0  0  0  0  0  0  0  0
  -23.0584   -6.1234   24.8181 C   0  0  0  0  0  0  0  0  0  0  0  0
  -25.2829  -12.6725   22.3604 C   0  0  0  0  0  0  0  0  0  0  0  0
  -25.3542  -14.3993   21.0010 C   0  0  0  0  0  0  0  0  0  0  0  0
  -23.0579  -13.4758   21.3509 C   0  0  0  0  0  0  0  0  0  0  0  0
  -23.3724  -32.4735   20.6455 C   0  0  0  0  0  0  0  0  0  0  0  0
  -24.8881  -31.7227   23.2046 C   0  0  0  0  0  0  0  0  0  0  0  0
  -26.3005  -30.3471   25.9886 C   0  0  0  0  0  0  0  0  0  0  0  0
  -29.6878  -17.8733   21.3941 C   0  0  0  0  0  0  0  0  0  0  0  0
  -18.8980  -34.8190   21.3772 C   0  0  0  0  0  0  0  0  0  0  0  0
  -23.7676  -30.1278   19.9324 C   0  0  0  0  0  0  0  0  0  0  0  0
  -26.1880  -30.7830   21.2329 C   0  0  0  0  0  0  0  0  0  0  0  0
  -20.1981  -34.6777   22.1645 C   0  0  0  0  0  0  0  0  0  0  0  0
  -30.4150  -14.4228   20.9013 C   0  0  0  0  0  0  0  0  0  0  0  0
  -21.3979  -34.9814   21.2727 C   0  0  0  0  0  0  0  0  0  0  0  0
  -29.0782  -13.7284   21.1714 C   0  0  0  0  0  0  0  0  0  0  0  0
  -30.6319  -15.6163   21.8299 C   0  0  0  0  0  0  0  0  0  0  0  0
  -28.2019  -15.9022   22.1169 C   0  0  0  0  0  0  0  0  0  0  0  0
  -21.4794  -33.9940   20.1023 C   0  0  1  0  0  0  0  0  0  0  0  0
  -23.7025  -31.0923   21.1301 C   0  0  1  0  0  0  0  0  0  0  0  0
  -27.9093  -14.7331   21.1623 C   0  0  2  0  0  0  0  0  0  0  0  0
  -26.8460  -30.8668   28.3823 C   0  0  0  0  0  0  0  0  0  0  0  0
  -27.2368  -33.4417   22.2923 C   0  0  0  0  0  0  0  0  0  0  0  0
  -28.2509  -33.1347   24.5607 C   0  0  0  0  0  0  0  0  0  0  0  0
  -26.0517  -34.2882   24.3254 C   0  0  0  0  0  0  0  0  0  0  0  0
  -24.5818  -28.1504   26.9783 C   0  0  0  0  0  0  0  0  0  0  0  0
  -28.6649  -26.3010   21.5911 C   0  0  0  0  0  0  0  0  0  1  0  0
  -29.1408  -24.9163   21.9857 C   0  0  0  0  0  0  0  0  0  0  0  0
  -26.1840  -31.7882   23.9726 C   0  0  1  0  0  0  0  0  0  0  0  0
  -25.8232  -30.2708   27.4276 C   0  0  2  0  0  0  0  0  0  0  0  0
  -26.9242  -33.1407   23.7717 C   0  0  0  0  0  0  0  0  0  0  0  0
  -26.5752  -13.0063   22.3111 N   0  0  0  0  0  0  0  0  0  0  0  0
  -26.5866  -14.0595   21.4764 N   0  0  0  0  0  0  0  0  0  0  0  0
  -24.9536  -31.2347   21.8939 N   0  0  0  0  0  0  0  0  0  0  0  0
  -29.4868  -16.5270   21.7655 N   0  0  0  0  0  0  0  0  0  0  0  0
  -25.1853  -15.4344   20.1511 N   0  0  0  0  0  0  0  0  0  0  0  0
  -22.3048  -12.4921   22.0063 N   0  0  0  0  0  0  0  0  0  0  0  0
  -28.5216  -18.6356   21.3358 N   0  0  0  0  0  0  0  0  0  0  0  0
  -22.0175  -32.7263   20.5470 N   0  0  0  0  0  0  0  0  0  0  0  0
  -25.8510  -31.4898   25.3613 N   0  0  0  0  0  0  0  0  0  0  0  0
  -25.5846  -28.8529   27.8197 N   0  3  0  0  0  0  0  0  0  0  0  0
  -22.4784  -14.2864   20.5889 O   0  0  0  0  0  0  0  0  0  0  0  0
  -24.2795  -33.2539   20.3813 O   0  0  0  0  0  0  0  0  0  0  0  0
  -23.8455  -32.0986   23.7477 O   0  0  0  0  0  0  0  0  0  0  0  0
  -27.0049  -29.4816   25.4736 O   0  0  0  0  0  0  0  0  0  0  0  0
  -30.8084  -18.3104   21.1197 O   0  0  0  0  0  0  0  0  0  0  0  0
  -23.6153   -8.3622   25.5081 O   0  0  0  0  0  0  0  0  0  0  0  0
  -27.7998  -26.1921   20.4615 O   0  0  0  0  0  0  0  0  0  1  0  0
  -28.0119  -24.1064   22.2905 O   0  0  0  0  0  0  0  0  0  0  0  0
  -20.0272   -4.8077   23.2957 F   0  0  0  0  0  0  0  0  0  0  0  0
  -25.8115  -22.5881   21.6156 F   0  0  0  0  0  0  0  0  0  0  0  0
  -24.2582   -5.6883   25.2268 F   0  0  0  0  0  0  0  0  0  0  0  0
  1  2  1  0  0  0  0
  1  5  2  0  0  0  0
  2  6  2  0  0  0  0
  3  9  2  0  0  0  0
  3 18  1  0  0  0  0
  4 10  1  0  0  0  0
  4 18  2  0  0  0  0
  5 20  1  0  0  0  0
  6 22  1  0  0  0  0
  7 11  2  0  0  0  0
  7 21  1  0  0  0  0
  8 12  2  0  0  0  0
  8 24  1  0  0  0  0
  9 25  1  0  0  0  0
 10 25  2  0  0  0  0
 11 26  1  0  0  0  0
 12 28  1  0  0  0  0
 13 14  2  0  0  0  0
 13 27  1  0  0  0  0
 14 29  1  0  0  0  0
 15 23  1  0  0  0  0
 15 26  2  0  0  0  0
 16 24  2  0  0  0  0
 16 30  1  0  0  0  0
 17 29  2  0  0  0  0
 17 31  1  0  0  0  0
 18 32  1  0  0  0  0
 19 32  1  0  0  0  0
 19 33  2  0  0  0  0
 19 34  1  0  0  0  0
 20 22  2  0  0  0  0
 20 39  1  0  0  0  0
 21 23  2  0  0  0  0
 21 40  1  0  0  0  0
 22 48  1  0  0  0  0
 23 41  1  0  0  0  0
 24 67  1  0  0  0  0
 25 76  1  0  0  0  0
 26 77  1  0  0  0  0
 27 31  2  0  0  0  0
 27 76  1  0  0  0  0
 28 30  2  0  0  0  0
 28 78  1  0  0  0  0
 29 79  1  0  0  0  0
 30 80  1  0  0  0  0
 31 81  1  0  0  0  0
 32 61  2  0  0  0  0
 33 62  1  0  0  0  0
 33 65  1  0  0  0  0
 34 66  1  0  0  0  0
 34 71  2  0  0  0  0
 35 49  1  0  0  0  0
 35 68  1  0  0  0  0
 35 72  2  0  0  0  0
 36 58  1  0  0  0  0
 36 63  1  0  0  0  0
 36 73  2  0  0  0  0
 37 59  1  0  0  0  0
 37 69  1  0  0  0  0
 37 74  2  0  0  0  0
 38 64  1  0  0  0  0
 38 67  1  0  0  0  0
 38 75  2  0  0  0  0
 39 42  1  0  0  0  0
 40 49  1  0  0  0  0
 41 63  1  0  0  0  0
 42 44  1  0  0  0  0
 43 45  1  0  0  0  0
 43 46  1  0  0  0  0
 44 48  1  0  0  0  0
 45 50  1  0  0  0  0
 46 64  1  0  0  0  0
 47 50  1  0  0  0  0
 47 64  1  0  0  0  0
 48 68  1  0  0  0  0
 49 63  1  0  0  0  0
 50 62  1  0  0  0  0
 51 59  1  0  0  0  0
 52 60  1  0  0  0  0
 53 60  1  0  0  0  0
 54 60  1  0  0  0  0
 55 70  1  0  0  0  0
 56 57  1  0  0  0  0
 56 77  1  0  0  0  0
 57 78  1  0  0  0  0
 58 60  1  0  0  0  0
 58 69  1  0  0  0  0
 59 70  1  0  0  0  0
 61 62  1  0  0  0  0
M  CHG  1  70   1
M  ISO  4  38 100  56 101  67 100  77 101
M  END
> <Batch ID>
0007

> <Smiles>
CNC(C)C(=O)NC(C(=O)N1Cc2cc([101O:1][101CH2:1]COc3ccc([100NH:0][100C:0](=O)N4CCCC(n5nc(-c6ccc(Oc7ccc(F)cc7F)cc6)c(C(N)=O)c5N)C4)cc3F)ccc2CC1C(=O)NC1CCCc2ccccc21)C(C)(C)C

> <Shape>
0.265

> <Color>
0.145

> <Negative vol penalty>
0.000

$$$$

  -OEChem-04042320323D

 73 80  0     1  0  0  0  0  0999 V2000
  -28.7485  -11.4171   19.9091 C   0  0  0  0  0  0  0  0  0  0  0  0
  -28.8789  -12.6951   19.3752 C   0  0  0  0  0  0  0  0  0  0  0  0
  -26.0858  -28.8294   20.5380 C   0  0  0  0  0  0  0  0  0  0  0  0
  -25.4611  -26.4979   20.6438 C   0  0  0  0  0  0  0  0  0  0  0  0
  -27.5209  -10.9983   20.4202 C   0  0  0  0  0  0  0  0  0  0  0  0
  -27.7813  -13.5548   19.3512 C   0  0  0  0  0  0  0  0  0  0  0  0
  -28.9569  -18.2489   20.8439 C   0  0  0  0  0  0  0  0  0  0  0  0
  -24.7576  -29.1739   20.2878 C   0  0  0  0  0  0  0  0  0  0  0  0
  -24.1328  -26.8425   20.3936 C   0  0  0  0  0  0  0  0  0  0  0  0
  -29.6081  -19.0662   19.9210 C   0  0  0  0  0  0  0  0  0  0  0  0
  -20.5182  -27.1399   20.1408 C   0  0  0  0  0  0  0  0  0  0  0  0
  -19.5325  -26.5338   20.9197 C   0  0  0  0  0  0  0  0  0  0  0  0
  -27.5138  -20.1500   19.4123 C   0  0  0  0  0  0  0  0  0  0  0  0
  -20.5249  -27.4777   22.9100 C   0  0  0  0  0  0  0  0  0  0  0  0
  -26.4376  -27.4913   20.7160 C   0  0  0  0  0  0  0  0  0  0  0  0
  -28.4375  -27.0233   22.2289 C   0  0  0  0  0  0  0  0  0  0  0  0
  -26.4101  -11.8567   20.4113 C   0  0  0  0  0  0  0  0  0  0  0  0
  -27.5751  -18.3688   21.0504 C   0  0  0  0  0  0  0  0  0  0  0  0
  -26.5372  -13.1466   19.8615 C   0  0  0  0  0  0  0  0  0  0  0  0
  -26.8480  -19.3347   20.3402 C   0  0  0  0  0  0  0  0  0  0  0  0
  -23.7811  -28.1805   20.2156 C   0  0  0  0  0  0  0  0  0  0  0  0
  -28.8860  -20.0149   19.2029 C   0  0  0  0  0  0  0  0  0  0  0  0
  -21.5073  -27.9147   20.7465 C   0  0  0  0  0  0  0  0  0  0  0  0
  -19.5358  -26.7028   22.3043 C   0  0  0  0  0  0  0  0  0  0  0  0
  -21.5107  -28.0837   22.1311 C   0  0  0  0  0  0  0  0  0  0  0  0
  -27.8096  -27.1347   20.9739 C   0  0  0  0  0  0  0  0  0  0  0  0
  -29.7299  -26.6628   21.9355 C   0  0  0  0  0  0  0  0  0  0  0  0
  -27.9004  -27.2272   23.5426 C   0  0  0  0  0  0  0  0  0  0  0  0
  -25.0756  -16.4409   20.6764 C   0  0  0  0  0  0  0  0  0  0  0  0
  -23.4735  -18.8854   22.0836 C   0  0  0  0  0  0  0  0  0  0  0  0
  -23.3199  -22.2195   22.7957 C   0  0  0  0  0  0  0  0  0  0  0  0
  -32.0912  -23.8931   17.1467 C   0  0  0  0  0  0  0  0  0  0  0  0
  -25.0913  -11.3427   20.9321 C   0  0  0  0  0  0  0  0  0  0  0  0
  -26.8922  -17.4978   22.0689 C   0  0  0  0  0  0  0  0  0  0  0  0
  -25.3663  -19.5172   20.5397 C   0  0  0  0  0  0  0  0  0  0  0  0
  -24.0744  -12.4467   21.2103 C   0  0  0  0  0  0  0  0  0  0  0  0
  -33.0648  -27.0723   18.5411 C   0  0  0  0  0  0  0  0  0  0  0  0
  -24.0208  -13.4292   20.0447 C   0  0  0  0  0  0  0  0  0  0  0  0
  -31.8641  -27.4545   19.4058 C   0  0  0  0  0  0  0  0  0  0  0  0
  -32.6340  -26.3100   17.2921 C   0  0  0  0  0  0  0  0  0  0  0  0
  -30.6054  -25.4729   18.4501 C   0  0  0  0  0  0  0  0  0  0  0  0
  -25.3761  -14.1169   19.8402 C   0  0  1  0  0  0  0  0  0  0  0  0
  -25.3929  -17.3562   21.8250 C   0  0  1  0  0  0  0  0  0  0  0  0
  -31.0048  -26.2206   19.7339 C   0  0  2  0  0  0  0  0  0  0  0  0
  -21.8714  -23.9273   23.9282 C   0  0  0  0  0  0  0  0  0  0  0  0
  -21.5571  -18.8303   19.7100 C   0  0  0  0  0  0  0  0  0  0  0  0
  -20.7485  -21.0973   20.3994 C   0  0  0  0  0  0  0  0  0  0  0  0
  -20.4561  -19.1513   21.9324 C   0  0  0  0  0  0  0  0  0  0  0  0
  -25.4469  -22.9073   24.7352 C   0  0  0  0  0  0  0  0  0  0  0  0
  -30.9245  -20.6254   18.1407 C   0  0  0  0  0  0  0  0  0  1  0  0
  -31.4404  -21.6054   17.1049 C   0  0  0  0  0  0  0  0  0  0  0  0
  -22.7647  -20.1236   21.5902 C   0  0  1  0  0  0  0  0  0  0  0  0
  -23.0348  -22.9612   24.0891 C   0  0  2  0  0  0  0  0  0  0  0  0
  -21.4092  -19.7961   20.9026 C   0  0  0  0  0  0  0  0  0  0  0  0
  -28.6353  -26.8669   19.9587 N   0  0  0  0  0  0  0  0  0  0  0  0
  -29.7952  -26.5837   20.5755 N   0  0  0  0  0  0  0  0  0  0  0  0
  -24.7428  -18.6375   21.5422 N   0  0  0  0  0  0  0  0  0  0  0  0
  -31.7879  -25.1677   17.6353 N   0  0  0  0  0  0  0  0  0  0  0  0
  -30.8056  -26.4090   22.7107 N   0  0  0  0  0  0  0  0  0  0  0  0
  -26.5533  -27.5944   23.6640 N   0  0  0  0  0  0  0  0  0  0  0  0
  -25.5682  -15.1586   20.8262 N   0  0  0  0  0  0  0  0  0  0  0  0
  -22.6517  -21.0147   22.7398 N   0  0  0  0  0  0  0  0  0  0  0  0
  -24.2336  -23.7363   24.5169 N   0  3  0  0  0  0  0  0  0  0  0  0
  -28.5988  -27.1040   24.5772 O   0  0  0  0  0  0  0  0  0  0  0  0
  -24.4303  -16.8662   19.7254 O   0  0  0  0  0  0  0  0  0  0  0  0
  -22.9243  -18.1686   22.9240 O   0  0  0  0  0  0  0  0  0  0  0  0
  -24.0585  -22.6661   21.9207 O   0  0  0  0  0  0  0  0  0  0  0  0
  -33.0510  -23.6395   16.4210 O   0  0  0  0  0  0  0  0  0  0  0  0
  -22.4848  -28.5164   19.9718 O   0  0  0  0  0  0  0  0  0  0  0  0
  -29.5190  -20.8135   18.3010 O   0  0  0  0  0  0  0  0  0  1  0  0
  -31.1991  -22.9408   17.5633 O   0  0  0  0  0  0  0  0  0  0  0  0
  -18.5883  -26.1220   23.0520 F   0  0  0  0  0  0  0  0  0  0  0  0
  -22.4577  -28.8279   22.7186 F   0  0  0  0  0  0  0  0  0  0  0  0
  1  2  1  0  0  0  0
  1  5  2  0  0  0  0
  2  6  2  0  0  0  0
  3  8  2  0  0  0  0
  3 15  1  0  0  0  0
  4  9  1  0  0  0  0
  4 15  2  0  0  0  0
  5 17  1  0  0  0  0
  6 19  1  0  0  0  0
  7 10  2  0  0  0  0
  7 18  1  0  0  0  0
  8 21  1  0  0  0  0
  9 21  2  0  0  0  0
 10 22  1  0  0  0  0
 11 12  2  0  0  0  0
 11 23  1  0  0  0  0
 12 24  1  0  0  0  0
 13 20  1  0  0  0  0
 13 22  2  0  0  0  0
 14 24  2  0  0  0  0
 14 25  1  0  0  0  0
 15 26  1  0  0  0  0
 16 26  1  0  0  0  0
 16 27  2  0  0  0  0
 16 28  1  0  0  0  0
 17 19  2  0  0  0  0
 17 33  1  0  0  0  0
 18 20  2  0  0  0  0
 18 34  1  0  0  0  0
 19 42  1  0  0  0  0
 20 35  1  0  0  0  0
 21 69  1  0  0  0  0
 22 70  1  0  0  0  0
 23 25  2  0  0  0  0
 23 69  1  0  0  0  0
 24 72  1  0  0  0  0
 25 73  1  0  0  0  0
 26 55  2  0  0  0  0
 27 56  1  0  0  0  0
 27 59  1  0  0  0  0
 28 60  1  0  0  0  0
 28 64  2  0  0  0  0
 29 43  1  0  0  0  0
 29 61  1  0  0  0  0
 29 65  2  0  0  0  0
 30 52  1  0  0  0  0
 30 57  1  0  0  0  0
 30 66  2  0  0  0  0
 31 53  1  0  0  0  0
 31 62  1  0  0  0  0
 31 67  2  0  0  0  0
 32 58  1  0  0  0  0
 32 68  2  0  0  0  0
 32 71  1  0  0  0  0
 33 36  1  0  0  0  0
 34 43  1  0  0  0  0
 35 57  1  0  0  0  0
 36 38  1  0  0  0  0
 37 39  1  0  0  0  0
 37 40  1  0  0  0  0
 38 42  1  0  0  0  0
 39 44  1  0  0  0  0
 40 58  1  0  0  0  0
 41 44  1  0  0  0  0
 41 58  1  0  0  0  0
 42 61  1  0  0  0  0
 43 57  1  0  0  0  0
 44 56  1  0  0  0  0
 45 53  1  0  0  0  0
 46 54  1  0  0  0  0
 47 54  1  0  0  0  0
 48 54  1  0  0  0  0
 49 63  1  0  0  0  0
 50 51  1  0  0  0  0
 50 70  1  0  0  0  0
 51 71  1  0  0  0  0
 52 54  1  0  0  0  0
 52 62  1  0  0  0  0
 53 63  1  0  0  0  0
 55 56  1  0  0  0  0
M  CHG  1  63   1
M  ISO  4  32 100  50 101  70 101  71 100
M  END
> <Batch ID>
0007

> <Smiles>
CNC(C)C(=O)NC(C(=O)N1Cc2cc([101O:1][101CH2:1]C[100O:0][100C:0](=O)N3CCCC(n4nc(-c5ccc(Oc6ccc(F)cc6F)cc5)c(C(N)=O)c4N)C3)ccc2CC1C(=O)NC1CCCc2ccccc21)C(C)(C)C

> <Shape>
0.224

> <Color>
0.066

> <Negative vol penalty>
0.000

$$$$

  -OEChem-04042320323D

 83 91  0     1  0  0  0  0  0999 V2000
  -27.3630  -22.8303   18.9214 C   0  0  0  0  0  0  0  0  0  0  0  0
  -26.1738  -23.3812   19.3880 C   0  0  0  0  0  0  0  0  0  0  0  0
  -26.1684  -14.6908   20.8950 C   0  0  0  0  0  0  0  0  0  0  0  0
  -24.0202  -14.3683   19.8376 C   0  0  0  0  0  0  0  0  0  0  0  0
  -28.5805  -23.2458   19.4589 C   0  0  0  0  0  0  0  0  0  0  0  0
  -26.2014  -24.3472   20.3933 C   0  0  0  0  0  0  0  0  0  0  0  0
  -23.1247  -28.2504   19.4216 C   0  0  0  0  0  0  0  0  0  0  0  0
  -17.6640  -23.6320   20.0231 C   0  0  0  0  0  0  0  0  0  0  0  0
  -17.9385  -22.3824   19.4677 C   0  0  0  0  0  0  0  0  0  0  0  0
  -26.3649  -13.3101   20.9171 C   0  0  0  0  0  0  0  0  0  0  0  0
  -24.2167  -12.9875   19.8596 C   0  0  0  0  0  0  0  0  0  0  0  0
  -21.7628  -28.0603   19.6517 C   0  0  0  0  0  0  0  0  0  0  0  0
  -23.9929   -9.3613   19.9633 C   0  0  0  0  0  0  0  0  0  0  0  0
  -22.9269   -8.5613   20.3745 C   0  0  0  0  0  0  0  0  0  0  0  0
  -21.9628  -29.2201   21.7574 C   0  0  0  0  0  0  0  0  0  0  0  0
  -17.7863  -22.6745   22.2379 C   0  0  0  0  0  0  0  0  0  0  0  0
  -22.9205   -9.6724   22.5199 C   0  0  0  0  0  0  0  0  0  0  0  0
  -24.9960  -15.2199   20.3553 C   0  0  0  0  0  0  0  0  0  0  0  0
  -25.1606  -17.5415   19.3108 C   0  0  0  0  0  0  0  0  0  0  0  0
  -28.6236  -24.2244   20.4644 C   0  0  0  0  0  0  0  0  0  0  0  0
  -23.9194  -28.9184   20.3643 C   0  0  0  0  0  0  0  0  0  0  0  0
  -27.4205  -24.7753   20.9456 C   0  0  0  0  0  0  0  0  0  0  0  0
  -23.3340  -29.4197   21.5357 C   0  0  0  0  0  0  0  0  0  0  0  0
  -17.5880  -23.7781   21.4083 C   0  0  0  0  0  0  0  0  0  0  0  0
  -18.1368  -21.2787   20.2973 C   0  0  0  0  0  0  0  0  0  0  0  0
  -18.0607  -21.4248   21.6824 C   0  0  0  0  0  0  0  0  0  0  0  0
  -25.3891  -12.4584   20.3993 C   0  0  0  0  0  0  0  0  0  0  0  0
  -21.1822  -28.5426   20.8210 C   0  0  0  0  0  0  0  0  0  0  0  0
  -24.5228  -10.3169   20.8304 C   0  0  0  0  0  0  0  0  0  0  0  0
  -22.3907   -8.7168   21.6528 C   0  0  0  0  0  0  0  0  0  0  0  0
  -23.9865  -10.4725   22.1087 C   0  0  0  0  0  0  0  0  0  0  0  0
  -24.7922  -16.6461   20.3328 C   0  0  0  0  0  0  0  0  0  0  0  0
  -24.7507  -18.7705   19.7668 C   0  0  0  0  0  0  0  0  0  0  0  0
  -25.8148  -17.2851   18.0610 C   0  0  0  0  0  0  0  0  0  0  0  0
  -26.4296  -28.1263   22.1462 C   0  0  0  0  0  0  0  0  0  0  0  0
  -26.3752  -31.2737   22.9294 C   0  0  0  0  0  0  0  0  0  0  0  0
  -24.5744  -34.1593   23.2077 C   0  0  0  0  0  0  0  0  0  0  0  0
  -20.5101  -20.4781   23.6337 C   0  0  0  0  0  0  0  0  0  0  0  0
  -29.9607  -24.6074   21.0478 C   0  0  0  0  0  0  0  0  0  0  0  0
  -25.3816  -29.1388   20.0889 C   0  0  0  0  0  0  0  0  0  0  0  0
  -24.1393  -30.1614   22.5700 C   0  0  0  0  0  0  0  0  0  0  0  0
  -29.9265  -25.9073   21.8474 C   0  0  0  0  0  0  0  0  0  0  0  0
  -23.9919  -21.1986   23.8189 C   0  0  0  0  0  0  0  0  0  0  0  0
  -28.7307  -25.9202   22.7944 C   0  0  0  0  0  0  0  0  0  0  0  0
  -24.6251  -20.1943   22.8543 C   0  0  0  0  0  0  0  0  0  0  0  0
  -22.8034  -20.5940   24.5631 C   0  0  0  0  0  0  0  0  0  0  0  0
  -22.4022  -18.9933   22.7327 C   0  0  0  0  0  0  0  0  0  0  0  0
  -27.4109  -25.8435   22.0175 C   0  0  1  0  0  0  0  0  0  0  0  0
  -26.1979  -29.3822   21.3545 C   0  0  1  0  0  0  0  0  0  0  0  0
  -23.5703  -19.5746   21.9180 C   0  0  2  0  0  0  0  0  0  0  0  0
  -18.4282  -19.9505   19.6796 C   0  0  0  0  0  0  0  0  0  0  0  0
  -24.7936  -36.5579   23.9117 C   0  0  0  0  0  0  0  0  0  0  0  0
  -26.3303  -30.4159   25.8572 C   0  0  0  0  0  0  0  0  0  0  0  0
  -25.6005  -32.7355   26.4533 C   0  0  0  0  0  0  0  0  0  0  0  0
  -27.8145  -32.3675   25.3646 C   0  0  0  0  0  0  0  0  0  0  0  0
  -23.8661  -35.1379   20.5060 C   0  0  0  0  0  0  0  0  0  0  0  0
  -18.2691  -20.2573   22.5904 C   0  0  0  0  0  0  0  0  0  0  0  0
  -17.2923  -25.1223   22.0055 C   0  0  0  0  0  0  0  0  0  0  0  0
  -18.1744  -27.4093   22.4851 C   0  0  0  0  0  0  0  0  0  0  0  0
  -19.4365  -28.2456   22.4086 C   0  0  0  0  0  0  0  0  0  1  0  0
  -25.7027  -32.0972   24.0011 C   0  0  1  0  0  0  0  0  0  0  0  0
  -24.8672  -35.5773   22.7517 C   0  0  2  0  0  0  0  0  0  0  0  0
  -26.3469  -31.8884   25.4006 C   0  0  0  0  0  0  0  0  0  0  0  0
  -24.1944  -17.2546   21.3606 N   0  0  0  0  0  0  0  0  0  0  0  0
  -24.1841  -18.5454   20.9868 N   0  0  0  0  0  0  0  0  0  0  0  0
  -25.5662  -30.3460   22.2579 N   0  0  0  0  0  0  0  0  0  0  0  0
  -21.8396  -20.0251   23.6180 N   0  0  0  0  0  0  0  0  0  0  0  0
  -24.8234  -20.0110   19.2393 N   0  0  0  0  0  0  0  0  0  0  0  0
  -26.1671  -15.9648   17.7498 N   0  0  0  0  0  0  0  0  0  0  0  0
  -27.0855  -27.1323   21.4453 N   0  0  0  0  0  0  0  0  0  0  0  0
  -25.7288  -33.4782   23.5313 N   0  0  0  0  0  0  0  0  0  0  0  0
  -19.6636  -19.8913   22.7010 N   0  0  0  0  0  0  0  0  0  0  0  0
  -23.8844  -36.0013   21.7148 N   0  3  0  0  0  0  0  0  0  0  0  0
  -18.4539  -26.0508   21.9556 N   0  3  0  0  0  0  0  0  0  0  0  0
  -26.0939  -18.2020   17.2518 O   0  0  0  0  0  0  0  0  0  0  0  0
  -26.0433  -28.0642   23.3075 O   0  0  0  0  0  0  0  0  0  0  0  0
  -27.5724  -31.4521   22.6917 O   0  0  0  0  0  0  0  0  0  0  0  0
  -23.4352  -33.7027   23.2740 O   0  0  0  0  0  0  0  0  0  0  0  0
  -20.1086  -21.3454   24.4170 O   0  0  0  0  0  0  0  0  0  0  0  0
  -25.5806  -11.1110   20.4204 O   0  0  0  0  0  0  0  0  0  0  0  0
  -19.8533  -28.3579   21.0484 O   0  0  0  0  0  0  0  0  0  1  0  0
  -21.3660   -7.9495   22.0470 F   0  0  0  0  0  0  0  0  0  0  0  0
  -24.4906  -11.3896   22.9457 F   0  0  0  0  0  0  0  0  0  0  0  0
  1  2  1  0  0  0  0
  1  5  2  0  0  0  0
  2  6  2  0  0  0  0
  3 10  2  0  0  0  0
  3 18  1  0  0  0  0
  4 11  1  0  0  0  0
  4 18  2  0  0  0  0
  5 20  1  0  0  0  0
  6 22  1  0  0  0  0
  7 12  2  0  0  0  0
  7 21  1  0  0  0  0
  8  9  2  0  0  0  0
  8 24  1  0  0  0  0
  9 25  1  0  0  0  0
 10 27  1  0  0  0  0
 11 27  2  0  0  0  0
 12 28  1  0  0  0  0
 13 14  2  0  0  0  0
 13 29  1  0  0  0  0
 14 30  1  0  0  0  0
 15 23  1  0  0  0  0
 15 28  2  0  0  0  0
 16 24  2  0  0  0  0
 16 26  1  0  0  0  0
 17 30  2  0  0  0  0
 17 31  1  0  0  0  0
 18 32  1  0  0  0  0
 19 32  1  0  0  0  0
 19 33  2  0  0  0  0
 19 34  1  0  0  0  0
 20 22  2  0  0  0  0
 20 39  1  0  0  0  0
 21 23  2  0  0  0  0
 21 40  1  0  0  0  0
 22 48  1  0  0  0  0
 23 41  1  0  0  0  0
 24 58  1  0  0  0  0
 25 26  2  0  0  0  0
 25 51  1  0  0  0  0
 26 57  1  0  0  0  0
 27 80  1  0  0  0  0
 28 81  1  0  0  0  0
 29 31  2  0  0  0  0
 29 80  1  0  0  0  0
 30 82  1  0  0  0  0
 31 83  1  0  0  0  0
 32 64  2  0  0  0  0
 33 65  1  0  0  0  0
 33 68  1  0  0  0  0
 34 69  1  0  0  0  0
 34 75  2  0  0  0  0
 35 49  1  0  0  0  0
 35 70  1  0  0  0  0
 35 76  2  0  0  0  0
 36 61  1  0  0  0  0
 36 66  1  0  0  0  0
 36 77  2  0  0  0  0
 37 62  1  0  0  0  0
 37 71  1  0  0  0  0
 37 78  2  0  0  0  0
 38 67  1  0  0  0  0
 38 72  1  0  0  0  0
 38 79  2  0  0  0  0
 39 42  1  0  0  0  0
 40 49  1  0  0  0  0
 41 66  1  0  0  0  0
 42 44  1  0  0  0  0
 43 45  1  0  0  0  0
 43 46  1  0  0  0  0
 44 48  1  0  0  0  0
 45 50  1  0  0  0  0
 46 67  1  0  0  0  0
 47 50  1  0  0  0  0
 47 67  1  0  0  0  0
 48 70  1  0  0  0  0
 49 66  1  0  0  0  0
 50 65  1  0  0  0  0
 52 62  1  0  0  0  0
 53 63  1  0  0  0  0
 54 63  1  0  0  0  0
 55 63  1  0  0  0  0
 56 73  1  0  0  0  0
 57 72  1  0  0  0  0
 58 74  1  0  0  0  0
 59 60  1  0  0  0  0
 59 74  1  0  0  0  0
 60 81  1  0  0  0  0
 61 63  1  0  0  0  0
 61 71  1  0  0  0  0
 62 73  1  0  0  0  0
 64 65  1  0  0  0  0
M  CHG  2  73   1  74   1
M  ISO  4  38 100  60 101  72 100  81 101
M  END
> <Batch ID>
0007

> <Smiles>
CNC(C)C(=O)NC(C(=O)N1Cc2cc([101O:1][101CH2:1]CNCc3ccc(C)c(C[100NH:0][100C:0](=O)N4CCCC(n5nc(-c6ccc(Oc7ccc(F)cc7F)cc6)c(C(N)=O)c5N)C4)c3)ccc2CC1C(=O)NC1CCCc2ccccc21)C(C)(C)C

> <Shape>
0.237

> <Color>
0.070

> <Negative vol penalty>
0.000

$$$$

  -OEChem-04042320323D

 81 89  0     1  0  0  0  0  0999 V2000
  -26.4245  -29.7545   30.7501 C   0  0  0  0  0  0  0  0  0  0  0  0
  -26.4229  -28.3699   30.6141 C   0  0  0  0  0  0  0  0  0  0  0  0
  -23.3113  -10.2179   22.2373 C   0  0  0  0  0  0  0  0  0  0  0  0
  -23.5946   -9.5404   19.9356 C   0  0  0  0  0  0  0  0  0  0  0  0
  -25.8696  -30.5526   29.7506 C   0  0  0  0  0  0  0  0  0  0  0  0
  -25.8653  -27.7826   29.4789 C   0  0  0  0  0  0  0  0  0  0  0  0
  -29.7985  -23.5404   25.1865 C   0  0  0  0  0  0  0  0  0  0  0  0
  -22.5656   -9.0654   22.4848 C   0  0  0  0  0  0  0  0  0  0  0  0
  -22.8489   -8.3879   20.1831 C   0  0  0  0  0  0  0  0  0  0  0  0
  -30.4267  -22.5490   24.4324 C   0  0  0  0  0  0  0  0  0  0  0  0
  -19.4109   -7.9773   21.9481 C   0  0  0  0  0  0  0  0  0  0  0  0
  -18.2307   -8.1144   22.6788 C   0  0  0  0  0  0  0  0  0  0  0  0
  -28.4820  -22.3881   23.0041 C   0  0  0  0  0  0  0  0  0  0  0  0
  -19.1000   -6.6169   24.3637 C   0  0  0  0  0  0  0  0  0  0  0  0
  -23.8258  -10.4555   20.9627 C   0  0  0  0  0  0  0  0  0  0  0  0
  -24.1706  -12.9805   20.8495 C   0  0  0  0  0  0  0  0  0  0  0  0
  -25.3136  -29.9752   28.5981 C   0  0  0  0  0  0  0  0  0  0  0  0
  -28.5140  -23.9708   24.8424 C   0  0  0  0  0  0  0  0  0  0  0  0
  -25.3012  -28.5737   28.4637 C   0  0  0  0  0  0  0  0  0  0  0  0
  -27.8526  -23.3896   23.7481 C   0  0  0  0  0  0  0  0  0  0  0  0
  -22.3345   -8.1504   21.4577 C   0  0  0  0  0  0  0  0  0  0  0  0
  -29.7700  -21.9741   23.3441 C   0  0  0  0  0  0  0  0  0  0  0  0
  -20.4357   -7.1600   22.4251 C   0  0  0  0  0  0  0  0  0  0  0  0
  -18.0753   -7.4342   23.8866 C   0  0  0  0  0  0  0  0  0  0  0  0
  -20.2802   -6.4798   23.6330 C   0  0  0  0  0  0  0  0  0  0  0  0
  -24.5956  -11.6461   20.7062 C   0  0  0  0  0  0  0  0  0  0  0  0
  -25.2626  -13.7297   20.4851 C   0  0  0  0  0  0  0  0  0  0  0  0
  -22.9022  -13.4967   21.2740 C   0  0  0  0  0  0  0  0  0  0  0  0
  -25.6438  -26.2656   25.5987 C   0  0  0  0  0  0  0  0  0  0  0  0
  -25.9382  -26.1830   22.5463 C   0  0  0  0  0  0  0  0  0  0  0  0
  -26.8615  -26.1483   19.2625 C   0  0  0  0  0  0  0  0  0  0  0  0
  -30.7483  -14.7408   20.6594 C   0  0  0  0  0  0  0  0  0  0  0  0
  -24.6829  -30.8767   27.5665 C   0  0  0  0  0  0  0  0  0  0  0  0
  -27.7749  -24.9923   25.6634 C   0  0  0  0  0  0  0  0  0  0  0  0
  -26.4580  -23.8594   23.4359 C   0  0  0  0  0  0  0  0  0  0  0  0
  -24.4485  -30.1930   26.2219 C   0  0  0  0  0  0  0  0  0  0  0  0
  -33.6869  -20.8995   19.9146 C   0  0  0  0  0  0  0  0  0  0  0  0
  -29.6000  -12.3653   18.2688 C   0  0  0  0  0  0  0  0  0  0  0  0
  -34.0627  -19.5073   20.3974 C   0  0  0  0  0  0  0  0  0  0  0  0
  -23.8100  -28.8225   26.4241 C   0  0  0  0  0  0  0  0  0  0  0  0
  -28.1635  -12.0721   18.7053 C   0  0  0  0  0  0  0  0  0  0  0  0
  -32.4225  -21.3919   20.6051 C   0  0  0  0  0  0  0  0  0  0  0  0
  -30.5212  -12.5811   19.4674 C   0  0  0  0  0  0  0  0  0  0  0  0
  -28.6248  -13.3104   20.8623 C   0  0  0  0  0  0  0  0  0  0  0  0
  -32.9137  -18.5293   20.2212 C   0  0  0  0  0  0  0  0  0  0  0  0
  -24.7280  -27.9005   27.2356 C   0  0  1  0  0  0  0  0  0  0  0  0
  -26.8742  -25.9097   24.8170 C   0  0  1  0  0  0  0  0  0  0  0  0
  -27.6467  -13.1408   19.6872 C   0  0  2  0  0  0  0  0  0  0  0  0
  -31.2504  -20.4158   20.4422 C   0  0  2  0  0  0  0  0  0  0  0  0
  -26.2164  -27.0835   17.0250 C   0  0  0  0  0  0  0  0  0  0  0  0
  -30.4291  -17.2755   23.3253 C   0  0  0  0  0  0  0  0  0  0  0  0
  -23.6142  -24.2129   22.3971 C   0  0  0  0  0  0  0  0  0  0  0  0
  -23.6262  -24.4967   19.9096 C   0  0  0  0  0  0  0  0  0  0  0  0
  -23.1510  -26.4520   21.3839 C   0  0  0  0  0  0  0  0  0  0  0  0
  -29.4626  -27.5272   18.9593 C   0  0  0  0  0  0  0  0  0  0  0  0
  -30.0427  -20.9219   21.2284 C   0  0  0  0  0  0  0  0  0  1  0  0
  -30.5873  -18.0015   20.8832 C   0  0  0  0  0  0  0  0  0  0  0  0
  -25.5067  -25.5436   21.2508 C   0  0  1  0  0  0  0  0  0  0  0  0
  -27.0770  -27.2717   18.2646 C   0  0  2  0  0  0  0  0  0  0  0  0
  -30.8210  -16.8873   21.9028 C   0  0  2  0  0  0  0  0  0  0  0  0
  -23.9980  -25.1678   21.2491 C   0  0  0  0  0  0  0  0  0  0  0  0
  -25.8590  -11.5499   20.2837 N   0  0  0  0  0  0  0  0  0  0  0  0
  -26.2373  -12.8334   20.1582 N   0  0  0  0  0  0  0  0  0  0  0  0
  -26.3819  -25.3235   23.5588 N   0  0  0  0  0  0  0  0  0  0  0  0
  -29.9748  -13.6076   20.3584 N   0  0  0  0  0  0  0  0  0  0  0  0
  -25.4746  -15.0611   20.4156 N   0  0  0  0  0  0  0  0  0  0  0  0
  -21.8901  -12.5879   21.6116 N   0  0  0  0  0  0  0  0  0  0  0  0
  -25.7898  -27.3818   26.4001 N   0  0  0  0  0  0  0  0  0  0  0  0
  -25.8933  -26.4683   20.1907 N   0  0  0  0  0  0  0  0  0  0  0  0
  -30.1531  -15.6677   21.5062 N   0  0  0  0  0  0  0  0  0  0  0  0
  -31.6820  -19.0395   20.9436 N   0  3  1  0  0  0  0  0  0  0  0  0
  -28.5052  -27.3222   17.8420 N   0  3  0  0  0  0  0  0  0  0  0  0
  -22.6678  -14.7275   21.3359 O   0  0  0  0  0  0  0  0  0  0  0  0
  -24.6350  -25.5796   25.4830 O   0  0  0  0  0  0  0  0  0  0  0  0
  -25.8791  -27.4103   22.6623 O   0  0  0  0  0  0  0  0  0  0  0  0
  -27.4867  -25.0910   19.2205 O   0  0  0  0  0  0  0  0  0  0  0  0
  -31.8831  -14.9161   20.2027 O   0  0  0  0  0  0  0  0  0  0  0  0
  -21.6071   -7.0255   21.6989 O   0  0  0  0  0  0  0  0  0  0  0  0
  -30.3909  -21.0100   22.6095 O   0  0  0  0  0  0  0  0  0  1  0  0
  -16.9425   -7.5671   24.5890 F   0  0  0  0  0  0  0  0  0  0  0  0
  -21.2616   -5.6941   24.0970 F   0  0  0  0  0  0  0  0  0  0  0  0
  1  2  1  0  0  0  0
  1  5  2  0  0  0  0
  2  6  2  0  0  0  0
  3  8  2  0  0  0  0
  3 15  1  0  0  0  0
  4  9  1  0  0  0  0
  4 15  2  0  0  0  0
  5 17  1  0  0  0  0
  6 19  1  0  0  0  0
  7 10  2  0  0  0  0
  7 18  1  0  0  0  0
  8 21  1  0  0  0  0
  9 21  2  0  0  0  0
 10 22  1  0  0  0  0
 11 12  2  0  0  0  0
 11 23  1  0  0  0  0
 12 24  1  0  0  0  0
 13 20  1  0  0  0  0
 13 22  2  0  0  0  0
 14 24  2  0  0  0  0
 14 25  1  0  0  0  0
 15 26  1  0  0  0  0
 16 26  1  0  0  0  0
 16 27  2  0  0  0  0
 16 28  1  0  0  0  0
 17 19  2  0  0  0  0
 17 33  1  0  0  0  0
 18 20  2  0  0  0  0
 18 34  1  0  0  0  0
 19 46  1  0  0  0  0
 20 35  1  0  0  0  0
 21 78  1  0  0  0  0
 22 79  1  0  0  0  0
 23 25  2  0  0  0  0
 23 78  1  0  0  0  0
 24 80  1  0  0  0  0
 25 81  1  0  0  0  0
 26 62  2  0  0  0  0
 27 63  1  0  0  0  0
 27 66  1  0  0  0  0
 28 67  1  0  0  0  0
 28 73  2  0  0  0  0
 29 47  1  0  0  0  0
 29 68  1  0  0  0  0
 29 74  2  0  0  0  0
 30 58  1  0  0  0  0
 30 64  1  0  0  0  0
 30 75  2  0  0  0  0
 31 59  1  0  0  0  0
 31 69  1  0  0  0  0
 31 76  2  0  0  0  0
 32 65  1  0  0  0  0
 32 70  1  0  0  0  0
 32 77  2  0  0  0  0
 33 36  1  0  0  0  0
 34 47  1  0  0  0  0
 35 64  1  0  0  0  0
 36 40  1  0  0  0  0
 37 39  1  0  0  0  0
 37 42  1  0  0  0  0
 38 41  1  0  0  0  0
 38 43  1  0  0  0  0
 39 45  1  0  0  0  0
 40 46  1  0  0  0  0
 41 48  1  0  0  0  0
 42 49  1  0  0  0  0
 43 65  1  0  0  0  0
 44 48  1  0  0  0  0
 44 65  1  0  0  0  0
 45 71  1  0  0  0  0
 46 68  1  0  0  0  0
 47 64  1  0  0  0  0
 48 63  1  0  0  0  0
 49 56  1  0  0  0  0
 49 71  1  0  0  0  0
 50 59  1  0  0  0  0
 51 60  1  0  0  0  0
 52 61  1  0  0  0  0
 53 61  1  0  0  0  0
 54 61  1  0  0  0  0
 55 72  1  0  0  0  0
 56 79  1  0  0  0  0
 57 60  1  0  0  0  0
 57 71  1  0  0  0  0
 58 61  1  0  0  0  0
 58 69  1  0  0  0  0
 59 72  1  0  0  0  0
 60 70  1  0  0  0  0
 62 63  1  0  0  0  0
M  CHG  2  71   1  72   1
M  ISO  4  32 100  56 101  70 100  79 101
M  END
> <Batch ID>
0007

> <Smiles>
CNC(C)C(=O)NC(C(=O)N1Cc2cc([101O:1][101CH2:1]C3CCCCN3CC(C)[100NH:0][100C:0](=O)N3CCCC(n4nc(-c5ccc(Oc6ccc(F)cc6F)cc5)c(C(N)=O)c4N)C3)ccc2CC1C(=O)NC1CCCc2ccccc21)C(C)(C)C

> <Shape>
0.197

> <Color>
0.192

> <Negative vol penalty>
0.000

$$$$

  -OEChem-04042320323D

 84 93  0     1  0  0  0  0  0999 V2000
  -30.2622  -22.5516   14.8012 C   0  0  0  0  0  0  0  0  0  0  0  0
  -29.7487  -22.3130   16.0719 C   0  0  0  0  0  0  0  0  0  0  0  0
  -28.3033  -12.6734   20.7722 C   0  0  0  0  0  0  0  0  0  0  0  0
  -28.4721  -14.2268   18.9296 C   0  0  0  0  0  0  0  0  0  0  0  0
  -30.6676  -23.8370   14.4445 C   0  0  0  0  0  0  0  0  0  0  0  0
  -29.6413  -23.3596   16.9871 C   0  0  0  0  0  0  0  0  0  0  0  0
  -25.1929  -23.3757   19.4070 C   0  0  0  0  0  0  0  0  0  0  0  0
  -21.2724  -17.7156   23.0747 C   0  0  0  0  0  0  0  0  0  0  0  0
  -29.2661  -11.8600   20.1747 C   0  0  0  0  0  0  0  0  0  0  0  0
  -29.4349  -13.4134   18.3320 C   0  0  0  0  0  0  0  0  0  0  0  0
  -25.0298  -22.4602   20.4458 C   0  0  0  0  0  0  0  0  0  0  0  0
  -21.7068  -19.0365   22.9442 C   0  0  0  0  0  0  0  0  0  0  0  0
  -32.6315  -11.8088   19.8523 C   0  0  0  0  0  0  0  0  0  0  0  0
  -33.6481  -11.3046   20.6634 C   0  0  0  0  0  0  0  0  0  0  0  0
  -25.4879  -24.2050   22.0473 C   0  0  0  0  0  0  0  0  0  0  0  0
  -22.3554  -19.0543   25.2621 C   0  0  0  0  0  0  0  0  0  0  0  0
  -32.9615   -9.0519   20.1236 C   0  0  0  0  0  0  0  0  0  0  0  0
  -27.9063  -13.8568   20.1496 C   0  0  0  0  0  0  0  0  0  0  0  0
  -27.1322  -15.7503   21.6739 C   0  0  0  0  0  0  0  0  0  0  0  0
  -30.5562  -24.9018   15.3524 C   0  0  0  0  0  0  0  0  0  0  0  0
  -25.5160  -24.7125   19.6806 C   0  0  0  0  0  0  0  0  0  0  0  0
  -30.0469  -24.6602   16.6426 C   0  0  0  0  0  0  0  0  0  0  0  0
  -25.6520  -25.1360   21.0104 C   0  0  0  0  0  0  0  0  0  0  0  0
  -21.9299  -17.7245   25.4034 C   0  0  0  0  0  0  0  0  0  0  0  0
  -21.3955  -17.0348   24.2960 C   0  0  0  0  0  0  0  0  0  0  0  0
  -29.8319  -12.2300   18.9546 C   0  0  0  0  0  0  0  0  0  0  0  0
  -25.1801  -22.8741   21.7661 C   0  0  0  0  0  0  0  0  0  0  0  0
  -22.2532  -19.7036   24.0348 C   0  0  0  0  0  0  0  0  0  0  0  0
  -31.7799  -10.9345   19.1769 C   0  0  0  0  0  0  0  0  0  0  0  0
  -33.8132   -9.9262   20.7990 C   0  0  0  0  0  0  0  0  0  0  0  0
  -31.9449   -9.5561   19.3126 C   0  0  0  0  0  0  0  0  0  0  0  0
  -26.9114  -14.6972   20.7661 C   0  0  0  0  0  0  0  0  0  0  0  0
  -25.8760  -16.2267   21.9593 C   0  0  0  0  0  0  0  0  0  0  0  0
  -28.3629  -16.2530   22.2109 C   0  0  0  0  0  0  0  0  0  0  0  0
  -27.9676  -26.6143   18.9901 C   0  0  0  0  0  0  0  0  0  0  0  0
  -26.0932  -28.8793   20.3609 C   0  0  0  0  0  0  0  0  0  0  0  0
  -23.5487  -29.6220   22.5103 C   0  0  0  0  0  0  0  0  0  0  0  0
  -20.5542  -14.8444   23.3982 C   0  0  0  0  0  0  0  0  0  0  0  0
  -31.0516  -26.2645   14.9374 C   0  0  0  0  0  0  0  0  0  0  0  0
  -25.6622  -25.6937   18.5499 C   0  0  0  0  0  0  0  0  0  0  0  0
  -25.9785  -26.5646   21.3582 C   0  0  0  0  0  0  0  0  0  0  0  0
  -22.0154  -17.0808   26.7604 C   0  0  0  0  0  0  0  0  0  0  0  0
  -30.5561  -27.3930   15.8382 C   0  0  0  0  0  0  0  0  0  0  0  0
  -21.4005  -15.3056   19.8214 C   0  0  0  0  0  0  0  0  0  0  0  0
  -30.7221  -27.0158   17.3068 C   0  0  0  0  0  0  0  0  0  0  0  0
  -22.9231  -15.1867   19.8173 C   0  0  0  0  0  0  0  0  0  0  0  0
  -20.7735  -14.5058   20.9591 C   0  0  0  0  0  0  0  0  0  0  0  0
  -22.8424  -14.7451   22.3038 C   0  0  0  0  0  0  0  0  0  0  0  0
  -20.6759  -15.2312   25.8166 C   0  0  0  0  0  0  0  0  0  0  0  0
  -29.8917  -25.7744   17.6548 C   0  0  1  0  0  0  0  0  0  0  0  0
  -26.4970  -26.9150   18.9228 C   0  0  1  0  0  0  0  0  0  0  0  0
  -23.5004  -15.5720   21.1891 C   0  0  1  0  0  0  0  0  0  0  0  0
  -22.2679  -31.5644   23.4507 C   0  0  0  0  0  0  0  0  0  0  0  0
  -28.4479  -29.5466   22.1830 C   0  0  0  0  0  0  0  0  0  0  0  0
  -26.8551  -30.7714   23.6766 C   0  0  0  0  0  0  0  0  0  0  0  0
  -27.1956  -31.5347   21.3263 C   0  0  0  0  0  0  0  0  0  0  0  0
  -21.6733  -14.9940   28.0951 C   0  0  0  0  0  0  0  0  0  0  0  0
  -20.9957  -28.6315   21.3878 C   0  0  0  0  0  0  0  0  0  0  0  0
  -24.5390  -22.4915   24.0240 C   0  0  0  0  0  0  0  0  0  1  0  0
  -23.7534  -21.4093   24.7390 C   0  0  0  0  0  0  0  0  0  0  0  0
  -25.9043  -29.4054   21.7632 C   0  0  1  0  0  0  0  0  0  0  0  0
  -22.3269  -30.5098   22.3565 C   0  0  2  0  0  0  0  0  0  0  0  0
  -27.0965  -30.2871   22.2310 C   0  0  0  0  0  0  0  0  0  0  0  0
  -25.6167  -14.5148   20.4931 N   0  0  0  0  0  0  0  0  0  0  0  0
  -25.0127  -15.4596   21.2338 N   0  0  0  0  0  0  0  0  0  0  0  0
  -20.9569  -15.6752   24.4556 N   0  0  0  0  0  0  0  0  0  0  0  0
  -26.1180  -27.4848   20.2174 N   0  0  0  0  0  0  0  0  0  0  0  0
  -21.3740  -14.8363   22.2524 N   0  0  0  0  0  0  0  0  0  0  0  0
  -25.4367  -17.2226   22.7578 N   0  0  0  0  0  0  0  0  0  0  0  0
  -29.5626  -15.6481   21.8119 N   0  0  0  0  0  0  0  0  0  0  0  0
  -28.4967  -26.1268   17.8104 N   0  0  0  0  0  0  0  0  0  0  0  0
  -24.6157  -30.0892   21.7725 N   0  0  0  0  0  0  0  0  0  0  0  0
  -21.8158  -15.5870   26.7247 N   0  3  2  0  0  0  0  0  0  0  0  0
  -21.0818  -29.6936   22.4229 N   0  3  0  0  0  0  0  0  0  0  0  0
  -28.3965  -17.1996   23.0334 O   0  0  0  0  0  0  0  0  0  0  0  0
  -28.5774  -26.8114   20.0346 O   0  0  0  0  0  0  0  0  0  0  0  0
  -26.2073  -29.6762   19.4262 O   0  0  0  0  0  0  0  0  0  0  0  0
  -23.5569  -28.6168   23.2175 O   0  0  0  0  0  0  0  0  0  0  0  0
  -19.5638  -14.1103   23.5026 O   0  0  0  0  0  0  0  0  0  0  0  0
  -30.7715  -11.4367   18.3714 O   0  0  0  0  0  0  0  0  0  0  0  0
  -25.0211  -21.9764   22.7888 O   0  0  0  0  0  0  0  0  0  1  0  0
  -22.6715  -20.9920   23.9073 O   0  0  0  0  0  0  0  0  0  0  0  0
  -34.7904   -9.4421   21.5768 F   0  0  0  0  0  0  0  0  0  0  0  0
  -31.1305   -8.7113   18.6653 F   0  0  0  0  0  0  0  0  0  0  0  0
  1  2  1  0  0  0  0
  1  5  2  0  0  0  0
  2  6  2  0  0  0  0
  3  9  2  0  0  0  0
  3 18  1  0  0  0  0
  4 10  1  0  0  0  0
  4 18  2  0  0  0  0
  5 20  1  0  0  0  0
  6 22  1  0  0  0  0
  7 11  2  0  0  0  0
  7 21  1  0  0  0  0
  8 12  2  0  0  0  0
  8 25  1  0  0  0  0
  9 26  1  0  0  0  0
 10 26  2  0  0  0  0
 11 27  1  0  0  0  0
 12 28  1  0  0  0  0
 13 14  2  0  0  0  0
 13 29  1  0  0  0  0
 14 30  1  0  0  0  0
 15 23  1  0  0  0  0
 15 27  2  0  0  0  0
 16 24  1  0  0  0  0
 16 28  2  0  0  0  0
 17 30  2  0  0  0  0
 17 31  1  0  0  0  0
 18 32  1  0  0  0  0
 19 32  1  0  0  0  0
 19 33  2  0  0  0  0
 19 34  1  0  0  0  0
 20 22  2  0  0  0  0
 20 39  1  0  0  0  0
 21 23  2  0  0  0  0
 21 40  1  0  0  0  0
 22 50  1  0  0  0  0
 23 41  1  0  0  0  0
 24 25  2  0  0  0  0
 24 42  1  0  0  0  0
 25 66  1  0  0  0  0
 26 80  1  0  0  0  0
 27 81  1  0  0  0  0
 28 82  1  0  0  0  0
 29 31  2  0  0  0  0
 29 80  1  0  0  0  0
 30 83  1  0  0  0  0
 31 84  1  0  0  0  0
 32 64  2  0  0  0  0
 33 65  1  0  0  0  0
 33 69  1  0  0  0  0
 34 70  1  0  0  0  0
 34 75  2  0  0  0  0
 35 51  1  0  0  0  0
 35 71  1  0  0  0  0
 35 76  2  0  0  0  0
 36 61  1  0  0  0  0
 36 67  1  0  0  0  0
 36 77  2  0  0  0  0
 37 62  1  0  0  0  0
 37 72  1  0  0  0  0
 37 78  2  0  0  0  0
 38 66  1  0  0  0  0
 38 68  1  0  0  0  0
 38 79  2  0  0  0  0
 39 43  1  0  0  0  0
 40 51  1  0  0  0  0
 41 67  1  0  0  0  0
 42 73  1  0  0  0  0
 43 45  1  0  0  0  0
 44 46  1  0  0  0  0
 44 47  1  0  0  0  0
 45 50  1  0  0  0  0
 46 52  1  0  0  0  0
 47 68  1  0  0  0  0
 48 52  1  0  0  0  0
 48 68  1  0  0  0  0
 49 66  1  0  0  0  0
 49 73  1  0  0  0  0
 50 71  1  0  0  0  0
 51 67  1  0  0  0  0
 52 65  1  0  0  0  0
 53 62  1  0  0  0  0
 54 63  1  0  0  0  0
 55 63  1  0  0  0  0
 56 63  1  0  0  0  0
 57 73  1  0  0  0  0
 58 74  1  0  0  0  0
 59 60  1  0  0  0  0
 59 81  1  0  0  0  0
 60 82  1  0  0  0  0
 61 63  1  0  0  0  0
 61 72  1  0  0  0  0
 62 74  1  0  0  0  0
 64 65  1  0  0  0  0
M  CHG  2  73   1  74   1
M  ISO  4  38 100  59 101  66 100  81 101
M  END
> <Batch ID>
0007

> <Smiles>
CNC(C)C(=O)NC(C(=O)N1Cc2cc([101O:1][101CH2:1]COc3ccc4c(c3)CN(C)C[100N:0]4[100C:0](=O)N3CCCC(n4nc(-c5ccc(Oc6ccc(F)cc6F)cc5)c(C(N)=O)c4N)C3)ccc2CC1C(=O)NC1CCCc2ccccc21)C(C)(C)C

> <Shape>
0.182

> <Color>
0.080

> <Negative vol penalty>
0.000

$$$$

  -OEChem-04042320323D

 87 96  0     1  0  0  0  0  0999 V2000
  -31.1769  -34.2944   19.1517 C   0  0  0  0  0  0  0  0  0  0  0  0
  -30.7725  -32.9669   19.2499 C   0  0  0  0  0  0  0  0  0  0  0  0
  -22.9046  -12.2375   22.6131 C   0  0  0  0  0  0  0  0  0  0  0  0
  -24.0595  -10.1161   22.5602 C   0  0  0  0  0  0  0  0  0  0  0  0
  -30.7590  -35.2215   20.1055 C   0  0  0  0  0  0  0  0  0  0  0  0
  -29.9508  -32.5655   20.3026 C   0  0  0  0  0  0  0  0  0  0  0  0
  -26.1613  -29.5726   18.7770 C   0  0  0  0  0  0  0  0  0  0  0  0
  -22.1730  -11.8116   23.7216 C   0  0  0  0  0  0  0  0  0  0  0  0
  -23.3279   -9.6902   23.6688 C   0  0  0  0  0  0  0  0  0  0  0  0
  -26.4691  -28.2378   18.5178 C   0  0  0  0  0  0  0  0  0  0  0  0
  -20.2282   -8.4963   24.2992 C   0  0  0  0  0  0  0  0  0  0  0  0
  -19.6890   -7.2104   24.2648 C   0  0  0  0  0  0  0  0  0  0  0  0
  -25.5926  -27.6223   20.6793 C   0  0  0  0  0  0  0  0  0  0  0  0
  -29.5883  -17.5329   22.0855 C   0  0  0  0  0  0  0  0  0  0  0  0
  -31.4201  -18.6601   23.1858 C   0  0  0  0  0  0  0  0  0  0  0  0
  -31.8109  -16.5894   22.0040 C   0  0  0  0  0  0  0  0  0  0  0  0
  -20.9677   -6.6216   26.2283 C   0  0  0  0  0  0  0  0  0  0  0  0
  -23.8479  -11.3897   22.0323 C   0  0  0  0  0  0  0  0  0  0  0  0
  -24.0964  -12.2223   19.6338 C   0  0  0  0  0  0  0  0  0  0  0  0
  -29.9239  -34.8334   21.1650 C   0  0  0  0  0  0  0  0  0  0  0  0
  -25.5759  -29.9444   19.9958 C   0  0  0  0  0  0  0  0  0  0  0  0
  -29.5224  -33.4881   21.2722 C   0  0  0  0  0  0  0  0  0  0  0  0
  -25.2761  -28.9622   20.9505 C   0  0  0  0  0  0  0  0  0  0  0  0
  -30.0686  -18.5988   22.8462 C   0  0  0  0  0  0  0  0  0  0  0  0
  -30.4594  -16.5281   21.6645 C   0  0  0  0  0  0  0  0  0  0  0  0
  -22.3847  -10.5380   24.2496 C   0  0  0  0  0  0  0  0  0  0  0  0
  -26.1874  -27.2627   19.4702 C   0  0  0  0  0  0  0  0  0  0  0  0
  -21.1373   -8.8449   25.2982 C   0  0  0  0  0  0  0  0  0  0  0  0
  -20.0587   -6.2730   25.2293 C   0  0  0  0  0  0  0  0  0  0  0  0
  -32.2913  -17.6554   22.7647 C   0  0  0  0  0  0  0  0  0  0  0  0
  -21.5070   -7.9075   26.2627 C   0  0  0  0  0  0  0  0  0  0  0  0
  -24.6035  -11.8288   20.8868 C   0  0  0  0  0  0  0  0  0  0  0  0
  -25.2106  -12.5453   18.8985 C   0  0  0  0  0  0  0  0  0  0  0  0
  -22.7395  -12.2899   19.1756 C   0  0  0  0  0  0  0  0  0  0  0  0
  -26.4352  -31.8130   22.4194 C   0  0  0  0  0  0  0  0  0  0  0  0
  -23.4322  -31.1751   23.4668 C   0  0  0  0  0  0  0  0  0  0  0  0
  -21.2566  -28.3017   23.6346 C   0  0  0  0  0  0  0  0  0  0  0  0
  -30.7018  -14.3663   20.3941 C   0  0  0  0  0  0  0  0  0  0  0  0
  -29.5365  -35.8615   22.1982 C   0  0  0  0  0  0  0  0  0  0  0  0
  -25.2256  -31.3851   20.2492 C   0  0  0  0  0  0  0  0  0  0  0  0
  -24.6294  -29.3066   22.2664 C   0  0  0  0  0  0  0  0  0  0  0  0
  -28.3611  -35.4332   23.0729 C   0  0  0  0  0  0  0  0  0  0  0  0
  -29.8615  -11.4815   18.4838 C   0  0  0  0  0  0  0  0  0  0  0  0
  -28.5537  -34.0012   23.5621 C   0  0  0  0  0  0  0  0  0  0  0  0
  -28.3703  -11.2826   18.7644 C   0  0  0  0  0  0  0  0  0  0  0  0
  -30.6102  -11.9762   19.7201 C   0  0  0  0  0  0  0  0  0  0  0  0
  -29.4058  -22.4853   20.7122 C   0  0  0  0  0  0  0  0  0  0  0  0
  -27.0756  -22.2090   21.2963 C   0  0  0  0  0  0  0  0  0  0  0  0
  -28.5513  -12.9754   20.6322 C   0  0  0  0  0  0  0  0  0  0  0  0
  -29.8395  -21.6104   21.8836 C   0  0  0  0  0  0  0  0  0  0  0  0
  -27.4417  -21.3261   22.4847 C   0  0  0  0  0  0  0  0  0  0  0  0
  -28.6111  -33.0193   22.3857 C   0  0  1  0  0  0  0  0  0  0  0  0
  -25.1021  -31.7179   21.7329 C   0  0  1  0  0  0  0  0  0  0  0  0
  -27.7436  -12.5398   19.3987 C   0  0  2  0  0  0  0  0  0  0  0  0
  -18.7518  -28.1507   23.6537 C   0  0  0  0  0  0  0  0  0  0  0  0
  -23.7462  -31.1476   26.5017 C   0  0  0  0  0  0  0  0  0  0  0  0
  -21.8840  -29.4776   26.6094 C   0  0  0  0  0  0  0  0  0  0  0  0
  -21.4594  -31.7593   25.6950 C   0  0  0  0  0  0  0  0  0  0  0  0
  -21.2330  -26.4778   21.3039 C   0  0  0  0  0  0  0  0  0  0  0  0
  -29.1322  -19.6801   23.2989 C   0  0  0  0  0  0  0  0  0  0  0  0
  -27.7607  -24.0427   19.8916 C   0  0  0  0  0  0  0  0  0  0  0  0
  -26.8085  -25.1395   20.3431 C   0  0  0  0  0  0  0  0  0  1  0  0
  -22.8059  -30.1090   24.3330 C   0  0  1  0  0  0  0  0  0  0  0  0
  -20.0097  -28.0562   22.8043 C   0  0  2  0  0  0  0  0  0  0  0  0
  -22.4971  -30.6182   25.7692 C   0  0  0  0  0  0  0  0  0  0  0  0
  -25.9362  -11.8949   20.9475 N   0  0  0  0  0  0  0  0  0  0  0  0
  -26.2759  -12.3336   19.7235 N   0  0  0  0  0  0  0  0  0  0  0  0
  -24.3118  -30.7297   22.4699 N   0  0  0  0  0  0  0  0  0  0  0  0
  -29.9622  -13.1717   20.2639 N   0  0  0  0  0  0  0  0  0  0  0  0
  -28.1427  -23.1754   21.0055 N   0  0  0  0  0  0  0  0  0  0  0  0
  -25.3733  -12.9869   17.6332 N   0  0  0  0  0  0  0  0  0  0  0  0
  -21.7165  -11.9221   20.0602 N   0  0  0  0  0  0  0  0  0  0  0  0
  -29.9717  -15.4450   20.8920 N   0  0  0  0  0  0  0  0  0  0  0  0
  -27.2809  -32.7617   21.8770 N   0  0  0  0  0  0  0  0  0  0  0  0
  -21.6368  -29.6268   23.6057 N   0  0  0  0  0  0  0  0  0  0  0  0
  -28.7437  -20.6225   22.1953 N   0  3  0  0  0  0  0  0  0  0  0  0
  -20.0581  -26.7015   22.1852 N   0  3  0  0  0  0  0  0  0  0  0  0
  -22.4440  -12.6496   18.0108 O   0  0  0  0  0  0  0  0  0  0  0  0
  -26.6781  -31.0809   23.3716 O   0  0  0  0  0  0  0  0  0  0  0  0
  -23.1457  -32.3588   23.6626 O   0  0  0  0  0  0  0  0  0  0  0  0
  -21.8334  -27.4081   24.2504 O   0  0  0  0  0  0  0  0  0  0  0  0
  -31.8876  -14.4349   20.0609 O   0  0  0  0  0  0  0  0  0  0  0  0
  -21.6711  -10.1222   25.3315 O   0  0  0  0  0  0  0  0  0  0  0  0
  -26.4873  -25.9592   19.2200 O   0  0  0  0  0  0  0  0  0  1  0  0
  -19.5396   -5.0386   25.1970 F   0  0  0  0  0  0  0  0  0  0  0  0
  -33.5891  -17.7144   23.0908 F   0  0  0  0  0  0  0  0  0  0  0  0
  -22.3789   -8.2369   27.2255 F   0  0  0  0  0  0  0  0  0  0  0  0
  1  2  1  0  0  0  0
  1  5  2  0  0  0  0
  2  6  2  0  0  0  0
  3  8  2  0  0  0  0
  3 18  1  0  0  0  0
  4  9  1  0  0  0  0
  4 18  2  0  0  0  0
  5 20  1  0  0  0  0
  6 22  1  0  0  0  0
  7 10  2  0  0  0  0
  7 21  1  0  0  0  0
  8 26  1  0  0  0  0
  9 26  2  0  0  0  0
 10 27  1  0  0  0  0
 11 12  2  0  0  0  0
 11 28  1  0  0  0  0
 12 29  1  0  0  0  0
 13 23  1  0  0  0  0
 13 27  2  0  0  0  0
 14 24  2  0  0  0  0
 14 25  1  0  0  0  0
 15 24  1  0  0  0  0
 15 30  2  0  0  0  0
 16 25  2  0  0  0  0
 16 30  1  0  0  0  0
 17 29  2  0  0  0  0
 17 31  1  0  0  0  0
 18 32  1  0  0  0  0
 19 32  1  0  0  0  0
 19 33  2  0  0  0  0
 19 34  1  0  0  0  0
 20 22  2  0  0  0  0
 20 39  1  0  0  0  0
 21 23  2  0  0  0  0
 21 40  1  0  0  0  0
 22 52  1  0  0  0  0
 23 41  1  0  0  0  0
 24 60  1  0  0  0  0
 25 73  1  0  0  0  0
 26 83  1  0  0  0  0
 27 84  1  0  0  0  0
 28 31  2  0  0  0  0
 28 83  1  0  0  0  0
 29 85  1  0  0  0  0
 30 86  1  0  0  0  0
 31 87  1  0  0  0  0
 32 66  2  0  0  0  0
 33 67  1  0  0  0  0
 33 71  1  0  0  0  0
 34 72  1  0  0  0  0
 34 78  2  0  0  0  0
 35 53  1  0  0  0  0
 35 74  1  0  0  0  0
 35 79  2  0  0  0  0
 36 63  1  0  0  0  0
 36 68  1  0  0  0  0
 36 80  2  0  0  0  0
 37 64  1  0  0  0  0
 37 75  1  0  0  0  0
 37 81  2  0  0  0  0
 38 69  1  0  0  0  0
 38 73  1  0  0  0  0
 38 82  2  0  0  0  0
 39 42  1  0  0  0  0
 40 53  1  0  0  0  0
 41 68  1  0  0  0  0
 42 44  1  0  0  0  0
 43 45  1  0  0  0  0
 43 46  1  0  0  0  0
 44 52  1  0  0  0  0
 45 54  1  0  0  0  0
 46 69  1  0  0  0  0
 47 50  1  0  0  0  0
 47 70  1  0  0  0  0
 48 51  1  0  0  0  0
 48 70  1  0  0  0  0
 49 54  1  0  0  0  0
 49 69  1  0  0  0  0
 50 76  1  0  0  0  0
 51 76  1  0  0  0  0
 52 74  1  0  0  0  0
 53 68  1  0  0  0  0
 54 67  1  0  0  0  0
 55 64  1  0  0  0  0
 56 65  1  0  0  0  0
 57 65  1  0  0  0  0
 58 65  1  0  0  0  0
 59 77  1  0  0  0  0
 60 76  1  0  0  0  0
 61 62  1  0  0  0  0
 61 70  1  0  0  0  0
 62 84  1  0  0  0  0
 63 65  1  0  0  0  0
 63 75  1  0  0  0  0
 64 77  1  0  0  0  0
 66 67  1  0  0  0  0
M  CHG  2  76   1  77   1
M  ISO  4  38 100  62 101  73 100  84 101
M  END
> <Batch ID>
0007

> <Smiles>
CNC(C)C(=O)NC(C(=O)N1Cc2cc([101O:1][101CH2:1]CN3CCN(Cc4cc(F)cc([100NH:0][100C:0](=O)N5CCCC(n6nc(-c7ccc(Oc8ccc(F)cc8F)cc7)c(C(N)=O)c6N)C5)c4)CC3)ccc2CC1C(=O)NC1CCCc2ccccc21)C(C)(C)C

> <Shape>
0.269

> <Color>
0.107

> <Negative vol penalty>
0.000

$$$$

  -OEChem-04042320323D

 84 93  0     1  0  0  0  0  0999 V2000
  -14.6375  -30.0271   14.5978 C   0  0  0  0  0  0  0  0  0  0  0  0
  -14.6914  -28.6387   14.5287 C   0  0  0  0  0  0  0  0  0  0  0  0
  -23.1951   -9.8169   19.9279 C   0  0  0  0  0  0  0  0  0  0  0  0
  -23.5471  -10.0001   22.3110 C   0  0  0  0  0  0  0  0  0  0  0  0
  -15.7454  -30.7452   15.0459 C   0  0  0  0  0  0  0  0  0  0  0  0
  -15.8538  -27.9676   14.9066 C   0  0  0  0  0  0  0  0  0  0  0  0
  -24.9345  -17.9772   17.6885 C   0  0  0  0  0  0  0  0  0  0  0  0
  -18.0375  -21.8411   17.9089 C   0  0  0  0  0  0  0  0  0  0  0  0
  -23.7269  -18.6689   17.7816 C   0  0  0  0  0  0  0  0  0  0  0  0
  -22.4244   -8.6720   20.1297 C   0  0  0  0  0  0  0  0  0  0  0  0
  -22.7763   -8.8552   22.5129 C   0  0  0  0  0  0  0  0  0  0  0  0
  -18.9150  -20.7822   17.6798 C   0  0  0  0  0  0  0  0  0  0  0  0
  -23.1739   -5.5074   22.2582 C   0  0  0  0  0  0  0  0  0  0  0  0
  -23.6606   -4.5465   23.1444 C   0  0  0  0  0  0  0  0  0  0  0  0
  -20.7397  -22.1219   18.5133 C   0  0  0  0  0  0  0  0  0  0  0  0
  -24.1722  -19.7321   15.6583 C   0  0  0  0  0  0  0  0  0  0  0  0
  -21.6891   -4.8122   24.5153 C   0  0  0  0  0  0  0  0  0  0  0  0
  -23.7566  -10.4810   21.0185 C   0  0  0  0  0  0  0  0  0  0  0  0
  -24.1028  -12.9966   20.7749 C   0  0  0  0  0  0  0  0  0  0  0  0
  -16.9186  -30.0819   15.4387 C   0  0  0  0  0  0  0  0  0  0  0  0
  -18.5072  -23.0541   18.4326 C   0  0  0  0  0  0  0  0  0  0  0  0
  -16.9789  -28.6775   15.3591 C   0  0  0  0  0  0  0  0  0  0  0  0
  -25.7611  -18.1630   16.5803 C   0  0  0  0  0  0  0  0  0  0  0  0
  -19.8657  -23.1938   18.7505 C   0  0  0  0  0  0  0  0  0  0  0  0
  -23.3457  -19.5463   16.7665 C   0  0  0  0  0  0  0  0  0  0  0  0
  -22.2149   -8.1912   21.4222 C   0  0  0  0  0  0  0  0  0  0  0  0
  -20.2668  -20.9235   17.9793 C   0  0  0  0  0  0  0  0  0  0  0  0
  -21.9448   -6.1209   22.5007 C   0  0  0  0  0  0  0  0  0  0  0  0
  -22.9182   -4.1988   24.2729 C   0  0  0  0  0  0  0  0  0  0  0  0
  -25.3799  -19.0404   15.5652 C   0  0  0  0  0  0  0  0  0  0  0  0
  -21.2024   -5.7733   23.6292 C   0  0  0  0  0  0  0  0  0  0  0  0
  -24.5533  -11.6633   20.8106 C   0  0  0  0  0  0  0  0  0  0  0  0
  -25.2380  -13.7367   20.5512 C   0  0  0  0  0  0  0  0  0  0  0  0
  -22.7767  -13.5193   20.9301 C   0  0  0  0  0  0  0  0  0  0  0  0
  -18.6035  -26.0574   17.3960 C   0  0  0  0  0  0  0  0  0  0  0  0
  -19.7024  -26.6450   20.3909 C   0  0  0  0  0  0  0  0  0  0  0  0
  -21.2489  -25.4618   23.1936 C   0  0  0  0  0  0  0  0  0  0  0  0
  -30.0088  -14.6760   18.0471 C   0  0  0  0  0  0  0  0  0  0  0  0
  -18.1069  -30.9037   15.8715 C   0  0  0  0  0  0  0  0  0  0  0  0
  -17.5432  -24.1776   18.6990 C   0  0  0  0  0  0  0  0  0  0  0  0
  -20.4167  -24.4685   19.3335 C   0  0  0  0  0  0  0  0  0  0  0  0
  -19.1711  -30.0947   16.6085 C   0  0  0  0  0  0  0  0  0  0  0  0
  -30.1159  -12.4301   20.6731 C   0  0  0  0  0  0  0  0  0  0  0  0
  -19.4641  -28.7955   15.8648 C   0  0  0  0  0  0  0  0  0  0  0  0
  -28.6432  -12.1296   20.9522 C   0  0  0  0  0  0  0  0  0  0  0  0
  -28.0384  -17.7796   17.6222 C   0  0  0  0  0  0  0  0  0  0  0  0
  -26.8607  -15.8859   16.4273 C   0  0  0  0  0  0  0  0  0  0  0  0
  -30.3843  -12.5024   19.1740 C   0  0  0  0  0  0  0  0  0  0  0  0
  -29.3454  -16.9959   17.5274 C   0  0  0  0  0  0  0  0  0  0  0  0
  -28.1935  -15.1462   16.3578 C   0  0  0  0  0  0  0  0  0  0  0  0
  -28.0573  -13.2085   18.7258 C   0  0  0  0  0  0  0  0  0  0  0  0
  -27.0741  -17.4090   16.4823 C   0  0  0  0  0  0  0  0  0  0  0  0
  -18.2134  -27.9120   15.7838 C   0  0  1  0  0  0  0  0  0  0  0  0
  -18.2189  -25.5442   18.7548 C   0  0  1  0  0  0  0  0  0  0  0  0
  -27.7284  -13.1346   20.2303 C   0  0  1  0  0  0  0  0  0  0  0  0
  -22.0414  -26.1874   25.4613 C   0  0  0  0  0  0  0  0  0  0  0  0
  -22.0861  -28.0506   19.1055 C   0  0  0  0  0  0  0  0  0  0  0  0
  -23.2705  -27.9042   21.3064 C   0  0  0  0  0  0  0  0  0  0  0  0
  -21.1524  -29.2082   21.1161 C   0  0  0  0  0  0  0  0  0  0  0  0
  -19.4635  -23.5379   24.5610 C   0  0  0  0  0  0  0  0  0  0  0  0
  -21.0640  -26.6826   21.0419 C   0  0  1  0  0  0  0  0  0  0  0  0
  -20.8962  -25.5813   24.6652 C   0  0  2  0  0  0  0  0  0  0  0  0
  -21.8835  -27.9379   20.6297 C   0  0  0  0  0  0  0  0  0  0  0  0
  -25.8719  -11.5595   20.6244 N   0  0  0  0  0  0  0  0  0  0  0  0
  -26.2596  -12.8369   20.4694 N   0  0  0  0  0  0  0  0  0  0  0  0
  -19.4354  -25.5403   19.5698 N   0  0  0  0  0  0  0  0  0  0  0  0
  -29.4917  -13.4622   18.5246 N   0  0  0  0  0  0  0  0  0  0  0  0
  -29.0993  -15.5571   17.4393 N   0  0  0  0  0  0  0  0  0  0  0  0
  -25.4519  -15.0630   20.4184 N   0  0  0  0  0  0  0  0  0  0  0  0
  -21.7258  -12.6194   21.1538 N   0  0  0  0  0  0  0  0  0  0  0  0
  -22.1241  -20.2452   16.8610 N   0  0  0  0  0  0  0  0  0  1  0  0
  -17.9849  -27.2425   17.0464 N   0  0  0  0  0  0  0  0  0  0  0  0
  -20.8334  -26.5644   22.4776 N   0  0  0  0  0  0  0  0  0  0  0  0
  -20.5868  -24.2391   25.2344 N   0  3  0  0  0  0  0  0  0  0  0  0
  -22.5287  -14.7467   20.8559 O   0  0  0  0  0  0  0  0  0  0  0  0
  -19.4036  -25.4258   16.7157 O   0  0  0  0  0  0  0  0  0  0  0  0
  -18.9026  -27.5585   20.6087 O   0  0  0  0  0  0  0  0  0  0  0  0
  -21.8378  -24.4893   22.7266 O   0  0  0  0  0  0  0  0  0  0  0  0
  -31.2077  -14.9601   18.1604 O   0  0  0  0  0  0  0  0  0  0  0  0
  -21.4627   -7.0742   21.6195 O   0  0  0  0  0  0  0  0  0  0  0  0
  -21.1354  -19.8800   17.7534 O   0  0  0  0  0  0  0  0  0  1  0  0
  -23.3849   -3.2749   25.1230 F   0  0  0  0  0  0  0  0  0  0  0  0
  -26.1681  -19.2263   14.4971 F   0  0  0  0  0  0  0  0  0  0  0  0
  -20.0204   -6.3583   23.8668 F   0  0  0  0  0  0  0  0  0  0  0  0
  1  2  1  0  0  0  0
  1  5  2  0  0  0  0
  2  6  2  0  0  0  0
  3 10  2  0  0  0  0
  3 18  1  0  0  0  0
  4 11  1  0  0  0  0
  4 18  2  0  0  0  0
  5 20  1  0  0  0  0
  6 22  1  0  0  0  0
  7  9  2  0  0  0  0
  7 23  1  0  0  0  0
  8 12  2  0  0  0  0
  8 21  1  0  0  0  0
  9 25  1  0  0  0  0
 10 26  1  0  0  0  0
 11 26  2  0  0  0  0
 12 27  1  0  0  0  0
 13 14  2  0  0  0  0
 13 28  1  0  0  0  0
 14 29  1  0  0  0  0
 15 24  1  0  0  0  0
 15 27  2  0  0  0  0
 16 25  2  0  0  0  0
 16 30  1  0  0  0  0
 17 29  2  0  0  0  0
 17 31  1  0  0  0  0
 18 32  1  0  0  0  0
 19 32  1  0  0  0  0
 19 33  2  0  0  0  0
 19 34  1  0  0  0  0
 20 22  2  0  0  0  0
 20 39  1  0  0  0  0
 21 24  2  0  0  0  0
 21 40  1  0  0  0  0
 22 53  1  0  0  0  0
 23 30  2  0  0  0  0
 23 52  1  0  0  0  0
 24 41  1  0  0  0  0
 25 71  1  0  0  0  0
 26 80  1  0  0  0  0
 27 81  1  0  0  0  0
 28 31  2  0  0  0  0
 28 80  1  0  0  0  0
 29 82  1  0  0  0  0
 30 83  1  0  0  0  0
 31 84  1  0  0  0  0
 32 64  2  0  0  0  0
 33 65  1  0  0  0  0
 33 69  1  0  0  0  0
 34 70  1  0  0  0  0
 34 75  2  0  0  0  0
 35 54  1  0  0  0  0
 35 72  1  0  0  0  0
 35 76  2  0  0  0  0
 36 61  1  0  0  0  0
 36 66  1  0  0  0  0
 36 77  2  0  0  0  0
 37 62  1  0  0  0  0
 37 73  1  0  0  0  0
 37 78  2  0  0  0  0
 38 67  1  0  0  0  0
 38 68  1  0  0  0  0
 38 79  2  0  0  0  0
 39 42  1  0  0  0  0
 40 54  1  0  0  0  0
 41 66  1  0  0  0  0
 42 44  1  0  0  0  0
 43 45  1  0  0  0  0
 43 48  1  0  0  0  0
 44 53  1  0  0  0  0
 45 55  1  0  0  0  0
 46 49  1  0  0  0  0
 46 52  1  0  0  0  0
 47 50  1  0  0  0  0
 47 52  1  0  0  0  0
 48 67  1  0  0  0  0
 49 68  1  0  0  0  0
 50 68  1  0  0  0  0
 51 55  1  0  0  0  0
 51 67  1  0  0  0  0
 53 72  1  0  0  0  0
 54 66  1  0  0  0  0
 55 65  1  0  0  0  0
 56 62  1  0  0  0  0
 57 63  1  0  0  0  0
 58 63  1  0  0  0  0
 59 63  1  0  0  0  0
 60 74  1  0  0  0  0
 61 63  1  0  0  0  0
 61 73  1  0  0  0  0
 62 74  1  0  0  0  0
 64 65  1  0  0  0  0
 71 81  1  0  0  0  0
M  CHG  1  74   1
M  ISO  4  38 100  68 100  71 101  81 101
M  END
> <Batch ID>
0007

> <Smiles>
CNC(C)C(=O)NC(C(=O)N1Cc2cc([101O:1][101NH:1]c3ccc(C4CC[100N:0]([100C:0](=O)N5CCCC(n6nc(-c7ccc(Oc8ccc(F)cc8F)cc7)c(C(N)=O)c6N)C5)CC4)c(F)c3)ccc2CC1C(=O)NC1CCCc2ccccc21)C(C)(C)C

> <Shape>
0.183

> <Color>
0.190

> <Negative vol penalty>
0.000

$$$$

  -OEChem-04042320323D

 82 90  0     1  0  0  0  0  0999 V2000
  -28.7773  -32.8546   24.0551 C   0  0  0  0  0  0  0  0  0  0  0  0
  -28.7123  -31.5414   23.6005 C   0  0  0  0  0  0  0  0  0  0  0  0
  -22.9883  -10.3037   22.0754 C   0  0  0  0  0  0  0  0  0  0  0  0
  -24.0662   -9.5395   20.0527 C   0  0  0  0  0  0  0  0  0  0  0  0
  -27.6510  -33.4525   24.6186 C   0  0  0  0  0  0  0  0  0  0  0  0
  -27.5210  -30.8249   23.7102 C   0  0  0  0  0  0  0  0  0  0  0  0
  -26.3983  -28.2638   19.4882 C   0  0  0  0  0  0  0  0  0  0  0  0
  -30.1292  -19.2198   20.1684 C   0  0  0  0  0  0  0  0  0  0  0  0
  -29.7902  -20.5693   20.0720 C   0  0  0  0  0  0  0  0  0  0  0  0
  -22.2884   -9.1000   22.1572 C   0  0  0  0  0  0  0  0  0  0  0  0
  -23.3663   -8.3357   20.1345 C   0  0  0  0  0  0  0  0  0  0  0  0
  -27.0861  -27.0719   19.2647 C   0  0  0  0  0  0  0  0  0  0  0  0
  -22.8999   -5.9253   23.1473 C   0  0  0  0  0  0  0  0  0  0  0  0
  -22.8339   -5.2970   24.3909 C   0  0  0  0  0  0  0  0  0  0  0  0
  -25.1865  -25.8295   20.0815 C   0  0  0  0  0  0  0  0  0  0  0  0
  -28.6335  -20.1305   17.9968 C   0  0  0  0  0  0  0  0  0  0  0  0
  -20.4235   -5.4543   24.3426 C   0  0  0  0  0  0  0  0  0  0  0  0
  -23.8772  -10.5235   21.0231 C   0  0  0  0  0  0  0  0  0  0  0  0
  -25.8583  -12.0590   21.4976 C   0  0  0  0  0  0  0  0  0  0  0  0
  -26.4426  -32.7463   24.7265 C   0  0  0  0  0  0  0  0  0  0  0  0
  -25.1014  -28.2480   20.0212 C   0  0  0  0  0  0  0  0  0  0  0  0
  -26.3778  -31.4136   24.2770 C   0  0  0  0  0  0  0  0  0  0  0  0
  -24.4834  -27.0225   20.3085 C   0  0  0  0  0  0  0  0  0  0  0  0
  -29.7205  -18.3256   19.1789 C   0  0  0  0  0  0  0  0  0  0  0  0
  -28.9726  -18.7809   18.0932 C   0  0  0  0  0  0  0  0  0  0  0  0
  -29.0423  -21.0247   18.9862 C   0  0  0  0  0  0  0  0  0  0  0  0
  -22.4774   -8.1160   21.1868 C   0  0  0  0  0  0  0  0  0  0  0  0
  -26.4813  -25.8546   19.5640 C   0  0  0  0  0  0  0  0  0  0  0  0
  -21.7276   -6.3182   22.5014 C   0  0  0  0  0  0  0  0  0  0  0  0
  -21.5958   -5.0615   24.9885 C   0  0  0  0  0  0  0  0  0  0  0  0
  -20.4895   -6.0827   23.0990 C   0  0  0  0  0  0  0  0  0  0  0  0
  -24.6001  -11.7670   20.9377 C   0  0  0  0  0  0  0  0  0  0  0  0
  -26.1019  -13.3610   21.1345 C   0  0  0  0  0  0  0  0  0  0  0  0
  -26.7291  -11.2276   22.2763 C   0  0  0  0  0  0  0  0  0  0  0  0
  -23.7515  -29.3698   22.6713 C   0  0  0  0  0  0  0  0  0  0  0  0
  -21.0214  -28.3503   21.2466 C   0  0  0  0  0  0  0  0  0  0  0  0
  -19.5349  -26.2646   18.9912 C   0  0  0  0  0  0  0  0  0  0  0  0
  -26.0956  -17.4311   17.3162 C   0  0  0  0  0  0  0  0  0  0  0  0
  -25.2649  -33.4191   25.3861 C   0  0  0  0  0  0  0  0  0  0  0  0
  -24.3628  -29.5413   20.2315 C   0  0  0  0  0  0  0  0  0  0  0  0
  -23.0851  -26.9504   20.8634 C   0  0  0  0  0  0  0  0  0  0  0  0
  -23.9359  -32.7154   25.1238 C   0  0  0  0  0  0  0  0  0  0  0  0
  -23.0538  -16.8271   19.0653 C   0  0  0  0  0  0  0  0  0  0  0  0
  -24.0779  -31.2111   25.3331 C   0  0  0  0  0  0  0  0  0  0  0  0
  -23.2865  -15.4786   19.7489 C   0  0  0  0  0  0  0  0  0  0  0  0
  -23.7088  -16.8815   17.6868 C   0  0  0  0  0  0  0  0  0  0  0  0
  -25.3768  -15.1940   18.3530 C   0  0  0  0  0  0  0  0  0  0  0  0
  -25.0967  -30.6120   24.3560 C   0  0  1  0  0  0  0  0  0  0  0  0
  -23.2411  -29.4285   21.2593 C   0  0  1  0  0  0  0  0  0  0  0  0
  -24.7825  -15.1111   19.7694 C   0  0  2  0  0  0  0  0  0  0  0  0
  -30.0966  -16.8857   19.3033 C   0  0  0  0  0  0  0  0  0  0  0  0
  -17.2848  -25.6352   18.0756 C   0  0  0  0  0  0  0  0  0  0  0  0
  -20.4282  -26.7772   23.7927 C   0  0  0  0  0  0  0  0  0  0  0  0
  -18.7331  -25.4622   22.5021 C   0  0  0  0  0  0  0  0  0  0  0  0
  -18.4451  -27.9234   22.7887 C   0  0  0  0  0  0  0  0  0  0  0  0
  -20.2922  -27.0840   16.2500 C   0  0  0  0  0  0  0  0  0  0  0  0
  -28.5252  -17.8423   17.0210 C   0  0  0  0  0  0  0  0  0  0  0  0
  -29.0854  -23.3577   19.8698 C   0  0  0  0  0  0  0  0  0  0  0  0
  -28.5729  -24.7277   19.4580 C   0  0  0  0  0  0  0  0  0  1  0  0
  -20.2406  -27.0584   21.2331 C   0  0  1  0  0  0  0  0  0  0  0  0
  -18.5069  -26.5240   17.9047 C   0  0  2  0  0  0  0  0  0  0  0  0
  -19.4888  -26.8064   22.5705 C   0  0  0  0  0  0  0  0  0  0  0  0
  -24.0806  -12.8004   20.2698 N   0  0  0  0  0  0  0  0  0  0  0  0
  -25.0169  -13.7545   20.4078 N   0  0  0  0  0  0  0  0  0  0  0  0
  -22.4065  -28.2424   21.0573 N   0  0  0  0  0  0  0  0  0  0  0  0
  -25.1266  -16.5242   17.7761 N   0  0  0  0  0  0  0  0  0  0  0  0
  -27.1361  -14.1963   21.3692 N   0  0  0  0  0  0  0  0  0  0  0  0
  -26.3248   -9.9154   22.5575 N   0  0  0  0  0  0  0  0  0  0  0  0
  -28.7050  -22.3647   18.8915 N   0  0  0  0  0  0  0  0  0  0  0  0
  -24.5097  -30.4641   23.0415 N   0  0  0  0  0  0  0  0  0  0  0  0
  -19.3728  -27.1181   20.0619 N   0  0  0  0  0  0  0  0  0  0  0  0
  -27.4158  -17.0168   17.4434 N   0  0  0  0  0  0  0  0  0  0  0  0
  -19.0955  -26.2605   16.5612 N   0  3  0  0  0  0  0  0  0  0  0  0
  -27.8255  -11.6415   22.7237 O   0  0  0  0  0  0  0  0  0  0  0  0
  -23.4764  -28.4039   23.3735 O   0  0  0  0  0  0  0  0  0  0  0  0
  -20.4235  -29.4166   21.4115 O   0  0  0  0  0  0  0  0  0  0  0  0
  -20.3933  -25.3897   18.9008 O   0  0  0  0  0  0  0  0  0  0  0  0
  -25.8059  -18.5310   16.8333 O   0  0  0  0  0  0  0  0  0  0  0  0
  -21.7947   -6.9412   21.2664 O   0  0  0  0  0  0  0  0  0  0  0  0
  -27.1507  -24.6898   19.3474 O   0  0  0  0  0  0  0  0  0  1  0  0
  -21.5325   -4.4567   26.1820 F   0  0  0  0  0  0  0  0  0  0  0  0
  -19.3598   -6.4568   22.4827 F   0  0  0  0  0  0  0  0  0  0  0  0
  1  2  1  0  0  0  0
  1  5  2  0  0  0  0
  2  6  2  0  0  0  0
  3 10  2  0  0  0  0
  3 18  1  0  0  0  0
  4 11  1  0  0  0  0
  4 18  2  0  0  0  0
  5 20  1  0  0  0  0
  6 22  1  0  0  0  0
  7 12  2  0  0  0  0
  7 21  1  0  0  0  0
  8  9  2  0  0  0  0
  8 24  1  0  0  0  0
  9 26  1  0  0  0  0
 10 27  1  0  0  0  0
 11 27  2  0  0  0  0
 12 28  1  0  0  0  0
 13 14  2  0  0  0  0
 13 29  1  0  0  0  0
 14 30  1  0  0  0  0
 15 23  1  0  0  0  0
 15 28  2  0  0  0  0
 16 25  1  0  0  0  0
 16 26  2  0  0  0  0
 17 30  2  0  0  0  0
 17 31  1  0  0  0  0
 18 32  1  0  0  0  0
 19 32  1  0  0  0  0
 19 33  2  0  0  0  0
 19 34  1  0  0  0  0
 20 22  2  0  0  0  0
 20 39  1  0  0  0  0
 21 23  2  0  0  0  0
 21 40  1  0  0  0  0
 22 48  1  0  0  0  0
 23 41  1  0  0  0  0
 24 25  2  0  0  0  0
 24 51  1  0  0  0  0
 25 57  1  0  0  0  0
 26 69  1  0  0  0  0
 27 79  1  0  0  0  0
 28 80  1  0  0  0  0
 29 31  2  0  0  0  0
 29 79  1  0  0  0  0
 30 81  1  0  0  0  0
 31 82  1  0  0  0  0
 32 63  2  0  0  0  0
 33 64  1  0  0  0  0
 33 67  1  0  0  0  0
 34 68  1  0  0  0  0
 34 74  2  0  0  0  0
 35 49  1  0  0  0  0
 35 70  1  0  0  0  0
 35 75  2  0  0  0  0
 36 60  1  0  0  0  0
 36 65  1  0  0  0  0
 36 76  2  0  0  0  0
 37 61  1  0  0  0  0
 37 71  1  0  0  0  0
 37 77  2  0  0  0  0
 38 66  1  0  0  0  0
 38 72  1  0  0  0  0
 38 78  2  0  0  0  0
 39 42  1  0  0  0  0
 40 49  1  0  0  0  0
 41 65  1  0  0  0  0
 42 44  1  0  0  0  0
 43 45  1  0  0  0  0
 43 46  1  0  0  0  0
 44 48  1  0  0  0  0
 45 50  1  0  0  0  0
 46 66  1  0  0  0  0
 47 50  1  0  0  0  0
 47 66  1  0  0  0  0
 48 70  1  0  0  0  0
 49 65  1  0  0  0  0
 50 64  1  0  0  0  0
 52 61  1  0  0  0  0
 53 62  1  0  0  0  0
 54 62  1  0  0  0  0
 55 62  1  0  0  0  0
 56 73  1  0  0  0  0
 57 72  1  0  0  0  0
 58 59  1  0  0  0  0
 58 69  1  0  0  0  0
 59 80  1  0  0  0  0
 60 62  1  0  0  0  0
 60 71  1  0  0  0  0
 61 73  1  0  0  0  0
 63 64  1  0  0  0  0
M  CHG  1  73   1
M  ISO  4  38 100  59 101  72 100  80 101
M  END
> <Batch ID>
0007

> <Smiles>
CNC(C)C(=O)NC(C(=O)N1Cc2cc([101O:1][101CH2:1]CNc3ccc(C)c(C[100NH:0][100C:0](=O)N4CCCC(n5nc(-c6ccc(Oc7ccc(F)cc7F)cc6)c(C(N)=O)c5N)C4)c3)ccc2CC1C(=O)NC1CCCc2ccccc21)C(C)(C)C

> <Shape>
0.308

> <Color>
0.094

> <Negative vol penalty>
0.000

$$$$

  -OEChem-04042320323D

 78 86  0     1  0  0  0  0  0999 V2000
  -18.7570  -27.7116   26.2306 C   0  0  0  0  0  0  0  0  0  0  0  0
  -20.1246  -27.4788   26.1271 C   0  0  0  0  0  0  0  0  0  0  0  0
  -25.9928  -13.4467   22.0115 C   0  0  0  0  0  0  0  0  0  0  0  0
  -24.6837  -13.1658   20.0004 C   0  0  0  0  0  0  0  0  0  0  0  0
  -18.0015  -27.9429   25.0818 C   0  0  0  0  0  0  0  0  0  0  0  0
  -20.7374  -27.4760   24.8746 C   0  0  0  0  0  0  0  0  0  0  0  0
  -26.3906  -29.4150   23.5376 C   0  0  0  0  0  0  0  0  0  0  0  0
  -25.2757  -12.4178   22.6220 C   0  0  0  0  0  0  0  0  0  0  0  0
  -23.9666  -12.1368   20.6109 C   0  0  0  0  0  0  0  0  0  0  0  0
  -27.5977  -28.7391   23.3649 C   0  0  0  0  0  0  0  0  0  0  0  0
  -22.0333   -9.1938   21.5157 C   0  0  0  0  0  0  0  0  0  0  0  0
  -21.8059   -8.0332   20.7761 C   0  0  0  0  0  0  0  0  0  0  0  0
  -27.2374  -28.7174   20.9798 C   0  0  0  0  0  0  0  0  0  0  0  0
  -24.1896   -7.6982   20.5691 C   0  0  0  0  0  0  0  0  0  0  0  0
  -25.6968  -13.8207   20.7007 C   0  0  0  0  0  0  0  0  0  0  0  0
  -27.6199  -14.7652   19.3159 C   0  0  0  0  0  0  0  0  0  0  0  0
  -18.6070  -27.9525   23.8154 C   0  0  0  0  0  0  0  0  0  0  0  0
  -25.5912  -29.7381   22.4317 C   0  0  0  0  0  0  0  0  0  0  0  0
  -19.9891  -27.7063   23.7077 C   0  0  0  0  0  0  0  0  0  0  0  0
  -26.0218  -29.3996   21.1409 C   0  0  0  0  0  0  0  0  0  0  0  0
  -24.2626  -11.7628   21.9217 C   0  0  0  0  0  0  0  0  0  0  0  0
  -28.0199  -28.3876   22.0861 C   0  0  0  0  0  0  0  0  0  0  0  0
  -23.3388   -9.6066   21.7819 C   0  0  0  0  0  0  0  0  0  0  0  0
  -22.8841   -7.2854   20.3028 C   0  0  0  0  0  0  0  0  0  0  0  0
  -24.4170   -8.8588   21.3087 C   0  0  0  0  0  0  0  0  0  0  0  0
  -26.4368  -14.8839   20.0697 C   0  0  0  0  0  0  0  0  0  0  0  0
  -27.9185  -16.0522   18.9407 C   0  0  0  0  0  0  0  0  0  0  0  0
  -28.3807  -13.5960   18.9845 C   0  0  0  0  0  0  0  0  0  0  0  0
  -22.6566  -28.9678   21.4838 C   0  0  0  0  0  0  0  0  0  0  0  0
  -23.2577  -31.1453   19.1557 C   0  0  0  0  0  0  0  0  0  0  0  0
  -25.5665  -32.8331   17.2936 C   0  0  0  0  0  0  0  0  0  0  0  0
  -28.4985  -21.3003   19.9110 C   0  0  0  0  0  0  0  0  0  0  0  0
  -17.7410  -28.1602   22.5982 C   0  0  0  0  0  0  0  0  0  0  0  0
  -24.3047  -30.4910   22.6327 C   0  0  0  0  0  0  0  0  0  0  0  0
  -25.2100  -29.7414   19.9191 C   0  0  0  0  0  0  0  0  0  0  0  0
  -18.5319  -28.5121   21.3408 C   0  0  0  0  0  0  0  0  0  0  0  0
  -25.1981  -20.2976   19.2436 C   0  0  0  0  0  0  0  0  0  0  0  0
  -19.7295  -27.5803   21.1853 C   0  0  0  0  0  0  0  0  0  0  0  0
  -25.3180  -18.7770   19.3394 C   0  0  0  0  0  0  0  0  0  0  0  0
  -26.0151  -21.0065   20.3253 C   0  0  0  0  0  0  0  0  0  0  0  0
  -27.6342  -23.3253   21.1668 C   0  0  0  0  0  0  0  0  0  0  0  0
  -29.3400  -23.5722   19.4012 C   0  0  0  0  0  0  0  0  0  0  0  0
  -27.5569  -19.0770   20.4634 C   0  0  0  0  0  0  0  0  0  0  0  0
  -28.5611  -24.0036   22.1704 C   0  0  0  0  0  0  0  0  0  0  0  0
  -30.2994  -24.2291   20.3802 C   0  0  0  0  0  0  0  0  0  0  0  0
  -20.6945  -27.7199   22.3689 C   0  0  1  0  0  0  0  0  0  0  0  0
  -23.3227  -30.3147   21.4785 C   0  0  1  0  0  0  0  0  0  0  0  0
  -26.7933  -18.3391   19.3529 C   0  0  1  0  0  0  0  0  0  0  0  0
  -25.7543  -34.5181   15.4435 C   0  0  0  0  0  0  0  0  0  0  0  0
  -22.5071  -28.9954   17.1248 C   0  0  0  0  0  0  0  0  0  0  0  0
  -23.6032  -30.3845   15.3536 C   0  0  0  0  0  0  0  0  0  0  0  0
  -21.6345  -31.2790   16.5973 C   0  0  0  0  0  0  0  0  0  0  0  0
  -27.0154  -34.7458   19.0259 C   0  0  0  0  0  0  0  0  0  0  0  0
  -30.3853  -25.6899   22.4015 C   0  0  0  0  0  0  0  0  0  0  0  0
  -29.6219  -26.8691   22.9714 C   0  0  0  0  0  0  0  0  0  1  0  0
  -23.8643  -31.0936   17.7743 C   0  0  1  0  0  0  0  0  0  0  0  0
  -25.7008  -34.3052   16.9484 C   0  0  2  0  0  0  0  0  0  0  0  0
  -22.9169  -30.4298   16.7355 C   0  0  0  0  0  0  0  0  0  0  0  0
  -26.0129  -16.1466   20.1685 N   0  0  0  0  0  0  0  0  0  0  0  0
  -26.9347  -16.8332   19.4721 N   0  0  0  0  0  0  0  0  0  0  0  0
  -23.9566  -30.4724   20.1680 N   0  0  0  0  0  0  0  0  0  0  0  0
  -27.4042  -20.5271   20.3267 N   0  0  0  0  0  0  0  0  0  0  0  0
  -28.4023  -22.6882   20.0903 N   0  0  0  0  0  0  0  0  0  0  0  0
  -28.9241  -16.5807   18.2115 N   0  0  0  0  0  0  0  0  0  0  0  0
  -27.9324  -12.3527   19.4509 N   0  0  0  0  0  0  0  0  0  0  0  0
  -21.4947  -28.9177   22.2300 N   0  0  0  0  0  0  0  0  0  0  0  0
  -24.2471  -32.4623   17.4451 N   0  0  0  0  0  0  0  0  0  0  0  0
  -29.4992  -24.9397   21.4469 N   0  3  0  0  0  0  0  0  0  0  0  0
  -26.9449  -34.8663   17.5469 N   0  3  0  0  0  0  0  0  0  0  0  0
  -29.4361  -13.6541   18.3091 O   0  0  0  0  0  0  0  0  0  0  0  0
  -23.1588  -28.0430   20.8559 O   0  0  0  0  0  0  0  0  0  0  0  0
  -22.2063  -31.7660   19.3317 O   0  0  0  0  0  0  0  0  0  0  0  0
  -26.5350  -32.0859   17.4130 O   0  0  0  0  0  0  0  0  0  0  0  0
  -29.5034  -20.7806   19.4095 O   0  0  0  0  0  0  0  0  0  0  0  0
  -23.5629  -10.7586   22.5170 O   0  0  0  0  0  0  0  0  0  0  0  0
  -29.2058  -27.7226   21.9135 O   0  0  0  0  0  0  0  0  0  1  0  0
  -22.6656   -6.1701   19.5939 F   0  0  0  0  0  0  0  0  0  0  0  0
  -25.6734   -9.2498   21.5623 F   0  0  0  0  0  0  0  0  0  0  0  0
  1  2  1  0  0  0  0
  1  5  2  0  0  0  0
  2  6  2  0  0  0  0
  3  8  2  0  0  0  0
  3 15  1  0  0  0  0
  4  9  1  0  0  0  0
  4 15  2  0  0  0  0
  5 17  1  0  0  0  0
  6 19  1  0  0  0  0
  7 10  2  0  0  0  0
  7 18  1  0  0  0  0
  8 21  1  0  0  0  0
  9 21  2  0  0  0  0
 10 22  1  0  0  0  0
 11 12  2  0  0  0  0
 11 23  1  0  0  0  0
 12 24  1  0  0  0  0
 13 20  1  0  0  0  0
 13 22  2  0  0  0  0
 14 24  2  0  0  0  0
 14 25  1  0  0  0  0
 15 26  1  0  0  0  0
 16 26  1  0  0  0  0
 16 27  2  0  0  0  0
 16 28  1  0  0  0  0
 17 19  2  0  0  0  0
 17 33  1  0  0  0  0
 18 20  2  0  0  0  0
 18 34  1  0  0  0  0
 19 46  1  0  0  0  0
 20 35  1  0  0  0  0
 21 75  1  0  0  0  0
 22 76  1  0  0  0  0
 23 25  2  0  0  0  0
 23 75  1  0  0  0  0
 24 77  1  0  0  0  0
 25 78  1  0  0  0  0
 26 59  2  0  0  0  0
 27 60  1  0  0  0  0
 27 64  1  0  0  0  0
 28 65  1  0  0  0  0
 28 70  2  0  0  0  0
 29 47  1  0  0  0  0
 29 66  1  0  0  0  0
 29 71  2  0  0  0  0
 30 56  1  0  0  0  0
 30 61  1  0  0  0  0
 30 72  2  0  0  0  0
 31 57  1  0  0  0  0
 31 67  1  0  0  0  0
 31 73  2  0  0  0  0
 32 62  1  0  0  0  0
 32 63  1  0  0  0  0
 32 74  2  0  0  0  0
 33 36  1  0  0  0  0
 34 47  1  0  0  0  0
 35 61  1  0  0  0  0
 36 38  1  0  0  0  0
 37 39  1  0  0  0  0
 37 40  1  0  0  0  0
 38 46  1  0  0  0  0
 39 48  1  0  0  0  0
 40 62  1  0  0  0  0
 41 44  1  0  0  0  0
 41 63  1  0  0  0  0
 42 45  1  0  0  0  0
 42 63  1  0  0  0  0
 43 48  1  0  0  0  0
 43 62  1  0  0  0  0
 44 68  1  0  0  0  0
 45 68  1  0  0  0  0
 46 66  1  0  0  0  0
 47 61  1  0  0  0  0
 48 60  1  0  0  0  0
 49 57  1  0  0  0  0
 50 58  1  0  0  0  0
 51 58  1  0  0  0  0
 52 58  1  0  0  0  0
 53 69  1  0  0  0  0
 54 55  1  0  0  0  0
 54 68  1  0  0  0  0
 55 76  1  0  0  0  0
 56 58  1  0  0  0  0
 56 67  1  0  0  0  0
 57 69  1  0  0  0  0
 59 60  1  0  0  0  0
M  CHG  2  68   1  69   1
M  ISO  4  32 100  55 101  63 100  76 101
M  END
> <Batch ID>
0007

> <Smiles>
CNC(C)C(=O)NC(C(=O)N1Cc2cc([101O:1][101CH2:1]CN3CC[100N:0]([100C:0](=O)N4CCCC(n5nc(-c6ccc(Oc7ccc(F)cc7F)cc6)c(C(N)=O)c5N)C4)CC3)ccc2CC1C(=O)NC1CCCc2ccccc21)C(C)(C)C

> <Shape>
0.253

> <Color>
0.093

> <Negative vol penalty>
0.000

$$$$

  -OEChem-04042320323D

 79 87  0     1  0  0  0  0  0999 V2000
  -23.3441   -6.3416   24.2992 C   0  0  0  0  0  0  0  0  0  0  0  0
  -24.5661   -7.0065   24.3070 C   0  0  0  0  0  0  0  0  0  0  0  0
  -26.1003  -30.7071   20.8867 C   0  0  0  0  0  0  0  0  0  0  0  0
  -23.9565  -29.6755   20.4660 C   0  0  0  0  0  0  0  0  0  0  0  0
  -22.4219   -6.5924   23.2841 C   0  0  0  0  0  0  0  0  0  0  0  0
  -24.8671   -7.9217   23.2989 C   0  0  0  0  0  0  0  0  0  0  0  0
  -28.4368  -14.0326   22.1904 C   0  0  0  0  0  0  0  0  0  0  0  0
  -25.5635  -31.3733   21.9884 C   0  0  0  0  0  0  0  0  0  0  0  0
  -23.4197  -30.3416   21.5677 C   0  0  0  0  0  0  0  0  0  0  0  0
  -29.3998  -14.5790   21.3430 C   0  0  0  0  0  0  0  0  0  0  0  0
  -23.6394  -34.0928   22.5597 C   0  0  0  0  0  0  0  0  0  0  0  0
  -23.9427  -35.4460   22.7088 C   0  0  0  0  0  0  0  0  0  0  0  0
  -27.6975  -14.9908   19.6840 C   0  0  0  0  0  0  0  0  0  0  0  0
  -24.9681  -34.9807   24.8464 C   0  0  0  0  0  0  0  0  0  0  0  0
  -25.2967  -29.8583   20.1254 C   0  0  0  0  0  0  0  0  0  0  0  0
  -26.4278  -29.7503   17.8414 C   0  0  0  0  0  0  0  0  0  0  0  0
  -22.7077   -7.5183   22.2684 C   0  0  0  0  0  0  0  0  0  0  0  0
  -27.0966  -13.9512   21.7859 C   0  0  0  0  0  0  0  0  0  0  0  0
  -23.9484   -8.1840   22.2685 C   0  0  0  0  0  0  0  0  0  0  0  0
  -26.7191  -14.4453   20.5292 C   0  0  0  0  0  0  0  0  0  0  0  0
  -24.2233  -31.1905   22.3289 C   0  0  0  0  0  0  0  0  0  0  0  0
  -29.0307  -15.0555   20.0885 C   0  0  0  0  0  0  0  0  0  0  0  0
  -24.0004  -33.1834   23.5540 C   0  0  0  0  0  0  0  0  0  0  0  0
  -24.6070  -35.8900   23.8521 C   0  0  0  0  0  0  0  0  0  0  0  0
  -24.6647  -33.6274   24.6973 C   0  0  0  0  0  0  0  0  0  0  0  0
  -25.8505  -29.1704   18.9869 C   0  0  0  0  0  0  0  0  0  0  0  0
  -26.7967  -28.6802   17.0635 C   0  0  0  0  0  0  0  0  0  0  0  0
  -26.6141  -31.1328   17.5102 C   0  0  0  0  0  0  0  0  0  0  0  0
  -25.0427  -11.5758   21.2932 C   0  0  0  0  0  0  0  0  0  0  0  0
  -22.9352  -14.0053   20.8708 C   0  0  0  0  0  0  0  0  0  0  0  0
  -22.9226  -17.2285   19.2497 C   0  0  0  0  0  0  0  0  0  0  0  0
  -28.1883  -23.1105   18.4410 C   0  0  0  0  0  0  0  0  0  0  0  0
  -21.6987   -7.7210   21.1659 C   0  0  0  0  0  0  0  0  0  0  0  0
  -26.0655  -13.3835   22.7223 C   0  0  0  0  0  0  0  0  0  0  0  0
  -25.2901  -14.3996   20.0557 C   0  0  0  0  0  0  0  0  0  0  0  0
  -21.9420   -8.9830   20.3421 C   0  0  0  0  0  0  0  0  0  0  0  0
  -25.6013  -24.1408   16.1295 C   0  0  0  0  0  0  0  0  0  0  0  0
  -23.4144   -9.0954   19.9598 C   0  0  0  0  0  0  0  0  0  0  0  0
  -25.4315  -25.6151   16.5005 C   0  0  0  0  0  0  0  0  0  0  0  0
  -29.2525  -20.2273   19.5815 C   0  0  0  0  0  0  0  0  0  0  0  0
  -29.5976  -19.9654   17.0972 C   0  0  0  0  0  0  0  0  0  0  0  0
  -25.8631  -23.2862   17.3661 C   0  0  0  0  0  0  0  0  0  0  0  0
  -26.8605  -25.2000   18.5561 C   0  0  0  0  0  0  0  0  0  0  0  0
  -30.4258  -19.2903   19.8368 C   0  0  0  0  0  0  0  0  0  0  0  0
  -30.7683  -19.0287   17.3651 C   0  0  0  0  0  0  0  0  0  0  0  0
  -24.3014   -9.2023   21.2061 C   0  0  1  0  0  0  0  0  0  0  0  0
  -24.8175  -12.8808   22.0031 C   0  0  1  0  0  0  0  0  0  0  0  0
  -26.6155  -26.1201   17.3463 C   0  0  2  0  0  0  0  0  0  0  0  0
  -29.3957  -20.9553   18.2445 C   0  0  0  0  0  0  0  0  0  0  0  0
  -21.5812  -19.2932   19.7343 C   0  0  0  0  0  0  0  0  0  0  0  0
  -21.0233  -12.9074   18.7614 C   0  0  0  0  0  0  0  0  0  0  0  0
  -20.6754  -15.2526   17.9567 C   0  0  0  0  0  0  0  0  0  0  0  0
  -20.0252  -14.6242   20.2816 C   0  0  0  0  0  0  0  0  0  0  0  0
  -25.3579  -18.8899   19.5108 C   0  0  0  0  0  0  0  0  0  0  0  0
  -31.6287  -17.2991   18.9408 C   0  0  0  0  0  0  0  0  0  0  0  0
  -31.0861  -16.2319   19.8707 C   0  0  0  0  0  0  0  0  0  1  0  0
  -22.4753  -14.8288   19.6922 C   0  0  1  0  0  0  0  0  0  0  0  0
  -22.9139  -18.5867   19.9277 C   0  0  2  0  0  0  0  0  0  0  0  0
  -21.0759  -14.3920   19.1740 C   0  0  0  0  0  0  0  0  0  0  0  0
  -25.8502  -27.8354   18.9445 N   0  0  0  0  0  0  0  0  0  0  0  0
  -26.4318  -27.5676   17.7629 N   0  0  0  0  0  0  0  0  0  0  0  0
  -24.3197  -13.8295   21.0049 N   0  0  0  0  0  0  0  0  0  0  0  0
  -27.0136  -23.8091   18.1165 N   0  0  0  0  0  0  0  0  0  0  0  0
  -27.3944  -28.5917   15.8563 N   0  0  0  0  0  0  0  0  0  0  0  0
  -25.5972  -31.7946   16.8084 N   0  0  0  0  0  0  0  0  0  0  0  0
  -24.2482  -10.5420   21.7509 N   0  0  0  0  0  0  0  0  0  0  0  0
  -22.5473  -16.2231   20.1154 N   0  0  0  0  0  0  0  0  0  0  0  0
  -28.2511  -21.7965   17.9937 N   0  0  0  0  0  0  0  0  0  0  0  0
  -30.5588  -18.3245   18.6840 N   0  3  0  0  0  0  0  0  0  0  0  0
  -23.9903  -19.4521   19.3677 N   0  3  0  0  0  0  0  0  0  0  0  0
  -27.6585  -31.7583   17.8127 O   0  0  0  0  0  0  0  0  0  0  0  0
  -25.8746  -11.5119   20.3957 O   0  0  0  0  0  0  0  0  0  0  0  0
  -22.0973  -13.5412   21.6481 O   0  0  0  0  0  0  0  0  0  0  0  0
  -23.2280  -17.0753   18.0691 O   0  0  0  0  0  0  0  0  0  0  0  0
  -29.1156  -23.6217   19.0781 O   0  0  0  0  0  0  0  0  0  0  0  0
  -23.6993  -31.8401   23.4041 O   0  0  0  0  0  0  0  0  0  0  0  0
  -29.9687  -15.5887   19.2591 O   0  0  0  0  0  0  0  0  0  1  0  0
  -24.8996  -37.1894   23.9945 F   0  0  0  0  0  0  0  0  0  0  0  0
  -25.0151  -32.7583   25.6553 F   0  0  0  0  0  0  0  0  0  0  0  0
  1  2  1  0  0  0  0
  1  5  2  0  0  0  0
  2  6  2  0  0  0  0
  3  8  2  0  0  0  0
  3 15  1  0  0  0  0
  4  9  1  0  0  0  0
  4 15  2  0  0  0  0
  5 17  1  0  0  0  0
  6 19  1  0  0  0  0
  7 10  2  0  0  0  0
  7 18  1  0  0  0  0
  8 21  1  0  0  0  0
  9 21  2  0  0  0  0
 10 22  1  0  0  0  0
 11 12  2  0  0  0  0
 11 23  1  0  0  0  0
 12 24  1  0  0  0  0
 13 20  1  0  0  0  0
 13 22  2  0  0  0  0
 14 24  2  0  0  0  0
 14 25  1  0  0  0  0
 15 26  1  0  0  0  0
 16 26  1  0  0  0  0
 16 27  2  0  0  0  0
 16 28  1  0  0  0  0
 17 19  2  0  0  0  0
 17 33  1  0  0  0  0
 18 20  2  0  0  0  0
 18 34  1  0  0  0  0
 19 46  1  0  0  0  0
 20 35  1  0  0  0  0
 21 76  1  0  0  0  0
 22 77  1  0  0  0  0
 23 25  2  0  0  0  0
 23 76  1  0  0  0  0
 24 78  1  0  0  0  0
 25 79  1  0  0  0  0
 26 60  2  0  0  0  0
 27 61  1  0  0  0  0
 27 64  1  0  0  0  0
 28 65  1  0  0  0  0
 28 71  2  0  0  0  0
 29 47  1  0  0  0  0
 29 66  1  0  0  0  0
 29 72  2  0  0  0  0
 30 57  1  0  0  0  0
 30 62  1  0  0  0  0
 30 73  2  0  0  0  0
 31 58  1  0  0  0  0
 31 67  1  0  0  0  0
 31 74  2  0  0  0  0
 32 63  1  0  0  0  0
 32 68  1  0  0  0  0
 32 75  2  0  0  0  0
 33 36  1  0  0  0  0
 34 47  1  0  0  0  0
 35 62  1  0  0  0  0
 36 38  1  0  0  0  0
 37 39  1  0  0  0  0
 37 42  1  0  0  0  0
 38 46  1  0  0  0  0
 39 48  1  0  0  0  0
 40 44  1  0  0  0  0
 40 49  1  0  0  0  0
 41 45  1  0  0  0  0
 41 49  1  0  0  0  0
 42 63  1  0  0  0  0
 43 48  1  0  0  0  0
 43 63  1  0  0  0  0
 44 69  1  0  0  0  0
 45 69  1  0  0  0  0
 46 66  1  0  0  0  0
 47 62  1  0  0  0  0
 48 61  1  0  0  0  0
 49 68  1  0  0  0  0
 50 58  1  0  0  0  0
 51 59  1  0  0  0  0
 52 59  1  0  0  0  0
 53 59  1  0  0  0  0
 54 70  1  0  0  0  0
 55 56  1  0  0  0  0
 55 69  1  0  0  0  0
 56 77  1  0  0  0  0
 57 59  1  0  0  0  0
 57 67  1  0  0  0  0
 58 70  1  0  0  0  0
 60 61  1  0  0  0  0
M  CHG  2  69   1  70   1
M  ISO  4  32 100  56 101  68 100  77 101
M  END
> <Batch ID>
0007

> <Smiles>
CNC(C)C(=O)NC(C(=O)N1Cc2cc([101O:1][101CH2:1]CN3CCC([100NH:0][100C:0](=O)N4CCCC(n5nc(-c6ccc(Oc7ccc(F)cc7F)cc6)c(C(N)=O)c5N)C4)CC3)ccc2CC1C(=O)NC1CCCc2ccccc21)C(C)(C)C

> <Shape>
0.238

> <Color>
0.076

> <Negative vol penalty>
0.000

$$$$

  -OEChem-04042320323D

 82 90  0     1  0  0  0  0  0999 V2000
  -21.9089  -11.6555   21.4646 C   0  0  0  0  0  0  0  0  0  0  0  0
  -21.6687  -13.0175   21.6155 C   0  0  0  0  0  0  0  0  0  0  0  0
  -30.0984  -27.8975   19.0121 C   0  0  0  0  0  0  0  0  0  0  0  0
  -29.6995  -26.6536   21.0445 C   0  0  0  0  0  0  0  0  0  0  0  0
  -23.2081  -11.1976   21.2491 C   0  0  0  0  0  0  0  0  0  0  0  0
  -22.7278  -13.9223   21.5520 C   0  0  0  0  0  0  0  0  0  0  0  0
  -21.6505  -17.9785   18.7180 C   0  0  0  0  0  0  0  0  0  0  0  0
  -19.1186  -26.6905   21.0533 C   0  0  0  0  0  0  0  0  0  0  0  0
  -31.4703  -27.6898   19.1542 C   0  0  0  0  0  0  0  0  0  0  0  0
  -31.0715  -26.4458   21.1865 C   0  0  0  0  0  0  0  0  0  0  0  0
  -20.8519  -18.9647   19.2954 C   0  0  0  0  0  0  0  0  0  0  0  0
  -18.8438  -25.3522   20.7722 C   0  0  0  0  0  0  0  0  0  0  0  0
  -34.4423  -25.2801   21.8913 C   0  0  0  0  0  0  0  0  0  0  0  0
  -34.8732  -23.9973   22.2294 C   0  0  0  0  0  0  0  0  0  0  0  0
  -22.8215  -20.2760   19.7651 C   0  0  0  0  0  0  0  0  0  0  0  0
  -19.9078  -24.6993   22.8407 C   0  0  0  0  0  0  0  0  0  0  0  0
  -33.8633  -23.1271   20.2144 C   0  0  0  0  0  0  0  0  0  0  0  0
  -29.2129  -27.3795   19.9573 C   0  0  0  0  0  0  0  0  0  0  0  0
  -26.8773  -26.7738   19.1292 C   0  0  0  0  0  0  0  0  0  0  0  0
  -24.2823  -12.0981   21.1734 C   0  0  0  0  0  0  0  0  0  0  0  0
  -23.0438  -18.1289   18.6695 C   0  0  0  0  0  0  0  0  0  0  0  0
  -24.0428  -13.4759   21.3367 C   0  0  0  0  0  0  0  0  0  0  0  0
  -23.6353  -19.2914   19.1842 C   0  0  0  0  0  0  0  0  0  0  0  0
  -19.7881  -27.0332   22.2280 C   0  0  0  0  0  0  0  0  0  0  0  0
  -31.9569  -26.9639   20.2414 C   0  0  0  0  0  0  0  0  0  0  0  0
  -21.4377  -20.1124   19.8216 C   0  0  0  0  0  0  0  0  0  0  0  0
  -19.2383  -24.3566   21.6659 C   0  0  0  0  0  0  0  0  0  0  0  0
  -33.7219  -25.4865   20.7148 C   0  0  0  0  0  0  0  0  0  0  0  0
  -34.5837  -22.9208   21.3909 C   0  0  0  0  0  0  0  0  0  0  0  0
  -20.1826  -26.0376   23.1218 C   0  0  0  0  0  0  0  0  0  0  0  0
  -33.4324  -24.4100   19.8763 C   0  0  0  0  0  0  0  0  0  0  0  0
  -27.7957  -27.5942   19.8114 C   0  0  0  0  0  0  0  0  0  0  0  0
  -25.6694  -27.4094   19.2822 C   0  0  0  0  0  0  0  0  0  0  0  0
  -27.0966  -25.5467   18.4207 C   0  0  0  0  0  0  0  0  0  0  0  0
  -25.5156  -16.5302   19.8688 C   0  0  0  0  0  0  0  0  0  0  0  0
  -27.2355  -18.6204   18.0812 C   0  0  0  0  0  0  0  0  0  0  0  0
  -27.3985  -21.6558   16.5299 C   0  0  0  0  0  0  0  0  0  0  0  0
  -21.9511  -30.0941   22.4621 C   0  0  0  0  0  0  0  0  0  0  0  0
  -25.6756  -11.5519   20.9860 C   0  0  0  0  0  0  0  0  0  0  0  0
  -23.8889  -17.0680   18.0193 C   0  0  0  0  0  0  0  0  0  0  0  0
  -25.1247  -19.5102   19.1387 C   0  0  0  0  0  0  0  0  0  0  0  0
  -26.6914  -12.6080   20.5582 C   0  0  0  0  0  0  0  0  0  0  0  0
  -24.5779  -32.0274   21.0341 C   0  0  0  0  0  0  0  0  0  0  0  0
  -26.5509  -13.8620   21.4151 C   0  0  0  0  0  0  0  0  0  0  0  0
  -25.5757  -30.9792   20.5384 C   0  0  0  0  0  0  0  0  0  0  0  0
  -23.9138  -31.6006   22.3414 C   0  0  0  0  0  0  0  0  0  0  0  0
  -24.2776  -29.2212   21.8125 C   0  0  0  0  0  0  0  0  0  0  0  0
  -25.1620  -14.4907   21.2494 C   0  0  1  0  0  0  0  0  0  0  0  0
  -25.3412  -17.0916   18.4860 C   0  0  1  0  0  0  0  0  0  0  0  0
  -24.9318  -29.5814   20.4677 C   0  0  2  0  0  0  0  0  0  0  0  0
  -28.3337  -23.4907   15.0961 C   0  0  0  0  0  0  0  0  0  0  0  0
  -28.7933  -19.3101   20.6125 C   0  0  0  0  0  0  0  0  0  0  0  0
  -29.6301  -21.3656   19.4538 C   0  0  0  0  0  0  0  0  0  0  0  0
  -30.1918  -19.1099   18.5489 C   0  0  0  0  0  0  0  0  0  0  0  0
  -26.1551  -20.5390   14.0874 C   0  0  0  0  0  0  0  0  0  0  0  0
  -20.0800  -28.4650   22.5255 C   0  0  0  0  0  0  0  0  0  0  0  0
  -19.3367  -21.2256   19.8751 C   0  0  0  0  0  0  0  0  0  1  0  0
  -18.9114  -22.6742   20.0171 C   0  0  0  0  0  0  0  0  0  0  0  0
  -27.8324  -19.9874   18.3138 C   0  0  1  0  0  0  0  0  0  0  0  0
  -27.8456  -22.0509   15.1340 C   0  0  2  0  0  0  0  0  0  0  0  0
  -29.0840  -19.9385   19.2350 C   0  0  0  0  0  0  0  0  0  0  0  0
  -27.2204  -28.6691   20.3570 N   0  0  0  0  0  0  0  0  0  0  0  0
  -25.9277  -28.5285   20.0178 N   0  0  0  0  0  0  0  0  0  0  0  0
  -25.9090  -18.4413   18.4984 N   0  0  0  0  0  0  0  0  0  0  0  0
  -23.3214  -30.2677   22.2067 N   0  0  0  0  0  0  0  0  0  0  0  0
  -24.4222  -27.1147   18.8579 N   0  0  0  0  0  0  0  0  0  0  0  0
  -28.3993  -25.0332   18.3611 N   0  0  0  0  0  0  0  0  0  0  0  0
  -25.0847  -15.2243   20.0043 N   0  0  0  0  0  0  0  0  0  0  0  0
  -28.0845  -20.5529   16.9928 N   0  0  0  0  0  0  0  0  0  0  0  0
  -21.4691  -28.8004   22.3050 N   0  0  0  0  0  0  0  0  0  0  0  0
  -26.7176  -21.9115   14.1700 N   0  3  0  0  0  0  0  0  0  0  0  0
  -26.1676  -24.9327   17.8431 O   0  0  0  0  0  0  0  0  0  0  0  0
  -26.0064  -17.2295   20.7473 O   0  0  0  0  0  0  0  0  0  0  0  0
  -27.9186  -17.7459   17.5424 O   0  0  0  0  0  0  0  0  0  0  0  0
  -26.5304  -22.2669   17.1493 O   0  0  0  0  0  0  0  0  0  0  0  0
  -21.2110  -31.0243   22.7996 O   0  0  0  0  0  0  0  0  0  0  0  0
  -33.2956  -26.7608   20.3802 O   0  0  0  0  0  0  0  0  0  0  0  0
  -20.6606  -21.0763   20.3864 O   0  0  0  0  0  0  0  0  0  1  0  0
  -18.9671  -23.0423   21.3900 O   0  0  0  0  0  0  0  0  0  0  0  0
  -34.9988  -21.6892   21.7149 F   0  0  0  0  0  0  0  0  0  0  0  0
  -20.8276  -26.3572   24.2525 F   0  0  0  0  0  0  0  0  0  0  0  0
  -32.7417  -24.6023   18.7442 F   0  0  0  0  0  0  0  0  0  0  0  0
  1  2  1  0  0  0  0
  1  5  2  0  0  0  0
  2  6  2  0  0  0  0
  3  9  2  0  0  0  0
  3 18  1  0  0  0  0
  4 10  1  0  0  0  0
  4 18  2  0  0  0  0
  5 20  1  0  0  0  0
  6 22  1  0  0  0  0
  7 11  2  0  0  0  0
  7 21  1  0  0  0  0
  8 12  2  0  0  0  0
  8 24  1  0  0  0  0
  9 25  1  0  0  0  0
 10 25  2  0  0  0  0
 11 26  1  0  0  0  0
 12 27  1  0  0  0  0
 13 14  2  0  0  0  0
 13 28  1  0  0  0  0
 14 29  1  0  0  0  0
 15 23  1  0  0  0  0
 15 26  2  0  0  0  0
 16 27  2  0  0  0  0
 16 30  1  0  0  0  0
 17 29  2  0  0  0  0
 17 31  1  0  0  0  0
 18 32  1  0  0  0  0
 19 32  1  0  0  0  0
 19 33  2  0  0  0  0
 19 34  1  0  0  0  0
 20 22  2  0  0  0  0
 20 39  1  0  0  0  0
 21 23  2  0  0  0  0
 21 40  1  0  0  0  0
 22 48  1  0  0  0  0
 23 41  1  0  0  0  0
 24 30  2  0  0  0  0
 24 56  1  0  0  0  0
 25 77  1  0  0  0  0
 26 78  1  0  0  0  0
 27 79  1  0  0  0  0
 28 31  2  0  0  0  0
 28 77  1  0  0  0  0
 29 80  1  0  0  0  0
 30 81  1  0  0  0  0
 31 82  1  0  0  0  0
 32 62  2  0  0  0  0
 33 63  1  0  0  0  0
 33 66  1  0  0  0  0
 34 67  1  0  0  0  0
 34 72  2  0  0  0  0
 35 49  1  0  0  0  0
 35 68  1  0  0  0  0
 35 73  2  0  0  0  0
 36 59  1  0  0  0  0
 36 64  1  0  0  0  0
 36 74  2  0  0  0  0
 37 60  1  0  0  0  0
 37 69  1  0  0  0  0
 37 75  2  0  0  0  0
 38 65  1  0  0  0  0
 38 70  1  0  0  0  0
 38 76  2  0  0  0  0
 39 42  1  0  0  0  0
 40 49  1  0  0  0  0
 41 64  1  0  0  0  0
 42 44  1  0  0  0  0
 43 45  1  0  0  0  0
 43 46  1  0  0  0  0
 44 48  1  0  0  0  0
 45 50  1  0  0  0  0
 46 65  1  0  0  0  0
 47 50  1  0  0  0  0
 47 65  1  0  0  0  0
 48 68  1  0  0  0  0
 49 64  1  0  0  0  0
 50 63  1  0  0  0  0
 51 60  1  0  0  0  0
 52 61  1  0  0  0  0
 53 61  1  0  0  0  0
 54 61  1  0  0  0  0
 55 71  1  0  0  0  0
 56 70  1  0  0  0  0
 57 58  1  0  0  0  0
 57 78  1  0  0  0  0
 58 79  1  0  0  0  0
 59 61  1  0  0  0  0
 59 69  1  0  0  0  0
 60 71  1  0  0  0  0
 62 63  1  0  0  0  0
M  CHG  1  71   1
M  ISO  4  38 100  57 101  70 100  78 101
M  END
> <Batch ID>
0007

> <Smiles>
CNC(C)C(=O)NC(C(=O)N1Cc2cc([101O:1][101CH2:1]COc3ccc(C[100NH:0][100C:0](=O)N4CCCC(n5nc(-c6ccc(Oc7ccc(F)cc7F)cc6)c(C(N)=O)c5N)C4)c(F)c3)ccc2CC1C(=O)NC1CCCc2ccccc21)C(C)(C)C

> <Shape>
0.236

> <Color>
0.064

> <Negative vol penalty>
0.000

$$$$

  -OEChem-04042320323D

 85 94  0     1  0  0  0  0  0999 V2000
  -30.0304  -28.5980   13.6573 C   0  0  0  0  0  0  0  0  0  0  0  0
  -30.1351  -28.0906   14.9484 C   0  0  0  0  0  0  0  0  0  0  0  0
  -23.8346   -8.9381   21.1603 C   0  0  0  0  0  0  0  0  0  0  0  0
  -25.2985   -9.4912   23.0010 C   0  0  0  0  0  0  0  0  0  0  0  0
  -29.4649  -29.8550   13.4473 C   0  0  0  0  0  0  0  0  0  0  0  0
  -29.6752  -28.8404   16.0304 C   0  0  0  0  0  0  0  0  0  0  0  0
  -26.9851  -26.0725   19.3087 C   0  0  0  0  0  0  0  0  0  0  0  0
  -31.7102  -17.7125   22.0018 C   0  0  0  0  0  0  0  0  0  0  0  0
  -31.3565  -19.0539   21.8567 C   0  0  0  0  0  0  0  0  0  0  0  0
  -23.4996   -7.7380   21.7873 C   0  0  0  0  0  0  0  0  0  0  0  0
  -24.9634   -8.2911   23.6281 C   0  0  0  0  0  0  0  0  0  0  0  0
  -27.6965  -25.2556   20.1864 C   0  0  0  0  0  0  0  0  0  0  0  0
  -21.4722   -6.7186   24.2940 C   0  0  0  0  0  0  0  0  0  0  0  0
  -20.1248   -6.3597   24.3292 C   0  0  0  0  0  0  0  0  0  0  0  0
  -27.4290  -26.9037   21.9275 C   0  0  0  0  0  0  0  0  0  0  0  0
  -29.3673  -18.6718   23.1735 C   0  0  0  0  0  0  0  0  0  0  0  0
  -20.6319   -4.3364   23.1101 C   0  0  0  0  0  0  0  0  0  0  0  0
  -24.7342   -9.8147   21.7671 C   0  0  0  0  0  0  0  0  0  0  0  0
  -24.2090  -12.1001   20.7628 C   0  0  0  0  0  0  0  0  0  0  0  0
  -28.9890  -30.6164   14.5264 C   0  0  0  0  0  0  0  0  0  0  0  0
  -26.4988  -27.3180   19.7314 C   0  0  0  0  0  0  0  0  0  0  0  0
  -29.1040  -30.1093   15.8348 C   0  0  0  0  0  0  0  0  0  0  0  0
  -26.7095  -27.7333   21.0540 C   0  0  0  0  0  0  0  0  0  0  0  0
  -30.8924  -16.8507   22.7327 C   0  0  0  0  0  0  0  0  0  0  0  0
  -29.7210  -17.3303   23.3186 C   0  0  0  0  0  0  0  0  0  0  0  0
  -30.1851  -19.5336   22.4426 C   0  0  0  0  0  0  0  0  0  0  0  0
  -24.0639   -7.4146   23.0212 C   0  0  0  0  0  0  0  0  0  0  0  0
  -27.9211  -25.6724   21.4952 C   0  0  0  0  0  0  0  0  0  0  0  0
  -22.3995   -5.8864   23.6668 C   0  0  0  0  0  0  0  0  0  0  0  0
  -19.7047   -5.1686   23.7372 C   0  0  0  0  0  0  0  0  0  0  0  0
  -21.9794   -4.6953   23.0749 C   0  0  0  0  0  0  0  0  0  0  0  0
  -25.0811  -11.0542   21.1196 C   0  0  0  0  0  0  0  0  0  0  0  0
  -25.0222  -13.0420   20.1815 C   0  0  0  0  0  0  0  0  0  0  0  0
  -22.7907  -12.2104   20.9410 C   0  0  0  0  0  0  0  0  0  0  0  0
  -27.0084  -30.3349   18.8697 C   0  0  0  0  0  0  0  0  0  0  0  0
  -24.6133  -30.9315   20.9744 C   0  0  0  0  0  0  0  0  0  0  0  0
  -22.3024  -30.9222   23.4857 C   0  0  0  0  0  0  0  0  0  0  0  0
  -30.8568  -14.2779   20.7123 C   0  0  0  0  0  0  0  0  0  0  0  0
  -28.4285  -31.9900   14.2544 C   0  0  0  0  0  0  0  0  0  0  0  0
  -25.7102  -28.1756   18.7801 C   0  0  0  0  0  0  0  0  0  0  0  0
  -26.1909  -29.0526   21.5630 C   0  0  0  0  0  0  0  0  0  0  0  0
  -27.6239  -32.5611   15.4191 C   0  0  0  0  0  0  0  0  0  0  0  0
  -29.1051  -13.4596   17.7226 C   0  0  0  0  0  0  0  0  0  0  0  0
  -28.3764  -32.3700   16.7322 C   0  0  0  0  0  0  0  0  0  0  0  0
  -27.7965  -12.8447   18.2220 C   0  0  0  0  0  0  0  0  0  0  0  0
  -30.3784  -23.2680   22.5643 C   0  0  0  0  0  0  0  0  0  0  0  0
  -28.0331  -22.5532   22.0790 C   0  0  0  0  0  0  0  0  0  0  0  0
  -30.2832  -13.0843   18.6188 C   0  0  0  0  0  0  0  0  0  0  0  0
  -30.8867  -21.8893   22.1518 C   0  0  0  0  0  0  0  0  0  0  0  0
  -28.5390  -21.1759   21.6614 C   0  0  0  0  0  0  0  0  0  0  0  0
  -28.7842  -12.7699   20.5496 C   0  0  0  0  0  0  0  0  0  0  0  0
  -28.5939  -30.8819   17.0319 C   0  0  1  0  0  0  0  0  0  0  0  0
  -25.7048  -29.6506   19.1696 C   0  0  1  0  0  0  0  0  0  0  0  0
  -27.5578  -13.1659   19.7096 C   0  0  2  0  0  0  0  0  0  0  0  0
  -29.0842  -23.6328   21.8485 C   0  0  0  0  0  0  0  0  0  1  0  0
  -28.8291  -16.4260   24.1043 C   0  0  0  0  0  0  0  0  0  0  0  0
  -20.8736  -32.4664   24.8537 C   0  0  0  0  0  0  0  0  0  0  0  0
  -27.0612  -31.7514   22.6011 C   0  0  0  0  0  0  0  0  0  0  0  0
  -25.5155  -32.4668   24.4362 C   0  0  0  0  0  0  0  0  0  0  0  0
  -25.4069  -33.5855   22.2092 C   0  0  0  0  0  0  0  0  0  0  0  0
  -19.8072  -29.6587   22.5179 C   0  0  0  0  0  0  0  0  0  0  0  0
  -31.2914  -15.4184   22.8732 C   0  0  0  0  0  0  0  0  0  0  0  0
  -24.5381  -31.2239   22.4536 C   0  0  1  0  0  0  0  0  0  0  0  0
  -20.9470  -31.5945   23.6098 C   0  0  2  0  0  0  0  0  0  0  0  0
  -25.6297  -32.2303   22.9151 C   0  0  0  0  0  0  0  0  0  0  0  0
  -26.3511  -11.3074   20.7922 N   0  0  0  0  0  0  0  0  0  0  0  0
  -26.2829  -12.5231   20.2235 N   0  0  0  0  0  0  0  0  0  0  0  0
  -29.8308  -20.8810   22.2974 N   0  0  0  0  0  0  0  0  0  0  0  0
  -25.4310  -29.8583   20.5930 N   0  0  0  0  0  0  0  0  0  0  0  0
  -29.9934  -13.4162   20.0159 N   0  0  0  0  0  0  0  0  0  0  0  0
  -24.7748  -14.2552   19.6436 N   0  0  0  0  0  0  0  0  0  0  0  0
  -22.3087  -12.7864   22.1243 N   0  0  0  0  0  0  0  0  0  0  0  0
  -27.3768  -30.2853   17.5388 N   0  0  0  0  0  0  0  0  0  0  0  0
  -23.1716  -31.6637   22.7137 N   0  0  0  0  0  0  0  0  0  0  0  0
  -30.5057  -14.5454   22.0299 N   0  0  0  0  0  0  0  0  0  0  0  0
  -19.8665  -30.5712   23.6887 N   0  3  0  0  0  0  0  0  0  0  0  0
  -21.9746  -11.7950   20.0836 O   0  0  0  0  0  0  0  0  0  0  0  0
  -27.6331  -30.8696   19.7783 O   0  0  0  0  0  0  0  0  0  0  0  0
  -23.9648  -31.6251   20.1871 O   0  0  0  0  0  0  0  0  0  0  0  0
  -22.5651  -29.8485   24.0231 O   0  0  0  0  0  0  0  0  0  0  0  0
  -31.8629  -14.7764   20.1964 O   0  0  0  0  0  0  0  0  0  0  0  0
  -23.7370   -6.2437   23.6335 O   0  0  0  0  0  0  0  0  0  0  0  0
  -28.6158  -24.8773   22.3537 O   0  0  0  0  0  0  0  0  0  1  0  0
  -18.4109   -4.8234   23.7724 F   0  0  0  0  0  0  0  0  0  0  0  0
  -22.8657   -3.8912   22.4720 F   0  0  0  0  0  0  0  0  0  0  0  0
  1  2  1  0  0  0  0
  1  5  2  0  0  0  0
  2  6  2  0  0  0  0
  3 10  2  0  0  0  0
  3 18  1  0  0  0  0
  4 11  1  0  0  0  0
  4 18  2  0  0  0  0
  5 20  1  0  0  0  0
  6 22  1  0  0  0  0
  7 12  2  0  0  0  0
  7 21  1  0  0  0  0
  8  9  2  0  0  0  0
  8 24  1  0  0  0  0
  9 26  1  0  0  0  0
 10 27  1  0  0  0  0
 11 27  2  0  0  0  0
 12 28  1  0  0  0  0
 13 14  2  0  0  0  0
 13 29  1  0  0  0  0
 14 30  1  0  0  0  0
 15 23  1  0  0  0  0
 15 28  2  0  0  0  0
 16 25  1  0  0  0  0
 16 26  2  0  0  0  0
 17 30  2  0  0  0  0
 17 31  1  0  0  0  0
 18 32  1  0  0  0  0
 19 32  1  0  0  0  0
 19 33  2  0  0  0  0
 19 34  1  0  0  0  0
 20 22  2  0  0  0  0
 20 39  1  0  0  0  0
 21 23  2  0  0  0  0
 21 40  1  0  0  0  0
 22 52  1  0  0  0  0
 23 41  1  0  0  0  0
 24 25  2  0  0  0  0
 24 62  1  0  0  0  0
 25 56  1  0  0  0  0
 26 68  1  0  0  0  0
 27 82  1  0  0  0  0
 28 83  1  0  0  0  0
 29 31  2  0  0  0  0
 29 82  1  0  0  0  0
 30 84  1  0  0  0  0
 31 85  1  0  0  0  0
 32 66  2  0  0  0  0
 33 67  1  0  0  0  0
 33 71  1  0  0  0  0
 34 72  1  0  0  0  0
 34 77  2  0  0  0  0
 35 53  1  0  0  0  0
 35 73  1  0  0  0  0
 35 78  2  0  0  0  0
 36 63  1  0  0  0  0
 36 69  1  0  0  0  0
 36 79  2  0  0  0  0
 37 64  1  0  0  0  0
 37 74  1  0  0  0  0
 37 80  2  0  0  0  0
 38 70  1  0  0  0  0
 38 75  1  0  0  0  0
 38 81  2  0  0  0  0
 39 42  1  0  0  0  0
 40 53  1  0  0  0  0
 41 69  1  0  0  0  0
 42 44  1  0  0  0  0
 43 45  1  0  0  0  0
 43 48  1  0  0  0  0
 44 52  1  0  0  0  0
 45 54  1  0  0  0  0
 46 49  1  0  0  0  0
 46 55  1  0  0  0  0
 47 50  1  0  0  0  0
 47 55  1  0  0  0  0
 48 70  1  0  0  0  0
 49 68  1  0  0  0  0
 50 68  1  0  0  0  0
 51 54  1  0  0  0  0
 51 70  1  0  0  0  0
 52 73  1  0  0  0  0
 53 69  1  0  0  0  0
 54 67  1  0  0  0  0
 55 83  1  0  0  0  0
 57 64  1  0  0  0  0
 58 65  1  0  0  0  0
 59 65  1  0  0  0  0
 60 65  1  0  0  0  0
 61 76  1  0  0  0  0
 62 75  1  0  0  0  0
 63 65  1  0  0  0  0
 63 74  1  0  0  0  0
 64 76  1  0  0  0  0
 66 67  1  0  0  0  0
M  CHG  1  76   1
M  ISO  4  38 100  55 101  75 100  83 101
M  END
> <Batch ID>
0007

> <Smiles>
CNC(C)C(=O)NC(C(=O)N1Cc2cc([101O:1][101CH:1]3CCN(c4ccc(C[100NH:0][100C:0](=O)N5CCCC(n6nc(-c7ccc(Oc8ccc(F)cc8F)cc7)c(C(N)=O)c6N)C5)c(C)c4)CC3)ccc2CC1C(=O)NC1CCCc2ccccc21)C(C)(C)C

> <Shape>
0.288

> <Color>
0.121

> <Negative vol penalty>
0.000

$$$$

  -OEChem-04042320322D

  0  0  0     0  0  0  0  0  0999 V2000
M  END
$$$$
