
  -OEChem-04042320353D

 86 95  0     1  0  0  0  0  0999 V2000
  -28.6893  -33.2723   25.0765 C   0  0  0  0  0  0  0  0  0  0  0  0
  -28.6780  -32.0329   24.4447 C   0  0  0  0  0  0  0  0  0  0  0  0
  -23.5431  -10.3300   21.3558 C   0  0  0  0  0  0  0  0  0  0  0  0
  -22.9721  -12.2350   22.7277 C   0  0  0  0  0  0  0  0  0  0  0  0
  -27.5262  -33.7620   25.6693 C   0  0  0  0  0  0  0  0  0  0  0  0
  -27.5037  -31.2819   24.4063 C   0  0  0  0  0  0  0  0  0  0  0  0
  -26.6134  -29.3011   19.8315 C   0  0  0  0  0  0  0  0  0  0  0  0
  -30.1046  -21.1856   20.2271 C   0  0  0  0  0  0  0  0  0  0  0  0
  -30.0498  -19.7936   20.2956 C   0  0  0  0  0  0  0  0  0  0  0  0
  -22.7334   -9.5165   22.1484 C   0  0  0  0  0  0  0  0  0  0  0  0
  -22.1624  -11.4215   23.5203 C   0  0  0  0  0  0  0  0  0  0  0  0
  -27.3420  -28.1668   19.4760 C   0  0  0  0  0  0  0  0  0  0  0  0
  -22.5685   -9.1782   26.0170 C   0  0  0  0  0  0  0  0  0  0  0  0
  -22.6677   -9.3171   27.4013 C   0  0  0  0  0  0  0  0  0  0  0  0
  -25.4479  -26.7820   20.0364 C   0  0  0  0  0  0  0  0  0  0  0  0
  -27.9224  -19.8209   19.1509 C   0  0  0  0  0  0  0  0  0  0  0  0
  -20.3293   -9.9152   27.5089 C   0  0  0  0  0  0  0  0  0  0  0  0
  -23.6625  -11.6893   21.6455 C   0  0  0  0  0  0  0  0  0  0  0  0
  -24.1188  -13.2453   19.6761 C   0  0  0  0  0  0  0  0  0  0  0  0
  -26.3346  -33.0209   25.6297 C   0  0  0  0  0  0  0  0  0  0  0  0
  -25.2981  -29.1833   20.3032 C   0  0  0  0  0  0  0  0  0  0  0  0
  -26.3239  -31.7615   25.0002 C   0  0  0  0  0  0  0  0  0  0  0  0
  -24.7039  -27.9166   20.3947 C   0  0  0  0  0  0  0  0  0  0  0  0
  -27.9771  -21.2130   19.0824 C   0  0  0  0  0  0  0  0  0  0  0  0
  -29.0682  -21.8954   19.6205 C   0  0  0  0  0  0  0  0  0  0  0  0
  -28.9588  -19.1112   19.7575 C   0  0  0  0  0  0  0  0  0  0  0  0
  -22.0430  -10.0623   23.2306 C   0  0  0  0  0  0  0  0  0  0  0  0
  -26.7602  -26.9068   19.5812 C   0  0  0  0  0  0  0  0  0  0  0  0
  -21.3497   -9.4079   25.3785 C   0  0  0  0  0  0  0  0  0  0  0  0
  -21.5481   -9.6856   28.1473 C   0  0  0  0  0  0  0  0  0  0  0  0
  -20.2302   -9.7764   26.1245 C   0  0  0  0  0  0  0  0  0  0  0  0
  -24.4992  -12.5300   20.8274 C   0  0  0  0  0  0  0  0  0  0  0  0
  -25.2670  -13.8815   19.2721 C   0  0  0  0  0  0  0  0  0  0  0  0
  -22.8416  -13.3274   19.0298 C   0  0  0  0  0  0  0  0  0  0  0  0
  -23.8180  -29.8999   23.0233 C   0  0  0  0  0  0  0  0  0  0  0  0
  -21.1733  -29.0256   21.3610 C   0  0  0  0  0  0  0  0  0  0  0  0
  -19.8318  -27.2371   18.7825 C   0  0  0  0  0  0  0  0  0  0  0  0
  -29.8479  -16.8415   20.3934 C   0  0  0  0  0  0  0  0  0  0  0  0
  -25.1146  -33.5704   26.3255 C   0  0  0  0  0  0  0  0  0  0  0  0
  -24.5165  -30.4187   20.6572 C   0  0  0  0  0  0  0  0  0  0  0  0
  -23.2880  -27.7378   20.8761 C   0  0  0  0  0  0  0  0  0  0  0  0
  -23.8165  -32.8800   25.9149 C   0  0  0  0  0  0  0  0  0  0  0  0
  -30.0599  -13.3102   20.7965 C   0  0  0  0  0  0  0  0  0  0  0  0
  -23.9921  -31.3648   25.9227 C   0  0  0  0  0  0  0  0  0  0  0  0
  -28.6008  -12.8513   20.7458 C   0  0  0  0  0  0  0  0  0  0  0  0
  -29.8465  -25.4444   18.9891 C   0  0  0  0  0  0  0  0  0  0  0  0
  -30.2079  -14.6519   21.5119 C   0  0  0  0  0  0  0  0  0  0  0  0
  -29.7517  -24.0120   18.4638 C   0  0  0  0  0  0  0  0  0  0  0  0
  -27.8902  -15.2681   20.9481 C   0  0  0  0  0  0  0  0  0  0  0  0
  -28.6016  -24.1631   20.5911 C   0  0  0  0  0  0  0  0  0  0  0  0
  -25.0634  -30.9284   24.9160 C   0  0  1  0  0  0  0  0  0  0  0  0
  -23.3602  -30.1408   21.6127 C   0  0  1  0  0  0  0  0  0  0  0  0
  -27.6830  -13.9526   20.1799 C   0  0  2  0  0  0  0  0  0  0  0  0
  -28.6732  -25.5495   19.9524 C   0  0  2  0  0  0  0  0  0  1  0  0
  -17.6364  -26.6896   17.6972 C   0  0  0  0  0  0  0  0  0  0  0  0
  -20.5276  -27.1046   23.6419 C   0  0  0  0  0  0  0  0  0  0  0  0
  -18.9198  -25.9421   22.1149 C   0  0  0  0  0  0  0  0  0  0  0  0
  -18.5531  -28.3335   22.7224 C   0  0  0  0  0  0  0  0  0  0  0  0
  -20.6697  -28.4421   16.2125 C   0  0  0  0  0  0  0  0  0  0  0  0
  -20.4296  -27.7307   21.1390 C   0  0  1  0  0  0  0  0  0  0  0  0
  -18.8391  -27.6204   17.6999 C   0  0  2  0  0  0  0  0  0  0  0  0
  -26.8530  -21.9485   18.4284 C   0  0  0  0  0  0  0  0  0  0  0  0
  -19.6349  -27.2806   22.3973 C   0  0  0  0  0  0  0  0  0  0  0  0
  -25.7884  -12.6956   21.1348 N   0  0  0  0  0  0  0  0  0  0  0  0
  -26.2281  -13.5223   20.1707 N   0  0  0  0  0  0  0  0  0  0  0  0
  -29.1383  -23.2714   19.5622 N   0  0  3  0  0  0  0  0  0  0  0  0
  -22.5670  -28.9755   21.2163 N   0  0  0  0  0  0  0  0  0  0  0  0
  -29.3116  -15.6471   20.9193 N   0  0  0  0  0  0  0  0  0  0  0  0
  -25.5383  -14.7074   18.2393 N   0  0  0  0  0  0  0  0  0  0  0  0
  -21.7685  -12.6109   19.5770 N   0  0  0  0  0  0  0  0  0  0  0  0
  -28.9036  -17.6970   19.8267 N   0  0  0  0  0  0  0  0  0  0  0  0
  -24.5311  -30.9495   23.5704 N   0  0  0  0  0  0  0  0  0  0  0  0
  -19.6056  -27.9315   19.9520 N   0  0  0  0  0  0  0  0  0  0  0  0
  -19.4853  -27.5572   16.3585 N   0  3  0  0  0  0  0  0  0  0  0  0
  -22.6613  -14.0028   17.9882 O   0  0  0  0  0  0  0  0  0  0  0  0
  -23.5433  -28.8408   23.5752 O   0  0  0  0  0  0  0  0  0  0  0  0
  -20.5403  -30.0455   21.6450 O   0  0  0  0  0  0  0  0  0  0  0  0
  -20.7170  -26.4022   18.6092 O   0  0  0  0  0  0  0  0  0  0  0  0
  -31.0590  -17.0750   20.4177 O   0  0  0  0  0  0  0  0  0  0  0  0
  -21.2527   -9.2688   24.0041 O   0  0  0  0  0  0  0  0  0  0  0  0
  -27.4693  -25.7979   19.2355 O   0  0  0  0  0  0  0  0  0  1  0  0
  -21.6432   -9.8174   29.4768 F   0  0  0  0  0  0  0  0  0  0  0  0
  -19.0563   -9.9972   25.5169 F   0  0  0  0  0  0  0  0  0  0  0  0
  -25.8672  -21.1300   17.9578 F   0  0  0  0  0  0  0  0  0  0  0  0
  -26.2220  -22.8282   19.2594 F   0  0  0  0  0  0  0  0  0  0  0  0
  -27.2639  -22.6844   17.3562 F   0  0  0  0  0  0  0  0  0  0  0  0
  1  2  1  0  0  0  0
  1  5  2  0  0  0  0
  2  6  2  0  0  0  0
  3 10  2  0  0  0  0
  3 18  1  0  0  0  0
  4 11  1  0  0  0  0
  4 18  2  0  0  0  0
  5 20  1  0  0  0  0
  6 22  1  0  0  0  0
  7 12  2  0  0  0  0
  7 21  1  0  0  0  0
  8  9  2  0  0  0  0
  8 25  1  0  0  0  0
  9 26  1  0  0  0  0
 10 27  1  0  0  0  0
 11 27  2  0  0  0  0
 12 28  1  0  0  0  0
 13 14  2  0  0  0  0
 13 29  1  0  0  0  0
 14 30  1  0  0  0  0
 15 23  1  0  0  0  0
 15 28  2  0  0  0  0
 16 24  1  0  0  0  0
 16 26  2  0  0  0  0
 17 30  2  0  0  0  0
 17 31  1  0  0  0  0
 18 32  1  0  0  0  0
 19 32  1  0  0  0  0
 19 33  2  0  0  0  0
 19 34  1  0  0  0  0
 20 22  2  0  0  0  0
 20 39  1  0  0  0  0
 21 23  2  0  0  0  0
 21 40  1  0  0  0  0
 22 51  1  0  0  0  0
 23 41  1  0  0  0  0
 24 25  2  0  0  0  0
 24 62  1  0  0  0  0
 25 66  1  0  0  0  0
 26 71  1  0  0  0  0
 27 80  1  0  0  0  0
 28 81  1  0  0  0  0
 29 31  2  0  0  0  0
 29 80  1  0  0  0  0
 30 82  1  0  0  0  0
 31 83  1  0  0  0  0
 32 64  2  0  0  0  0
 33 65  1  0  0  0  0
 33 69  1  0  0  0  0
 34 70  1  0  0  0  0
 34 75  2  0  0  0  0
 35 52  1  0  0  0  0
 35 72  1  0  0  0  0
 35 76  2  0  0  0  0
 36 60  1  0  0  0  0
 36 67  1  0  0  0  0
 36 77  2  0  0  0  0
 37 61  1  0  0  0  0
 37 73  1  0  0  0  0
 37 78  2  0  0  0  0
 38 68  1  0  0  0  0
 38 71  1  0  0  0  0
 38 79  2  0  0  0  0
 39 42  1  0  0  0  0
 40 52  1  0  0  0  0
 41 67  1  0  0  0  0
 42 44  1  0  0  0  0
 43 45  1  0  0  0  0
 43 47  1  0  0  0  0
 44 51  1  0  0  0  0
 45 53  1  0  0  0  0
 46 48  1  0  0  0  0
 46 54  1  0  0  0  0
 47 68  1  0  0  0  0
 48 66  1  0  0  0  0
 49 53  1  0  0  0  0
 49 68  1  0  0  0  0
 50 54  1  0  0  0  0
 50 66  1  0  0  0  0
 51 72  1  0  0  0  0
 52 67  1  0  0  0  0
 53 65  1  0  0  0  0
 54 81  1  0  0  0  0
 55 61  1  0  0  0  0
 56 63  1  0  0  0  0
 57 63  1  0  0  0  0
 58 63  1  0  0  0  0
 59 74  1  0  0  0  0
 60 63  1  0  0  0  0
 60 73  1  0  0  0  0
 61 74  1  0  0  0  0
 62 84  1  0  0  0  0
 62 85  1  0  0  0  0
 62 86  1  0  0  0  0
 64 65  1  0  0  0  0
M  CHG  1  74   1
M  ISO  4  38 100  54 101  71 100  81 101
M  END
> <Batch ID>
0008

> <Smiles>
CNC(C)C(=O)NC(C(=O)N1Cc2cc([101O:1][101CH:1]3CCN(c4ccc([100NH:0][100C:0](=O)N5CCCC(n6nc(-c7ccc(Oc8ccc(F)cc8F)cc7)c(C(N)=O)c6N)C5)cc4C(F)(F)F)C3)ccc2CC1C(=O)NC1CCCc2ccccc21)C(C)(C)C

> <Shape>
0.325

> <Color>
0.065

> <Negative vol penalty>
0.000

$$$$

  -OEChem-04042320353D

 86 95  0     1  0  0  0  0  0999 V2000
  -32.1857  -22.2763   21.6663 C   0  0  0  0  0  0  0  0  0  0  0  0
  -30.8538  -22.6001   21.9043 C   0  0  0  0  0  0  0  0  0  0  0  0
  -29.8083  -27.5100   19.2412 C   0  0  0  0  0  0  0  0  0  0  0  0
  -29.3282  -26.5946   21.4249 C   0  0  0  0  0  0  0  0  0  0  0  0
  -32.5075  -21.3090   20.7151 C   0  0  0  0  0  0  0  0  0  0  0  0
  -29.8429  -21.9575   21.1904 C   0  0  0  0  0  0  0  0  0  0  0  0
  -24.2732  -20.4502   23.2428 C   0  0  0  0  0  0  0  0  0  0  0  0
  -18.8123  -27.7371   21.5000 C   0  0  0  0  0  0  0  0  0  0  0  0
  -18.3915  -26.4121   21.3866 C   0  0  0  0  0  0  0  0  0  0  0  0
  -31.1548  -27.1824   19.3999 C   0  0  0  0  0  0  0  0  0  0  0  0
  -30.6747  -26.2670   21.5836 C   0  0  0  0  0  0  0  0  0  0  0  0
  -23.0279  -21.0633   23.1124 C   0  0  0  0  0  0  0  0  0  0  0  0
  -33.0912  -24.4206   19.1636 C   0  0  0  0  0  0  0  0  0  0  0  0
  -33.7422  -23.8156   18.0886 C   0  0  0  0  0  0  0  0  0  0  0  0
  -22.5256  -19.6307   21.2377 C   0  0  0  0  0  0  0  0  0  0  0  0
  -35.3087  -25.6531   18.0032 C   0  0  0  0  0  0  0  0  0  0  0  0
  -28.8950  -27.2161   20.2537 C   0  0  0  0  0  0  0  0  0  0  0  0
  -26.4932  -26.7503   19.5313 C   0  0  0  0  0  0  0  0  0  0  0  0
  -31.4996  -20.6473   19.9961 C   0  0  0  0  0  0  0  0  0  0  0  0
  -24.6591  -19.4285   22.3632 C   0  0  0  0  0  0  0  0  0  0  0  0
  -30.1516  -20.9814   20.2277 C   0  0  0  0  0  0  0  0  0  0  0  0
  -23.7753  -19.0045   21.3606 C   0  0  0  0  0  0  0  0  0  0  0  0
  -19.5353  -28.1458   22.6207 C   0  0  0  0  0  0  0  0  0  0  0  0
  -18.6938  -25.4958   22.3939 C   0  0  0  0  0  0  0  0  0  0  0  0
  -19.8375  -27.2295   23.6280 C   0  0  0  0  0  0  0  0  0  0  0  0
  -31.5880  -26.5609   20.5711 C   0  0  0  0  0  0  0  0  0  0  0  0
  -22.1550  -20.6556   22.1080 C   0  0  0  0  0  0  0  0  0  0  0  0
  -33.5488  -25.6419   19.6584 C   0  0  0  0  0  0  0  0  0  0  0  0
  -34.8510  -24.4318   17.5084 C   0  0  0  0  0  0  0  0  0  0  0  0
  -34.6576  -26.2581   19.0782 C   0  0  0  0  0  0  0  0  0  0  0  0
  -19.4168  -25.9045   23.5146 C   0  0  0  0  0  0  0  0  0  0  0  0
  -27.5040  -27.5548   20.0906 C   0  0  0  0  0  0  0  0  0  0  0  0
  -25.3594  -27.5219   19.6064 C   0  0  0  0  0  0  0  0  0  0  0  0
  -26.5720  -25.4241   18.9921 C   0  0  0  0  0  0  0  0  0  0  0  0
  -26.9952  -19.0604   20.2394 C   0  0  0  0  0  0  0  0  0  0  0  0
  -25.8094  -16.0478   20.0381 C   0  0  0  0  0  0  0  0  0  0  0  0
  -23.1518  -13.9469   20.4499 C   0  0  0  0  0  0  0  0  0  0  0  0
  -21.9998  -30.9742   22.4242 C   0  0  0  0  0  0  0  0  0  0  0  0
  -31.8984  -19.6427   18.9443 C   0  0  0  0  0  0  0  0  0  0  0  0
  -25.9951  -18.7589   22.5339 C   0  0  0  0  0  0  0  0  0  0  0  0
  -24.1337  -17.8982   20.4035 C   0  0  0  0  0  0  0  0  0  0  0  0
  -30.7510  -18.7404   18.4977 C   0  0  0  0  0  0  0  0  0  0  0  0
  -24.7785  -32.4193   20.7309 C   0  0  0  0  0  0  0  0  0  0  0  0
  -29.4980  -19.5661   18.2238 C   0  0  0  0  0  0  0  0  0  0  0  0
  -25.6543  -31.2172   20.3730 C   0  0  0  0  0  0  0  0  0  0  0  0
  -19.4178  -21.3012   20.1169 C   0  0  0  0  0  0  0  0  0  0  0  0
  -24.1021  -32.2406   22.0883 C   0  0  0  0  0  0  0  0  0  0  0  0
  -24.2117  -29.7873   21.8808 C   0  0  0  0  0  0  0  0  0  0  0  0
  -18.2955  -21.9676   20.8867 C   0  0  0  0  0  0  0  0  0  0  0  0
  -20.3066  -23.3624   20.9852 C   0  0  0  0  0  0  0  0  0  0  0  0
  -29.0256  -20.2887   19.4912 C   0  0  1  0  0  0  0  0  0  0  0  0
  -26.4905  -18.0805   21.2605 C   0  0  1  0  0  0  0  0  0  0  0  0
  -24.8707  -29.8965   20.4951 C   0  0  2  0  0  0  0  0  0  0  0  0
  -20.6650  -21.9052   20.7389 C   0  0  1  0  0  0  0  0  0  1  0  0
  -20.6100  -27.6485   24.8359 C   0  0  0  0  0  0  0  0  0  0  0  0
  -22.4757  -11.5468   20.1669 C   0  0  0  0  0  0  0  0  0  0  0  0
  -25.6084  -16.4627   17.0219 C   0  0  0  0  0  0  0  0  0  0  0  0
  -24.0872  -14.4768   16.9204 C   0  0  0  0  0  0  0  0  0  0  0  0
  -26.4374  -14.2062   17.7117 C   0  0  0  0  0  0  0  0  0  0  0  0
  -22.5761  -13.6477   23.3375 C   0  0  0  0  0  0  0  0  0  0  0  0
  -19.9749  -29.5699   22.7191 C   0  0  0  0  0  0  0  0  0  0  0  0
  -18.2388  -24.0716   22.2684 C   0  0  0  0  0  0  0  0  0  0  0  0
  -24.7548  -15.3679   19.1988 C   0  0  1  0  0  0  0  0  0  0  0  0
  -23.0346  -12.5905   21.1215 C   0  0  2  0  0  0  0  0  0  0  0  0
  -25.2157  -15.1506   17.7299 C   0  0  0  0  0  0  0  0  0  0  0  0
  -27.0523  -28.7461   20.4912 N   0  0  0  0  0  0  0  0  0  0  0  0
  -25.7451  -28.6960   20.1833 N   0  0  0  0  0  0  0  0  0  0  0  0
  -25.4537  -17.2790   20.6071 N   0  0  0  0  0  0  0  0  0  0  0  0
  -23.3750  -30.9699   22.1379 N   0  0  0  0  0  0  0  0  0  0  0  0
  -24.0801  -27.3038   19.2344 N   0  0  0  0  0  0  0  0  0  0  0  0
  -27.8144  -24.7754   18.9926 N   0  0  0  0  0  0  0  0  0  0  0  0
  -28.3359  -19.3688   20.3701 N   0  0  0  0  0  0  0  0  0  0  0  0
  -24.4025  -14.1394   19.9025 N   0  0  0  0  0  0  0  0  0  0  0  0
  -21.3860  -29.7278   22.4456 N   0  0  0  0  0  0  0  0  0  0  0  0
  -18.7867  -23.3861   21.0581 N   0  3  2  0  0  0  0  0  0  0  0  0
  -22.1337  -12.6748   22.3056 N   0  3  0  0  0  0  0  0  0  0  0  0
  -25.5737  -24.8381   18.5089 O   0  0  0  0  0  0  0  0  0  0  0  0
  -26.2257  -19.5029   19.3946 O   0  0  0  0  0  0  0  0  0  0  0  0
  -26.9058  -15.5032   20.1895 O   0  0  0  0  0  0  0  0  0  0  0  0
  -22.2251  -14.7533   20.4114 O   0  0  0  0  0  0  0  0  0  0  0  0
  -21.3650  -32.0123   22.6393 O   0  0  0  0  0  0  0  0  0  0  0  0
  -32.9019  -26.2409   20.7262 O   0  0  0  0  0  0  0  0  0  0  0  0
  -20.9391  -21.2528   21.9781 O   0  0  0  0  0  0  0  0  0  1  0  0
  -35.4771  -23.8500   16.4770 F   0  0  0  0  0  0  0  0  0  0  0  0
  -35.1026  -27.4308   19.5499 F   0  0  0  0  0  0  0  0  0  0  0  0
  -19.7066  -25.0228   24.4832 F   0  0  0  0  0  0  0  0  0  0  0  0
  1  2  1  0  0  0  0
  1  5  2  0  0  0  0
  2  6  2  0  0  0  0
  3 10  2  0  0  0  0
  3 17  1  0  0  0  0
  4 11  1  0  0  0  0
  4 17  2  0  0  0  0
  5 19  1  0  0  0  0
  6 21  1  0  0  0  0
  7 12  2  0  0  0  0
  7 20  1  0  0  0  0
  8  9  2  0  0  0  0
  8 23  1  0  0  0  0
  9 24  1  0  0  0  0
 10 26  1  0  0  0  0
 11 26  2  0  0  0  0
 12 27  1  0  0  0  0
 13 14  2  0  0  0  0
 13 28  1  0  0  0  0
 14 29  1  0  0  0  0
 15 22  1  0  0  0  0
 15 27  2  0  0  0  0
 16 29  2  0  0  0  0
 16 30  1  0  0  0  0
 17 32  1  0  0  0  0
 18 32  1  0  0  0  0
 18 33  2  0  0  0  0
 18 34  1  0  0  0  0
 19 21  2  0  0  0  0
 19 39  1  0  0  0  0
 20 22  2  0  0  0  0
 20 40  1  0  0  0  0
 21 51  1  0  0  0  0
 22 41  1  0  0  0  0
 23 25  2  0  0  0  0
 23 61  1  0  0  0  0
 24 31  2  0  0  0  0
 24 62  1  0  0  0  0
 25 31  1  0  0  0  0
 25 55  1  0  0  0  0
 26 82  1  0  0  0  0
 27 83  1  0  0  0  0
 28 30  2  0  0  0  0
 28 82  1  0  0  0  0
 29 84  1  0  0  0  0
 30 85  1  0  0  0  0
 31 86  1  0  0  0  0
 32 66  2  0  0  0  0
 33 67  1  0  0  0  0
 33 70  1  0  0  0  0
 34 71  1  0  0  0  0
 34 77  2  0  0  0  0
 35 52  1  0  0  0  0
 35 72  1  0  0  0  0
 35 78  2  0  0  0  0
 36 63  1  0  0  0  0
 36 68  1  0  0  0  0
 36 79  2  0  0  0  0
 37 64  1  0  0  0  0
 37 73  1  0  0  0  0
 37 80  2  0  0  0  0
 38 69  1  0  0  0  0
 38 74  1  0  0  0  0
 38 81  2  0  0  0  0
 39 42  1  0  0  0  0
 40 52  1  0  0  0  0
 41 68  1  0  0  0  0
 42 44  1  0  0  0  0
 43 45  1  0  0  0  0
 43 47  1  0  0  0  0
 44 51  1  0  0  0  0
 45 53  1  0  0  0  0
 46 49  1  0  0  0  0
 46 54  1  0  0  0  0
 47 69  1  0  0  0  0
 48 53  1  0  0  0  0
 48 69  1  0  0  0  0
 49 75  1  0  0  0  0
 50 54  1  0  0  0  0
 50 75  1  0  0  0  0
 51 72  1  0  0  0  0
 52 68  1  0  0  0  0
 53 67  1  0  0  0  0
 54 83  1  0  0  0  0
 56 64  1  0  0  0  0
 57 65  1  0  0  0  0
 58 65  1  0  0  0  0
 59 65  1  0  0  0  0
 60 76  1  0  0  0  0
 61 74  1  0  0  0  0
 62 75  1  0  0  0  0
 63 65  1  0  0  0  0
 63 73  1  0  0  0  0
 64 76  1  0  0  0  0
 66 67  1  0  0  0  0
M  CHG  2  75   1  76   1
M  ISO  4  38 100  54 101  74 100  83 101
M  END
> <Batch ID>
0008

> <Smiles>
CNC(C)C(=O)NC(C(=O)N1Cc2cc([101O:1][101CH:1]3CCN(Cc4ccc(C[100NH:0][100C:0](=O)N5CCCC(n6nc(-c7ccc(Oc8ccc(F)cc8F)cc7)c(C(N)=O)c6N)C5)c(C)c4F)C3)ccc2CC1C(=O)NC1CCCc2ccccc21)C(C)(C)C

> <Shape>
0.224

> <Color>
0.083

> <Negative vol penalty>
0.000

$$$$

  -OEChem-04042320353D

 85 94  0     1  0  0  0  0  0999 V2000
  -18.9755  -24.2960   22.0836 C   0  0  0  0  0  0  0  0  0  0  0  0
  -20.2077  -24.5463   21.4883 C   0  0  0  0  0  0  0  0  0  0  0  0
  -23.8533  -20.5535   14.7703 C   0  0  0  0  0  0  0  0  0  0  0  0
  -20.6653  -12.9944   22.0449 C   0  0  0  0  0  0  0  0  0  0  0  0
  -20.3844  -13.3250   19.6682 C   0  0  0  0  0  0  0  0  0  0  0  0
  -18.1790  -25.3587   22.5081 C   0  0  0  0  0  0  0  0  0  0  0  0
  -20.6436  -25.8596   21.3161 C   0  0  0  0  0  0  0  0  0  0  0  0
  -24.7821  -21.5941   14.7704 C   0  0  0  0  0  0  0  0  0  0  0  0
  -25.4957  -26.4835   22.6251 C   0  0  0  0  0  0  0  0  0  0  0  0
  -23.3010  -20.1114   15.9725 C   0  0  0  0  0  0  0  0  0  0  0  0
  -19.4872  -12.2485   22.0805 C   0  0  0  0  0  0  0  0  0  0  0  0
  -19.2062  -12.5791   19.7037 C   0  0  0  0  0  0  0  0  0  0  0  0
  -26.4609  -26.0515   21.7165 C   0  0  0  0  0  0  0  0  0  0  0  0
  -18.5028   -9.1082   21.3045 C   0  0  0  0  0  0  0  0  0  0  0  0
  -18.5138   -7.9127   22.0231 C   0  0  0  0  0  0  0  0  0  0  0  0
  -24.6066  -21.7505   17.1749 C   0  0  0  0  0  0  0  0  0  0  0  0
  -26.7572  -28.3231   20.9607 C   0  0  0  0  0  0  0  0  0  0  0  0
  -16.7559   -8.7547   23.4506 C   0  0  0  0  0  0  0  0  0  0  0  0
  -21.1139  -13.5327   20.8388 C   0  0  0  0  0  0  0  0  0  0  0  0
  -23.6351  -13.8232   20.5803 C   0  0  0  0  0  0  0  0  0  0  0  0
  -25.1588  -22.1926   15.9727 C   0  0  0  0  0  0  0  0  0  0  0  0
  -18.6096  -26.6854   22.3497 C   0  0  0  0  0  0  0  0  0  0  0  0
  -25.1456  -27.8392   22.7009 C   0  0  0  0  0  0  0  0  0  0  0  0
  -19.8515  -26.9411   21.7376 C   0  0  0  0  0  0  0  0  0  0  0  0
  -25.7891  -28.7701   21.8729 C   0  0  0  0  0  0  0  0  0  0  0  0
  -23.6777  -20.7099   17.1748 C   0  0  0  0  0  0  0  0  0  0  0  0
  -18.7577  -12.0409   20.9099 C   0  0  0  0  0  0  0  0  0  0  0  0
  -27.0898  -26.9710   20.8821 C   0  0  0  0  0  0  0  0  0  0  0  0
  -17.6184  -10.1269   21.6590 C   0  0  0  0  0  0  0  0  0  0  0  0
  -17.6403   -7.7360   23.0961 C   0  0  0  0  0  0  0  0  0  0  0  0
  -16.7449   -9.9502   22.7320 C   0  0  0  0  0  0  0  0  0  0  0  0
  -22.3305  -14.3037   20.8016 C   0  0  0  0  0  0  0  0  0  0  0  0
  -24.4284  -14.9427   20.6415 C   0  0  0  0  0  0  0  0  0  0  0  0
  -24.0892  -12.4845   20.3409 C   0  0  0  0  0  0  0  0  0  0  0  0
  -22.4758  -29.4967   22.2224 C   0  0  0  0  0  0  0  0  0  0  0  0
  -24.2686  -31.9608   23.3342 C   0  0  0  0  0  0  0  0  0  0  0  0
  -27.3708  -33.2939   23.8302 C   0  0  0  0  0  0  0  0  0  0  0  0
  -23.3808  -20.7458   19.6762 C   0  0  0  0  0  0  0  0  0  0  0  0
  -17.6930  -27.8026   22.7813 C   0  0  0  0  0  0  0  0  0  0  0  0
  -24.1216  -28.2928   23.7050 C   0  0  0  0  0  0  0  0  0  0  0  0
  -25.4639  -30.2396   21.9292 C   0  0  0  0  0  0  0  0  0  0  0  0
  -18.3939  -29.1533   22.9022 C   0  0  0  0  0  0  0  0  0  0  0  0
  -24.6383  -19.2776   22.6662 C   0  0  0  0  0  0  0  0  0  0  0  0
  -19.2694  -29.4116   21.6801 C   0  0  0  0  0  0  0  0  0  0  0  0
  -24.3133  -17.7908   22.5045 C   0  0  0  0  0  0  0  0  0  0  0  0
  -25.5198  -24.5871   16.5410 C   0  0  0  0  0  0  0  0  0  0  0  0
  -27.3961  -22.9122   16.7873 C   0  0  0  0  0  0  0  0  0  0  0  0
  -23.5377  -20.1649   22.0872 C   0  0  0  0  0  0  0  0  0  0  0  0
  -22.8434  -18.3818   20.5354 C   0  0  0  0  0  0  0  0  0  0  0  0
  -26.5331  -25.7210   16.6311 C   0  0  0  0  0  0  0  0  0  0  0  0
  -28.3951  -24.0589   16.8752 C   0  0  0  0  0  0  0  0  0  0  0  0
  -26.1542  -23.3076   15.9723 C   0  0  0  0  0  0  0  0  0  0  0  0
  -20.3701  -28.3511   21.5558 C   0  0  1  0  0  0  0  0  0  0  0  0
  -23.4741  -29.6245   23.3381 C   0  0  1  0  0  0  0  0  0  0  0  0
  -23.9532  -17.4481   21.0456 C   0  0  2  0  0  0  0  0  0  0  0  0
  -28.5156  -35.3393   24.7264 C   0  0  0  0  0  0  0  0  0  0  0  0
  -23.5055  -33.4919   20.8077 C   0  0  0  0  0  0  0  0  0  0  0  0
  -25.3816  -35.0791   21.2867 C   0  0  0  0  0  0  0  0  0  0  0  0
  -23.4923  -34.8604   22.9008 C   0  0  0  0  0  0  0  0  0  0  0  0
  -28.7890  -31.7325   25.9062 C   0  0  0  0  0  0  0  0  0  0  0  0
  -28.6881  -26.3981   17.6856 C   0  0  0  0  0  0  0  0  0  0  0  0
  -28.1632  -27.2997   18.7855 C   0  0  0  0  0  0  0  0  0  1  0  0
  -25.1800  -32.9880   22.7072 C   0  0  1  0  0  0  0  0  0  0  0  0
  -28.0054  -33.9430   25.0469 C   0  0  2  0  0  0  0  0  0  0  0  0
  -24.3948  -34.0770   21.9229 C   0  0  0  0  0  0  0  0  0  0  0  0
  -22.2929  -15.6256   20.9895 N   0  0  0  0  0  0  0  0  0  0  0  0
  -23.5837  -15.9852   20.8865 N   0  0  0  0  0  0  0  0  0  0  0  0
  -24.4514  -30.6329   22.9231 N   0  0  0  0  0  0  0  0  0  0  0  0
  -23.2530  -19.7852   20.7016 N   0  0  0  0  0  0  0  0  0  0  0  0
  -25.7591  -15.1273   20.5091 N   0  0  0  0  0  0  0  0  0  0  0  0
  -23.1411  -11.4528   20.3102 N   0  0  0  0  0  0  0  0  0  0  0  0
  -23.1160  -20.2610   18.3958 N   0  0  0  0  0  0  0  0  0  0  0  0
  -21.4406  -28.6217   22.4913 N   0  0  0  0  0  0  0  0  0  0  0  0
  -26.0098  -33.5109   23.7871 N   0  0  0  0  0  0  0  0  0  0  0  0
  -27.7273  -25.2888   17.4609 N   0  3  0  0  0  0  0  0  0  0  0  0
  -29.1518  -33.1237   25.5323 N   0  3  0  0  0  0  0  0  0  0  0  0
  -25.3018  -12.2090   20.1758 O   0  0  0  0  0  0  0  0  0  0  0  0
  -22.6323  -30.1450   21.1944 O   0  0  0  0  0  0  0  0  0  0  0  0
  -23.4303  -32.3223   24.1638 O   0  0  0  0  0  0  0  0  0  0  0  0
  -28.0182  -32.6610   22.9991 O   0  0  0  0  0  0  0  0  0  0  0  0
  -23.7279  -21.9057   19.9131 O   0  0  0  0  0  0  0  0  0  0  0  0
  -17.6081  -11.3129   20.9441 O   0  0  0  0  0  0  0  0  0  0  0  0
  -28.0318  -26.5520   19.9939 O   0  0  0  0  0  0  0  0  0  1  0  0
  -17.6499   -6.5873   23.7851 F   0  0  0  0  0  0  0  0  0  0  0  0
  -15.8922  -10.9248   23.0766 F   0  0  0  0  0  0  0  0  0  0  0  0
  1  2  1  0  0  0  0
  1  6  2  0  0  0  0
  2  7  2  0  0  0  0
  3  8  2  0  0  0  0
  3 10  1  0  0  0  0
  4 11  2  0  0  0  0
  4 19  1  0  0  0  0
  5 12  1  0  0  0  0
  5 19  2  0  0  0  0
  6 22  1  0  0  0  0
  7 24  1  0  0  0  0
  8 21  1  0  0  0  0
  9 13  2  0  0  0  0
  9 23  1  0  0  0  0
 10 26  2  0  0  0  0
 11 27  1  0  0  0  0
 12 27  2  0  0  0  0
 13 28  1  0  0  0  0
 14 15  2  0  0  0  0
 14 29  1  0  0  0  0
 15 30  1  0  0  0  0
 16 21  2  0  0  0  0
 16 26  1  0  0  0  0
 17 25  1  0  0  0  0
 17 28  2  0  0  0  0
 18 30  2  0  0  0  0
 18 31  1  0  0  0  0
 19 32  1  0  0  0  0
 20 32  1  0  0  0  0
 20 33  2  0  0  0  0
 20 34  1  0  0  0  0
 21 52  1  0  0  0  0
 22 24  2  0  0  0  0
 22 39  1  0  0  0  0
 23 25  2  0  0  0  0
 23 40  1  0  0  0  0
 24 53  1  0  0  0  0
 25 41  1  0  0  0  0
 26 72  1  0  0  0  0
 27 82  1  0  0  0  0
 28 83  1  0  0  0  0
 29 31  2  0  0  0  0
 29 82  1  0  0  0  0
 30 84  1  0  0  0  0
 31 85  1  0  0  0  0
 32 66  2  0  0  0  0
 33 67  1  0  0  0  0
 33 70  1  0  0  0  0
 34 71  1  0  0  0  0
 34 77  2  0  0  0  0
 35 54  1  0  0  0  0
 35 73  1  0  0  0  0
 35 78  2  0  0  0  0
 36 63  1  0  0  0  0
 36 68  1  0  0  0  0
 36 79  2  0  0  0  0
 37 64  1  0  0  0  0
 37 74  1  0  0  0  0
 37 80  2  0  0  0  0
 38 69  1  0  0  0  0
 38 72  1  0  0  0  0
 38 81  2  0  0  0  0
 39 42  1  0  0  0  0
 40 54  1  0  0  0  0
 41 68  1  0  0  0  0
 42 44  1  0  0  0  0
 43 45  1  0  0  0  0
 43 48  1  0  0  0  0
 44 53  1  0  0  0  0
 45 55  1  0  0  0  0
 46 50  1  0  0  0  0
 46 52  1  0  0  0  0
 47 51  1  0  0  0  0
 47 52  1  0  0  0  0
 48 69  1  0  0  0  0
 49 55  1  0  0  0  0
 49 69  1  0  0  0  0
 50 75  1  0  0  0  0
 51 75  1  0  0  0  0
 53 73  1  0  0  0  0
 54 68  1  0  0  0  0
 55 67  1  0  0  0  0
 56 64  1  0  0  0  0
 57 65  1  0  0  0  0
 58 65  1  0  0  0  0
 59 65  1  0  0  0  0
 60 76  1  0  0  0  0
 61 62  1  0  0  0  0
 61 75  1  0  0  0  0
 62 83  1  0  0  0  0
 63 65  1  0  0  0  0
 63 74  1  0  0  0  0
 64 76  1  0  0  0  0
 66 67  1  0  0  0  0
M  CHG  2  75   1  76   1
M  ISO  4  38 100  62 101  72 100  83 101
M  END
> <Batch ID>
0008

> <Smiles>
CNC(C)C(=O)NC(C(=O)N1Cc2cc([101O:1][101CH2:1]CN3CCC(c4cccc([100NH:0][100C:0](=O)N5CCCC(n6nc(-c7ccc(Oc8ccc(F)cc8F)cc7)c(C(N)=O)c6N)C5)c4)CC3)ccc2CC1C(=O)NC1CCCc2ccccc21)C(C)(C)C

> <Shape>
0.190

> <Color>
0.118

> <Negative vol penalty>
0.000

$$$$

  -OEChem-04042320353D

 82 90  0     1  0  0  0  0  0999 V2000
  -40.0633  -23.6973   19.7985 C   0  0  0  0  0  0  0  0  0  0  0  0
  -38.7050  -23.4670   19.9920 C   0  0  0  0  0  0  0  0  0  0  0  0
  -23.0959   -9.8268   19.9552 C   0  0  0  0  0  0  0  0  0  0  0  0
  -23.8450   -9.8732   22.2517 C   0  0  0  0  0  0  0  0  0  0  0  0
  -40.5675  -24.9946   19.8790 C   0  0  0  0  0  0  0  0  0  0  0  0
  -37.8503  -24.5339   20.2672 C   0  0  0  0  0  0  0  0  0  0  0  0
  -33.5601  -24.3281   17.5845 C   0  0  0  0  0  0  0  0  0  0  0  0
  -22.3662   -8.6671   20.2166 C   0  0  0  0  0  0  0  0  0  0  0  0
  -23.1152   -8.7136   22.5131 C   0  0  0  0  0  0  0  0  0  0  0  0
  -32.5787  -23.4389   18.0203 C   0  0  0  0  0  0  0  0  0  0  0  0
  -19.8952   -7.8806   23.1114 C   0  0  0  0  0  0  0  0  0  0  0  0
  -19.1334   -7.8456   24.2793 C   0  0  0  0  0  0  0  0  0  0  0  0
  -31.4001  -25.2635   19.0697 C   0  0  0  0  0  0  0  0  0  0  0  0
  -31.0639  -17.7684   20.5461 C   0  0  0  0  0  0  0  0  0  0  0  0
  -29.5741  -19.3503   22.2955 C   0  0  0  0  0  0  0  0  0  0  0  0
  -20.3970   -5.9344   25.0462 C   0  0  0  0  0  0  0  0  0  0  0  0
  -23.8353  -10.4298   20.9727 C   0  0  0  0  0  0  0  0  0  0  0  0
  -24.1442  -12.9576   20.8218 C   0  0  0  0  0  0  0  0  0  0  0  0
  -39.7171  -26.0792   20.1457 C   0  0  0  0  0  0  0  0  0  0  0  0
  -33.4744  -25.6923   17.8979 C   0  0  0  0  0  0  0  0  0  0  0  0
  -38.3439  -25.8468   20.3526 C   0  0  0  0  0  0  0  0  0  0  0  0
  -32.3804  -26.1683   18.6345 C   0  0  0  0  0  0  0  0  0  0  0  0
  -30.1674  -17.1728   21.4333 C   0  0  0  0  0  0  0  0  0  0  0  0
  -22.3759   -8.1105   21.4956 C   0  0  0  0  0  0  0  0  0  0  0  0
  -31.5000  -23.9061   18.7654 C   0  0  0  0  0  0  0  0  0  0  0  0
  -20.9078   -6.9425   22.9108 C   0  0  0  0  0  0  0  0  0  0  0  0
  -30.4706  -19.9459   21.4083 C   0  0  0  0  0  0  0  0  0  0  0  0
  -19.3843   -6.8725   25.2467 C   0  0  0  0  0  0  0  0  0  0  0  0
  -31.2155  -19.1550   20.5336 C   0  0  0  0  0  0  0  0  0  0  0  0
  -29.4225  -17.9637   22.3080 C   0  0  0  0  0  0  0  0  0  0  0  0
  -21.1587   -5.9694   23.8782 C   0  0  0  0  0  0  0  0  0  0  0  0
  -24.5897  -11.6275   20.7031 C   0  0  0  0  0  0  0  0  0  0  0  0
  -25.2280  -13.7168   20.4538 C   0  0  0  0  0  0  0  0  0  0  0  0
  -22.8650  -13.4617   21.2283 C   0  0  0  0  0  0  0  0  0  0  0  0
  -35.2702  -27.7323   19.5462 C   0  0  0  0  0  0  0  0  0  0  0  0
  -33.1470  -29.9091   18.4167 C   0  0  0  0  0  0  0  0  0  0  0  0
  -30.0229  -30.5484   17.2009 C   0  0  0  0  0  0  0  0  0  0  0  0
  -30.6790  -14.8373   20.6395 C   0  0  0  0  0  0  0  0  0  0  0  0
  -40.3159  -27.4578   20.2699 C   0  0  0  0  0  0  0  0  0  0  0  0
  -34.5274  -26.6427   17.3975 C   0  0  0  0  0  0  0  0  0  0  0  0
  -32.2313  -27.6267   18.9801 C   0  0  0  0  0  0  0  0  0  0  0  0
  -39.2832  -28.5795   20.1945 C   0  0  0  0  0  0  0  0  0  0  0  0
  -29.6077  -12.3787   18.2975 C   0  0  0  0  0  0  0  0  0  0  0  0
  -38.0861  -28.2638   21.0858 C   0  0  0  0  0  0  0  0  0  0  0  0
  -28.1701  -12.0735   18.7243 C   0  0  0  0  0  0  0  0  0  0  0  0
  -30.5141  -12.6350   19.5002 C   0  0  0  0  0  0  0  0  0  0  0  0
  -28.5913  -13.3517   20.8635 C   0  0  0  0  0  0  0  0  0  0  0  0
  -37.3810  -26.9811   20.6285 C   0  0  1  0  0  0  0  0  0  0  0  0
  -34.6066  -27.9298   18.2127 C   0  0  1  0  0  0  0  0  0  0  0  0
  -27.6263  -13.1504   19.6836 C   0  0  2  0  0  0  0  0  0  0  0  0
  -28.5673  -32.4295   16.4010 C   0  0  0  0  0  0  0  0  0  0  0  0
  -32.7107  -30.7957   21.3034 C   0  0  0  0  0  0  0  0  0  0  0  0
  -30.6228  -31.9585   20.5573 C   0  0  0  0  0  0  0  0  0  0  0  0
  -32.8349  -32.6641   19.6457 C   0  0  0  0  0  0  0  0  0  0  0  0
  -29.7537  -29.3494   14.5086 C   0  0  0  0  0  0  0  0  0  0  0  0
  -29.8739  -23.3603   20.4128 C   0  0  0  0  0  0  0  0  0  1  0  0
  -29.4565  -22.0750   21.1009 C   0  0  0  0  0  0  0  0  0  0  0  0
  -31.8300  -30.4678   18.8987 C   0  0  1  0  0  0  0  0  0  0  0  0
  -29.5542  -31.3453   15.9969 C   0  0  2  0  0  0  0  0  0  0  0  0
  -32.0031  -31.4437   20.0966 C   0  0  0  0  0  0  0  0  0  0  0  0
  -25.8577  -11.5431   20.2918 N   0  0  0  0  0  0  0  0  0  0  0  0
  -26.2181  -12.8299   20.1487 N   0  0  0  0  0  0  0  0  0  0  0  0
  -33.2901  -28.5155   18.4736 N   0  0  0  0  0  0  0  0  0  0  0  0
  -29.9374  -13.6695   20.3617 N   0  0  0  0  0  0  0  0  0  0  0  0
  -25.4211  -15.0499   20.3646 N   0  0  0  0  0  0  0  0  0  0  0  0
  -21.8637  -12.5436   21.5727 N   0  0  0  0  0  0  0  0  0  0  0  0
  -30.0156  -15.7640   21.4431 N   0  0  0  0  0  0  0  0  0  0  0  0
  -36.5599  -27.2428   19.4658 N   0  0  0  0  0  0  0  0  0  0  0  0
  -31.1872  -31.0622   17.7317 N   0  0  0  0  0  0  0  0  0  0  0  0
  -28.8893  -30.4489   15.0094 N   0  3  0  0  0  0  0  0  0  0  0  0
  -22.6122  -14.6897   21.2688 O   0  0  0  0  0  0  0  0  0  0  0  0
  -34.6580  -28.0053   20.5721 O   0  0  0  0  0  0  0  0  0  0  0  0
  -34.0142  -30.6802   17.9982 O   0  0  0  0  0  0  0  0  0  0  0  0
  -29.4149  -29.5703   17.6301 O   0  0  0  0  0  0  0  0  0  0  0  0
  -31.8079  -15.0150   20.1748 O   0  0  0  0  0  0  0  0  0  0  0  0
  -21.6638   -6.9791   21.7511 O   0  0  0  0  0  0  0  0  0  0  0  0
  -30.5410  -23.0402   19.1926 O   0  0  0  0  0  0  0  0  0  1  0  0
  -30.6174  -21.3080   21.3964 O   0  0  0  0  0  0  0  0  0  0  0  0
  -18.6537   -6.8400   26.3689 F   0  0  0  0  0  0  0  0  0  0  0  0
  -32.0780  -19.7218   19.6791 F   0  0  0  0  0  0  0  0  0  0  0  0
  -28.5584  -17.4016   23.1655 F   0  0  0  0  0  0  0  0  0  0  0  0
  -22.1310   -5.0663   23.6916 F   0  0  0  0  0  0  0  0  0  0  0  0
  1  2  1  0  0  0  0
  1  5  2  0  0  0  0
  2  6  2  0  0  0  0
  3  8  2  0  0  0  0
  3 17  1  0  0  0  0
  4  9  1  0  0  0  0
  4 17  2  0  0  0  0
  5 19  1  0  0  0  0
  6 21  1  0  0  0  0
  7 10  2  0  0  0  0
  7 20  1  0  0  0  0
  8 24  1  0  0  0  0
  9 24  2  0  0  0  0
 10 25  1  0  0  0  0
 11 12  2  0  0  0  0
 11 26  1  0  0  0  0
 12 28  1  0  0  0  0
 13 22  1  0  0  0  0
 13 25  2  0  0  0  0
 14 23  2  0  0  0  0
 14 29  1  0  0  0  0
 15 27  1  0  0  0  0
 15 30  2  0  0  0  0
 16 28  2  0  0  0  0
 16 31  1  0  0  0  0
 17 32  1  0  0  0  0
 18 32  1  0  0  0  0
 18 33  2  0  0  0  0
 18 34  1  0  0  0  0
 19 21  2  0  0  0  0
 19 39  1  0  0  0  0
 20 22  2  0  0  0  0
 20 40  1  0  0  0  0
 21 48  1  0  0  0  0
 22 41  1  0  0  0  0
 23 30  1  0  0  0  0
 23 67  1  0  0  0  0
 24 76  1  0  0  0  0
 25 77  1  0  0  0  0
 26 31  2  0  0  0  0
 26 76  1  0  0  0  0
 27 29  2  0  0  0  0
 27 78  1  0  0  0  0
 28 79  1  0  0  0  0
 29 80  1  0  0  0  0
 30 81  1  0  0  0  0
 31 82  1  0  0  0  0
 32 61  2  0  0  0  0
 33 62  1  0  0  0  0
 33 65  1  0  0  0  0
 34 66  1  0  0  0  0
 34 71  2  0  0  0  0
 35 49  1  0  0  0  0
 35 68  1  0  0  0  0
 35 72  2  0  0  0  0
 36 58  1  0  0  0  0
 36 63  1  0  0  0  0
 36 73  2  0  0  0  0
 37 59  1  0  0  0  0
 37 69  1  0  0  0  0
 37 74  2  0  0  0  0
 38 64  1  0  0  0  0
 38 67  1  0  0  0  0
 38 75  2  0  0  0  0
 39 42  1  0  0  0  0
 40 49  1  0  0  0  0
 41 63  1  0  0  0  0
 42 44  1  0  0  0  0
 43 45  1  0  0  0  0
 43 46  1  0  0  0  0
 44 48  1  0  0  0  0
 45 50  1  0  0  0  0
 46 64  1  0  0  0  0
 47 50  1  0  0  0  0
 47 64  1  0  0  0  0
 48 68  1  0  0  0  0
 49 63  1  0  0  0  0
 50 62  1  0  0  0  0
 51 59  1  0  0  0  0
 52 60  1  0  0  0  0
 53 60  1  0  0  0  0
 54 60  1  0  0  0  0
 55 70  1  0  0  0  0
 56 57  1  0  0  0  0
 56 77  1  0  0  0  0
 57 78  1  0  0  0  0
 58 60  1  0  0  0  0
 58 69  1  0  0  0  0
 59 70  1  0  0  0  0
 61 62  1  0  0  0  0
M  CHG  1  70   1
M  ISO  4  38 100  56 101  67 100  77 101
M  END
> <Batch ID>
0008

> <Smiles>
CNC(C)C(=O)NC(C(=O)N1Cc2cc([101O:1][101CH2:1]COc3cc(F)c([100NH:0][100C:0](=O)N4CCCC(n5nc(-c6ccc(Oc7ccc(F)cc7F)cc6)c(C(N)=O)c5N)C4)cc3F)ccc2CC1C(=O)NC1CCCc2ccccc21)C(C)(C)C

> <Shape>
0.216

> <Color>
0.197

> <Negative vol penalty>
0.000

$$$$

  -OEChem-04042320353D

 81 89  0     1  0  0  0  0  0999 V2000
  -29.8444  -35.4822   25.8492 C   0  0  0  0  0  0  0  0  0  0  0  0
  -30.1267  -34.6863   24.7436 C   0  0  0  0  0  0  0  0  0  0  0  0
  -26.3023  -11.7761   21.3954 C   0  0  0  0  0  0  0  0  0  0  0  0
  -25.5588  -12.4023   19.1836 C   0  0  0  0  0  0  0  0  0  0  0  0
  -28.8844  -35.0736   26.7740 C   0  0  0  0  0  0  0  0  0  0  0  0
  -29.4498  -33.4807   24.5628 C   0  0  0  0  0  0  0  0  0  0  0  0
  -26.9467  -29.2048   19.3891 C   0  0  0  0  0  0  0  0  0  0  0  0
  -27.4427  -21.6186   15.1093 C   0  0  0  0  0  0  0  0  0  0  0  0
  -25.0403  -11.2497   21.6707 C   0  0  0  0  0  0  0  0  0  0  0  0
  -24.2968  -11.8758   19.4588 C   0  0  0  0  0  0  0  0  0  0  0  0
  -26.9972  -27.8754   18.9721 C   0  0  0  0  0  0  0  0  0  0  0  0
  -23.3087   -8.4323   20.9657 C   0  0  0  0  0  0  0  0  0  0  0  0
  -23.2480   -7.1840   21.5850 C   0  0  0  0  0  0  0  0  0  0  0  0
  -27.4252  -20.2618   14.7864 C   0  0  0  0  0  0  0  0  0  0  0  0
  -25.3025  -27.3090   20.5927 C   0  0  0  0  0  0  0  0  0  0  0  0
  -28.6442  -21.1188   17.1449 C   0  0  0  0  0  0  0  0  0  0  0  0
  -22.0611   -8.1651   23.4466 C   0  0  0  0  0  0  0  0  0  0  0  0
  -26.5616  -12.3525   20.1519 C   0  0  0  0  0  0  0  0  0  0  0  0
  -28.9646  -12.2208   19.3059 C   0  0  0  0  0  0  0  0  0  0  0  0
  -28.1885  -33.8669   26.5994 C   0  0  0  0  0  0  0  0  0  0  0  0
  -26.0801  -29.5949   20.4202 C   0  0  0  0  0  0  0  0  0  0  0  0
  -28.4806  -33.0548   25.4869 C   0  0  0  0  0  0  0  0  0  0  0  0
  -25.2411  -28.6445   21.0192 C   0  0  0  0  0  0  0  0  0  0  0  0
  -28.0522  -22.0471   16.2885 C   0  0  0  0  0  0  0  0  0  0  0  0
  -28.6266  -19.7619   16.8220 C   0  0  0  0  0  0  0  0  0  0  0  0
  -24.0375  -11.2995   20.7024 C   0  0  0  0  0  0  0  0  0  0  0  0
  -26.1771  -26.9267   19.5758 C   0  0  0  0  0  0  0  0  0  0  0  0
  -22.7456   -9.5471   21.5869 C   0  0  0  0  0  0  0  0  0  0  0  0
  -22.6242   -7.0503   22.8254 C   0  0  0  0  0  0  0  0  0  0  0  0
  -22.1218   -9.4135   22.8273 C   0  0  0  0  0  0  0  0  0  0  0  0
  -28.0171  -19.3334   15.6428 C   0  0  0  0  0  0  0  0  0  0  0  0
  -27.8648  -12.8970   19.8672 C   0  0  0  0  0  0  0  0  0  0  0  0
  -29.9548  -13.1704   19.2409 C   0  0  0  0  0  0  0  0  0  0  0  0
  -29.0806  -10.8563   18.8811 C   0  0  0  0  0  0  0  0  0  0  0  0
  -26.4606  -30.8511   23.3152 C   0  0  0  0  0  0  0  0  0  0  0  0
  -23.2214  -31.0087   23.2462 C   0  0  0  0  0  0  0  0  0  0  0  0
  -20.2894  -29.8179   21.9686 C   0  0  0  0  0  0  0  0  0  0  0  0
  -29.8747  -19.1365   18.9191 C   0  0  0  0  0  0  0  0  0  0  0  0
  -27.1933  -33.4442   27.6507 C   0  0  0  0  0  0  0  0  0  0  0  0
  -26.0184  -31.0379   20.8402 C   0  0  0  0  0  0  0  0  0  0  0  0
  -24.2786  -29.0158   22.1165 C   0  0  0  0  0  0  0  0  0  0  0  0
  -26.2535  -32.3337   27.1883 C   0  0  0  0  0  0  0  0  0  0  0  0
  -31.4659  -17.1600   21.4167 C   0  0  0  0  0  0  0  0  0  0  0  0
  -27.0381  -31.2246   26.4947 C   0  0  0  0  0  0  0  0  0  0  0  0
  -30.8275  -15.7794   21.2477 C   0  0  0  0  0  0  0  0  0  0  0  0
  -30.4586  -18.2836   21.1788 C   0  0  0  0  0  0  0  0  0  0  0  0
  -29.0937  -16.8261   19.7360 C   0  0  0  0  0  0  0  0  0  0  0  0
  -27.7499  -31.7522   25.2430 C   0  0  1  0  0  0  0  0  0  0  0  0
  -25.4688  -31.2267   22.2508 C   0  0  1  0  0  0  0  0  0  0  0  0
  -30.0850  -15.6627   19.9021 C   0  0  2  0  0  0  0  0  0  0  0  0
  -17.8033  -30.1180   22.1322 C   0  0  0  0  0  0  0  0  0  0  0  0
  -23.2164  -29.5010   25.8990 C   0  0  0  0  0  0  0  0  0  0  0  0
  -20.7899  -29.0048   25.5326 C   0  0  0  0  0  0  0  0  0  0  0  0
  -21.5580  -31.3675   25.7568 C   0  0  0  0  0  0  0  0  0  0  0  0
  -20.0778  -30.5859   19.1183 C   0  0  0  0  0  0  0  0  0  0  0  0
  -28.0712  -23.5067   16.6352 C   0  0  0  0  0  0  0  0  0  0  0  0
  -27.1394  -25.3041   18.1204 C   0  0  0  0  0  0  0  0  0  1  0  0
  -22.0973  -30.0839   23.6464 C   0  0  1  0  0  0  0  0  0  0  0  0
  -19.0734  -30.5304   21.4045 C   0  0  2  0  0  0  0  0  0  0  0  0
  -21.9348  -29.9816   25.1894 C   0  0  0  0  0  0  0  0  0  0  0  0
  -28.1310  -14.1772   20.1397 N   0  0  0  0  0  0  0  0  0  0  0  0
  -29.4094  -14.3130   19.7479 N   0  0  0  0  0  0  0  0  0  0  0  0
  -24.2597  -30.4381   22.4965 N   0  0  0  0  0  0  0  0  0  0  0  0
  -29.7975  -18.1096   19.8836 N   0  0  0  0  0  0  0  0  0  0  0  0
  -31.2302  -13.1310   18.8003 N   0  0  0  0  0  0  0  0  0  0  0  0
  -27.9668  -10.0167   19.0186 N   0  0  0  0  0  0  0  0  0  0  0  0
  -29.2359  -18.8451   17.7143 N   0  0  0  0  0  0  0  0  0  0  0  0
  -26.8117  -31.8946   24.1503 N   0  0  0  0  0  0  0  0  0  0  0  0
  -20.9076  -30.5625   22.9508 N   0  0  0  0  0  0  0  0  0  0  0  0
  -18.9108  -30.2113   19.9579 N   0  3  0  0  0  0  0  0  0  0  0  0
  -27.1085  -23.8625   17.7110 N   0  3  0  0  0  0  0  0  0  0  0  0
  -30.1456  -10.3910   18.4092 O   0  0  0  0  0  0  0  0  0  0  0  0
  -26.8754  -29.6996   23.3753 O   0  0  0  0  0  0  0  0  0  0  0  0
  -23.1762  -32.1953   23.5803 O   0  0  0  0  0  0  0  0  0  0  0  0
  -20.6522  -28.7099   21.5797 O   0  0  0  0  0  0  0  0  0  0  0  0
  -30.4873  -20.1853   19.1354 O   0  0  0  0  0  0  0  0  0  0  0  0
  -22.8060  -10.7857   20.9705 O   0  0  0  0  0  0  0  0  0  0  0  0
  -26.2248  -25.6283   19.1712 O   0  0  0  0  0  0  0  0  0  1  0  0
  -22.5647   -5.8512   23.4192 F   0  0  0  0  0  0  0  0  0  0  0  0
  -21.5780  -10.4806   23.4284 F   0  0  0  0  0  0  0  0  0  0  0  0
  -27.9721  -17.6629   15.2042 Cl  0  0  0  0  0  0  0  0  0  0  0  0
  1  2  1  0  0  0  0
  1  5  2  0  0  0  0
  2  6  2  0  0  0  0
  3  9  2  0  0  0  0
  3 18  1  0  0  0  0
  4 10  1  0  0  0  0
  4 18  2  0  0  0  0
  5 20  1  0  0  0  0
  6 22  1  0  0  0  0
  7 11  2  0  0  0  0
  7 21  1  0  0  0  0
  8 14  2  0  0  0  0
  8 24  1  0  0  0  0
  9 26  1  0  0  0  0
 10 26  2  0  0  0  0
 11 27  1  0  0  0  0
 12 13  2  0  0  0  0
 12 28  1  0  0  0  0
 13 29  1  0  0  0  0
 14 31  1  0  0  0  0
 15 23  1  0  0  0  0
 15 27  2  0  0  0  0
 16 24  2  0  0  0  0
 16 25  1  0  0  0  0
 17 29  2  0  0  0  0
 17 30  1  0  0  0  0
 18 32  1  0  0  0  0
 19 32  1  0  0  0  0
 19 33  2  0  0  0  0
 19 34  1  0  0  0  0
 20 22  2  0  0  0  0
 20 39  1  0  0  0  0
 21 23  2  0  0  0  0
 21 40  1  0  0  0  0
 22 48  1  0  0  0  0
 23 41  1  0  0  0  0
 24 56  1  0  0  0  0
 25 31  2  0  0  0  0
 25 67  1  0  0  0  0
 26 77  1  0  0  0  0
 27 78  1  0  0  0  0
 28 30  2  0  0  0  0
 28 77  1  0  0  0  0
 29 79  1  0  0  0  0
 30 80  1  0  0  0  0
 31 81  1  0  0  0  0
 32 61  2  0  0  0  0
 33 62  1  0  0  0  0
 33 65  1  0  0  0  0
 34 66  1  0  0  0  0
 34 72  2  0  0  0  0
 35 49  1  0  0  0  0
 35 68  1  0  0  0  0
 35 73  2  0  0  0  0
 36 58  1  0  0  0  0
 36 63  1  0  0  0  0
 36 74  2  0  0  0  0
 37 59  1  0  0  0  0
 37 69  1  0  0  0  0
 37 75  2  0  0  0  0
 38 64  1  0  0  0  0
 38 67  1  0  0  0  0
 38 76  2  0  0  0  0
 39 42  1  0  0  0  0
 40 49  1  0  0  0  0
 41 63  1  0  0  0  0
 42 44  1  0  0  0  0
 43 45  1  0  0  0  0
 43 46  1  0  0  0  0
 44 48  1  0  0  0  0
 45 50  1  0  0  0  0
 46 64  1  0  0  0  0
 47 50  1  0  0  0  0
 47 64  1  0  0  0  0
 48 68  1  0  0  0  0
 49 63  1  0  0  0  0
 50 62  1  0  0  0  0
 51 59  1  0  0  0  0
 52 60  1  0  0  0  0
 53 60  1  0  0  0  0
 54 60  1  0  0  0  0
 55 70  1  0  0  0  0
 56 71  1  0  0  0  0
 57 71  1  0  0  0  0
 57 78  1  0  0  0  0
 58 60  1  0  0  0  0
 58 69  1  0  0  0  0
 59 70  1  0  0  0  0
 61 62  1  0  0  0  0
M  CHG  2  70   1  71   1
M  ISO  4  38 100  57 101  67 100  78 101
M  END
> <Batch ID>
0008

> <Smiles>
CNC(C)C(=O)NC(C(=O)N1Cc2cc([101O:1][101CH2:1]NCc3ccc(Cl)c([100NH:0][100C:0](=O)N4CCCC(n5nc(-c6ccc(Oc7ccc(F)cc7F)cc6)c(C(N)=O)c5N)C4)c3)ccc2CC1C(=O)NC1CCCc2ccccc21)C(C)(C)C

> <Shape>
0.288

> <Color>
0.076

> <Negative vol penalty>
0.000

$$$$

  -OEChem-04042320353D

 83 91  0     1  0  0  0  0  0999 V2000
  -32.1949  -21.4355   23.4953 C   0  0  0  0  0  0  0  0  0  0  0  0
  -30.9706  -21.8837   23.9808 C   0  0  0  0  0  0  0  0  0  0  0  0
  -29.7293  -28.8145   18.6842 C   0  0  0  0  0  0  0  0  0  0  0  0
  -29.3047  -27.0996   20.3322 C   0  0  0  0  0  0  0  0  0  0  0  0
  -32.2532  -20.7447   22.2856 C   0  0  0  0  0  0  0  0  0  0  0  0
  -29.8039  -21.6423   23.2562 C   0  0  0  0  0  0  0  0  0  0  0  0
  -22.8220  -20.3389   24.1887 C   0  0  0  0  0  0  0  0  0  0  0  0
  -18.6162  -25.9794   22.7717 C   0  0  0  0  0  0  0  0  0  0  0  0
  -19.0820  -27.1667   23.3364 C   0  0  0  0  0  0  0  0  0  0  0  0
  -31.0698  -28.4328   18.6323 C   0  0  0  0  0  0  0  0  0  0  0  0
  -30.6453  -26.7179   20.2803 C   0  0  0  0  0  0  0  0  0  0  0  0
  -21.5747  -20.8032   23.7733 C   0  0  0  0  0  0  0  0  0  0  0  0
  -32.6382  -24.8979   18.2464 C   0  0  0  0  0  0  0  0  0  0  0  0
  -32.9198  -23.5334   18.1794 C   0  0  0  0  0  0  0  0  0  0  0  0
  -21.7866  -19.5303   21.7351 C   0  0  0  0  0  0  0  0  0  0  0  0
  -19.2261  -26.7841   20.5768 C   0  0  0  0  0  0  0  0  0  0  0  0
  -34.1588  -23.6874   20.2478 C   0  0  0  0  0  0  0  0  0  0  0  0
  -28.8467  -28.1480   19.5342 C   0  0  0  0  0  0  0  0  0  0  0  0
  -26.4053  -28.0467   18.8013 C   0  0  0  0  0  0  0  0  0  0  0  0
  -31.0854  -20.4863   21.5507 C   0  0  0  0  0  0  0  0  0  0  0  0
  -23.5670  -19.4740   23.3743 C   0  0  0  0  0  0  0  0  0  0  0  0
  -29.8468  -20.9485   22.0349 C   0  0  0  0  0  0  0  0  0  0  0  0
  -23.0419  -19.0545   22.1436 C   0  0  0  0  0  0  0  0  0  0  0  0
  -18.6883  -25.7881   21.3918 C   0  0  0  0  0  0  0  0  0  0  0  0
  -19.6198  -28.1628   22.5213 C   0  0  0  0  0  0  0  0  0  0  0  0
  -31.5279  -27.3845   19.4303 C   0  0  0  0  0  0  0  0  0  0  0  0
  -21.0581  -20.4012   22.5450 C   0  0  0  0  0  0  0  0  0  0  0  0
  -33.1170  -25.6572   19.3141 C   0  0  0  0  0  0  0  0  0  0  0  0
  -33.6800  -22.9282   19.1800 C   0  0  0  0  0  0  0  0  0  0  0  0
  -33.8772  -25.0519   20.3148 C   0  0  0  0  0  0  0  0  0  0  0  0
  -19.6919  -27.9714   21.1415 C   0  0  0  0  0  0  0  0  0  0  0  0
  -27.4619  -28.5422   19.5887 C   0  0  0  0  0  0  0  0  0  0  0  0
  -25.3002  -28.7369   19.2360 C   0  0  0  0  0  0  0  0  0  0  0  0
  -26.4214  -27.0516   17.7693 C   0  0  0  0  0  0  0  0  0  0  0  0
  -26.3964  -19.6304   21.9343 C   0  0  0  0  0  0  0  0  0  0  0  0
  -25.7615  -16.5335   21.2075 C   0  0  0  0  0  0  0  0  0  0  0  0
  -23.4287  -14.0868   20.7400 C   0  0  0  0  0  0  0  0  0  0  0  0
  -22.1624  -30.7966   23.3660 C   0  0  0  0  0  0  0  0  0  0  0  0
  -31.2041  -19.7769   20.2250 C   0  0  0  0  0  0  0  0  0  0  0  0
  -24.8989  -18.9610   23.8488 C   0  0  0  0  0  0  0  0  0  0  0  0
  -23.7930  -18.1111   21.2412 C   0  0  0  0  0  0  0  0  0  0  0  0
  -29.8759  -19.2349   19.7031 C   0  0  0  0  0  0  0  0  0  0  0  0
  -24.9182  -32.7665   22.2696 C   0  0  0  0  0  0  0  0  0  0  0  0
  -28.7830  -20.2920   19.8252 C   0  0  0  0  0  0  0  0  0  0  0  0
  -25.7411  -31.8008   21.4151 C   0  0  0  0  0  0  0  0  0  0  0  0
  -24.2892  -32.0624   23.4699 C   0  0  0  0  0  0  0  0  0  0  0  0
  -24.3131  -29.9022   22.2839 C   0  0  0  0  0  0  0  0  0  0  0  0
  -28.5562  -20.6844   21.2901 C   0  0  1  0  0  0  0  0  0  0  0  0
  -25.7983  -18.4908   22.7098 C   0  0  1  0  0  0  0  0  0  0  0  0
  -24.9214  -30.5544   21.0306 C   0  0  2  0  0  0  0  0  0  0  0  0
  -23.2109  -11.6661   20.1152 C   0  0  0  0  0  0  0  0  0  0  0  0
  -26.2794  -17.2436   18.2856 C   0  0  0  0  0  0  0  0  0  0  0  0
  -25.1464  -15.1069   17.6380 C   0  0  0  0  0  0  0  0  0  0  0  0
  -27.2293  -15.0463   19.0093 C   0  0  0  0  0  0  0  0  0  0  0  0
  -22.1847  -13.4082   23.3383 C   0  0  0  0  0  0  0  0  0  0  0  0
  -20.1070  -29.4204   23.1652 C   0  0  0  0  0  0  0  0  0  0  0  0
  -18.1872  -24.5111   20.7843 C   0  0  0  0  0  0  0  0  0  0  0  0
  -18.6064  -22.0690   20.4694 C   0  0  0  0  0  0  0  0  0  0  0  0
  -19.6366  -20.9881   20.7309 C   0  0  0  0  0  0  0  0  0  1  0  0
  -25.0695  -15.8226   20.0697 C   0  0  1  0  0  0  0  0  0  0  0  0
  -23.3461  -12.6618   21.2568 C   0  0  2  0  0  0  0  0  0  0  0  0
  -25.9176  -15.8241   18.7665 C   0  0  0  0  0  0  0  0  0  0  0  0
  -27.0638  -29.4752   20.4577 N   0  0  0  0  0  0  0  0  0  0  0  0
  -25.7448  -29.5715   20.2188 N   0  0  0  0  0  0  0  0  0  0  0  0
  -25.0938  -17.6422   21.7466 N   0  0  0  0  0  0  0  0  0  0  0  0
  -23.5247  -30.8904   23.0367 N   0  0  0  0  0  0  0  0  0  0  0  0
  -24.0014  -28.7052   18.8695 N   0  0  0  0  0  0  0  0  0  0  0  0
  -27.6418  -26.4418   17.4480 N   0  0  0  0  0  0  0  0  0  0  0  0
  -27.7771  -19.6718   21.9698 N   0  0  0  0  0  0  0  0  0  0  0  0
  -24.7351  -14.4911   20.5634 N   0  0  0  0  0  0  0  0  0  0  0  0
  -21.5107  -29.6567   22.9114 N   0  0  0  0  0  0  0  0  0  0  0  0
  -22.1701  -12.5052   22.1587 N   0  3  0  0  0  0  0  0  0  0  0  0
  -19.1036  -23.3603   21.0075 N   0  3  0  0  0  0  0  0  0  0  0  0
  -25.3872  -26.7249   17.1390 O   0  0  0  0  0  0  0  0  0  0  0  0
  -25.6597  -20.4133   21.3459 O   0  0  0  0  0  0  0  0  0  0  0  0
  -26.8510  -16.1160   21.6080 O   0  0  0  0  0  0  0  0  0  0  0  0
  -22.4338  -14.7714   20.5121 O   0  0  0  0  0  0  0  0  0  0  0  0
  -21.5694  -31.6671   24.0122 O   0  0  0  0  0  0  0  0  0  0  0  0
  -32.8359  -27.0116   19.3797 O   0  0  0  0  0  0  0  0  0  0  0  0
  -19.8413  -20.8534   22.1368 O   0  0  0  0  0  0  0  0  0  1  0  0
  -33.9491  -21.6175   19.1163 F   0  0  0  0  0  0  0  0  0  0  0  0
  -34.3389  -25.7760   21.3436 F   0  0  0  0  0  0  0  0  0  0  0  0
  -20.3500  -29.1821   20.1019 Cl  0  0  0  0  0  0  0  0  0  0  0  0
  1  2  1  0  0  0  0
  1  5  2  0  0  0  0
  2  6  2  0  0  0  0
  3 10  2  0  0  0  0
  3 18  1  0  0  0  0
  4 11  1  0  0  0  0
  4 18  2  0  0  0  0
  5 20  1  0  0  0  0
  6 22  1  0  0  0  0
  7 12  2  0  0  0  0
  7 21  1  0  0  0  0
  8  9  2  0  0  0  0
  8 24  1  0  0  0  0
  9 25  1  0  0  0  0
 10 26  1  0  0  0  0
 11 26  2  0  0  0  0
 12 27  1  0  0  0  0
 13 14  2  0  0  0  0
 13 28  1  0  0  0  0
 14 29  1  0  0  0  0
 15 23  1  0  0  0  0
 15 27  2  0  0  0  0
 16 24  2  0  0  0  0
 16 31  1  0  0  0  0
 17 29  2  0  0  0  0
 17 30  1  0  0  0  0
 18 32  1  0  0  0  0
 19 32  1  0  0  0  0
 19 33  2  0  0  0  0
 19 34  1  0  0  0  0
 20 22  2  0  0  0  0
 20 39  1  0  0  0  0
 21 23  2  0  0  0  0
 21 40  1  0  0  0  0
 22 48  1  0  0  0  0
 23 41  1  0  0  0  0
 24 57  1  0  0  0  0
 25 31  2  0  0  0  0
 25 56  1  0  0  0  0
 26 79  1  0  0  0  0
 27 80  1  0  0  0  0
 28 30  2  0  0  0  0
 28 79  1  0  0  0  0
 29 81  1  0  0  0  0
 30 82  1  0  0  0  0
 31 83  1  0  0  0  0
 32 63  2  0  0  0  0
 33 64  1  0  0  0  0
 33 67  1  0  0  0  0
 34 68  1  0  0  0  0
 34 74  2  0  0  0  0
 35 49  1  0  0  0  0
 35 69  1  0  0  0  0
 35 75  2  0  0  0  0
 36 60  1  0  0  0  0
 36 65  1  0  0  0  0
 36 76  2  0  0  0  0
 37 61  1  0  0  0  0
 37 70  1  0  0  0  0
 37 77  2  0  0  0  0
 38 66  1  0  0  0  0
 38 71  1  0  0  0  0
 38 78  2  0  0  0  0
 39 42  1  0  0  0  0
 40 49  1  0  0  0  0
 41 65  1  0  0  0  0
 42 44  1  0  0  0  0
 43 45  1  0  0  0  0
 43 46  1  0  0  0  0
 44 48  1  0  0  0  0
 45 50  1  0  0  0  0
 46 66  1  0  0  0  0
 47 50  1  0  0  0  0
 47 66  1  0  0  0  0
 48 69  1  0  0  0  0
 49 65  1  0  0  0  0
 50 64  1  0  0  0  0
 51 61  1  0  0  0  0
 52 62  1  0  0  0  0
 53 62  1  0  0  0  0
 54 62  1  0  0  0  0
 55 72  1  0  0  0  0
 56 71  1  0  0  0  0
 57 73  1  0  0  0  0
 58 59  1  0  0  0  0
 58 73  1  0  0  0  0
 59 80  1  0  0  0  0
 60 62  1  0  0  0  0
 60 70  1  0  0  0  0
 61 72  1  0  0  0  0
 63 64  1  0  0  0  0
M  CHG  2  72   1  73   1
M  ISO  4  38 100  59 101  71 100  80 101
M  END
> <Batch ID>
0008

> <Smiles>
CNC(C)C(=O)NC(C(=O)N1Cc2cc([101O:1][101CH2:1]CNCc3ccc(C[100NH:0][100C:0](=O)N4CCCC(n5nc(-c6ccc(Oc7ccc(F)cc7F)cc6)c(C(N)=O)c5N)C4)c(Cl)c3)ccc2CC1C(=O)NC1CCCc2ccccc21)C(C)(C)C

> <Shape>
0.206

> <Color>
0.074

> <Negative vol penalty>
0.000

$$$$

  -OEChem-04042320353D

 84 93  0     1  0  0  0  0  0999 V2000
  -27.8170  -32.2639   27.6101 C   0  0  0  0  0  0  0  0  0  0  0  0
  -27.8629  -31.0527   26.9273 C   0  0  0  0  0  0  0  0  0  0  0  0
  -23.9357   -9.7711   22.1087 C   0  0  0  0  0  0  0  0  0  0  0  0
  -24.5998  -11.2848   23.8707 C   0  0  0  0  0  0  0  0  0  0  0  0
  -29.4335  -19.1453   22.4442 C   0  0  0  0  0  0  0  0  0  0  0  0
  -26.6623  -33.0440   27.5667 C   0  0  0  0  0  0  0  0  0  0  0  0
  -26.7536  -30.6204   26.2014 C   0  0  0  0  0  0  0  0  0  0  0  0
  -28.0008  -28.8202   21.6353 C   0  0  0  0  0  0  0  0  0  0  0  0
  -29.3939  -20.5398   22.4127 C   0  0  0  0  0  0  0  0  0  0  0  0
  -23.5115   -8.8464   23.0629 C   0  0  0  0  0  0  0  0  0  0  0  0
  -24.1756  -10.3601   24.8250 C   0  0  0  0  0  0  0  0  0  0  0  0
  -28.5293  -27.5312   21.5817 C   0  0  0  0  0  0  0  0  0  0  0  0
  -20.8320   -8.3948   25.0752 C   0  0  0  0  0  0  0  0  0  0  0  0
  -19.5973   -7.7774   24.8756 C   0  0  0  0  0  0  0  0  0  0  0  0
  -26.3714  -26.6807   20.9189 C   0  0  0  0  0  0  0  0  0  0  0  0
  -20.6831   -5.6196   24.8327 C   0  0  0  0  0  0  0  0  0  0  0  0
  -24.4799  -10.9903   22.5126 C   0  0  0  0  0  0  0  0  0  0  0  0
  -29.5694  -18.4893   21.2358 C   0  0  0  0  0  0  0  0  0  0  0  0
  -24.1544  -12.9694   20.9363 C   0  0  0  0  0  0  0  0  0  0  0  0
  -25.5416  -32.6256   26.8320 C   0  0  0  0  0  0  0  0  0  0  0  0
  -26.6488  -29.0480   21.3413 C   0  0  0  0  0  0  0  0  0  0  0  0
  -25.5823  -31.3950   26.1492 C   0  0  0  0  0  0  0  0  0  0  0  0
  -25.8288  -27.9739   20.9671 C   0  0  0  0  0  0  0  0  0  0  0  0
  -29.6698  -19.1619   20.0224 C   0  0  0  0  0  0  0  0  0  0  0  0
  -29.4929  -21.2336   21.1931 C   0  0  0  0  0  0  0  0  0  0  0  0
  -23.6314   -9.1409   24.4211 C   0  0  0  0  0  0  0  0  0  0  0  0
  -27.7138  -26.4607   21.2263 C   0  0  0  0  0  0  0  0  0  0  0  0
  -21.9923   -7.6246   25.1535 C   0  0  0  0  0  0  0  0  0  0  0  0
  -19.5228   -6.3898   24.7544 C   0  0  0  0  0  0  0  0  0  0  0  0
  -21.9179   -6.2370   25.0323 C   0  0  0  0  0  0  0  0  0  0  0  0
  -29.6341  -20.5432   19.9848 C   0  0  0  0  0  0  0  0  0  0  0  0
  -24.9188  -11.9457   21.5273 C   0  0  0  0  0  0  0  0  0  0  0  0
  -25.0233  -13.5928   20.0744 C   0  0  0  0  0  0  0  0  0  0  0  0
  -29.6432  -17.0501   20.9724 C   0  0  0  0  0  0  0  0  0  0  0  0
  -22.7816  -13.3251   21.1475 C   0  0  0  0  0  0  0  0  0  0  0  0
  -24.1597  -30.1774   22.9638 C   0  0  0  0  0  0  0  0  0  0  0  0
  -22.6796  -29.9573   20.0858 C   0  0  0  0  0  0  0  0  0  0  0  0
  -22.5443  -28.5035   17.0011 C   0  0  0  0  0  0  0  0  0  0  0  0
  -29.9636  -15.7097   18.8471 C   0  0  0  0  0  0  0  0  0  0  0  0
  -24.2992  -33.4803   26.8533 C   0  0  0  0  0  0  0  0  0  0  0  0
  -26.1005  -30.4482   21.3777 C   0  0  0  0  0  0  0  0  0  0  0  0
  -24.3756  -28.1681   20.6223 C   0  0  0  0  0  0  0  0  0  0  0  0
  -29.8246  -18.1941   18.9055 C   0  0  0  0  0  0  0  0  0  0  0  0
  -23.2993  -33.1291   25.7547 C   0  0  0  0  0  0  0  0  0  0  0  0
  -29.6260  -12.2564   18.4816 C   0  0  0  0  0  0  0  0  0  0  0  0
  -23.0973  -31.6190   25.6795 C   0  0  0  0  0  0  0  0  0  0  0  0
  -28.3121  -11.9387   19.1948 C   0  0  0  0  0  0  0  0  0  0  0  0
  -30.4228  -13.3075   19.2459 C   0  0  0  0  0  0  0  0  0  0  0  0
  -28.3535  -14.2767   20.1951 C   0  0  0  0  0  0  0  0  0  0  0  0
  -24.4081  -30.9038   25.3305 C   0  0  1  0  0  0  0  0  0  0  0  0
  -24.5863  -30.4925   21.5580 C   0  0  1  0  0  0  0  0  0  0  0  0
  -27.5037  -13.2210   19.4597 C   0  0  2  0  0  0  0  0  0  0  0  0
  -21.1998  -28.5003   14.8822 C   0  0  0  0  0  0  0  0  0  0  0  0
  -20.5110  -28.3144   21.4671 C   0  0  0  0  0  0  0  0  0  0  0  0
  -19.7424  -27.5579   19.2076 C   0  0  0  0  0  0  0  0  0  0  0  0
  -19.6597  -29.9783   19.8055 C   0  0  0  0  0  0  0  0  0  0  0  0
  -24.8616  -29.3986   15.3924 C   0  0  0  0  0  0  0  0  0  0  0  0
  -29.3021  -23.4169   22.3857 C   0  0  0  0  0  0  0  0  0  0  0  0
  -29.3043  -24.9009   22.0587 C   0  0  0  0  0  0  0  0  0  1  0  0
  -21.8970  -28.8861   19.3652 C   0  0  1  0  0  0  0  0  0  0  0  0
  -22.3918  -29.0986   15.6129 C   0  0  2  0  0  0  0  0  0  0  0  0
  -20.4794  -28.6799   19.9697 C   0  0  0  0  0  0  0  0  0  0  0  0
  -26.1766  -11.9168   21.0787 N   0  0  0  0  0  0  0  0  0  0  0  0
  -26.2091  -12.9301   20.1966 N   0  0  0  0  0  0  0  0  0  0  0  0
  -29.7001  -16.8910   19.5646 N   0  0  0  0  0  0  0  0  0  0  0  0
  -23.8848  -29.5550   20.6786 N   0  0  0  0  0  0  0  0  0  0  0  0
  -29.6198  -14.5072   19.4838 N   0  0  0  0  0  0  0  0  0  0  0  0
  -24.8811  -14.6376   19.2314 N   0  0  0  0  0  0  0  0  0  0  0  0
  -22.0325  -12.5803   22.0686 N   0  0  0  0  0  0  0  0  0  0  0  0
  -29.4467  -22.6455   21.1915 N   0  0  0  0  0  0  0  0  0  0  0  0
  -24.6898  -31.0265   23.9163 N   0  0  0  0  0  0  0  0  0  0  0  0
  -21.8966  -29.2598   17.9550 N   0  0  0  0  0  0  0  0  0  0  0  0
  -23.6162  -28.8436   14.8026 N   0  3  0  0  0  0  0  0  0  0  0  0
  -29.6610  -16.2123   21.8567 O   0  0  0  0  0  0  0  0  0  0  0  0
  -22.2309  -14.2649   20.5254 O   0  0  0  0  0  0  0  0  0  0  0  0
  -23.4042  -29.2346   23.1690 O   0  0  0  0  0  0  0  0  0  0  0  0
  -22.2413  -31.1099   20.1152 O   0  0  0  0  0  0  0  0  0  0  0  0
  -23.1719  -27.4691   17.2171 O   0  0  0  0  0  0  0  0  0  0  0  0
  -30.5156  -15.7428   17.7413 O   0  0  0  0  0  0  0  0  0  0  0  0
  -23.2173   -8.2389   25.3525 O   0  0  0  0  0  0  0  0  0  0  0  0
  -28.2305  -25.1926   21.1735 O   0  0  0  0  0  0  0  0  0  1  0  0
  -18.3368   -5.7970   24.5643 F   0  0  0  0  0  0  0  0  0  0  0  0
  -23.0290   -5.4917   25.1079 F   0  0  0  0  0  0  0  0  0  0  0  0
  -29.7308  -21.1977   18.8203 F   0  0  0  0  0  0  0  0  0  0  0  0
  1  2  1  0  0  0  0
  1  6  2  0  0  0  0
  2  7  2  0  0  0  0
  3 10  2  0  0  0  0
  3 17  1  0  0  0  0
  4 11  1  0  0  0  0
  4 17  2  0  0  0  0
  5  9  2  0  0  0  0
  5 18  1  0  0  0  0
  6 20  1  0  0  0  0
  7 22  1  0  0  0  0
  8 12  2  0  0  0  0
  8 21  1  0  0  0  0
  9 25  1  0  0  0  0
 10 26  1  0  0  0  0
 11 26  2  0  0  0  0
 12 27  1  0  0  0  0
 13 14  2  0  0  0  0
 13 28  1  0  0  0  0
 14 29  1  0  0  0  0
 15 23  1  0  0  0  0
 15 27  2  0  0  0  0
 16 29  2  0  0  0  0
 16 30  1  0  0  0  0
 17 32  1  0  0  0  0
 18 24  2  0  0  0  0
 18 34  1  0  0  0  0
 19 32  1  0  0  0  0
 19 33  2  0  0  0  0
 19 35  1  0  0  0  0
 20 22  2  0  0  0  0
 20 40  1  0  0  0  0
 21 23  2  0  0  0  0
 21 41  1  0  0  0  0
 22 50  1  0  0  0  0
 23 42  1  0  0  0  0
 24 31  1  0  0  0  0
 24 43  1  0  0  0  0
 25 31  2  0  0  0  0
 25 70  1  0  0  0  0
 26 80  1  0  0  0  0
 27 81  1  0  0  0  0
 28 30  2  0  0  0  0
 28 80  1  0  0  0  0
 29 82  1  0  0  0  0
 30 83  1  0  0  0  0
 31 84  1  0  0  0  0
 32 63  2  0  0  0  0
 33 64  1  0  0  0  0
 33 68  1  0  0  0  0
 34 65  1  0  0  0  0
 34 74  2  0  0  0  0
 35 69  1  0  0  0  0
 35 75  2  0  0  0  0
 36 51  1  0  0  0  0
 36 71  1  0  0  0  0
 36 76  2  0  0  0  0
 37 60  1  0  0  0  0
 37 66  1  0  0  0  0
 37 77  2  0  0  0  0
 38 61  1  0  0  0  0
 38 72  1  0  0  0  0
 38 78  2  0  0  0  0
 39 65  1  0  0  0  0
 39 67  1  0  0  0  0
 39 79  2  0  0  0  0
 40 44  1  0  0  0  0
 41 51  1  0  0  0  0
 42 66  1  0  0  0  0
 43 65  1  0  0  0  0
 44 46  1  0  0  0  0
 45 47  1  0  0  0  0
 45 48  1  0  0  0  0
 46 50  1  0  0  0  0
 47 52  1  0  0  0  0
 48 67  1  0  0  0  0
 49 52  1  0  0  0  0
 49 67  1  0  0  0  0
 50 71  1  0  0  0  0
 51 66  1  0  0  0  0
 52 64  1  0  0  0  0
 53 61  1  0  0  0  0
 54 62  1  0  0  0  0
 55 62  1  0  0  0  0
 56 62  1  0  0  0  0
 57 73  1  0  0  0  0
 58 59  1  0  0  0  0
 58 70  1  0  0  0  0
 59 81  1  0  0  0  0
 60 62  1  0  0  0  0
 60 72  1  0  0  0  0
 61 73  1  0  0  0  0
 63 64  1  0  0  0  0
M  CHG  1  73   1
M  ISO  4  39 100  59 101  65 100  81 101
M  END
> <Batch ID>
0008

> <Smiles>
CNC(C)C(=O)NC(C(=O)N1Cc2cc([101O:1][101CH2:1]CNc3ccc4c(c3F)C[100N:0]([100C:0](=O)N3CCCC(n5nc(-c6ccc(Oc7ccc(F)cc7F)cc6)c(C(N)=O)c5N)C3)C4=O)ccc2CC1C(=O)NC1CCCc2ccccc21)C(C)(C)C

> <Shape>
0.302

> <Color>
0.117

> <Negative vol penalty>
0.000

$$$$

  -OEChem-04042320353D

 81 89  0     1  0  0  0  0  0999 V2000
  -28.7618  -32.3594   24.3991 C   0  0  0  0  0  0  0  0  0  0  0  0
  -29.8997  -31.5675   24.5149 C   0  0  0  0  0  0  0  0  0  0  0  0
  -23.0421   -9.9741   19.9317 C   0  0  0  0  0  0  0  0  0  0  0  0
  -23.8289   -9.9157   22.2153 C   0  0  0  0  0  0  0  0  0  0  0  0
  -27.5044  -31.7629   24.3145 C   0  0  0  0  0  0  0  0  0  0  0  0
  -29.7808  -30.1785   24.5474 C   0  0  0  0  0  0  0  0  0  0  0  0
  -33.2410  -24.2311   22.5546 C   0  0  0  0  0  0  0  0  0  0  0  0
  -22.2717   -8.8356   20.1680 C   0  0  0  0  0  0  0  0  0  0  0  0
  -23.0584   -8.7772   22.4516 C   0  0  0  0  0  0  0  0  0  0  0  0
  -33.6929  -23.0210   23.0791 C   0  0  0  0  0  0  0  0  0  0  0  0
  -19.3212   -8.0858   21.6394 C   0  0  0  0  0  0  0  0  0  0  0  0
  -18.0079   -8.0827   21.1694 C   0  0  0  0  0  0  0  0  0  0  0  0
  -31.4761  -22.0988   22.8458 C   0  0  0  0  0  0  0  0  0  0  0  0
  -30.7320  -18.1722   24.1123 C   0  0  0  0  0  0  0  0  0  0  0  0
  -32.2315  -16.4153   22.5479 C   0  0  0  0  0  0  0  0  0  0  0  0
  -18.5017   -6.1528   19.8023 C   0  0  0  0  0  0  0  0  0  0  0  0
  -23.8208  -10.5141   20.9553 C   0  0  0  0  0  0  0  0  0  0  0  0
  -24.2262  -13.0316   20.8809 C   0  0  0  0  0  0  0  0  0  0  0  0
  -27.3708  -30.3656   24.3362 C   0  0  0  0  0  0  0  0  0  0  0  0
  -31.8984  -24.3878   22.1812 C   0  0  0  0  0  0  0  0  0  0  0  0
  -28.5204  -29.5628   24.4644 C   0  0  0  0  0  0  0  0  0  0  0  0
  -31.0102  -23.3111   22.3144 C   0  0  0  0  0  0  0  0  0  0  0  0
  -30.0931  -17.3291   23.2032 C   0  0  0  0  0  0  0  0  0  0  0  0
  -32.1207  -18.1370   24.2392 C   0  0  0  0  0  0  0  0  0  0  0  0
  -30.8428  -16.4506   22.4210 C   0  0  0  0  0  0  0  0  0  0  0  0
  -22.2798   -8.2371   21.4279 C   0  0  0  0  0  0  0  0  0  0  0  0
  -32.8098  -21.9555   23.2275 C   0  0  0  0  0  0  0  0  0  0  0  0
  -20.2247   -7.1224   21.1908 C   0  0  0  0  0  0  0  0  0  0  0  0
  -17.5981   -7.1162   20.2509 C   0  0  0  0  0  0  0  0  0  0  0  0
  -32.8704  -17.2585   23.4570 C   0  0  0  0  0  0  0  0  0  0  0  0
  -19.8150   -6.1559   20.2723 C   0  0  0  0  0  0  0  0  0  0  0  0
  -24.6172  -11.6898   20.7117 C   0  0  0  0  0  0  0  0  0  0  0  0
  -25.3330  -13.7600   20.5191 C   0  0  0  0  0  0  0  0  0  0  0  0
  -22.9745  -13.5713   21.3255 C   0  0  0  0  0  0  0  0  0  0  0  0
  -29.5133  -26.2666   23.1219 C   0  0  0  0  0  0  0  0  0  0  0  0
  -27.9627  -24.8904   20.6271 C   0  0  0  0  0  0  0  0  0  0  0  0
  -27.6790  -22.2364   18.5005 C   0  0  0  0  0  0  0  0  0  0  0  0
  -30.8261  -14.6617   20.6473 C   0  0  0  0  0  0  0  0  0  0  0  0
  -25.9869  -29.7679   24.2895 C   0  0  0  0  0  0  0  0  0  0  0  0
  -31.4327  -25.6911   21.5921 C   0  0  0  0  0  0  0  0  0  0  0  0
  -29.5637  -23.4216   21.9096 C   0  0  0  0  0  0  0  0  0  0  0  0
  -25.9776  -28.2788   23.9539 C   0  0  0  0  0  0  0  0  0  0  0  0
  -29.6219  -12.3251   18.2458 C   0  0  0  0  0  0  0  0  0  0  0  0
  -27.0221  -27.5381   24.7830 C   0  0  0  0  0  0  0  0  0  0  0  0
  -28.1804  -12.0619   18.6871 C   0  0  0  0  0  0  0  0  0  0  0  0
  -30.5567  -12.5063   19.4404 C   0  0  0  0  0  0  0  0  0  0  0  0
  -28.6855  -13.2515   20.8589 C   0  0  0  0  0  0  0  0  0  0  0  0
  -28.4343  -28.0520   24.4780 C   0  0  1  0  0  0  0  0  0  0  0  0
  -29.9277  -25.9026   21.7243 C   0  0  1  0  0  0  0  0  0  0  0  0
  -27.6947  -13.1268   19.6900 C   0  0  2  0  0  0  0  0  0  0  0  0
  -28.6042  -17.3881   23.0882 C   0  0  0  0  0  0  0  0  0  0  0  0
  -26.2923  -21.3809   16.5919 C   0  0  0  0  0  0  0  0  0  0  0  0
  -25.7326  -24.1610   22.5776 C   0  0  0  0  0  0  0  0  0  0  0  0
  -24.8743  -22.5340   20.8792 C   0  0  0  0  0  0  0  0  0  0  0  0
  -24.9439  -24.9700   20.3464 C   0  0  0  0  0  0  0  0  0  0  0  0
  -30.0097  -22.1868   16.6772 C   0  0  0  0  0  0  0  0  0  0  0  0
  -32.8075  -19.0481   25.2215 C   0  0  0  0  0  0  0  0  0  0  0  0
  -27.1047  -23.6612   20.4484 C   0  0  1  0  0  0  0  0  0  0  0  0
  -27.5319  -22.1662   16.9912 C   0  0  2  0  0  0  0  0  0  0  0  0
  -25.6906  -23.8298   21.0724 C   0  0  0  0  0  0  0  0  0  0  0  0
  -25.8742  -11.5701   20.2761 N   0  0  0  0  0  0  0  0  0  0  0  0
  -26.2826  -12.8459   20.1685 N   0  0  0  0  0  0  0  0  0  0  0  0
  -29.1549  -24.7182   21.3446 N   0  0  0  0  0  0  0  0  0  0  0  0
  -30.0349  -13.5333   20.3447 N   0  0  0  0  0  0  0  0  0  0  0  0
  -25.5769  -15.0868   20.4698 N   0  0  0  0  0  0  0  0  0  0  0  0
  -21.9435  -12.6817   21.6571 N   0  0  0  0  0  0  0  0  0  0  0  0
  -30.2125  -15.5864   21.4917 N   0  0  0  0  0  0  0  0  0  0  0  0
  -28.9112  -27.5061   23.2254 N   0  0  0  0  0  0  0  0  0  0  0  0
  -27.0962  -23.3738   19.0181 N   0  0  0  0  0  0  0  0  0  0  0  0
  -32.5104  -20.4493   24.9604 N   0  0  0  0  0  0  0  0  0  1  0  0
  -28.7222  -21.5057   16.3849 N   0  3  0  0  0  0  0  0  0  0  0  0
  -22.7708  -14.8061   21.4099 O   0  0  0  0  0  0  0  0  0  0  0  0
  -29.7228  -25.4805   24.0383 O   0  0  0  0  0  0  0  0  0  0  0  0
  -27.5924  -25.9622   20.1417 O   0  0  0  0  0  0  0  0  0  0  0  0
  -28.2503  -21.3672   19.1551 O   0  0  0  0  0  0  0  0  0  0  0  0
  -31.9536  -14.8108   20.1693 O   0  0  0  0  0  0  0  0  0  0  0  0
  -21.5280   -7.1263   21.6589 O   0  0  0  0  0  0  0  0  0  0  0  0
  -33.2482  -20.7735   23.7399 O   0  0  0  0  0  0  0  0  0  1  0  0
  -16.3365   -7.1125   19.8008 F   0  0  0  0  0  0  0  0  0  0  0  0
  -34.2052  -17.2176   23.5719 F   0  0  0  0  0  0  0  0  0  0  0  0
  -20.6782   -5.2271   19.8386 F   0  0  0  0  0  0  0  0  0  0  0  0
  1  2  1  0  0  0  0
  1  5  2  0  0  0  0
  2  6  2  0  0  0  0
  3  8  2  0  0  0  0
  3 17  1  0  0  0  0
  4  9  1  0  0  0  0
  4 17  2  0  0  0  0
  5 19  1  0  0  0  0
  6 21  1  0  0  0  0
  7 10  2  0  0  0  0
  7 20  1  0  0  0  0
  8 26  1  0  0  0  0
  9 26  2  0  0  0  0
 10 27  1  0  0  0  0
 11 12  2  0  0  0  0
 11 28  1  0  0  0  0
 12 29  1  0  0  0  0
 13 22  1  0  0  0  0
 13 27  2  0  0  0  0
 14 23  2  0  0  0  0
 14 24  1  0  0  0  0
 15 25  2  0  0  0  0
 15 30  1  0  0  0  0
 16 29  2  0  0  0  0
 16 31  1  0  0  0  0
 17 32  1  0  0  0  0
 18 32  1  0  0  0  0
 18 33  2  0  0  0  0
 18 34  1  0  0  0  0
 19 21  2  0  0  0  0
 19 39  1  0  0  0  0
 20 22  2  0  0  0  0
 20 40  1  0  0  0  0
 21 48  1  0  0  0  0
 22 41  1  0  0  0  0
 23 25  1  0  0  0  0
 23 51  1  0  0  0  0
 24 30  2  0  0  0  0
 24 57  1  0  0  0  0
 25 67  1  0  0  0  0
 26 77  1  0  0  0  0
 27 78  1  0  0  0  0
 28 31  2  0  0  0  0
 28 77  1  0  0  0  0
 29 79  1  0  0  0  0
 30 80  1  0  0  0  0
 31 81  1  0  0  0  0
 32 61  2  0  0  0  0
 33 62  1  0  0  0  0
 33 65  1  0  0  0  0
 34 66  1  0  0  0  0
 34 72  2  0  0  0  0
 35 49  1  0  0  0  0
 35 68  1  0  0  0  0
 35 73  2  0  0  0  0
 36 58  1  0  0  0  0
 36 63  1  0  0  0  0
 36 74  2  0  0  0  0
 37 59  1  0  0  0  0
 37 69  1  0  0  0  0
 37 75  2  0  0  0  0
 38 64  1  0  0  0  0
 38 67  1  0  0  0  0
 38 76  2  0  0  0  0
 39 42  1  0  0  0  0
 40 49  1  0  0  0  0
 41 63  1  0  0  0  0
 42 44  1  0  0  0  0
 43 45  1  0  0  0  0
 43 46  1  0  0  0  0
 44 48  1  0  0  0  0
 45 50  1  0  0  0  0
 46 64  1  0  0  0  0
 47 50  1  0  0  0  0
 47 64  1  0  0  0  0
 48 68  1  0  0  0  0
 49 63  1  0  0  0  0
 50 62  1  0  0  0  0
 52 59  1  0  0  0  0
 53 60  1  0  0  0  0
 54 60  1  0  0  0  0
 55 60  1  0  0  0  0
 56 71  1  0  0  0  0
 57 70  1  0  0  0  0
 58 60  1  0  0  0  0
 58 69  1  0  0  0  0
 59 71  1  0  0  0  0
 61 62  1  0  0  0  0
 70 78  1  0  0  0  0
M  CHG  1  71   1
M  ISO  4  38 100  67 100  70 101  78 101
M  END
> <Batch ID>
0008

> <Smiles>
CNC(C)C(=O)NC(C(=O)N1Cc2cc([101O:1][101NH:1]Cc3cc(C)c([100NH:0][100C:0](=O)N4CCCC(n5nc(-c6ccc(Oc7ccc(F)cc7F)cc6)c(C(N)=O)c5N)C4)cc3F)ccc2CC1C(=O)NC1CCCc2ccccc21)C(C)(C)C

> <Shape>
0.214

> <Color>
0.212

> <Negative vol penalty>
0.000

$$$$

  -OEChem-04042320353D

 85 94  0     1  0  0  0  0  0999 V2000
  -25.4002  -34.6384   27.5587 C   0  0  0  0  0  0  0  0  0  0  0  0
  -26.1061  -33.5880   26.9810 C   0  0  0  0  0  0  0  0  0  0  0  0
  -26.4621  -11.4899   21.1941 C   0  0  0  0  0  0  0  0  0  0  0  0
  -25.8435  -12.9665   19.3847 C   0  0  0  0  0  0  0  0  0  0  0  0
  -24.0198  -34.7283   27.3844 C   0  0  0  0  0  0  0  0  0  0  0  0
  -25.4318  -32.6262   26.2295 C   0  0  0  0  0  0  0  0  0  0  0  0
  -27.5226  -29.6926   21.2769 C   0  0  0  0  0  0  0  0  0  0  0  0
  -29.8959  -20.8557   17.1121 C   0  0  0  0  0  0  0  0  0  0  0  0
  -30.2161  -19.5897   17.6024 C   0  0  0  0  0  0  0  0  0  0  0  0
  -25.1144  -11.2956   21.4964 C   0  0  0  0  0  0  0  0  0  0  0  0
  -24.4957  -12.7722   19.6869 C   0  0  0  0  0  0  0  0  0  0  0  0
  -28.0924  -28.4319   21.1043 C   0  0  0  0  0  0  0  0  0  0  0  0
  -22.5297   -9.4756   20.2965 C   0  0  0  0  0  0  0  0  0  0  0  0
  -22.1019   -8.1709   20.5420 C   0  0  0  0  0  0  0  0  0  0  0  0
  -25.9333  -27.5463   20.4935 C   0  0  0  0  0  0  0  0  0  0  0  0
  -31.4535  -20.6040   19.4128 C   0  0  0  0  0  0  0  0  0  0  0  0
  -21.3976   -8.8193   22.7603 C   0  0  0  0  0  0  0  0  0  0  0  0
  -26.8267  -12.3254   20.1383 C   0  0  0  0  0  0  0  0  0  0  0  0
  -29.0091  -11.7715   18.9390 C   0  0  0  0  0  0  0  0  0  0  0  0
  -23.3296  -33.7725   26.6224 C   0  0  0  0  0  0  0  0  0  0  0  0
  -26.1495  -29.8875   21.0693 C   0  0  0  0  0  0  0  0  0  0  0  0
  -24.0407  -32.7027   26.0460 C   0  0  0  0  0  0  0  0  0  0  0  0
  -25.3490  -28.8110   20.6616 C   0  0  0  0  0  0  0  0  0  0  0  0
  -30.3545  -21.9958   17.7720 C   0  0  0  0  0  0  0  0  0  0  0  0
  -30.9949  -19.4639   18.7528 C   0  0  0  0  0  0  0  0  0  0  0  0
  -24.1311  -11.9368   20.7428 C   0  0  0  0  0  0  0  0  0  0  0  0
  -27.2973  -27.3579   20.7154 C   0  0  0  0  0  0  0  0  0  0  0  0
  -22.3915  -10.4522   21.2829 C   0  0  0  0  0  0  0  0  0  0  0  0
  -21.5359   -7.8427   21.7739 C   0  0  0  0  0  0  0  0  0  0  0  0
  -31.1332  -21.8700   18.9223 C   0  0  0  0  0  0  0  0  0  0  0  0
  -21.8254  -10.1240   22.5147 C   0  0  0  0  0  0  0  0  0  0  0  0
  -28.2188  -12.5269   19.8260 C   0  0  0  0  0  0  0  0  0  0  0  0
  -30.2481  -12.3613   18.9957 C   0  0  0  0  0  0  0  0  0  0  0  0
  -29.1044  -25.2300   18.6737 C   0  0  0  0  0  0  0  0  0  0  0  0
  -28.6547  -10.6380   18.1358 C   0  0  0  0  0  0  0  0  0  0  0  0
  -23.7129  -30.8036   22.8934 C   0  0  0  0  0  0  0  0  0  0  0  0
  -22.0891  -30.7268   20.0863 C   0  0  0  0  0  0  0  0  0  0  0  0
  -21.8397  -29.4870   16.9165 C   0  0  0  0  0  0  0  0  0  0  0  0
  -32.0843  -17.8770   20.3780 C   0  0  0  0  0  0  0  0  0  0  0  0
  -21.8305  -33.8853   26.5013 C   0  0  0  0  0  0  0  0  0  0  0  0
  -25.5551  -31.2594   21.2337 C   0  0  0  0  0  0  0  0  0  0  0  0
  -23.8734  -28.9720   20.4062 C   0  0  0  0  0  0  0  0  0  0  0  0
  -21.2442  -33.0331   25.3786 C   0  0  0  0  0  0  0  0  0  0  0  0
  -33.0824  -14.8434   21.9521 C   0  0  0  0  0  0  0  0  0  0  0  0
  -21.8300  -31.6252   25.4156 C   0  0  0  0  0  0  0  0  0  0  0  0
  -32.0238  -13.8349   21.4999 C   0  0  0  0  0  0  0  0  0  0  0  0
  -27.0672  -24.1848   19.3384 C   0  0  0  0  0  0  0  0  0  0  0  0
  -32.4813  -16.2270   22.1932 C   0  0  0  0  0  0  0  0  0  0  0  0
  -27.6582  -23.4286   18.1648 C   0  0  0  0  0  0  0  0  0  0  0  0
  -30.6431  -15.7605   20.6207 C   0  0  0  0  0  0  0  0  0  0  0  0
  -23.3484  -31.6536   25.2032 C   0  0  1  0  0  0  0  0  0  0  0  0
  -27.7479  -25.5482   19.2707 C   0  0  1  0  0  0  0  0  0  1  0  0
  -24.0521  -31.2321   21.4937 C   0  0  1  0  0  0  0  0  0  0  0  0
  -31.2125  -14.3682   20.3028 C   0  0  2  0  0  0  0  0  0  0  0  0
  -20.3844  -29.5789   14.8742 C   0  0  0  0  0  0  0  0  0  0  0  0
  -20.0570  -28.9086   21.4556 C   0  0  0  0  0  0  0  0  0  0  0  0
  -19.1953  -28.2819   19.1900 C   0  0  0  0  0  0  0  0  0  0  0  0
  -19.0597  -30.6498   19.9629 C   0  0  0  0  0  0  0  0  0  0  0  0
  -24.0344  -30.5813   15.2598 C   0  0  0  0  0  0  0  0  0  0  0  0
  -30.0058  -23.3565   17.2419 C   0  0  0  0  0  0  0  0  0  0  0  0
  -21.3071  -29.6787   19.3319 C   0  0  1  0  0  0  0  0  0  0  0  0
  -21.5920  -30.1709   15.5840 C   0  0  2  0  0  0  0  0  0  0  0  0
  -19.9322  -29.3760   19.9917 C   0  0  0  0  0  0  0  0  0  0  0  0
  -28.8988  -13.5207   20.4038 N   0  0  0  0  0  0  0  0  0  0  0  0
  -30.1295  -13.3938   19.8789 N   0  0  0  0  0  0  0  0  0  0  0  0
  -28.9789  -23.9990   18.0330 N   0  0  0  0  0  0  0  0  0  0  0  0
  -23.3378  -30.3315   20.5866 N   0  0  0  0  0  0  0  0  0  0  0  0
  -31.7311  -16.6689   21.0156 N   0  0  0  0  0  0  0  0  0  0  0  0
  -31.4168  -12.0923   18.3757 N   0  0  0  0  0  0  0  0  0  0  0  0
  -27.3384  -10.1607   18.1973 N   0  0  0  0  0  0  0  0  0  0  0  0
  -31.3219  -18.1779   19.2498 N   0  0  0  0  0  0  0  0  0  0  0  0
  -23.6593  -31.8428   23.8026 N   0  0  0  0  0  0  0  0  0  0  0  0
  -21.2179  -30.1493   17.9538 N   0  0  0  0  0  0  0  0  0  0  0  0
  -22.7795  -30.0206   14.6961 N   0  3  0  0  0  0  0  0  0  0  0  0
  -30.0899  -25.9483   18.7467 O   0  0  0  0  0  0  0  0  0  0  0  0
  -29.4852  -10.0552   17.3980 O   0  0  0  0  0  0  0  0  0  0  0  0
  -23.5130  -29.6180   23.1306 O   0  0  0  0  0  0  0  0  0  0  0  0
  -21.6127  -31.8567   20.2205 O   0  0  0  0  0  0  0  0  0  0  0  0
  -22.5140  -28.4653   17.0257 O   0  0  0  0  0  0  0  0  0  0  0  0
  -33.0137  -18.5784   20.7858 O   0  0  0  0  0  0  0  0  0  0  0  0
  -22.8159  -11.7472   21.0373 O   0  0  0  0  0  0  0  0  0  0  0  0
  -27.8508  -26.1262   20.5469 O   0  0  0  0  0  0  0  0  0  1  0  0
  -21.1237   -6.5901   22.0090 F   0  0  0  0  0  0  0  0  0  0  0  0
  -31.5784  -22.9596   19.5634 F   0  0  0  0  0  0  0  0  0  0  0  0
  -21.6889  -11.0582   23.4658 F   0  0  0  0  0  0  0  0  0  0  0  0
  1  2  1  0  0  0  0
  1  5  2  0  0  0  0
  2  6  2  0  0  0  0
  3 10  2  0  0  0  0
  3 18  1  0  0  0  0
  4 11  1  0  0  0  0
  4 18  2  0  0  0  0
  5 20  1  0  0  0  0
  6 22  1  0  0  0  0
  7 12  2  0  0  0  0
  7 21  1  0  0  0  0
  8  9  2  0  0  0  0
  8 24  1  0  0  0  0
  9 25  1  0  0  0  0
 10 26  1  0  0  0  0
 11 26  2  0  0  0  0
 12 27  1  0  0  0  0
 13 14  2  0  0  0  0
 13 28  1  0  0  0  0
 14 29  1  0  0  0  0
 15 23  1  0  0  0  0
 15 27  2  0  0  0  0
 16 25  2  0  0  0  0
 16 30  1  0  0  0  0
 17 29  2  0  0  0  0
 17 31  1  0  0  0  0
 18 32  1  0  0  0  0
 19 32  1  0  0  0  0
 19 33  2  0  0  0  0
 19 35  1  0  0  0  0
 20 22  2  0  0  0  0
 20 40  1  0  0  0  0
 21 23  2  0  0  0  0
 21 41  1  0  0  0  0
 22 51  1  0  0  0  0
 23 42  1  0  0  0  0
 24 30  2  0  0  0  0
 24 60  1  0  0  0  0
 25 71  1  0  0  0  0
 26 81  1  0  0  0  0
 27 82  1  0  0  0  0
 28 31  2  0  0  0  0
 28 81  1  0  0  0  0
 29 83  1  0  0  0  0
 30 84  1  0  0  0  0
 31 85  1  0  0  0  0
 32 64  2  0  0  0  0
 33 65  1  0  0  0  0
 33 69  1  0  0  0  0
 34 52  1  0  0  0  0
 34 66  1  0  0  0  0
 34 75  2  0  0  0  0
 35 70  1  0  0  0  0
 35 76  2  0  0  0  0
 36 53  1  0  0  0  0
 36 72  1  0  0  0  0
 36 77  2  0  0  0  0
 37 61  1  0  0  0  0
 37 67  1  0  0  0  0
 37 78  2  0  0  0  0
 38 62  1  0  0  0  0
 38 73  1  0  0  0  0
 38 79  2  0  0  0  0
 39 68  1  0  0  0  0
 39 71  1  0  0  0  0
 39 80  2  0  0  0  0
 40 43  1  0  0  0  0
 41 53  1  0  0  0  0
 42 67  1  0  0  0  0
 43 45  1  0  0  0  0
 44 46  1  0  0  0  0
 44 48  1  0  0  0  0
 45 51  1  0  0  0  0
 46 54  1  0  0  0  0
 47 49  1  0  0  0  0
 47 52  1  0  0  0  0
 48 68  1  0  0  0  0
 49 66  1  0  0  0  0
 50 54  1  0  0  0  0
 50 68  1  0  0  0  0
 51 72  1  0  0  0  0
 52 82  1  0  0  0  0
 53 67  1  0  0  0  0
 54 65  1  0  0  0  0
 55 62  1  0  0  0  0
 56 63  1  0  0  0  0
 57 63  1  0  0  0  0
 58 63  1  0  0  0  0
 59 74  1  0  0  0  0
 60 66  1  0  0  0  0
 61 63  1  0  0  0  0
 61 73  1  0  0  0  0
 62 74  1  0  0  0  0
 64 65  1  0  0  0  0
M  CHG  1  74   1
M  ISO  4  39 100  52 101  71 100  82 101
M  END
> <Batch ID>
0008

> <Smiles>
CNC(C)C(=O)NC(C(=O)N1Cc2cc([101O:1][101CH:1]3CCN(Cc4ccc([100NH:0][100C:0](=O)N5CCCC(n6nc(-c7ccc(Oc8ccc(F)cc8F)cc7)c(C(N)=O)c6N)C5)cc4F)C3=O)ccc2CC1C(=O)NC1CCCc2ccccc21)C(C)(C)C

> <Shape>
0.274

> <Color>
0.083

> <Negative vol penalty>
0.000

$$$$

  -OEChem-04042320353D

 84 93  0     1  0  0  0  0  0999 V2000
  -18.1425  -32.8702   23.0299 C   0  0  0  0  0  0  0  0  0  0  0  0
  -19.5060  -33.0504   22.8203 C   0  0  0  0  0  0  0  0  0  0  0  0
  -27.9324  -18.2999   21.8534 C   0  0  0  0  0  0  0  0  0  0  0  0
  -28.9897  -18.0849   19.6917 C   0  0  0  0  0  0  0  0  0  0  0  0
  -17.6574  -31.6231   23.4214 C   0  0  0  0  0  0  0  0  0  0  0  0
  -20.3853  -31.9837   23.0032 C   0  0  0  0  0  0  0  0  0  0  0  0
  -26.5199  -29.3052   20.4519 C   0  0  0  0  0  0  0  0  0  0  0  0
  -27.4192  -17.0087   21.7308 C   0  0  0  0  0  0  0  0  0  0  0  0
  -28.4764  -16.7937   19.5691 C   0  0  0  0  0  0  0  0  0  0  0  0
  -27.7695  -28.8692   20.8903 C   0  0  0  0  0  0  0  0  0  0  0  0
  -29.2047  -13.7049   20.7305 C   0  0  0  0  0  0  0  0  0  0  0  0
  -30.0665  -12.7071   20.2752 C   0  0  0  0  0  0  0  0  0  0  0  0
  -32.2847  -27.3128   20.9342 C   0  0  0  0  0  0  0  0  0  0  0  0
  -26.8089  -26.7395   21.4910 C   0  0  0  0  0  0  0  0  0  0  0  0
  -33.4137  -29.1349   19.8198 C   0  0  0  0  0  0  0  0  0  0  0  0
  -32.2129  -29.5359   21.8775 C   0  0  0  0  0  0  0  0  0  0  0  0
  -28.6086  -12.3079   18.3905 C   0  0  0  0  0  0  0  0  0  0  0  0
  -28.7177  -18.8380   20.8338 C   0  0  0  0  0  0  0  0  0  0  0  0
  -30.1123  -20.6522   21.9615 C   0  0  0  0  0  0  0  0  0  0  0  0
  -18.5301  -30.5381   23.5998 C   0  0  0  0  0  0  0  0  0  0  0  0
  -25.4013  -28.4641   20.5401 C   0  0  0  0  0  0  0  0  0  0  0  0
  -19.9115  -30.7213   23.3987 C   0  0  0  0  0  0  0  0  0  0  0  0
  -33.0612  -27.7865   19.8769 C   0  0  0  0  0  0  0  0  0  0  0  0
  -25.5467  -27.1663   21.0507 C   0  0  0  0  0  0  0  0  0  0  0  0
  -31.8604  -28.1875   21.9346 C   0  0  0  0  0  0  0  0  0  0  0  0
  -27.6911  -16.2556   20.5887 C   0  0  0  0  0  0  0  0  0  0  0  0
  -27.9136  -27.5872   21.4125 C   0  0  0  0  0  0  0  0  0  0  0  0
  -28.0448  -14.0042   20.0159 C   0  0  0  0  0  0  0  0  0  0  0  0
  -29.7685  -12.0086   19.1052 C   0  0  0  0  0  0  0  0  0  0  0  0
  -32.9896  -30.0096   20.8201 C   0  0  0  0  0  0  0  0  0  0  0  0
  -27.7468  -13.3057   18.8459 C   0  0  0  0  0  0  0  0  0  0  0  0
  -29.2477  -20.1719   20.9596 C   0  0  0  0  0  0  0  0  0  0  0  0
  -30.3182  -21.9702   21.6344 C   0  0  0  0  0  0  0  0  0  0  0  0
  -30.6786  -19.9680   23.0870 C   0  0  0  0  0  0  0  0  0  0  0  0
  -22.6190  -28.5851   22.0723 C   0  0  0  0  0  0  0  0  0  0  0  0
  -22.0048  -25.8969   20.3638 C   0  0  0  0  0  0  0  0  0  0  0  0
  -23.2271  -23.1927   18.6786 C   0  0  0  0  0  0  0  0  0  0  0  0
  -31.3441  -25.9479   17.9440 C   0  0  0  0  0  0  0  0  0  0  0  0
  -17.9645  -29.2212   24.0695 C   0  0  0  0  0  0  0  0  0  0  0  0
  -24.0656  -28.9400   20.0383 C   0  0  0  0  0  0  0  0  0  0  0  0
  -24.3813  -26.2173   21.1482 C   0  0  0  0  0  0  0  0  0  0  0  0
  -18.9191  -28.0455   23.8783 C   0  0  0  0  0  0  0  0  0  0  0  0
  -34.7550  -24.8152   18.4260 C   0  0  0  0  0  0  0  0  0  0  0  0
  -28.0095  -24.9496   18.2802 C   0  0  0  0  0  0  0  0  0  0  0  0
  -34.8553  -26.1618   19.1314 C   0  0  0  0  0  0  0  0  0  0  0  0
  -20.3182  -28.4091   24.3652 C   0  0  0  0  0  0  0  0  0  0  0  0
  -28.0912  -23.6463   19.0725 C   0  0  0  0  0  0  0  0  0  0  0  0
  -29.1444  -25.0413   17.2679 C   0  0  0  0  0  0  0  0  0  0  0  0
  -33.2909  -24.4468   18.6088 C   0  0  0  0  0  0  0  0  0  0  0  0
  -30.6080  -23.6357   18.6875 C   0  0  0  0  0  0  0  0  0  0  0  0
  -33.5206  -26.8386   18.7923 C   0  0  1  0  0  0  0  0  0  0  0  0
  -20.8941  -29.5821   23.5628 C   0  0  1  0  0  0  0  0  0  0  0  0
  -22.8923  -28.1815   20.6510 C   0  0  1  0  0  0  0  0  0  0  0  0
  -29.4751  -23.4892   19.7240 C   0  0  2  0  0  0  0  0  0  0  0  0
  -22.4811  -21.1520   17.4230 C   0  0  0  0  0  0  0  0  0  0  0  0
  -21.3196  -24.5268   23.0026 C   0  0  0  0  0  0  0  0  0  0  0  0
  -21.5147  -22.3238   21.8292 C   0  0  0  0  0  0  0  0  0  0  0  0
  -19.7845  -23.9699   21.1086 C   0  0  0  0  0  0  0  0  0  0  0  0
  -24.5433  -24.1015   16.1884 C   0  0  0  0  0  0  0  0  0  0  0  0
  -31.0299  -27.6813   23.0652 C   0  0  0  0  0  0  0  0  0  0  0  0
  -22.2167  -24.4185   20.5840 C   0  0  1  0  0  0  0  0  0  0  0  0
  -22.8840  -22.6146   17.3175 C   0  0  2  0  0  0  0  0  0  0  0  0
  -21.2306  -23.8281   21.6312 C   0  0  0  0  0  0  0  0  0  0  0  0
  -28.9264  -21.1087   20.0633 N   0  0  0  0  0  0  0  0  0  0  0  0
  -29.5925  -22.1907   20.5009 N   0  0  0  0  0  0  0  0  0  0  0  0
  -23.0946  -26.7312   20.6503 N   0  0  0  0  0  0  0  0  0  0  0  0
  -30.4489  -24.8713   17.9089 N   0  0  0  0  0  0  0  0  0  0  0  0
  -32.5868  -25.7290   18.5455 N   0  0  0  0  0  0  0  0  0  0  0  0
  -31.0475  -22.9503   22.2088 N   0  0  0  0  0  0  0  0  0  0  0  0
  -31.9148  -19.3274   22.9268 N   0  0  0  0  0  0  0  0  0  0  0  0
  -21.3642  -29.1286   22.2714 N   0  0  0  0  0  0  0  0  0  0  0  0
  -22.1352  -23.7940   19.2681 N   0  0  0  0  0  0  0  0  0  0  0  0
  -29.6147  -28.0249   22.9145 N   0  0  0  0  0  0  0  0  0  1  0  0
  -24.0556  -22.7145   16.4020 N   0  3  0  0  0  0  0  0  0  0  0  0
  -30.0976  -19.9121   24.1974 O   0  0  0  0  0  0  0  0  0  0  0  0
  -23.4820  -28.4146   22.9254 O   0  0  0  0  0  0  0  0  0  0  0  0
  -20.9150  -26.2961   19.9460 O   0  0  0  0  0  0  0  0  0  0  0  0
  -24.3504  -23.1151   19.1713 O   0  0  0  0  0  0  0  0  0  0  0  0
  -31.0577  -27.0434   17.4443 O   0  0  0  0  0  0  0  0  0  0  0  0
  -27.1906  -14.9956   20.4688 O   0  0  0  0  0  0  0  0  0  0  0  0
  -29.1443  -27.1550   21.8460 O   0  0  0  0  0  0  0  0  0  1  0  0
  -30.5969  -11.0515   18.6673 F   0  0  0  0  0  0  0  0  0  0  0  0
  -33.3273  -31.3045   20.7647 F   0  0  0  0  0  0  0  0  0  0  0  0
  -26.6345  -13.5896   18.1544 F   0  0  0  0  0  0  0  0  0  0  0  0
  1  2  1  0  0  0  0
  1  5  2  0  0  0  0
  2  6  2  0  0  0  0
  3  8  2  0  0  0  0
  3 18  1  0  0  0  0
  4  9  1  0  0  0  0
  4 18  2  0  0  0  0
  5 20  1  0  0  0  0
  6 22  1  0  0  0  0
  7 10  2  0  0  0  0
  7 21  1  0  0  0  0
  8 26  1  0  0  0  0
  9 26  2  0  0  0  0
 10 27  1  0  0  0  0
 11 12  2  0  0  0  0
 11 28  1  0  0  0  0
 12 29  1  0  0  0  0
 13 23  1  0  0  0  0
 13 25  2  0  0  0  0
 14 24  1  0  0  0  0
 14 27  2  0  0  0  0
 15 23  2  0  0  0  0
 15 30  1  0  0  0  0
 16 25  1  0  0  0  0
 16 30  2  0  0  0  0
 17 29  2  0  0  0  0
 17 31  1  0  0  0  0
 18 32  1  0  0  0  0
 19 32  1  0  0  0  0
 19 33  2  0  0  0  0
 19 34  1  0  0  0  0
 20 22  2  0  0  0  0
 20 39  1  0  0  0  0
 21 24  2  0  0  0  0
 21 40  1  0  0  0  0
 22 52  1  0  0  0  0
 23 51  1  0  0  0  0
 24 41  1  0  0  0  0
 25 60  1  0  0  0  0
 26 80  1  0  0  0  0
 27 81  1  0  0  0  0
 28 31  2  0  0  0  0
 28 80  1  0  0  0  0
 29 82  1  0  0  0  0
 30 83  1  0  0  0  0
 31 84  1  0  0  0  0
 32 64  2  0  0  0  0
 33 65  1  0  0  0  0
 33 69  1  0  0  0  0
 34 70  1  0  0  0  0
 34 75  2  0  0  0  0
 35 53  1  0  0  0  0
 35 71  1  0  0  0  0
 35 76  2  0  0  0  0
 36 61  1  0  0  0  0
 36 66  1  0  0  0  0
 36 77  2  0  0  0  0
 37 62  1  0  0  0  0
 37 72  1  0  0  0  0
 37 78  2  0  0  0  0
 38 67  1  0  0  0  0
 38 68  1  0  0  0  0
 38 79  2  0  0  0  0
 39 42  1  0  0  0  0
 40 53  1  0  0  0  0
 41 66  1  0  0  0  0
 42 46  1  0  0  0  0
 43 45  1  0  0  0  0
 43 49  1  0  0  0  0
 44 47  1  0  0  0  0
 44 48  1  0  0  0  0
 45 51  1  0  0  0  0
 46 52  1  0  0  0  0
 47 54  1  0  0  0  0
 48 67  1  0  0  0  0
 49 68  1  0  0  0  0
 50 54  1  0  0  0  0
 50 67  1  0  0  0  0
 51 68  1  0  0  0  0
 52 71  1  0  0  0  0
 53 66  1  0  0  0  0
 54 65  1  0  0  0  0
 55 62  1  0  0  0  0
 56 63  1  0  0  0  0
 57 63  1  0  0  0  0
 58 63  1  0  0  0  0
 59 74  1  0  0  0  0
 60 73  1  0  0  0  0
 61 63  1  0  0  0  0
 61 72  1  0  0  0  0
 62 74  1  0  0  0  0
 64 65  1  0  0  0  0
 73 81  1  0  0  0  0
M  CHG  1  74   1
M  ISO  4  38 100  68 100  73 101  81 101
M  END
> <Batch ID>
0008

> <Smiles>
CNC(C)C(=O)NC(C(=O)N1Cc2cc([101O:1][101NH:1]Cc3cc(F)cc(C4CCC[100N:0]4[100C:0](=O)N4CCCC(n5nc(-c6ccc(Oc7ccc(F)cc7F)cc6)c(C(N)=O)c5N)C4)c3)ccc2CC1C(=O)NC1CCCc2ccccc21)C(C)(C)C

> <Shape>
0.230

> <Color>
0.072

> <Negative vol penalty>
0.000

$$$$

  -OEChem-04042320353D

 85 94  0     1  0  0  0  0  0999 V2000
  -27.8474  -24.4106   17.1911 C   0  0  0  0  0  0  0  0  0  0  0  0
  -26.6597  -24.7056   17.8527 C   0  0  0  0  0  0  0  0  0  0  0  0
  -27.4082  -14.5310   20.6213 C   0  0  0  0  0  0  0  0  0  0  0  0
  -25.3451  -14.6576   19.3706 C   0  0  0  0  0  0  0  0  0  0  0  0
  -29.0604  -24.8746   17.6983 C   0  0  0  0  0  0  0  0  0  0  0  0
  -26.6844  -25.4641   19.0226 C   0  0  0  0  0  0  0  0  0  0  0  0
  -23.1039  -29.0445   19.0927 C   0  0  0  0  0  0  0  0  0  0  0  0
  -20.4517  -21.1359   19.8639 C   0  0  0  0  0  0  0  0  0  0  0  0
  -27.2004  -13.1670   20.8260 C   0  0  0  0  0  0  0  0  0  0  0  0
  -25.1373  -13.2936   19.5753 C   0  0  0  0  0  0  0  0  0  0  0  0
  -21.8038  -28.6391   19.3916 C   0  0  0  0  0  0  0  0  0  0  0  0
  -26.2647  -10.3822   18.2816 C   0  0  0  0  0  0  0  0  0  0  0  0
  -19.0688  -21.3068   19.8007 C   0  0  0  0  0  0  0  0  0  0  0  0
  -25.8586   -9.6187   17.1872 C   0  0  0  0  0  0  0  0  0  0  0  0
  -22.0931  -29.4051   21.6607 C   0  0  0  0  0  0  0  0  0  0  0  0
  -20.5137  -22.3988   21.9226 C   0  0  0  0  0  0  0  0  0  0  0  0
  -23.8388   -9.0071   18.3634 C   0  0  0  0  0  0  0  0  0  0  0  0
  -26.4805  -15.2763   19.8936 C   0  0  0  0  0  0  0  0  0  0  0  0
  -27.3802  -17.2901   18.6119 C   0  0  0  0  0  0  0  0  0  0  0  0
  -29.0991  -25.6472   18.8697 C   0  0  0  0  0  0  0  0  0  0  0  0
  -23.9134  -29.6242   20.0801 C   0  0  0  0  0  0  0  0  0  0  0  0
  -27.8992  -25.9377   19.5466 C   0  0  0  0  0  0  0  0  0  0  0  0
  -23.4022  -29.8193   21.3711 C   0  0  0  0  0  0  0  0  0  0  0  0
  -19.1308  -22.5697   21.8594 C   0  0  0  0  0  0  0  0  0  0  0  0
  -21.1742  -21.6819   20.9249 C   0  0  0  0  0  0  0  0  0  0  0  0
  -26.0650  -12.5483   20.3030 C   0  0  0  0  0  0  0  0  0  0  0  0
  -21.2992  -28.8167   20.6764 C   0  0  0  0  0  0  0  0  0  0  0  0
  -25.4578  -10.4582   19.4170 C   0  0  0  0  0  0  0  0  0  0  0  0
  -24.6457   -8.9311   17.2281 C   0  0  0  0  0  0  0  0  0  0  0  0
  -18.4084  -22.0237   20.7984 C   0  0  0  0  0  0  0  0  0  0  0  0
  -24.2449   -9.7706   19.4578 C   0  0  0  0  0  0  0  0  0  0  0  0
  -26.6943  -16.6855   19.6823 C   0  0  0  0  0  0  0  0  0  0  0  0
  -27.3041  -18.6366   18.8721 C   0  0  0  0  0  0  0  0  0  0  0  0
  -28.0280  -16.6884   17.4832 C   0  0  0  0  0  0  0  0  0  0  0  0
  -26.6704  -28.8502   21.4598 C   0  0  0  0  0  0  0  0  0  0  0  0
  -26.3458  -31.7637   22.8485 C   0  0  0  0  0  0  0  0  0  0  0  0
  -24.2718  -34.2880   23.8353 C   0  0  0  0  0  0  0  0  0  0  0  0
  -23.4452  -21.9834   21.9726 C   0  0  0  0  0  0  0  0  0  0  0  0
  -30.4387  -26.0866   19.4056 C   0  0  0  0  0  0  0  0  0  0  0  0
  -25.3044  -30.0806   19.7347 C   0  0  0  0  0  0  0  0  0  0  0  0
  -24.2236  -30.4552   22.4616 C   0  0  0  0  0  0  0  0  0  0  0  0
  -30.3433  -27.2002   20.4453 C   0  0  0  0  0  0  0  0  0  0  0  0
  -26.9564  -21.7342   22.5078 C   0  0  0  0  0  0  0  0  0  0  0  0
  -29.2601  -26.8816   21.4710 C   0  0  0  0  0  0  0  0  0  0  0  0
  -27.3511  -20.4696   21.7415 C   0  0  0  0  0  0  0  0  0  0  0  0
  -17.9870  -26.8180   23.6617 C   0  0  0  0  0  0  0  0  0  0  0  0
  -25.5872  -21.5919   23.1701 C   0  0  0  0  0  0  0  0  0  0  0  0
  -24.8974  -19.9127   21.5046 C   0  0  0  0  0  0  0  0  0  0  0  0
  -17.2453  -25.4961   23.5476 C   0  0  0  0  0  0  0  0  0  0  0  0
  -19.1520  -25.5723   22.0203 C   0  0  0  0  0  0  0  0  0  0  0  0
  -27.8827  -26.7785   20.8048 C   0  0  1  0  0  0  0  0  0  0  0  0
  -26.2170  -30.1898   20.9522 C   0  0  1  0  0  0  0  0  0  0  0  0
  -18.6609  -26.9810   22.3065 C   0  0  2  0  0  0  0  0  0  0  0  0
  -26.2407  -20.0319   20.7663 C   0  0  2  0  0  0  0  0  0  0  0  0
  -24.2933  -36.5226   24.9770 C   0  0  0  0  0  0  0  0  0  0  0  0
  -26.7062  -30.3804   25.5441 C   0  0  0  0  0  0  0  0  0  0  0  0
  -25.7875  -32.4341   26.6424 C   0  0  0  0  0  0  0  0  0  0  0  0
  -27.9017  -32.5661   25.3251 C   0  0  0  0  0  0  0  0  0  0  0  0
  -23.1774  -35.6490   21.4460 C   0  0  0  0  0  0  0  0  0  0  0  0
  -18.4223  -23.3401   22.9343 C   0  0  0  0  0  0  0  0  0  0  0  0
  -19.7750  -28.0058   22.3120 C   0  0  0  0  0  0  0  0  0  1  0  0
  -25.7018  -32.2798   24.1126 C   0  0  1  0  0  0  0  0  0  0  0  0
  -24.3539  -35.7918   23.6447 C   0  0  2  0  0  0  0  0  0  0  0  0
  -26.5092  -31.9013   25.3862 C   0  0  0  0  0  0  0  0  0  0  0  0
  -26.2178  -17.5749   20.5575 N   0  0  0  0  0  0  0  0  0  0  0  0
  -26.6049  -18.7521   20.0374 N   0  0  0  0  0  0  0  0  0  0  0  0
  -25.5799  -30.8790   22.0762 N   0  0  0  0  0  0  0  0  0  0  0  0
  -24.5850  -21.1793   22.1850 N   0  0  0  0  0  0  0  0  0  0  0  0
  -27.7678  -19.7212   18.2156 N   0  0  0  0  0  0  0  0  0  0  0  0
  -28.0119  -15.2916   17.3698 N   0  0  0  0  0  0  0  0  0  0  0  0
  -22.5789  -21.5073   20.9891 N   0  0  0  0  0  0  0  0  0  0  0  0
  -27.3562  -28.0974   20.5259 N   0  0  0  0  0  0  0  0  0  0  0  0
  -25.5230  -33.7152   23.9230 N   0  0  0  0  0  0  0  0  0  0  0  0
  -18.0053  -24.7073   22.4970 N   0  3  1  0  0  0  0  0  0  0  0  0
  -23.2259  -36.2686   22.7954 N   0  3  0  0  0  0  0  0  0  0  0  0
  -28.6183  -17.3685   16.6099 O   0  0  0  0  0  0  0  0  0  0  0  0
  -26.4180  -28.5244   22.6139 O   0  0  0  0  0  0  0  0  0  0  0  0
  -27.4836  -32.1376   22.5533 O   0  0  0  0  0  0  0  0  0  0  0  0
  -23.2045  -33.6825   23.9036 O   0  0  0  0  0  0  0  0  0  0  0  0
  -23.2656  -23.0323   22.5967 O   0  0  0  0  0  0  0  0  0  0  0  0
  -25.8620  -11.2173   20.5024 O   0  0  0  0  0  0  0  0  0  0  0  0
  -20.0309  -28.4213   20.9710 O   0  0  0  0  0  0  0  0  0  1  0  0
  -24.2552   -8.1992   16.1765 F   0  0  0  0  0  0  0  0  0  0  0  0
  -17.0795  -22.1836   20.7283 F   0  0  0  0  0  0  0  0  0  0  0  0
  -23.4649   -9.8407   20.5453 F   0  0  0  0  0  0  0  0  0  0  0  0
  1  2  1  0  0  0  0
  1  5  2  0  0  0  0
  2  6  2  0  0  0  0
  3  9  2  0  0  0  0
  3 18  1  0  0  0  0
  4 10  1  0  0  0  0
  4 18  2  0  0  0  0
  5 20  1  0  0  0  0
  6 22  1  0  0  0  0
  7 11  2  0  0  0  0
  7 21  1  0  0  0  0
  8 13  2  0  0  0  0
  8 25  1  0  0  0  0
  9 26  1  0  0  0  0
 10 26  2  0  0  0  0
 11 27  1  0  0  0  0
 12 14  2  0  0  0  0
 12 28  1  0  0  0  0
 13 30  1  0  0  0  0
 14 29  1  0  0  0  0
 15 23  1  0  0  0  0
 15 27  2  0  0  0  0
 16 24  1  0  0  0  0
 16 25  2  0  0  0  0
 17 29  2  0  0  0  0
 17 31  1  0  0  0  0
 18 32  1  0  0  0  0
 19 32  1  0  0  0  0
 19 33  2  0  0  0  0
 19 34  1  0  0  0  0
 20 22  2  0  0  0  0
 20 39  1  0  0  0  0
 21 23  2  0  0  0  0
 21 40  1  0  0  0  0
 22 51  1  0  0  0  0
 23 41  1  0  0  0  0
 24 30  2  0  0  0  0
 24 60  1  0  0  0  0
 25 71  1  0  0  0  0
 26 81  1  0  0  0  0
 27 82  1  0  0  0  0
 28 31  2  0  0  0  0
 28 81  1  0  0  0  0
 29 83  1  0  0  0  0
 30 84  1  0  0  0  0
 31 85  1  0  0  0  0
 32 65  2  0  0  0  0
 33 66  1  0  0  0  0
 33 69  1  0  0  0  0
 34 70  1  0  0  0  0
 34 76  2  0  0  0  0
 35 52  1  0  0  0  0
 35 72  1  0  0  0  0
 35 77  2  0  0  0  0
 36 62  1  0  0  0  0
 36 67  1  0  0  0  0
 36 78  2  0  0  0  0
 37 63  1  0  0  0  0
 37 73  1  0  0  0  0
 37 79  2  0  0  0  0
 38 68  1  0  0  0  0
 38 71  1  0  0  0  0
 38 80  2  0  0  0  0
 39 42  1  0  0  0  0
 40 52  1  0  0  0  0
 41 67  1  0  0  0  0
 42 44  1  0  0  0  0
 43 45  1  0  0  0  0
 43 47  1  0  0  0  0
 44 51  1  0  0  0  0
 45 54  1  0  0  0  0
 46 49  1  0  0  0  0
 46 53  1  0  0  0  0
 47 68  1  0  0  0  0
 48 54  1  0  0  0  0
 48 68  1  0  0  0  0
 49 74  1  0  0  0  0
 50 53  1  0  0  0  0
 50 74  1  0  0  0  0
 51 72  1  0  0  0  0
 52 67  1  0  0  0  0
 53 61  1  0  0  0  0
 54 66  1  0  0  0  0
 55 63  1  0  0  0  0
 56 64  1  0  0  0  0
 57 64  1  0  0  0  0
 58 64  1  0  0  0  0
 59 75  1  0  0  0  0
 60 74  1  0  0  0  0
 61 82  1  0  0  0  0
 62 64  1  0  0  0  0
 62 73  1  0  0  0  0
 63 75  1  0  0  0  0
 65 66  1  0  0  0  0
M  CHG  2  74   1  75   1
M  ISO  4  38 100  61 101  71 100  82 101
M  END
> <Batch ID>
0008

> <Smiles>
CNC(C)C(=O)NC(C(=O)N1Cc2cc([101O:1][101CH2:1]C3CCN(Cc4cc([100NH:0][100C:0](=O)N5CCCC(n6nc(-c7ccc(Oc8ccc(F)cc8F)cc7)c(C(N)=O)c6N)C5)ccc4F)C3)ccc2CC1C(=O)NC1CCCc2ccccc21)C(C)(C)C

> <Shape>
0.270

> <Color>
0.067

> <Negative vol penalty>
0.000

$$$$

  -OEChem-04042320353D

 81 89  0     1  0  0  0  0  0999 V2000
  -17.7155  -33.3419   18.0836 C   0  0  0  0  0  0  0  0  0  0  0  0
  -18.9138  -32.9824   17.4751 C   0  0  0  0  0  0  0  0  0  0  0  0
  -24.8012  -10.2786   22.6259 C   0  0  0  0  0  0  0  0  0  0  0  0
  -24.4888  -11.7693   24.5013 C   0  0  0  0  0  0  0  0  0  0  0  0
  -17.7254  -33.9232   19.3508 C   0  0  0  0  0  0  0  0  0  0  0  0
  -20.1229  -33.2051   18.1332 C   0  0  0  0  0  0  0  0  0  0  0  0
  -24.6112  -27.7615   19.5870 C   0  0  0  0  0  0  0  0  0  0  0  0
  -29.5131  -20.7821   21.9189 C   0  0  0  0  0  0  0  0  0  0  0  0
  -24.3855   -9.2034   23.4112 C   0  0  0  0  0  0  0  0  0  0  0  0
  -24.0729  -10.6941   25.2866 C   0  0  0  0  0  0  0  0  0  0  0  0
  -25.6185  -26.8047   19.7133 C   0  0  0  0  0  0  0  0  0  0  0  0
  -29.3851  -22.1504   22.1577 C   0  0  0  0  0  0  0  0  0  0  0  0
  -21.4645   -7.9153   24.5255 C   0  0  0  0  0  0  0  0  0  0  0  0
  -20.5567   -7.0164   23.9656 C   0  0  0  0  0  0  0  0  0  0  0  0
  -27.0248  -28.4182   20.8389 C   0  0  0  0  0  0  0  0  0  0  0  0
  -27.1423  -20.6374   21.4769 C   0  0  0  0  0  0  0  0  0  0  0  0
  -22.1505   -5.2245   24.2582 C   0  0  0  0  0  0  0  0  0  0  0  0
  -24.8529  -11.5615   23.1710 C   0  0  0  0  0  0  0  0  0  0  0  0
  -24.4755  -13.5061   21.5635 C   0  0  0  0  0  0  0  0  0  0  0  0
  -18.9346  -34.1443   20.0288 C   0  0  0  0  0  0  0  0  0  0  0  0
  -24.8012  -29.0475   20.1004 C   0  0  0  0  0  0  0  0  0  0  0  0
  -20.1490  -33.7912   19.4101 C   0  0  0  0  0  0  0  0  0  0  0  0
  -26.0146  -29.3772   20.7264 C   0  0  0  0  0  0  0  0  0  0  0  0
  -28.3917  -20.0256   21.5784 C   0  0  0  0  0  0  0  0  0  0  0  0
  -24.0213   -9.4111   24.7416 C   0  0  0  0  0  0  0  0  0  0  0  0
  -26.8224  -27.1323   20.3375 C   0  0  0  0  0  0  0  0  0  0  0  0
  -22.7154   -7.4688   24.9517 C   0  0  0  0  0  0  0  0  0  0  0  0
  -28.1357  -22.7621   22.0562 C   0  0  0  0  0  0  0  0  0  0  0  0
  -20.8997   -5.6710   23.8320 C   0  0  0  0  0  0  0  0  0  0  0  0
  -27.0143  -22.0057   21.7158 C   0  0  0  0  0  0  0  0  0  0  0  0
  -23.0584   -6.1234   24.8181 C   0  0  0  0  0  0  0  0  0  0  0  0
  -25.2829  -12.6725   22.3604 C   0  0  0  0  0  0  0  0  0  0  0  0
  -25.3542  -14.3993   21.0010 C   0  0  0  0  0  0  0  0  0  0  0  0
  -23.0579  -13.4758   21.3509 C   0  0  0  0  0  0  0  0  0  0  0  0
  -23.3724  -32.4735   20.6455 C   0  0  0  0  0  0  0  0  0  0  0  0
  -24.8881  -31.7227   23.2046 C   0  0  0  0  0  0  0  0  0  0  0  0
  -26.3005  -30.3471   25.9886 C   0  0  0  0  0  0  0  0  0  0  0  0
  -29.6878  -17.8733   21.3941 C   0  0  0  0  0  0  0  0  0  0  0  0
  -18.8980  -34.8190   21.3772 C   0  0  0  0  0  0  0  0  0  0  0  0
  -23.7676  -30.1278   19.9324 C   0  0  0  0  0  0  0  0  0  0  0  0
  -26.1880  -30.7830   21.2329 C   0  0  0  0  0  0  0  0  0  0  0  0
  -20.1981  -34.6777   22.1645 C   0  0  0  0  0  0  0  0  0  0  0  0
  -30.4150  -14.4228   20.9013 C   0  0  0  0  0  0  0  0  0  0  0  0
  -21.3979  -34.9814   21.2727 C   0  0  0  0  0  0  0  0  0  0  0  0
  -29.0782  -13.7284   21.1714 C   0  0  0  0  0  0  0  0  0  0  0  0
  -30.6319  -15.6163   21.8299 C   0  0  0  0  0  0  0  0  0  0  0  0
  -28.2019  -15.9022   22.1169 C   0  0  0  0  0  0  0  0  0  0  0  0
  -21.4794  -33.9940   20.1023 C   0  0  1  0  0  0  0  0  0  0  0  0
  -23.7025  -31.0923   21.1301 C   0  0  1  0  0  0  0  0  0  0  0  0
  -27.9093  -14.7331   21.1623 C   0  0  2  0  0  0  0  0  0  0  0  0
  -26.8460  -30.8668   28.3823 C   0  0  0  0  0  0  0  0  0  0  0  0
  -27.2368  -33.4417   22.2923 C   0  0  0  0  0  0  0  0  0  0  0  0
  -28.2509  -33.1347   24.5607 C   0  0  0  0  0  0  0  0  0  0  0  0
  -26.0517  -34.2882   24.3254 C   0  0  0  0  0  0  0  0  0  0  0  0
  -24.5818  -28.1504   26.9783 C   0  0  0  0  0  0  0  0  0  0  0  0
  -28.6649  -26.3010   21.5911 C   0  0  0  0  0  0  0  0  0  1  0  0
  -29.1408  -24.9163   21.9857 C   0  0  0  0  0  0  0  0  0  0  0  0
  -26.1840  -31.7882   23.9726 C   0  0  1  0  0  0  0  0  0  0  0  0
  -25.8232  -30.2708   27.4276 C   0  0  2  0  0  0  0  0  0  0  0  0
  -26.9242  -33.1407   23.7717 C   0  0  0  0  0  0  0  0  0  0  0  0
  -26.5752  -13.0063   22.3111 N   0  0  0  0  0  0  0  0  0  0  0  0
  -26.5866  -14.0595   21.4764 N   0  0  0  0  0  0  0  0  0  0  0  0
  -24.9536  -31.2347   21.8939 N   0  0  0  0  0  0  0  0  0  0  0  0
  -29.4868  -16.5270   21.7655 N   0  0  0  0  0  0  0  0  0  0  0  0
  -25.1853  -15.4344   20.1511 N   0  0  0  0  0  0  0  0  0  0  0  0
  -22.3048  -12.4921   22.0063 N   0  0  0  0  0  0  0  0  0  0  0  0
  -28.5216  -18.6356   21.3358 N   0  0  0  0  0  0  0  0  0  0  0  0
  -22.0175  -32.7263   20.5470 N   0  0  0  0  0  0  0  0  0  0  0  0
  -25.8510  -31.4898   25.3613 N   0  0  0  0  0  0  0  0  0  0  0  0
  -25.5846  -28.8529   27.8197 N   0  3  0  0  0  0  0  0  0  0  0  0
  -22.4784  -14.2864   20.5889 O   0  0  0  0  0  0  0  0  0  0  0  0
  -24.2795  -33.2539   20.3813 O   0  0  0  0  0  0  0  0  0  0  0  0
  -23.8455  -32.0986   23.7477 O   0  0  0  0  0  0  0  0  0  0  0  0
  -27.0049  -29.4816   25.4736 O   0  0  0  0  0  0  0  0  0  0  0  0
  -30.8084  -18.3104   21.1197 O   0  0  0  0  0  0  0  0  0  0  0  0
  -23.6153   -8.3622   25.5081 O   0  0  0  0  0  0  0  0  0  0  0  0
  -27.7998  -26.1921   20.4615 O   0  0  0  0  0  0  0  0  0  1  0  0
  -28.0119  -24.1064   22.2905 O   0  0  0  0  0  0  0  0  0  0  0  0
  -20.0272   -4.8077   23.2957 F   0  0  0  0  0  0  0  0  0  0  0  0
  -25.8115  -22.5881   21.6156 F   0  0  0  0  0  0  0  0  0  0  0  0
  -24.2582   -5.6883   25.2268 F   0  0  0  0  0  0  0  0  0  0  0  0
  1  2  1  0  0  0  0
  1  5  2  0  0  0  0
  2  6  2  0  0  0  0
  3  9  2  0  0  0  0
  3 18  1  0  0  0  0
  4 10  1  0  0  0  0
  4 18  2  0  0  0  0
  5 20  1  0  0  0  0
  6 22  1  0  0  0  0
  7 11  2  0  0  0  0
  7 21  1  0  0  0  0
  8 12  2  0  0  0  0
  8 24  1  0  0  0  0
  9 25  1  0  0  0  0
 10 25  2  0  0  0  0
 11 26  1  0  0  0  0
 12 28  1  0  0  0  0
 13 14  2  0  0  0  0
 13 27  1  0  0  0  0
 14 29  1  0  0  0  0
 15 23  1  0  0  0  0
 15 26  2  0  0  0  0
 16 24  2  0  0  0  0
 16 30  1  0  0  0  0
 17 29  2  0  0  0  0
 17 31  1  0  0  0  0
 18 32  1  0  0  0  0
 19 32  1  0  0  0  0
 19 33  2  0  0  0  0
 19 34  1  0  0  0  0
 20 22  2  0  0  0  0
 20 39  1  0  0  0  0
 21 23  2  0  0  0  0
 21 40  1  0  0  0  0
 22 48  1  0  0  0  0
 23 41  1  0  0  0  0
 24 67  1  0  0  0  0
 25 76  1  0  0  0  0
 26 77  1  0  0  0  0
 27 31  2  0  0  0  0
 27 76  1  0  0  0  0
 28 30  2  0  0  0  0
 28 78  1  0  0  0  0
 29 79  1  0  0  0  0
 30 80  1  0  0  0  0
 31 81  1  0  0  0  0
 32 61  2  0  0  0  0
 33 62  1  0  0  0  0
 33 65  1  0  0  0  0
 34 66  1  0  0  0  0
 34 71  2  0  0  0  0
 35 49  1  0  0  0  0
 35 68  1  0  0  0  0
 35 72  2  0  0  0  0
 36 58  1  0  0  0  0
 36 63  1  0  0  0  0
 36 73  2  0  0  0  0
 37 59  1  0  0  0  0
 37 69  1  0  0  0  0
 37 74  2  0  0  0  0
 38 64  1  0  0  0  0
 38 67  1  0  0  0  0
 38 75  2  0  0  0  0
 39 42  1  0  0  0  0
 40 49  1  0  0  0  0
 41 63  1  0  0  0  0
 42 44  1  0  0  0  0
 43 45  1  0  0  0  0
 43 46  1  0  0  0  0
 44 48  1  0  0  0  0
 45 50  1  0  0  0  0
 46 64  1  0  0  0  0
 47 50  1  0  0  0  0
 47 64  1  0  0  0  0
 48 68  1  0  0  0  0
 49 63  1  0  0  0  0
 50 62  1  0  0  0  0
 51 59  1  0  0  0  0
 52 60  1  0  0  0  0
 53 60  1  0  0  0  0
 54 60  1  0  0  0  0
 55 70  1  0  0  0  0
 56 57  1  0  0  0  0
 56 77  1  0  0  0  0
 57 78  1  0  0  0  0
 58 60  1  0  0  0  0
 58 69  1  0  0  0  0
 59 70  1  0  0  0  0
 61 62  1  0  0  0  0
M  CHG  1  70   1
M  ISO  4  38 100  56 101  67 100  77 101
M  END
> <Batch ID>
0008

> <Smiles>
CNC(C)C(=O)NC(C(=O)N1Cc2cc([101O:1][101CH2:1]COc3ccc([100NH:0][100C:0](=O)N4CCCC(n5nc(-c6ccc(Oc7ccc(F)cc7F)cc6)c(C(N)=O)c5N)C4)cc3F)ccc2CC1C(=O)NC1CCCc2ccccc21)C(C)(C)C

> <Shape>
0.265

> <Color>
0.145

> <Negative vol penalty>
0.000

$$$$

  -OEChem-04042320353D

 81 89  0     1  0  0  0  0  0999 V2000
  -31.2902  -31.8137   25.2922 C   0  0  0  0  0  0  0  0  0  0  0  0
  -31.9163  -30.5747   25.3829 C   0  0  0  0  0  0  0  0  0  0  0  0
  -23.0371   -9.9734   19.9343 C   0  0  0  0  0  0  0  0  0  0  0  0
  -23.8194   -9.9178   22.2194 C   0  0  0  0  0  0  0  0  0  0  0  0
  -29.9323  -31.8864   24.9846 C   0  0  0  0  0  0  0  0  0  0  0  0
  -31.1846  -29.4075   25.1671 C   0  0  0  0  0  0  0  0  0  0  0  0
  -33.1825  -24.2388   22.5597 C   0  0  0  0  0  0  0  0  0  0  0  0
  -22.2645   -8.8365   20.1711 C   0  0  0  0  0  0  0  0  0  0  0  0
  -23.0467   -8.7809   22.4563 C   0  0  0  0  0  0  0  0  0  0  0  0
  -33.6376  -23.0340   23.0936 C   0  0  0  0  0  0  0  0  0  0  0  0
  -19.8040   -8.0603   23.0776 C   0  0  0  0  0  0  0  0  0  0  0  0
  -19.0578   -8.0195   24.2554 C   0  0  0  0  0  0  0  0  0  0  0  0
  -31.4304  -22.0945   22.8393 C   0  0  0  0  0  0  0  0  0  0  0  0
  -30.7017  -18.1674   24.1123 C   0  0  0  0  0  0  0  0  0  0  0  0
  -32.2307  -16.4173   22.5689 C   0  0  0  0  0  0  0  0  0  0  0  0
  -20.2529   -6.0359   24.9440 C   0  0  0  0  0  0  0  0  0  0  0  0
  -23.8146  -10.5141   20.9584 C   0  0  0  0  0  0  0  0  0  0  0  0
  -24.2242  -13.0308   20.8804 C   0  0  0  0  0  0  0  0  0  0  0  0
  -29.1856  -30.7199   24.7554 C   0  0  0  0  0  0  0  0  0  0  0  0
  -31.8430  -24.3842   22.1710 C   0  0  0  0  0  0  0  0  0  0  0  0
  -29.8151  -29.4646   24.8575 C   0  0  0  0  0  0  0  0  0  0  0  0
  -30.9614  -23.3014   22.2984 C   0  0  0  0  0  0  0  0  0  0  0  0
  -32.0890  -18.1427   24.2542 C   0  0  0  0  0  0  0  0  0  0  0  0
  -30.8433  -16.4420   22.4270 C   0  0  0  0  0  0  0  0  0  0  0  0
  -22.2692   -8.2403   21.4321 C   0  0  0  0  0  0  0  0  0  0  0  0
  -32.7609  -21.9626   23.2362 C   0  0  0  0  0  0  0  0  0  0  0  0
  -20.7746   -7.0888   22.8330 C   0  0  0  0  0  0  0  0  0  0  0  0
  -19.2822   -7.0074   25.1886 C   0  0  0  0  0  0  0  0  0  0  0  0
  -30.0788  -17.3170   23.1987 C   0  0  0  0  0  0  0  0  0  0  0  0
  -32.8536  -17.2677   23.4825 C   0  0  0  0  0  0  0  0  0  0  0  0
  -20.9991   -6.0767   23.7662 C   0  0  0  0  0  0  0  0  0  0  0  0
  -24.6134  -11.6881   20.7142 C   0  0  0  0  0  0  0  0  0  0  0  0
  -25.3328  -13.7568   20.5194 C   0  0  0  0  0  0  0  0  0  0  0  0
  -22.9725  -13.5732   21.3216 C   0  0  0  0  0  0  0  0  0  0  0  0
  -29.4338  -26.2485   23.0786 C   0  0  0  0  0  0  0  0  0  0  0  0
  -27.9210  -24.8518   20.5720 C   0  0  0  0  0  0  0  0  0  0  0  0
  -27.6804  -22.1882   18.4521 C   0  0  0  0  0  0  0  0  0  0  0  0
  -30.8271  -14.6501   20.6565 C   0  0  0  0  0  0  0  0  0  0  0  0
  -27.7097  -30.8466   24.4724 C   0  0  0  0  0  0  0  0  0  0  0  0
  -31.3741  -25.6819   21.5720 C   0  0  0  0  0  0  0  0  0  0  0  0
  -29.5186  -23.3996   21.8774 C   0  0  0  0  0  0  0  0  0  0  0  0
  -27.0903  -29.5791   23.8894 C   0  0  0  0  0  0  0  0  0  0  0  0
  -29.6238  -12.3111   18.2567 C   0  0  0  0  0  0  0  0  0  0  0  0
  -27.5392  -28.3536   24.6790 C   0  0  0  0  0  0  0  0  0  0  0  0
  -28.1810  -12.0510   18.6958 C   0  0  0  0  0  0  0  0  0  0  0  0
  -30.5566  -12.4930   19.4528 C   0  0  0  0  0  0  0  0  0  0  0  0
  -28.6838  -13.2436   20.8665 C   0  0  0  0  0  0  0  0  0  0  0  0
  -29.0607  -28.1771   24.6058 C   0  0  1  0  0  0  0  0  0  0  0  0
  -29.8662  -25.8826   21.6869 C   0  0  1  0  0  0  0  0  0  0  0  0
  -27.6951  -13.1184   19.6958 C   0  0  2  0  0  0  0  0  0  0  0  0
  -26.3211  -21.3155   16.5316 C   0  0  0  0  0  0  0  0  0  0  0  0
  -25.6750  -24.1128   22.5006 C   0  0  0  0  0  0  0  0  0  0  0  0
  -24.8475  -22.4734   20.7989 C   0  0  0  0  0  0  0  0  0  0  0  0
  -24.9049  -24.9078   20.2579 C   0  0  0  0  0  0  0  0  0  0  0  0
  -30.0313  -22.1494   16.6548 C   0  0  0  0  0  0  0  0  0  0  0  0
  -32.7582  -19.0624   25.2407 C   0  0  0  0  0  0  0  0  0  0  0  0
  -27.0741  -23.6157   20.3884 C   0  0  1  0  0  0  0  0  0  0  0  0
  -27.5504  -22.1115   16.9416 C   0  0  2  0  0  0  0  0  0  0  0  0
  -25.6521  -23.7759   20.9963 C   0  0  0  0  0  0  0  0  0  0  0  0
  -25.8710  -11.5656   20.2813 N   0  0  0  0  0  0  0  0  0  0  0  0
  -26.2816  -12.8406   20.1722 N   0  0  0  0  0  0  0  0  0  0  0  0
  -29.1065  -24.6911   21.3031 N   0  0  0  0  0  0  0  0  0  0  0  0
  -30.0347  -13.5224   20.3543 N   0  0  0  0  0  0  0  0  0  0  0  0
  -25.5789  -15.0832   20.4682 N   0  0  0  0  0  0  0  0  0  0  0  0
  -21.9395  -12.6858   21.6529 N   0  0  0  0  0  0  0  0  0  0  0  0
  -30.2133  -15.5773   21.4980 N   0  0  0  0  0  0  0  0  0  0  0  0
  -29.4426  -27.6070   23.3316 N   0  0  0  0  0  0  0  0  0  0  0  0
  -27.0835  -23.3230   18.9591 N   0  0  0  0  0  0  0  0  0  0  0  0
  -32.4536  -20.4604   24.9712 N   0  0  0  0  0  0  0  0  0  1  0  0
  -28.7522  -21.4577   16.3508 N   0  3  0  0  0  0  0  0  0  0  0  0
  -22.7706  -14.8085   21.4035 O   0  0  0  0  0  0  0  0  0  0  0  0
  -29.1142  -25.3640   23.8642 O   0  0  0  0  0  0  0  0  0  0  0  0
  -27.5481  -25.9191   20.0786 O   0  0  0  0  0  0  0  0  0  0  0  0
  -28.2509  -21.3256   19.1162 O   0  0  0  0  0  0  0  0  0  0  0  0
  -31.9557  -14.7966   20.1803 O   0  0  0  0  0  0  0  0  0  0  0  0
  -21.5152   -7.1311   21.6636 O   0  0  0  0  0  0  0  0  0  0  0  0
  -33.2024  -20.7857   23.7576 O   0  0  0  0  0  0  0  0  0  1  0  0
  -18.5666   -6.9693   26.3202 F   0  0  0  0  0  0  0  0  0  0  0  0
  -28.7445  -17.3492   23.0707 F   0  0  0  0  0  0  0  0  0  0  0  0
  -34.1871  -17.2368   23.6120 F   0  0  0  0  0  0  0  0  0  0  0  0
  -21.9310   -5.1413   23.5372 F   0  0  0  0  0  0  0  0  0  0  0  0
  1  2  1  0  0  0  0
  1  5  2  0  0  0  0
  2  6  2  0  0  0  0
  3  8  2  0  0  0  0
  3 17  1  0  0  0  0
  4  9  1  0  0  0  0
  4 17  2  0  0  0  0
  5 19  1  0  0  0  0
  6 21  1  0  0  0  0
  7 10  2  0  0  0  0
  7 20  1  0  0  0  0
  8 25  1  0  0  0  0
  9 25  2  0  0  0  0
 10 26  1  0  0  0  0
 11 12  2  0  0  0  0
 11 27  1  0  0  0  0
 12 28  1  0  0  0  0
 13 22  1  0  0  0  0
 13 26  2  0  0  0  0
 14 23  1  0  0  0  0
 14 29  2  0  0  0  0
 15 24  2  0  0  0  0
 15 30  1  0  0  0  0
 16 28  2  0  0  0  0
 16 31  1  0  0  0  0
 17 32  1  0  0  0  0
 18 32  1  0  0  0  0
 18 33  2  0  0  0  0
 18 34  1  0  0  0  0
 19 21  2  0  0  0  0
 19 39  1  0  0  0  0
 20 22  2  0  0  0  0
 20 40  1  0  0  0  0
 21 48  1  0  0  0  0
 22 41  1  0  0  0  0
 23 30  2  0  0  0  0
 23 56  1  0  0  0  0
 24 29  1  0  0  0  0
 24 66  1  0  0  0  0
 25 76  1  0  0  0  0
 26 77  1  0  0  0  0
 27 31  2  0  0  0  0
 27 76  1  0  0  0  0
 28 78  1  0  0  0  0
 29 79  1  0  0  0  0
 30 80  1  0  0  0  0
 31 81  1  0  0  0  0
 32 60  2  0  0  0  0
 33 61  1  0  0  0  0
 33 64  1  0  0  0  0
 34 65  1  0  0  0  0
 34 71  2  0  0  0  0
 35 49  1  0  0  0  0
 35 67  1  0  0  0  0
 35 72  2  0  0  0  0
 36 57  1  0  0  0  0
 36 62  1  0  0  0  0
 36 73  2  0  0  0  0
 37 58  1  0  0  0  0
 37 68  1  0  0  0  0
 37 74  2  0  0  0  0
 38 63  1  0  0  0  0
 38 66  1  0  0  0  0
 38 75  2  0  0  0  0
 39 42  1  0  0  0  0
 40 49  1  0  0  0  0
 41 62  1  0  0  0  0
 42 44  1  0  0  0  0
 43 45  1  0  0  0  0
 43 46  1  0  0  0  0
 44 48  1  0  0  0  0
 45 50  1  0  0  0  0
 46 63  1  0  0  0  0
 47 50  1  0  0  0  0
 47 63  1  0  0  0  0
 48 67  1  0  0  0  0
 49 62  1  0  0  0  0
 50 61  1  0  0  0  0
 51 58  1  0  0  0  0
 52 59  1  0  0  0  0
 53 59  1  0  0  0  0
 54 59  1  0  0  0  0
 55 70  1  0  0  0  0
 56 69  1  0  0  0  0
 57 59  1  0  0  0  0
 57 68  1  0  0  0  0
 58 70  1  0  0  0  0
 60 61  1  0  0  0  0
 69 77  1  0  0  0  0
M  CHG  1  70   1
M  ISO  4  38 100  66 100  69 101  77 101
M  END
> <Batch ID>
0008

> <Smiles>
CNC(C)C(=O)NC(C(=O)N1Cc2cc([101O:1][101NH:1]Cc3cc(F)c([100NH:0][100C:0](=O)N4CCCC(n5nc(-c6ccc(Oc7ccc(F)cc7F)cc6)c(C(N)=O)c5N)C4)cc3F)ccc2CC1C(=O)NC1CCCc2ccccc21)C(C)(C)C

> <Shape>
0.222

> <Color>
0.211

> <Negative vol penalty>
0.000

$$$$

  -OEChem-04042320353D

 83 92  0     1  0  0  0  0  0999 V2000
  -40.5457  -28.6855   18.2988 C   0  0  0  0  0  0  0  0  0  0  0  0
  -40.1604  -27.7209   19.2243 C   0  0  0  0  0  0  0  0  0  0  0  0
  -23.0934   -9.7810   20.0520 C   0  0  0  0  0  0  0  0  0  0  0  0
  -23.8066   -9.9545   22.3538 C   0  0  0  0  0  0  0  0  0  0  0  0
  -39.6186  -29.6215   17.8424 C   0  0  0  0  0  0  0  0  0  0  0  0
  -38.8480  -27.6924   19.6947 C   0  0  0  0  0  0  0  0  0  0  0  0
  -35.5761  -22.7329   21.1793 C   0  0  0  0  0  0  0  0  0  0  0  0
  -22.3508   -8.6433   20.3678 C   0  0  0  0  0  0  0  0  0  0  0  0
  -23.0639   -8.8168   22.6697 C   0  0  0  0  0  0  0  0  0  0  0  0
  -35.2978  -22.1245   22.4024 C   0  0  0  0  0  0  0  0  0  0  0  0
  -19.8284   -8.0417   23.2627 C   0  0  0  0  0  0  0  0  0  0  0  0
  -19.0481   -8.0792   24.4182 C   0  0  0  0  0  0  0  0  0  0  0  0
  -29.7866  -17.6202   22.8388 C   0  0  0  0  0  0  0  0  0  0  0  0
  -33.2028  -23.3155   22.5113 C   0  0  0  0  0  0  0  0  0  0  0  0
  -31.9987  -16.7476   22.3500 C   0  0  0  0  0  0  0  0  0  0  0  0
  -20.2845   -6.2068   25.3139 C   0  0  0  0  0  0  0  0  0  0  0  0
  -23.8214  -10.4365   21.0450 C   0  0  0  0  0  0  0  0  0  0  0  0
  -24.1523  -12.9492   20.7540 C   0  0  0  0  0  0  0  0  0  0  0  0
  -38.2918  -29.5985   18.3001 C   0  0  0  0  0  0  0  0  0  0  0  0
  -34.6734  -23.6471   20.6173 C   0  0  0  0  0  0  0  0  0  0  0  0
  -37.9027  -28.6298   19.2449 C   0  0  0  0  0  0  0  0  0  0  0  0
  -30.3846  -18.5446   23.6783 C   0  0  0  0  0  0  0  0  0  0  0  0
  -33.4709  -23.9323   21.2797 C   0  0  0  0  0  0  0  0  0  0  0  0
  -31.7723  -18.5949   23.8625 C   0  0  0  0  0  0  0  0  0  0  0  0
  -30.6078  -16.7112   22.1731 C   0  0  0  0  0  0  0  0  0  0  0  0
  -22.3359   -8.1612   21.6766 C   0  0  0  0  0  0  0  0  0  0  0  0
  -34.1123  -22.4179   23.0700 C   0  0  0  0  0  0  0  0  0  0  0  0
  -20.8368   -7.0867   23.1327 C   0  0  0  0  0  0  0  0  0  0  0  0
  -19.2761   -7.1618   25.4438 C   0  0  0  0  0  0  0  0  0  0  0  0
  -32.5877  -17.6939   23.1950 C   0  0  0  0  0  0  0  0  0  0  0  0
  -21.0648   -6.1693   24.1583 C   0  0  0  0  0  0  0  0  0  0  0  0
  -24.5893  -11.6114   20.7193 C   0  0  0  0  0  0  0  0  0  0  0  0
  -25.2476  -13.6786   20.3606 C   0  0  0  0  0  0  0  0  0  0  0  0
  -22.8708  -13.4847   21.1102 C   0  0  0  0  0  0  0  0  0  0  0  0
  -34.7918  -26.7269   19.8397 C   0  0  0  0  0  0  0  0  0  0  0  0
  -31.8594  -26.1236   18.5909 C   0  0  0  0  0  0  0  0  0  0  0  0
  -29.0515  -24.1839   18.5958 C   0  0  0  0  0  0  0  0  0  0  0  0
  -30.7035  -14.7705   20.5697 C   0  0  0  0  0  0  0  0  0  0  0  0
  -37.3375  -30.6603   17.8135 C   0  0  0  0  0  0  0  0  0  0  0  0
  -34.9761  -24.2746   19.2843 C   0  0  0  0  0  0  0  0  0  0  0  0
  -29.7377  -19.6338   24.4717 C   0  0  0  0  0  0  0  0  0  0  0  0
  -32.4593  -24.8912   20.7091 C   0  0  0  0  0  0  0  0  0  0  0  0
  -35.8711  -30.3290   18.0786 C   0  0  0  0  0  0  0  0  0  0  0  0
  -29.6502  -12.1885   18.3559 C   0  0  0  0  0  0  0  0  0  0  0  0
  -35.6853  -29.8374   19.5106 C   0  0  0  0  0  0  0  0  0  0  0  0
  -28.2037  -11.9183   18.7762 C   0  0  0  0  0  0  0  0  0  0  0  0
  -30.9058  -20.0830   25.3729 C   0  0  0  0  0  0  0  0  0  0  0  0
  -30.5395  -12.5075   19.5563 C   0  0  0  0  0  0  0  0  0  0  0  0
  -28.6011  -13.3146   20.8449 C   0  0  0  0  0  0  0  0  0  0  0  0
  -36.4820  -28.5511   19.7601 C   0  0  1  0  0  0  0  0  0  0  0  0
  -34.2217  -25.5804   19.0534 C   0  0  1  0  0  0  0  0  0  0  0  0
  -27.6533  -13.0523   19.6631 C   0  0  2  0  0  0  0  0  0  0  0  0
  -26.8101  -23.9599   17.4897 C   0  0  0  0  0  0  0  0  0  0  0  0
  -30.8105  -28.4605   20.2488 C   0  0  0  0  0  0  0  0  0  0  0  0
  -28.4901  -27.6047   19.8592 C   0  0  0  0  0  0  0  0  0  0  0  0
  -29.8900  -28.3324   17.9270 C   0  0  0  0  0  0  0  0  0  0  0  0
  -29.7118  -21.4995   17.5389 C   0  0  0  0  0  0  0  0  0  0  0  0
  -33.4248  -19.7236   25.3597 C   0  0  0  0  0  0  0  0  0  0  0  0
  -34.3734  -20.5206   24.4800 C   0  0  0  0  0  0  0  0  0  1  0  0
  -30.4442  -26.1703   19.1144 C   0  0  1  0  0  0  0  0  0  0  0  0
  -28.2711  -23.5385   17.4649 C   0  0  2  0  0  0  0  0  0  0  0  0
  -29.9284  -27.6254   19.2993 C   0  0  0  0  0  0  0  0  0  0  0  0
  -25.8628  -11.4949   20.3340 N   0  0  0  0  0  0  0  0  0  0  0  0
  -26.2355  -12.7687   20.1230 N   0  0  0  0  0  0  0  0  0  0  0  0
  -32.1326  -19.6148   24.7318 N   0  0  1  0  0  0  0  0  0  0  0  0
  -32.8038  -25.4839   19.4062 N   0  0  0  0  0  0  0  0  0  0  0  0
  -29.9574  -13.5937   20.3476 N   0  0  0  0  0  0  0  0  0  0  0  0
  -25.4524  -15.0030   20.1981 N   0  0  0  0  0  0  0  0  0  0  0  0
  -21.8571  -12.5948   21.4906 N   0  0  0  0  0  0  0  0  0  0  0  0
  -30.0348  -15.7465   21.3078 N   0  0  0  0  0  0  0  0  0  0  0  0
  -35.7971  -27.4130   19.1855 N   0  0  0  0  0  0  0  0  0  0  0  0
  -29.6436  -25.3643   18.1991 N   0  0  0  0  0  0  0  0  0  0  0  0
  -28.3338  -22.0535   17.5737 N   0  3  0  0  0  0  0  0  0  0  0  0
  -22.6270  -14.7147   21.0759 O   0  0  0  0  0  0  0  0  0  0  0  0
  -34.3511  -26.9718   20.9566 O   0  0  0  0  0  0  0  0  0  0  0  0
  -32.1160  -26.6296   17.4956 O   0  0  0  0  0  0  0  0  0  0  0  0
  -29.1251  -23.6921   19.7197 O   0  0  0  0  0  0  0  0  0  0  0  0
  -31.8409  -14.9134   20.1139 O   0  0  0  0  0  0  0  0  0  0  0  0
  -21.6111   -7.0513   21.9852 O   0  0  0  0  0  0  0  0  0  0  0  0
  -33.8384  -21.8258   24.2643 O   0  0  0  0  0  0  0  0  0  1  0  0
  -18.5277   -7.1989   26.5541 F   0  0  0  0  0  0  0  0  0  0  0  0
  -33.9183  -17.7119   23.3425 F   0  0  0  0  0  0  0  0  0  0  0  0
  -22.0329   -5.2503   24.0397 F   0  0  0  0  0  0  0  0  0  0  0  0
  1  2  1  0  0  0  0
  1  5  2  0  0  0  0
  2  6  2  0  0  0  0
  3  8  2  0  0  0  0
  3 17  1  0  0  0  0
  4  9  1  0  0  0  0
  4 17  2  0  0  0  0
  5 19  1  0  0  0  0
  6 21  1  0  0  0  0
  7 10  2  0  0  0  0
  7 20  1  0  0  0  0
  8 26  1  0  0  0  0
  9 26  2  0  0  0  0
 10 27  1  0  0  0  0
 11 12  2  0  0  0  0
 11 28  1  0  0  0  0
 12 29  1  0  0  0  0
 13 22  1  0  0  0  0
 13 25  2  0  0  0  0
 14 23  1  0  0  0  0
 14 27  2  0  0  0  0
 15 25  1  0  0  0  0
 15 30  2  0  0  0  0
 16 29  2  0  0  0  0
 16 31  1  0  0  0  0
 17 32  1  0  0  0  0
 18 32  1  0  0  0  0
 18 33  2  0  0  0  0
 18 34  1  0  0  0  0
 19 21  2  0  0  0  0
 19 39  1  0  0  0  0
 20 23  2  0  0  0  0
 20 40  1  0  0  0  0
 21 50  1  0  0  0  0
 22 24  2  0  0  0  0
 22 41  1  0  0  0  0
 23 42  1  0  0  0  0
 24 30  1  0  0  0  0
 24 65  1  0  0  0  0
 25 70  1  0  0  0  0
 26 79  1  0  0  0  0
 27 80  1  0  0  0  0
 28 31  2  0  0  0  0
 28 79  1  0  0  0  0
 29 81  1  0  0  0  0
 30 82  1  0  0  0  0
 31 83  1  0  0  0  0
 32 63  2  0  0  0  0
 33 64  1  0  0  0  0
 33 68  1  0  0  0  0
 34 69  1  0  0  0  0
 34 74  2  0  0  0  0
 35 51  1  0  0  0  0
 35 71  1  0  0  0  0
 35 75  2  0  0  0  0
 36 60  1  0  0  0  0
 36 66  1  0  0  0  0
 36 76  2  0  0  0  0
 37 61  1  0  0  0  0
 37 72  1  0  0  0  0
 37 77  2  0  0  0  0
 38 67  1  0  0  0  0
 38 70  1  0  0  0  0
 38 78  2  0  0  0  0
 39 43  1  0  0  0  0
 40 51  1  0  0  0  0
 41 47  1  0  0  0  0
 42 66  1  0  0  0  0
 43 45  1  0  0  0  0
 44 46  1  0  0  0  0
 44 48  1  0  0  0  0
 45 50  1  0  0  0  0
 46 52  1  0  0  0  0
 47 65  1  0  0  0  0
 48 67  1  0  0  0  0
 49 52  1  0  0  0  0
 49 67  1  0  0  0  0
 50 71  1  0  0  0  0
 51 66  1  0  0  0  0
 52 64  1  0  0  0  0
 53 61  1  0  0  0  0
 54 62  1  0  0  0  0
 55 62  1  0  0  0  0
 56 62  1  0  0  0  0
 57 73  1  0  0  0  0
 58 59  1  0  0  0  0
 58 65  1  0  0  0  0
 59 80  1  0  0  0  0
 60 62  1  0  0  0  0
 60 72  1  0  0  0  0
 61 73  1  0  0  0  0
 63 64  1  0  0  0  0
M  CHG  1  73   1
M  ISO  4  38 100  59 101  70 100  80 101
M  END
> <Batch ID>
0008

> <Smiles>
CNC(C)C(=O)NC(C(=O)N1Cc2cc([101O:1][101CH2:1]CN3CCc4cc([100NH:0][100C:0](=O)N5CCCC(n6nc(-c7ccc(Oc8ccc(F)cc8F)cc7)c(C(N)=O)c6N)C5)cc(F)c43)ccc2CC1C(=O)NC1CCCc2ccccc21)C(C)(C)C

> <Shape>
0.223

> <Color>
0.198

> <Negative vol penalty>
0.000

$$$$

  -OEChem-04042320353D

 80 88  0     1  0  0  0  0  0999 V2000
  -28.8221  -32.3676   24.3238 C   0  0  0  0  0  0  0  0  0  0  0  0
  -29.9570  -31.5720   24.4437 C   0  0  0  0  0  0  0  0  0  0  0  0
  -23.0350   -9.9802   19.9376 C   0  0  0  0  0  0  0  0  0  0  0  0
  -23.8151   -9.9291   22.2236 C   0  0  0  0  0  0  0  0  0  0  0  0
  -27.5625  -31.7754   24.2423 C   0  0  0  0  0  0  0  0  0  0  0  0
  -29.8329  -30.1837   24.4832 C   0  0  0  0  0  0  0  0  0  0  0  0
  -33.2707  -24.2132   22.5207 C   0  0  0  0  0  0  0  0  0  0  0  0
  -32.8765  -17.2480   23.4596 C   0  0  0  0  0  0  0  0  0  0  0  0
  -32.2374  -16.4032   22.5522 C   0  0  0  0  0  0  0  0  0  0  0  0
  -22.2603   -8.8452   20.1765 C   0  0  0  0  0  0  0  0  0  0  0  0
  -23.0403   -8.7941   22.4626 C   0  0  0  0  0  0  0  0  0  0  0  0
  -33.7181  -23.0041   23.0514 C   0  0  0  0  0  0  0  0  0  0  0  0
  -19.3032   -8.1111   21.6427 C   0  0  0  0  0  0  0  0  0  0  0  0
  -17.9913   -8.1102   21.1690 C   0  0  0  0  0  0  0  0  0  0  0  0
  -31.4978  -22.0891   22.8227 C   0  0  0  0  0  0  0  0  0  0  0  0
  -30.7393  -18.1713   24.1054 C   0  0  0  0  0  0  0  0  0  0  0  0
  -18.4827   -6.1729   19.8116 C   0  0  0  0  0  0  0  0  0  0  0  0
  -23.8124  -10.5222   20.9611 C   0  0  0  0  0  0  0  0  0  0  0  0
  -24.2261  -13.0380   20.8771 C   0  0  0  0  0  0  0  0  0  0  0  0
  -27.4237  -30.3788   24.2710 C   0  0  0  0  0  0  0  0  0  0  0  0
  -31.9287  -24.3731   22.1465 C   0  0  0  0  0  0  0  0  0  0  0  0
  -28.5702  -29.5723   24.4033 C   0  0  0  0  0  0  0  0  0  0  0  0
  -31.0365  -23.3004   22.2851 C   0  0  0  0  0  0  0  0  0  0  0  0
  -32.1275  -18.1321   24.2362 C   0  0  0  0  0  0  0  0  0  0  0  0
  -30.1002  -17.3266   23.1979 C   0  0  0  0  0  0  0  0  0  0  0  0
  -30.8493  -16.4425   22.4213 C   0  0  0  0  0  0  0  0  0  0  0  0
  -22.2629   -8.2521   21.4391 C   0  0  0  0  0  0  0  0  0  0  0  0
  -32.8310  -21.9428   23.2052 C   0  0  0  0  0  0  0  0  0  0  0  0
  -20.2050   -7.1429   21.2008 C   0  0  0  0  0  0  0  0  0  0  0  0
  -17.5810   -7.1411   20.2535 C   0  0  0  0  0  0  0  0  0  0  0  0
  -19.7947   -6.1738   20.2853 C   0  0  0  0  0  0  0  0  0  0  0  0
  -24.6133  -11.6943   20.7147 C   0  0  0  0  0  0  0  0  0  0  0  0
  -25.3363  -13.7613   20.5153 C   0  0  0  0  0  0  0  0  0  0  0  0
  -22.9749  -13.5835   21.3158 C   0  0  0  0  0  0  0  0  0  0  0  0
  -29.5507  -26.2656   23.0776 C   0  0  0  0  0  0  0  0  0  0  0  0
  -27.9949  -24.8826   20.5898 C   0  0  0  0  0  0  0  0  0  0  0  0
  -27.7012  -22.2189   18.4767 C   0  0  0  0  0  0  0  0  0  0  0  0
  -30.8318  -14.6461   20.6552 C   0  0  0  0  0  0  0  0  0  0  0  0
  -26.0375  -29.7861   24.2274 C   0  0  0  0  0  0  0  0  0  0  0  0
  -31.4679  -25.6751   21.5508 C   0  0  0  0  0  0  0  0  0  0  0  0
  -29.5904  -23.4143   21.8798 C   0  0  0  0  0  0  0  0  0  0  0  0
  -26.0226  -28.2953   23.8993 C   0  0  0  0  0  0  0  0  0  0  0  0
  -29.6270  -12.3031   18.2603 C   0  0  0  0  0  0  0  0  0  0  0  0
  -27.0643  -27.5549   24.7322 C   0  0  0  0  0  0  0  0  0  0  0  0
  -28.1834  -12.0463   18.6987 C   0  0  0  0  0  0  0  0  0  0  0  0
  -30.5590  -12.4864   19.4568 C   0  0  0  0  0  0  0  0  0  0  0  0
  -28.6861  -13.2437   20.8668 C   0  0  0  0  0  0  0  0  0  0  0  0
  -28.4784  -28.0619   24.4246 C   0  0  1  0  0  0  0  0  0  0  0  0
  -29.9637  -25.8930   21.6819 C   0  0  1  0  0  0  0  0  0  0  0  0
  -27.6983  -13.1171   19.6956 C   0  0  2  0  0  0  0  0  0  0  0  0
  -28.6121  -17.3922   23.0765 C   0  0  0  0  0  0  0  0  0  0  0  0
  -26.3113  -21.3589   16.5725 C   0  0  0  0  0  0  0  0  0  0  0  0
  -25.7621  -24.1715   22.5440 C   0  0  0  0  0  0  0  0  0  0  0  0
  -24.8976  -22.5392   20.8539 C   0  0  0  0  0  0  0  0  0  0  0  0
  -24.9765  -24.9721   20.3087 C   0  0  0  0  0  0  0  0  0  0  0  0
  -30.0318  -22.1513   16.6538 C   0  0  0  0  0  0  0  0  0  0  0  0
  -32.8177  -19.0456   25.2140 C   0  0  0  0  0  0  0  0  0  0  0  0
  -27.1323  -23.6558   20.4173 C   0  0  1  0  0  0  0  0  0  0  0  0
  -27.5538  -22.1416   16.9678 C   0  0  2  0  0  0  0  0  0  0  0  0
  -25.7189  -23.8328   21.0405 C   0  0  0  0  0  0  0  0  0  0  0  0
  -25.8711  -11.5687   20.2832 N   0  0  0  0  0  0  0  0  0  0  0  0
  -26.2839  -12.8427   20.1713 N   0  0  0  0  0  0  0  0  0  0  0  0
  -29.1865  -24.7095   21.3082 N   0  0  0  0  0  0  0  0  0  0  0  0
  -30.0379  -13.5190   20.3552 N   0  0  0  0  0  0  0  0  0  0  0  0
  -25.5845  -15.0872   20.4610 N   0  0  0  0  0  0  0  0  0  0  0  0
  -21.9401  -12.6987   21.6483 N   0  0  0  0  0  0  0  0  0  0  0  0
  -30.2188  -15.5764   21.4939 N   0  0  0  0  0  0  0  0  0  0  0  0
  -28.9533  -27.5079   23.1749 N   0  0  0  0  0  0  0  0  0  0  0  0
  -27.1227  -23.3611   18.9885 N   0  0  0  0  0  0  0  0  0  0  0  0
  -32.5259  -20.4465   24.9457 N   0  0  0  0  0  0  0  0  0  1  0  0
  -28.7417  -21.4735   16.3649 N   0  3  0  0  0  0  0  0  0  0  0  0
  -22.7749  -14.8194   21.3944 O   0  0  0  0  0  0  0  0  0  0  0  0
  -29.7572  -25.4834   23.9980 O   0  0  0  0  0  0  0  0  0  0  0  0
  -27.6286  -25.9533   20.0990 O   0  0  0  0  0  0  0  0  0  0  0  0
  -28.2692  -21.3509   19.1358 O   0  0  0  0  0  0  0  0  0  0  0  0
  -31.9611  -14.7896   20.1798 O   0  0  0  0  0  0  0  0  0  0  0  0
  -21.5069   -7.1447   21.6727 O   0  0  0  0  0  0  0  0  0  0  0  0
  -33.2649  -20.7617   23.7236 O   0  0  0  0  0  0  0  0  0  1  0  0
  -16.3207   -7.1394   19.7999 F   0  0  0  0  0  0  0  0  0  0  0  0
  -20.6561   -5.2404   19.8581 F   0  0  0  0  0  0  0  0  0  0  0  0
  1  2  1  0  0  0  0
  1  5  2  0  0  0  0
  2  6  2  0  0  0  0
  3 10  2  0  0  0  0
  3 18  1  0  0  0  0
  4 11  1  0  0  0  0
  4 18  2  0  0  0  0
  5 20  1  0  0  0  0
  6 22  1  0  0  0  0
  7 12  2  0  0  0  0
  7 21  1  0  0  0  0
  8  9  2  0  0  0  0
  8 24  1  0  0  0  0
  9 26  1  0  0  0  0
 10 27  1  0  0  0  0
 11 27  2  0  0  0  0
 12 28  1  0  0  0  0
 13 14  2  0  0  0  0
 13 29  1  0  0  0  0
 14 30  1  0  0  0  0
 15 23  1  0  0  0  0
 15 28  2  0  0  0  0
 16 24  2  0  0  0  0
 16 25  1  0  0  0  0
 17 30  2  0  0  0  0
 17 31  1  0  0  0  0
 18 32  1  0  0  0  0
 19 32  1  0  0  0  0
 19 33  2  0  0  0  0
 19 34  1  0  0  0  0
 20 22  2  0  0  0  0
 20 39  1  0  0  0  0
 21 23  2  0  0  0  0
 21 40  1  0  0  0  0
 22 48  1  0  0  0  0
 23 41  1  0  0  0  0
 24 57  1  0  0  0  0
 25 26  2  0  0  0  0
 25 51  1  0  0  0  0
 26 67  1  0  0  0  0
 27 77  1  0  0  0  0
 28 78  1  0  0  0  0
 29 31  2  0  0  0  0
 29 77  1  0  0  0  0
 30 79  1  0  0  0  0
 31 80  1  0  0  0  0
 32 61  2  0  0  0  0
 33 62  1  0  0  0  0
 33 65  1  0  0  0  0
 34 66  1  0  0  0  0
 34 72  2  0  0  0  0
 35 49  1  0  0  0  0
 35 68  1  0  0  0  0
 35 73  2  0  0  0  0
 36 58  1  0  0  0  0
 36 63  1  0  0  0  0
 36 74  2  0  0  0  0
 37 59  1  0  0  0  0
 37 69  1  0  0  0  0
 37 75  2  0  0  0  0
 38 64  1  0  0  0  0
 38 67  1  0  0  0  0
 38 76  2  0  0  0  0
 39 42  1  0  0  0  0
 40 49  1  0  0  0  0
 41 63  1  0  0  0  0
 42 44  1  0  0  0  0
 43 45  1  0  0  0  0
 43 46  1  0  0  0  0
 44 48  1  0  0  0  0
 45 50  1  0  0  0  0
 46 64  1  0  0  0  0
 47 50  1  0  0  0  0
 47 64  1  0  0  0  0
 48 68  1  0  0  0  0
 49 63  1  0  0  0  0
 50 62  1  0  0  0  0
 52 59  1  0  0  0  0
 53 60  1  0  0  0  0
 54 60  1  0  0  0  0
 55 60  1  0  0  0  0
 56 71  1  0  0  0  0
 57 70  1  0  0  0  0
 58 60  1  0  0  0  0
 58 69  1  0  0  0  0
 59 71  1  0  0  0  0
 61 62  1  0  0  0  0
 70 78  1  0  0  0  0
M  CHG  1  71   1
M  ISO  4  38 100  67 100  70 101  78 101
M  END
> <Batch ID>
0008

> <Smiles>
CNC(C)C(=O)NC(C(=O)N1Cc2cc([101O:1][101NH:1]Cc3ccc([100NH:0][100C:0](=O)N4CCCC(n5nc(-c6ccc(Oc7ccc(F)cc7F)cc6)c(C(N)=O)c5N)C4)c(C)c3)ccc2CC1C(=O)NC1CCCc2ccccc21)C(C)(C)C

> <Shape>
0.215

> <Color>
0.212

> <Negative vol penalty>
0.000

$$$$

  -OEChem-04042320353D

 81 89  0     1  0  0  0  0  0999 V2000
  -30.4994  -25.6524   17.4069 C   0  0  0  0  0  0  0  0  0  0  0  0
  -29.1093  -25.7074   17.4028 C   0  0  0  0  0  0  0  0  0  0  0  0
  -26.2288  -21.3382   21.6091 C   0  0  0  0  0  0  0  0  0  0  0  0
  -23.9692  -20.4923   21.4824 C   0  0  0  0  0  0  0  0  0  0  0  0
  -31.2082  -26.0481   18.5404 C   0  0  0  0  0  0  0  0  0  0  0  0
  -28.4272  -26.1572   18.5327 C   0  0  0  0  0  0  0  0  0  0  0  0
  -23.2175  -29.3745   18.6500 C   0  0  0  0  0  0  0  0  0  0  0  0
  -17.8121  -30.5940   22.8962 C   0  0  0  0  0  0  0  0  0  0  0  0
  -26.7213  -20.0365   21.5161 C   0  0  0  0  0  0  0  0  0  0  0  0
  -24.4618  -19.1906   21.3893 C   0  0  0  0  0  0  0  0  0  0  0  0
  -21.8884  -29.0008   18.8442 C   0  0  0  0  0  0  0  0  0  0  0  0
  -27.2392  -17.7365   19.0924 C   0  0  0  0  0  0  0  0  0  0  0  0
  -17.8369  -30.5441   24.2899 C   0  0  0  0  0  0  0  0  0  0  0  0
  -28.3059  -17.5076   18.2232 C   0  0  0  0  0  0  0  0  0  0  0  0
  -22.0773  -29.5662   21.1817 C   0  0  0  0  0  0  0  0  0  0  0  0
  -17.9796  -28.1855   22.8068 C   0  0  0  0  0  0  0  0  0  0  0  0
  -29.6505  -16.7363   20.0764 C   0  0  0  0  0  0  0  0  0  0  0  0
  -24.8527  -21.5661   21.5923 C   0  0  0  0  0  0  0  0  0  0  0  0
  -24.0715  -23.7949   20.6279 C   0  0  0  0  0  0  0  0  0  0  0  0
  -30.5348  -26.5121   19.6814 C   0  0  0  0  0  0  0  0  0  0  0  0
  -23.9909  -29.8374   19.7242 C   0  0  0  0  0  0  0  0  0  0  0  0
  -29.1276  -26.5582   19.6831 C   0  0  0  0  0  0  0  0  0  0  0  0
  -23.4151  -29.9476   20.9980 C   0  0  0  0  0  0  0  0  0  0  0  0
  -17.8835  -29.4147   22.1546 C   0  0  0  0  0  0  0  0  0  0  0  0
  -18.0044  -28.1355   24.2006 C   0  0  0  0  0  0  0  0  0  0  0  0
  -25.8378  -18.9627   21.4061 C   0  0  0  0  0  0  0  0  0  0  0  0
  -21.3189  -29.0939   20.1108 C   0  0  0  0  0  0  0  0  0  0  0  0
  -27.3782  -17.4654   20.4536 C   0  0  0  0  0  0  0  0  0  0  0  0
  -29.5115  -17.0074   18.7151 C   0  0  0  0  0  0  0  0  0  0  0  0
  -17.9331  -29.3148   24.9421 C   0  0  0  0  0  0  0  0  0  0  0  0
  -28.5838  -16.9653   20.9456 C   0  0  0  0  0  0  0  0  0  0  0  0
  -24.3433  -22.9104   21.6889 C   0  0  0  0  0  0  0  0  0  0  0  0
  -23.6097  -24.9342   21.2404 C   0  0  0  0  0  0  0  0  0  0  0  0
  -24.2229  -23.6035   19.2151 C   0  0  0  0  0  0  0  0  0  0  0  0
  -26.6347  -28.8387   21.1791 C   0  0  0  0  0  0  0  0  0  0  0  0
  -26.3409  -31.6402   22.7877 C   0  0  0  0  0  0  0  0  0  0  0  0
  -24.3100  -34.1600   23.8708 C   0  0  0  0  0  0  0  0  0  0  0  0
  -20.4169  -26.5894   25.7770 C   0  0  0  0  0  0  0  0  0  0  0  0
  -31.3422  -26.8843   20.8997 C   0  0  0  0  0  0  0  0  0  0  0  0
  -25.4152  -30.2618   19.4928 C   0  0  0  0  0  0  0  0  0  0  0  0
  -24.1967  -30.4575   22.1802 C   0  0  0  0  0  0  0  0  0  0  0  0
  -30.5588  -27.7028   21.9228 C   0  0  0  0  0  0  0  0  0  0  0  0
  -23.9689  -26.8341   25.7905 C   0  0  0  0  0  0  0  0  0  0  0  0
  -29.1875  -27.0809   22.1668 C   0  0  0  0  0  0  0  0  0  0  0  0
  -24.4023  -25.9295   24.6356 C   0  0  0  0  0  0  0  0  0  0  0  0
  -22.7562  -26.2683   26.5261 C   0  0  0  0  0  0  0  0  0  0  0  0
  -22.0345  -25.0483   24.5100 C   0  0  0  0  0  0  0  0  0  0  0  0
  -28.3527  -27.0638   20.8806 C   0  0  1  0  0  0  0  0  0  0  0  0
  -26.2610  -30.2330   20.7621 C   0  0  1  0  0  0  0  0  0  0  0  0
  -23.2197  -25.6053   23.7030 C   0  0  2  0  0  0  0  0  0  0  0  0
  -24.3502  -36.2911   25.1952 C   0  0  0  0  0  0  0  0  0  0  0  0
  -26.4966  -30.0275   25.3733 C   0  0  0  0  0  0  0  0  0  0  0  0
  -25.5944  -32.0214   26.5893 C   0  0  0  0  0  0  0  0  0  0  0  0
  -27.7832  -32.1719   25.4022 C   0  0  0  0  0  0  0  0  0  0  0  0
  -23.4038  -35.7561   21.5491 C   0  0  0  0  0  0  0  0  0  0  0  0
  -17.8564  -29.4688   20.6502 C   0  0  0  0  0  0  0  0  0  0  0  0
  -18.1085  -26.8199   24.8954 C   0  0  0  0  0  0  0  0  0  0  0  0
  -25.6462  -32.0778   24.0545 C   0  0  1  0  0  0  0  0  0  0  0  0
  -24.4587  -35.6695   23.8115 C   0  0  2  0  0  0  0  0  0  0  0  0
  -26.3657  -31.5632   25.3332 C   0  0  0  0  0  0  0  0  0  0  0  0
  -24.0766  -23.4423   22.8847 N   0  0  0  0  0  0  0  0  0  0  0  0
  -23.6325  -24.6733   22.5789 N   0  0  0  0  0  0  0  0  0  0  0  0
  -25.5875  -30.8542   21.9044 N   0  0  0  0  0  0  0  0  0  0  0  0
  -21.6699  -25.9840   25.5853 N   0  0  0  0  0  0  0  0  0  0  0  0
  -23.1906  -26.1238   20.7592 N   0  0  0  0  0  0  0  0  0  0  0  0
  -24.7103  -22.3723   18.7560 N   0  0  0  0  0  0  0  0  0  0  0  0
  -27.8085  -28.3780   20.6138 N   0  0  0  0  0  0  0  0  0  0  0  0
  -25.5320  -33.5302   23.9767 N   0  0  0  0  0  0  0  0  0  0  0  0
  -19.4450  -26.2712   24.8363 N   0  0  0  0  0  0  0  0  0  0  0  0
  -19.1404  -29.8781   20.0993 N   0  0  0  0  0  0  0  0  0  1  0  0
  -23.3991  -36.2608   22.9463 N   0  3  0  0  0  0  0  0  0  0  0  0
  -23.9499  -24.5037   18.3852 O   0  0  0  0  0  0  0  0  0  0  0  0
  -25.9125  -28.2268   21.9573 O   0  0  0  0  0  0  0  0  0  0  0  0
  -27.5068  -31.9890   22.5860 O   0  0  0  0  0  0  0  0  0  0  0  0
  -23.2187  -33.5961   23.8311 O   0  0  0  0  0  0  0  0  0  0  0  0
  -20.1834  -27.3607   26.7137 O   0  0  0  0  0  0  0  0  0  0  0  0
  -26.3181  -17.6925   21.3151 O   0  0  0  0  0  0  0  0  0  0  0  0
  -20.0221  -28.7291   20.3032 O   0  0  0  0  0  0  0  0  0  1  0  0
  -30.5351  -16.7862   17.8801 F   0  0  0  0  0  0  0  0  0  0  0  0
  -17.9577  -29.2770   26.2817 F   0  0  0  0  0  0  0  0  0  0  0  0
  -28.7229  -16.7018   22.2521 F   0  0  0  0  0  0  0  0  0  0  0  0
  1  2  1  0  0  0  0
  1  5  2  0  0  0  0
  2  6  2  0  0  0  0
  3  9  2  0  0  0  0
  3 18  1  0  0  0  0
  4 10  1  0  0  0  0
  4 18  2  0  0  0  0
  5 20  1  0  0  0  0
  6 22  1  0  0  0  0
  7 11  2  0  0  0  0
  7 21  1  0  0  0  0
  8 13  2  0  0  0  0
  8 24  1  0  0  0  0
  9 26  1  0  0  0  0
 10 26  2  0  0  0  0
 11 27  1  0  0  0  0
 12 14  2  0  0  0  0
 12 28  1  0  0  0  0
 13 30  1  0  0  0  0
 14 29  1  0  0  0  0
 15 23  1  0  0  0  0
 15 27  2  0  0  0  0
 16 24  2  0  0  0  0
 16 25  1  0  0  0  0
 17 29  2  0  0  0  0
 17 31  1  0  0  0  0
 18 32  1  0  0  0  0
 19 32  1  0  0  0  0
 19 33  2  0  0  0  0
 19 34  1  0  0  0  0
 20 22  2  0  0  0  0
 20 39  1  0  0  0  0
 21 23  2  0  0  0  0
 21 40  1  0  0  0  0
 22 48  1  0  0  0  0
 23 41  1  0  0  0  0
 24 56  1  0  0  0  0
 25 30  2  0  0  0  0
 25 57  1  0  0  0  0
 26 77  1  0  0  0  0
 27 78  1  0  0  0  0
 28 31  2  0  0  0  0
 28 77  1  0  0  0  0
 29 79  1  0  0  0  0
 30 80  1  0  0  0  0
 31 81  1  0  0  0  0
 32 61  2  0  0  0  0
 33 62  1  0  0  0  0
 33 65  1  0  0  0  0
 34 66  1  0  0  0  0
 34 72  2  0  0  0  0
 35 49  1  0  0  0  0
 35 67  1  0  0  0  0
 35 73  2  0  0  0  0
 36 58  1  0  0  0  0
 36 63  1  0  0  0  0
 36 74  2  0  0  0  0
 37 59  1  0  0  0  0
 37 68  1  0  0  0  0
 37 75  2  0  0  0  0
 38 64  1  0  0  0  0
 38 69  1  0  0  0  0
 38 76  2  0  0  0  0
 39 42  1  0  0  0  0
 40 49  1  0  0  0  0
 41 63  1  0  0  0  0
 42 44  1  0  0  0  0
 43 45  1  0  0  0  0
 43 46  1  0  0  0  0
 44 48  1  0  0  0  0
 45 50  1  0  0  0  0
 46 64  1  0  0  0  0
 47 50  1  0  0  0  0
 47 64  1  0  0  0  0
 48 67  1  0  0  0  0
 49 63  1  0  0  0  0
 50 62  1  0  0  0  0
 51 59  1  0  0  0  0
 52 60  1  0  0  0  0
 53 60  1  0  0  0  0
 54 60  1  0  0  0  0
 55 71  1  0  0  0  0
 56 70  1  0  0  0  0
 57 69  1  0  0  0  0
 58 60  1  0  0  0  0
 58 68  1  0  0  0  0
 59 71  1  0  0  0  0
 61 62  1  0  0  0  0
 70 78  1  0  0  0  0
M  CHG  1  71   1
M  ISO  4  38 100  69 100  70 101  78 101
M  END
> <Batch ID>
0008

> <Smiles>
CNC(C)C(=O)NC(C(=O)N1Cc2cc([101O:1][101NH:1]Cc3ccc(F)c(C[100NH:0][100C:0](=O)N4CCCC(n5nc(-c6ccc(Oc7ccc(F)cc7F)cc6)c(C(N)=O)c5N)C4)c3)ccc2CC1C(=O)NC1CCCc2ccccc21)C(C)(C)C

> <Shape>
0.240

> <Color>
0.077

> <Negative vol penalty>
0.000

$$$$

  -OEChem-04042320353D

 80 89  0     1  0  0  0  0  0999 V2000
  -29.3926  -32.8174   23.1911 C   0  0  0  0  0  0  0  0  0  0  0  0
  -29.2126  -31.4477   23.3557 C   0  0  0  0  0  0  0  0  0  0  0  0
  -25.9834  -13.8299   21.5197 C   0  0  0  0  0  0  0  0  0  0  0  0
  -26.3012  -12.4064   19.5936 C   0  0  0  0  0  0  0  0  0  0  0  0
  -28.2854  -33.6627   23.1325 C   0  0  0  0  0  0  0  0  0  0  0  0
  -27.9252  -30.9227   23.4630 C   0  0  0  0  0  0  0  0  0  0  0  0
  -27.2848  -26.7589   20.6528 C   0  0  0  0  0  0  0  0  0  0  0  0
  -24.7769  -13.1868   21.7960 C   0  0  0  0  0  0  0  0  0  0  0  0
  -25.0947  -11.7632   19.8699 C   0  0  0  0  0  0  0  0  0  0  0  0
  -27.8051  -25.5664   21.1538 C   0  0  0  0  0  0  0  0  0  0  0  0
  -22.2748   -9.5045   20.2755 C   0  0  0  0  0  0  0  0  0  0  0  0
  -22.2506   -8.1116   20.2049 C   0  0  0  0  0  0  0  0  0  0  0  0
  -25.6068  -24.9374   21.9227 C   0  0  0  0  0  0  0  0  0  0  0  0
  -23.9426   -7.9949   21.9255 C   0  0  0  0  0  0  0  0  0  0  0  0
  -26.7456  -13.4398   20.4185 C   0  0  0  0  0  0  0  0  0  0  0  0
  -29.2706  -13.7519   20.6033 C   0  0  0  0  0  0  0  0  0  0  0  0
  -26.9834  -33.1467   23.2294 C   0  0  0  0  0  0  0  0  0  0  0  0
  -25.9213  -27.0550   20.7929 C   0  0  0  0  0  0  0  0  0  0  0  0
  -26.7996  -31.7621   23.4070 C   0  0  0  0  0  0  0  0  0  0  0  0
  -25.0713  -26.1332   21.4204 C   0  0  0  0  0  0  0  0  0  0  0  0
  -24.3326  -12.1534   20.9711 C   0  0  0  0  0  0  0  0  0  0  0  0
  -26.9666  -24.6567   21.7914 C   0  0  0  0  0  0  0  0  0  0  0  0
  -23.1331  -10.1426   21.1711 C   0  0  0  0  0  0  0  0  0  0  0  0
  -23.0844   -7.3568   21.0299 C   0  0  0  0  0  0  0  0  0  0  0  0
  -23.9670   -9.3878   21.9961 C   0  0  0  0  0  0  0  0  0  0  0  0
  -27.9917  -14.1041   20.1322 C   0  0  0  0  0  0  0  0  0  0  0  0
  -30.1102  -14.6873   20.0495 C   0  0  0  0  0  0  0  0  0  0  0  0
  -29.6646  -12.6754   21.4645 C   0  0  0  0  0  0  0  0  0  0  0  0
  -24.2604  -29.3396   22.2509 C   0  0  0  0  0  0  0  0  0  0  0  0
  -21.7474  -27.9128   20.7773 C   0  0  0  0  0  0  0  0  0  0  0  0
  -20.4342  -25.0967   19.3659 C   0  0  0  0  0  0  0  0  0  0  0  0
  -28.5450  -19.7705   20.4783 C   0  0  0  0  0  0  0  0  0  0  0  0
  -25.8192  -34.1053   23.2081 C   0  0  0  0  0  0  0  0  0  0  0  0
  -25.3708  -28.3337   20.2233 C   0  0  0  0  0  0  0  0  0  0  0  0
  -23.5964  -26.3946   21.5784 C   0  0  0  0  0  0  0  0  0  0  0  0
  -24.4758  -33.4263   22.9538 C   0  0  0  0  0  0  0  0  0  0  0  0
  -27.6786  -17.7953   17.4273 C   0  0  0  0  0  0  0  0  0  0  0  0
  -24.3316  -32.1842   23.8274 C   0  0  0  0  0  0  0  0  0  0  0  0
  -28.9609  -17.0014   17.1923 C   0  0  0  0  0  0  0  0  0  0  0  0
  -27.6487  -18.9874   24.1898 C   0  0  0  0  0  0  0  0  0  0  0  0
  -28.1404  -17.2325   22.3678 C   0  0  0  0  0  0  0  0  0  0  0  0
  -27.9511  -19.0670   18.2110 C   0  0  0  0  0  0  0  0  0  0  0  0
  -29.8899  -18.0056   19.3301 C   0  0  0  0  0  0  0  0  0  0  0  0
  -28.3753  -20.2541   24.6199 C   0  0  0  0  0  0  0  0  0  0  0  0
  -29.7171  -20.6135   22.4866 C   0  0  0  0  0  0  0  0  0  0  0  0
  -25.4180  -31.1520   23.5023 C   0  0  1  0  0  0  0  0  0  0  0  0
  -24.0614  -28.7641   20.8772 C   0  0  1  0  0  0  0  0  0  0  0  0
  -28.5700  -17.9639   23.6021 C   0  0  1  0  0  0  0  0  0  0  0  0
  -29.7481  -16.7187   18.4875 C   0  0  1  0  0  0  0  0  0  0  0  0
  -29.2940  -18.2008   22.2922 C   0  0  2  0  0  0  0  0  0  0  0  0
  -18.3443  -24.2269   18.2828 C   0  0  0  0  0  0  0  0  0  0  0  0
  -20.4100  -27.7259   23.5135 C   0  0  0  0  0  0  0  0  0  0  0  0
  -18.8231  -26.0485   22.5459 C   0  0  0  0  0  0  0  0  0  0  0  0
  -18.8784  -28.3743   21.6458 C   0  0  0  0  0  0  0  0  0  0  0  0
  -21.8495  -24.5179   16.8320 C   0  0  0  0  0  0  0  0  0  0  0  0
  -29.0045  -22.5456   23.8801 C   0  0  0  0  0  0  0  0  0  0  0  0
  -28.8289  -23.5051   22.7197 C   0  0  0  0  0  0  0  0  0  1  0  0
  -20.7900  -26.8011   21.1331 C   0  0  1  0  0  0  0  0  0  0  0  0
  -19.7012  -24.8747   18.0552 C   0  0  2  0  0  0  0  0  0  0  0  0
  -19.7535  -27.2331   22.2085 C   0  0  0  0  0  0  0  0  0  0  0  0
  -28.0120  -15.1794   19.3402 N   0  0  0  0  0  0  0  0  0  0  0  0
  -29.3140  -15.5110   19.3094 N   0  0  0  0  0  0  0  0  0  0  0  0
  -23.1070  -27.6616   21.0104 N   0  0  0  0  0  0  0  0  0  0  0  0
  -28.6598  -18.8006   19.4592 N   0  0  0  0  0  0  0  0  0  0  0  0
  -29.2250  -19.5040   21.6760 N   0  0  0  0  0  0  0  0  0  0  0  0
  -31.4444  -14.8773   20.1283 N   0  0  0  0  0  0  0  0  0  0  0  0
  -28.6746  -11.8069   21.9440 N   0  0  0  0  0  0  0  0  0  0  0  0
  -25.0925  -30.4423   22.2837 N   0  0  0  0  0  0  0  0  0  0  0  0
  -20.1972  -26.3553   19.8768 N   0  0  0  0  0  0  0  0  0  0  0  0
  -28.6599  -21.1482   23.4273 N   0  3  2  0  0  0  0  0  0  0  0  0
  -20.4992  -23.9915   17.1586 N   0  3  0  0  0  0  0  0  0  0  0  0
  -30.8569  -12.4990   21.8121 O   0  0  0  0  0  0  0  0  0  0  0  0
  -23.6992  -28.8225   23.2097 O   0  0  0  0  0  0  0  0  0  0  0  0
  -21.3059  -28.9625   20.3033 O   0  0  0  0  0  0  0  0  0  0  0  0
  -21.1429  -24.2381   19.8865 O   0  0  0  0  0  0  0  0  0  0  0  0
  -27.8766  -20.8007   20.3276 O   0  0  0  0  0  0  0  0  0  0  0  0
  -23.1555  -11.5254   21.2406 O   0  0  0  0  0  0  0  0  0  0  0  0
  -27.4756  -23.4839   22.2855 O   0  0  0  0  0  0  0  0  0  1  0  0
  -23.0599   -6.0193   20.9630 F   0  0  0  0  0  0  0  0  0  0  0  0
  -24.7927   -9.9951   22.8592 F   0  0  0  0  0  0  0  0  0  0  0  0
  1  2  1  0  0  0  0
  1  5  2  0  0  0  0
  2  6  2  0  0  0  0
  3  8  2  0  0  0  0
  3 15  1  0  0  0  0
  4  9  1  0  0  0  0
  4 15  2  0  0  0  0
  5 17  1  0  0  0  0
  6 19  1  0  0  0  0
  7 10  2  0  0  0  0
  7 18  1  0  0  0  0
  8 21  1  0  0  0  0
  9 21  2  0  0  0  0
 10 22  1  0  0  0  0
 11 12  2  0  0  0  0
 11 23  1  0  0  0  0
 12 24  1  0  0  0  0
 13 20  1  0  0  0  0
 13 22  2  0  0  0  0
 14 24  2  0  0  0  0
 14 25  1  0  0  0  0
 15 26  1  0  0  0  0
 16 26  1  0  0  0  0
 16 27  2  0  0  0  0
 16 28  1  0  0  0  0
 17 19  2  0  0  0  0
 17 33  1  0  0  0  0
 18 20  2  0  0  0  0
 18 34  1  0  0  0  0
 19 46  1  0  0  0  0
 20 35  1  0  0  0  0
 21 77  1  0  0  0  0
 22 78  1  0  0  0  0
 23 25  2  0  0  0  0
 23 77  1  0  0  0  0
 24 79  1  0  0  0  0
 25 80  1  0  0  0  0
 26 61  2  0  0  0  0
 27 62  1  0  0  0  0
 27 66  1  0  0  0  0
 28 67  1  0  0  0  0
 28 72  2  0  0  0  0
 29 47  1  0  0  0  0
 29 68  1  0  0  0  0
 29 73  2  0  0  0  0
 30 58  1  0  0  0  0
 30 63  1  0  0  0  0
 30 74  2  0  0  0  0
 31 59  1  0  0  0  0
 31 69  1  0  0  0  0
 31 75  2  0  0  0  0
 32 64  1  0  0  0  0
 32 65  1  0  0  0  0
 32 76  2  0  0  0  0
 33 36  1  0  0  0  0
 34 47  1  0  0  0  0
 35 63  1  0  0  0  0
 36 38  1  0  0  0  0
 37 39  1  0  0  0  0
 37 42  1  0  0  0  0
 38 46  1  0  0  0  0
 39 49  1  0  0  0  0
 40 44  1  0  0  0  0
 40 48  1  0  0  0  0
 41 48  1  0  0  0  0
 41 50  1  0  0  0  0
 42 64  1  0  0  0  0
 43 49  1  0  0  0  0
 43 64  1  0  0  0  0
 44 70  1  0  0  0  0
 45 65  1  0  0  0  0
 45 70  1  0  0  0  0
 46 68  1  0  0  0  0
 47 63  1  0  0  0  0
 48 50  1  0  0  0  0
 49 62  1  0  0  0  0
 50 65  1  0  0  0  0
 51 59  1  0  0  0  0
 52 60  1  0  0  0  0
 53 60  1  0  0  0  0
 54 60  1  0  0  0  0
 55 71  1  0  0  0  0
 56 57  1  0  0  0  0
 56 70  1  0  0  0  0
 57 78  1  0  0  0  0
 58 60  1  0  0  0  0
 58 69  1  0  0  0  0
 59 71  1  0  0  0  0
 61 62  1  0  0  0  0
M  CHG  2  70   1  71   1
M  ISO  4  32 100  57 101  65 100  78 101
M  END
> <Batch ID>
0008

> <Smiles>
CNC(C)C(=O)NC(C(=O)N1Cc2cc([101O:1][101CH2:1]CN3CCC4CC4[100N:0]([100C:0](=O)N4CCCC(n5nc(-c6ccc(Oc7ccc(F)cc7F)cc6)c(C(N)=O)c5N)C4)C3)ccc2CC1C(=O)NC1CCCc2ccccc21)C(C)(C)C

> <Shape>
0.279

> <Color>
0.070

> <Negative vol penalty>
0.000

$$$$

  -OEChem-04042320353D

 83 92  0     1  0  0  0  0  0999 V2000
  -27.4998  -34.2986   25.5374 C   0  0  0  0  0  0  0  0  0  0  0  0
  -28.0279  -33.0329   25.3038 C   0  0  0  0  0  0  0  0  0  0  0  0
  -23.1615   -9.7574   19.9114 C   0  0  0  0  0  0  0  0  0  0  0  0
  -23.9101   -9.7793   22.2084 C   0  0  0  0  0  0  0  0  0  0  0  0
  -26.1832  -34.5810   25.1756 C   0  0  0  0  0  0  0  0  0  0  0  0
  -27.2394  -32.0485   24.7093 C   0  0  0  0  0  0  0  0  0  0  0  0
  -29.1005  -27.6768   20.8453 C   0  0  0  0  0  0  0  0  0  0  0  0
  -29.3054  -19.4421   22.4652 C   0  0  0  0  0  0  0  0  0  0  0  0
  -29.2040  -18.0512   22.4442 C   0  0  0  0  0  0  0  0  0  0  0  0
  -22.4725   -8.5678   20.1473 C   0  0  0  0  0  0  0  0  0  0  0  0
  -23.2211   -8.5897   22.4443 C   0  0  0  0  0  0  0  0  0  0  0  0
  -29.4213  -26.3331   21.0334 C   0  0  0  0  0  0  0  0  0  0  0  0
  -20.0321   -7.6332   23.0240 C   0  0  0  0  0  0  0  0  0  0  0  0
  -19.2728   -7.5462   24.1908 C   0  0  0  0  0  0  0  0  0  0  0  0
  -27.1860  -25.7130   20.3713 C   0  0  0  0  0  0  0  0  0  0  0  0
  -30.8500  -17.9578   20.6781 C   0  0  0  0  0  0  0  0  0  0  0  0
  -20.6021   -5.6635   24.9156 C   0  0  0  0  0  0  0  0  0  0  0  0
  -23.8804  -10.3632   20.9419 C   0  0  0  0  0  0  0  0  0  0  0  0
  -24.1017  -12.9028   20.8465 C   0  0  0  0  0  0  0  0  0  0  0  0
  -25.3812  -33.6024   24.5675 C   0  0  0  0  0  0  0  0  0  0  0  0
  -27.8146  -28.0500   20.4286 C   0  0  0  0  0  0  0  0  0  0  0  0
  -25.9104  -32.3177   24.3402 C   0  0  0  0  0  0  0  0  0  0  0  0
  -26.8522  -27.0619   20.1761 C   0  0  0  0  0  0  0  0  0  0  0  0
  -30.1791  -20.0910   21.5927 C   0  0  0  0  0  0  0  0  0  0  0  0
  -29.9763  -17.3090   21.5507 C   0  0  0  0  0  0  0  0  0  0  0  0
  -22.5022   -7.9840   21.4137 C   0  0  0  0  0  0  0  0  0  0  0  0
  -28.4631  -25.3512   20.7992 C   0  0  0  0  0  0  0  0  0  0  0  0
  -21.0764   -6.7352   22.8029 C   0  0  0  0  0  0  0  0  0  0  0  0
  -19.5578   -6.5614   25.1366 C   0  0  0  0  0  0  0  0  0  0  0  0
  -30.9514  -19.3489   20.6992 C   0  0  0  0  0  0  0  0  0  0  0  0
  -21.3614   -5.7504   23.7487 C   0  0  0  0  0  0  0  0  0  0  0  0
  -24.5928  -11.5918   20.6987 C   0  0  0  0  0  0  0  0  0  0  0  0
  -25.1584  -13.7069   20.4953 C   0  0  0  0  0  0  0  0  0  0  0  0
  -22.8062  -13.3534   21.2640 C   0  0  0  0  0  0  0  0  0  0  0  0
  -25.4685  -29.7920   21.6796 C   0  0  0  0  0  0  0  0  0  0  0  0
  -24.0938  -29.3141   18.7806 C   0  0  0  0  0  0  0  0  0  0  0  0
  -23.8606  -27.3997   15.9650 C   0  0  0  0  0  0  0  0  0  0  0  0
  -30.5675  -15.0105   20.7058 C   0  0  0  0  0  0  0  0  0  0  0  0
  -23.9489  -33.9403   24.2370 C   0  0  0  0  0  0  0  0  0  0  0  0
  -27.4924  -29.5020   20.2045 C   0  0  0  0  0  0  0  0  0  0  0  0
  -25.4633  -27.4089   19.7080 C   0  0  0  0  0  0  0  0  0  0  0  0
  -23.2981  -32.9544   23.2702 C   0  0  0  0  0  0  0  0  0  0  0  0
  -29.5801  -12.5684   18.3104 C   0  0  0  0  0  0  0  0  0  0  0  0
  -23.5883  -31.5187   23.6959 C   0  0  0  0  0  0  0  0  0  0  0  0
  -28.1542  -12.2044   18.7304 C   0  0  0  0  0  0  0  0  0  0  0  0
  -31.1304  -23.6449   21.3382 C   0  0  0  0  0  0  0  0  0  0  0  0
  -30.4780  -12.8294   19.5185 C   0  0  0  0  0  0  0  0  0  0  0  0
  -31.1588  -22.2369   20.7438 C   0  0  0  0  0  0  0  0  0  0  0  0
  -28.5326  -13.4492   20.8970 C   0  0  0  0  0  0  0  0  0  0  0  0
  -29.5024  -22.3278   22.5099 C   0  0  0  0  0  0  0  0  0  0  0  0
  -25.0943  -31.2307   23.6748 C   0  0  1  0  0  0  0  0  0  0  0  0
  -25.9978  -29.8000   20.2733 C   0  0  1  0  0  0  0  0  0  0  0  0
  -27.5743  -13.2406   19.7130 C   0  0  2  0  0  0  0  0  0  0  0  0
  -29.7501  -23.7366   21.9724 C   0  0  2  0  0  0  0  0  0  1  0  0
  -22.6221  -27.2404   13.7883 C   0  0  0  0  0  0  0  0  0  0  0  0
  -21.6380  -28.2663   20.2574 C   0  0  0  0  0  0  0  0  0  0  0  0
  -20.8550  -27.2639   18.1009 C   0  0  0  0  0  0  0  0  0  0  0  0
  -21.1293  -29.7355   18.2985 C   0  0  0  0  0  0  0  0  0  0  0  0
  -26.3550  -27.6584   14.3935 C   0  0  0  0  0  0  0  0  0  0  0  0
  -23.1832  -28.2653   18.1890 C   0  0  1  0  0  0  0  0  0  0  0  0
  -23.8617  -27.7694   14.4926 C   0  0  2  0  0  0  0  0  0  0  0  0
  -21.7269  -28.3760   18.7221 C   0  0  0  0  0  0  0  0  0  0  0  0
  -25.8626  -11.5603   20.2857 N   0  0  0  0  0  0  0  0  0  0  0  0
  -26.1783  -12.8615   20.1708 N   0  0  0  0  0  0  0  0  0  0  0  0
  -30.2761  -21.4665   21.6148 N   0  0  3  0  0  0  0  0  0  0  0  0
  -25.1949  -28.8428   19.5095 N   0  0  0  0  0  0  0  0  0  0  0  0
  -29.8665  -13.8242   20.4025 N   0  0  0  0  0  0  0  0  0  0  0  0
  -25.3052  -15.0475   20.4354 N   0  0  0  0  0  0  0  0  0  0  0  0
  -21.8374  -12.3939   21.5881 N   0  0  0  0  0  0  0  0  0  0  0  0
  -29.8731  -15.8960   21.5295 N   0  0  0  0  0  0  0  0  0  0  0  0
  -25.5487  -31.0150   22.3178 N   0  0  0  0  0  0  0  0  0  0  0  0
  -23.3006  -28.3929   16.7405 N   0  0  0  0  0  0  0  0  0  0  0  0
  -25.0636  -27.2032   13.8174 N   0  3  0  0  0  0  0  0  0  0  0  0
  -22.5112  -14.5708   21.3313 O   0  0  0  0  0  0  0  0  0  0  0  0
  -25.0192  -28.7536   22.1502 O   0  0  0  0  0  0  0  0  0  0  0  0
  -23.8415  -30.5074   18.5965 O   0  0  0  0  0  0  0  0  0  0  0  0
  -24.3080  -26.3348   16.3847 O   0  0  0  0  0  0  0  0  0  0  0  0
  -31.6893  -15.2373   20.2452 O   0  0  0  0  0  0  0  0  0  0  0  0
  -21.8298   -6.8233   21.6443 O   0  0  0  0  0  0  0  0  0  0  0  0
  -28.7734  -24.0389   20.9826 O   0  0  0  0  0  0  0  0  0  1  0  0
  -18.8296   -6.4791   26.2578 F   0  0  0  0  0  0  0  0  0  0  0  0
  -31.7932  -19.9627   19.8554 F   0  0  0  0  0  0  0  0  0  0  0  0
  -22.3641   -4.8857   23.5424 F   0  0  0  0  0  0  0  0  0  0  0  0
  1  2  1  0  0  0  0
  1  5  2  0  0  0  0
  2  6  2  0  0  0  0
  3 10  2  0  0  0  0
  3 18  1  0  0  0  0
  4 11  1  0  0  0  0
  4 18  2  0  0  0  0
  5 20  1  0  0  0  0
  6 22  1  0  0  0  0
  7 12  2  0  0  0  0
  7 21  1  0  0  0  0
  8  9  2  0  0  0  0
  8 24  1  0  0  0  0
  9 25  1  0  0  0  0
 10 26  1  0  0  0  0
 11 26  2  0  0  0  0
 12 27  1  0  0  0  0
 13 14  2  0  0  0  0
 13 28  1  0  0  0  0
 14 29  1  0  0  0  0
 15 23  1  0  0  0  0
 15 27  2  0  0  0  0
 16 25  2  0  0  0  0
 16 30  1  0  0  0  0
 17 29  2  0  0  0  0
 17 31  1  0  0  0  0
 18 32  1  0  0  0  0
 19 32  1  0  0  0  0
 19 33  2  0  0  0  0
 19 34  1  0  0  0  0
 20 22  2  0  0  0  0
 20 39  1  0  0  0  0
 21 23  2  0  0  0  0
 21 40  1  0  0  0  0
 22 51  1  0  0  0  0
 23 41  1  0  0  0  0
 24 30  2  0  0  0  0
 24 65  1  0  0  0  0
 25 70  1  0  0  0  0
 26 79  1  0  0  0  0
 27 80  1  0  0  0  0
 28 31  2  0  0  0  0
 28 79  1  0  0  0  0
 29 81  1  0  0  0  0
 30 82  1  0  0  0  0
 31 83  1  0  0  0  0
 32 63  2  0  0  0  0
 33 64  1  0  0  0  0
 33 68  1  0  0  0  0
 34 69  1  0  0  0  0
 34 74  2  0  0  0  0
 35 52  1  0  0  0  0
 35 71  1  0  0  0  0
 35 75  2  0  0  0  0
 36 60  1  0  0  0  0
 36 66  1  0  0  0  0
 36 76  2  0  0  0  0
 37 61  1  0  0  0  0
 37 72  1  0  0  0  0
 37 77  2  0  0  0  0
 38 67  1  0  0  0  0
 38 70  1  0  0  0  0
 38 78  2  0  0  0  0
 39 42  1  0  0  0  0
 40 52  1  0  0  0  0
 41 66  1  0  0  0  0
 42 44  1  0  0  0  0
 43 45  1  0  0  0  0
 43 47  1  0  0  0  0
 44 51  1  0  0  0  0
 45 53  1  0  0  0  0
 46 48  1  0  0  0  0
 46 54  1  0  0  0  0
 47 67  1  0  0  0  0
 48 65  1  0  0  0  0
 49 53  1  0  0  0  0
 49 67  1  0  0  0  0
 50 54  1  0  0  0  0
 50 65  1  0  0  0  0
 51 71  1  0  0  0  0
 52 66  1  0  0  0  0
 53 64  1  0  0  0  0
 54 80  1  0  0  0  0
 55 61  1  0  0  0  0
 56 62  1  0  0  0  0
 57 62  1  0  0  0  0
 58 62  1  0  0  0  0
 59 73  1  0  0  0  0
 60 62  1  0  0  0  0
 60 72  1  0  0  0  0
 61 73  1  0  0  0  0
 63 64  1  0  0  0  0
M  CHG  1  73   1
M  ISO  4  38 100  54 101  70 100  80 101
M  END
> <Batch ID>
0008

> <Smiles>
CNC(C)C(=O)NC(C(=O)N1Cc2cc([101O:1][101CH:1]3CCN(c4ccc([100NH:0][100C:0](=O)N5CCCC(n6nc(-c7ccc(Oc8ccc(F)cc8F)cc7)c(C(N)=O)c6N)C5)cc4F)C3)ccc2CC1C(=O)NC1CCCc2ccccc21)C(C)(C)C

> <Shape>
0.352

> <Color>
0.209

> <Negative vol penalty>
0.000

$$$$

  -OEChem-04042320353D

 90100  0     1  0  0  0  0  0999 V2000
  -18.6702  -36.6508   21.3690 C   0  0  0  0  0  0  0  0  0  0  0  0
  -19.3104  -35.6271   20.6779 C   0  0  0  0  0  0  0  0  0  0  0  0
  -22.6937  -10.6032   20.9246 C   0  0  0  0  0  0  0  0  0  0  0  0
  -24.4969   -9.0830   21.4489 C   0  0  0  0  0  0  0  0  0  0  0  0
  -19.3507  -37.3495   22.3653 C   0  0  0  0  0  0  0  0  0  0  0  0
  -20.6319  -35.3022   20.9820 C   0  0  0  0  0  0  0  0  0  0  0  0
  -23.1770  -29.7334   20.8540 C   0  0  0  0  0  0  0  0  0  0  0  0
  -29.2448  -19.7732   20.7976 C   0  0  0  0  0  0  0  0  0  0  0  0
  -26.8421  -19.5583   20.9317 C   0  0  0  0  0  0  0  0  0  0  0  0
  -29.3601  -18.3913   20.6478 C   0  0  0  0  0  0  0  0  0  0  0  0
  -26.9573  -18.1763   20.7818 C   0  0  0  0  0  0  0  0  0  0  0  0
  -21.8895   -9.9779   21.8774 C   0  0  0  0  0  0  0  0  0  0  0  0
  -23.6927   -8.4577   22.4017 C   0  0  0  0  0  0  0  0  0  0  0  0
  -23.9607  -29.0819   19.9026 C   0  0  0  0  0  0  0  0  0  0  0  0
  -21.1772   -6.1991   22.4435 C   0  0  0  0  0  0  0  0  0  0  0  0
  -21.1636   -4.8045   22.4655 C   0  0  0  0  0  0  0  0  0  0  0  0
  -25.9506  -29.7650   21.0828 C   0  0  0  0  0  0  0  0  0  0  0  0
  -21.9803   -4.8325   24.7392 C   0  0  0  0  0  0  0  0  0  0  0  0
  -23.9974  -10.1557   20.7103 C   0  0  0  0  0  0  0  0  0  0  0  0
  -24.5769  -10.9172   18.3456 C   0  0  0  0  0  0  0  0  0  0  0  0
  -20.6781  -37.0266   22.6885 C   0  0  0  0  0  0  0  0  0  0  0  0
  -23.7756  -30.4159   21.9227 C   0  0  0  0  0  0  0  0  0  0  0  0
  -21.3312  -35.9981   21.9827 C   0  0  0  0  0  0  0  0  0  0  0  0
  -25.1722  -30.4221   22.0479 C   0  0  0  0  0  0  0  0  0  0  0  0
  -27.9858  -20.3568   20.9397 C   0  0  0  0  0  0  0  0  0  0  0  0
  -28.2164  -17.5928   20.6398 C   0  0  0  0  0  0  0  0  0  0  0  0
  -22.3890   -8.9052   22.6160 C   0  0  0  0  0  0  0  0  0  0  0  0
  -25.3478  -29.1000   20.0153 C   0  0  0  0  0  0  0  0  0  0  0  0
  -21.5924   -6.9104   23.5692 C   0  0  0  0  0  0  0  0  0  0  0  0
  -21.5651   -4.1212   23.6134 C   0  0  0  0  0  0  0  0  0  0  0  0
  -21.9939   -6.2271   24.7170 C   0  0  0  0  0  0  0  0  0  0  0  0
  -24.8285  -10.8008   19.7258 C   0  0  0  0  0  0  0  0  0  0  0  0
  -25.6579  -11.6094   17.8568 C   0  0  0  0  0  0  0  0  0  0  0  0
  -28.8117  -22.6563   20.5130 C   0  0  0  0  0  0  0  0  0  0  0  0
  -23.4656  -10.4422   17.5743 C   0  0  0  0  0  0  0  0  0  0  0  0
  -23.8323  -33.4389   22.9035 C   0  0  0  0  0  0  0  0  0  0  0  0
  -25.4205  -32.1793   25.4360 C   0  0  0  0  0  0  0  0  0  0  0  0
  -27.9867  -29.6992   25.9660 C   0  0  0  0  0  0  0  0  0  0  0  0
  -29.5061  -15.4504   20.3353 C   0  0  0  0  0  0  0  0  0  0  0  0
  -21.3879  -37.8414   23.7406 C   0  0  0  0  0  0  0  0  0  0  0  0
  -22.9153  -31.0911   22.9554 C   0  0  0  0  0  0  0  0  0  0  0  0
  -25.8631  -31.1234   23.1877 C   0  0  0  0  0  0  0  0  0  0  0  0
  -22.6650  -37.1858   24.2598 C   0  0  0  0  0  0  0  0  0  0  0  0
  -30.3059  -12.3848   18.7106 C   0  0  0  0  0  0  0  0  0  0  0  0
  -23.5101  -36.6700   23.0994 C   0  0  0  0  0  0  0  0  0  0  0  0
  -28.9679  -11.6439   18.6555 C   0  0  0  0  0  0  0  0  0  0  0  0
  -26.7121  -23.6940   22.2753 C   0  0  0  0  0  0  0  0  0  0  0  0
  -29.5806  -25.0527   20.1066 C   0  0  0  0  0  0  0  0  0  0  0  0
  -30.4609  -13.1799   20.0058 C   0  0  0  0  0  0  0  0  0  0  0  0
  -26.6146  -22.3026   21.6756 C   0  0  0  0  0  0  0  0  0  0  0  0
  -28.0160  -13.3555   20.2528 C   0  0  0  0  0  0  0  0  0  0  0  0
  -28.7921  -25.3849   18.8454 C   0  0  0  0  0  0  0  0  0  0  0  0
  -26.6468  -24.9678   20.0765 C   0  0  0  0  0  0  0  0  0  0  0  0
  -22.7561  -35.5998   22.3009 C   0  0  1  0  0  0  0  0  0  0  0  0
  -28.8240  -24.0985   21.0440 C   0  0  1  0  0  0  0  0  0  0  0  0
  -23.6487  -32.1899   23.7183 C   0  0  1  0  0  0  0  0  0  0  0  0
  -27.4374  -24.6589   21.3508 C   0  0  2  0  0  0  0  0  0  0  0  0
  -27.7864  -12.5924   18.9380 C   0  0  2  0  0  0  0  0  0  0  0  0
  -28.4717  -28.2535   27.9590 C   0  0  0  0  0  0  0  0  0  0  0  0
  -27.3680  -34.3977   26.2078 C   0  0  0  0  0  0  0  0  0  0  0  0
  -28.9520  -32.6326   27.0100 C   0  0  0  0  0  0  0  0  0  0  0  0
  -26.7157  -32.8817   28.0869 C   0  0  0  0  0  0  0  0  0  0  0  0
  -27.8370  -27.2231   24.3519 C   0  0  0  0  0  0  0  0  0  0  0  0
  -26.6606  -26.3777   18.0182 C   0  0  0  0  0  0  0  0  0  0  0  0
  -25.5542  -27.3179   18.4542 C   0  0  0  0  0  0  0  0  0  1  0  0
  -26.8690  -31.9044   25.7602 C   0  0  1  0  0  0  0  0  0  0  0  0
  -27.8096  -28.3276   26.5920 C   0  0  2  0  0  0  0  0  0  0  0  0
  -27.4666  -32.9539   26.7394 C   0  0  0  0  0  0  0  0  0  0  0  0
  -25.9790  -11.3731   20.0903 N   0  0  0  0  0  0  0  0  0  0  0  0
  -26.4600  -11.8557   18.9319 N   0  0  0  0  0  0  0  0  0  0  0  0
  -27.8659  -21.7911   21.0956 N   0  0  0  0  0  0  0  0  0  0  0  0
  -24.9788  -31.7744   24.1684 N   0  0  0  0  0  0  0  0  0  0  0  0
  -29.3071  -14.0596   20.2050 N   0  0  0  0  0  0  0  0  0  0  0  0
  -25.9909  -12.0253   16.6164 N   0  0  0  0  0  0  0  0  0  0  0  0
  -23.5389   -9.1580   17.0176 N   0  0  0  0  0  0  0  0  0  0  0  0
  -28.3331  -16.1889   20.4876 N   0  0  0  0  0  0  0  0  0  0  0  0
  -22.7838  -34.3336   23.0011 N   0  0  0  0  0  0  0  0  0  0  0  0
  -26.9243  -30.5311   26.2496 N   0  0  0  0  0  0  0  0  0  0  0  0
  -27.4393  -25.9336   19.2259 N   0  3  2  0  0  0  0  0  0  0  0  0
  -28.4115  -27.2790   25.7208 N   0  3  0  0  0  0  0  0  0  0  0  0
  -29.6499  -22.3095   19.6761 O   0  0  0  0  0  0  0  0  0  0  0  0
  -22.4447  -11.1422   17.3708 O   0  0  0  0  0  0  0  0  0  0  0  0
  -24.8507  -33.5811   22.2368 O   0  0  0  0  0  0  0  0  0  0  0  0
  -24.7054  -32.7265   26.2791 O   0  0  0  0  0  0  0  0  0  0  0  0
  -28.9710  -30.0034   25.2959 O   0  0  0  0  0  0  0  0  0  0  0  0
  -30.6320  -15.9522   20.2862 O   0  0  0  0  0  0  0  0  0  0  0  0
  -21.6046   -8.2950   23.5460 O   0  0  0  0  0  0  0  0  0  0  0  0
  -26.1206  -28.4609   19.0811 O   0  0  0  0  0  0  0  0  0  1  0  0
  -21.5506   -2.7820   23.6349 F   0  0  0  0  0  0  0  0  0  0  0  0
  -22.3927   -6.9051   25.8020 F   0  0  0  0  0  0  0  0  0  0  0  0
  1  2  1  0  0  0  0
  1  5  2  0  0  0  0
  2  6  2  0  0  0  0
  3 12  2  0  0  0  0
  3 19  1  0  0  0  0
  4 13  1  0  0  0  0
  4 19  2  0  0  0  0
  5 21  1  0  0  0  0
  6 23  1  0  0  0  0
  7 14  2  0  0  0  0
  7 22  1  0  0  0  0
  8 10  2  0  0  0  0
  8 25  1  0  0  0  0
  9 11  1  0  0  0  0
  9 25  2  0  0  0  0
 10 26  1  0  0  0  0
 11 26  2  0  0  0  0
 12 27  1  0  0  0  0
 13 27  2  0  0  0  0
 14 28  1  0  0  0  0
 15 16  2  0  0  0  0
 15 29  1  0  0  0  0
 16 30  1  0  0  0  0
 17 24  1  0  0  0  0
 17 28  2  0  0  0  0
 18 30  2  0  0  0  0
 18 31  1  0  0  0  0
 19 32  1  0  0  0  0
 20 32  1  0  0  0  0
 20 33  2  0  0  0  0
 20 35  1  0  0  0  0
 21 23  2  0  0  0  0
 21 40  1  0  0  0  0
 22 24  2  0  0  0  0
 22 41  1  0  0  0  0
 23 54  1  0  0  0  0
 24 42  1  0  0  0  0
 25 71  1  0  0  0  0
 26 76  1  0  0  0  0
 27 87  1  0  0  0  0
 28 88  1  0  0  0  0
 29 31  2  0  0  0  0
 29 87  1  0  0  0  0
 30 89  1  0  0  0  0
 31 90  1  0  0  0  0
 32 69  2  0  0  0  0
 33 70  1  0  0  0  0
 33 74  1  0  0  0  0
 34 55  1  0  0  0  0
 34 71  1  0  0  0  0
 34 81  2  0  0  0  0
 35 75  1  0  0  0  0
 35 82  2  0  0  0  0
 36 56  1  0  0  0  0
 36 77  1  0  0  0  0
 36 83  2  0  0  0  0
 37 66  1  0  0  0  0
 37 72  1  0  0  0  0
 37 84  2  0  0  0  0
 38 67  1  0  0  0  0
 38 78  1  0  0  0  0
 38 85  2  0  0  0  0
 39 73  1  0  0  0  0
 39 76  1  0  0  0  0
 39 86  2  0  0  0  0
 40 43  1  0  0  0  0
 41 56  1  0  0  0  0
 42 72  1  0  0  0  0
 43 45  1  0  0  0  0
 44 46  1  0  0  0  0
 44 49  1  0  0  0  0
 45 54  1  0  0  0  0
 46 58  1  0  0  0  0
 47 50  1  0  0  0  0
 47 57  1  0  0  0  0
 48 52  1  0  0  0  0
 48 55  1  0  0  0  0
 49 73  1  0  0  0  0
 50 71  1  0  0  0  0
 51 58  1  0  0  0  0
 51 73  1  0  0  0  0
 52 79  1  0  0  0  0
 53 57  1  0  0  0  0
 53 79  1  0  0  0  0
 54 77  1  0  0  0  0
 55 57  1  0  0  0  0
 56 72  1  0  0  0  0
 58 70  1  0  0  0  0
 59 67  1  0  0  0  0
 60 68  1  0  0  0  0
 61 68  1  0  0  0  0
 62 68  1  0  0  0  0
 63 80  1  0  0  0  0
 64 65  1  0  0  0  0
 64 79  1  0  0  0  0
 65 88  1  0  0  0  0
 66 68  1  0  0  0  0
 66 78  1  0  0  0  0
 67 80  1  0  0  0  0
 69 70  1  0  0  0  0
M  CHG  2  79   1  80   1
M  ISO  4  39 100  65 101  76 100  88 101
M  END
> <Batch ID>
0008

> <Smiles>
CNC(C)C(=O)NC(C(=O)N1Cc2cc([101O:1][101CH2:1]CN3CCC4C(=O)N(c5ccc([100NH:0][100C:0](=O)N6CCCC(n7nc(-c8ccc(Oc9ccc(F)cc9F)cc8)c(C(N)=O)c7N)C6)cc5)CCC4C3)ccc2CC1C(=O)NC1CCCc2ccccc21)C(C)(C)C

> <Shape>
0.326

> <Color>
0.083

> <Negative vol penalty>
0.000

$$$$

  -OEChem-04042320353D

 83 91  0     1  0  0  0  0  0999 V2000
  -29.9817  -24.2109   16.9618 C   0  0  0  0  0  0  0  0  0  0  0  0
  -29.1298  -24.1838   18.0612 C   0  0  0  0  0  0  0  0  0  0  0  0
  -24.4592   -9.2440   22.0919 C   0  0  0  0  0  0  0  0  0  0  0  0
  -22.6681  -10.8276   22.4397 C   0  0  0  0  0  0  0  0  0  0  0  0
  -30.8237  -25.3038   16.7605 C   0  0  0  0  0  0  0  0  0  0  0  0
  -29.1201  -25.2492   18.9608 C   0  0  0  0  0  0  0  0  0  0  0  0
  -24.4303  -26.6751   20.2329 C   0  0  0  0  0  0  0  0  0  0  0  0
  -23.8110   -8.3286   22.9210 C   0  0  0  0  0  0  0  0  0  0  0  0
  -22.0198   -9.9122   23.2689 C   0  0  0  0  0  0  0  0  0  0  0  0
  -23.7574  -25.8893   21.1675 C   0  0  0  0  0  0  0  0  0  0  0  0
  -21.2356   -6.1496   22.6924 C   0  0  0  0  0  0  0  0  0  0  0  0
  -21.1572   -4.8258   22.2601 C   0  0  0  0  0  0  0  0  0  0  0  0
  -24.3116  -27.4796   22.8947 C   0  0  0  0  0  0  0  0  0  0  0  0
  -23.7165  -20.2592   23.3693 C   0  0  0  0  0  0  0  0  0  0  0  0
  -25.4545  -20.0901   25.0390 C   0  0  0  0  0  0  0  0  0  0  0  0
  -22.3711   -4.1126   24.2235 C   0  0  0  0  0  0  0  0  0  0  0  0
  -23.8878  -10.4935   21.8513 C   0  0  0  0  0  0  0  0  0  0  0  0
  -24.4093  -11.5787   19.6023 C   0  0  0  0  0  0  0  0  0  0  0  0
  -30.8174  -26.3876   17.6528 C   0  0  0  0  0  0  0  0  0  0  0  0
  -25.0593  -27.8655   20.6249 C   0  0  0  0  0  0  0  0  0  0  0  0
  -29.9637  -26.3571   18.7720 C   0  0  0  0  0  0  0  0  0  0  0  0
  -24.9897  -28.2800   21.9626 C   0  0  0  0  0  0  0  0  0  0  0  0
  -24.2880  -20.6912   24.5661 C   0  0  0  0  0  0  0  0  0  0  0  0
  -25.4780  -18.6248   23.1183 C   0  0  0  0  0  0  0  0  0  0  0  0
  -22.5913   -8.6627   23.5095 C   0  0  0  0  0  0  0  0  0  0  0  0
  -23.7004  -26.2900   22.4992 C   0  0  0  0  0  0  0  0  0  0  0  0
  -21.8819   -6.4550   23.8902 C   0  0  0  0  0  0  0  0  0  0  0  0
  -21.7248   -3.8073   23.0256 C   0  0  0  0  0  0  0  0  0  0  0  0
  -24.3115  -19.2259   22.6454 C   0  0  0  0  0  0  0  0  0  0  0  0
  -26.0495  -19.0569   24.3151 C   0  0  0  0  0  0  0  0  0  0  0  0
  -22.4496   -5.4365   24.6558 C   0  0  0  0  0  0  0  0  0  0  0  0
  -24.5573  -11.4397   20.9953 C   0  0  0  0  0  0  0  0  0  0  0  0
  -25.2542  -12.6088   19.2684 C   0  0  0  0  0  0  0  0  0  0  0  0
  -23.5822  -10.8425   18.6915 C   0  0  0  0  0  0  0  0  0  0  0  0
  -28.0553  -28.9275   20.6169 C   0  0  0  0  0  0  0  0  0  0  0  0
  -26.6643  -31.6967   21.5755 C   0  0  0  0  0  0  0  0  0  0  0  0
  -24.0145  -33.2415   23.0720 C   0  0  0  0  0  0  0  0  0  0  0  0
  -27.4380  -17.2527   22.3295 C   0  0  0  0  0  0  0  0  0  0  0  0
  -31.7794  -27.5255   17.4196 C   0  0  0  0  0  0  0  0  0  0  0  0
  -25.7584  -28.7155   19.5995 C   0  0  0  0  0  0  0  0  0  0  0  0
  -25.6311  -29.5598   22.4307 C   0  0  0  0  0  0  0  0  0  0  0  0
  -31.4389  -28.7835   18.2143 C   0  0  0  0  0  0  0  0  0  0  0  0
  -29.3159  -14.7244   20.6686 C   0  0  0  0  0  0  0  0  0  0  0  0
  -31.1259  -28.4302   19.6649 C   0  0  0  0  0  0  0  0  0  0  0  0
  -28.2938  -13.6103   20.4317 C   0  0  0  0  0  0  0  0  0  0  0  0
  -29.0909  -15.4253   22.0072 C   0  0  0  0  0  0  0  0  0  0  0  0
  -26.7052  -14.8110   21.9878 C   0  0  0  0  0  0  0  0  0  0  0  0
  -29.9065  -27.5049   19.7565 C   0  0  1  0  0  0  0  0  0  0  0  0
  -26.8019  -29.6478   20.2072 C   0  0  1  0  0  0  0  0  0  0  0  0
  -26.8514  -14.1188   20.6229 C   0  0  2  0  0  0  0  0  0  0  0  0
  -23.1803  -35.5105   23.7449 C   0  0  0  0  0  0  0  0  0  0  0  0
  -28.5981  -31.7051   23.9356 C   0  0  0  0  0  0  0  0  0  0  0  0
  -27.1290  -33.4029   25.0436 C   0  0  0  0  0  0  0  0  0  0  0  0
  -28.2374  -33.9408   22.8746 C   0  0  0  0  0  0  0  0  0  0  0  0
  -21.6328  -33.0101   21.3305 C   0  0  0  0  0  0  0  0  0  0  0  0
  -23.6481  -21.8028   25.3445 C   0  0  0  0  0  0  0  0  0  0  0  0
  -23.1980  -24.2574   25.4515 C   0  0  0  0  0  0  0  0  0  0  0  0
  -23.5234  -25.5651   24.7573 C   0  0  0  0  0  0  0  0  0  1  0  0
  -26.3073  -32.3082   22.9088 C   0  0  1  0  0  0  0  0  0  0  0  0
  -23.1861  -34.4449   22.6599 C   0  0  2  0  0  0  0  0  0  0  0  0
  -27.5574  -32.8141   23.6825 C   0  0  0  0  0  0  0  0  0  0  0  0
  -25.4277  -12.3117   21.5110 N   0  0  0  0  0  0  0  0  0  0  0  0
  -25.8344  -13.0085   20.4362 N   0  0  0  0  0  0  0  0  0  0  0  0
  -26.3082  -30.3532   21.3917 N   0  0  0  0  0  0  0  0  0  0  0  0
  -27.7041  -15.8837   22.1157 N   0  0  0  0  0  0  0  0  0  0  0  0
  -25.5500  -13.2027   18.0927 N   0  0  0  0  0  0  0  0  0  0  0  0
  -22.7752   -9.8165   19.2020 N   0  0  0  0  0  0  0  0  0  0  0  0
  -26.0824  -17.5751   22.3829 N   0  0  0  0  0  0  0  0  0  0  0  0
  -28.6844  -28.2606   19.5831 N   0  0  0  0  0  0  0  0  0  0  0  0
  -25.3171  -33.3430   22.6313 N   0  0  0  0  0  0  0  0  0  0  0  0
  -21.7775  -34.0375   22.3937 N   0  3  0  0  0  0  0  0  0  0  0  0
  -23.8696  -23.1428   24.7367 N   0  3  0  0  0  0  0  0  0  0  0  0
  -23.5716  -11.0763   17.4592 O   0  0  0  0  0  0  0  0  0  0  0  0
  -28.4251  -28.9747   21.7843 O   0  0  0  0  0  0  0  0  0  0  0  0
  -27.2316  -32.3879   20.7258 O   0  0  0  0  0  0  0  0  0  0  0  0
  -23.5533  -32.3067   23.7231 O   0  0  0  0  0  0  0  0  0  0  0  0
  -28.3456  -18.0825   22.4285 O   0  0  0  0  0  0  0  0  0  0  0  0
  -21.9583   -7.7697   24.3184 O   0  0  0  0  0  0  0  0  0  0  0  0
  -23.0448  -25.5246   23.4136 O   0  0  0  0  0  0  0  0  0  1  0  0
  -21.6481   -2.5359   22.6111 F   0  0  0  0  0  0  0  0  0  0  0  0
  -23.7539  -18.8189   21.4961 F   0  0  0  0  0  0  0  0  0  0  0  0
  -27.1699  -18.4860   24.7799 F   0  0  0  0  0  0  0  0  0  0  0  0
  -23.0707   -5.7236   25.8080 F   0  0  0  0  0  0  0  0  0  0  0  0
  1  2  1  0  0  0  0
  1  5  2  0  0  0  0
  2  6  2  0  0  0  0
  3  8  2  0  0  0  0
  3 17  1  0  0  0  0
  4  9  1  0  0  0  0
  4 17  2  0  0  0  0
  5 19  1  0  0  0  0
  6 21  1  0  0  0  0
  7 10  2  0  0  0  0
  7 20  1  0  0  0  0
  8 25  1  0  0  0  0
  9 25  2  0  0  0  0
 10 26  1  0  0  0  0
 11 12  2  0  0  0  0
 11 27  1  0  0  0  0
 12 28  1  0  0  0  0
 13 22  1  0  0  0  0
 13 26  2  0  0  0  0
 14 23  1  0  0  0  0
 14 29  2  0  0  0  0
 15 23  2  0  0  0  0
 15 30  1  0  0  0  0
 16 28  2  0  0  0  0
 16 31  1  0  0  0  0
 17 32  1  0  0  0  0
 18 32  1  0  0  0  0
 18 33  2  0  0  0  0
 18 34  1  0  0  0  0
 19 21  2  0  0  0  0
 19 39  1  0  0  0  0
 20 22  2  0  0  0  0
 20 40  1  0  0  0  0
 21 48  1  0  0  0  0
 22 41  1  0  0  0  0
 23 56  1  0  0  0  0
 24 29  1  0  0  0  0
 24 30  2  0  0  0  0
 24 68  1  0  0  0  0
 25 78  1  0  0  0  0
 26 79  1  0  0  0  0
 27 31  2  0  0  0  0
 27 78  1  0  0  0  0
 28 80  1  0  0  0  0
 29 81  1  0  0  0  0
 30 82  1  0  0  0  0
 31 83  1  0  0  0  0
 32 62  2  0  0  0  0
 33 63  1  0  0  0  0
 33 66  1  0  0  0  0
 34 67  1  0  0  0  0
 34 73  2  0  0  0  0
 35 49  1  0  0  0  0
 35 69  1  0  0  0  0
 35 74  2  0  0  0  0
 36 59  1  0  0  0  0
 36 64  1  0  0  0  0
 36 75  2  0  0  0  0
 37 60  1  0  0  0  0
 37 70  1  0  0  0  0
 37 76  2  0  0  0  0
 38 65  1  0  0  0  0
 38 68  1  0  0  0  0
 38 77  2  0  0  0  0
 39 42  1  0  0  0  0
 40 49  1  0  0  0  0
 41 64  1  0  0  0  0
 42 44  1  0  0  0  0
 43 45  1  0  0  0  0
 43 46  1  0  0  0  0
 44 48  1  0  0  0  0
 45 50  1  0  0  0  0
 46 65  1  0  0  0  0
 47 50  1  0  0  0  0
 47 65  1  0  0  0  0
 48 69  1  0  0  0  0
 49 64  1  0  0  0  0
 50 63  1  0  0  0  0
 51 60  1  0  0  0  0
 52 61  1  0  0  0  0
 53 61  1  0  0  0  0
 54 61  1  0  0  0  0
 55 71  1  0  0  0  0
 56 72  1  0  0  0  0
 57 58  1  0  0  0  0
 57 72  1  0  0  0  0
 58 79  1  0  0  0  0
 59 61  1  0  0  0  0
 59 70  1  0  0  0  0
 60 71  1  0  0  0  0
 62 63  1  0  0  0  0
M  CHG  2  71   1  72   1
M  ISO  4  38 100  58 101  68 100  79 101
M  END
> <Batch ID>
0008

> <Smiles>
CNC(C)C(=O)NC(C(=O)N1Cc2cc([101O:1][101CH2:1]CNCc3cc(F)c([100NH:0][100C:0](=O)N4CCCC(n5nc(-c6ccc(Oc7ccc(F)cc7F)cc6)c(C(N)=O)c5N)C4)c(F)c3)ccc2CC1C(=O)NC1CCCc2ccccc21)C(C)(C)C

> <Shape>
0.237

> <Color>
0.063

> <Negative vol penalty>
0.000

$$$$

  -OEChem-04042320353D

 89 98  0     1  0  0  0  0  0999 V2000
  -18.2561  -27.9826   23.3508 C   0  0  0  0  0  0  0  0  0  0  0  0
  -18.6202  -26.8833   22.5798 C   0  0  0  0  0  0  0  0  0  0  0  0
  -28.5502  -13.6894   20.7249 C   0  0  0  0  0  0  0  0  0  0  0  0
  -27.6135  -15.6441   21.7920 C   0  0  0  0  0  0  0  0  0  0  0  0
  -18.9939  -29.1630   23.2720 C   0  0  0  0  0  0  0  0  0  0  0  0
  -19.7218  -26.9641   21.7287 C   0  0  0  0  0  0  0  0  0  0  0  0
  -22.7010  -22.8791   22.0139 C   0  0  0  0  0  0  0  0  0  0  0  0
  -27.8556  -12.8705   21.6151 C   0  0  0  0  0  0  0  0  0  0  0  0
  -26.9188  -14.8252   22.6823 C   0  0  0  0  0  0  0  0  0  0  0  0
  -22.2760  -21.7330   21.3432 C   0  0  0  0  0  0  0  0  0  0  0  0
  -24.7022  -11.7090   21.9891 C   0  0  0  0  0  0  0  0  0  0  0  0
  -24.0388  -10.5991   21.4661 C   0  0  0  0  0  0  0  0  0  0  0  0
  -23.7791  -22.2457   19.5273 C   0  0  0  0  0  0  0  0  0  0  0  0
  -21.6262  -17.0645   19.6285 C   0  0  0  0  0  0  0  0  0  0  0  0
  -25.3800   -9.1443   22.8524 C   0  0  0  0  0  0  0  0  0  0  0  0
  -20.0780  -17.2617   17.3163 C   0  0  0  0  0  0  0  0  0  0  0  0
  -28.4292  -15.0763   20.8134 C   0  0  0  0  0  0  0  0  0  0  0  0
  -30.5416  -15.9950   19.7174 C   0  0  0  0  0  0  0  0  0  0  0  0
  -20.1109  -29.2552   22.4267 C   0  0  0  0  0  0  0  0  0  0  0  0
  -23.6618  -23.7243   21.4404 C   0  0  0  0  0  0  0  0  0  0  0  0
  -20.4744  -28.1473   21.6376 C   0  0  0  0  0  0  0  0  0  0  0  0
  -24.2164  -23.4005   20.1939 C   0  0  0  0  0  0  0  0  0  0  0  0
  -21.1122  -18.3005   19.2368 C   0  0  0  0  0  0  0  0  0  0  0  0
  -27.0399  -13.4384   22.5938 C   0  0  0  0  0  0  0  0  0  0  0  0
  -22.8130  -21.4177   20.0984 C   0  0  0  0  0  0  0  0  0  0  0  0
  -25.7046  -11.5366   22.9436 C   0  0  0  0  0  0  0  0  0  0  0  0
  -24.3777   -9.3167   21.8978 C   0  0  0  0  0  0  0  0  0  0  0  0
  -26.0434  -10.2543   23.3753 C   0  0  0  0  0  0  0  0  0  0  0  0
  -20.5921  -16.0256   17.7080 C   0  0  0  0  0  0  0  0  0  0  0  0
  -21.3663  -15.9270   18.8641 C   0  0  0  0  0  0  0  0  0  0  0  0
  -20.3380  -18.3991   18.0807 C   0  0  0  0  0  0  0  0  0  0  0  0
  -29.1469  -15.9227   19.8945 C   0  0  0  0  0  0  0  0  0  0  0  0
  -30.7147  -16.9410   18.7368 C   0  0  0  0  0  0  0  0  0  0  0  0
  -31.5872  -15.2716   20.3801 C   0  0  0  0  0  0  0  0  0  0  0  0
  -23.7013  -26.7581   20.4928 C   0  0  0  0  0  0  0  0  0  0  0  0
  -26.8554  -26.1636   20.0232 C   0  0  0  0  0  0  0  0  0  0  0  0
  -29.3171  -23.8714   19.4461 C   0  0  0  0  0  0  0  0  0  0  0  0
  -25.4096  -17.9319   17.5820 C   0  0  0  0  0  0  0  0  0  0  0  0
  -20.8492  -30.5674   22.3400 C   0  0  0  0  0  0  0  0  0  0  0  0
  -24.1291  -24.9425   22.1888 C   0  0  0  0  0  0  0  0  0  0  0  0
  -25.2655  -24.2641   19.5443 C   0  0  0  0  0  0  0  0  0  0  0  0
  -22.2270  -30.4495   21.6933 C   0  0  0  0  0  0  0  0  0  0  0  0
  -27.9133  -20.2228   18.7000 C   0  0  0  0  0  0  0  0  0  0  0  0
  -24.0021  -16.4948   14.5648 C   0  0  0  0  0  0  0  0  0  0  0  0
  -22.1487  -29.6157   20.4184 C   0  0  0  0  0  0  0  0  0  0  0  0
  -29.1719  -19.8305   17.9341 C   0  0  0  0  0  0  0  0  0  0  0  0
  -23.5809  -15.4214   15.5586 C   0  0  0  0  0  0  0  0  0  0  0  0
  -26.6780  -20.0348   17.8332 C   0  0  0  0  0  0  0  0  0  0  0  0
  -25.2670  -17.0548   15.1967 C   0  0  0  0  0  0  0  0  0  0  0  0
  -27.7572  -18.1533   16.6161 C   0  0  0  0  0  0  0  0  0  0  0  0
  -21.6779  -28.1880   20.7210 C   0  0  1  0  0  0  0  0  0  0  0  0
  -24.7372  -26.0057   21.2792 C   0  0  1  0  0  0  0  0  0  0  0  0
  -29.0907  -18.4087   17.3558 C   0  0  2  0  0  0  0  0  0  0  0  0
  -23.9177  -16.0468   16.9151 C   0  0  1  0  0  0  0  0  0  0  0  0
  -31.7917  -23.6907   19.0708 C   0  0  0  0  0  0  0  0  0  0  0  0
  -26.4947  -27.1836   17.1702 C   0  0  0  0  0  0  0  0  0  0  0  0
  -28.6810  -26.1130   16.5853 C   0  0  0  0  0  0  0  0  0  0  0  0
  -28.6021  -27.9345   18.2879 C   0  0  0  0  0  0  0  0  0  0  0  0
  -29.6770  -22.1910   21.8556 C   0  0  0  0  0  0  0  0  0  0  0  0
  -21.4135  -19.4949   20.0834 C   0  0  0  0  0  0  0  0  0  1  0  0
  -24.2959  -14.9939   17.9489 C   0  0  0  0  0  0  0  0  0  0  0  0
  -27.6869  -25.6512   18.8721 C   0  0  1  0  0  0  0  0  0  0  0  0
  -30.6715  -23.6620   20.0989 C   0  0  2  0  0  0  0  0  0  0  0  0
  -27.8450  -26.7051   17.7400 C   0  0  0  0  0  0  0  0  0  0  0  0
  -28.4813  -16.7565   19.0908 N   0  0  0  0  0  0  0  0  0  0  0  0
  -29.4620  -17.3617   18.3994 N   0  0  0  0  0  0  0  0  0  0  0  0
  -25.6851  -25.4477   20.3126 N   0  0  0  0  0  0  0  0  0  0  0  0
  -26.5733  -18.6694   17.3183 N   0  0  0  0  0  0  0  0  0  0  0  0
  -25.0132  -16.9832   16.6366 N   0  0  0  0  0  0  0  0  0  0  0  0
  -31.8148  -17.4457   18.1388 N   0  0  0  0  0  0  0  0  0  0  0  0
  -32.1381  -15.8144   21.5490 N   0  0  0  0  0  0  0  0  0  0  0  0
  -22.7622  -27.4047   21.2734 N   0  0  0  0  0  0  0  0  0  0  0  0
  -28.9487  -25.2002   19.4491 N   0  0  0  0  0  0  0  0  0  0  0  0
  -23.2097  -14.0914   18.1433 N   0  0  0  0  0  0  0  0  0  0  0  0
  -30.7108  -22.3476   20.8002 N   0  3  0  0  0  0  0  0  0  0  0  0
  -32.0315  -14.1845   19.9395 O   0  0  0  0  0  0  0  0  0  0  0  0
  -23.7512  -26.7536   19.2684 O   0  0  0  0  0  0  0  0  0  0  0  0
  -27.2341  -27.1580   20.6472 O   0  0  0  0  0  0  0  0  0  0  0  0
  -28.6539  -22.9491   18.9770 O   0  0  0  0  0  0  0  0  0  0  0  0
  -24.7479  -18.1193   18.6117 O   0  0  0  0  0  0  0  0  0  0  0  0
  -22.6976  -14.5465   20.6338 O   0  0  0  0  0  0  0  0  0  0  0  0
  -20.9427  -13.3976   19.2464 O   0  0  0  0  0  0  0  0  0  0  0  0
  -26.3617  -12.6396   23.4625 O   0  0  0  0  0  0  0  0  0  0  0  0
  -22.3965  -20.2920   19.4366 O   0  0  0  0  0  0  0  0  0  1  0  0
  -23.7394   -8.2510   21.3966 F   0  0  0  0  0  0  0  0  0  0  0  0
  -27.0047  -10.0824   24.2930 F   0  0  0  0  0  0  0  0  0  0  0  0
  -20.3345  -14.9387   16.9672 F   0  0  0  0  0  0  0  0  0  0  0  0
  -22.0191  -14.3625   19.3651 S   0  0  0  0  0  0  0  0  0  0  0  0
  -19.6868  -19.9121   17.5644 Cl  0  0  0  0  0  0  0  0  0  0  0  0
  1  2  1  0  0  0  0
  1  5  2  0  0  0  0
  2  6  2  0  0  0  0
  3  8  2  0  0  0  0
  3 17  1  0  0  0  0
  4  9  1  0  0  0  0
  4 17  2  0  0  0  0
  5 19  1  0  0  0  0
  6 21  1  0  0  0  0
  7 10  2  0  0  0  0
  7 20  1  0  0  0  0
  8 24  1  0  0  0  0
  9 24  2  0  0  0  0
 10 25  1  0  0  0  0
 11 12  2  0  0  0  0
 11 26  1  0  0  0  0
 12 27  1  0  0  0  0
 13 22  1  0  0  0  0
 13 25  2  0  0  0  0
 14 23  1  0  0  0  0
 14 30  2  0  0  0  0
 15 27  2  0  0  0  0
 15 28  1  0  0  0  0
 16 29  2  0  0  0  0
 16 31  1  0  0  0  0
 17 32  1  0  0  0  0
 18 32  1  0  0  0  0
 18 33  2  0  0  0  0
 18 34  1  0  0  0  0
 19 21  2  0  0  0  0
 19 39  1  0  0  0  0
 20 22  2  0  0  0  0
 20 40  1  0  0  0  0
 21 51  1  0  0  0  0
 22 41  1  0  0  0  0
 23 31  2  0  0  0  0
 23 60  1  0  0  0  0
 24 83  1  0  0  0  0
 25 84  1  0  0  0  0
 26 28  2  0  0  0  0
 26 83  1  0  0  0  0
 27 85  1  0  0  0  0
 28 86  1  0  0  0  0
 29 30  1  0  0  0  0
 29 87  1  0  0  0  0
 30 88  1  0  0  0  0
 31 89  1  0  0  0  0
 32 65  2  0  0  0  0
 33 66  1  0  0  0  0
 33 70  1  0  0  0  0
 34 71  1  0  0  0  0
 34 76  2  0  0  0  0
 35 52  1  0  0  0  0
 35 72  1  0  0  0  0
 35 77  2  0  0  0  0
 36 62  1  0  0  0  0
 36 67  1  0  0  0  0
 36 78  2  0  0  0  0
 37 63  1  0  0  0  0
 37 73  1  0  0  0  0
 37 79  2  0  0  0  0
 38 68  1  0  0  0  0
 38 69  1  0  0  0  0
 38 80  2  0  0  0  0
 39 42  1  0  0  0  0
 40 52  1  0  0  0  0
 41 67  1  0  0  0  0
 42 45  1  0  0  0  0
 43 46  1  0  0  0  0
 43 48  1  0  0  0  0
 44 47  1  0  0  0  0
 44 49  1  0  0  0  0
 45 51  1  0  0  0  0
 46 53  1  0  0  0  0
 47 54  1  0  0  0  0
 48 68  1  0  0  0  0
 49 69  1  0  0  0  0
 50 53  1  0  0  0  0
 50 68  1  0  0  0  0
 51 72  1  0  0  0  0
 52 67  1  0  0  0  0
 53 66  1  0  0  0  0
 54 61  1  0  0  0  0
 54 69  1  0  0  0  0
 55 63  1  0  0  0  0
 56 64  1  0  0  0  0
 57 64  1  0  0  0  0
 58 64  1  0  0  0  0
 59 75  1  0  0  0  0
 60 84  1  0  0  0  0
 61 74  1  0  0  0  0
 62 64  1  0  0  0  0
 62 73  1  0  0  0  0
 63 75  1  0  0  0  0
 65 66  1  0  0  0  0
 74 88  1  0  0  0  0
 81 88  2  0  0  0  0
 82 88  2  0  0  0  0
M  CHG  1  75   1
M  ISO  4  38 100  60 101  69 100  84 101
M  END
> <Batch ID>
0008

> <Smiles>
CNC(C)C(=O)NC(C(=O)N1Cc2cc([101O:1][101CH2:1]c3cc(S(=O)(=O)NCC4CCC[100N:0]4[100C:0](=O)N4CCCC(n5nc(-c6ccc(Oc7ccc(F)cc7F)cc6)c(C(N)=O)c5N)C4)c(F)cc3Cl)ccc2CC1C(=O)NC1CCCc2ccccc21)C(C)(C)C

> <Shape>
0.185

> <Color>
0.066

> <Negative vol penalty>
0.000

$$$$

  -OEChem-04042320353D

 80 88  0     1  0  0  0  0  0999 V2000
  -25.7255  -35.1503   23.7645 C   0  0  0  0  0  0  0  0  0  0  0  0
  -26.3427  -33.9586   23.3983 C   0  0  0  0  0  0  0  0  0  0  0  0
  -24.9710  -13.5554   22.5260 C   0  0  0  0  0  0  0  0  0  0  0  0
  -25.8038  -14.2137   20.3557 C   0  0  0  0  0  0  0  0  0  0  0  0
  -24.4370  -35.1318   24.2970 C   0  0  0  0  0  0  0  0  0  0  0  0
  -25.6722  -32.7474   23.5654 C   0  0  0  0  0  0  0  0  0  0  0  0
  -26.1026  -29.7161   19.5316 C   0  0  0  0  0  0  0  0  0  0  0  0
  -29.8967  -23.8333   18.7925 C   0  0  0  0  0  0  0  0  0  0  0  0
  -24.1403  -12.6122   21.9212 C   0  0  0  0  0  0  0  0  0  0  0  0
  -24.9731  -13.2704   19.7508 C   0  0  0  0  0  0  0  0  0  0  0  0
  -27.3028  -29.0227   19.3814 C   0  0  0  0  0  0  0  0  0  0  0  0
  -24.4381   -9.5151   20.5974 C   0  0  0  0  0  0  0  0  0  0  0  0
  -29.3643  -22.6561   18.2670 C   0  0  0  0  0  0  0  0  0  0  0  0
  -24.3863   -8.2405   21.1614 C   0  0  0  0  0  0  0  0  0  0  0  0
  -26.2673  -27.0447   20.2948 C   0  0  0  0  0  0  0  0  0  0  0  0
  -28.5465  -23.5581   20.7771 C   0  0  0  0  0  0  0  0  0  0  0  0
  -22.0145   -8.5038   21.5386 C   0  0  0  0  0  0  0  0  0  0  0  0
  -25.8027  -14.3562   21.7432 C   0  0  0  0  0  0  0  0  0  0  0  0
  -27.9812  -15.1385   22.8155 C   0  0  0  0  0  0  0  0  0  0  0  0
  -23.7467  -33.9206   24.4617 C   0  0  0  0  0  0  0  0  0  0  0  0
  -24.9769  -29.0810   20.0756 C   0  0  0  0  0  0  0  0  0  0  0  0
  -24.3738  -32.7125   24.1018 C   0  0  0  0  0  0  0  0  0  0  0  0
  -25.0533  -27.7315   20.4485 C   0  0  0  0  0  0  0  0  0  0  0  0
  -29.4879  -24.2843   20.0476 C   0  0  0  0  0  0  0  0  0  0  0  0
  -28.0140  -22.3809   20.2515 C   0  0  0  0  0  0  0  0  0  0  0  0
  -24.1413  -12.4696   20.5336 C   0  0  0  0  0  0  0  0  0  0  0  0
  -27.3861  -27.6876   19.7657 C   0  0  0  0  0  0  0  0  0  0  0  0
  -23.2781  -10.2842   20.5040 C   0  0  0  0  0  0  0  0  0  0  0  0
  -23.1745   -7.7347   21.6320 C   0  0  0  0  0  0  0  0  0  0  0  0
  -28.4229  -21.9299   18.9964 C   0  0  0  0  0  0  0  0  0  0  0  0
  -22.0663   -9.7785   20.9746 C   0  0  0  0  0  0  0  0  0  0  0  0
  -26.6606  -15.3311   22.3674 C   0  0  0  0  0  0  0  0  0  0  0  0
  -28.3517  -16.3583   23.3267 C   0  0  0  0  0  0  0  0  0  0  0  0
  -28.7999  -13.9622   22.7733 C   0  0  0  0  0  0  0  0  0  0  0  0
  -23.1775  -29.5289   22.6573 C   0  0  0  0  0  0  0  0  0  0  0  0
  -21.3708  -27.1865   21.3264 C   0  0  0  0  0  0  0  0  0  0  0  0
  -21.1966  -24.5018   19.2266 C   0  0  0  0  0  0  0  0  0  0  0  0
  -26.5466  -21.9526   22.2539 C   0  0  0  0  0  0  0  0  0  0  0  0
  -22.3738  -33.9466   25.0854 C   0  0  0  0  0  0  0  0  0  0  0  0
  -23.6822  -29.8353   20.2063 C   0  0  0  0  0  0  0  0  0  0  0  0
  -23.8679  -26.9980   21.0189 C   0  0  0  0  0  0  0  0  0  0  0  0
  -21.5876  -32.6540   24.8816 C   0  0  0  0  0  0  0  0  0  0  0  0
  -26.5122  -20.2686   25.3908 C   0  0  0  0  0  0  0  0  0  0  0  0
  -22.4627  -31.4429   25.1886 C   0  0  0  0  0  0  0  0  0  0  0  0
  -26.6726  -18.7943   25.0126 C   0  0  0  0  0  0  0  0  0  0  0  0
  -25.6528  -21.0235   24.3783 C   0  0  0  0  0  0  0  0  0  0  0  0
  -26.2449  -19.4222   22.6022 C   0  0  0  0  0  0  0  0  0  0  0  0
  -23.6695  -31.3807   24.2446 C   0  0  1  0  0  0  0  0  0  0  0  0
  -22.7438  -29.2355   21.2489 C   0  0  1  0  0  0  0  0  0  0  0  0
  -27.1564  -18.6351   23.5579 C   0  0  2  0  0  0  0  0  0  0  0  0
  -19.5947  -22.7686   18.3740 C   0  0  0  0  0  0  0  0  0  0  0  0
  -21.5851  -25.6885   23.9760 C   0  0  0  0  0  0  0  0  0  0  0  0
  -20.8175  -23.6217   22.7897 C   0  0  0  0  0  0  0  0  0  0  0  0
  -19.3214  -25.6139   22.9155 C   0  0  0  0  0  0  0  0  0  0  0  0
  -21.5087  -25.4213   16.4309 C   0  0  0  0  0  0  0  0  0  0  0  0
  -30.0625  -25.5555   20.6140 C   0  0  0  0  0  0  0  0  0  0  0  0
  -21.3479  -25.6791   21.4051 C   0  0  1  0  0  0  0  0  0  0  0  0
  -20.2065  -24.1400   18.1342 C   0  0  2  0  0  0  0  0  0  0  0  0
  -20.7910  -25.1649   22.7626 C   0  0  0  0  0  0  0  0  0  0  0  0
  -26.2217  -16.5753   22.5758 N   0  0  0  0  0  0  0  0  0  0  0  0
  -27.2724  -17.1755   23.1605 N   0  0  0  0  0  0  0  0  0  0  0  0
  -22.6260  -27.7805   21.1329 N   0  0  0  0  0  0  0  0  0  0  0  0
  -26.1735  -20.8302   23.0231 N   0  0  0  0  0  0  0  0  0  0  0  0
  -29.4921  -16.8009   23.8977 N   0  0  0  0  0  0  0  0  0  0  0  0
  -28.2633  -12.7945   22.2141 N   0  0  0  0  0  0  0  0  0  0  0  0
  -27.0584  -21.6438   20.9940 N   0  0  0  0  0  0  0  0  0  0  0  0
  -23.2713  -30.8766   22.9478 N   0  0  0  0  0  0  0  0  0  0  0  0
  -20.5988  -25.2209   20.2400 N   0  0  0  0  0  0  0  0  0  0  0  0
  -29.0251  -26.5297   20.9209 N   0  0  0  0  0  0  0  0  0  1  0  0
  -20.8823  -24.1275   16.8060 N   0  3  0  0  0  0  0  0  0  0  0  0
  -29.9667  -13.9426   23.2333 O   0  0  0  0  0  0  0  0  0  0  0  0
  -23.4084  -28.6014   23.4241 O   0  0  0  0  0  0  0  0  0  0  0  0
  -20.3131  -27.8134   21.4257 O   0  0  0  0  0  0  0  0  0  0  0  0
  -22.3809  -24.1757   19.1869 O   0  0  0  0  0  0  0  0  0  0  0  0
  -26.4468  -23.1016   22.6918 O   0  0  0  0  0  0  0  0  0  0  0  0
  -23.3310  -11.5492   19.9431 O   0  0  0  0  0  0  0  0  0  0  0  0
  -28.5565  -27.0086   19.6208 O   0  0  0  0  0  0  0  0  0  1  0  0
  -23.1247   -6.5101   22.1722 F   0  0  0  0  0  0  0  0  0  0  0  0
  -27.9175  -20.8001   18.4810 F   0  0  0  0  0  0  0  0  0  0  0  0
  -20.9484  -10.5121   20.8866 F   0  0  0  0  0  0  0  0  0  0  0  0
  1  2  1  0  0  0  0
  1  5  2  0  0  0  0
  2  6  2  0  0  0  0
  3  9  2  0  0  0  0
  3 18  1  0  0  0  0
  4 10  1  0  0  0  0
  4 18  2  0  0  0  0
  5 20  1  0  0  0  0
  6 22  1  0  0  0  0
  7 11  2  0  0  0  0
  7 21  1  0  0  0  0
  8 13  2  0  0  0  0
  8 24  1  0  0  0  0
  9 26  1  0  0  0  0
 10 26  2  0  0  0  0
 11 27  1  0  0  0  0
 12 14  2  0  0  0  0
 12 28  1  0  0  0  0
 13 30  1  0  0  0  0
 14 29  1  0  0  0  0
 15 23  1  0  0  0  0
 15 27  2  0  0  0  0
 16 24  2  0  0  0  0
 16 25  1  0  0  0  0
 17 29  2  0  0  0  0
 17 31  1  0  0  0  0
 18 32  1  0  0  0  0
 19 32  1  0  0  0  0
 19 33  2  0  0  0  0
 19 34  1  0  0  0  0
 20 22  2  0  0  0  0
 20 39  1  0  0  0  0
 21 23  2  0  0  0  0
 21 40  1  0  0  0  0
 22 48  1  0  0  0  0
 23 41  1  0  0  0  0
 24 56  1  0  0  0  0
 25 30  2  0  0  0  0
 25 66  1  0  0  0  0
 26 76  1  0  0  0  0
 27 77  1  0  0  0  0
 28 31  2  0  0  0  0
 28 76  1  0  0  0  0
 29 78  1  0  0  0  0
 30 79  1  0  0  0  0
 31 80  1  0  0  0  0
 32 60  2  0  0  0  0
 33 61  1  0  0  0  0
 33 64  1  0  0  0  0
 34 65  1  0  0  0  0
 34 71  2  0  0  0  0
 35 49  1  0  0  0  0
 35 67  1  0  0  0  0
 35 72  2  0  0  0  0
 36 57  1  0  0  0  0
 36 62  1  0  0  0  0
 36 73  2  0  0  0  0
 37 58  1  0  0  0  0
 37 68  1  0  0  0  0
 37 74  2  0  0  0  0
 38 63  1  0  0  0  0
 38 66  1  0  0  0  0
 38 75  2  0  0  0  0
 39 42  1  0  0  0  0
 40 49  1  0  0  0  0
 41 62  1  0  0  0  0
 42 44  1  0  0  0  0
 43 45  1  0  0  0  0
 43 46  1  0  0  0  0
 44 48  1  0  0  0  0
 45 50  1  0  0  0  0
 46 63  1  0  0  0  0
 47 50  1  0  0  0  0
 47 63  1  0  0  0  0
 48 67  1  0  0  0  0
 49 62  1  0  0  0  0
 50 61  1  0  0  0  0
 51 58  1  0  0  0  0
 52 59  1  0  0  0  0
 53 59  1  0  0  0  0
 54 59  1  0  0  0  0
 55 70  1  0  0  0  0
 56 69  1  0  0  0  0
 57 59  1  0  0  0  0
 57 68  1  0  0  0  0
 58 70  1  0  0  0  0
 60 61  1  0  0  0  0
 69 77  1  0  0  0  0
M  CHG  1  70   1
M  ISO  4  38 100  66 100  69 101  77 101
M  END
> <Batch ID>
0008

> <Smiles>
CNC(C)C(=O)NC(C(=O)N1Cc2cc([101O:1][101NH:1]Cc3ccc(F)c([100NH:0][100C:0](=O)N4CCCC(n5nc(-c6ccc(Oc7ccc(F)cc7F)cc6)c(C(N)=O)c5N)C4)c3)ccc2CC1C(=O)NC1CCCc2ccccc21)C(C)(C)C

> <Shape>
0.250

> <Color>
0.065

> <Negative vol penalty>
0.000

$$$$

  -OEChem-04042320353D

 78 85  0     1  0  0  0  0  0999 V2000
  -25.4807  -33.6002   25.4361 C   0  0  0  0  0  0  0  0  0  0  0  0
  -26.5139  -32.8454   24.8899 C   0  0  0  0  0  0  0  0  0  0  0  0
  -26.9001  -13.1341   20.9436 C   0  0  0  0  0  0  0  0  0  0  0  0
  -27.0731  -13.0818   18.5343 C   0  0  0  0  0  0  0  0  0  0  0  0
  -24.2165  -33.0350   25.5985 C   0  0  0  0  0  0  0  0  0  0  0  0
  -26.2837  -31.5245   24.5069 C   0  0  0  0  0  0  0  0  0  0  0  0
  -28.8034  -28.5729   19.7693 C   0  0  0  0  0  0  0  0  0  0  0  0
  -26.2991  -11.8754   20.9278 C   0  0  0  0  0  0  0  0  0  0  0  0
  -26.4722  -11.8231   18.5185 C   0  0  0  0  0  0  0  0  0  0  0  0
  -29.8761  -27.6868   19.6794 C   0  0  0  0  0  0  0  0  0  0  0  0
  -24.3923   -8.8313   21.4938 C   0  0  0  0  0  0  0  0  0  0  0  0
  -23.2654   -8.6389   22.2930 C   0  0  0  0  0  0  0  0  0  0  0  0
  -28.3421  -25.8282   19.7873 C   0  0  0  0  0  0  0  0  0  0  0  0
  -22.1132  -10.3886   21.0895 C   0  0  0  0  0  0  0  0  0  0  0  0
  -27.2870  -13.7373   19.7468 C   0  0  0  0  0  0  0  0  0  0  0  0
  -29.2829  -15.3224   19.8549 C   0  0  0  0  0  0  0  0  0  0  0  0
  -23.9683  -31.7096   25.2084 C   0  0  0  0  0  0  0  0  0  0  0  0
  -27.4907  -28.0924   19.8801 C   0  0  0  0  0  0  0  0  0  0  0  0
  -25.0154  -30.9407   24.6655 C   0  0  0  0  0  0  0  0  0  0  0  0
  -27.2543  -26.7103   19.8760 C   0  0  0  0  0  0  0  0  0  0  0  0
  -26.0852  -11.2199   19.7153 C   0  0  0  0  0  0  0  0  0  0  0  0
  -29.6458  -26.3143   19.6912 C   0  0  0  0  0  0  0  0  0  0  0  0
  -24.3797   -9.8024   20.4925 C   0  0  0  0  0  0  0  0  0  0  0  0
  -22.1258   -9.4175   22.0908 C   0  0  0  0  0  0  0  0  0  0  0  0
  -23.2402  -10.5810   20.2904 C   0  0  0  0  0  0  0  0  0  0  0  0
  -27.9073  -15.0377   19.7625 C   0  0  0  0  0  0  0  0  0  0  0  0
  -29.3522  -16.6939   19.8292 C   0  0  0  0  0  0  0  0  0  0  0  0
  -30.3983  -14.4271   19.9549 C   0  0  0  0  0  0  0  0  0  0  0  0
  -25.1965  -28.3184   22.0686 C   0  0  0  0  0  0  0  0  0  0  0  0
  -23.4312  -26.7989   19.8110 C   0  0  0  0  0  0  0  0  0  0  0  0
  -30.7610  -22.9720   17.7172 C   0  0  0  0  0  0  0  0  0  0  0  0
  -23.3625  -24.7737   17.0649 C   0  0  0  0  0  0  0  0  0  0  0  0
  -27.7827  -21.6071   17.6980 C   0  0  0  0  0  0  0  0  0  0  0  0
  -22.5977  -31.1271   25.4472 C   0  0  0  0  0  0  0  0  0  0  0  0
  -26.3424  -29.0614   19.9494 C   0  0  0  0  0  0  0  0  0  0  0  0
  -25.8622  -26.1436   19.9726 C   0  0  0  0  0  0  0  0  0  0  0  0
  -22.3393  -29.8392   24.6696 C   0  0  0  0  0  0  0  0  0  0  0  0
  -25.7098  -20.1822   20.2178 C   0  0  0  0  0  0  0  0  0  0  0  0
  -23.5256  -28.8893   24.8007 C   0  0  0  0  0  0  0  0  0  0  0  0
  -26.2060  -18.7393   20.3269 C   0  0  0  0  0  0  0  0  0  0  0  0
  -25.7519  -20.6861   18.7768 C   0  0  0  0  0  0  0  0  0  0  0  0
  -27.5557  -19.1023   18.2185 C   0  0  0  0  0  0  0  0  0  0  0  0
  -24.7985  -29.5123   24.2150 C   0  0  1  0  0  0  0  0  0  0  0  0
  -25.0890  -28.4587   20.5765 C   0  0  1  0  0  0  0  0  0  0  0  0
  -27.5846  -18.5686   19.6610 C   0  0  2  0  0  0  0  0  0  0  0  0
  -21.7700  -23.6771   15.4653 C   0  0  0  0  0  0  0  0  0  0  0  0
  -22.7314  -24.7227   21.9347 C   0  0  0  0  0  0  0  0  0  0  0  0
  -21.9658  -23.2037   20.0977 C   0  0  0  0  0  0  0  0  0  0  0  0
  -20.8244  -25.3917   20.4615 C   0  0  0  0  0  0  0  0  0  0  0  0
  -31.6237  -24.5045   15.9148 C   0  0  0  0  0  0  0  0  0  0  0  0
  -24.5091  -26.2195   14.7510 C   0  0  0  0  0  0  0  0  0  0  0  0
  -29.8839  -22.3810   16.6277 C   0  0  0  0  0  0  0  0  0  0  0  0
  -32.4987  -24.6906   18.2113 C   0  0  0  0  0  0  0  0  0  0  0  0
  -31.8388  -25.8845   18.8778 C   0  0  0  0  0  0  0  0  0  1  0  0
  -23.1485  -25.3564   19.4668 C   0  0  1  0  0  0  0  0  0  0  0  0
  -22.6336  -24.8986   15.7392 C   0  0  2  0  0  0  0  0  0  0  0  0
  -22.1940  -24.6790   20.4903 C   0  0  0  0  0  0  0  0  0  0  0  0
  -27.1568  -16.1398   19.6842 N   0  0  0  0  0  0  0  0  0  0  0  0
  -28.0641  -17.1303   19.7274 N   0  0  0  0  0  0  0  0  0  0  0  0
  -24.7730  -27.1315   20.0445 N   0  0  0  0  0  0  0  0  0  0  0  0
  -27.0869  -20.4969   18.2041 N   0  0  0  0  0  0  0  0  0  0  0  0
  -30.3887  -17.5570   19.8842 N   0  0  0  0  0  0  0  0  0  0  0  0
  -30.1490  -13.0479   19.9676 N   0  0  0  0  0  0  0  0  0  0  0  0
  -24.7808  -29.4341   22.7700 N   0  0  0  0  0  0  0  0  0  0  0  0
  -22.6525  -25.3538   18.0948 N   0  0  0  0  0  0  0  0  0  0  0  0
  -29.0440  -21.3411   17.1791 N   0  0  0  0  0  0  0  0  0  0  0  0
  -31.6053  -24.0247   17.3011 N   0  0  0  0  0  0  0  0  0  0  0  0
  -23.6101  -25.0438   14.6228 N   0  3  0  0  0  0  0  0  0  0  0  0
  -31.5798  -14.8383   20.0471 O   0  0  0  0  0  0  0  0  0  0  0  0
  -25.6236  -27.2747   22.5481 O   0  0  0  0  0  0  0  0  0  0  0  0
  -22.4967  -27.6023   19.8636 O   0  0  0  0  0  0  0  0  0  0  0  0
  -30.7133  -22.5375   18.8711 O   0  0  0  0  0  0  0  0  0  0  0  0
  -24.4511  -24.2141   17.1764 O   0  0  0  0  0  0  0  0  0  0  0  0
  -27.3169  -22.7516   17.7127 O   0  0  0  0  0  0  0  0  0  0  0  0
  -25.4991   -9.9916   19.6995 O   0  0  0  0  0  0  0  0  0  0  0  0
  -30.6910  -25.4472   19.6042 O   0  0  0  0  0  0  0  0  0  1  0  0
  -21.0432   -9.2316   22.8573 F   0  0  0  0  0  0  0  0  0  0  0  0
  -23.2218  -11.5146   19.3293 F   0  0  0  0  0  0  0  0  0  0  0  0
  1  2  1  0  0  0  0
  1  5  2  0  0  0  0
  2  6  2  0  0  0  0
  3  8  2  0  0  0  0
  3 15  1  0  0  0  0
  4  9  1  0  0  0  0
  4 15  2  0  0  0  0
  5 17  1  0  0  0  0
  6 19  1  0  0  0  0
  7 10  2  0  0  0  0
  7 18  1  0  0  0  0
  8 21  1  0  0  0  0
  9 21  2  0  0  0  0
 10 22  1  0  0  0  0
 11 12  2  0  0  0  0
 11 23  1  0  0  0  0
 12 24  1  0  0  0  0
 13 20  1  0  0  0  0
 13 22  2  0  0  0  0
 14 24  2  0  0  0  0
 14 25  1  0  0  0  0
 15 26  1  0  0  0  0
 16 26  1  0  0  0  0
 16 27  2  0  0  0  0
 16 28  1  0  0  0  0
 17 19  2  0  0  0  0
 17 34  1  0  0  0  0
 18 20  2  0  0  0  0
 18 35  1  0  0  0  0
 19 43  1  0  0  0  0
 20 36  1  0  0  0  0
 21 75  1  0  0  0  0
 22 76  1  0  0  0  0
 23 25  2  0  0  0  0
 23 75  1  0  0  0  0
 24 77  1  0  0  0  0
 25 78  1  0  0  0  0
 26 58  2  0  0  0  0
 27 59  1  0  0  0  0
 27 62  1  0  0  0  0
 28 63  1  0  0  0  0
 28 69  2  0  0  0  0
 29 44  1  0  0  0  0
 29 64  1  0  0  0  0
 29 70  2  0  0  0  0
 30 55  1  0  0  0  0
 30 60  1  0  0  0  0
 30 71  2  0  0  0  0
 31 52  1  0  0  0  0
 31 67  1  0  0  0  0
 31 72  2  0  0  0  0
 32 56  1  0  0  0  0
 32 65  1  0  0  0  0
 32 73  2  0  0  0  0
 33 61  1  0  0  0  0
 33 66  1  0  0  0  0
 33 74  2  0  0  0  0
 34 37  1  0  0  0  0
 35 44  1  0  0  0  0
 36 60  1  0  0  0  0
 37 39  1  0  0  0  0
 38 40  1  0  0  0  0
 38 41  1  0  0  0  0
 39 43  1  0  0  0  0
 40 45  1  0  0  0  0
 41 61  1  0  0  0  0
 42 45  1  0  0  0  0
 42 61  1  0  0  0  0
 43 64  1  0  0  0  0
 44 60  1  0  0  0  0
 45 59  1  0  0  0  0
 46 56  1  0  0  0  0
 47 57  1  0  0  0  0
 48 57  1  0  0  0  0
 49 57  1  0  0  0  0
 50 67  1  0  0  0  0
 51 68  1  0  0  0  0
 52 66  1  0  0  0  0
 53 54  1  0  0  0  0
 53 67  1  0  0  0  0
 54 76  1  0  0  0  0
 55 57  1  0  0  0  0
 55 65  1  0  0  0  0
 56 68  1  0  0  0  0
 58 59  1  0  0  0  0
M  CHG  1  68   1
M  ISO  4  33 100  54 101  66 100  76 101
M  END
> <Batch ID>
0008

> <Smiles>
CNC(C)C(=O)NC(C(=O)N1Cc2cc([101O:1][101CH2:1]CN(C)C(=O)C[100NH:0][100C:0](=O)N3CCCC(n4nc(-c5ccc(Oc6ccc(F)cc6F)cc5)c(C(N)=O)c4N)C3)ccc2CC1C(=O)NC1CCCc2ccccc21)C(C)(C)C

> <Shape>
0.242

> <Color>
0.091

> <Negative vol penalty>
0.000

$$$$

  -OEChem-04042320353D

 86 95  0     1  0  0  0  0  0999 V2000
  -28.6893  -33.2723   25.0765 C   0  0  0  0  0  0  0  0  0  0  0  0
  -28.6780  -32.0329   24.4447 C   0  0  0  0  0  0  0  0  0  0  0  0
  -23.5431  -10.3300   21.3558 C   0  0  0  0  0  0  0  0  0  0  0  0
  -22.9721  -12.2350   22.7277 C   0  0  0  0  0  0  0  0  0  0  0  0
  -27.5262  -33.7620   25.6693 C   0  0  0  0  0  0  0  0  0  0  0  0
  -27.5037  -31.2819   24.4063 C   0  0  0  0  0  0  0  0  0  0  0  0
  -26.6134  -29.3011   19.8315 C   0  0  0  0  0  0  0  0  0  0  0  0
  -30.1046  -21.1856   20.2271 C   0  0  0  0  0  0  0  0  0  0  0  0
  -30.0498  -19.7936   20.2956 C   0  0  0  0  0  0  0  0  0  0  0  0
  -22.7334   -9.5165   22.1484 C   0  0  0  0  0  0  0  0  0  0  0  0
  -22.1624  -11.4215   23.5203 C   0  0  0  0  0  0  0  0  0  0  0  0
  -27.3420  -28.1668   19.4760 C   0  0  0  0  0  0  0  0  0  0  0  0
  -22.5685   -9.1782   26.0170 C   0  0  0  0  0  0  0  0  0  0  0  0
  -22.6677   -9.3171   27.4013 C   0  0  0  0  0  0  0  0  0  0  0  0
  -25.4479  -26.7820   20.0364 C   0  0  0  0  0  0  0  0  0  0  0  0
  -27.9224  -19.8209   19.1509 C   0  0  0  0  0  0  0  0  0  0  0  0
  -20.3293   -9.9152   27.5089 C   0  0  0  0  0  0  0  0  0  0  0  0
  -23.6625  -11.6893   21.6455 C   0  0  0  0  0  0  0  0  0  0  0  0
  -24.1188  -13.2453   19.6761 C   0  0  0  0  0  0  0  0  0  0  0  0
  -26.3346  -33.0209   25.6297 C   0  0  0  0  0  0  0  0  0  0  0  0
  -25.2981  -29.1833   20.3032 C   0  0  0  0  0  0  0  0  0  0  0  0
  -26.3239  -31.7615   25.0002 C   0  0  0  0  0  0  0  0  0  0  0  0
  -24.7039  -27.9166   20.3947 C   0  0  0  0  0  0  0  0  0  0  0  0
  -27.9771  -21.2130   19.0824 C   0  0  0  0  0  0  0  0  0  0  0  0
  -29.0682  -21.8954   19.6205 C   0  0  0  0  0  0  0  0  0  0  0  0
  -28.9588  -19.1112   19.7575 C   0  0  0  0  0  0  0  0  0  0  0  0
  -22.0430  -10.0623   23.2306 C   0  0  0  0  0  0  0  0  0  0  0  0
  -26.7602  -26.9068   19.5812 C   0  0  0  0  0  0  0  0  0  0  0  0
  -21.3497   -9.4079   25.3785 C   0  0  0  0  0  0  0  0  0  0  0  0
  -21.5481   -9.6856   28.1473 C   0  0  0  0  0  0  0  0  0  0  0  0
  -20.2302   -9.7764   26.1245 C   0  0  0  0  0  0  0  0  0  0  0  0
  -24.4992  -12.5300   20.8274 C   0  0  0  0  0  0  0  0  0  0  0  0
  -25.2670  -13.8815   19.2721 C   0  0  0  0  0  0  0  0  0  0  0  0
  -22.8416  -13.3274   19.0298 C   0  0  0  0  0  0  0  0  0  0  0  0
  -23.8180  -29.8999   23.0233 C   0  0  0  0  0  0  0  0  0  0  0  0
  -21.1733  -29.0256   21.3610 C   0  0  0  0  0  0  0  0  0  0  0  0
  -19.8318  -27.2371   18.7825 C   0  0  0  0  0  0  0  0  0  0  0  0
  -29.8479  -16.8415   20.3934 C   0  0  0  0  0  0  0  0  0  0  0  0
  -25.1146  -33.5704   26.3255 C   0  0  0  0  0  0  0  0  0  0  0  0
  -24.5165  -30.4187   20.6572 C   0  0  0  0  0  0  0  0  0  0  0  0
  -23.2880  -27.7378   20.8761 C   0  0  0  0  0  0  0  0  0  0  0  0
  -23.8165  -32.8800   25.9149 C   0  0  0  0  0  0  0  0  0  0  0  0
  -30.0599  -13.3102   20.7965 C   0  0  0  0  0  0  0  0  0  0  0  0
  -23.9921  -31.3648   25.9227 C   0  0  0  0  0  0  0  0  0  0  0  0
  -28.6008  -12.8513   20.7458 C   0  0  0  0  0  0  0  0  0  0  0  0
  -29.8465  -25.4444   18.9891 C   0  0  0  0  0  0  0  0  0  0  0  0
  -30.2079  -14.6519   21.5119 C   0  0  0  0  0  0  0  0  0  0  0  0
  -29.7517  -24.0120   18.4638 C   0  0  0  0  0  0  0  0  0  0  0  0
  -27.8902  -15.2681   20.9481 C   0  0  0  0  0  0  0  0  0  0  0  0
  -28.6016  -24.1631   20.5911 C   0  0  0  0  0  0  0  0  0  0  0  0
  -25.0634  -30.9284   24.9160 C   0  0  1  0  0  0  0  0  0  0  0  0
  -23.3602  -30.1408   21.6127 C   0  0  1  0  0  0  0  0  0  0  0  0
  -27.6830  -13.9526   20.1799 C   0  0  2  0  0  0  0  0  0  0  0  0
  -28.6732  -25.5495   19.9524 C   0  0  2  0  0  0  0  0  0  1  0  0
  -17.6364  -26.6896   17.6972 C   0  0  0  0  0  0  0  0  0  0  0  0
  -20.5276  -27.1046   23.6419 C   0  0  0  0  0  0  0  0  0  0  0  0
  -18.9198  -25.9421   22.1149 C   0  0  0  0  0  0  0  0  0  0  0  0
  -18.5531  -28.3335   22.7224 C   0  0  0  0  0  0  0  0  0  0  0  0
  -20.6697  -28.4421   16.2125 C   0  0  0  0  0  0  0  0  0  0  0  0
  -20.4296  -27.7307   21.1390 C   0  0  1  0  0  0  0  0  0  0  0  0
  -18.8391  -27.6204   17.6999 C   0  0  2  0  0  0  0  0  0  0  0  0
  -26.8530  -21.9485   18.4284 C   0  0  0  0  0  0  0  0  0  0  0  0
  -19.6349  -27.2806   22.3973 C   0  0  0  0  0  0  0  0  0  0  0  0
  -25.7884  -12.6956   21.1348 N   0  0  0  0  0  0  0  0  0  0  0  0
  -26.2281  -13.5223   20.1707 N   0  0  0  0  0  0  0  0  0  0  0  0
  -29.1383  -23.2714   19.5622 N   0  0  3  0  0  0  0  0  0  0  0  0
  -22.5670  -28.9755   21.2163 N   0  0  0  0  0  0  0  0  0  0  0  0
  -29.3116  -15.6471   20.9193 N   0  0  0  0  0  0  0  0  0  0  0  0
  -25.5383  -14.7074   18.2393 N   0  0  0  0  0  0  0  0  0  0  0  0
  -21.7685  -12.6109   19.5770 N   0  0  0  0  0  0  0  0  0  0  0  0
  -28.9036  -17.6970   19.8267 N   0  0  0  0  0  0  0  0  0  0  0  0
  -24.5311  -30.9495   23.5704 N   0  0  0  0  0  0  0  0  0  0  0  0
  -19.6056  -27.9315   19.9520 N   0  0  0  0  0  0  0  0  0  0  0  0
  -19.4853  -27.5572   16.3585 N   0  3  0  0  0  0  0  0  0  0  0  0
  -22.6613  -14.0028   17.9882 O   0  0  0  0  0  0  0  0  0  0  0  0
  -23.5433  -28.8408   23.5752 O   0  0  0  0  0  0  0  0  0  0  0  0
  -20.5403  -30.0455   21.6450 O   0  0  0  0  0  0  0  0  0  0  0  0
  -20.7170  -26.4022   18.6092 O   0  0  0  0  0  0  0  0  0  0  0  0
  -31.0590  -17.0750   20.4177 O   0  0  0  0  0  0  0  0  0  0  0  0
  -21.2527   -9.2688   24.0041 O   0  0  0  0  0  0  0  0  0  0  0  0
  -27.4693  -25.7979   19.2355 O   0  0  0  0  0  0  0  0  0  1  0  0
  -21.6432   -9.8174   29.4768 F   0  0  0  0  0  0  0  0  0  0  0  0
  -19.0563   -9.9972   25.5169 F   0  0  0  0  0  0  0  0  0  0  0  0
  -25.8672  -21.1300   17.9578 F   0  0  0  0  0  0  0  0  0  0  0  0
  -26.2220  -22.8282   19.2594 F   0  0  0  0  0  0  0  0  0  0  0  0
  -27.2639  -22.6844   17.3562 F   0  0  0  0  0  0  0  0  0  0  0  0
  1  2  1  0  0  0  0
  1  5  2  0  0  0  0
  2  6  2  0  0  0  0
  3 10  2  0  0  0  0
  3 18  1  0  0  0  0
  4 11  1  0  0  0  0
  4 18  2  0  0  0  0
  5 20  1  0  0  0  0
  6 22  1  0  0  0  0
  7 12  2  0  0  0  0
  7 21  1  0  0  0  0
  8  9  2  0  0  0  0
  8 25  1  0  0  0  0
  9 26  1  0  0  0  0
 10 27  1  0  0  0  0
 11 27  2  0  0  0  0
 12 28  1  0  0  0  0
 13 14  2  0  0  0  0
 13 29  1  0  0  0  0
 14 30  1  0  0  0  0
 15 23  1  0  0  0  0
 15 28  2  0  0  0  0
 16 24  1  0  0  0  0
 16 26  2  0  0  0  0
 17 30  2  0  0  0  0
 17 31  1  0  0  0  0
 18 32  1  0  0  0  0
 19 32  1  0  0  0  0
 19 33  2  0  0  0  0
 19 34  1  0  0  0  0
 20 22  2  0  0  0  0
 20 39  1  0  0  0  0
 21 23  2  0  0  0  0
 21 40  1  0  0  0  0
 22 51  1  0  0  0  0
 23 41  1  0  0  0  0
 24 25  2  0  0  0  0
 24 62  1  0  0  0  0
 25 66  1  0  0  0  0
 26 71  1  0  0  0  0
 27 80  1  0  0  0  0
 28 81  1  0  0  0  0
 29 31  2  0  0  0  0
 29 80  1  0  0  0  0
 30 82  1  0  0  0  0
 31 83  1  0  0  0  0
 32 64  2  0  0  0  0
 33 65  1  0  0  0  0
 33 69  1  0  0  0  0
 34 70  1  0  0  0  0
 34 75  2  0  0  0  0
 35 52  1  0  0  0  0
 35 72  1  0  0  0  0
 35 76  2  0  0  0  0
 36 60  1  0  0  0  0
 36 67  1  0  0  0  0
 36 77  2  0  0  0  0
 37 61  1  0  0  0  0
 37 73  1  0  0  0  0
 37 78  2  0  0  0  0
 38 68  1  0  0  0  0
 38 71  1  0  0  0  0
 38 79  2  0  0  0  0
 39 42  1  0  0  0  0
 40 52  1  0  0  0  0
 41 67  1  0  0  0  0
 42 44  1  0  0  0  0
 43 45  1  0  0  0  0
 43 47  1  0  0  0  0
 44 51  1  0  0  0  0
 45 53  1  0  0  0  0
 46 48  1  0  0  0  0
 46 54  1  0  0  0  0
 47 68  1  0  0  0  0
 48 66  1  0  0  0  0
 49 53  1  0  0  0  0
 49 68  1  0  0  0  0
 50 54  1  0  0  0  0
 50 66  1  0  0  0  0
 51 72  1  0  0  0  0
 52 67  1  0  0  0  0
 53 65  1  0  0  0  0
 54 81  1  0  0  0  0
 55 61  1  0  0  0  0
 56 63  1  0  0  0  0
 57 63  1  0  0  0  0
 58 63  1  0  0  0  0
 59 74  1  0  0  0  0
 60 63  1  0  0  0  0
 60 73  1  0  0  0  0
 61 74  1  0  0  0  0
 62 84  1  0  0  0  0
 62 85  1  0  0  0  0
 62 86  1  0  0  0  0
 64 65  1  0  0  0  0
M  CHG  1  74   1
M  ISO  4  38 100  54 101  71 100  81 101
M  END
> <Batch ID>
0008

> <Smiles>
CNC(C)C(=O)NC(C(=O)N1Cc2cc([101O:1][101CH:1]3CCN(c4ccc([100NH:0][100C:0](=O)N5CCCC(n6nc(-c7ccc(Oc8ccc(F)cc8F)cc7)c(C(N)=O)c6N)C5)cc4C(F)(F)F)C3)ccc2CC1C(=O)NC1CCCc2ccccc21)C(C)(C)C

> <Shape>
0.325

> <Color>
0.065

> <Negative vol penalty>
0.000

$$$$

  -OEChem-04042320353D

 78 86  0     1  0  0  0  0  0999 V2000
  -27.8982  -37.7337   24.1018 C   0  0  0  0  0  0  0  0  0  0  0  0
  -28.4405  -36.6390   23.4363 C   0  0  0  0  0  0  0  0  0  0  0  0
  -24.8696  -14.4150   21.9673 C   0  0  0  0  0  0  0  0  0  0  0  0
  -26.4005  -12.7738   21.0730 C   0  0  0  0  0  0  0  0  0  0  0  0
  -26.8662  -37.5482   25.0207 C   0  0  0  0  0  0  0  0  0  0  0  0
  -27.9518  -35.3579   23.6902 C   0  0  0  0  0  0  0  0  0  0  0  0
  -27.4259  -30.7570   19.6826 C   0  0  0  0  0  0  0  0  0  0  0  0
  -23.7906  -13.6305   21.5601 C   0  0  0  0  0  0  0  0  0  0  0  0
  -25.3214  -11.9892   20.6658 C   0  0  0  0  0  0  0  0  0  0  0  0
  -28.2296  -29.6496   19.4151 C   0  0  0  0  0  0  0  0  0  0  0  0
  -23.1357   -9.8353   22.0813 C   0  0  0  0  0  0  0  0  0  0  0  0
  -23.1975   -8.4662   22.3407 C   0  0  0  0  0  0  0  0  0  0  0  0
  -26.8477  -28.3043   20.8642 C   0  0  0  0  0  0  0  0  0  0  0  0
  -23.0368   -8.0105   19.9735 C   0  0  0  0  0  0  0  0  0  0  0  0
  -26.1746  -13.9867   21.7237 C   0  0  0  0  0  0  0  0  0  0  0  0
  -27.9588  -14.7465   23.3811 C   0  0  0  0  0  0  0  0  0  0  0  0
  -26.3580  -36.2653   25.2789 C   0  0  0  0  0  0  0  0  0  0  0  0
  -26.3317  -30.6487   20.5529 C   0  0  0  0  0  0  0  0  0  0  0  0
  -26.9129  -35.1549   24.6145 C   0  0  0  0  0  0  0  0  0  0  0  0
  -26.0302  -29.4111   21.1390 C   0  0  0  0  0  0  0  0  0  0  0  0
  -24.0165  -12.4176   20.9094 C   0  0  0  0  0  0  0  0  0  0  0  0
  -27.9423  -28.4237   20.0082 C   0  0  0  0  0  0  0  0  0  0  0  0
  -23.0243  -10.2921   20.7681 C   0  0  0  0  0  0  0  0  0  0  0  0
  -23.1481   -7.5538   21.2868 C   0  0  0  0  0  0  0  0  0  0  0  0
  -22.9749   -9.3797   19.7141 C   0  0  0  0  0  0  0  0  0  0  0  0
  -27.2896  -14.7970   22.1436 C   0  0  0  0  0  0  0  0  0  0  0  0
  -28.9343  -15.7084   23.2834 C   0  0  0  0  0  0  0  0  0  0  0  0
  -27.7200  -13.9053   24.5173 C   0  0  0  0  0  0  0  0  0  0  0  0
  -25.5316  -31.9790   23.3267 C   0  0  0  0  0  0  0  0  0  0  0  0
  -22.7476  -30.3861   22.8427 C   0  0  0  0  0  0  0  0  0  0  0  0
  -21.1185  -27.7890   21.3434 C   0  0  0  0  0  0  0  0  0  0  0  0
  -29.1011  -20.5692   19.6973 C   0  0  0  0  0  0  0  0  0  0  0  0
  -25.2739  -36.1090   26.3157 C   0  0  0  0  0  0  0  0  0  0  0  0
  -25.4587  -31.8463   20.8102 C   0  0  0  0  0  0  0  0  0  0  0  0
  -24.8549  -29.2374   22.0648 C   0  0  0  0  0  0  0  0  0  0  0  0
  -24.5584  -34.7621   26.2505 C   0  0  0  0  0  0  0  0  0  0  0  0
  -31.6915  -17.9424   20.0781 C   0  0  0  0  0  0  0  0  0  0  0  0
  -25.5692  -33.6259   26.1318 C   0  0  0  0  0  0  0  0  0  0  0  0
  -30.8845  -16.8170   20.7271 C   0  0  0  0  0  0  0  0  0  0  0  0
  -31.6736  -23.1868   19.9033 C   0  0  0  0  0  0  0  0  0  0  0  0
  -30.8128  -18.7850   19.1628 C   0  0  0  0  0  0  0  0  0  0  0  0
  -31.4056  -21.6907   19.7727 C   0  0  0  0  0  0  0  0  0  0  0  0
  -28.7992  -18.2476   20.4794 C   0  0  0  0  0  0  0  0  0  0  0  0
  -29.4899  -22.9127   18.9880 C   0  0  0  0  0  0  0  0  0  0  0  0
  -26.3928  -33.7525   24.8445 C   0  0  1  0  0  0  0  0  0  0  0  0
  -24.6747  -31.7449   22.1149 C   0  0  1  0  0  0  0  0  0  0  0  0
  -29.6289  -17.3656   21.4292 C   0  0  1  0  0  0  0  0  0  0  0  0
  -30.7401  -23.7618   18.8485 C   0  0  1  0  0  0  0  0  0  0  0  0
  -18.8535  -26.7230   21.1670 C   0  0  0  0  0  0  0  0  0  0  0  0
  -23.1081  -29.1670   25.6164 C   0  0  0  0  0  0  0  0  0  0  0  0
  -21.3939  -27.4470   25.0069 C   0  0  0  0  0  0  0  0  0  0  0  0
  -20.7663  -29.8603   25.0779 C   0  0  0  0  0  0  0  0  0  0  0  0
  -20.9948  -28.2625   18.4246 C   0  0  0  0  0  0  0  0  0  0  0  0
  -29.5918  -25.8411   18.0763 C   0  0  0  0  0  0  0  0  0  0  0  0
  -29.3566  -27.2855   18.4719 C   0  0  0  0  0  0  0  0  0  1  0  0
  -22.2257  -29.0140   23.1948 C   0  0  1  0  0  0  0  0  0  0  0  0
  -19.8178  -27.7319   20.5628 C   0  0  2  0  0  0  0  0  0  0  0  0
  -21.8969  -28.8755   24.7081 C   0  0  0  0  0  0  0  0  0  0  0  0
  -27.7970  -15.7181   21.3202 N   0  0  0  0  0  0  0  0  0  0  0  0
  -28.7954  -16.2555   22.0418 N   0  0  0  0  0  0  0  0  0  0  0  0
  -24.0350  -30.4394   22.2900 N   0  0  0  0  0  0  0  0  0  0  0  0
  -29.6345  -19.2876   19.8747 N   0  0  0  0  0  0  0  0  0  0  0  0
  -29.9893  -21.6025   19.4022 N   0  0  0  0  0  0  0  0  0  0  0  0
  -29.8888  -16.1313   24.1393 N   0  0  0  0  0  0  0  0  0  0  0  0
  -26.6775  -12.9710   24.4496 N   0  0  0  0  0  0  0  0  0  0  0  0
  -25.6213  -33.3050   23.7048 N   0  0  0  0  0  0  0  0  0  0  0  0
  -21.0903  -28.7701   22.3118 N   0  0  0  0  0  0  0  0  0  0  0  0
  -30.4574  -25.1843   19.1005 N   0  3  0  0  0  0  0  0  0  0  0  0
  -20.0794  -27.3430   19.1481 N   0  3  0  0  0  0  0  0  0  0  0  0
  -28.4000  -13.9913   25.5679 O   0  0  0  0  0  0  0  0  0  0  0  0
  -26.0703  -31.0268   23.8788 O   0  0  0  0  0  0  0  0  0  0  0  0
  -22.0362  -31.3736   23.0437 O   0  0  0  0  0  0  0  0  0  0  0  0
  -22.0635  -27.0359   21.1192 O   0  0  0  0  0  0  0  0  0  0  0  0
  -27.8917  -20.7900   19.8441 O   0  0  0  0  0  0  0  0  0  0  0  0
  -22.9638  -11.6517   20.5122 O   0  0  0  0  0  0  0  0  0  0  0  0
  -28.7311  -27.3336   19.7474 O   0  0  0  0  0  0  0  0  0  1  0  0
  -23.2090   -6.2391   21.5359 F   0  0  0  0  0  0  0  0  0  0  0  0
  -22.8692   -9.8125   18.4503 F   0  0  0  0  0  0  0  0  0  0  0  0
  1  2  1  0  0  0  0
  1  5  2  0  0  0  0
  2  6  2  0  0  0  0
  3  8  2  0  0  0  0
  3 15  1  0  0  0  0
  4  9  1  0  0  0  0
  4 15  2  0  0  0  0
  5 17  1  0  0  0  0
  6 19  1  0  0  0  0
  7 10  2  0  0  0  0
  7 18  1  0  0  0  0
  8 21  1  0  0  0  0
  9 21  2  0  0  0  0
 10 22  1  0  0  0  0
 11 12  2  0  0  0  0
 11 23  1  0  0  0  0
 12 24  1  0  0  0  0
 13 20  1  0  0  0  0
 13 22  2  0  0  0  0
 14 24  2  0  0  0  0
 14 25  1  0  0  0  0
 15 26  1  0  0  0  0
 16 26  1  0  0  0  0
 16 27  2  0  0  0  0
 16 28  1  0  0  0  0
 17 19  2  0  0  0  0
 17 33  1  0  0  0  0
 18 20  2  0  0  0  0
 18 34  1  0  0  0  0
 19 45  1  0  0  0  0
 20 35  1  0  0  0  0
 21 75  1  0  0  0  0
 22 76  1  0  0  0  0
 23 25  2  0  0  0  0
 23 75  1  0  0  0  0
 24 77  1  0  0  0  0
 25 78  1  0  0  0  0
 26 59  2  0  0  0  0
 27 60  1  0  0  0  0
 27 64  1  0  0  0  0
 28 65  1  0  0  0  0
 28 70  2  0  0  0  0
 29 46  1  0  0  0  0
 29 66  1  0  0  0  0
 29 71  2  0  0  0  0
 30 56  1  0  0  0  0
 30 61  1  0  0  0  0
 30 72  2  0  0  0  0
 31 57  1  0  0  0  0
 31 67  1  0  0  0  0
 31 73  2  0  0  0  0
 32 62  1  0  0  0  0
 32 63  1  0  0  0  0
 32 74  2  0  0  0  0
 33 36  1  0  0  0  0
 34 46  1  0  0  0  0
 35 61  1  0  0  0  0
 36 38  1  0  0  0  0
 37 39  1  0  0  0  0
 37 41  1  0  0  0  0
 38 45  1  0  0  0  0
 39 47  1  0  0  0  0
 40 42  1  0  0  0  0
 40 48  1  0  0  0  0
 41 62  1  0  0  0  0
 42 63  1  0  0  0  0
 43 47  1  0  0  0  0
 43 62  1  0  0  0  0
 44 48  1  0  0  0  0
 44 63  1  0  0  0  0
 45 66  1  0  0  0  0
 46 61  1  0  0  0  0
 47 60  1  0  0  0  0
 48 68  1  0  0  0  0
 49 57  1  0  0  0  0
 50 58  1  0  0  0  0
 51 58  1  0  0  0  0
 52 58  1  0  0  0  0
 53 69  1  0  0  0  0
 54 55  1  0  0  0  0
 54 68  1  0  0  0  0
 55 76  1  0  0  0  0
 56 58  1  0  0  0  0
 56 67  1  0  0  0  0
 57 69  1  0  0  0  0
 59 60  1  0  0  0  0
M  CHG  2  68   1  69   1
M  ISO  4  32 100  55 101  63 100  76 101
M  END
> <Batch ID>
0008

> <Smiles>
CNC(C)C(=O)NC(C(=O)N1Cc2cc([101O:1][101CH2:1]CNC3CC[100N:0]([100C:0](=O)N4CCCC(n5nc(-c6ccc(Oc7ccc(F)cc7F)cc6)c(C(N)=O)c5N)C4)C3)ccc2CC1C(=O)NC1CCCc2ccccc21)C(C)(C)C

> <Shape>
0.327

> <Color>
0.075

> <Negative vol penalty>
0.000

$$$$

  -OEChem-04042320353D

 83 91  0     1  0  0  0  0  0999 V2000
  -26.6140  -35.1796   23.9138 C   0  0  0  0  0  0  0  0  0  0  0  0
  -27.0650  -33.9078   23.5754 C   0  0  0  0  0  0  0  0  0  0  0  0
  -26.4727  -12.9763   20.0873 C   0  0  0  0  0  0  0  0  0  0  0  0
  -24.3501  -13.2404   21.2106 C   0  0  0  0  0  0  0  0  0  0  0  0
  -25.3087  -35.3563   24.3708 C   0  0  0  0  0  0  0  0  0  0  0  0
  -26.2112  -32.8118   23.6948 C   0  0  0  0  0  0  0  0  0  0  0  0
  -26.4143  -29.7433   19.6714 C   0  0  0  0  0  0  0  0  0  0  0  0
  -27.8274  -23.2917   21.0156 C   0  0  0  0  0  0  0  0  0  0  0  0
  -27.1535  -22.2064   20.4556 C   0  0  0  0  0  0  0  0  0  0  0  0
  -26.0754  -11.7192   19.6320 C   0  0  0  0  0  0  0  0  0  0  0  0
  -23.9527  -11.9833   20.7552 C   0  0  0  0  0  0  0  0  0  0  0  0
  -27.5030  -28.8767   19.5858 C   0  0  0  0  0  0  0  0  0  0  0  0
  -24.4950   -8.7493   21.5787 C   0  0  0  0  0  0  0  0  0  0  0  0
  -23.8793   -7.8939   22.4924 C   0  0  0  0  0  0  0  0  0  0  0  0
  -26.1302  -27.0789   20.4239 C   0  0  0  0  0  0  0  0  0  0  0  0
  -21.9024   -7.8345   21.1048 C   0  0  0  0  0  0  0  0  0  0  0  0
  -25.6101  -13.7369   20.8767 C   0  0  0  0  0  0  0  0  0  0  0  0
  -27.1275  -15.3325   22.1648 C   0  0  0  0  0  0  0  0  0  0  0  0
  -24.4354  -34.2633   24.4867 C   0  0  0  0  0  0  0  0  0  0  0  0
  -25.1761  -29.2861   20.1449 C   0  0  0  0  0  0  0  0  0  0  0  0
  -24.8934  -32.9739   24.1551 C   0  0  0  0  0  0  0  0  0  0  0  0
  -25.0266  -27.9411   20.5121 C   0  0  0  0  0  0  0  0  0  0  0  0
  -28.9074  -23.8643   20.3436 C   0  0  0  0  0  0  0  0  0  0  0  0
  -27.5596  -21.6936   19.2237 C   0  0  0  0  0  0  0  0  0  0  0  0
  -24.8153  -11.2227   19.9659 C   0  0  0  0  0  0  0  0  0  0  0  0
  -27.3619  -27.5450   19.9648 C   0  0  0  0  0  0  0  0  0  0  0  0
  -23.8143   -9.1474   20.4281 C   0  0  0  0  0  0  0  0  0  0  0  0
  -22.5831   -7.4365   22.2555 C   0  0  0  0  0  0  0  0  0  0  0  0
  -22.5181   -8.6900   20.1911 C   0  0  0  0  0  0  0  0  0  0  0  0
  -29.3134  -23.3515   19.1116 C   0  0  0  0  0  0  0  0  0  0  0  0
  -28.6395  -22.2662   18.5516 C   0  0  0  0  0  0  0  0  0  0  0  0
  -26.0202  -15.0353   21.3478 C   0  0  0  0  0  0  0  0  0  0  0  0
  -27.0801  -16.6958   22.3248 C   0  0  0  0  0  0  0  0  0  0  0  0
  -28.1109  -14.4547   22.7286 C   0  0  0  0  0  0  0  0  0  0  0  0
  -23.3175  -30.0045   22.6214 C   0  0  0  0  0  0  0  0  0  0  0  0
  -21.2593  -27.9588   21.1719 C   0  0  0  0  0  0  0  0  0  0  0  0
  -20.8053  -25.3275   19.0466 C   0  0  0  0  0  0  0  0  0  0  0  0
  -24.3312  -20.8541   18.7625 C   0  0  0  0  0  0  0  0  0  0  0  0
  -23.0481  -34.4970   25.0303 C   0  0  0  0  0  0  0  0  0  0  0  0
  -24.0043  -30.2271   20.2059 C   0  0  0  0  0  0  0  0  0  0  0  0
  -23.7131  -27.3957   21.0078 C   0  0  0  0  0  0  0  0  0  0  0  0
  -22.0895  -33.3373   24.7723 C   0  0  0  0  0  0  0  0  0  0  0  0
  -24.0174  -20.3627   22.4178 C   0  0  0  0  0  0  0  0  0  0  0  0
  -22.7529  -32.0087   25.1208 C   0  0  0  0  0  0  0  0  0  0  0  0
  -24.5262  -18.9347   22.6069 C   0  0  0  0  0  0  0  0  0  0  0  0
  -23.4090  -20.5696   21.0341 C   0  0  0  0  0  0  0  0  0  0  0  0
  -24.8256  -18.7688   20.1042 C   0  0  0  0  0  0  0  0  0  0  0  0
  -23.9895  -31.7637   24.2476 C   0  0  1  0  0  0  0  0  0  0  0  0
  -22.9273  -29.7773   21.1883 C   0  0  1  0  0  0  0  0  0  0  0  0
  -25.4867  -18.5398   21.4716 C   0  0  2  0  0  0  0  0  0  0  0  0
  -19.0130  -23.8540   18.0906 C   0  0  0  0  0  0  0  0  0  0  0  0
  -21.0911  -26.4502   23.8188 C   0  0  0  0  0  0  0  0  0  0  0  0
  -20.0914  -24.5207   22.5755 C   0  0  0  0  0  0  0  0  0  0  0  0
  -18.9075  -26.7157   22.6288 C   0  0  0  0  0  0  0  0  0  0  0  0
  -25.6036  -21.6458   16.8045 C   0  0  0  0  0  0  0  0  0  0  0  0
  -21.4144  -26.1846   16.2802 C   0  0  0  0  0  0  0  0  0  0  0  0
  -29.6329  -25.0353   20.9513 C   0  0  0  0  0  0  0  0  0  0  0  0
  -26.8374  -20.5327   18.6278 C   0  0  0  0  0  0  0  0  0  0  0  0
  -21.0051  -26.4722   21.2384 C   0  0  1  0  0  0  0  0  0  0  0  0
  -19.8373  -25.1172   17.8963 C   0  0  2  0  0  0  0  0  0  0  0  0
  -20.2992  -26.0501   22.5579 C   0  0  0  0  0  0  0  0  0  0  0  0
  -25.3204  -16.1224   21.0123 N   0  0  0  0  0  0  0  0  0  0  0  0
  -25.9896  -17.1159   21.6216 N   0  0  0  0  0  0  0  0  0  0  0  0
  -22.5987  -28.3565   21.0554 N   0  0  0  0  0  0  0  0  0  0  0  0
  -24.3261  -20.1460   19.9755 N   0  0  0  0  0  0  0  0  0  0  0  0
  -27.8652  -17.5642   22.9971 N   0  0  0  0  0  0  0  0  0  0  0  0
  -27.8676  -13.9034   23.9941 N   0  0  0  0  0  0  0  0  0  0  0  0
  -23.5960  -31.3232   22.9264 N   0  0  0  0  0  0  0  0  0  0  0  0
  -20.2647  -26.1302   20.0288 N   0  0  0  0  0  0  0  0  0  0  0  0
  -28.7379  -26.1553   21.2046 N   0  0  0  0  0  0  0  0  0  1  0  0
  -25.5452  -20.9135   18.0616 N   0  0  0  0  0  0  0  0  0  0  0  0
  -20.5796  -25.0007   16.6093 N   0  3  0  0  0  0  0  0  0  0  0  0
  -29.1816  -14.1806   22.1352 O   0  0  0  0  0  0  0  0  0  0  0  0
  -23.3611  -29.0541   23.3937 O   0  0  0  0  0  0  0  0  0  0  0  0
  -20.3041  -28.7381   21.2144 O   0  0  0  0  0  0  0  0  0  0  0  0
  -21.9273  -24.8266   19.0730 O   0  0  0  0  0  0  0  0  0  0  0  0
  -23.3112  -21.4101   18.3354 O   0  0  0  0  0  0  0  0  0  0  0  0
  -24.4272   -9.9961   19.5216 O   0  0  0  0  0  0  0  0  0  0  0  0
  -28.4232  -26.6971   19.8830 O   0  0  0  0  0  0  0  0  0  1  0  0
  -21.9926   -6.6138   23.1322 F   0  0  0  0  0  0  0  0  0  0  0  0
  -21.8596   -9.0681   19.0869 F   0  0  0  0  0  0  0  0  0  0  0  0
  -30.3510  -23.8941   18.4593 F   0  0  0  0  0  0  0  0  0  0  0  0
  -29.0378  -21.7794   17.3679 F   0  0  0  0  0  0  0  0  0  0  0  0
  1  2  1  0  0  0  0
  1  5  2  0  0  0  0
  2  6  2  0  0  0  0
  3 10  2  0  0  0  0
  3 17  1  0  0  0  0
  4 11  1  0  0  0  0
  4 17  2  0  0  0  0
  5 19  1  0  0  0  0
  6 21  1  0  0  0  0
  7 12  2  0  0  0  0
  7 20  1  0  0  0  0
  8  9  2  0  0  0  0
  8 23  1  0  0  0  0
  9 24  1  0  0  0  0
 10 25  1  0  0  0  0
 11 25  2  0  0  0  0
 12 26  1  0  0  0  0
 13 14  2  0  0  0  0
 13 27  1  0  0  0  0
 14 28  1  0  0  0  0
 15 22  1  0  0  0  0
 15 26  2  0  0  0  0
 16 28  2  0  0  0  0
 16 29  1  0  0  0  0
 17 32  1  0  0  0  0
 18 32  1  0  0  0  0
 18 33  2  0  0  0  0
 18 34  1  0  0  0  0
 19 21  2  0  0  0  0
 19 39  1  0  0  0  0
 20 22  2  0  0  0  0
 20 40  1  0  0  0  0
 21 48  1  0  0  0  0
 22 41  1  0  0  0  0
 23 30  2  0  0  0  0
 23 57  1  0  0  0  0
 24 31  2  0  0  0  0
 24 58  1  0  0  0  0
 25 78  1  0  0  0  0
 26 79  1  0  0  0  0
 27 29  2  0  0  0  0
 27 78  1  0  0  0  0
 28 80  1  0  0  0  0
 29 81  1  0  0  0  0
 30 31  1  0  0  0  0
 30 82  1  0  0  0  0
 31 83  1  0  0  0  0
 32 62  2  0  0  0  0
 33 63  1  0  0  0  0
 33 66  1  0  0  0  0
 34 67  1  0  0  0  0
 34 73  2  0  0  0  0
 35 49  1  0  0  0  0
 35 68  1  0  0  0  0
 35 74  2  0  0  0  0
 36 59  1  0  0  0  0
 36 64  1  0  0  0  0
 36 75  2  0  0  0  0
 37 60  1  0  0  0  0
 37 69  1  0  0  0  0
 37 76  2  0  0  0  0
 38 65  1  0  0  0  0
 38 71  1  0  0  0  0
 38 77  2  0  0  0  0
 39 42  1  0  0  0  0
 40 49  1  0  0  0  0
 41 64  1  0  0  0  0
 42 44  1  0  0  0  0
 43 45  1  0  0  0  0
 43 46  1  0  0  0  0
 44 48  1  0  0  0  0
 45 50  1  0  0  0  0
 46 65  1  0  0  0  0
 47 50  1  0  0  0  0
 47 65  1  0  0  0  0
 48 68  1  0  0  0  0
 49 64  1  0  0  0  0
 50 63  1  0  0  0  0
 51 60  1  0  0  0  0
 52 61  1  0  0  0  0
 53 61  1  0  0  0  0
 54 61  1  0  0  0  0
 55 71  1  0  0  0  0
 56 72  1  0  0  0  0
 57 70  1  0  0  0  0
 58 71  1  0  0  0  0
 59 61  1  0  0  0  0
 59 69  1  0  0  0  0
 60 72  1  0  0  0  0
 62 63  1  0  0  0  0
 70 79  1  0  0  0  0
M  CHG  1  72   1
M  ISO  4  38 100  70 101  71 100  79 101
M  END
> <Batch ID>
0008

> <Smiles>
CNC(C)C(=O)NC(C(=O)N1Cc2cc([101O:1][101NH:1]Cc3ccc(C[100N:0](C)[100C:0](=O)N4CCCC(n5nc(-c6ccc(Oc7ccc(F)cc7F)cc6)c(C(N)=O)c5N)C4)c(F)c3F)ccc2CC1C(=O)NC1CCCc2ccccc21)C(C)(C)C

> <Shape>
0.277

> <Color>
0.074

> <Negative vol penalty>
0.000

$$$$

  -OEChem-04042320353D

 82 90  0     1  0  0  0  0  0999 V2000
  -16.4776  -31.7440   20.3845 C   0  0  0  0  0  0  0  0  0  0  0  0
  -17.7496  -31.3799   19.9546 C   0  0  0  0  0  0  0  0  0  0  0  0
  -25.4598  -15.4433   21.6525 C   0  0  0  0  0  0  0  0  0  0  0  0
  -25.0784  -16.2387   19.4033 C   0  0  0  0  0  0  0  0  0  0  0  0
  -15.9887  -31.2623   21.5982 C   0  0  0  0  0  0  0  0  0  0  0  0
  -18.5340  -30.5347   20.7388 C   0  0  0  0  0  0  0  0  0  0  0  0
  -20.7869  -26.9016   18.0240 C   0  0  0  0  0  0  0  0  0  0  0  0
  -28.7487  -26.2484   17.7124 C   0  0  0  0  0  0  0  0  0  0  0  0
  -27.8211  -27.0149   17.0071 C   0  0  0  0  0  0  0  0  0  0  0  0
  -24.2860  -14.6927   21.5861 C   0  0  0  0  0  0  0  0  0  0  0  0
  -23.9047  -15.4880   19.3368 C   0  0  0  0  0  0  0  0  0  0  0  0
  -21.9183  -27.2617   17.2932 C   0  0  0  0  0  0  0  0  0  0  0  0
  -23.2775  -11.7600   20.2387 C   0  0  0  0  0  0  0  0  0  0  0  0
  -23.3216  -10.4454   20.7028 C   0  0  0  0  0  0  0  0  0  0  0  0
  -23.3224  -26.3293   19.0189 C   0  0  0  0  0  0  0  0  0  0  0  0
  -21.6232  -10.9664   22.3401 C   0  0  0  0  0  0  0  0  0  0  0  0
  -25.8560  -16.2163   20.5611 C   0  0  0  0  0  0  0  0  0  0  0  0
  -28.3634  -16.5797   20.2636 C   0  0  0  0  0  0  0  0  0  0  0  0
  -16.7638  -30.4031   22.3930 C   0  0  0  0  0  0  0  0  0  0  0  0
  -20.9152  -26.2613   19.2649 C   0  0  0  0  0  0  0  0  0  0  0  0
  -18.0556  -30.0422   21.9648 C   0  0  0  0  0  0  0  0  0  0  0  0
  -22.1910  -25.9598   19.7623 C   0  0  0  0  0  0  0  0  0  0  0  0
  -28.9219  -26.4490   19.0819 C   0  0  0  0  0  0  0  0  0  0  0  0
  -27.0666  -27.9821   17.6712 C   0  0  0  0  0  0  0  0  0  0  0  0
  -23.5084  -14.7150   20.4282 C   0  0  0  0  0  0  0  0  0  0  0  0
  -23.1863  -26.9782   17.7920 C   0  0  0  0  0  0  0  0  0  0  0  0
  -22.4063  -12.6779   20.8254 C   0  0  0  0  0  0  0  0  0  0  0  0
  -22.4944  -10.0485   21.7534 C   0  0  0  0  0  0  0  0  0  0  0  0
  -21.5791  -12.2811   21.8760 C   0  0  0  0  0  0  0  0  0  0  0  0
  -28.1674  -27.4162   19.7460 C   0  0  0  0  0  0  0  0  0  0  0  0
  -27.2398  -28.1827   19.0407 C   0  0  0  0  0  0  0  0  0  0  0  0
  -27.0681  -16.9924   20.6293 C   0  0  0  0  0  0  0  0  0  0  0  0
  -29.1558  -17.6730   20.5150 C   0  0  0  0  0  0  0  0  0  0  0  0
  -28.8103  -15.3208   19.7431 C   0  0  0  0  0  0  0  0  0  0  0  0
  -20.0919  -26.9723   22.2516 C   0  0  0  0  0  0  0  0  0  0  0  0
  -21.1295  -23.9562   22.8424 C   0  0  0  0  0  0  0  0  0  0  0  0
  -23.0933  -21.3305   21.8961 C   0  0  0  0  0  0  0  0  0  0  0  0
  -28.9756  -23.3499   20.1235 C   0  0  0  0  0  0  0  0  0  0  0  0
  -16.2111  -29.9459   23.7197 C   0  0  0  0  0  0  0  0  0  0  0  0
  -19.6845  -25.8554   20.0285 C   0  0  0  0  0  0  0  0  0  0  0  0
  -22.3825  -25.2558   21.0799 C   0  0  0  0  0  0  0  0  0  0  0  0
  -16.9589  -28.7546   24.3130 C   0  0  0  0  0  0  0  0  0  0  0  0
  -28.7318  -21.7094   23.3401 C   0  0  0  0  0  0  0  0  0  0  0  0
  -18.4659  -28.9762   24.2322 C   0  0  0  0  0  0  0  0  0  0  0  0
  -28.4018  -20.2744   22.9255 C   0  0  0  0  0  0  0  0  0  0  0  0
  -28.0403  -22.7206   22.4304 C   0  0  0  0  0  0  0  0  0  0  0  0
  -28.0047  -21.1124   20.5633 C   0  0  0  0  0  0  0  0  0  0  0  0
  -18.9269  -29.1075   22.7756 C   0  0  1  0  0  0  0  0  0  0  0  0
  -19.9416  -25.6682   21.5205 C   0  0  1  0  0  0  0  0  0  0  0  0
  -28.6920  -20.0423   21.4308 C   0  0  2  0  0  0  0  0  0  0  0  0
  -23.7605  -19.0158   22.5992 C   0  0  0  0  0  0  0  0  0  0  0  0
  -22.9397  -25.1351   24.9973 C   0  0  0  0  0  0  0  0  0  0  0  0
  -24.2285  -22.9887   24.9905 C   0  0  0  0  0  0  0  0  0  0  0  0
  -21.8185  -22.9923   25.6343 C   0  0  0  0  0  0  0  0  0  0  0  0
  -22.0083  -20.1385   19.4140 C   0  0  0  0  0  0  0  0  0  0  0  0
  -29.9150  -25.6280   19.8329 C   0  0  0  0  0  0  0  0  0  0  0  0
  -26.0666  -28.8083   16.9069 C   0  0  0  0  0  0  0  0  0  0  0  0
  -22.4547  -23.3346   23.2115 C   0  0  1  0  0  0  0  0  0  0  0  0
  -22.7978  -19.8472   21.7658 C   0  0  2  0  0  0  0  0  0  0  0  0
  -22.8571  -23.6277   24.6844 C   0  0  0  0  0  0  0  0  0  0  0  0
  -27.0352  -18.2496   21.0790 N   0  0  0  0  0  0  0  0  0  0  0  0
  -28.3196  -18.6364   20.9975 N   0  0  0  0  0  0  0  0  0  0  0  0
  -21.1486  -24.8849   21.7922 N   0  0  0  0  0  0  0  0  0  0  0  0
  -28.3725  -22.4556   21.0234 N   0  0  0  0  0  0  0  0  0  0  0  0
  -30.4793  -17.8947   20.3682 N   0  0  0  0  0  0  0  0  0  0  0  0
  -27.8642  -14.3058   19.5453 N   0  0  0  0  0  0  0  0  0  0  0  0
  -18.9944  -27.8054   22.1475 N   0  0  0  0  0  0  0  0  0  0  0  0
  -22.3424  -21.9151   22.8939 N   0  0  0  0  0  0  0  0  0  0  0  0
  -29.2861  -24.6034   20.6363 N   0  0  0  0  0  0  0  0  0  0  0  0
  -24.7236  -28.6762   17.4534 N   0  0  0  0  0  0  0  0  0  1  0  0
  -22.9165  -19.4185   20.3434 N   0  3  0  0  0  0  0  0  0  0  0  0
  -30.0156  -15.0969   19.4771 O   0  0  0  0  0  0  0  0  0  0  0  0
  -21.1264  -27.2048   22.8660 O   0  0  0  0  0  0  0  0  0  0  0  0
  -20.1135  -23.6245   23.4584 O   0  0  0  0  0  0  0  0  0  0  0  0
  -23.9115  -21.9116   21.1865 O   0  0  0  0  0  0  0  0  0  0  0  0
  -29.2242  -23.0515   18.9503 O   0  0  0  0  0  0  0  0  0  0  0  0
  -22.3631  -13.9825   20.3630 O   0  0  0  0  0  0  0  0  0  0  0  0
  -24.2923  -27.3292   17.0810 O   0  0  0  0  0  0  0  0  0  1  0  0
  -22.5358   -8.7857   22.1979 F   0  0  0  0  0  0  0  0  0  0  0  0
  -20.7392  -13.1581   22.4428 F   0  0  0  0  0  0  0  0  0  0  0  0
  -28.3281  -27.6172   21.0614 F   0  0  0  0  0  0  0  0  0  0  0  0
  -26.5203  -29.1107   19.6871 F   0  0  0  0  0  0  0  0  0  0  0  0
  1  2  1  0  0  0  0
  1  5  2  0  0  0  0
  2  6  2  0  0  0  0
  3 10  2  0  0  0  0
  3 17  1  0  0  0  0
  4 11  1  0  0  0  0
  4 17  2  0  0  0  0
  5 19  1  0  0  0  0
  6 21  1  0  0  0  0
  7 12  2  0  0  0  0
  7 20  1  0  0  0  0
  8  9  2  0  0  0  0
  8 23  1  0  0  0  0
  9 24  1  0  0  0  0
 10 25  1  0  0  0  0
 11 25  2  0  0  0  0
 12 26  1  0  0  0  0
 13 14  2  0  0  0  0
 13 27  1  0  0  0  0
 14 28  1  0  0  0  0
 15 22  1  0  0  0  0
 15 26  2  0  0  0  0
 16 28  2  0  0  0  0
 16 29  1  0  0  0  0
 17 32  1  0  0  0  0
 18 32  1  0  0  0  0
 18 33  2  0  0  0  0
 18 34  1  0  0  0  0
 19 21  2  0  0  0  0
 19 39  1  0  0  0  0
 20 22  2  0  0  0  0
 20 40  1  0  0  0  0
 21 48  1  0  0  0  0
 22 41  1  0  0  0  0
 23 30  2  0  0  0  0
 23 56  1  0  0  0  0
 24 31  2  0  0  0  0
 24 57  1  0  0  0  0
 25 77  1  0  0  0  0
 26 78  1  0  0  0  0
 27 29  2  0  0  0  0
 27 77  1  0  0  0  0
 28 79  1  0  0  0  0
 29 80  1  0  0  0  0
 30 31  1  0  0  0  0
 30 81  1  0  0  0  0
 31 82  1  0  0  0  0
 32 61  2  0  0  0  0
 33 62  1  0  0  0  0
 33 65  1  0  0  0  0
 34 66  1  0  0  0  0
 34 72  2  0  0  0  0
 35 49  1  0  0  0  0
 35 67  1  0  0  0  0
 35 73  2  0  0  0  0
 36 58  1  0  0  0  0
 36 63  1  0  0  0  0
 36 74  2  0  0  0  0
 37 59  1  0  0  0  0
 37 68  1  0  0  0  0
 37 75  2  0  0  0  0
 38 64  1  0  0  0  0
 38 69  1  0  0  0  0
 38 76  2  0  0  0  0
 39 42  1  0  0  0  0
 40 49  1  0  0  0  0
 41 63  1  0  0  0  0
 42 44  1  0  0  0  0
 43 45  1  0  0  0  0
 43 46  1  0  0  0  0
 44 48  1  0  0  0  0
 45 50  1  0  0  0  0
 46 64  1  0  0  0  0
 47 50  1  0  0  0  0
 47 64  1  0  0  0  0
 48 67  1  0  0  0  0
 49 63  1  0  0  0  0
 50 62  1  0  0  0  0
 51 59  1  0  0  0  0
 52 60  1  0  0  0  0
 53 60  1  0  0  0  0
 54 60  1  0  0  0  0
 55 71  1  0  0  0  0
 56 69  1  0  0  0  0
 57 70  1  0  0  0  0
 58 60  1  0  0  0  0
 58 68  1  0  0  0  0
 59 71  1  0  0  0  0
 61 62  1  0  0  0  0
 70 78  1  0  0  0  0
M  CHG  1  71   1
M  ISO  4  38 100  69 100  70 101  78 101
M  END
> <Batch ID>
0008

> <Smiles>
CNC(C)C(=O)NC(C(=O)N1Cc2cc([101O:1][101NH:1]Cc3ccc(C[100NH:0][100C:0](=O)N4CCCC(n5nc(-c6ccc(Oc7ccc(F)cc7F)cc6)c(C(N)=O)c5N)C4)c(F)c3F)ccc2CC1C(=O)NC1CCCc2ccccc21)C(C)(C)C

> <Shape>
0.213

> <Color>
0.066

> <Negative vol penalty>
0.000

$$$$

  -OEChem-04042320353D

 85 94  0     1  0  0  0  0  0999 V2000
  -17.3376  -25.8925   24.0029 C   0  0  0  0  0  0  0  0  0  0  0  0
  -18.4971  -25.5544   24.6932 C   0  0  0  0  0  0  0  0  0  0  0  0
  -28.6415  -16.1197   22.0075 C   0  0  0  0  0  0  0  0  0  0  0  0
  -30.1092  -15.7448   20.1253 C   0  0  0  0  0  0  0  0  0  0  0  0
  -17.4042  -26.7593   22.9129 C   0  0  0  0  0  0  0  0  0  0  0  0
  -19.7243  -26.0820   24.2931 C   0  0  0  0  0  0  0  0  0  0  0  0
  -24.4214  -27.6268   27.9064 C   0  0  0  0  0  0  0  0  0  0  0  0
  -28.0635  -14.8663   21.8065 C   0  0  0  0  0  0  0  0  0  0  0  0
  -29.5312  -14.4913   19.9244 C   0  0  0  0  0  0  0  0  0  0  0  0
  -25.5989  -26.9636   28.2490 C   0  0  0  0  0  0  0  0  0  0  0  0
  -25.7840  -13.4787   19.7322 C   0  0  0  0  0  0  0  0  0  0  0  0
  -24.3929  -13.3913   19.7854 C   0  0  0  0  0  0  0  0  0  0  0  0
  -28.8044  -24.9661   22.1817 C   0  0  0  0  0  0  0  0  0  0  0  0
  -26.7723  -28.1649   26.5171 C   0  0  0  0  0  0  0  0  0  0  0  0
  -31.1399  -24.9643   23.7076 C   0  0  0  0  0  0  0  0  0  0  0  0
  -24.5614  -11.8272   21.6190 C   0  0  0  0  0  0  0  0  0  0  0  0
  -29.6643  -16.5590   21.1668 C   0  0  0  0  0  0  0  0  0  0  0  0
  -30.0418  -24.7901   21.5626 C   0  0  0  0  0  0  0  0  0  0  0  0
  -30.9315  -18.3069   22.5258 C   0  0  0  0  0  0  0  0  0  0  0  0
  -18.6314  -27.3054   22.5052 C   0  0  0  0  0  0  0  0  0  0  0  0
  -24.4081  -28.5576   26.8577 C   0  0  0  0  0  0  0  0  0  0  0  0
  -19.8076  -26.9559   23.1957 C   0  0  0  0  0  0  0  0  0  0  0  0
  -25.5939  -28.8405   26.1649 C   0  0  0  0  0  0  0  0  0  0  0  0
  -29.9024  -25.1403   24.3267 C   0  0  0  0  0  0  0  0  0  0  0  0
  -28.5083  -14.0521   20.7650 C   0  0  0  0  0  0  0  0  0  0  0  0
  -26.7740  -27.2305   27.5525 C   0  0  0  0  0  0  0  0  0  0  0  0
  -26.5638  -12.7403   20.6223 C   0  0  0  0  0  0  0  0  0  0  0  0
  -23.7816  -12.5656   20.7288 C   0  0  0  0  0  0  0  0  0  0  0  0
  -31.2096  -24.7893   22.3255 C   0  0  0  0  0  0  0  0  0  0  0  0
  -25.9525  -11.9146   21.5658 C   0  0  0  0  0  0  0  0  0  0  0  0
  -28.7347  -25.1412   23.5638 C   0  0  0  0  0  0  0  0  0  0  0  0
  -30.2614  -17.8540   21.3736 C   0  0  0  0  0  0  0  0  0  0  0  0
  -31.3069  -19.5926   22.2215 C   0  0  0  0  0  0  0  0  0  0  0  0
  -30.1102  -24.6035   20.1075 C   0  0  0  0  0  0  0  0  0  0  0  0
  -31.1915  -17.6263   23.7606 C   0  0  0  0  0  0  0  0  0  0  0  0
  -22.9112  -28.7647   24.0612 C   0  0  0  0  0  0  0  0  0  0  0  0
  -24.2947  -31.6975   23.9791 C   0  0  0  0  0  0  0  0  0  0  0  0
  -26.8101  -33.7450   25.0407 C   0  0  0  0  0  0  0  0  0  0  0  0
  -18.6603  -28.2008   21.2918 C   0  0  0  0  0  0  0  0  0  0  0  0
  -23.1356  -29.2842   26.5180 C   0  0  0  0  0  0  0  0  0  0  0  0
  -25.6371  -29.8459   25.0443 C   0  0  0  0  0  0  0  0  0  0  0  0
  -19.9474  -29.0115   21.1635 C   0  0  0  0  0  0  0  0  0  0  0  0
  -31.2510  -22.1020   17.8310 C   0  0  0  0  0  0  0  0  0  0  0  0
  -29.9393  -22.3088   27.6179 C   0  0  0  0  0  0  0  0  0  0  0  0
  -21.1643  -28.1210   21.3936 C   0  0  0  0  0  0  0  0  0  0  0  0
  -31.1329  -20.8063   18.6354 C   0  0  0  0  0  0  0  0  0  0  0  0
  -29.0000  -23.0308   28.5634 C   0  0  0  0  0  0  0  0  0  0  0  0
  -30.1242  -23.0767   18.1637 C   0  0  0  0  0  0  0  0  0  0  0  0
  -29.8636  -22.0848   20.4116 C   0  0  0  0  0  0  0  0  0  0  0  0
  -29.5681  -22.8593   26.2544 C   0  0  0  0  0  0  0  0  0  0  0  0
  -21.1540  -27.5272   22.8074 C   0  0  1  0  0  0  0  0  0  0  0  0
  -23.1232  -29.8342   25.0951 C   0  0  1  0  0  0  0  0  0  0  0  0
  -31.0093  -21.0952   20.1433 C   0  0  1  0  0  0  0  0  0  0  0  0
  -29.0210  -24.4567   28.0330 C   0  0  2  0  0  0  0  0  0  0  0  0
  -27.6983  -36.0766   24.7720 C   0  0  0  0  0  0  0  0  0  0  0  0
  -25.4296  -30.9479   21.2479 C   0  0  0  0  0  0  0  0  0  0  0  0
  -27.0299  -32.8610   21.4652 C   0  0  0  0  0  0  0  0  0  0  0  0
  -24.5733  -33.2917   21.4141 C   0  0  0  0  0  0  0  0  0  0  0  0
  -26.4424  -34.3409   27.9162 C   0  0  0  0  0  0  0  0  0  0  0  0
  -29.8707  -25.3275   25.8150 C   0  0  0  0  0  0  0  0  0  0  0  0
  -27.7985  -25.2678   28.4210 C   0  0  0  0  0  0  0  0  0  1  0  0
  -25.6060  -32.2472   23.4720 C   0  0  1  0  0  0  0  0  0  0  0  0
  -26.7938  -35.1625   25.5838 C   0  0  2  0  0  0  0  0  0  0  0  0
  -25.6588  -32.3165   21.9196 C   0  0  0  0  0  0  0  0  0  0  0  0
  -30.2122  -18.7769   20.4093 N   0  0  0  0  0  0  0  0  0  0  0  0
  -30.8560  -19.8227   20.9550 N   0  0  0  0  0  0  0  0  0  0  0  0
  -30.0435  -23.3012   19.6065 N   0  0  0  0  0  0  0  0  0  0  0  0
  -24.3658  -30.5256   24.7455 N   0  0  0  0  0  0  0  0  0  0  0  0
  -31.9752  -20.5375   22.9165 N   0  0  0  0  0  0  0  0  0  0  0  0
  -32.3782  -16.8905   23.8810 N   0  0  0  0  0  0  0  0  0  0  0  0
  -21.5827  -28.5156   23.7738 N   0  0  0  0  0  0  0  0  0  0  0  0
  -25.7929  -33.5336   24.1342 N   0  0  0  0  0  0  0  0  0  0  0  0
  -29.0768  -24.2719   26.5227 N   0  3  1  0  0  0  0  0  0  0  0  0
  -27.2571  -35.1800   27.0001 N   0  3  0  0  0  0  0  0  0  0  0  0
  -30.2351  -25.6252   19.4339 O   0  0  0  0  0  0  0  0  0  0  0  0
  -30.3873  -17.6560   24.7229 O   0  0  0  0  0  0  0  0  0  0  0  0
  -23.8810  -28.2078   23.5603 O   0  0  0  0  0  0  0  0  0  0  0  0
  -23.2465  -32.2903   23.7114 O   0  0  0  0  0  0  0  0  0  0  0  0
  -27.6444  -32.9100   25.3833 O   0  0  0  0  0  0  0  0  0  0  0  0
  -27.9447  -12.8288   20.5688 O   0  0  0  0  0  0  0  0  0  0  0  0
  -27.9246  -26.5841   27.8844 O   0  0  0  0  0  0  0  0  0  1  0  0
  -22.4457  -12.4829   20.7808 F   0  0  0  0  0  0  0  0  0  0  0  0
  -32.4040  -24.6190   21.7412 F   0  0  0  0  0  0  0  0  0  0  0  0
  -26.6963  -11.2037   22.4244 F   0  0  0  0  0  0  0  0  0  0  0  0
  -27.1864  -25.3589   24.2951 Cl  0  0  0  0  0  0  0  0  0  0  0  0
  1  2  1  0  0  0  0
  1  5  2  0  0  0  0
  2  6  2  0  0  0  0
  3  8  2  0  0  0  0
  3 17  1  0  0  0  0
  4  9  1  0  0  0  0
  4 17  2  0  0  0  0
  5 20  1  0  0  0  0
  6 22  1  0  0  0  0
  7 10  2  0  0  0  0
  7 21  1  0  0  0  0
  8 25  1  0  0  0  0
  9 25  2  0  0  0  0
 10 26  1  0  0  0  0
 11 12  2  0  0  0  0
 11 27  1  0  0  0  0
 12 28  1  0  0  0  0
 13 18  2  0  0  0  0
 13 31  1  0  0  0  0
 14 23  1  0  0  0  0
 14 26  2  0  0  0  0
 15 24  1  0  0  0  0
 15 29  2  0  0  0  0
 16 28  2  0  0  0  0
 16 30  1  0  0  0  0
 17 32  1  0  0  0  0
 18 29  1  0  0  0  0
 18 34  1  0  0  0  0
 19 32  1  0  0  0  0
 19 33  2  0  0  0  0
 19 35  1  0  0  0  0
 20 22  2  0  0  0  0
 20 39  1  0  0  0  0
 21 23  2  0  0  0  0
 21 40  1  0  0  0  0
 22 51  1  0  0  0  0
 23 41  1  0  0  0  0
 24 31  2  0  0  0  0
 24 60  1  0  0  0  0
 25 80  1  0  0  0  0
 26 81  1  0  0  0  0
 27 30  2  0  0  0  0
 27 80  1  0  0  0  0
 28 82  1  0  0  0  0
 29 83  1  0  0  0  0
 30 84  1  0  0  0  0
 31 85  1  0  0  0  0
 32 65  2  0  0  0  0
 33 66  1  0  0  0  0
 33 69  1  0  0  0  0
 34 67  1  0  0  0  0
 34 75  2  0  0  0  0
 35 70  1  0  0  0  0
 35 76  2  0  0  0  0
 36 52  1  0  0  0  0
 36 71  1  0  0  0  0
 36 77  2  0  0  0  0
 37 62  1  0  0  0  0
 37 68  1  0  0  0  0
 37 78  2  0  0  0  0
 38 63  1  0  0  0  0
 38 72  1  0  0  0  0
 38 79  2  0  0  0  0
 39 42  1  0  0  0  0
 40 52  1  0  0  0  0
 41 68  1  0  0  0  0
 42 45  1  0  0  0  0
 43 46  1  0  0  0  0
 43 48  1  0  0  0  0
 44 47  1  0  0  0  0
 44 50  1  0  0  0  0
 45 51  1  0  0  0  0
 46 53  1  0  0  0  0
 47 54  1  0  0  0  0
 48 67  1  0  0  0  0
 49 53  1  0  0  0  0
 49 67  1  0  0  0  0
 50 73  1  0  0  0  0
 51 71  1  0  0  0  0
 52 68  1  0  0  0  0
 53 66  1  0  0  0  0
 54 61  1  0  0  0  0
 54 73  1  0  0  0  0
 55 63  1  0  0  0  0
 56 64  1  0  0  0  0
 57 64  1  0  0  0  0
 58 64  1  0  0  0  0
 59 74  1  0  0  0  0
 60 73  1  0  0  0  0
 61 81  1  0  0  0  0
 62 64  1  0  0  0  0
 62 72  1  0  0  0  0
 63 74  1  0  0  0  0
 65 66  1  0  0  0  0
M  CHG  2  73   1  74   1
M  ISO  4  18 100  34 100  61 101  81 101
M  END
> <Batch ID>
0008

> <Smiles>
CNC(C)C(=O)NC(C(=O)N1Cc2cc([101O:1][101CH2:1]C3CCCN3Cc3cc(F)[100c:0]([100C:0](=O)N4CCCC(n5nc(-c6ccc(Oc7ccc(F)cc7F)cc6)c(C(N)=O)c5N)C4)cc3Cl)ccc2CC1C(=O)NC1CCCc2ccccc21)C(C)(C)C

> <Shape>
0.243

> <Color>
0.095

> <Negative vol penalty>
0.000

$$$$

  -OEChem-04042320353D

 82 90  0     1  0  0  0  0  0999 V2000
  -29.5257  -24.7786   17.0146 C   0  0  0  0  0  0  0  0  0  0  0  0
  -28.3177  -24.7885   17.7045 C   0  0  0  0  0  0  0  0  0  0  0  0
  -25.9335  -12.4030   20.0220 C   0  0  0  0  0  0  0  0  0  0  0  0
  -23.8144  -13.1254   20.9300 C   0  0  0  0  0  0  0  0  0  0  0  0
  -30.6089  -25.5118   17.4973 C   0  0  0  0  0  0  0  0  0  0  0  0
  -28.1925  -25.5308   18.8784 C   0  0  0  0  0  0  0  0  0  0  0  0
  -23.8798  -28.1793   19.0517 C   0  0  0  0  0  0  0  0  0  0  0  0
  -24.0423  -22.8068   22.0450 C   0  0  0  0  0  0  0  0  0  0  0  0
  -23.0290  -23.7653   22.0532 C   0  0  0  0  0  0  0  0  0  0  0  0
  -25.7764  -11.1632   20.6416 C   0  0  0  0  0  0  0  0  0  0  0  0
  -23.6572  -11.8856   21.5496 C   0  0  0  0  0  0  0  0  0  0  0  0
  -22.7171  -27.4822   19.3771 C   0  0  0  0  0  0  0  0  0  0  0  0
  -24.8153  -10.3161   24.3112 C   0  0  0  0  0  0  0  0  0  0  0  0
  -24.3856  -10.3046   25.6382 C   0  0  0  0  0  0  0  0  0  0  0  0
  -22.8731  -28.2923   21.6440 C   0  0  0  0  0  0  0  0  0  0  0  0
  -22.4286  -21.0961   22.5988 C   0  0  0  0  0  0  0  0  0  0  0  0
  -22.4379   -9.0272   24.9965 C   0  0  0  0  0  0  0  0  0  0  0  0
  -24.9525  -13.3841   20.1662 C   0  0  0  0  0  0  0  0  0  0  0  0
  -24.6864  -15.0315   18.2368 C   0  0  0  0  0  0  0  0  0  0  0  0
  -30.4941  -26.2711   18.6724 C   0  0  0  0  0  0  0  0  0  0  0  0
  -24.5550  -28.9307   20.0243 C   0  0  0  0  0  0  0  0  0  0  0  0
  -29.2757  -26.2737   19.3780 C   0  0  0  0  0  0  0  0  0  0  0  0
  -24.0427  -29.0001   21.3277 C   0  0  0  0  0  0  0  0  0  0  0  0
  -23.7421  -21.4721   22.3177 C   0  0  0  0  0  0  0  0  0  0  0  0
  -21.7155  -23.3893   22.3343 C   0  0  0  0  0  0  0  0  0  0  0  0
  -24.6383  -10.9045   21.4054 C   0  0  0  0  0  0  0  0  0  0  0  0
  -22.2151  -27.5362   20.6741 C   0  0  0  0  0  0  0  0  0  0  0  0
  -24.0562   -9.6832   23.3268 C   0  0  0  0  0  0  0  0  0  0  0  0
  -23.1970   -9.6602   25.9808 C   0  0  0  0  0  0  0  0  0  0  0  0
  -22.8676   -9.0388   23.6695 C   0  0  0  0  0  0  0  0  0  0  0  0
  -21.4153  -22.0547   22.6071 C   0  0  0  0  0  0  0  0  0  0  0  0
  -25.1145  -14.6651   19.5269 C   0  0  0  0  0  0  0  0  0  0  0  0
  -25.0758  -16.3421   18.1051 C   0  0  0  0  0  0  0  0  0  0  0  0
  -23.9982  -14.2566   17.2461 C   0  0  0  0  0  0  0  0  0  0  0  0
  -27.4479  -28.8184   21.3368 C   0  0  0  0  0  0  0  0  0  0  0  0
  -26.4867  -31.5750   22.7508 C   0  0  0  0  0  0  0  0  0  0  0  0
  -23.9060  -33.5462   23.8000 C   0  0  0  0  0  0  0  0  0  0  0  0
  -26.1266  -20.7045   22.0510 C   0  0  0  0  0  0  0  0  0  0  0  0
  -31.7068  -27.0098   19.1808 C   0  0  0  0  0  0  0  0  0  0  0  0
  -25.7932  -29.6986   19.6506 C   0  0  0  0  0  0  0  0  0  0  0  0
  -24.7188  -29.8088   22.4035 C   0  0  0  0  0  0  0  0  0  0  0  0
  -31.3791  -28.0696   20.2294 C   0  0  0  0  0  0  0  0  0  0  0  0
  -28.4035  -19.4310   19.6281 C   0  0  0  0  0  0  0  0  0  0  0  0
  -30.4241  -27.5066   21.2772 C   0  0  0  0  0  0  0  0  0  0  0  0
  -27.7764  -18.1005   19.2053 C   0  0  0  0  0  0  0  0  0  0  0  0
  -28.2014  -19.7054   21.1172 C   0  0  0  0  0  0  0  0  0  0  0  0
  -26.1831  -18.2933   21.1576 C   0  0  0  0  0  0  0  0  0  0  0  0
  -29.0933  -27.0864   20.6415 C   0  0  1  0  0  0  0  0  0  0  0  0
  -26.6835  -30.0161   20.8480 C   0  0  1  0  0  0  0  0  0  0  0  0
  -26.3046  -18.0039   19.6525 C   0  0  2  0  0  0  0  0  0  0  0  0
  -23.4335  -35.7234   24.9550 C   0  0  0  0  0  0  0  0  0  0  0  0
  -27.2220  -30.3110   25.4288 C   0  0  0  0  0  0  0  0  0  0  0  0
  -25.8765  -32.0935   26.5604 C   0  0  0  0  0  0  0  0  0  0  0  0
  -27.8707  -32.7151   25.1968 C   0  0  0  0  0  0  0  0  0  0  0  0
  -20.4031  -25.0966   23.5683 C   0  0  0  0  0  0  0  0  0  0  0  0
  -22.4694  -34.6174   21.4446 C   0  0  0  0  0  0  0  0  0  0  0  0
  -19.9946  -24.7134   21.1322 C   0  0  0  0  0  0  0  0  0  0  0  0
  -20.8159  -25.6564   20.2689 C   0  0  0  0  0  0  0  0  0  1  0  0
  -25.7700  -31.9258   24.0323 C   0  0  1  0  0  0  0  0  0  0  0  0
  -23.6314  -35.0280   23.6171 C   0  0  2  0  0  0  0  0  0  0  0  0
  -26.6729  -31.7445   25.2850 C   0  0  0  0  0  0  0  0  0  0  0  0
  -25.7289  -15.6623   20.1689 N   0  0  0  0  0  0  0  0  0  0  0  0
  -25.6898  -16.6682   19.2785 N   0  0  0  0  0  0  0  0  0  0  0  0
  -25.9299  -30.5370   21.9903 N   0  0  0  0  0  0  0  0  0  0  0  0
  -26.7831  -19.6006   21.4669 N   0  0  0  0  0  0  0  0  0  0  0  0
  -24.9495  -17.2358   17.1013 N   0  0  0  0  0  0  0  0  0  0  0  0
  -23.6737  -12.9263   17.5451 N   0  0  0  0  0  0  0  0  0  0  0  0
  -24.7718  -20.4989   22.3098 N   0  0  0  0  0  0  0  0  0  0  0  0
  -28.2680  -28.2467   20.3828 N   0  0  0  0  0  0  0  0  0  0  0  0
  -25.2578  -33.2804   23.8559 N   0  0  0  0  0  0  0  0  0  0  0  0
  -20.7196  -24.3750   22.3354 N   0  0  3  0  0  0  0  0  0  0  0  0
  -22.4039  -35.2299   22.7964 N   0  3  0  0  0  0  0  0  0  0  0  0
  -23.6950  -14.7248   16.1225 O   0  0  0  0  0  0  0  0  0  0  0  0
  -27.3052  -28.4417   22.4941 O   0  0  0  0  0  0  0  0  0  0  0  0
  -27.4991  -32.2038   22.4325 O   0  0  0  0  0  0  0  0  0  0  0  0
  -23.0107  -32.7088   23.8884 O   0  0  0  0  0  0  0  0  0  0  0  0
  -26.7159  -21.7643   22.2782 O   0  0  0  0  0  0  0  0  0  0  0  0
  -24.4846   -9.6948   22.0100 O   0  0  0  0  0  0  0  0  0  0  0  0
  -21.0808  -26.8562   20.9946 O   0  0  0  0  0  0  0  0  0  1  0  0
  -22.7853   -9.6479   27.2554 F   0  0  0  0  0  0  0  0  0  0  0  0
  -22.1347   -8.4280   22.7284 F   0  0  0  0  0  0  0  0  0  0  0  0
  -19.8022  -21.5465   22.9590 Cl  0  0  0  0  0  0  0  0  0  0  0  0
  1  2  1  0  0  0  0
  1  5  2  0  0  0  0
  2  6  2  0  0  0  0
  3 10  2  0  0  0  0
  3 18  1  0  0  0  0
  4 11  1  0  0  0  0
  4 18  2  0  0  0  0
  5 20  1  0  0  0  0
  6 22  1  0  0  0  0
  7 12  2  0  0  0  0
  7 21  1  0  0  0  0
  8  9  2  0  0  0  0
  8 24  1  0  0  0  0
  9 25  1  0  0  0  0
 10 26  1  0  0  0  0
 11 26  2  0  0  0  0
 12 27  1  0  0  0  0
 13 14  2  0  0  0  0
 13 28  1  0  0  0  0
 14 29  1  0  0  0  0
 15 23  1  0  0  0  0
 15 27  2  0  0  0  0
 16 24  2  0  0  0  0
 16 31  1  0  0  0  0
 17 29  2  0  0  0  0
 17 30  1  0  0  0  0
 18 32  1  0  0  0  0
 19 32  1  0  0  0  0
 19 33  2  0  0  0  0
 19 34  1  0  0  0  0
 20 22  2  0  0  0  0
 20 39  1  0  0  0  0
 21 23  2  0  0  0  0
 21 40  1  0  0  0  0
 22 48  1  0  0  0  0
 23 41  1  0  0  0  0
 24 68  1  0  0  0  0
 25 31  2  0  0  0  0
 25 71  1  0  0  0  0
 26 78  1  0  0  0  0
 27 79  1  0  0  0  0
 28 30  2  0  0  0  0
 28 78  1  0  0  0  0
 29 80  1  0  0  0  0
 30 81  1  0  0  0  0
 31 82  1  0  0  0  0
 32 62  2  0  0  0  0
 33 63  1  0  0  0  0
 33 66  1  0  0  0  0
 34 67  1  0  0  0  0
 34 73  2  0  0  0  0
 35 49  1  0  0  0  0
 35 69  1  0  0  0  0
 35 74  2  0  0  0  0
 36 59  1  0  0  0  0
 36 64  1  0  0  0  0
 36 75  2  0  0  0  0
 37 60  1  0  0  0  0
 37 70  1  0  0  0  0
 37 76  2  0  0  0  0
 38 65  1  0  0  0  0
 38 68  1  0  0  0  0
 38 77  2  0  0  0  0
 39 42  1  0  0  0  0
 40 49  1  0  0  0  0
 41 64  1  0  0  0  0
 42 44  1  0  0  0  0
 43 45  1  0  0  0  0
 43 46  1  0  0  0  0
 44 48  1  0  0  0  0
 45 50  1  0  0  0  0
 46 65  1  0  0  0  0
 47 50  1  0  0  0  0
 47 65  1  0  0  0  0
 48 69  1  0  0  0  0
 49 64  1  0  0  0  0
 50 63  1  0  0  0  0
 51 60  1  0  0  0  0
 52 61  1  0  0  0  0
 53 61  1  0  0  0  0
 54 61  1  0  0  0  0
 55 71  1  0  0  0  0
 56 72  1  0  0  0  0
 57 58  1  0  0  0  0
 57 71  1  0  0  0  0
 58 79  1  0  0  0  0
 59 61  1  0  0  0  0
 59 70  1  0  0  0  0
 60 72  1  0  0  0  0
 62 63  1  0  0  0  0
M  CHG  1  72   1
M  ISO  4  38 100  58 101  68 100  79 101
M  END
> <Batch ID>
0008

> <Smiles>
CNC(C)C(=O)NC(C(=O)N1Cc2cc([101O:1][101CH2:1]CN(C)c3ccc([100NH:0][100C:0](=O)N4CCCC(n5nc(-c6ccc(Oc7ccc(F)cc7F)cc6)c(C(N)=O)c5N)C4)cc3Cl)ccc2CC1C(=O)NC1CCCc2ccccc21)C(C)(C)C

> <Shape>
0.255

> <Color>
0.076

> <Negative vol penalty>
0.000

$$$$

  -OEChem-04042320353D

 79 87  0     1  0  0  0  0  0999 V2000
  -23.3441   -6.3416   24.2992 C   0  0  0  0  0  0  0  0  0  0  0  0
  -24.5661   -7.0065   24.3070 C   0  0  0  0  0  0  0  0  0  0  0  0
  -26.1003  -30.7071   20.8867 C   0  0  0  0  0  0  0  0  0  0  0  0
  -23.9565  -29.6755   20.4660 C   0  0  0  0  0  0  0  0  0  0  0  0
  -22.4219   -6.5924   23.2841 C   0  0  0  0  0  0  0  0  0  0  0  0
  -24.8671   -7.9217   23.2989 C   0  0  0  0  0  0  0  0  0  0  0  0
  -28.4368  -14.0326   22.1904 C   0  0  0  0  0  0  0  0  0  0  0  0
  -25.5635  -31.3733   21.9884 C   0  0  0  0  0  0  0  0  0  0  0  0
  -23.4197  -30.3416   21.5677 C   0  0  0  0  0  0  0  0  0  0  0  0
  -29.3998  -14.5790   21.3430 C   0  0  0  0  0  0  0  0  0  0  0  0
  -23.6394  -34.0928   22.5597 C   0  0  0  0  0  0  0  0  0  0  0  0
  -23.9427  -35.4460   22.7088 C   0  0  0  0  0  0  0  0  0  0  0  0
  -27.6975  -14.9908   19.6840 C   0  0  0  0  0  0  0  0  0  0  0  0
  -24.9681  -34.9807   24.8464 C   0  0  0  0  0  0  0  0  0  0  0  0
  -25.2967  -29.8583   20.1254 C   0  0  0  0  0  0  0  0  0  0  0  0
  -26.4278  -29.7503   17.8414 C   0  0  0  0  0  0  0  0  0  0  0  0
  -22.7077   -7.5183   22.2684 C   0  0  0  0  0  0  0  0  0  0  0  0
  -27.0966  -13.9512   21.7859 C   0  0  0  0  0  0  0  0  0  0  0  0
  -23.9484   -8.1840   22.2685 C   0  0  0  0  0  0  0  0  0  0  0  0
  -26.7191  -14.4453   20.5292 C   0  0  0  0  0  0  0  0  0  0  0  0
  -24.2233  -31.1905   22.3289 C   0  0  0  0  0  0  0  0  0  0  0  0
  -29.0307  -15.0555   20.0885 C   0  0  0  0  0  0  0  0  0  0  0  0
  -24.0004  -33.1834   23.5540 C   0  0  0  0  0  0  0  0  0  0  0  0
  -24.6070  -35.8900   23.8521 C   0  0  0  0  0  0  0  0  0  0  0  0
  -24.6647  -33.6274   24.6973 C   0  0  0  0  0  0  0  0  0  0  0  0
  -25.8505  -29.1704   18.9869 C   0  0  0  0  0  0  0  0  0  0  0  0
  -26.7967  -28.6802   17.0635 C   0  0  0  0  0  0  0  0  0  0  0  0
  -26.6141  -31.1328   17.5102 C   0  0  0  0  0  0  0  0  0  0  0  0
  -25.0427  -11.5758   21.2932 C   0  0  0  0  0  0  0  0  0  0  0  0
  -22.9352  -14.0053   20.8708 C   0  0  0  0  0  0  0  0  0  0  0  0
  -22.9226  -17.2285   19.2497 C   0  0  0  0  0  0  0  0  0  0  0  0
  -28.1883  -23.1105   18.4410 C   0  0  0  0  0  0  0  0  0  0  0  0
  -21.6987   -7.7210   21.1659 C   0  0  0  0  0  0  0  0  0  0  0  0
  -26.0655  -13.3835   22.7223 C   0  0  0  0  0  0  0  0  0  0  0  0
  -25.2901  -14.3996   20.0557 C   0  0  0  0  0  0  0  0  0  0  0  0
  -21.9420   -8.9830   20.3421 C   0  0  0  0  0  0  0  0  0  0  0  0
  -25.6013  -24.1408   16.1295 C   0  0  0  0  0  0  0  0  0  0  0  0
  -23.4144   -9.0954   19.9598 C   0  0  0  0  0  0  0  0  0  0  0  0
  -25.4315  -25.6151   16.5005 C   0  0  0  0  0  0  0  0  0  0  0  0
  -29.2525  -20.2273   19.5815 C   0  0  0  0  0  0  0  0  0  0  0  0
  -29.5976  -19.9654   17.0972 C   0  0  0  0  0  0  0  0  0  0  0  0
  -25.8631  -23.2862   17.3661 C   0  0  0  0  0  0  0  0  0  0  0  0
  -26.8605  -25.2000   18.5561 C   0  0  0  0  0  0  0  0  0  0  0  0
  -30.4258  -19.2903   19.8368 C   0  0  0  0  0  0  0  0  0  0  0  0
  -30.7683  -19.0287   17.3651 C   0  0  0  0  0  0  0  0  0  0  0  0
  -24.3014   -9.2023   21.2061 C   0  0  1  0  0  0  0  0  0  0  0  0
  -24.8175  -12.8808   22.0031 C   0  0  1  0  0  0  0  0  0  0  0  0
  -26.6155  -26.1201   17.3463 C   0  0  2  0  0  0  0  0  0  0  0  0
  -29.3957  -20.9553   18.2445 C   0  0  0  0  0  0  0  0  0  0  0  0
  -21.5812  -19.2932   19.7343 C   0  0  0  0  0  0  0  0  0  0  0  0
  -21.0233  -12.9074   18.7614 C   0  0  0  0  0  0  0  0  0  0  0  0
  -20.6754  -15.2526   17.9567 C   0  0  0  0  0  0  0  0  0  0  0  0
  -20.0252  -14.6242   20.2816 C   0  0  0  0  0  0  0  0  0  0  0  0
  -25.3579  -18.8899   19.5108 C   0  0  0  0  0  0  0  0  0  0  0  0
  -31.6287  -17.2991   18.9408 C   0  0  0  0  0  0  0  0  0  0  0  0
  -31.0861  -16.2319   19.8707 C   0  0  0  0  0  0  0  0  0  1  0  0
  -22.4753  -14.8288   19.6922 C   0  0  1  0  0  0  0  0  0  0  0  0
  -22.9139  -18.5867   19.9277 C   0  0  2  0  0  0  0  0  0  0  0  0
  -21.0759  -14.3920   19.1740 C   0  0  0  0  0  0  0  0  0  0  0  0
  -25.8502  -27.8354   18.9445 N   0  0  0  0  0  0  0  0  0  0  0  0
  -26.4318  -27.5676   17.7629 N   0  0  0  0  0  0  0  0  0  0  0  0
  -24.3197  -13.8295   21.0049 N   0  0  0  0  0  0  0  0  0  0  0  0
  -27.0136  -23.8091   18.1165 N   0  0  0  0  0  0  0  0  0  0  0  0
  -27.3944  -28.5917   15.8563 N   0  0  0  0  0  0  0  0  0  0  0  0
  -25.5972  -31.7946   16.8084 N   0  0  0  0  0  0  0  0  0  0  0  0
  -24.2482  -10.5420   21.7509 N   0  0  0  0  0  0  0  0  0  0  0  0
  -22.5473  -16.2231   20.1154 N   0  0  0  0  0  0  0  0  0  0  0  0
  -28.2511  -21.7965   17.9937 N   0  0  0  0  0  0  0  0  0  0  0  0
  -30.5588  -18.3245   18.6840 N   0  3  0  0  0  0  0  0  0  0  0  0
  -23.9903  -19.4521   19.3677 N   0  3  0  0  0  0  0  0  0  0  0  0
  -27.6585  -31.7583   17.8127 O   0  0  0  0  0  0  0  0  0  0  0  0
  -25.8746  -11.5119   20.3957 O   0  0  0  0  0  0  0  0  0  0  0  0
  -22.0973  -13.5412   21.6481 O   0  0  0  0  0  0  0  0  0  0  0  0
  -23.2280  -17.0753   18.0691 O   0  0  0  0  0  0  0  0  0  0  0  0
  -29.1156  -23.6217   19.0781 O   0  0  0  0  0  0  0  0  0  0  0  0
  -23.6993  -31.8401   23.4041 O   0  0  0  0  0  0  0  0  0  0  0  0
  -29.9687  -15.5887   19.2591 O   0  0  0  0  0  0  0  0  0  1  0  0
  -24.8996  -37.1894   23.9945 F   0  0  0  0  0  0  0  0  0  0  0  0
  -25.0151  -32.7583   25.6553 F   0  0  0  0  0  0  0  0  0  0  0  0
  1  2  1  0  0  0  0
  1  5  2  0  0  0  0
  2  6  2  0  0  0  0
  3  8  2  0  0  0  0
  3 15  1  0  0  0  0
  4  9  1  0  0  0  0
  4 15  2  0  0  0  0
  5 17  1  0  0  0  0
  6 19  1  0  0  0  0
  7 10  2  0  0  0  0
  7 18  1  0  0  0  0
  8 21  1  0  0  0  0
  9 21  2  0  0  0  0
 10 22  1  0  0  0  0
 11 12  2  0  0  0  0
 11 23  1  0  0  0  0
 12 24  1  0  0  0  0
 13 20  1  0  0  0  0
 13 22  2  0  0  0  0
 14 24  2  0  0  0  0
 14 25  1  0  0  0  0
 15 26  1  0  0  0  0
 16 26  1  0  0  0  0
 16 27  2  0  0  0  0
 16 28  1  0  0  0  0
 17 19  2  0  0  0  0
 17 33  1  0  0  0  0
 18 20  2  0  0  0  0
 18 34  1  0  0  0  0
 19 46  1  0  0  0  0
 20 35  1  0  0  0  0
 21 76  1  0  0  0  0
 22 77  1  0  0  0  0
 23 25  2  0  0  0  0
 23 76  1  0  0  0  0
 24 78  1  0  0  0  0
 25 79  1  0  0  0  0
 26 60  2  0  0  0  0
 27 61  1  0  0  0  0
 27 64  1  0  0  0  0
 28 65  1  0  0  0  0
 28 71  2  0  0  0  0
 29 47  1  0  0  0  0
 29 66  1  0  0  0  0
 29 72  2  0  0  0  0
 30 57  1  0  0  0  0
 30 62  1  0  0  0  0
 30 73  2  0  0  0  0
 31 58  1  0  0  0  0
 31 67  1  0  0  0  0
 31 74  2  0  0  0  0
 32 63  1  0  0  0  0
 32 68  1  0  0  0  0
 32 75  2  0  0  0  0
 33 36  1  0  0  0  0
 34 47  1  0  0  0  0
 35 62  1  0  0  0  0
 36 38  1  0  0  0  0
 37 39  1  0  0  0  0
 37 42  1  0  0  0  0
 38 46  1  0  0  0  0
 39 48  1  0  0  0  0
 40 44  1  0  0  0  0
 40 49  1  0  0  0  0
 41 45  1  0  0  0  0
 41 49  1  0  0  0  0
 42 63  1  0  0  0  0
 43 48  1  0  0  0  0
 43 63  1  0  0  0  0
 44 69  1  0  0  0  0
 45 69  1  0  0  0  0
 46 66  1  0  0  0  0
 47 62  1  0  0  0  0
 48 61  1  0  0  0  0
 49 68  1  0  0  0  0
 50 58  1  0  0  0  0
 51 59  1  0  0  0  0
 52 59  1  0  0  0  0
 53 59  1  0  0  0  0
 54 70  1  0  0  0  0
 55 56  1  0  0  0  0
 55 69  1  0  0  0  0
 56 77  1  0  0  0  0
 57 59  1  0  0  0  0
 57 67  1  0  0  0  0
 58 70  1  0  0  0  0
 60 61  1  0  0  0  0
M  CHG  2  69   1  70   1
M  ISO  4  32 100  56 101  68 100  77 101
M  END
> <Batch ID>
0008

> <Smiles>
CNC(C)C(=O)NC(C(=O)N1Cc2cc([101O:1][101CH2:1]CN3CCC([100NH:0][100C:0](=O)N4CCCC(n5nc(-c6ccc(Oc7ccc(F)cc7F)cc6)c(C(N)=O)c5N)C4)CC3)ccc2CC1C(=O)NC1CCCc2ccccc21)C(C)(C)C

> <Shape>
0.238

> <Color>
0.076

> <Negative vol penalty>
0.000

$$$$

  -OEChem-04042320353D

 81 89  0     1  0  0  0  0  0999 V2000
  -28.2136  -32.5048   25.7570 C   0  0  0  0  0  0  0  0  0  0  0  0
  -28.7489  -31.2740   25.3908 C   0  0  0  0  0  0  0  0  0  0  0  0
  -23.0703  -16.1384   22.1607 C   0  0  0  0  0  0  0  0  0  0  0  0
  -22.2220  -15.6159   19.9597 C   0  0  0  0  0  0  0  0  0  0  0  0
  -26.8363  -32.7117   25.6923 C   0  0  0  0  0  0  0  0  0  0  0  0
  -27.9070  -30.2490   24.9608 C   0  0  0  0  0  0  0  0  0  0  0  0
  -29.1322  -26.0210   20.7030 C   0  0  0  0  0  0  0  0  0  0  0  0
  -22.0217  -17.0382   22.3513 C   0  0  0  0  0  0  0  0  0  0  0  0
  -21.1733  -16.5157   20.1503 C   0  0  0  0  0  0  0  0  0  0  0  0
  -29.5608  -24.6972   20.7916 C   0  0  0  0  0  0  0  0  0  0  0  0
  -21.2434  -20.1906   21.4126 C   0  0  0  0  0  0  0  0  0  0  0  0
  -21.5513  -21.4378   21.9561 C   0  0  0  0  0  0  0  0  0  0  0  0
  -27.2736  -23.9512   20.6138 C   0  0  0  0  0  0  0  0  0  0  0  0
  -28.5931  -19.3168   22.1311 C   0  0  0  0  0  0  0  0  0  0  0  0
  -29.9916  -18.2081   19.9869 C   0  0  0  0  0  0  0  0  0  0  0  0
  -20.0796  -20.9893   23.8190 C   0  0  0  0  0  0  0  0  0  0  0  0
  -23.1705  -15.4273   20.9649 C   0  0  0  0  0  0  0  0  0  0  0  0
  -24.2672  -13.1273   21.0873 C   0  0  0  0  0  0  0  0  0  0  0  0
  -25.9780  -31.6918   25.2520 C   0  0  0  0  0  0  0  0  0  0  0  0
  -27.7678  -26.3207   20.5799 C   0  0  0  0  0  0  0  0  0  0  0  0
  -26.5168  -30.4420   24.8914 C   0  0  0  0  0  0  0  0  0  0  0  0
  -26.8306  -25.2794   20.5212 C   0  0  0  0  0  0  0  0  0  0  0  0
  -28.6901  -20.0136   20.9267 C   0  0  0  0  0  0  0  0  0  0  0  0
  -29.8947  -17.5113   21.1914 C   0  0  0  0  0  0  0  0  0  0  0  0
  -21.0731  -17.2268   21.3461 C   0  0  0  0  0  0  0  0  0  0  0  0
  -28.6312  -23.6622   20.7500 C   0  0  0  0  0  0  0  0  0  0  0  0
  -20.3536  -19.3428   22.0723 C   0  0  0  0  0  0  0  0  0  0  0  0
  -20.9694  -21.8371   23.1593 C   0  0  0  0  0  0  0  0  0  0  0  0
  -29.1954  -18.0656   22.2635 C   0  0  0  0  0  0  0  0  0  0  0  0
  -29.3893  -19.4593   19.8546 C   0  0  0  0  0  0  0  0  0  0  0  0
  -19.7717  -19.7421   23.2755 C   0  0  0  0  0  0  0  0  0  0  0  0
  -24.2539  -14.4981   20.7672 C   0  0  0  0  0  0  0  0  0  0  0  0
  -25.5153  -12.6981   20.7072 C   0  0  0  0  0  0  0  0  0  0  0  0
  -23.2429  -12.3146   21.6755 C   0  0  0  0  0  0  0  0  0  0  0  0
  -25.6533  -27.9130   22.3396 C   0  0  0  0  0  0  0  0  0  0  0  0
  -23.7143  -27.3748   19.7954 C   0  0  0  0  0  0  0  0  0  0  0  0
  -22.9865  -25.4694   17.0593 C   0  0  0  0  0  0  0  0  0  0  0  0
  -30.6722  -15.3590   20.2143 C   0  0  0  0  0  0  0  0  0  0  0  0
  -24.4916  -31.9470   25.2440 C   0  0  0  0  0  0  0  0  0  0  0  0
  -27.3241  -27.7527   20.4585 C   0  0  0  0  0  0  0  0  0  0  0  0
  -25.3562  -25.5472   20.3695 C   0  0  0  0  0  0  0  0  0  0  0  0
  -23.7036  -30.9312   24.4208 C   0  0  0  0  0  0  0  0  0  0  0  0
  -29.0142  -13.6249   17.5901 C   0  0  0  0  0  0  0  0  0  0  0  0
  -24.1588  -29.5121   24.7462 C   0  0  0  0  0  0  0  0  0  0  0  0
  -27.5919  -13.5286   18.1411 C   0  0  0  0  0  0  0  0  0  0  0  0
  -29.6615  -14.9730   17.9087 C   0  0  0  0  0  0  0  0  0  0  0  0
  -28.2123  -15.2314   19.8981 C   0  0  0  0  0  0  0  0  0  0  0  0
  -25.6385  -29.3135   24.3961 C   0  0  1  0  0  0  0  0  0  0  0  0
  -25.8653  -27.9617   20.8529 C   0  0  1  0  0  0  0  0  0  0  0  0
  -27.5574  -13.8650   19.6424 C   0  0  1  0  0  0  0  0  0  0  0  0
  -21.3183  -25.2523   15.1971 C   0  0  0  0  0  0  0  0  0  0  0  0
  -21.6977  -26.1742   21.7452 C   0  0  0  0  0  0  0  0  0  0  0  0
  -20.5252  -25.1423   19.7885 C   0  0  0  0  0  0  0  0  0  0  0  0
  -20.6968  -27.6242   19.9704 C   0  0  0  0  0  0  0  0  0  0  0  0
  -31.2116  -15.8995   22.5791 C   0  0  0  0  0  0  0  0  0  0  0  0
  -25.0645  -25.8852   14.9934 C   0  0  0  0  0  0  0  0  0  0  0  0
  -28.0403  -21.3589   20.7875 C   0  0  0  0  0  0  0  0  0  1  0  0
  -22.7577  -26.2783   19.3933 C   0  0  1  0  0  0  0  0  0  0  0  0
  -22.6492  -25.8485   15.6286 C   0  0  2  0  0  0  0  0  0  0  0  0
  -21.4469  -26.2995   20.2291 C   0  0  0  0  0  0  0  0  0  0  0  0
  -25.4024  -14.9123   20.2256 N   0  0  0  0  0  0  0  0  0  0  0  0
  -26.1491  -13.7952   20.2026 N   0  0  0  0  0  0  0  0  0  0  0  0
  -24.9714  -26.9642   20.2612 N   0  0  0  0  0  0  0  0  0  0  0  0
  -29.5685  -15.2691   19.3453 N   0  0  0  0  0  0  0  0  0  0  0  0
  -26.1214  -11.4930   20.7589 N   0  0  0  0  0  0  0  0  0  0  0  0
  -22.0202  -12.9153   22.0049 N   0  0  0  0  0  0  0  0  0  0  0  0
  -25.8007  -29.1342   22.9693 N   0  0  0  0  0  0  0  0  0  0  0  0
  -22.5524  -26.4225   17.9561 N   0  0  0  0  0  0  0  0  0  0  0  0
  -30.5191  -16.2161   21.3254 N   0  0  0  0  0  0  0  0  0  0  0  0
  -23.7067  -25.3587   14.6998 N   0  3  0  0  0  0  0  0  0  0  0  0
  -23.4128  -11.0955   21.9173 O   0  0  0  0  0  0  0  0  0  0  0  0
  -25.3750  -26.8467   22.8756 O   0  0  0  0  0  0  0  0  0  0  0  0
  -23.3618  -28.5525   19.6930 O   0  0  0  0  0  0  0  0  0  0  0  0
  -23.5729  -24.4297   17.3523 O   0  0  0  0  0  0  0  0  0  0  0  0
  -31.7048  -14.7044   20.0270 O   0  0  0  0  0  0  0  0  0  0  0  0
  -20.0496  -18.1046   21.5318 O   0  0  0  0  0  0  0  0  0  0  0  0
  -29.0467  -22.3693   20.8369 O   0  0  0  0  0  0  0  0  0  1  0  0
  -21.2663  -23.0342   23.6819 F   0  0  0  0  0  0  0  0  0  0  0  0
  -29.0959  -17.4047   23.4258 F   0  0  0  0  0  0  0  0  0  0  0  0
  -29.4879  -20.1214   18.6936 F   0  0  0  0  0  0  0  0  0  0  0  0
  -18.9171  -18.9314   23.9144 F   0  0  0  0  0  0  0  0  0  0  0  0
  1  2  1  0  0  0  0
  1  5  2  0  0  0  0
  2  6  2  0  0  0  0
  3  8  2  0  0  0  0
  3 17  1  0  0  0  0
  4  9  1  0  0  0  0
  4 17  2  0  0  0  0
  5 19  1  0  0  0  0
  6 21  1  0  0  0  0
  7 10  2  0  0  0  0
  7 20  1  0  0  0  0
  8 25  1  0  0  0  0
  9 25  2  0  0  0  0
 10 26  1  0  0  0  0
 11 12  2  0  0  0  0
 11 27  1  0  0  0  0
 12 28  1  0  0  0  0
 13 22  1  0  0  0  0
 13 26  2  0  0  0  0
 14 23  1  0  0  0  0
 14 29  2  0  0  0  0
 15 24  2  0  0  0  0
 15 30  1  0  0  0  0
 16 28  2  0  0  0  0
 16 31  1  0  0  0  0
 17 32  1  0  0  0  0
 18 32  1  0  0  0  0
 18 33  2  0  0  0  0
 18 34  1  0  0  0  0
 19 21  2  0  0  0  0
 19 39  1  0  0  0  0
 20 22  2  0  0  0  0
 20 40  1  0  0  0  0
 21 48  1  0  0  0  0
 22 41  1  0  0  0  0
 23 30  2  0  0  0  0
 23 57  1  0  0  0  0
 24 29  1  0  0  0  0
 24 69  1  0  0  0  0
 25 76  1  0  0  0  0
 26 77  1  0  0  0  0
 27 31  2  0  0  0  0
 27 76  1  0  0  0  0
 28 78  1  0  0  0  0
 29 79  1  0  0  0  0
 30 80  1  0  0  0  0
 31 81  1  0  0  0  0
 32 61  2  0  0  0  0
 33 62  1  0  0  0  0
 33 65  1  0  0  0  0
 34 66  1  0  0  0  0
 34 71  2  0  0  0  0
 35 49  1  0  0  0  0
 35 67  1  0  0  0  0
 35 72  2  0  0  0  0
 36 58  1  0  0  0  0
 36 63  1  0  0  0  0
 36 73  2  0  0  0  0
 37 59  1  0  0  0  0
 37 68  1  0  0  0  0
 37 74  2  0  0  0  0
 38 64  1  0  0  0  0
 38 69  1  0  0  0  0
 38 75  2  0  0  0  0
 39 42  1  0  0  0  0
 40 49  1  0  0  0  0
 41 63  1  0  0  0  0
 42 44  1  0  0  0  0
 43 45  1  0  0  0  0
 43 46  1  0  0  0  0
 44 48  1  0  0  0  0
 45 50  1  0  0  0  0
 46 64  1  0  0  0  0
 47 50  1  0  0  0  0
 47 64  1  0  0  0  0
 48 67  1  0  0  0  0
 49 63  1  0  0  0  0
 50 62  1  0  0  0  0
 51 59  1  0  0  0  0
 52 60  1  0  0  0  0
 53 60  1  0  0  0  0
 54 60  1  0  0  0  0
 55 69  1  0  0  0  0
 56 70  1  0  0  0  0
 57 77  1  0  0  0  0
 58 60  1  0  0  0  0
 58 68  1  0  0  0  0
 59 70  1  0  0  0  0
 61 62  1  0  0  0  0
M  CHG  1  70   1
M  ISO  4  38 100  57 101  69 100  77 101
M  END
> <Batch ID>
0008

> <Smiles>
CNC(C)C(=O)NC(C(=O)N1Cc2cc([101O:1][101CH2:1]c3cc(F)c([100N:0](C)[100C:0](=O)N4CCCC(n5nc(-c6ccc(Oc7ccc(F)cc7F)cc6)c(C(N)=O)c5N)C4)cc3F)ccc2CC1C(=O)NC1CCCc2ccccc21)C(C)(C)C

> <Shape>
0.253

> <Color>
0.085

> <Negative vol penalty>
0.000

$$$$

  -OEChem-04042320353D

 76 84  0     1  0  0  0  0  0999 V2000
  -34.8507  -30.2654   18.3332 C   0  0  0  0  0  0  0  0  0  0  0  0
  -34.1536  -29.2591   18.9941 C   0  0  0  0  0  0  0  0  0  0  0  0
  -27.7342  -11.7586   22.6117 C   0  0  0  0  0  0  0  0  0  0  0  0
  -27.3145  -11.1083   20.3231 C   0  0  0  0  0  0  0  0  0  0  0  0
  -34.6570  -31.5983   18.6936 C   0  0  0  0  0  0  0  0  0  0  0  0
  -33.2632  -29.5850   20.0165 C   0  0  0  0  0  0  0  0  0  0  0  0
  -28.8879  -27.0601   19.6606 C   0  0  0  0  0  0  0  0  0  0  0  0
  -26.8662  -10.7605   23.0545 C   0  0  0  0  0  0  0  0  0  0  0  0
  -26.4466  -10.1101   20.7658 C   0  0  0  0  0  0  0  0  0  0  0  0
  -28.8820  -25.7331   20.0881 C   0  0  0  0  0  0  0  0  0  0  0  0
  -23.2631   -9.8925   21.8834 C   0  0  0  0  0  0  0  0  0  0  0  0
  -22.0408   -9.7578   21.2251 C   0  0  0  0  0  0  0  0  0  0  0  0
  -27.8906  -26.4174   22.1782 C   0  0  0  0  0  0  0  0  0  0  0  0
  -22.6178   -7.4917   20.6176 C   0  0  0  0  0  0  0  0  0  0  0  0
  -27.9583  -11.9325   21.2460 C   0  0  0  0  0  0  0  0  0  0  0  0
  -30.2398  -12.8493   20.5663 C   0  0  0  0  0  0  0  0  0  0  0  0
  -33.7566  -31.9414   19.7144 C   0  0  0  0  0  0  0  0  0  0  0  0
  -28.4045  -28.0787   20.4943 C   0  0  0  0  0  0  0  0  0  0  0  0
  -33.0583  -30.9236   20.3918 C   0  0  0  0  0  0  0  0  0  0  0  0
  -27.8892  -27.7562   21.7578 C   0  0  0  0  0  0  0  0  0  0  0  0
  -26.2225   -9.9362   22.1316 C   0  0  0  0  0  0  0  0  0  0  0  0
  -28.3859  -25.4119   21.3483 C   0  0  0  0  0  0  0  0  0  0  0  0
  -24.1629   -8.8269   21.9087 C   0  0  0  0  0  0  0  0  0  0  0  0
  -21.7181   -8.5573   20.5923 C   0  0  0  0  0  0  0  0  0  0  0  0
  -23.8402   -7.6265   21.2758 C   0  0  0  0  0  0  0  0  0  0  0  0
  -28.8543  -12.9638   20.7880 C   0  0  0  0  0  0  0  0  0  0  0  0
  -30.6236  -14.0974   20.1404 C   0  0  0  0  0  0  0  0  0  0  0  0
  -27.5642  -21.8600   21.3223 C   0  0  0  0  0  0  0  0  0  0  0  0
  -31.1026  -11.7160   20.7306 C   0  0  0  0  0  0  0  0  0  0  0  0
  -29.6713  -30.6621   21.8452 C   0  0  0  0  0  0  0  0  0  0  0  0
  -26.6032  -31.2226   22.7369 C   0  0  0  0  0  0  0  0  0  0  0  0
  -23.4987  -29.9628   23.3862 C   0  0  0  0  0  0  0  0  0  0  0  0
  -27.9385  -19.4234   21.0930 C   0  0  0  0  0  0  0  0  0  0  0  0
  -33.6159  -33.3925   20.1008 C   0  0  0  0  0  0  0  0  0  0  0  0
  -28.3932  -29.5020   20.0077 C   0  0  0  0  0  0  0  0  0  0  0  0
  -27.3400  -28.8102   22.6830 C   0  0  0  0  0  0  0  0  0  0  0  0
  -32.3747  -33.6814   20.9412 C   0  0  0  0  0  0  0  0  0  0  0  0
  -28.9645  -17.9551   17.8526 C   0  0  0  0  0  0  0  0  0  0  0  0
  -32.2354  -32.6526   22.0588 C   0  0  0  0  0  0  0  0  0  0  0  0
  -29.1333  -16.4818   18.2276 C   0  0  0  0  0  0  0  0  0  0  0  0
  -29.5945  -22.5750   20.3196 C   0  0  0  0  0  0  0  0  0  0  0  0
  -27.8817  -18.6121   18.6987 C   0  0  0  0  0  0  0  0  0  0  0  0
  -29.2456  -21.1914   19.8116 C   0  0  0  0  0  0  0  0  0  0  0  0
  -28.2703  -17.0333   20.5535 C   0  0  0  0  0  0  0  0  0  0  0  0
  -32.0653  -31.2390   21.4893 C   0  0  1  0  0  0  0  0  0  0  0  0
  -28.2492  -23.1036   20.7931 C   0  0  2  0  0  0  0  0  0  1  0  0
  -28.3509  -30.5210   21.1423 C   0  0  1  0  0  0  0  0  0  0  0  0
  -29.3620  -16.3144   19.7411 C   0  0  1  0  0  0  0  0  0  0  0  0
  -21.2063  -30.6600   24.1321 C   0  0  0  0  0  0  0  0  0  0  0  0
  -27.6133  -31.4659   25.6058 C   0  0  0  0  0  0  0  0  0  0  0  0
  -25.2484  -31.2080   26.3865 C   0  0  0  0  0  0  0  0  0  0  0  0
  -25.8845  -33.1544   24.9618 C   0  0  0  0  0  0  0  0  0  0  0  0
  -22.2680  -29.0358   20.8593 C   0  0  0  0  0  0  0  0  0  0  0  0
  -25.7509  -30.8517   23.9265 C   0  0  1  0  0  0  0  0  0  0  0  0
  -22.1175  -30.4082   22.9408 C   0  0  2  0  0  0  0  0  0  0  0  0
  -26.1363  -31.6501   25.2037 C   0  0  0  0  0  0  0  0  0  0  0  0
  -28.3894  -14.1880   20.5248 N   0  0  0  0  0  0  0  0  0  0  0  0
  -29.4890  -14.8542   20.1335 N   0  0  0  0  0  0  0  0  0  0  0  0
  -28.1844  -20.7461   20.7090 N   0  0  0  0  0  0  0  0  0  0  0  0
  -27.3565  -30.1879   22.1643 N   0  0  0  0  0  0  0  0  0  0  0  0
  -28.1446  -18.4290   20.1288 N   0  0  0  0  0  0  0  0  0  0  0  0
  -31.8177  -14.6103   19.7749 N   0  0  0  0  0  0  0  0  0  0  0  0
  -30.5443  -10.5103   21.1763 N   0  0  0  0  0  0  0  0  0  0  0  0
  -30.7109  -31.0434   21.0185 N   0  0  0  0  0  0  0  0  0  0  0  0
  -24.3649  -31.0288   23.5066 N   0  0  0  0  0  0  0  0  0  0  0  0
  -21.4894  -29.3658   22.0807 N   0  3  0  0  0  0  0  0  0  0  0  0
  -26.6361  -21.8618   22.1184 O   0  0  0  0  0  0  0  0  0  0  0  0
  -32.3351  -11.7755   20.5049 O   0  0  0  0  0  0  0  0  0  0  0  0
  -29.7415  -30.4429   23.0489 O   0  0  0  0  0  0  0  0  0  0  0  0
  -26.5953  -32.3858   22.3265 O   0  0  0  0  0  0  0  0  0  0  0  0
  -23.7799  -28.7873   23.6089 O   0  0  0  0  0  0  0  0  0  0  0  0
  -27.6360  -19.1440   22.2601 O   0  0  0  0  0  0  0  0  0  0  0  0
  -25.3757   -8.9620   22.5633 O   0  0  0  0  0  0  0  0  0  0  0  0
  -28.3795  -24.1012   21.7737 O   0  0  0  0  0  0  0  0  0  1  0  0
  -20.5436   -8.4276   19.9615 F   0  0  0  0  0  0  0  0  0  0  0  0
  -24.7000   -6.5988   21.2978 F   0  0  0  0  0  0  0  0  0  0  0  0
  1  2  1  0  0  0  0
  1  5  2  0  0  0  0
  2  6  2  0  0  0  0
  3  8  2  0  0  0  0
  3 15  1  0  0  0  0
  4  9  1  0  0  0  0
  4 15  2  0  0  0  0
  5 17  1  0  0  0  0
  6 19  1  0  0  0  0
  7 10  2  0  0  0  0
  7 18  1  0  0  0  0
  8 21  1  0  0  0  0
  9 21  2  0  0  0  0
 10 22  1  0  0  0  0
 11 12  2  0  0  0  0
 11 23  1  0  0  0  0
 12 24  1  0  0  0  0
 13 20  1  0  0  0  0
 13 22  2  0  0  0  0
 14 24  2  0  0  0  0
 14 25  1  0  0  0  0
 15 26  1  0  0  0  0
 16 26  1  0  0  0  0
 16 27  2  0  0  0  0
 16 29  1  0  0  0  0
 17 19  2  0  0  0  0
 17 34  1  0  0  0  0
 18 20  2  0  0  0  0
 18 35  1  0  0  0  0
 19 45  1  0  0  0  0
 20 36  1  0  0  0  0
 21 73  1  0  0  0  0
 22 74  1  0  0  0  0
 23 25  2  0  0  0  0
 23 73  1  0  0  0  0
 24 75  1  0  0  0  0
 25 76  1  0  0  0  0
 26 57  2  0  0  0  0
 27 58  1  0  0  0  0
 27 62  1  0  0  0  0
 28 46  1  0  0  0  0
 28 59  1  0  0  0  0
 28 67  2  0  0  0  0
 29 63  1  0  0  0  0
 29 68  2  0  0  0  0
 30 47  1  0  0  0  0
 30 64  1  0  0  0  0
 30 69  2  0  0  0  0
 31 54  1  0  0  0  0
 31 60  1  0  0  0  0
 31 70  2  0  0  0  0
 32 55  1  0  0  0  0
 32 65  1  0  0  0  0
 32 71  2  0  0  0  0
 33 59  1  0  0  0  0
 33 61  1  0  0  0  0
 33 72  2  0  0  0  0
 34 37  1  0  0  0  0
 35 47  1  0  0  0  0
 36 60  1  0  0  0  0
 37 39  1  0  0  0  0
 38 40  1  0  0  0  0
 38 42  1  0  0  0  0
 39 45  1  0  0  0  0
 40 48  1  0  0  0  0
 41 43  1  0  0  0  0
 41 46  1  0  0  0  0
 42 61  1  0  0  0  0
 43 59  1  0  0  0  0
 44 48  1  0  0  0  0
 44 61  1  0  0  0  0
 45 64  1  0  0  0  0
 46 74  1  0  0  0  0
 47 60  1  0  0  0  0
 48 58  1  0  0  0  0
 49 55  1  0  0  0  0
 50 56  1  0  0  0  0
 51 56  1  0  0  0  0
 52 56  1  0  0  0  0
 53 66  1  0  0  0  0
 54 56  1  0  0  0  0
 54 65  1  0  0  0  0
 55 66  1  0  0  0  0
 57 58  1  0  0  0  0
M  CHG  1  66   1
M  ISO  4  33 100  46 101  59 100  74 101
M  END
> <Batch ID>
0008

> <Smiles>
CNC(C)C(=O)NC(C(=O)N1Cc2cc([101O:1][101CH:1]3CC[100N:0]([100C:0](=O)N4CCCC(n5nc(-c6ccc(Oc7ccc(F)cc7F)cc6)c(C(N)=O)c5N)C4)C3=O)ccc2CC1C(=O)NC1CCCc2ccccc21)C(C)(C)C

> <Shape>
0.261

> <Color>
0.084

> <Negative vol penalty>
0.000

$$$$

  -OEChem-04042320353D

 84 92  0     1  0  0  0  0  0999 V2000
  -18.0181  -30.4941   23.7822 C   0  0  0  0  0  0  0  0  0  0  0  0
  -19.4087  -30.5336   23.7781 C   0  0  0  0  0  0  0  0  0  0  0  0
  -24.9845  -14.6383   21.2385 C   0  0  0  0  0  0  0  0  0  0  0  0
  -26.6018  -13.0870   20.3357 C   0  0  0  0  0  0  0  0  0  0  0  0
  -17.3531  -29.3482   23.3481 C   0  0  0  0  0  0  0  0  0  0  0  0
  -20.1352  -29.4266   23.3408 C   0  0  0  0  0  0  0  0  0  0  0  0
  -25.4594  -29.4788   20.3150 C   0  0  0  0  0  0  0  0  0  0  0  0
  -23.9853  -13.6741   21.1053 C   0  0  0  0  0  0  0  0  0  0  0  0
  -25.6027  -12.1228   20.2026 C   0  0  0  0  0  0  0  0  0  0  0  0
  -26.7786  -29.3133   20.7348 C   0  0  0  0  0  0  0  0  0  0  0  0
  -22.9427  -10.9212   22.7688 C   0  0  0  0  0  0  0  0  0  0  0  0
  -22.0671  -10.7428   23.8398 C   0  0  0  0  0  0  0  0  0  0  0  0
  -26.6697  -26.9789   20.1365 C   0  0  0  0  0  0  0  0  0  0  0  0
  -31.0184  -23.8685   21.6305 C   0  0  0  0  0  0  0  0  0  0  0  0
  -28.5863  -24.9224   22.5005 C   0  0  0  0  0  0  0  0  0  0  0  0
  -20.2047  -11.3205   22.4134 C   0  0  0  0  0  0  0  0  0  0  0  0
  -26.2927  -14.3448   20.8536 C   0  0  0  0  0  0  0  0  0  0  0  0
  -28.1554  -15.5564   22.1066 C   0  0  0  0  0  0  0  0  0  0  0  0
  -18.0717  -28.2301   22.8961 C   0  0  0  0  0  0  0  0  0  0  0  0
  -24.7308  -28.3914   19.8120 C   0  0  0  0  0  0  0  0  0  0  0  0
  -19.4792  -28.2641   22.9014 C   0  0  0  0  0  0  0  0  0  0  0  0
  -25.3424  -27.1338   19.7085 C   0  0  0  0  0  0  0  0  0  0  0  0
  -30.9912  -25.0762   22.3280 C   0  0  0  0  0  0  0  0  0  0  0  0
  -28.6135  -23.7147   21.8030 C   0  0  0  0  0  0  0  0  0  0  0  0
  -29.8296  -23.1878   21.3679 C   0  0  0  0  0  0  0  0  0  0  0  0
  -29.7752  -25.6031   22.7630 C   0  0  0  0  0  0  0  0  0  0  0  0
  -24.2944  -12.4164   20.5874 C   0  0  0  0  0  0  0  0  0  0  0  0
  -27.3830  -28.0626   20.6483 C   0  0  0  0  0  0  0  0  0  0  0  0
  -22.4493  -11.2993   21.5201 C   0  0  0  0  0  0  0  0  0  0  0  0
  -20.6981  -10.9424   23.6621 C   0  0  0  0  0  0  0  0  0  0  0  0
  -21.0803  -11.4989   21.3424 C   0  0  0  0  0  0  0  0  0  0  0  0
  -27.3251  -15.3405   20.9904 C   0  0  0  0  0  0  0  0  0  0  0  0
  -28.9593  -16.6075   21.7383 C   0  0  0  0  0  0  0  0  0  0  0  0
  -28.1965  -14.8683   23.3638 C   0  0  0  0  0  0  0  0  0  0  0  0
  -22.0903  -26.8588   20.6968 C   0  0  0  0  0  0  0  0  0  0  0  0
  -22.5263  -25.2924   17.8899 C   0  0  0  0  0  0  0  0  0  0  0  0
  -24.6741  -24.2914   15.4340 C   0  0  0  0  0  0  0  0  0  0  0  0
  -29.2047  -21.7779   19.4143 C   0  0  0  0  0  0  0  0  0  0  0  0
  -17.3095  -26.9967   22.4809 C   0  0  0  0  0  0  0  0  0  0  0  0
  -23.3174  -28.5923   19.3384 C   0  0  0  0  0  0  0  0  0  0  0  0
  -24.6100  -25.9388   19.1570 C   0  0  0  0  0  0  0  0  0  0  0  0
  -18.1478  -26.0035   21.6801 C   0  0  0  0  0  0  0  0  0  0  0  0
  -29.6658  -18.8217   17.2559 C   0  0  0  0  0  0  0  0  0  0  0  0
  -19.5014  -25.7862   22.3489 C   0  0  0  0  0  0  0  0  0  0  0  0
  -29.1028  -17.6862   18.1090 C   0  0  0  0  0  0  0  0  0  0  0  0
  -28.9816  -20.1513   17.5592 C   0  0  0  0  0  0  0  0  0  0  0  0
  -28.4512  -19.3922   19.8554 C   0  0  0  0  0  0  0  0  0  0  0  0
  -20.3021  -27.0926   22.4110 C   0  0  1  0  0  0  0  0  0  0  0  0
  -22.5036  -27.3020   19.3219 C   0  0  1  0  0  0  0  0  0  0  0  0
  -29.1499  -18.0475   19.6037 C   0  0  1  0  0  0  0  0  0  0  0  0
  -32.2791  -25.7853   22.5948 C   0  0  0  0  0  0  0  0  0  0  0  0
  -27.3246  -23.0077   21.5350 C   0  0  0  0  0  0  0  0  0  0  0  0
  -24.7448  -22.9925   13.2880 C   0  0  0  0  0  0  0  0  0  0  0  0
  -22.3779  -22.6843   19.4664 C   0  0  0  0  0  0  0  0  0  0  0  0
  -23.3824  -21.5156   17.4932 C   0  0  0  0  0  0  0  0  0  0  0  0
  -21.1711  -22.6495   17.2763 C   0  0  0  0  0  0  0  0  0  0  0  0
  -30.8343  -20.9155   21.0788 C   0  0  0  0  0  0  0  0  0  0  0  0
  -29.1772  -26.8583   24.8190 C   0  0  0  0  0  0  0  0  0  0  0  0
  -25.5783  -26.6543   13.8985 C   0  0  0  0  0  0  0  0  0  0  0  0
  -30.2305  -28.0399   22.8844 C   0  0  0  0  0  0  0  0  0  0  0  0
  -29.1305  -28.7460   22.1095 C   0  0  0  0  0  0  0  0  0  1  0  0
  -23.2684  -24.0488   17.4637 C   0  0  1  0  0  0  0  0  0  0  0  0
  -24.5787  -24.3654   13.9208 C   0  0  2  0  0  0  0  0  0  0  0  0
  -22.5634  -22.7464   17.9372 C   0  0  0  0  0  0  0  0  0  0  0  0
  -27.5780  -16.1866   19.9883 N   0  0  0  0  0  0  0  0  0  0  0  0
  -28.5762  -16.9444   20.4734 N   0  0  0  0  0  0  0  0  0  0  0  0
  -23.2280  -26.1847   18.7129 N   0  0  0  0  0  0  0  0  0  0  0  0
  -29.0004  -20.4489   18.9919 N   0  0  0  0  0  0  0  0  0  0  0  0
  -29.9492  -17.2672   22.3764 N   0  0  0  0  0  0  0  0  0  0  0  0
  -27.3007  -13.8116   23.5766 N   0  0  0  0  0  0  0  0  0  0  0  0
  -20.8867  -27.3889   21.1207 N   0  0  0  0  0  0  0  0  0  0  0  0
  -23.4331  -24.1473   16.0175 N   0  0  0  0  0  0  0  0  0  0  0  0
  -29.8781  -21.9392   20.6445 N   0  0  0  0  0  0  0  0  0  0  0  0
  -29.7289  -26.8152   23.4645 N   0  0  3  0  0  0  0  0  0  0  0  0
  -25.6368  -25.2639   13.3784 N   0  3  0  0  0  0  0  0  0  0  0  0
  -28.9926  -15.1919   24.2776 O   0  0  0  0  0  0  0  0  0  0  0  0
  -22.8094  -26.0915   21.3259 O   0  0  0  0  0  0  0  0  0  0  0  0
  -21.3691  -25.4693   17.5010 O   0  0  0  0  0  0  0  0  0  0  0  0
  -25.7428  -24.3513   16.0378 O   0  0  0  0  0  0  0  0  0  0  0  0
  -28.8409  -22.7428   18.7314 O   0  0  0  0  0  0  0  0  0  0  0  0
  -23.3198  -11.4752   20.4575 O   0  0  0  0  0  0  0  0  0  0  0  0
  -28.6702  -27.8981   21.0580 O   0  0  0  0  0  0  0  0  0  1  0  0
  -19.8572  -10.7696   24.6903 F   0  0  0  0  0  0  0  0  0  0  0  0
  -20.6003  -11.8610   20.1448 F   0  0  0  0  0  0  0  0  0  0  0  0
  1  2  1  0  0  0  0
  1  5  2  0  0  0  0
  2  6  2  0  0  0  0
  3  8  2  0  0  0  0
  3 17  1  0  0  0  0
  4  9  1  0  0  0  0
  4 17  2  0  0  0  0
  5 19  1  0  0  0  0
  6 21  1  0  0  0  0
  7 10  2  0  0  0  0
  7 20  1  0  0  0  0
  8 27  1  0  0  0  0
  9 27  2  0  0  0  0
 10 28  1  0  0  0  0
 11 12  2  0  0  0  0
 11 29  1  0  0  0  0
 12 30  1  0  0  0  0
 13 22  1  0  0  0  0
 13 28  2  0  0  0  0
 14 23  1  0  0  0  0
 14 25  2  0  0  0  0
 15 24  2  0  0  0  0
 15 26  1  0  0  0  0
 16 30  2  0  0  0  0
 16 31  1  0  0  0  0
 17 32  1  0  0  0  0
 18 32  1  0  0  0  0
 18 33  2  0  0  0  0
 18 34  1  0  0  0  0
 19 21  2  0  0  0  0
 19 39  1  0  0  0  0
 20 22  2  0  0  0  0
 20 40  1  0  0  0  0
 21 48  1  0  0  0  0
 22 41  1  0  0  0  0
 23 26  2  0  0  0  0
 23 51  1  0  0  0  0
 24 25  1  0  0  0  0
 24 52  1  0  0  0  0
 25 73  1  0  0  0  0
 26 74  1  0  0  0  0
 27 81  1  0  0  0  0
 28 82  1  0  0  0  0
 29 31  2  0  0  0  0
 29 81  1  0  0  0  0
 30 83  1  0  0  0  0
 31 84  1  0  0  0  0
 32 65  2  0  0  0  0
 33 66  1  0  0  0  0
 33 69  1  0  0  0  0
 34 70  1  0  0  0  0
 34 76  2  0  0  0  0
 35 49  1  0  0  0  0
 35 71  1  0  0  0  0
 35 77  2  0  0  0  0
 36 62  1  0  0  0  0
 36 67  1  0  0  0  0
 36 78  2  0  0  0  0
 37 63  1  0  0  0  0
 37 72  1  0  0  0  0
 37 79  2  0  0  0  0
 38 68  1  0  0  0  0
 38 73  1  0  0  0  0
 38 80  2  0  0  0  0
 39 42  1  0  0  0  0
 40 49  1  0  0  0  0
 41 67  1  0  0  0  0
 42 44  1  0  0  0  0
 43 45  1  0  0  0  0
 43 46  1  0  0  0  0
 44 48  1  0  0  0  0
 45 50  1  0  0  0  0
 46 68  1  0  0  0  0
 47 50  1  0  0  0  0
 47 68  1  0  0  0  0
 48 71  1  0  0  0  0
 49 67  1  0  0  0  0
 50 66  1  0  0  0  0
 53 63  1  0  0  0  0
 54 64  1  0  0  0  0
 55 64  1  0  0  0  0
 56 64  1  0  0  0  0
 57 73  1  0  0  0  0
 58 74  1  0  0  0  0
 59 75  1  0  0  0  0
 60 61  1  0  0  0  0
 60 74  1  0  0  0  0
 61 82  1  0  0  0  0
 62 64  1  0  0  0  0
 62 72  1  0  0  0  0
 63 75  1  0  0  0  0
 65 66  1  0  0  0  0
M  CHG  1  75   1
M  ISO  4  38 100  61 101  73 100  82 101
M  END
> <Batch ID>
0008

> <Smiles>
CNC(C)C(=O)NC(C(=O)N1Cc2cc([101O:1][101CH2:1]CN(C)c3cc(C)c([100N:0](C)[100C:0](=O)N4CCCC(n5nc(-c6ccc(Oc7ccc(F)cc7F)cc6)c(C(N)=O)c5N)C4)cc3C)ccc2CC1C(=O)NC1CCCc2ccccc21)C(C)(C)C

> <Shape>
0.248

> <Color>
0.071

> <Negative vol penalty>
0.000

$$$$

  -OEChem-04042320353D

 78 86  0     1  0  0  0  0  0999 V2000
  -21.6942  -11.6406   20.1363 C   0  0  0  0  0  0  0  0  0  0  0  0
  -21.5311  -12.8722   20.7624 C   0  0  0  0  0  0  0  0  0  0  0  0
  -24.9398  -28.5898   20.2630 C   0  0  0  0  0  0  0  0  0  0  0  0
  -25.8506  -30.4046   21.5721 C   0  0  0  0  0  0  0  0  0  0  0  0
  -22.9756  -11.1474   19.8938 C   0  0  0  0  0  0  0  0  0  0  0  0
  -22.6494  -13.6109   21.1474 C   0  0  0  0  0  0  0  0  0  0  0  0
  -23.2120  -19.7092   21.1468 C   0  0  0  0  0  0  0  0  0  0  0  0
  -23.6574  -29.1119   20.4314 C   0  0  0  0  0  0  0  0  0  0  0  0
  -24.5682  -30.9268   21.7405 C   0  0  0  0  0  0  0  0  0  0  0  0
  -23.0912  -20.6624   22.1571 C   0  0  0  0  0  0  0  0  0  0  0  0
  -20.1023  -29.7708   20.8193 C   0  0  0  0  0  0  0  0  0  0  0  0
  -19.0776  -28.8840   21.1497 C   0  0  0  0  0  0  0  0  0  0  0  0
  -25.4827  -20.6237   22.4712 C   0  0  0  0  0  0  0  0  0  0  0  0
  -20.2566  -28.2736   23.1682 C   0  0  0  0  0  0  0  0  0  0  0  0
  -26.0365  -29.2361   20.8334 C   0  0  0  0  0  0  0  0  0  0  0  0
  -28.2693  -28.9886   19.6248 C   0  0  0  0  0  0  0  0  0  0  0  0
  -24.1102  -11.8848   20.2673 C   0  0  0  0  0  0  0  0  0  0  0  0
  -24.4700  -19.1972   20.7980 C   0  0  0  0  0  0  0  0  0  0  0  0
  -23.9472  -13.1265   20.9108 C   0  0  0  0  0  0  0  0  0  0  0  0
  -25.6170  -19.6659   21.4544 C   0  0  0  0  0  0  0  0  0  0  0  0
  -23.4716  -30.2804   21.1700 C   0  0  0  0  0  0  0  0  0  0  0  0
  -24.2264  -21.1176   22.8214 C   0  0  0  0  0  0  0  0  0  0  0  0
  -21.2042  -29.9090   21.6633 C   0  0  0  0  0  0  0  0  0  0  0  0
  -19.1547  -28.1355   22.3241 C   0  0  0  0  0  0  0  0  0  0  0  0
  -21.2813  -29.1604   22.8378 C   0  0  0  0  0  0  0  0  0  0  0  0
  -27.3614  -28.6969   20.6604 C   0  0  0  0  0  0  0  0  0  0  0  0
  -29.3752  -28.2268   19.9130 C   0  0  0  0  0  0  0  0  0  0  0  0
  -28.1258  -29.8694   18.5026 C   0  0  0  0  0  0  0  0  0  0  0  0
  -25.8116  -16.3159   20.8478 C   0  0  0  0  0  0  0  0  0  0  0  0
  -28.2447  -17.8513   19.3495 C   0  0  0  0  0  0  0  0  0  0  0  0
  -29.8686  -20.7866   18.7219 C   0  0  0  0  0  0  0  0  0  0  0  0
  -27.9807  -26.1000   24.9671 C   0  0  0  0  0  0  0  0  0  0  0  0
  -25.4747  -11.2890   20.0269 C   0  0  0  0  0  0  0  0  0  0  0  0
  -24.5862  -18.1891   19.6878 C   0  0  0  0  0  0  0  0  0  0  0  0
  -26.9927  -19.1630   21.1037 C   0  0  0  0  0  0  0  0  0  0  0  0
  -26.6095  -12.3050   20.1284 C   0  0  0  0  0  0  0  0  0  0  0  0
  -28.6095  -24.4081   21.6886 C   0  0  0  0  0  0  0  0  0  0  0  0
  -26.4429  -13.1686   21.3748 C   0  0  0  0  0  0  0  0  0  0  0  0
  -29.8584  -25.1473   21.2133 C   0  0  0  0  0  0  0  0  0  0  0  0
  -28.5360  -24.3902   23.2085 C   0  0  0  0  0  0  0  0  0  0  0  0
  -29.7884  -26.5233   23.3407 C   0  0  0  0  0  0  0  0  0  0  0  0
  -26.4190  -25.2659   26.6731 C   0  0  0  0  0  0  0  0  0  0  0  0
  -25.6336  -25.4403   24.3317 C   0  0  0  0  0  0  0  0  0  0  0  0
  -25.1358  -13.9686   21.3210 C   0  0  1  0  0  0  0  0  0  0  0  0
  -25.8631  -17.3579   19.7665 C   0  0  1  0  0  0  0  0  0  0  0  0
  -29.9628  -26.5651   21.8090 C   0  0  2  0  0  0  0  0  0  0  0  0
  -25.5179  -24.0588   26.9085 C   0  0  1  0  0  0  0  0  0  0  0  0
  -24.6770  -24.2653   24.5261 C   0  0  1  0  0  0  0  0  0  0  0  0
  -24.9980  -24.0087   28.3388 C   0  0  0  0  0  0  0  0  0  0  0  0
  -31.8468  -21.7195   17.4916 C   0  0  0  0  0  0  0  0  0  0  0  0
  -30.1022  -16.7460   21.5031 C   0  0  0  0  0  0  0  0  0  0  0  0
  -31.8109  -18.4344   20.7974 C   0  0  0  0  0  0  0  0  0  0  0  0
  -31.0424  -16.6918   19.1863 C   0  0  0  0  0  0  0  0  0  0  0  0
  -28.1539  -22.5162   17.0405 C   0  0  0  0  0  0  0  0  0  0  0  0
  -25.2044  -22.9366   24.0007 C   0  0  0  0  0  0  0  0  0  1  0  0
  -29.4842  -18.5857   19.8003 C   0  0  1  0  0  0  0  0  0  0  0  0
  -30.3594  -21.4095   17.4275 C   0  0  2  0  0  0  0  0  0  0  0  0
  -30.5840  -17.6227   20.3300 C   0  0  0  0  0  0  0  0  0  0  0  0
  -27.8482  -27.8183   21.5407 N   0  0  0  0  0  0  0  0  0  0  0  0
  -29.0741  -27.5512   21.0589 N   0  0  0  0  0  0  0  0  0  0  0  0
  -27.0537  -18.1732   20.0155 N   0  0  0  0  0  0  0  0  0  0  0  0
  -28.6274  -25.7395   23.7725 N   0  0  0  0  0  0  0  0  0  0  0  0
  -26.7714  -25.4375   25.2627 N   0  0  0  0  0  0  0  0  0  0  0  0
  -30.5661  -28.0755   19.2955 N   0  0  0  0  0  0  0  0  0  0  0  0
  -26.9243  -30.5762   18.3574 N   0  0  0  0  0  0  0  0  0  0  0  0
  -25.2768  -15.1086   20.4407 N   0  0  0  0  0  0  0  0  0  0  0  0
  -29.9040  -19.4091   18.6715 N   0  0  0  0  0  0  0  0  0  0  0  0
  -24.3406  -24.1422   25.9831 N   0  3  0  0  0  0  0  0  0  0  0  0
  -29.6264  -22.6776   17.1523 N   0  3  0  0  0  0  0  0  0  0  0  0
  -29.0299  -30.0127   17.6449 O   0  0  0  0  0  0  0  0  0  0  0  0
  -26.2277  -16.5868   21.9682 O   0  0  0  0  0  0  0  0  0  0  0  0
  -28.3288  -17.0276   18.4351 O   0  0  0  0  0  0  0  0  0  0  0  0
  -29.4949  -21.4552   19.6831 O   0  0  0  0  0  0  0  0  0  0  0  0
  -28.4444  -26.9697   25.7154 O   0  0  0  0  0  0  0  0  0  0  0  0
  -22.2204  -30.7904   21.3343 O   0  0  0  0  0  0  0  0  0  0  0  0
  -24.1102  -22.0556   23.8169 O   0  0  0  0  0  0  0  0  0  1  0  0
  -18.1698  -27.2851   22.6420 F   0  0  0  0  0  0  0  0  0  0  0  0
  -22.3369  -29.2897   23.6532 F   0  0  0  0  0  0  0  0  0  0  0  0
  1  2  1  0  0  0  0
  1  5  2  0  0  0  0
  2  6  2  0  0  0  0
  3  8  2  0  0  0  0
  3 15  1  0  0  0  0
  4  9  1  0  0  0  0
  4 15  2  0  0  0  0
  5 17  1  0  0  0  0
  6 19  1  0  0  0  0
  7 10  2  0  0  0  0
  7 18  1  0  0  0  0
  8 21  1  0  0  0  0
  9 21  2  0  0  0  0
 10 22  1  0  0  0  0
 11 12  2  0  0  0  0
 11 23  1  0  0  0  0
 12 24  1  0  0  0  0
 13 20  1  0  0  0  0
 13 22  2  0  0  0  0
 14 24  2  0  0  0  0
 14 25  1  0  0  0  0
 15 26  1  0  0  0  0
 16 26  1  0  0  0  0
 16 27  2  0  0  0  0
 16 28  1  0  0  0  0
 17 19  2  0  0  0  0
 17 33  1  0  0  0  0
 18 20  2  0  0  0  0
 18 34  1  0  0  0  0
 19 44  1  0  0  0  0
 20 35  1  0  0  0  0
 21 75  1  0  0  0  0
 22 76  1  0  0  0  0
 23 25  2  0  0  0  0
 23 75  1  0  0  0  0
 24 77  1  0  0  0  0
 25 78  1  0  0  0  0
 26 59  2  0  0  0  0
 27 60  1  0  0  0  0
 27 64  1  0  0  0  0
 28 65  1  0  0  0  0
 28 70  2  0  0  0  0
 29 45  1  0  0  0  0
 29 66  1  0  0  0  0
 29 71  2  0  0  0  0
 30 56  1  0  0  0  0
 30 61  1  0  0  0  0
 30 72  2  0  0  0  0
 31 57  1  0  0  0  0
 31 67  1  0  0  0  0
 31 73  2  0  0  0  0
 32 62  1  0  0  0  0
 32 63  1  0  0  0  0
 32 74  2  0  0  0  0
 33 36  1  0  0  0  0
 34 45  1  0  0  0  0
 35 61  1  0  0  0  0
 36 38  1  0  0  0  0
 37 39  1  0  0  0  0
 37 40  1  0  0  0  0
 38 44  1  0  0  0  0
 39 46  1  0  0  0  0
 40 62  1  0  0  0  0
 41 46  1  0  0  0  0
 41 62  1  0  0  0  0
 42 47  1  0  0  0  0
 42 63  1  0  0  0  0
 43 48  1  0  0  0  0
 43 63  1  0  0  0  0
 44 66  1  0  0  0  0
 45 61  1  0  0  0  0
 46 60  1  0  0  0  0
 47 49  1  0  0  0  0
 47 68  1  0  0  0  0
 48 55  1  0  0  0  0
 48 68  1  0  0  0  0
 50 57  1  0  0  0  0
 51 58  1  0  0  0  0
 52 58  1  0  0  0  0
 53 58  1  0  0  0  0
 54 69  1  0  0  0  0
 55 76  1  0  0  0  0
 56 58  1  0  0  0  0
 56 67  1  0  0  0  0
 57 69  1  0  0  0  0
 59 60  1  0  0  0  0
M  CHG  2  68   1  69   1
M  ISO  4  32 100  55 101  63 100  76 101
M  END
> <Batch ID>
0008

> <Smiles>
CNC(C)C(=O)NC(C(=O)N1Cc2cc([101O:1][101CH2:1]C3C[100N:0]([100C:0](=O)N4CCCC(n5nc(-c6ccc(Oc7ccc(F)cc7F)cc6)c(C(N)=O)c5N)C4)CC(C)N3)ccc2CC1C(=O)NC1CCCc2ccccc21)C(C)(C)C

> <Shape>
0.236

> <Color>
0.064

> <Negative vol penalty>
0.000

$$$$

  -OEChem-04042320353D

 75 83  0     1  0  0  0  0  0999 V2000
  -21.5713  -13.1597   17.1348 C   0  0  0  0  0  0  0  0  0  0  0  0
  -22.3208  -14.3283   17.0451 C   0  0  0  0  0  0  0  0  0  0  0  0
  -22.8643  -28.1194   21.9761 C   0  0  0  0  0  0  0  0  0  0  0  0
  -23.6193  -30.4128   22.0631 C   0  0  0  0  0  0  0  0  0  0  0  0
  -21.4399  -12.5095   18.3612 C   0  0  0  0  0  0  0  0  0  0  0  0
  -22.9386  -14.8480   18.1821 C   0  0  0  0  0  0  0  0  0  0  0  0
  -28.3161  -17.7671   18.4411 C   0  0  0  0  0  0  0  0  0  0  0  0
  -21.7916  -28.4410   22.8076 C   0  0  0  0  0  0  0  0  0  0  0  0
  -22.5466  -30.7344   22.8946 C   0  0  0  0  0  0  0  0  0  0  0  0
  -28.6474  -19.1207   18.4849 C   0  0  0  0  0  0  0  0  0  0  0  0
  -18.6513  -28.7360   24.6151 C   0  0  0  0  0  0  0  0  0  0  0  0
  -17.3931  -28.2423   24.2707 C   0  0  0  0  0  0  0  0  0  0  0  0
  -28.8043  -18.9983   20.8890 C   0  0  0  0  0  0  0  0  0  0  0  0
  -17.5052  -29.4240   22.1664 C   0  0  0  0  0  0  0  0  0  0  0  0
  -23.7782  -29.1053   21.6038 C   0  0  0  0  0  0  0  0  0  0  0  0
  -24.9155  -28.8177   19.3386 C   0  0  0  0  0  0  0  0  0  0  0  0
  -22.0643  -13.0163   19.5118 C   0  0  0  0  0  0  0  0  0  0  0  0
  -28.2155  -17.0203   19.6238 C   0  0  0  0  0  0  0  0  0  0  0  0
  -22.8143  -14.2048   19.4253 C   0  0  0  0  0  0  0  0  0  0  0  0
  -28.4740  -17.6348   20.8573 C   0  0  0  0  0  0  0  0  0  0  0  0
  -21.6327  -29.7485   23.2669 C   0  0  0  0  0  0  0  0  0  0  0  0
  -28.8888  -19.7371   19.7092 C   0  0  0  0  0  0  0  0  0  0  0  0
  -19.3365  -29.5739   23.7351 C   0  0  0  0  0  0  0  0  0  0  0  0
  -16.8200  -28.5862   23.0464 C   0  0  0  0  0  0  0  0  0  0  0  0
  -18.7634  -29.9179   22.5108 C   0  0  0  0  0  0  0  0  0  0  0  0
  -24.8868  -28.7736   20.7453 C   0  0  0  0  0  0  0  0  0  0  0  0
  -26.1857  -28.4129   19.0082 C   0  0  0  0  0  0  0  0  0  0  0  0
  -23.8860  -29.1913   18.4132 C   0  0  0  0  0  0  0  0  0  0  0  0
  -25.8795  -15.4335   21.0829 C   0  0  0  0  0  0  0  0  0  0  0  0
  -28.2698  -14.5295   23.0807 C   0  0  0  0  0  0  0  0  0  0  0  0
  -31.3481  -15.1871   24.3994 C   0  0  0  0  0  0  0  0  0  0  0  0
  -30.4934  -24.9408   19.7091 C   0  0  0  0  0  0  0  0  0  0  0  0
  -21.8546  -12.3044   20.8248 C   0  0  0  0  0  0  0  0  0  0  0  0
  -27.8832  -15.5549   19.5576 C   0  0  0  0  0  0  0  0  0  0  0  0
  -28.3990  -16.8726   22.1542 C   0  0  0  0  0  0  0  0  0  0  0  0
  -22.8501  -12.7158   21.9065 C   0  0  0  0  0  0  0  0  0  0  0  0
  -30.2880  -27.7350   21.8583 C   0  0  0  0  0  0  0  0  0  0  0  0
  -22.9851  -14.2343   21.9582 C   0  0  0  0  0  0  0  0  0  0  0  0
  -28.8616  -28.2466   21.6768 C   0  0  0  0  0  0  0  0  0  0  0  0
  -29.6758  -22.0251   17.5786 C   0  0  0  0  0  0  0  0  0  0  0  0
  -30.3253  -26.2133   21.8190 C   0  0  0  0  0  0  0  0  0  0  0  0
  -30.6477  -23.0814   18.0844 C   0  0  0  0  0  0  0  0  0  0  0  0
  -28.3427  -26.1452   20.3311 C   0  0  0  0  0  0  0  0  0  0  0  0
  -28.5560  -23.3214   19.2435 C   0  0  0  0  0  0  0  0  0  0  0  0
  -23.5199  -14.7861   20.6312 C   0  0  1  0  0  0  0  0  0  0  0  0
  -27.3052  -15.0138   20.8616 C   0  0  1  0  0  0  0  0  0  0  0  0
  -28.2438  -27.6837   20.3874 C   0  0  1  0  0  0  0  0  0  0  0  0
  -28.6814  -21.8931   18.7271 C   0  0  2  0  0  0  0  0  0  1  0  0
  -33.0232  -14.2862   26.0363 C   0  0  0  0  0  0  0  0  0  0  0  0
  -26.5513  -15.5388   25.3911 C   0  0  0  0  0  0  0  0  0  0  0  0
  -28.5955  -15.5014   26.8362 C   0  0  0  0  0  0  0  0  0  0  0  0
  -27.7374  -13.3827   25.8375 C   0  0  0  0  0  0  0  0  0  0  0  0
  -33.4051  -14.8675   22.2957 C   0  0  0  0  0  0  0  0  0  0  0  0
  -28.8699  -15.0847   24.3499 C   0  0  1  0  0  0  0  0  0  0  0  0
  -32.5732  -14.3098   24.5839 C   0  0  2  0  0  0  0  0  0  0  0  0
  -27.9381  -14.8920   25.5796 C   0  0  0  0  0  0  0  0  0  0  0  0
  -26.0466  -28.3723   21.2724 N   0  0  0  0  0  0  0  0  0  0  0  0
  -26.8160  -28.1605   20.1910 N   0  0  0  0  0  0  0  0  0  0  0  0
  -28.0643  -15.4436   22.0377 N   0  0  0  0  0  0  0  0  0  0  0  0
  -29.7117  -25.6860   20.5988 N   0  0  0  0  0  0  0  0  0  0  0  0
  -29.8706  -23.9216   18.9891 N   0  0  0  0  0  0  0  0  0  0  0  0
  -26.8138  -28.2518   17.8241 N   0  0  0  0  0  0  0  0  0  0  0  0
  -22.6397  -29.5815   18.9220 N   0  0  0  0  0  0  0  0  0  0  0  0
  -24.9480  -14.5729   20.5341 N   0  0  0  0  0  0  0  0  0  0  0  0
  -30.1805  -14.4591   24.4894 N   0  0  0  0  0  0  0  0  0  0  0  0
  -33.7012  -14.8137   23.7505 N   0  3  0  0  0  0  0  0  0  0  0  0
  -24.0607  -29.1636   17.1713 O   0  0  0  0  0  0  0  0  0  0  0  0
  -25.6421  -16.4612   21.7066 O   0  0  0  0  0  0  0  0  0  0  0  0
  -28.0003  -13.3276   23.0146 O   0  0  0  0  0  0  0  0  0  0  0  0
  -31.4196  -16.3976   24.1994 O   0  0  0  0  0  0  0  0  0  0  0  0
  -31.7089  -25.1481   19.5930 O   0  0  0  0  0  0  0  0  0  0  0  0
  -20.5859  -30.0627   24.0781 O   0  0  0  0  0  0  0  0  0  0  0  0
  -29.2140  -21.0675   19.7551 O   0  0  0  0  0  0  0  0  0  1  0  0
  -15.6124  -28.1107   22.7152 F   0  0  0  0  0  0  0  0  0  0  0  0
  -19.4174  -30.7214   21.6609 F   0  0  0  0  0  0  0  0  0  0  0  0
  1  2  1  0  0  0  0
  1  5  2  0  0  0  0
  2  6  2  0  0  0  0
  3  8  2  0  0  0  0
  3 15  1  0  0  0  0
  4  9  1  0  0  0  0
  4 15  2  0  0  0  0
  5 17  1  0  0  0  0
  6 19  1  0  0  0  0
  7 10  2  0  0  0  0
  7 18  1  0  0  0  0
  8 21  1  0  0  0  0
  9 21  2  0  0  0  0
 10 22  1  0  0  0  0
 11 12  2  0  0  0  0
 11 23  1  0  0  0  0
 12 24  1  0  0  0  0
 13 20  1  0  0  0  0
 13 22  2  0  0  0  0
 14 24  2  0  0  0  0
 14 25  1  0  0  0  0
 15 26  1  0  0  0  0
 16 26  1  0  0  0  0
 16 27  2  0  0  0  0
 16 28  1  0  0  0  0
 17 19  2  0  0  0  0
 17 33  1  0  0  0  0
 18 20  2  0  0  0  0
 18 34  1  0  0  0  0
 19 45  1  0  0  0  0
 20 35  1  0  0  0  0
 21 72  1  0  0  0  0
 22 73  1  0  0  0  0
 23 25  2  0  0  0  0
 23 72  1  0  0  0  0
 24 74  1  0  0  0  0
 25 75  1  0  0  0  0
 26 57  2  0  0  0  0
 27 58  1  0  0  0  0
 27 62  1  0  0  0  0
 28 63  1  0  0  0  0
 28 67  2  0  0  0  0
 29 46  1  0  0  0  0
 29 64  1  0  0  0  0
 29 68  2  0  0  0  0
 30 54  1  0  0  0  0
 30 59  1  0  0  0  0
 30 69  2  0  0  0  0
 31 55  1  0  0  0  0
 31 65  1  0  0  0  0
 31 70  2  0  0  0  0
 32 60  1  0  0  0  0
 32 61  1  0  0  0  0
 32 71  2  0  0  0  0
 33 36  1  0  0  0  0
 34 46  1  0  0  0  0
 35 59  1  0  0  0  0
 36 38  1  0  0  0  0
 37 39  1  0  0  0  0
 37 41  1  0  0  0  0
 38 45  1  0  0  0  0
 39 47  1  0  0  0  0
 40 42  1  0  0  0  0
 40 48  1  0  0  0  0
 41 60  1  0  0  0  0
 42 61  1  0  0  0  0
 43 47  1  0  0  0  0
 43 60  1  0  0  0  0
 44 48  1  0  0  0  0
 44 61  1  0  0  0  0
 45 64  1  0  0  0  0
 46 59  1  0  0  0  0
 47 58  1  0  0  0  0
 48 73  1  0  0  0  0
 49 55  1  0  0  0  0
 50 56  1  0  0  0  0
 51 56  1  0  0  0  0
 52 56  1  0  0  0  0
 53 66  1  0  0  0  0
 54 56  1  0  0  0  0
 54 65  1  0  0  0  0
 55 66  1  0  0  0  0
 57 58  1  0  0  0  0
M  CHG  1  66   1
M  ISO  4  32 100  48 101  61 100  73 101
M  END
> <Batch ID>
0008

> <Smiles>
CNC(C)C(=O)NC(C(=O)N1Cc2cc([101O:1][101CH:1]3CC[100N:0]([100C:0](=O)N4CCCC(n5nc(-c6ccc(Oc7ccc(F)cc7F)cc6)c(C(N)=O)c5N)C4)C3)ccc2CC1C(=O)NC1CCCc2ccccc21)C(C)(C)C

> <Shape>
0.244

> <Color>
0.067

> <Negative vol penalty>
0.000

$$$$

  -OEChem-04042320353D

 80 88  0     1  0  0  0  0  0999 V2000
  -28.6461  -32.3442   24.3264 C   0  0  0  0  0  0  0  0  0  0  0  0
  -29.7875  -31.5596   24.4559 C   0  0  0  0  0  0  0  0  0  0  0  0
  -23.0350   -9.9755   19.9347 C   0  0  0  0  0  0  0  0  0  0  0  0
  -23.8165   -9.9205   22.2202 C   0  0  0  0  0  0  0  0  0  0  0  0
  -27.3931  -31.7399   24.2327 C   0  0  0  0  0  0  0  0  0  0  0  0
  -29.6766  -30.1700   24.4927 C   0  0  0  0  0  0  0  0  0  0  0  0
  -33.1901  -24.2355   22.5554 C   0  0  0  0  0  0  0  0  0  0  0  0
  -32.8547  -17.2656   23.4829 C   0  0  0  0  0  0  0  0  0  0  0  0
  -32.2317  -16.4150   22.5697 C   0  0  0  0  0  0  0  0  0  0  0  0
  -22.2616   -8.8392   20.1718 C   0  0  0  0  0  0  0  0  0  0  0  0
  -23.0430   -8.7842   22.4573 C   0  0  0  0  0  0  0  0  0  0  0  0
  -33.6443  -23.0302   23.0889 C   0  0  0  0  0  0  0  0  0  0  0  0
  -19.3061   -8.0992   21.6382 C   0  0  0  0  0  0  0  0  0  0  0  0
  -17.9939   -8.0979   21.1653 C   0  0  0  0  0  0  0  0  0  0  0  0
  -31.4352  -22.0939   22.8388 C   0  0  0  0  0  0  0  0  0  0  0  0
  -30.7030  -18.1669   24.1113 C   0  0  0  0  0  0  0  0  0  0  0  0
  -18.4865   -6.1639   19.8036 C   0  0  0  0  0  0  0  0  0  0  0  0
  -23.8125  -10.5161   20.9589 C   0  0  0  0  0  0  0  0  0  0  0  0
  -24.2237  -13.0325   20.8799 C   0  0  0  0  0  0  0  0  0  0  0  0
  -27.2676  -30.3420   24.2587 C   0  0  0  0  0  0  0  0  0  0  0  0
  -31.8501  -24.3828   22.1691 C   0  0  0  0  0  0  0  0  0  0  0  0
  -28.4206  -29.5465   24.4006 C   0  0  0  0  0  0  0  0  0  0  0  0
  -30.9671  -23.3013   22.2983 C   0  0  0  0  0  0  0  0  0  0  0  0
  -32.0903  -18.1415   24.2538 C   0  0  0  0  0  0  0  0  0  0  0  0
  -30.8444  -16.4404   22.4272 C   0  0  0  0  0  0  0  0  0  0  0  0
  -22.2656   -8.2436   21.4331 C   0  0  0  0  0  0  0  0  0  0  0  0
  -32.7662  -21.9601   23.2334 C   0  0  0  0  0  0  0  0  0  0  0  0
  -20.2086   -7.1328   21.1938 C   0  0  0  0  0  0  0  0  0  0  0  0
  -17.5840   -7.1303   20.2480 C   0  0  0  0  0  0  0  0  0  0  0  0
  -30.0800  -17.3164   23.1980 C   0  0  0  0  0  0  0  0  0  0  0  0
  -19.7987   -6.1652   20.2765 C   0  0  0  0  0  0  0  0  0  0  0  0
  -24.6121  -11.6896   20.7145 C   0  0  0  0  0  0  0  0  0  0  0  0
  -25.3329  -13.7577   20.5189 C   0  0  0  0  0  0  0  0  0  0  0  0
  -22.9722  -13.5759   21.3204 C   0  0  0  0  0  0  0  0  0  0  0  0
  -29.4453  -26.2511   23.0804 C   0  0  0  0  0  0  0  0  0  0  0  0
  -27.9260  -24.8559   20.5769 C   0  0  0  0  0  0  0  0  0  0  0  0
  -27.6776  -22.1920   18.4583 C   0  0  0  0  0  0  0  0  0  0  0  0
  -30.8276  -14.6477   20.6574 C   0  0  0  0  0  0  0  0  0  0  0  0
  -25.8877  -29.7359   24.2017 C   0  0  0  0  0  0  0  0  0  0  0  0
  -31.3822  -25.6810   21.5705 C   0  0  0  0  0  0  0  0  0  0  0  0
  -29.5237  -23.4017   21.8799 C   0  0  0  0  0  0  0  0  0  0  0  0
  -25.8903  -28.2454   23.8718 C   0  0  0  0  0  0  0  0  0  0  0  0
  -29.6237  -12.3084   18.2584 C   0  0  0  0  0  0  0  0  0  0  0  0
  -26.9314  -27.5142   24.7134 C   0  0  0  0  0  0  0  0  0  0  0  0
  -28.1806  -12.0493   18.6971 C   0  0  0  0  0  0  0  0  0  0  0  0
  -30.5562  -12.4902   19.4547 C   0  0  0  0  0  0  0  0  0  0  0  0
  -28.6835  -13.2426   20.8674 C   0  0  0  0  0  0  0  0  0  0  0  0
  -28.3434  -28.0353   24.4194 C   0  0  1  0  0  0  0  0  0  0  0  0
  -29.8747  -25.8841   21.6880 C   0  0  1  0  0  0  0  0  0  0  0  0
  -27.6951  -13.1175   19.6965 C   0  0  2  0  0  0  0  0  0  0  0  0
  -26.3136  -21.3208   16.5405 C   0  0  0  0  0  0  0  0  0  0  0  0
  -25.6823  -24.1209   22.5097 C   0  0  0  0  0  0  0  0  0  0  0  0
  -24.8493  -22.4822   20.8100 C   0  0  0  0  0  0  0  0  0  0  0  0
  -24.9095  -24.9164   20.2682 C   0  0  0  0  0  0  0  0  0  0  0  0
  -30.0253  -22.1491   16.6567 C   0  0  0  0  0  0  0  0  0  0  0  0
  -32.7627  -19.0606   25.2388 C   0  0  0  0  0  0  0  0  0  0  0  0
  -27.0769  -23.6210   20.3952 C   0  0  1  0  0  0  0  0  0  0  0  0
  -27.5448  -22.1150   16.9480 C   0  0  2  0  0  0  0  0  0  0  0  0
  -25.6562  -23.7835   21.0055 C   0  0  0  0  0  0  0  0  0  0  0  0
  -25.8698  -11.5661   20.2820 N   0  0  0  0  0  0  0  0  0  0  0  0
  -26.2812  -12.8408   20.1725 N   0  0  0  0  0  0  0  0  0  0  0  0
  -29.1125  -24.6936   21.3060 N   0  0  0  0  0  0  0  0  0  0  0  0
  -30.0347  -13.5203   20.3556 N   0  0  0  0  0  0  0  0  0  0  0  0
  -25.5798  -15.0839   20.4672 N   0  0  0  0  0  0  0  0  0  0  0  0
  -21.9385  -12.6894   21.6518 N   0  0  0  0  0  0  0  0  0  0  0  0
  -30.2142  -15.5756   21.4984 N   0  0  0  0  0  0  0  0  0  0  0  0
  -28.8350  -27.4873   23.1735 N   0  0  0  0  0  0  0  0  0  0  0  0
  -27.0833  -23.3279   18.9660 N   0  0  0  0  0  0  0  0  0  0  0  0
  -32.4597  -20.4589   24.9694 N   0  0  0  0  0  0  0  0  0  1  0  0
  -28.7446  -21.4592   16.3553 N   0  3  0  0  0  0  0  0  0  0  0  0
  -22.7710  -14.8114   21.4017 O   0  0  0  0  0  0  0  0  0  0  0  0
  -29.6510  -25.4698   24.0018 O   0  0  0  0  0  0  0  0  0  0  0  0
  -27.5538  -25.9236   20.0838 O   0  0  0  0  0  0  0  0  0  0  0  0
  -28.2479  -21.3287   19.1216 O   0  0  0  0  0  0  0  0  0  0  0  0
  -31.9565  -14.7932   20.1816 O   0  0  0  0  0  0  0  0  0  0  0  0
  -21.5108   -7.1349   21.6649 O   0  0  0  0  0  0  0  0  0  0  0  0
  -33.2068  -20.7827   23.7544 O   0  0  0  0  0  0  0  0  0  1  0  0
  -16.3235   -7.1283   19.7951 F   0  0  0  0  0  0  0  0  0  0  0  0
  -28.7460  -17.3503   23.0684 F   0  0  0  0  0  0  0  0  0  0  0  0
  -20.6608   -5.2336   19.8468 F   0  0  0  0  0  0  0  0  0  0  0  0
  1  2  1  0  0  0  0
  1  5  2  0  0  0  0
  2  6  2  0  0  0  0
  3 10  2  0  0  0  0
  3 18  1  0  0  0  0
  4 11  1  0  0  0  0
  4 18  2  0  0  0  0
  5 20  1  0  0  0  0
  6 22  1  0  0  0  0
  7 12  2  0  0  0  0
  7 21  1  0  0  0  0
  8  9  2  0  0  0  0
  8 24  1  0  0  0  0
  9 25  1  0  0  0  0
 10 26  1  0  0  0  0
 11 26  2  0  0  0  0
 12 27  1  0  0  0  0
 13 14  2  0  0  0  0
 13 28  1  0  0  0  0
 14 29  1  0  0  0  0
 15 23  1  0  0  0  0
 15 27  2  0  0  0  0
 16 24  2  0  0  0  0
 16 30  1  0  0  0  0
 17 29  2  0  0  0  0
 17 31  1  0  0  0  0
 18 32  1  0  0  0  0
 19 32  1  0  0  0  0
 19 33  2  0  0  0  0
 19 34  1  0  0  0  0
 20 22  2  0  0  0  0
 20 39  1  0  0  0  0
 21 23  2  0  0  0  0
 21 40  1  0  0  0  0
 22 48  1  0  0  0  0
 23 41  1  0  0  0  0
 24 56  1  0  0  0  0
 25 30  2  0  0  0  0
 25 66  1  0  0  0  0
 26 76  1  0  0  0  0
 27 77  1  0  0  0  0
 28 31  2  0  0  0  0
 28 76  1  0  0  0  0
 29 78  1  0  0  0  0
 30 79  1  0  0  0  0
 31 80  1  0  0  0  0
 32 60  2  0  0  0  0
 33 61  1  0  0  0  0
 33 64  1  0  0  0  0
 34 65  1  0  0  0  0
 34 71  2  0  0  0  0
 35 49  1  0  0  0  0
 35 67  1  0  0  0  0
 35 72  2  0  0  0  0
 36 57  1  0  0  0  0
 36 62  1  0  0  0  0
 36 73  2  0  0  0  0
 37 58  1  0  0  0  0
 37 68  1  0  0  0  0
 37 74  2  0  0  0  0
 38 63  1  0  0  0  0
 38 66  1  0  0  0  0
 38 75  2  0  0  0  0
 39 42  1  0  0  0  0
 40 49  1  0  0  0  0
 41 62  1  0  0  0  0
 42 44  1  0  0  0  0
 43 45  1  0  0  0  0
 43 46  1  0  0  0  0
 44 48  1  0  0  0  0
 45 50  1  0  0  0  0
 46 63  1  0  0  0  0
 47 50  1  0  0  0  0
 47 63  1  0  0  0  0
 48 67  1  0  0  0  0
 49 62  1  0  0  0  0
 50 61  1  0  0  0  0
 51 58  1  0  0  0  0
 52 59  1  0  0  0  0
 53 59  1  0  0  0  0
 54 59  1  0  0  0  0
 55 70  1  0  0  0  0
 56 69  1  0  0  0  0
 57 59  1  0  0  0  0
 57 68  1  0  0  0  0
 58 70  1  0  0  0  0
 60 61  1  0  0  0  0
 69 77  1  0  0  0  0
M  CHG  1  70   1
M  ISO  4  38 100  66 100  69 101  77 101
M  END
> <Batch ID>
0008

> <Smiles>
CNC(C)C(=O)NC(C(=O)N1Cc2cc([101O:1][101NH:1]Cc3ccc([100NH:0][100C:0](=O)N4CCCC(n5nc(-c6ccc(Oc7ccc(F)cc7F)cc6)c(C(N)=O)c5N)C4)c(F)c3)ccc2CC1C(=O)NC1CCCc2ccccc21)C(C)(C)C

> <Shape>
0.216

> <Color>
0.211

> <Negative vol penalty>
0.000

$$$$

  -OEChem-04042320353D

 81 89  0     1  0  0  0  0  0999 V2000
  -25.5994   -7.9726   25.9395 C   0  0  0  0  0  0  0  0  0  0  0  0
  -25.9230   -9.3020   25.6880 C   0  0  0  0  0  0  0  0  0  0  0  0
  -23.1992   -9.8520   19.9528 C   0  0  0  0  0  0  0  0  0  0  0  0
  -23.9122   -9.9296   22.2599 C   0  0  0  0  0  0  0  0  0  0  0  0
  -24.4762   -7.6627   26.7053 C   0  0  0  0  0  0  0  0  0  0  0  0
  -25.1230  -10.3223   26.2011 C   0  0  0  0  0  0  0  0  0  0  0  0
  -27.8371  -14.0770   28.2459 C   0  0  0  0  0  0  0  0  0  0  0  0
  -32.5178  -17.1071   24.8416 C   0  0  0  0  0  0  0  0  0  0  0  0
  -22.5069   -8.6680   20.2065 C   0  0  0  0  0  0  0  0  0  0  0  0
  -23.2198   -8.7456   22.5137 C   0  0  0  0  0  0  0  0  0  0  0  0
  -28.4247  -14.9883   27.3696 C   0  0  0  0  0  0  0  0  0  0  0  0
  -20.0225   -7.8013   23.0668 C   0  0  0  0  0  0  0  0  0  0  0  0
  -33.2292  -16.2118   24.0429 C   0  0  0  0  0  0  0  0  0  0  0  0
  -19.2452   -7.7421   24.2235 C   0  0  0  0  0  0  0  0  0  0  0  0
  -26.6337  -16.5463   27.7985 C   0  0  0  0  0  0  0  0  0  0  0  0
  -20.5636   -5.8781   25.0138 C   0  0  0  0  0  0  0  0  0  0  0  0
  -23.9019  -10.4828   20.9795 C   0  0  0  0  0  0  0  0  0  0  0  0
  -24.1241  -13.0195   20.8264 C   0  0  0  0  0  0  0  0  0  0  0  0
  -23.6675   -8.6799   27.2362 C   0  0  0  0  0  0  0  0  0  0  0  0
  -26.6357  -14.3897   28.8979 C   0  0  0  0  0  0  0  0  0  0  0  0
  -23.9872  -10.0257   26.9736 C   0  0  0  0  0  0  0  0  0  0  0  0
  -26.0343  -15.6383   28.6846 C   0  0  0  0  0  0  0  0  0  0  0  0
  -31.1268  -17.1656   24.7551 C   0  0  0  0  0  0  0  0  0  0  0  0
  -31.1586  -15.4335   23.0711 C   0  0  0  0  0  0  0  0  0  0  0  0
  -22.5172   -8.1148   21.4870 C   0  0  0  0  0  0  0  0  0  0  0  0
  -27.8215  -16.2220   27.1435 C   0  0  0  0  0  0  0  0  0  0  0  0
  -21.0703   -6.8989   22.8836 C   0  0  0  0  0  0  0  0  0  0  0  0
  -19.5158   -6.7805   25.1970 C   0  0  0  0  0  0  0  0  0  0  0  0
  -32.5496  -15.3750   23.1576 C   0  0  0  0  0  0  0  0  0  0  0  0
  -21.3408   -5.9374   23.8571 C   0  0  0  0  0  0  0  0  0  0  0  0
  -30.4473  -16.3289   23.8699 C   0  0  0  0  0  0  0  0  0  0  0  0
  -24.6177  -11.7056   20.7178 C   0  0  0  0  0  0  0  0  0  0  0  0
  -25.1859  -13.8155   20.4723 C   0  0  0  0  0  0  0  0  0  0  0  0
  -22.8222  -13.4793   21.2128 C   0  0  0  0  0  0  0  0  0  0  0  0
  -23.7055  -13.1578   28.9136 C   0  0  0  0  0  0  0  0  0  0  0  0
  -23.2186  -15.3475   31.2568 C   0  0  0  0  0  0  0  0  0  0  0  0
  -24.1382  -18.3007   32.6988 C   0  0  0  0  0  0  0  0  0  0  0  0
  -30.9352  -14.0837   20.9558 C   0  0  0  0  0  0  0  0  0  0  0  0
  -22.4368   -8.2950   28.0185 C   0  0  0  0  0  0  0  0  0  0  0  0
  -26.0287  -13.4064   29.8607 C   0  0  0  0  0  0  0  0  0  0  0  0
  -24.7546  -16.0305   29.3754 C   0  0  0  0  0  0  0  0  0  0  0  0
  -21.8533   -9.4422   28.8393 C   0  0  0  0  0  0  0  0  0  0  0  0
  -29.3618  -13.1192   17.9110 C   0  0  0  0  0  0  0  0  0  0  0  0
  -21.7673  -10.7112   27.9972 C   0  0  0  0  0  0  0  0  0  0  0  0
  -27.9294  -12.7845   18.3332 C   0  0  0  0  0  0  0  0  0  0  0  0
  -30.3786  -12.6973   18.9701 C   0  0  0  0  0  0  0  0  0  0  0  0
  -28.6789  -12.8670   20.7454 C   0  0  0  0  0  0  0  0  0  0  0  0
  -23.1581  -11.1610   27.5337 C   0  0  1  0  0  0  0  0  0  0  0  0
  -24.5344  -13.6257   30.0762 C   0  0  1  0  0  0  0  0  0  0  0  0
  -27.6138  -13.3321   19.7390 C   0  0  2  0  0  0  0  0  0  0  0  0
  -23.5297  -19.8493   34.5774 C   0  0  0  0  0  0  0  0  0  0  0  0
  -20.8183  -16.3415   29.6566 C   0  0  0  0  0  0  0  0  0  0  0  0
  -20.8406  -18.4226   31.0482 C   0  0  0  0  0  0  0  0  0  0  0  0
  -20.4432  -16.2081   32.1256 C   0  0  0  0  0  0  0  0  0  0  0  0
  -26.7915  -17.9865   33.9718 C   0  0  0  0  0  0  0  0  0  0  0  0
  -30.3622  -18.1327   25.6194 C   0  0  0  0  0  0  0  0  0  0  0  0
  -22.7613  -16.7856   31.2978 C   0  0  1  0  0  0  0  0  0  0  0  0
  -24.3975  -18.6771   34.1464 C   0  0  2  0  0  0  0  0  0  0  0  0
  -21.2389  -16.9316   31.0174 C   0  0  0  0  0  0  0  0  0  0  0  0
  -25.8938  -11.6650   20.3254 N   0  0  0  0  0  0  0  0  0  0  0  0
  -26.2110  -12.9632   20.1841 N   0  0  0  0  0  0  0  0  0  0  0  0
  -24.1965  -15.0324   30.3027 N   0  0  0  0  0  0  0  0  0  0  0  0
  -30.0174  -13.2564   20.2747 N   0  0  0  0  0  0  0  0  0  0  0  0
  -25.3334  -15.1544   20.3825 N   0  0  0  0  0  0  0  0  0  0  0  0
  -21.8487  -12.5272   21.5449 N   0  0  0  0  0  0  0  0  0  0  0  0
  -30.4691  -14.5834   22.1714 N   0  0  0  0  0  0  0  0  0  0  0  0
  -23.8627  -11.8181   28.6136 N   0  0  0  0  0  0  0  0  0  0  0  0
  -23.1837  -17.3115   32.5914 N   0  0  0  0  0  0  0  0  0  0  0  0
  -29.7336  -17.4676   26.7517 N   0  0  0  0  0  0  0  0  0  1  0  0
  -25.8264  -19.0559   34.3352 N   0  3  0  0  0  0  0  0  0  0  0  0
  -22.5259  -14.6977   21.2463 O   0  0  0  0  0  0  0  0  0  0  0  0
  -22.9761  -13.9529   28.3327 O   0  0  0  0  0  0  0  0  0  0  0  0
  -22.7315  -14.5352   32.0470 O   0  0  0  0  0  0  0  0  0  0  0  0
  -24.7213  -18.8337   31.7573 O   0  0  0  0  0  0  0  0  0  0  0  0
  -32.0420  -14.3528   20.4819 O   0  0  0  0  0  0  0  0  0  0  0  0
  -21.8415   -6.9596   21.7350 O   0  0  0  0  0  0  0  0  0  0  0  0
  -28.3925  -17.1131   26.2881 O   0  0  0  0  0  0  0  0  0  1  0  0
  -18.7703   -6.7247   26.3084 F   0  0  0  0  0  0  0  0  0  0  0  0
  -33.2434  -14.5186   22.3944 F   0  0  0  0  0  0  0  0  0  0  0  0
  -22.3468   -5.0685   23.6872 F   0  0  0  0  0  0  0  0  0  0  0  0
  -29.1094  -16.3865   23.7886 F   0  0  0  0  0  0  0  0  0  0  0  0
  1  2  1  0  0  0  0
  1  5  2  0  0  0  0
  2  6  2  0  0  0  0
  3  9  2  0  0  0  0
  3 17  1  0  0  0  0
  4 10  1  0  0  0  0
  4 17  2  0  0  0  0
  5 19  1  0  0  0  0
  6 21  1  0  0  0  0
  7 11  2  0  0  0  0
  7 20  1  0  0  0  0
  8 13  2  0  0  0  0
  8 23  1  0  0  0  0
  9 25  1  0  0  0  0
 10 25  2  0  0  0  0
 11 26  1  0  0  0  0
 12 14  2  0  0  0  0
 12 27  1  0  0  0  0
 13 29  1  0  0  0  0
 14 28  1  0  0  0  0
 15 22  1  0  0  0  0
 15 26  2  0  0  0  0
 16 28  2  0  0  0  0
 16 30  1  0  0  0  0
 17 32  1  0  0  0  0
 18 32  1  0  0  0  0
 18 33  2  0  0  0  0
 18 34  1  0  0  0  0
 19 21  2  0  0  0  0
 19 39  1  0  0  0  0
 20 22  2  0  0  0  0
 20 40  1  0  0  0  0
 21 48  1  0  0  0  0
 22 41  1  0  0  0  0
 23 31  2  0  0  0  0
 23 56  1  0  0  0  0
 24 29  2  0  0  0  0
 24 31  1  0  0  0  0
 24 66  1  0  0  0  0
 25 76  1  0  0  0  0
 26 77  1  0  0  0  0
 27 30  2  0  0  0  0
 27 76  1  0  0  0  0
 28 78  1  0  0  0  0
 29 79  1  0  0  0  0
 30 80  1  0  0  0  0
 31 81  1  0  0  0  0
 32 60  2  0  0  0  0
 33 61  1  0  0  0  0
 33 64  1  0  0  0  0
 34 65  1  0  0  0  0
 34 71  2  0  0  0  0
 35 49  1  0  0  0  0
 35 67  1  0  0  0  0
 35 72  2  0  0  0  0
 36 57  1  0  0  0  0
 36 62  1  0  0  0  0
 36 73  2  0  0  0  0
 37 58  1  0  0  0  0
 37 68  1  0  0  0  0
 37 74  2  0  0  0  0
 38 63  1  0  0  0  0
 38 66  1  0  0  0  0
 38 75  2  0  0  0  0
 39 42  1  0  0  0  0
 40 49  1  0  0  0  0
 41 62  1  0  0  0  0
 42 44  1  0  0  0  0
 43 45  1  0  0  0  0
 43 46  1  0  0  0  0
 44 48  1  0  0  0  0
 45 50  1  0  0  0  0
 46 63  1  0  0  0  0
 47 50  1  0  0  0  0
 47 63  1  0  0  0  0
 48 67  1  0  0  0  0
 49 62  1  0  0  0  0
 50 61  1  0  0  0  0
 51 58  1  0  0  0  0
 52 59  1  0  0  0  0
 53 59  1  0  0  0  0
 54 59  1  0  0  0  0
 55 70  1  0  0  0  0
 56 69  1  0  0  0  0
 57 59  1  0  0  0  0
 57 68  1  0  0  0  0
 58 70  1  0  0  0  0
 60 61  1  0  0  0  0
 69 77  1  0  0  0  0
M  CHG  1  70   1
M  ISO  4  38 100  66 100  69 101  77 101
M  END
> <Batch ID>
0008

> <Smiles>
CNC(C)C(=O)NC(C(=O)N1Cc2cc([101O:1][101NH:1]Cc3ccc(F)c([100NH:0][100C:0](=O)N4CCCC(n5nc(-c6ccc(Oc7ccc(F)cc7F)cc6)c(C(N)=O)c5N)C4)c3F)ccc2CC1C(=O)NC1CCCc2ccccc21)C(C)(C)C

> <Shape>
0.159

> <Color>
0.198

> <Negative vol penalty>
0.000

$$$$

  -OEChem-04042320353D

 84 93  0     1  0  0  0  0  0999 V2000
  -17.6002  -13.7691   21.5537 C   0  0  0  0  0  0  0  0  0  0  0  0
  -18.3941  -14.8465   21.1736 C   0  0  0  0  0  0  0  0  0  0  0  0
  -22.9498  -28.7095   22.3089 C   0  0  0  0  0  0  0  0  0  0  0  0
  -23.0872  -30.3529   20.5432 C   0  0  0  0  0  0  0  0  0  0  0  0
  -18.1467  -12.7359   22.3137 C   0  0  0  0  0  0  0  0  0  0  0  0
  -19.7348  -14.8918   21.5543 C   0  0  0  0  0  0  0  0  0  0  0  0
  -24.4013  -17.2017   18.3305 C   0  0  0  0  0  0  0  0  0  0  0  0
  -27.7549  -23.5054   22.1337 C   0  0  0  0  0  0  0  0  0  0  0  0
  -28.4522  -24.3208   23.0250 C   0  0  0  0  0  0  0  0  0  0  0  0
  -21.8120  -29.3424   22.8094 C   0  0  0  0  0  0  0  0  0  0  0  0
  -21.9494  -30.9858   21.0437 C   0  0  0  0  0  0  0  0  0  0  0  0
  -25.0599  -18.4295   18.3816 C   0  0  0  0  0  0  0  0  0  0  0  0
  -18.5149  -29.4864   22.0737 C   0  0  0  0  0  0  0  0  0  0  0  0
  -17.4329  -28.6839   22.4354 C   0  0  0  0  0  0  0  0  0  0  0  0
  -26.7556  -17.4543   19.7933 C   0  0  0  0  0  0  0  0  0  0  0  0
  -29.1989  -24.2327   20.3385 C   0  0  0  0  0  0  0  0  0  0  0  0
  -17.5766  -29.5111   24.7008 C   0  0  0  0  0  0  0  0  0  0  0  0
  -23.5875  -29.2148   21.1758 C   0  0  0  0  0  0  0  0  0  0  0  0
  -24.8113  -27.5302   19.7020 C   0  0  0  0  0  0  0  0  0  0  0  0
  -19.4973  -12.7638   22.6957 C   0  0  0  0  0  0  0  0  0  0  0  0
  -24.9100  -16.0919   19.0204 C   0  0  0  0  0  0  0  0  0  0  0  0
  -20.2995  -13.8586   22.3213 C   0  0  0  0  0  0  0  0  0  0  0  0
  -26.1030  -16.2129   19.7472 C   0  0  0  0  0  0  0  0  0  0  0  0
  -28.1283  -23.4613   20.7904 C   0  0  0  0  0  0  0  0  0  0  0  0
  -29.5229  -25.0922   22.5730 C   0  0  0  0  0  0  0  0  0  0  0  0
  -21.3118  -30.4805   22.1768 C   0  0  0  0  0  0  0  0  0  0  0  0
  -26.2356  -18.5567   19.1155 C   0  0  0  0  0  0  0  0  0  0  0  0
  -19.1278  -30.3013   23.0256 C   0  0  0  0  0  0  0  0  0  0  0  0
  -16.9638  -28.6962   23.7490 C   0  0  0  0  0  0  0  0  0  0  0  0
  -29.8963  -25.0482   21.2298 C   0  0  0  0  0  0  0  0  0  0  0  0
  -18.6587  -30.3137   24.3391 C   0  0  0  0  0  0  0  0  0  0  0  0
  -24.7632  -28.5618   20.6587 C   0  0  0  0  0  0  0  0  0  0  0  0
  -26.1500  -27.2610   19.5544 C   0  0  0  0  0  0  0  0  0  0  0  0
  -23.7415  -26.8741   19.0086 C   0  0  0  0  0  0  0  0  0  0  0  0
  -23.8507  -14.2343   21.3722 C   0  0  0  0  0  0  0  0  0  0  0  0
  -26.5385  -12.5395   20.7194 C   0  0  0  0  0  0  0  0  0  0  0  0
  -29.6977  -12.5015   19.4291 C   0  0  0  0  0  0  0  0  0  0  0  0
  -30.8682  -27.1375   23.1189 C   0  0  0  0  0  0  0  0  0  0  0  0
  -20.0312  -11.6469   23.5573 C   0  0  0  0  0  0  0  0  0  0  0  0
  -24.2020  -14.7676   18.9334 C   0  0  0  0  0  0  0  0  0  0  0  0
  -26.7014  -15.0467   20.4890 C   0  0  0  0  0  0  0  0  0  0  0  0
  -21.5559  -11.5879   23.6021 C   0  0  0  0  0  0  0  0  0  0  0  0
  -30.3475  -29.6826   20.4837 C   0  0  0  0  0  0  0  0  0  0  0  0
  -22.1373  -12.9786   23.8359 C   0  0  0  0  0  0  0  0  0  0  0  0
  -28.8418  -29.6118   20.2363 C   0  0  0  0  0  0  0  0  0  0  0  0
  -26.5607  -21.7874   17.9024 C   0  0  0  0  0  0  0  0  0  0  0  0
  -30.7054  -29.2923   21.9145 C   0  0  0  0  0  0  0  0  0  0  0  0
  -27.7543  -22.5414   18.4885 C   0  0  0  0  0  0  0  0  0  0  0  0
  -28.6763  -27.8777   22.0659 C   0  0  0  0  0  0  0  0  0  0  0  0
  -26.3090  -21.8058   20.2887 C   0  0  0  0  0  0  0  0  0  0  0  0
  -21.7645  -13.9316   22.6939 C   0  0  1  0  0  0  0  0  0  0  0  0
  -24.5335  -13.8354   20.0946 C   0  0  1  0  0  0  0  0  0  0  0  0
  -28.2937  -28.2274   20.6199 C   0  0  1  0  0  0  0  0  0  0  0  0
  -26.0795  -20.9257   19.0607 C   0  0  2  0  0  0  0  0  0  1  0  0
  -31.6614  -10.9805   19.0716 C   0  0  0  0  0  0  0  0  0  0  0  0
  -27.2496  -12.7661   23.6779 C   0  0  0  0  0  0  0  0  0  0  0  0
  -29.5906  -12.0968   23.0950 C   0  0  0  0  0  0  0  0  0  0  0  0
  -27.7020  -10.5248   22.6649 C   0  0  0  0  0  0  0  0  0  0  0  0
  -30.5525  -25.3926   24.8181 C   0  0  0  0  0  0  0  0  0  0  0  0
  -29.5611  -12.8251   16.4905 C   0  0  0  0  0  0  0  0  0  0  0  0
  -27.9674  -12.5721   21.2055 C   0  0  1  0  0  0  0  0  0  0  0  0
  -30.3830  -11.5441   18.4709 C   0  0  2  0  0  0  0  0  0  0  0  0
  -28.1153  -12.0126   22.6485 C   0  0  0  0  0  0  0  0  0  0  0  0
  -25.9750  -28.9232   21.0887 N   0  0  0  0  0  0  0  0  0  0  0  0
  -26.7971  -28.1141   20.3990 N   0  0  0  0  0  0  0  0  0  0  0  0
  -27.4392  -22.6545   19.9094 N   0  0  3  0  0  0  0  0  0  0  0  0
  -25.9688  -13.7745   20.3785 N   0  0  0  0  0  0  0  0  0  0  0  0
  -30.1267  -28.0000   22.2856 N   0  0  0  0  0  0  0  0  0  0  0  0
  -26.8249  -26.3799   18.7859 N   0  0  0  0  0  0  0  0  0  0  0  0
  -22.4256  -27.2737   19.2791 N   0  0  0  0  0  0  0  0  0  0  0  0
  -22.5949  -13.6814   21.5353 N   0  0  0  0  0  0  0  0  0  0  0  0
  -28.7552  -11.8603   20.2049 N   0  0  0  0  0  0  0  0  0  0  0  0
  -30.2417  -25.9348   23.4973 N   0  0  0  0  0  0  0  0  0  0  0  0
  -30.7286  -12.2418   17.2002 N   0  3  0  0  0  0  0  0  0  0  0  0
  -23.9454  -25.9493   18.1860 O   0  0  0  0  0  0  0  0  0  0  0  0
  -24.4216  -14.9867   22.1530 O   0  0  0  0  0  0  0  0  0  0  0  0
  -25.9519  -11.4575   20.6381 O   0  0  0  0  0  0  0  0  0  0  0  0
  -29.9737  -13.6978   19.4865 O   0  0  0  0  0  0  0  0  0  0  0  0
  -31.9898  -27.4419   23.5432 O   0  0  0  0  0  0  0  0  0  0  0  0
  -20.2014  -31.0981   22.6647 O   0  0  0  0  0  0  0  0  0  0  0  0
  -26.8801  -19.7541   19.1676 O   0  0  0  0  0  0  0  0  0  1  0  0
  -15.9238  -27.9266   24.0958 F   0  0  0  0  0  0  0  0  0  0  0  0
  -30.9234  -25.7858   20.7845 F   0  0  0  0  0  0  0  0  0  0  0  0
  -19.2427  -31.0953   25.2577 F   0  0  0  0  0  0  0  0  0  0  0  0
  1  2  1  0  0  0  0
  1  5  2  0  0  0  0
  2  6  2  0  0  0  0
  3 10  2  0  0  0  0
  3 18  1  0  0  0  0
  4 11  1  0  0  0  0
  4 18  2  0  0  0  0
  5 20  1  0  0  0  0
  6 22  1  0  0  0  0
  7 12  2  0  0  0  0
  7 21  1  0  0  0  0
  8  9  2  0  0  0  0
  8 24  1  0  0  0  0
  9 25  1  0  0  0  0
 10 26  1  0  0  0  0
 11 26  2  0  0  0  0
 12 27  1  0  0  0  0
 13 14  2  0  0  0  0
 13 28  1  0  0  0  0
 14 29  1  0  0  0  0
 15 23  1  0  0  0  0
 15 27  2  0  0  0  0
 16 24  2  0  0  0  0
 16 30  1  0  0  0  0
 17 29  2  0  0  0  0
 17 31  1  0  0  0  0
 18 32  1  0  0  0  0
 19 32  1  0  0  0  0
 19 33  2  0  0  0  0
 19 34  1  0  0  0  0
 20 22  2  0  0  0  0
 20 39  1  0  0  0  0
 21 23  2  0  0  0  0
 21 40  1  0  0  0  0
 22 51  1  0  0  0  0
 23 41  1  0  0  0  0
 24 66  1  0  0  0  0
 25 30  2  0  0  0  0
 25 73  1  0  0  0  0
 26 80  1  0  0  0  0
 27 81  1  0  0  0  0
 28 31  2  0  0  0  0
 28 80  1  0  0  0  0
 29 82  1  0  0  0  0
 30 83  1  0  0  0  0
 31 84  1  0  0  0  0
 32 64  2  0  0  0  0
 33 65  1  0  0  0  0
 33 69  1  0  0  0  0
 34 70  1  0  0  0  0
 34 75  2  0  0  0  0
 35 52  1  0  0  0  0
 35 71  1  0  0  0  0
 35 76  2  0  0  0  0
 36 61  1  0  0  0  0
 36 67  1  0  0  0  0
 36 77  2  0  0  0  0
 37 62  1  0  0  0  0
 37 72  1  0  0  0  0
 37 78  2  0  0  0  0
 38 68  1  0  0  0  0
 38 73  1  0  0  0  0
 38 79  2  0  0  0  0
 39 42  1  0  0  0  0
 40 52  1  0  0  0  0
 41 67  1  0  0  0  0
 42 44  1  0  0  0  0
 43 45  1  0  0  0  0
 43 47  1  0  0  0  0
 44 51  1  0  0  0  0
 45 53  1  0  0  0  0
 46 48  1  0  0  0  0
 46 54  1  0  0  0  0
 47 68  1  0  0  0  0
 48 66  1  0  0  0  0
 49 53  1  0  0  0  0
 49 68  1  0  0  0  0
 50 54  1  0  0  0  0
 50 66  1  0  0  0  0
 51 71  1  0  0  0  0
 52 67  1  0  0  0  0
 53 65  1  0  0  0  0
 54 81  1  0  0  0  0
 55 62  1  0  0  0  0
 56 63  1  0  0  0  0
 57 63  1  0  0  0  0
 58 63  1  0  0  0  0
 59 73  1  0  0  0  0
 60 74  1  0  0  0  0
 61 63  1  0  0  0  0
 61 72  1  0  0  0  0
 62 74  1  0  0  0  0
 64 65  1  0  0  0  0
M  CHG  1  74   1
M  ISO  4  38 100  54 101  73 100  81 101
M  END
> <Batch ID>
0008

> <Smiles>
CNC(C)C(=O)NC(C(=O)N1Cc2cc([101O:1][101CH:1]3CCN(c4ccc([100N:0](C)[100C:0](=O)N5CCCC(n6nc(-c7ccc(Oc8ccc(F)cc8F)cc7)c(C(N)=O)c6N)C5)c(F)c4)C3)ccc2CC1C(=O)NC1CCCc2ccccc21)C(C)(C)C

> <Shape>
0.241

> <Color>
0.060

> <Negative vol penalty>
0.000

$$$$

  -OEChem-04042320353D

 83 91  0     1  0  0  0  0  0999 V2000
  -21.3095   -7.6263   24.2995 C   0  0  0  0  0  0  0  0  0  0  0  0
  -22.3528   -8.4761   24.6527 C   0  0  0  0  0  0  0  0  0  0  0  0
  -26.8096  -29.8893   19.4912 C   0  0  0  0  0  0  0  0  0  0  0  0
  -26.8736  -29.2630   21.8238 C   0  0  0  0  0  0  0  0  0  0  0  0
  -27.8688  -19.1091   23.6560 C   0  0  0  0  0  0  0  0  0  0  0  0
  -21.1474   -7.2386   22.9701 C   0  0  0  0  0  0  0  0  0  0  0  0
  -23.2353   -8.9379   23.6768 C   0  0  0  0  0  0  0  0  0  0  0  0
  -24.1868  -13.8932   24.1062 C   0  0  0  0  0  0  0  0  0  0  0  0
  -28.2738  -19.9243   22.5992 C   0  0  0  0  0  0  0  0  0  0  0  0
  -25.7125  -30.7131   19.7425 C   0  0  0  0  0  0  0  0  0  0  0  0
  -25.7764  -30.0868   22.0751 C   0  0  0  0  0  0  0  0  0  0  0  0
  -25.0873  -14.2852   25.0957 C   0  0  0  0  0  0  0  0  0  0  0  0
  -22.4222  -29.9612   21.6702 C   0  0  0  0  0  0  0  0  0  0  0  0
  -21.3960  -29.4496   22.4643 C   0  0  0  0  0  0  0  0  0  0  0  0
  -28.3619  -20.8867   25.2162 C   0  0  0  0  0  0  0  0  0  0  0  0
  -26.8243  -14.4723   23.4323 C   0  0  0  0  0  0  0  0  0  0  0  0
  -21.7399  -31.2327   24.0578 C   0  0  0  0  0  0  0  0  0  0  0  0
  -27.3902  -29.1642   20.5319 C   0  0  0  0  0  0  0  0  0  0  0  0
  -27.9128  -19.5903   24.9646 C   0  0  0  0  0  0  0  0  0  0  0  0
  -29.8843  -28.6674   20.3310 C   0  0  0  0  0  0  0  0  0  0  0  0
  -22.0225   -7.7035   21.9758 C   0  0  0  0  0  0  0  0  0  0  0  0
  -24.6017  -13.7771   22.7717 C   0  0  0  0  0  0  0  0  0  0  0  0
  -23.0855   -8.5550   22.3330 C   0  0  0  0  0  0  0  0  0  0  0  0
  -25.9265  -14.0811   22.4273 C   0  0  0  0  0  0  0  0  0  0  0  0
  -28.7228  -21.2207   22.8508 C   0  0  0  0  0  0  0  0  0  0  0  0
  -25.1959  -30.8119   21.0344 C   0  0  0  0  0  0  0  0  0  0  0  0
  -26.4070  -14.5721   24.7593 C   0  0  0  0  0  0  0  0  0  0  0  0
  -23.1074  -31.1086   22.0699 C   0  0  0  0  0  0  0  0  0  0  0  0
  -21.0548  -30.0853   23.6581 C   0  0  0  0  0  0  0  0  0  0  0  0
  -28.7669  -21.7020   24.1593 C   0  0  0  0  0  0  0  0  0  0  0  0
  -22.7662  -31.7444   23.2637 C   0  0  0  0  0  0  0  0  0  0  0  0
  -28.5232  -28.3126   20.2728 C   0  0  0  0  0  0  0  0  0  0  0  0
  -30.5542  -27.5139   20.0037 C   0  0  0  0  0  0  0  0  0  0  0  0
  -27.4841  -18.7280   26.0840 C   0  0  0  0  0  0  0  0  0  0  0  0
  -30.4890  -29.9271   20.6522 C   0  0  0  0  0  0  0  0  0  0  0  0
  -24.7699  -11.3946   20.6742 C   0  0  0  0  0  0  0  0  0  0  0  0
  -25.6002  -13.7718   18.6291 C   0  0  0  0  0  0  0  0  0  0  0  0
  -26.9037  -16.8956   18.1939 C   0  0  0  0  0  0  0  0  0  0  0  0
  -29.1507  -21.7205   20.4190 C   0  0  0  0  0  0  0  0  0  0  0  0
  -21.8355   -7.2193   20.5598 C   0  0  0  0  0  0  0  0  0  0  0  0
  -23.6114  -13.3788   21.7120 C   0  0  0  0  0  0  0  0  0  0  0  0
  -26.4170  -13.9915   21.0061 C   0  0  0  0  0  0  0  0  0  0  0  0
  -22.5898   -8.0523   19.5266 C   0  0  0  0  0  0  0  0  0  0  0  0
  -30.0543  -23.4859   17.4620 C   0  0  0  0  0  0  0  0  0  0  0  0
  -24.0221   -8.3043   19.9866 C   0  0  0  0  0  0  0  0  0  0  0  0
  -29.8940  -24.9565   17.8544 C   0  0  0  0  0  0  0  0  0  0  0  0
  -28.9819  -22.6075   18.1039 C   0  0  0  0  0  0  0  0  0  0  0  0
  -28.7015  -24.2100   19.9539 C   0  0  0  0  0  0  0  0  0  0  0  0
  -24.0486   -9.0968   21.2991 C   0  0  1  0  0  0  0  0  0  0  0  0
  -24.2715  -12.7967   20.4658 C   0  0  1  0  0  0  0  0  0  0  0  0
  -29.7979  -25.1245   19.3835 C   0  0  2  0  0  0  0  0  0  0  0  0
  -27.4912  -18.5531   16.4037 C   0  0  0  0  0  0  0  0  0  0  0  0
  -28.0782  -12.1347   17.9299 C   0  0  0  0  0  0  0  0  0  0  0  0
  -29.0672  -14.1964   16.9104 C   0  0  0  0  0  0  0  0  0  0  0  0
  -26.9660  -13.2299   15.9760 C   0  0  0  0  0  0  0  0  0  0  0  0
  -25.0175  -18.9047   19.2731 C   0  0  0  0  0  0  0  0  0  0  0  0
  -27.7994  -16.6358   27.3567 C   0  0  0  0  0  0  0  0  0  0  0  0
  -26.7586  -15.6614   26.8439 C   0  0  0  0  0  0  0  0  0  1  0  0
  -26.8996  -14.4148   18.2084 C   0  0  1  0  0  0  0  0  0  0  0  0
  -26.4234  -18.0830   17.3792 C   0  0  2  0  0  0  0  0  0  0  0  0
  -27.7443  -13.4939   17.2833 C   0  0  0  0  0  0  0  0  0  0  0  0
  -28.3378  -27.0337   19.9350 N   0  0  0  0  0  0  0  0  0  0  0  0
  -29.5911  -26.5749   19.7779 N   0  0  0  0  0  0  0  0  0  0  0  0
  -25.4124  -13.5917   20.0069 N   0  0  0  0  0  0  0  0  0  0  0  0
  -28.9519  -22.8167   19.5531 N   0  0  0  0  0  0  0  0  0  0  0  0
  -31.8671  -27.2213   19.8899 N   0  0  0  0  0  0  0  0  0  0  0  0
  -26.4700  -19.1424   26.8434 N   0  0  0  0  0  0  0  0  0  0  0  0
  -29.6542  -31.0087   20.9647 N   0  0  0  0  0  0  0  0  0  0  0  0
  -29.1333  -22.0463   21.7748 N   0  0  0  0  0  0  0  0  0  0  0  0
  -23.7874  -10.4981   21.0488 N   0  0  0  0  0  0  0  0  0  0  0  0
  -26.5455  -15.6982   17.6116 N   0  0  0  0  0  0  0  0  0  0  0  0
  -28.1343  -17.5753   26.2837 N   0  3  0  0  0  0  0  0  0  0  0  0
  -26.0737  -19.2199   18.2771 N   0  3  0  0  0  0  0  0  0  0  0  0
  -31.7324  -30.0931   20.6457 O   0  0  0  0  0  0  0  0  0  0  0  0
  -25.9577  -11.1444   20.5060 O   0  0  0  0  0  0  0  0  0  0  0  0
  -24.7789  -13.4479   17.7676 O   0  0  0  0  0  0  0  0  0  0  0  0
  -27.5369  -17.0181   19.2402 O   0  0  0  0  0  0  0  0  0  0  0  0
  -29.3506  -20.5817   19.9889 O   0  0  0  0  0  0  0  0  0  0  0  0
  -24.1254  -31.6159   21.2800 O   0  0  0  0  0  0  0  0  0  0  0  0
  -27.2882  -14.9543   25.7233 O   0  0  0  0  0  0  0  0  0  1  0  0
  -20.0682  -29.5947   24.4198 F   0  0  0  0  0  0  0  0  0  0  0  0
  -29.1980  -22.9459   24.4129 F   0  0  0  0  0  0  0  0  0  0  0  0
  -23.4200  -32.8477   23.6523 F   0  0  0  0  0  0  0  0  0  0  0  0
  1  2  1  0  0  0  0
  1  6  2  0  0  0  0
  2  7  2  0  0  0  0
  3 10  2  0  0  0  0
  3 18  1  0  0  0  0
  4 11  1  0  0  0  0
  4 18  2  0  0  0  0
  5  9  2  0  0  0  0
  5 19  1  0  0  0  0
  6 21  1  0  0  0  0
  7 23  1  0  0  0  0
  8 12  2  0  0  0  0
  8 22  1  0  0  0  0
  9 25  1  0  0  0  0
 10 26  1  0  0  0  0
 11 26  2  0  0  0  0
 12 27  1  0  0  0  0
 13 14  2  0  0  0  0
 13 28  1  0  0  0  0
 14 29  1  0  0  0  0
 15 19  2  0  0  0  0
 15 30  1  0  0  0  0
 16 24  1  0  0  0  0
 16 27  2  0  0  0  0
 17 29  2  0  0  0  0
 17 31  1  0  0  0  0
 18 32  1  0  0  0  0
 19 34  1  0  0  0  0
 20 32  1  0  0  0  0
 20 33  2  0  0  0  0
 20 35  1  0  0  0  0
 21 23  2  0  0  0  0
 21 40  1  0  0  0  0
 22 24  2  0  0  0  0
 22 41  1  0  0  0  0
 23 49  1  0  0  0  0
 24 42  1  0  0  0  0
 25 30  2  0  0  0  0
 25 69  1  0  0  0  0
 26 79  1  0  0  0  0
 27 80  1  0  0  0  0
 28 31  2  0  0  0  0
 28 79  1  0  0  0  0
 29 81  1  0  0  0  0
 30 82  1  0  0  0  0
 31 83  1  0  0  0  0
 32 62  2  0  0  0  0
 33 63  1  0  0  0  0
 33 66  1  0  0  0  0
 34 67  1  0  0  0  0
 34 72  2  0  0  0  0
 35 68  1  0  0  0  0
 35 74  2  0  0  0  0
 36 50  1  0  0  0  0
 36 70  1  0  0  0  0
 36 75  2  0  0  0  0
 37 59  1  0  0  0  0
 37 64  1  0  0  0  0
 37 76  2  0  0  0  0
 38 60  1  0  0  0  0
 38 71  1  0  0  0  0
 38 77  2  0  0  0  0
 39 65  1  0  0  0  0
 39 69  1  0  0  0  0
 39 78  2  0  0  0  0
 40 43  1  0  0  0  0
 41 50  1  0  0  0  0
 42 64  1  0  0  0  0
 43 45  1  0  0  0  0
 44 46  1  0  0  0  0
 44 47  1  0  0  0  0
 45 49  1  0  0  0  0
 46 51  1  0  0  0  0
 47 65  1  0  0  0  0
 48 51  1  0  0  0  0
 48 65  1  0  0  0  0
 49 70  1  0  0  0  0
 50 64  1  0  0  0  0
 51 63  1  0  0  0  0
 52 60  1  0  0  0  0
 53 61  1  0  0  0  0
 54 61  1  0  0  0  0
 55 61  1  0  0  0  0
 56 73  1  0  0  0  0
 57 58  1  0  0  0  0
 57 72  1  0  0  0  0
 58 80  1  0  0  0  0
 59 61  1  0  0  0  0
 59 71  1  0  0  0  0
 60 73  1  0  0  0  0
 62 63  1  0  0  0  0
M  CHG  2  72   1  73   1
M  ISO  4  39 100  58 101  69 100  80 101
M  END
> <Batch ID>
0008

> <Smiles>
CNC(C)C(=O)NC(C(=O)N1Cc2cc([101O:1][101CH2:1]CNC(=N)c3ccc([100NH:0][100C:0](=O)N4CCCC(n5nc(-c6ccc(Oc7ccc(F)cc7F)cc6)c(C(N)=O)c5N)C4)c(F)c3)ccc2CC1C(=O)NC1CCCc2ccccc21)C(C)(C)C

> <Shape>
0.247

> <Color>
0.061

> <Negative vol penalty>
0.000

$$$$

  -OEChem-04042320353D

 84 93  0     1  0  0  0  0  0999 V2000
  -27.9687  -37.9465   24.1786 C   0  0  0  0  0  0  0  0  0  0  0  0
  -28.5470  -36.7584   24.6138 C   0  0  0  0  0  0  0  0  0  0  0  0
  -22.8991  -10.0773   20.0473 C   0  0  0  0  0  0  0  0  0  0  0  0
  -24.3536   -9.5924   21.9144 C   0  0  0  0  0  0  0  0  0  0  0  0
  -26.5822  -38.0478   24.0729 C   0  0  0  0  0  0  0  0  0  0  0  0
  -27.7390  -35.6711   24.9444 C   0  0  0  0  0  0  0  0  0  0  0  0
  -28.4572  -29.3523   21.5609 C   0  0  0  0  0  0  0  0  0  0  0  0
  -23.9846  -21.0948   19.2419 C   0  0  0  0  0  0  0  0  0  0  0  0
  -21.9062   -9.2774   20.6131 C   0  0  0  0  0  0  0  0  0  0  0  0
  -23.3608   -8.7926   22.4802 C   0  0  0  0  0  0  0  0  0  0  0  0
  -28.6753  -28.0514   21.1067 C   0  0  0  0  0  0  0  0  0  0  0  0
  -22.1290   -5.6733   22.0511 C   0  0  0  0  0  0  0  0  0  0  0  0
  -23.3727  -19.8777   18.9423 C   0  0  0  0  0  0  0  0  0  0  0  0
  -22.5092   -4.4320   22.5611 C   0  0  0  0  0  0  0  0  0  0  0  0
  -26.8026  -27.2673   22.4204 C   0  0  0  0  0  0  0  0  0  0  0  0
  -25.7448  -19.9224   20.4099 C   0  0  0  0  0  0  0  0  0  0  0  0
  -21.7230   -5.0900   24.7488 C   0  0  0  0  0  0  0  0  0  0  0  0
  -24.1228  -10.2347   20.6980 C   0  0  0  0  0  0  0  0  0  0  0  0
  -25.7683  -10.8880   18.8613 C   0  0  0  0  0  0  0  0  0  0  0  0
  -25.7572  -36.9581   24.3933 C   0  0  0  0  0  0  0  0  0  0  0  0
  -27.4001  -29.6185   22.4356 C   0  0  0  0  0  0  0  0  0  0  0  0
  -26.3400  -35.7583   24.8442 C   0  0  0  0  0  0  0  0  0  0  0  0
  -26.5715  -28.5704   22.8690 C   0  0  0  0  0  0  0  0  0  0  0  0
  -25.1707  -21.1172   19.9756 C   0  0  0  0  0  0  0  0  0  0  0  0
  -25.1329  -18.7052   20.1103 C   0  0  0  0  0  0  0  0  0  0  0  0
  -22.1370   -8.6351   21.8295 C   0  0  0  0  0  0  0  0  0  0  0  0
  -27.8502  -27.0115   21.5356 C   0  0  0  0  0  0  0  0  0  0  0  0
  -21.5459   -6.6231   22.8900 C   0  0  0  0  0  0  0  0  0  0  0  0
  -22.3062   -4.1403   23.9099 C   0  0  0  0  0  0  0  0  0  0  0  0
  -23.9468  -18.6829   19.3766 C   0  0  0  0  0  0  0  0  0  0  0  0
  -21.3429   -6.3314   24.2388 C   0  0  0  0  0  0  0  0  0  0  0  0
  -25.1491  -11.0604   20.1138 C   0  0  0  0  0  0  0  0  0  0  0  0
  -26.6644  -11.9254   18.7757 C   0  0  0  0  0  0  0  0  0  0  0  0
  -25.5528   -9.8803   17.8645 C   0  0  0  0  0  0  0  0  0  0  0  0
  -25.5117  -32.1825   24.4194 C   0  0  0  0  0  0  0  0  0  0  0  0
  -23.4301  -30.2812   23.2102 C   0  0  0  0  0  0  0  0  0  0  0  0
  -21.4433  -28.2199   21.3552 C   0  0  0  0  0  0  0  0  0  0  0  0
  -26.8917  -17.3412   21.2902 C   0  0  0  0  0  0  0  0  0  0  0  0
  -24.2613  -37.1305   24.3084 C   0  0  0  0  0  0  0  0  0  0  0  0
  -27.1656  -30.9939   22.9988 C   0  0  0  0  0  0  0  0  0  0  0  0
  -25.4679  -28.8977   23.8374 C   0  0  0  0  0  0  0  0  0  0  0  0
  -23.4944  -35.8106   24.3201 C   0  0  0  0  0  0  0  0  0  0  0  0
  -29.3579  -14.7831   21.5167 C   0  0  0  0  0  0  0  0  0  0  0  0
  -24.0228  -34.8960   25.4207 C   0  0  0  0  0  0  0  0  0  0  0  0
  -28.6165  -13.5235   21.0628 C   0  0  0  0  0  0  0  0  0  0  0  0
  -26.7663  -24.4712   19.5257 C   0  0  0  0  0  0  0  0  0  0  0  0
  -27.1213  -23.6675   21.8656 C   0  0  0  0  0  0  0  0  0  0  0  0
  -28.4552  -15.7116   22.3271 C   0  0  0  0  0  0  0  0  0  0  0  0
  -25.6298  -23.4677   19.3507 C   0  0  0  0  0  0  0  0  0  0  0  0
  -25.9824  -22.6669   21.6950 C   0  0  0  0  0  0  0  0  0  0  0  0
  -26.4464  -14.8089   21.2229 C   0  0  0  0  0  0  0  0  0  0  0  0
  -25.4982  -34.5488   25.1885 C   0  0  1  0  0  0  0  0  0  0  0  0
  -25.6746  -31.3150   23.2061 C   0  0  1  0  0  0  0  0  0  0  0  0
  -27.2966  -13.8734   20.3479 C   0  0  2  0  0  0  0  0  0  0  0  0
  -26.9310  -24.8936   20.9801 C   0  0  0  0  0  0  0  0  0  1  0  0
  -19.0322  -27.7071   20.8851 C   0  0  0  0  0  0  0  0  0  0  0  0
  -23.2168  -28.8436   25.8919 C   0  0  0  0  0  0  0  0  0  0  0  0
  -21.2432  -27.5973   24.9865 C   0  0  0  0  0  0  0  0  0  0  0  0
  -21.1551  -30.0808   25.2042 C   0  0  0  0  0  0  0  0  0  0  0  0
  -21.7396  -28.8898   18.4877 C   0  0  0  0  0  0  0  0  0  0  0  0
  -22.5870  -29.0451   23.3961 C   0  0  1  0  0  0  0  0  0  0  0  0
  -20.2529  -28.5072   20.4580 C   0  0  2  0  0  0  0  0  0  0  0  0
  -22.0756  -28.8907   24.8563 C   0  0  0  0  0  0  0  0  0  0  0  0
  -25.6126  -12.1235   20.7763 N   0  0  0  0  0  0  0  0  0  0  0  0
  -26.5327  -12.6285   19.9370 N   0  0  0  0  0  0  0  0  0  0  0  0
  -25.7855  -22.3394   20.2758 N   0  0  0  0  0  0  0  0  0  0  0  0
  -24.8050  -30.1494   23.4393 N   0  0  0  0  0  0  0  0  0  0  0  0
  -27.2263  -16.0026   21.5855 N   0  0  0  0  0  0  0  0  0  0  0  0
  -27.5442  -12.2957   17.8211 N   0  0  0  0  0  0  0  0  0  0  0  0
  -24.5945   -8.8883   18.1134 N   0  0  0  0  0  0  0  0  0  0  0  0
  -25.7181  -17.4929   20.5527 N   0  0  0  0  0  0  0  0  0  0  0  0
  -25.6237  -33.5357   24.1627 N   0  0  0  0  0  0  0  0  0  0  0  0
  -21.5269  -29.1198   22.3966 N   0  0  0  0  0  0  0  0  0  0  0  0
  -20.5730  -28.1580   19.0450 N   0  3  0  0  0  0  0  0  0  0  0  0
  -26.2027   -9.8507   16.7920 O   0  0  0  0  0  0  0  0  0  0  0  0
  -25.2984  -31.6637   25.5089 O   0  0  0  0  0  0  0  0  0  0  0  0
  -22.8862  -31.3377   22.8764 O   0  0  0  0  0  0  0  0  0  0  0  0
  -22.2190  -27.2880   21.1546 O   0  0  0  0  0  0  0  0  0  0  0  0
  -27.6089  -18.2818   21.6407 O   0  0  0  0  0  0  0  0  0  0  0  0
  -21.1683   -7.8547   22.3820 O   0  0  0  0  0  0  0  0  0  0  0  0
  -28.0660  -25.7446   21.0847 O   0  0  0  0  0  0  0  0  0  1  0  0
  -22.6699   -2.9476   24.3992 F   0  0  0  0  0  0  0  0  0  0  0  0
  -23.3496  -17.5190   19.0830 F   0  0  0  0  0  0  0  0  0  0  0  0
  -20.7820   -7.2393   25.0493 F   0  0  0  0  0  0  0  0  0  0  0  0
  1  2  1  0  0  0  0
  1  5  2  0  0  0  0
  2  6  2  0  0  0  0
  3  9  2  0  0  0  0
  3 18  1  0  0  0  0
  4 10  1  0  0  0  0
  4 18  2  0  0  0  0
  5 20  1  0  0  0  0
  6 22  1  0  0  0  0
  7 11  2  0  0  0  0
  7 21  1  0  0  0  0
  8 13  2  0  0  0  0
  8 24  1  0  0  0  0
  9 26  1  0  0  0  0
 10 26  2  0  0  0  0
 11 27  1  0  0  0  0
 12 14  2  0  0  0  0
 12 28  1  0  0  0  0
 13 30  1  0  0  0  0
 14 29  1  0  0  0  0
 15 23  1  0  0  0  0
 15 27  2  0  0  0  0
 16 24  2  0  0  0  0
 16 25  1  0  0  0  0
 17 29  2  0  0  0  0
 17 31  1  0  0  0  0
 18 32  1  0  0  0  0
 19 32  1  0  0  0  0
 19 33  2  0  0  0  0
 19 34  1  0  0  0  0
 20 22  2  0  0  0  0
 20 39  1  0  0  0  0
 21 23  2  0  0  0  0
 21 40  1  0  0  0  0
 22 52  1  0  0  0  0
 23 41  1  0  0  0  0
 24 66  1  0  0  0  0
 25 30  2  0  0  0  0
 25 71  1  0  0  0  0
 26 80  1  0  0  0  0
 27 81  1  0  0  0  0
 28 31  2  0  0  0  0
 28 80  1  0  0  0  0
 29 82  1  0  0  0  0
 30 83  1  0  0  0  0
 31 84  1  0  0  0  0
 32 64  2  0  0  0  0
 33 65  1  0  0  0  0
 33 69  1  0  0  0  0
 34 70  1  0  0  0  0
 34 75  2  0  0  0  0
 35 53  1  0  0  0  0
 35 72  1  0  0  0  0
 35 76  2  0  0  0  0
 36 61  1  0  0  0  0
 36 67  1  0  0  0  0
 36 77  2  0  0  0  0
 37 62  1  0  0  0  0
 37 73  1  0  0  0  0
 37 78  2  0  0  0  0
 38 68  1  0  0  0  0
 38 71  1  0  0  0  0
 38 79  2  0  0  0  0
 39 42  1  0  0  0  0
 40 53  1  0  0  0  0
 41 67  1  0  0  0  0
 42 44  1  0  0  0  0
 43 45  1  0  0  0  0
 43 48  1  0  0  0  0
 44 52  1  0  0  0  0
 45 54  1  0  0  0  0
 46 49  1  0  0  0  0
 46 55  1  0  0  0  0
 47 50  1  0  0  0  0
 47 55  1  0  0  0  0
 48 68  1  0  0  0  0
 49 66  1  0  0  0  0
 50 66  1  0  0  0  0
 51 54  1  0  0  0  0
 51 68  1  0  0  0  0
 52 72  1  0  0  0  0
 53 67  1  0  0  0  0
 54 65  1  0  0  0  0
 55 81  1  0  0  0  0
 56 62  1  0  0  0  0
 57 63  1  0  0  0  0
 58 63  1  0  0  0  0
 59 63  1  0  0  0  0
 60 74  1  0  0  0  0
 61 63  1  0  0  0  0
 61 73  1  0  0  0  0
 62 74  1  0  0  0  0
 64 65  1  0  0  0  0
M  CHG  1  74   1
M  ISO  4  38 100  55 101  71 100  81 101
M  END
> <Batch ID>
0008

> <Smiles>
CNC(C)C(=O)NC(C(=O)N1Cc2cc([101O:1][101CH:1]3CCN(c4ccc(F)c([100NH:0][100C:0](=O)N5CCCC(n6nc(-c7ccc(Oc8ccc(F)cc8F)cc7)c(C(N)=O)c6N)C5)c4)CC3)ccc2CC1C(=O)NC1CCCc2ccccc21)C(C)(C)C

> <Shape>
0.286

> <Color>
0.096

> <Negative vol penalty>
0.000

$$$$

  -OEChem-04042320353D

 85 94  0     1  0  0  0  0  0999 V2000
  -25.4002  -34.6384   27.5587 C   0  0  0  0  0  0  0  0  0  0  0  0
  -26.1061  -33.5880   26.9810 C   0  0  0  0  0  0  0  0  0  0  0  0
  -26.4621  -11.4899   21.1941 C   0  0  0  0  0  0  0  0  0  0  0  0
  -25.8435  -12.9665   19.3847 C   0  0  0  0  0  0  0  0  0  0  0  0
  -24.0198  -34.7283   27.3844 C   0  0  0  0  0  0  0  0  0  0  0  0
  -25.4318  -32.6262   26.2295 C   0  0  0  0  0  0  0  0  0  0  0  0
  -27.5226  -29.6926   21.2769 C   0  0  0  0  0  0  0  0  0  0  0  0
  -29.8959  -20.8557   17.1121 C   0  0  0  0  0  0  0  0  0  0  0  0
  -30.2161  -19.5897   17.6024 C   0  0  0  0  0  0  0  0  0  0  0  0
  -25.1144  -11.2956   21.4964 C   0  0  0  0  0  0  0  0  0  0  0  0
  -24.4957  -12.7722   19.6869 C   0  0  0  0  0  0  0  0  0  0  0  0
  -28.0924  -28.4319   21.1043 C   0  0  0  0  0  0  0  0  0  0  0  0
  -22.5297   -9.4756   20.2965 C   0  0  0  0  0  0  0  0  0  0  0  0
  -22.1019   -8.1709   20.5420 C   0  0  0  0  0  0  0  0  0  0  0  0
  -25.9333  -27.5463   20.4935 C   0  0  0  0  0  0  0  0  0  0  0  0
  -31.4535  -20.6040   19.4128 C   0  0  0  0  0  0  0  0  0  0  0  0
  -21.3976   -8.8193   22.7603 C   0  0  0  0  0  0  0  0  0  0  0  0
  -26.8267  -12.3254   20.1383 C   0  0  0  0  0  0  0  0  0  0  0  0
  -29.0091  -11.7715   18.9390 C   0  0  0  0  0  0  0  0  0  0  0  0
  -23.3296  -33.7725   26.6224 C   0  0  0  0  0  0  0  0  0  0  0  0
  -26.1495  -29.8875   21.0693 C   0  0  0  0  0  0  0  0  0  0  0  0
  -24.0407  -32.7027   26.0460 C   0  0  0  0  0  0  0  0  0  0  0  0
  -25.3490  -28.8110   20.6616 C   0  0  0  0  0  0  0  0  0  0  0  0
  -30.3545  -21.9958   17.7720 C   0  0  0  0  0  0  0  0  0  0  0  0
  -30.9949  -19.4639   18.7528 C   0  0  0  0  0  0  0  0  0  0  0  0
  -24.1311  -11.9368   20.7428 C   0  0  0  0  0  0  0  0  0  0  0  0
  -27.2973  -27.3579   20.7154 C   0  0  0  0  0  0  0  0  0  0  0  0
  -22.3915  -10.4522   21.2829 C   0  0  0  0  0  0  0  0  0  0  0  0
  -21.5359   -7.8427   21.7739 C   0  0  0  0  0  0  0  0  0  0  0  0
  -31.1332  -21.8700   18.9223 C   0  0  0  0  0  0  0  0  0  0  0  0
  -21.8254  -10.1240   22.5147 C   0  0  0  0  0  0  0  0  0  0  0  0
  -28.2188  -12.5269   19.8260 C   0  0  0  0  0  0  0  0  0  0  0  0
  -30.2481  -12.3613   18.9957 C   0  0  0  0  0  0  0  0  0  0  0  0
  -29.1044  -25.2300   18.6737 C   0  0  0  0  0  0  0  0  0  0  0  0
  -28.6547  -10.6380   18.1358 C   0  0  0  0  0  0  0  0  0  0  0  0
  -23.7129  -30.8036   22.8934 C   0  0  0  0  0  0  0  0  0  0  0  0
  -22.0891  -30.7268   20.0863 C   0  0  0  0  0  0  0  0  0  0  0  0
  -21.8397  -29.4870   16.9165 C   0  0  0  0  0  0  0  0  0  0  0  0
  -32.0843  -17.8770   20.3780 C   0  0  0  0  0  0  0  0  0  0  0  0
  -21.8305  -33.8853   26.5013 C   0  0  0  0  0  0  0  0  0  0  0  0
  -25.5551  -31.2594   21.2337 C   0  0  0  0  0  0  0  0  0  0  0  0
  -23.8734  -28.9720   20.4062 C   0  0  0  0  0  0  0  0  0  0  0  0
  -21.2442  -33.0331   25.3786 C   0  0  0  0  0  0  0  0  0  0  0  0
  -33.0824  -14.8434   21.9521 C   0  0  0  0  0  0  0  0  0  0  0  0
  -21.8300  -31.6252   25.4156 C   0  0  0  0  0  0  0  0  0  0  0  0
  -32.0238  -13.8349   21.4999 C   0  0  0  0  0  0  0  0  0  0  0  0
  -27.0672  -24.1848   19.3384 C   0  0  0  0  0  0  0  0  0  0  0  0
  -32.4813  -16.2270   22.1932 C   0  0  0  0  0  0  0  0  0  0  0  0
  -27.6582  -23.4286   18.1648 C   0  0  0  0  0  0  0  0  0  0  0  0
  -30.6431  -15.7605   20.6207 C   0  0  0  0  0  0  0  0  0  0  0  0
  -23.3484  -31.6536   25.2032 C   0  0  1  0  0  0  0  0  0  0  0  0
  -27.7479  -25.5482   19.2707 C   0  0  1  0  0  0  0  0  0  1  0  0
  -24.0521  -31.2321   21.4937 C   0  0  1  0  0  0  0  0  0  0  0  0
  -31.2125  -14.3682   20.3028 C   0  0  2  0  0  0  0  0  0  0  0  0
  -20.3844  -29.5789   14.8742 C   0  0  0  0  0  0  0  0  0  0  0  0
  -20.0570  -28.9086   21.4556 C   0  0  0  0  0  0  0  0  0  0  0  0
  -19.1953  -28.2819   19.1900 C   0  0  0  0  0  0  0  0  0  0  0  0
  -19.0597  -30.6498   19.9629 C   0  0  0  0  0  0  0  0  0  0  0  0
  -24.0344  -30.5813   15.2598 C   0  0  0  0  0  0  0  0  0  0  0  0
  -30.0058  -23.3565   17.2419 C   0  0  0  0  0  0  0  0  0  0  0  0
  -21.3071  -29.6787   19.3319 C   0  0  1  0  0  0  0  0  0  0  0  0
  -21.5920  -30.1709   15.5840 C   0  0  2  0  0  0  0  0  0  0  0  0
  -19.9322  -29.3760   19.9917 C   0  0  0  0  0  0  0  0  0  0  0  0
  -28.8988  -13.5207   20.4038 N   0  0  0  0  0  0  0  0  0  0  0  0
  -30.1295  -13.3938   19.8789 N   0  0  0  0  0  0  0  0  0  0  0  0
  -28.9789  -23.9990   18.0330 N   0  0  0  0  0  0  0  0  0  0  0  0
  -23.3378  -30.3315   20.5866 N   0  0  0  0  0  0  0  0  0  0  0  0
  -31.7311  -16.6689   21.0156 N   0  0  0  0  0  0  0  0  0  0  0  0
  -31.4168  -12.0923   18.3757 N   0  0  0  0  0  0  0  0  0  0  0  0
  -27.3384  -10.1607   18.1973 N   0  0  0  0  0  0  0  0  0  0  0  0
  -31.3219  -18.1779   19.2498 N   0  0  0  0  0  0  0  0  0  0  0  0
  -23.6593  -31.8428   23.8026 N   0  0  0  0  0  0  0  0  0  0  0  0
  -21.2179  -30.1493   17.9538 N   0  0  0  0  0  0  0  0  0  0  0  0
  -22.7795  -30.0206   14.6961 N   0  3  0  0  0  0  0  0  0  0  0  0
  -30.0899  -25.9483   18.7467 O   0  0  0  0  0  0  0  0  0  0  0  0
  -29.4852  -10.0552   17.3980 O   0  0  0  0  0  0  0  0  0  0  0  0
  -23.5130  -29.6180   23.1306 O   0  0  0  0  0  0  0  0  0  0  0  0
  -21.6127  -31.8567   20.2205 O   0  0  0  0  0  0  0  0  0  0  0  0
  -22.5140  -28.4653   17.0257 O   0  0  0  0  0  0  0  0  0  0  0  0
  -33.0137  -18.5784   20.7858 O   0  0  0  0  0  0  0  0  0  0  0  0
  -22.8159  -11.7472   21.0373 O   0  0  0  0  0  0  0  0  0  0  0  0
  -27.8508  -26.1262   20.5469 O   0  0  0  0  0  0  0  0  0  1  0  0
  -21.1237   -6.5901   22.0090 F   0  0  0  0  0  0  0  0  0  0  0  0
  -31.5784  -22.9596   19.5634 F   0  0  0  0  0  0  0  0  0  0  0  0
  -21.6889  -11.0582   23.4658 F   0  0  0  0  0  0  0  0  0  0  0  0
  1  2  1  0  0  0  0
  1  5  2  0  0  0  0
  2  6  2  0  0  0  0
  3 10  2  0  0  0  0
  3 18  1  0  0  0  0
  4 11  1  0  0  0  0
  4 18  2  0  0  0  0
  5 20  1  0  0  0  0
  6 22  1  0  0  0  0
  7 12  2  0  0  0  0
  7 21  1  0  0  0  0
  8  9  2  0  0  0  0
  8 24  1  0  0  0  0
  9 25  1  0  0  0  0
 10 26  1  0  0  0  0
 11 26  2  0  0  0  0
 12 27  1  0  0  0  0
 13 14  2  0  0  0  0
 13 28  1  0  0  0  0
 14 29  1  0  0  0  0
 15 23  1  0  0  0  0
 15 27  2  0  0  0  0
 16 25  2  0  0  0  0
 16 30  1  0  0  0  0
 17 29  2  0  0  0  0
 17 31  1  0  0  0  0
 18 32  1  0  0  0  0
 19 32  1  0  0  0  0
 19 33  2  0  0  0  0
 19 35  1  0  0  0  0
 20 22  2  0  0  0  0
 20 40  1  0  0  0  0
 21 23  2  0  0  0  0
 21 41  1  0  0  0  0
 22 51  1  0  0  0  0
 23 42  1  0  0  0  0
 24 30  2  0  0  0  0
 24 60  1  0  0  0  0
 25 71  1  0  0  0  0
 26 81  1  0  0  0  0
 27 82  1  0  0  0  0
 28 31  2  0  0  0  0
 28 81  1  0  0  0  0
 29 83  1  0  0  0  0
 30 84  1  0  0  0  0
 31 85  1  0  0  0  0
 32 64  2  0  0  0  0
 33 65  1  0  0  0  0
 33 69  1  0  0  0  0
 34 52  1  0  0  0  0
 34 66  1  0  0  0  0
 34 75  2  0  0  0  0
 35 70  1  0  0  0  0
 35 76  2  0  0  0  0
 36 53  1  0  0  0  0
 36 72  1  0  0  0  0
 36 77  2  0  0  0  0
 37 61  1  0  0  0  0
 37 67  1  0  0  0  0
 37 78  2  0  0  0  0
 38 62  1  0  0  0  0
 38 73  1  0  0  0  0
 38 79  2  0  0  0  0
 39 68  1  0  0  0  0
 39 71  1  0  0  0  0
 39 80  2  0  0  0  0
 40 43  1  0  0  0  0
 41 53  1  0  0  0  0
 42 67  1  0  0  0  0
 43 45  1  0  0  0  0
 44 46  1  0  0  0  0
 44 48  1  0  0  0  0
 45 51  1  0  0  0  0
 46 54  1  0  0  0  0
 47 49  1  0  0  0  0
 47 52  1  0  0  0  0
 48 68  1  0  0  0  0
 49 66  1  0  0  0  0
 50 54  1  0  0  0  0
 50 68  1  0  0  0  0
 51 72  1  0  0  0  0
 52 82  1  0  0  0  0
 53 67  1  0  0  0  0
 54 65  1  0  0  0  0
 55 62  1  0  0  0  0
 56 63  1  0  0  0  0
 57 63  1  0  0  0  0
 58 63  1  0  0  0  0
 59 74  1  0  0  0  0
 60 66  1  0  0  0  0
 61 63  1  0  0  0  0
 61 73  1  0  0  0  0
 62 74  1  0  0  0  0
 64 65  1  0  0  0  0
M  CHG  1  74   1
M  ISO  4  39 100  52 101  71 100  82 101
M  END
> <Batch ID>
0008

> <Smiles>
CNC(C)C(=O)NC(C(=O)N1Cc2cc([101O:1][101CH:1]3CCN(Cc4ccc([100NH:0][100C:0](=O)N5CCCC(n6nc(-c7ccc(Oc8ccc(F)cc8F)cc7)c(C(N)=O)c6N)C5)cc4F)C3=O)ccc2CC1C(=O)NC1CCCc2ccccc21)C(C)(C)C

> <Shape>
0.274

> <Color>
0.083

> <Negative vol penalty>
0.000

$$$$

  -OEChem-04042320353D

 80 88  0     1  0  0  0  0  0999 V2000
  -28.0468  -37.0483   21.1312 C   0  0  0  0  0  0  0  0  0  0  0  0
  -28.4614  -35.7305   20.9672 C   0  0  0  0  0  0  0  0  0  0  0  0
  -26.8777  -12.7324   21.8103 C   0  0  0  0  0  0  0  0  0  0  0  0
  -26.2289  -14.3607   20.1475 C   0  0  0  0  0  0  0  0  0  0  0  0
  -26.9271  -37.3336   21.9115 C   0  0  0  0  0  0  0  0  0  0  0  0
  -27.7571  -34.6973   21.5842 C   0  0  0  0  0  0  0  0  0  0  0  0
  -26.8378  -29.0506   19.3989 C   0  0  0  0  0  0  0  0  0  0  0  0
  -25.5582  -12.2872   21.8893 C   0  0  0  0  0  0  0  0  0  0  0  0
  -24.9093  -13.9154   20.2264 C   0  0  0  0  0  0  0  0  0  0  0  0
  -27.4752  -27.8349   19.6433 C   0  0  0  0  0  0  0  0  0  0  0  0
  -23.4883  -10.3002   20.1003 C   0  0  0  0  0  0  0  0  0  0  0  0
  -23.2681   -8.9229   20.1042 C   0  0  0  0  0  0  0  0  0  0  0  0
  -25.7846  -27.2830   21.2731 C   0  0  0  0  0  0  0  0  0  0  0  0
  -29.0899  -23.0657   19.5815 C   0  0  0  0  0  0  0  0  0  0  0  0
  -30.3909  -22.6609   22.0159 C   0  0  0  0  0  0  0  0  0  0  0  0
  -22.2060   -9.0990   22.2672 C   0  0  0  0  0  0  0  0  0  0  0  0
  -27.2130  -13.7692   20.9394 C   0  0  0  0  0  0  0  0  0  0  0  0
  -29.5840  -13.7540   19.9981 C   0  0  0  0  0  0  0  0  0  0  0  0
  -26.2031  -36.3025   22.5306 C   0  0  0  0  0  0  0  0  0  0  0  0
  -25.6731  -29.3969   20.0989 C   0  0  0  0  0  0  0  0  0  0  0  0
  -26.6275  -34.9691   22.3746 C   0  0  0  0  0  0  0  0  0  0  0  0
  -25.1329  -28.5025   21.0340 C   0  0  0  0  0  0  0  0  0  0  0  0
  -29.2702  -24.1326   20.4617 C   0  0  0  0  0  0  0  0  0  0  0  0
  -29.5600  -21.7964   19.9185 C   0  0  0  0  0  0  0  0  0  0  0  0
  -29.9208  -23.9302   21.6789 C   0  0  0  0  0  0  0  0  0  0  0  0
  -30.2105  -21.5940   21.1356 C   0  0  0  0  0  0  0  0  0  0  0  0
  -24.5740  -12.8787   21.0973 C   0  0  0  0  0  0  0  0  0  0  0  0
  -26.9502  -26.9522   20.5825 C   0  0  0  0  0  0  0  0  0  0  0  0
  -23.0676  -11.0770   21.1798 C   0  0  0  0  0  0  0  0  0  0  0  0
  -22.6269   -8.3223   21.1877 C   0  0  0  0  0  0  0  0  0  0  0  0
  -22.4264  -10.4764   22.2632 C   0  0  0  0  0  0  0  0  0  0  0  0
  -28.5758  -14.2299   20.8578 C   0  0  0  0  0  0  0  0  0  0  0  0
  -30.6863  -14.5121   20.3091 C   0  0  0  0  0  0  0  0  0  0  0  0
  -29.5289  -12.7194   19.0071 C   0  0  0  0  0  0  0  0  0  0  0  0
  -24.8705  -31.7300   22.1030 C   0  0  0  0  0  0  0  0  0  0  0  0
  -21.9183  -30.4120   21.8392 C   0  0  0  0  0  0  0  0  0  0  0  0
  -20.0263  -27.6600   21.1367 C   0  0  0  0  0  0  0  0  0  0  0  0
  -31.3605  -19.9598   22.6697 C   0  0  0  0  0  0  0  0  0  0  0  0
  -25.0271  -36.6638   23.4031 C   0  0  0  0  0  0  0  0  0  0  0  0
  -24.9826  -30.7003   19.8045 C   0  0  0  0  0  0  0  0  0  0  0  0
  -23.8735  -28.8181   21.7975 C   0  0  0  0  0  0  0  0  0  0  0  0
  -24.1153  -35.4805   23.7170 C   0  0  0  0  0  0  0  0  0  0  0  0
  -32.6788  -16.9083   23.9454 C   0  0  0  0  0  0  0  0  0  0  0  0
  -24.9398  -34.2678   24.1369 C   0  0  0  0  0  0  0  0  0  0  0  0
  -31.8721  -15.8317   23.2156 C   0  0  0  0  0  0  0  0  0  0  0  0
  -31.8222  -18.1273   24.2833 C   0  0  0  0  0  0  0  0  0  0  0  0
  -30.2908  -17.6344   22.4175 C   0  0  0  0  0  0  0  0  0  0  0  0
  -25.8751  -33.8188   23.0077 C   0  0  1  0  0  0  0  0  0  0  0  0
  -24.0888  -31.1743   20.9464 C   0  0  1  0  0  0  0  0  0  0  0  0
  -31.1269  -16.4140   21.9986 C   0  0  2  0  0  0  0  0  0  0  0  0
  -29.3530  -20.6719   18.9564 C   0  0  0  0  0  0  0  0  0  0  0  0
  -30.1251  -25.0573   22.6372 C   0  0  0  0  0  0  0  0  0  0  0  0
  -17.6432  -26.8793   21.0438 C   0  0  0  0  0  0  0  0  0  0  0  0
  -21.8544  -30.2523   24.8856 C   0  0  0  0  0  0  0  0  0  0  0  0
  -19.9450  -28.6445   24.6917 C   0  0  0  0  0  0  0  0  0  0  0  0
  -19.7035  -30.9742   23.8335 C   0  0  0  0  0  0  0  0  0  0  0  0
  -20.2170  -27.0501   18.2470 C   0  0  0  0  0  0  0  0  0  0  0  0
  -28.7557  -25.4888   20.0779 C   0  0  0  0  0  0  0  0  0  1  0  0
  -21.1590  -29.3343   22.5748 C   0  0  1  0  0  0  0  0  0  0  0  0
  -18.8008  -27.4773   20.2596 C   0  0  2  0  0  0  0  0  0  0  0  0
  -20.6903  -29.7959   23.9836 C   0  0  0  0  0  0  0  0  0  0  0  0
  -29.0001  -15.2139   21.6551 N   0  0  0  0  0  0  0  0  0  0  0  0
  -30.2871  -15.3625   21.2978 N   0  0  0  0  0  0  0  0  0  0  0  0
  -23.2386  -30.1076   21.4788 N   0  0  0  0  0  0  0  0  0  0  0  0
  -31.1502  -18.6269   23.0817 N   0  0  0  0  0  0  0  0  0  0  0  0
  -31.9486  -14.5274   19.8305 N   0  0  0  0  0  0  0  0  0  0  0  0
  -28.3176  -12.0407   18.8163 N   0  0  0  0  0  0  0  0  0  0  0  0
  -30.6953  -20.3122   21.4958 N   0  0  0  0  0  0  0  0  0  0  0  0
  -25.1378  -33.0820   22.0036 N   0  0  0  0  0  0  0  0  0  0  0  0
  -20.0749  -28.9222   21.6897 N   0  0  0  0  0  0  0  0  0  0  0  0
  -19.1118  -26.5723   19.1172 N   0  3  0  0  0  0  0  0  0  0  0  0
  -30.5289  -12.3948   18.3228 O   0  0  0  0  0  0  0  0  0  0  0  0
  -25.2051  -30.9873   23.0186 O   0  0  0  0  0  0  0  0  0  0  0  0
  -21.3582  -31.4818   21.5873 O   0  0  0  0  0  0  0  0  0  0  0  0
  -20.8553  -26.7707   21.3166 O   0  0  0  0  0  0  0  0  0  0  0  0
  -32.0995  -20.7238   23.2961 O   0  0  0  0  0  0  0  0  0  0  0  0
  -23.2863  -12.4444   21.1740 O   0  0  0  0  0  0  0  0  0  0  0  0
  -27.5708  -25.7653   20.8234 O   0  0  0  0  0  0  0  0  0  1  0  0
  -22.4140   -6.9999   21.1907 F   0  0  0  0  0  0  0  0  0  0  0  0
  -22.0188  -11.2176   23.3026 F   0  0  0  0  0  0  0  0  0  0  0  0
  1  2  1  0  0  0  0
  1  5  2  0  0  0  0
  2  6  2  0  0  0  0
  3  8  2  0  0  0  0
  3 17  1  0  0  0  0
  4  9  1  0  0  0  0
  4 17  2  0  0  0  0
  5 19  1  0  0  0  0
  6 21  1  0  0  0  0
  7 10  2  0  0  0  0
  7 20  1  0  0  0  0
  8 27  1  0  0  0  0
  9 27  2  0  0  0  0
 10 28  1  0  0  0  0
 11 12  2  0  0  0  0
 11 29  1  0  0  0  0
 12 30  1  0  0  0  0
 13 22  1  0  0  0  0
 13 28  2  0  0  0  0
 14 23  1  0  0  0  0
 14 24  2  0  0  0  0
 15 25  1  0  0  0  0
 15 26  2  0  0  0  0
 16 30  2  0  0  0  0
 16 31  1  0  0  0  0
 17 32  1  0  0  0  0
 18 32  1  0  0  0  0
 18 33  2  0  0  0  0
 18 34  1  0  0  0  0
 19 21  2  0  0  0  0
 19 39  1  0  0  0  0
 20 22  2  0  0  0  0
 20 40  1  0  0  0  0
 21 48  1  0  0  0  0
 22 41  1  0  0  0  0
 23 25  2  0  0  0  0
 23 58  1  0  0  0  0
 24 26  1  0  0  0  0
 24 51  1  0  0  0  0
 25 52  1  0  0  0  0
 26 68  1  0  0  0  0
 27 77  1  0  0  0  0
 28 78  1  0  0  0  0
 29 31  2  0  0  0  0
 29 77  1  0  0  0  0
 30 79  1  0  0  0  0
 31 80  1  0  0  0  0
 32 62  2  0  0  0  0
 33 63  1  0  0  0  0
 33 66  1  0  0  0  0
 34 67  1  0  0  0  0
 34 72  2  0  0  0  0
 35 49  1  0  0  0  0
 35 69  1  0  0  0  0
 35 73  2  0  0  0  0
 36 59  1  0  0  0  0
 36 64  1  0  0  0  0
 36 74  2  0  0  0  0
 37 60  1  0  0  0  0
 37 70  1  0  0  0  0
 37 75  2  0  0  0  0
 38 65  1  0  0  0  0
 38 68  1  0  0  0  0
 38 76  2  0  0  0  0
 39 42  1  0  0  0  0
 40 49  1  0  0  0  0
 41 64  1  0  0  0  0
 42 44  1  0  0  0  0
 43 45  1  0  0  0  0
 43 46  1  0  0  0  0
 44 48  1  0  0  0  0
 45 50  1  0  0  0  0
 46 65  1  0  0  0  0
 47 50  1  0  0  0  0
 47 65  1  0  0  0  0
 48 69  1  0  0  0  0
 49 64  1  0  0  0  0
 50 63  1  0  0  0  0
 53 60  1  0  0  0  0
 54 61  1  0  0  0  0
 55 61  1  0  0  0  0
 56 61  1  0  0  0  0
 57 71  1  0  0  0  0
 58 78  1  0  0  0  0
 59 61  1  0  0  0  0
 59 70  1  0  0  0  0
 60 71  1  0  0  0  0
 62 63  1  0  0  0  0
M  CHG  1  71   1
M  ISO  4  38 100  58 101  68 100  78 101
M  END
> <Batch ID>
0008

> <Smiles>
CNC(C)C(=O)NC(C(=O)N1Cc2cc([101O:1][101CH2:1]c3cc(C)c([100NH:0][100C:0](=O)N4CCCC(n5nc(-c6ccc(Oc7ccc(F)cc7F)cc6)c(C(N)=O)c5N)C4)cc3C)ccc2CC1C(=O)NC1CCCc2ccccc21)C(C)(C)C

> <Shape>
0.343

> <Color>
0.078

> <Negative vol penalty>
0.000

$$$$

  -OEChem-04042320353D

 83 91  0     1  0  0  0  0  0999 V2000
  -35.5511  -27.5763   25.8974 C   0  0  0  0  0  0  0  0  0  0  0  0
  -35.2803  -26.3508   25.2972 C   0  0  0  0  0  0  0  0  0  0  0  0
  -23.2877   -9.7987   19.9119 C   0  0  0  0  0  0  0  0  0  0  0  0
  -23.7334   -9.9420   22.2821 C   0  0  0  0  0  0  0  0  0  0  0  0
  -34.9600  -27.8991   27.1182 C   0  0  0  0  0  0  0  0  0  0  0  0
  -34.4190  -25.4469   25.9181 C   0  0  0  0  0  0  0  0  0  0  0  0
  -30.5244  -21.5962   23.1775 C   0  0  0  0  0  0  0  0  0  0  0  0
  -30.4932  -15.6911   26.3333 C   0  0  0  0  0  0  0  0  0  0  0  0
  -22.5608   -8.6265   20.1194 C   0  0  0  0  0  0  0  0  0  0  0  0
  -23.0064   -8.7698   22.4896 C   0  0  0  0  0  0  0  0  0  0  0  0
  -30.6100  -20.2402   22.8650 C   0  0  0  0  0  0  0  0  0  0  0  0
  -19.4769   -7.7676   21.2079 C   0  0  0  0  0  0  0  0  0  0  0  0
  -29.7216  -14.8900   27.1749 C   0  0  0  0  0  0  0  0  0  0  0  0
  -18.2493   -7.6425   20.5577 C   0  0  0  0  0  0  0  0  0  0  0  0
  -29.4261  -19.7034   24.8971 C   0  0  0  0  0  0  0  0  0  0  0  0
  -30.2212  -12.9660   25.8016 C   0  0  0  0  0  0  0  0  0  0  0  0
  -19.0530   -5.6683   19.4202 C   0  0  0  0  0  0  0  0  0  0  0  0
  -23.8741  -10.4565   20.9932 C   0  0  0  0  0  0  0  0  0  0  0  0
  -24.1342  -12.9862   20.7922 C   0  0  0  0  0  0  0  0  0  0  0  0
  -34.0834  -27.0027   27.7496 C   0  0  0  0  0  0  0  0  0  0  0  0
  -29.8975  -22.0161   24.3595 C   0  0  0  0  0  0  0  0  0  0  0  0
  -33.8166  -25.7574   27.1492 C   0  0  0  0  0  0  0  0  0  0  0  0
  -29.3315  -21.0654   25.2210 C   0  0  0  0  0  0  0  0  0  0  0  0
  -30.9929  -13.7672   24.9600 C   0  0  0  0  0  0  0  0  0  0  0  0
  -31.1289  -15.1298   25.2258 C   0  0  0  0  0  0  0  0  0  0  0  0
  -22.4201   -8.1121   21.4083 C   0  0  0  0  0  0  0  0  0  0  0  0
  -30.0634  -19.2934   23.7263 C   0  0  0  0  0  0  0  0  0  0  0  0
  -20.4927   -6.8432   20.9643 C   0  0  0  0  0  0  0  0  0  0  0  0
  -29.5856  -13.5275   26.9091 C   0  0  0  0  0  0  0  0  0  0  0  0
  -18.0373   -6.5928   19.6639 C   0  0  0  0  0  0  0  0  0  0  0  0
  -20.2807   -5.7935   20.0704 C   0  0  0  0  0  0  0  0  0  0  0  0
  -24.6256  -11.6671   20.7794 C   0  0  0  0  0  0  0  0  0  0  0  0
  -25.2362  -13.7657   20.5387 C   0  0  0  0  0  0  0  0  0  0  0  0
  -22.8007  -13.4642   21.0136 C   0  0  0  0  0  0  0  0  0  0  0  0
  -30.8348  -23.5834   26.9612 C   0  0  0  0  0  0  0  0  0  0  0  0
  -27.6768  -23.4689   27.6935 C   0  0  0  0  0  0  0  0  0  0  0  0
  -24.6626  -21.9212   27.2865 C   0  0  0  0  0  0  0  0  0  0  0  0
  -31.1054  -12.9231   21.3719 C   0  0  0  0  0  0  0  0  0  0  0  0
  -33.5055  -27.3763   29.0917 C   0  0  0  0  0  0  0  0  0  0  0  0
  -29.7899  -23.4841   24.6689 C   0  0  0  0  0  0  0  0  0  0  0  0
  -28.6301  -21.4655   26.4923 C   0  0  0  0  0  0  0  0  0  0  0  0
  -32.3114  -26.5178   29.5009 C   0  0  0  0  0  0  0  0  0  0  0  0
  -29.4632  -13.6591   18.2998 C   0  0  0  0  0  0  0  0  0  0  0  0
  -32.6100  -25.0407   29.2649 C   0  0  0  0  0  0  0  0  0  0  0  0
  -27.9928  -13.3511   18.5881 C   0  0  0  0  0  0  0  0  0  0  0  0
  -30.3948  -12.6804   19.0113 C   0  0  0  0  0  0  0  0  0  0  0  0
  -28.7044  -12.2533   20.7530 C   0  0  0  0  0  0  0  0  0  0  0  0
  -32.8684  -24.7606   27.7795 C   0  0  1  0  0  0  0  0  0  0  0  0
  -29.5815  -23.7681   26.1533 C   0  0  1  0  0  0  0  0  0  0  0  0
  -27.7279  -13.2478   20.1022 C   0  0  2  0  0  0  0  0  0  0  0  0
  -22.2727  -22.0328   28.0438 C   0  0  0  0  0  0  0  0  0  0  0  0
  -28.4704  -22.2399   30.3712 C   0  0  0  0  0  0  0  0  0  0  0  0
  -26.0924  -21.5135   30.6634 C   0  0  0  0  0  0  0  0  0  0  0  0
  -26.6425  -23.9414   30.5051 C   0  0  0  0  0  0  0  0  0  0  0  0
  -33.0517  -16.6712   24.9313 C   0  0  0  0  0  0  0  0  0  0  0  0
  -23.6890  -22.3792   24.5295 C   0  0  0  0  0  0  0  0  0  0  0  0
  -31.6621  -13.1395   23.7807 C   0  0  0  0  0  0  0  0  0  0  0  0
  -31.5909  -16.0952   22.9864 C   0  0  0  0  0  0  0  0  0  0  0  0
  -31.2765  -17.5461   22.6626 C   0  0  0  0  0  0  0  0  0  1  0  0
  -26.7852  -22.5005   28.4326 C   0  0  1  0  0  0  0  0  0  0  0  0
  -23.2791  -22.4720   26.9916 C   0  0  2  0  0  0  0  0  0  0  0  0
  -27.0125  -22.5409   29.9702 C   0  0  0  0  0  0  0  0  0  0  0  0
  -25.9377  -11.6080   20.5367 N   0  0  0  0  0  0  0  0  0  0  0  0
  -26.2801  -12.8998   20.3947 N   0  0  0  0  0  0  0  0  0  0  0  0
  -28.5563  -22.9124   26.7540 N   0  0  0  0  0  0  0  0  0  0  0  0
  -30.0924  -12.6307   20.4438 N   0  0  0  0  0  0  0  0  0  0  0  0
  -25.4045  -15.1005   20.4271 N   0  0  0  0  0  0  0  0  0  0  0  0
  -21.7875  -12.5277   21.2600 N   0  0  0  0  0  0  0  0  0  0  0  0
  -31.6199  -24.7172   27.0488 N   0  0  0  0  0  0  0  0  0  0  0  0
  -25.4195  -22.8085   28.0221 N   0  0  0  0  0  0  0  0  0  0  0  0
  -30.7328  -12.8591   22.7090 N   0  0  0  0  0  0  0  0  0  0  0  0
  -31.8992  -15.9499   24.3906 N   0  0  3  0  0  0  0  0  0  0  0  0
  -22.8053  -21.9971   25.6609 N   0  3  0  0  0  0  0  0  0  0  0  0
  -22.5130  -14.6846   20.9773 O   0  0  0  0  0  0  0  0  0  0  0  0
  -31.0713  -22.4934   27.4687 O   0  0  0  0  0  0  0  0  0  0  0  0
  -27.5910  -24.6754   27.9356 O   0  0  0  0  0  0  0  0  0  0  0  0
  -25.0334  -20.8130   26.9059 O   0  0  0  0  0  0  0  0  0  0  0  0
  -32.2551  -13.2244   21.0339 O   0  0  0  0  0  0  0  0  0  0  0  0
  -21.7107   -6.9684   21.6112 O   0  0  0  0  0  0  0  0  0  0  0  0
  -30.1462  -17.9691   23.4240 O   0  0  0  0  0  0  0  0  0  1  0  0
  -28.8448  -12.7580   27.7174 F   0  0  0  0  0  0  0  0  0  0  0  0
  -16.8578   -6.4718   19.0407 F   0  0  0  0  0  0  0  0  0  0  0  0
  -21.2523   -4.9016   19.8332 F   0  0  0  0  0  0  0  0  0  0  0  0
  1  2  1  0  0  0  0
  1  5  2  0  0  0  0
  2  6  2  0  0  0  0
  3  9  2  0  0  0  0
  3 18  1  0  0  0  0
  4 10  1  0  0  0  0
  4 18  2  0  0  0  0
  5 20  1  0  0  0  0
  6 22  1  0  0  0  0
  7 11  2  0  0  0  0
  7 21  1  0  0  0  0
  8 13  2  0  0  0  0
  8 25  1  0  0  0  0
  9 26  1  0  0  0  0
 10 26  2  0  0  0  0
 11 27  1  0  0  0  0
 12 14  2  0  0  0  0
 12 28  1  0  0  0  0
 13 29  1  0  0  0  0
 14 30  1  0  0  0  0
 15 23  1  0  0  0  0
 15 27  2  0  0  0  0
 16 24  1  0  0  0  0
 16 29  2  0  0  0  0
 17 30  2  0  0  0  0
 17 31  1  0  0  0  0
 18 32  1  0  0  0  0
 19 32  1  0  0  0  0
 19 33  2  0  0  0  0
 19 34  1  0  0  0  0
 20 22  2  0  0  0  0
 20 39  1  0  0  0  0
 21 23  2  0  0  0  0
 21 40  1  0  0  0  0
 22 48  1  0  0  0  0
 23 41  1  0  0  0  0
 24 25  2  0  0  0  0
 24 57  1  0  0  0  0
 25 72  1  0  0  0  0
 26 79  1  0  0  0  0
 27 80  1  0  0  0  0
 28 31  2  0  0  0  0
 28 79  1  0  0  0  0
 29 81  1  0  0  0  0
 30 82  1  0  0  0  0
 31 83  1  0  0  0  0
 32 63  2  0  0  0  0
 33 64  1  0  0  0  0
 33 67  1  0  0  0  0
 34 68  1  0  0  0  0
 34 74  2  0  0  0  0
 35 49  1  0  0  0  0
 35 69  1  0  0  0  0
 35 75  2  0  0  0  0
 36 60  1  0  0  0  0
 36 65  1  0  0  0  0
 36 76  2  0  0  0  0
 37 61  1  0  0  0  0
 37 70  1  0  0  0  0
 37 77  2  0  0  0  0
 38 66  1  0  0  0  0
 38 71  1  0  0  0  0
 38 78  2  0  0  0  0
 39 42  1  0  0  0  0
 40 49  1  0  0  0  0
 41 65  1  0  0  0  0
 42 44  1  0  0  0  0
 43 45  1  0  0  0  0
 43 46  1  0  0  0  0
 44 48  1  0  0  0  0
 45 50  1  0  0  0  0
 46 66  1  0  0  0  0
 47 50  1  0  0  0  0
 47 66  1  0  0  0  0
 48 69  1  0  0  0  0
 49 65  1  0  0  0  0
 50 64  1  0  0  0  0
 51 61  1  0  0  0  0
 52 62  1  0  0  0  0
 53 62  1  0  0  0  0
 54 62  1  0  0  0  0
 55 72  1  0  0  0  0
 56 73  1  0  0  0  0
 57 71  1  0  0  0  0
 58 59  1  0  0  0  0
 58 72  1  0  0  0  0
 59 80  1  0  0  0  0
 60 62  1  0  0  0  0
 60 70  1  0  0  0  0
 61 73  1  0  0  0  0
 63 64  1  0  0  0  0
M  CHG  1  73   1
M  ISO  4  38 100  59 101  71 100  80 101
M  END
> <Batch ID>
0008

> <Smiles>
CNC(C)C(=O)NC(C(=O)N1Cc2cc([101O:1][101CH2:1]CN(C)c3ccc(F)cc3C[100NH:0][100C:0](=O)N3CCCC(n4nc(-c5ccc(Oc6ccc(F)cc6F)cc5)c(C(N)=O)c4N)C3)ccc2CC1C(=O)NC1CCCc2ccccc21)C(C)(C)C

> <Shape>
0.130

> <Color>
0.182

> <Negative vol penalty>
0.000

$$$$

  -OEChem-04042320353D

 79 87  0     1  0  0  0  0  0999 V2000
  -26.7908  -32.6003   28.2099 C   0  0  0  0  0  0  0  0  0  0  0  0
  -27.2168  -31.6063   27.3348 C   0  0  0  0  0  0  0  0  0  0  0  0
  -26.4917  -12.7357   21.6104 C   0  0  0  0  0  0  0  0  0  0  0  0
  -26.0089  -13.7390   19.4663 C   0  0  0  0  0  0  0  0  0  0  0  0
  -25.4422  -32.9504   28.2621 C   0  0  0  0  0  0  0  0  0  0  0  0
  -26.2943  -30.9609   26.5122 C   0  0  0  0  0  0  0  0  0  0  0  0
  -27.2384  -28.9160   20.8172 C   0  0  0  0  0  0  0  0  0  0  0  0
  -27.8608  -23.6136   17.4287 C   0  0  0  0  0  0  0  0  0  0  0  0
  -25.2380  -12.1244   21.6067 C   0  0  0  0  0  0  0  0  0  0  0  0
  -24.7551  -13.1277   19.4625 C   0  0  0  0  0  0  0  0  0  0  0  0
  -27.5355  -27.6510   20.3120 C   0  0  0  0  0  0  0  0  0  0  0  0
  -23.7840   -9.4314   20.1691 C   0  0  0  0  0  0  0  0  0  0  0  0
  -23.7168   -8.0879   20.5379 C   0  0  0  0  0  0  0  0  0  0  0  0
  -27.9663  -22.3413   16.8667 C   0  0  0  0  0  0  0  0  0  0  0  0
  -25.1940  -27.2885   19.8591 C   0  0  0  0  0  0  0  0  0  0  0  0
  -28.8125  -22.7829   19.4881 C   0  0  0  0  0  0  0  0  0  0  0  0
  -22.2399   -8.6623   22.3615 C   0  0  0  0  0  0  0  0  0  0  0  0
  -26.8772  -13.5430   20.5402 C   0  0  0  0  0  0  0  0  0  0  0  0
  -29.3739  -13.6539   20.0288 C   0  0  0  0  0  0  0  0  0  0  0  0
  -24.5041  -32.3156   27.4328 C   0  0  0  0  0  0  0  0  0  0  0  0
  -25.9134  -29.3732   20.8573 C   0  0  0  0  0  0  0  0  0  0  0  0
  -24.9317  -31.3018   26.5543 C   0  0  0  0  0  0  0  0  0  0  0  0
  -24.8830  -28.5608   20.3630 C   0  0  0  0  0  0  0  0  0  0  0  0
  -28.2840  -23.8344   18.7394 C   0  0  0  0  0  0  0  0  0  0  0  0
  -28.9180  -21.5106   18.9262 C   0  0  0  0  0  0  0  0  0  0  0  0
  -24.3697  -12.3203   20.5328 C   0  0  0  0  0  0  0  0  0  0  0  0
  -26.5129  -26.8359   19.8355 C   0  0  0  0  0  0  0  0  0  0  0  0
  -23.0792  -10.3904   20.8966 C   0  0  0  0  0  0  0  0  0  0  0  0
  -22.9447   -7.7033   21.6341 C   0  0  0  0  0  0  0  0  0  0  0  0
  -22.3071  -10.0059   21.9927 C   0  0  0  0  0  0  0  0  0  0  0  0
  -28.4949  -21.2898   17.6154 C   0  0  0  0  0  0  0  0  0  0  0  0
  -28.1719  -14.1753   20.5437 C   0  0  0  0  0  0  0  0  0  0  0  0
  -30.3061  -14.6320   20.2757 C   0  0  0  0  0  0  0  0  0  0  0  0
  -29.6254  -12.3978   19.3849 C   0  0  0  0  0  0  0  0  0  0  0  0
  -23.9082  -30.2394   23.1666 C   0  0  0  0  0  0  0  0  0  0  0  0
  -22.0050  -31.0608   20.6715 C   0  0  0  0  0  0  0  0  0  0  0  0
  -21.1819  -30.6230   17.3886 C   0  0  0  0  0  0  0  0  0  0  0  0
  -29.9151  -20.5467   21.0293 C   0  0  0  0  0  0  0  0  0  0  0  0
  -23.0499  -32.6950   27.5587 C   0  0  0  0  0  0  0  0  0  0  0  0
  -25.6126  -30.7509   21.3806 C   0  0  0  0  0  0  0  0  0  0  0  0
  -23.4463  -29.0129   20.3650 C   0  0  0  0  0  0  0  0  0  0  0  0
  -22.1938  -32.2241   26.3858 C   0  0  0  0  0  0  0  0  0  0  0  0
  -31.2794  -18.1930   23.3262 C   0  0  0  0  0  0  0  0  0  0  0  0
  -22.5011  -30.7678   26.0515 C   0  0  0  0  0  0  0  0  0  0  0  0
  -30.7517  -16.8475   22.8229 C   0  0  0  0  0  0  0  0  0  0  0  0
  -30.2472  -19.3063   23.1568 C   0  0  0  0  0  0  0  0  0  0  0  0
  -29.1721  -18.0990   21.2978 C   0  0  0  0  0  0  0  0  0  0  0  0
  -23.9649  -30.5959   25.6284 C   0  0  1  0  0  0  0  0  0  0  0  0
  -24.1691  -30.9106   21.8478 C   0  0  1  0  0  0  0  0  0  0  0  0
  -30.2004  -16.9596   21.3879 C   0  0  2  0  0  0  0  0  0  0  0  0
  -19.5581  -31.4071   15.6434 C   0  0  0  0  0  0  0  0  0  0  0  0
  -19.8244  -29.3367   21.9294 C   0  0  0  0  0  0  0  0  0  0  0  0
  -18.6187  -29.3841   19.7357 C   0  0  0  0  0  0  0  0  0  0  0  0
  -19.0213  -31.5073   20.9817 C   0  0  0  0  0  0  0  0  0  0  0  0
  -23.3521  -31.6899   15.6825 C   0  0  0  0  0  0  0  0  0  0  0  0
  -28.1707  -25.2032   19.3434 C   0  0  0  0  0  0  0  0  0  1  0  0
  -20.9606  -30.3507   19.8445 C   0  0  1  0  0  0  0  0  0  0  0  0
  -20.9261  -31.6199   16.2727 C   0  0  2  0  0  0  0  0  0  0  0  0
  -19.6330  -30.1351   20.6244 C   0  0  0  0  0  0  0  0  0  0  0  0
  -28.3237  -15.3902   21.0775 N   0  0  0  0  0  0  0  0  0  0  0  0
  -29.6320  -15.6403   20.8994 N   0  0  0  0  0  0  0  0  0  0  0  0
  -23.2023  -30.3655   20.8927 N   0  0  0  0  0  0  0  0  0  0  0  0
  -29.7731  -19.3555   21.7719 N   0  0  0  0  0  0  0  0  0  0  0  0
  -31.6283  -14.7192   20.0179 N   0  0  0  0  0  0  0  0  0  0  0  0
  -28.5550  -11.5098   19.2113 N   0  0  0  0  0  0  0  0  0  0  0  0
  -29.4582  -20.4643   19.7144 N   0  0  0  0  0  0  0  0  0  0  0  0
  -24.1525  -31.0421   24.2645 N   0  0  0  0  0  0  0  0  0  0  0  0
  -20.8139  -31.1271   18.6181 N   0  0  0  0  0  0  0  0  0  0  0  0
  -21.9597  -31.4820   15.2080 N   0  3  0  0  0  0  0  0  0  0  0  0
  -30.7688  -12.0655   18.9903 O   0  0  0  0  0  0  0  0  0  0  0  0
  -23.5131  -29.0796   23.1865 O   0  0  0  0  0  0  0  0  0  0  0  0
  -21.7701  -32.1937   21.0994 O   0  0  0  0  0  0  0  0  0  0  0  0
  -21.6569  -29.5072   17.1891 O   0  0  0  0  0  0  0  0  0  0  0  0
  -30.4307  -21.5568   21.5150 O   0  0  0  0  0  0  0  0  0  0  0  0
  -23.1463  -11.7238   20.5287 O   0  0  0  0  0  0  0  0  0  0  0  0
  -26.8000  -25.6004   19.3425 O   0  0  0  0  0  0  0  0  0  1  0  0
  -22.8791   -6.4129   21.9871 F   0  0  0  0  0  0  0  0  0  0  0  0
  -21.6268  -10.9225   22.6948 F   0  0  0  0  0  0  0  0  0  0  0  0
  -28.6069  -19.7304   16.8803 Cl  0  0  0  0  0  0  0  0  0  0  0  0
  1  2  1  0  0  0  0
  1  5  2  0  0  0  0
  2  6  2  0  0  0  0
  3  9  2  0  0  0  0
  3 18  1  0  0  0  0
  4 10  1  0  0  0  0
  4 18  2  0  0  0  0
  5 20  1  0  0  0  0
  6 22  1  0  0  0  0
  7 11  2  0  0  0  0
  7 21  1  0  0  0  0
  8 14  2  0  0  0  0
  8 24  1  0  0  0  0
  9 26  1  0  0  0  0
 10 26  2  0  0  0  0
 11 27  1  0  0  0  0
 12 13  2  0  0  0  0
 12 28  1  0  0  0  0
 13 29  1  0  0  0  0
 14 31  1  0  0  0  0
 15 23  1  0  0  0  0
 15 27  2  0  0  0  0
 16 24  2  0  0  0  0
 16 25  1  0  0  0  0
 17 29  2  0  0  0  0
 17 30  1  0  0  0  0
 18 32  1  0  0  0  0
 19 32  1  0  0  0  0
 19 33  2  0  0  0  0
 19 34  1  0  0  0  0
 20 22  2  0  0  0  0
 20 39  1  0  0  0  0
 21 23  2  0  0  0  0
 21 40  1  0  0  0  0
 22 48  1  0  0  0  0
 23 41  1  0  0  0  0
 24 56  1  0  0  0  0
 25 31  2  0  0  0  0
 25 66  1  0  0  0  0
 26 75  1  0  0  0  0
 27 76  1  0  0  0  0
 28 30  2  0  0  0  0
 28 75  1  0  0  0  0
 29 77  1  0  0  0  0
 30 78  1  0  0  0  0
 31 79  1  0  0  0  0
 32 60  2  0  0  0  0
 33 61  1  0  0  0  0
 33 64  1  0  0  0  0
 34 65  1  0  0  0  0
 34 70  2  0  0  0  0
 35 49  1  0  0  0  0
 35 67  1  0  0  0  0
 35 71  2  0  0  0  0
 36 57  1  0  0  0  0
 36 62  1  0  0  0  0
 36 72  2  0  0  0  0
 37 58  1  0  0  0  0
 37 68  1  0  0  0  0
 37 73  2  0  0  0  0
 38 63  1  0  0  0  0
 38 66  1  0  0  0  0
 38 74  2  0  0  0  0
 39 42  1  0  0  0  0
 40 49  1  0  0  0  0
 41 62  1  0  0  0  0
 42 44  1  0  0  0  0
 43 45  1  0  0  0  0
 43 46  1  0  0  0  0
 44 48  1  0  0  0  0
 45 50  1  0  0  0  0
 46 63  1  0  0  0  0
 47 50  1  0  0  0  0
 47 63  1  0  0  0  0
 48 67  1  0  0  0  0
 49 62  1  0  0  0  0
 50 61  1  0  0  0  0
 51 58  1  0  0  0  0
 52 59  1  0  0  0  0
 53 59  1  0  0  0  0
 54 59  1  0  0  0  0
 55 69  1  0  0  0  0
 56 76  1  0  0  0  0
 57 59  1  0  0  0  0
 57 68  1  0  0  0  0
 58 69  1  0  0  0  0
 60 61  1  0  0  0  0
M  CHG  1  69   1
M  ISO  4  38 100  56 101  66 100  76 101
M  END
> <Batch ID>
0008

> <Smiles>
CNC(C)C(=O)NC(C(=O)N1Cc2cc([101O:1][101CH2:1]c3ccc(Cl)c([100NH:0][100C:0](=O)N4CCCC(n5nc(-c6ccc(Oc7ccc(F)cc7F)cc6)c(C(N)=O)c5N)C4)c3)ccc2CC1C(=O)NC1CCCc2ccccc21)C(C)(C)C

> <Shape>
0.293

> <Color>
0.112

> <Negative vol penalty>
0.000

$$$$

  -OEChem-04042320353D

 76 84  0     1  0  0  0  0  0999 V2000
  -28.0474  -34.3925   23.5102 C   0  0  0  0  0  0  0  0  0  0  0  0
  -28.1849  -33.0387   23.2209 C   0  0  0  0  0  0  0  0  0  0  0  0
  -26.3634  -12.9794   21.5496 C   0  0  0  0  0  0  0  0  0  0  0  0
  -26.1575  -13.6873   19.2489 C   0  0  0  0  0  0  0  0  0  0  0  0
  -26.8487  -34.8738   24.0349 C   0  0  0  0  0  0  0  0  0  0  0  0
  -27.1240  -32.1651   23.4572 C   0  0  0  0  0  0  0  0  0  0  0  0
  -26.3610  -28.9522   19.6179 C   0  0  0  0  0  0  0  0  0  0  0  0
  -25.1241  -12.3449   21.4653 C   0  0  0  0  0  0  0  0  0  0  0  0
  -24.9182  -13.0527   19.1645 C   0  0  0  0  0  0  0  0  0  0  0  0
  -27.2258  -27.8633   19.5174 C   0  0  0  0  0  0  0  0  0  0  0  0
  -23.8839   -9.4574   20.2175 C   0  0  0  0  0  0  0  0  0  0  0  0
  -23.7768   -8.1714   20.7468 C   0  0  0  0  0  0  0  0  0  0  0  0
  -25.5591  -26.4528   20.5431 C   0  0  0  0  0  0  0  0  0  0  0  0
  -22.0724   -8.9427   22.2757 C   0  0  0  0  0  0  0  0  0  0  0  0
  -26.8801  -13.6507   20.4414 C   0  0  0  0  0  0  0  0  0  0  0  0
  -29.4215  -13.7505   20.2438 C   0  0  0  0  0  0  0  0  0  0  0  0
  -25.7692  -34.0073   24.2687 C   0  0  0  0  0  0  0  0  0  0  0  0
  -25.0908  -28.8017   20.1926 C   0  0  0  0  0  0  0  0  0  0  0  0
  -25.9102  -32.6350   23.9868 C   0  0  0  0  0  0  0  0  0  0  0  0
  -24.6791  -27.5408   20.6473 C   0  0  0  0  0  0  0  0  0  0  0  0
  -24.4015  -12.3815   20.2728 C   0  0  0  0  0  0  0  0  0  0  0  0
  -26.8261  -26.6140   19.9827 C   0  0  0  0  0  0  0  0  0  0  0  0
  -23.0854  -10.4861   20.7173 C   0  0  0  0  0  0  0  0  0  0  0  0
  -22.8710   -7.9140   21.7759 C   0  0  0  0  0  0  0  0  0  0  0  0
  -22.1796  -10.2287   21.7463 C   0  0  0  0  0  0  0  0  0  0  0  0
  -28.1599  -14.3069   20.5280 C   0  0  0  0  0  0  0  0  0  0  0  0
  -30.3083  -14.7728   20.4781 C   0  0  0  0  0  0  0  0  0  0  0  0
  -28.8859  -22.4945   21.7463 C   0  0  0  0  0  0  0  0  0  0  0  0
  -29.7613  -12.4279   19.8069 C   0  0  0  0  0  0  0  0  0  0  0  0
  -23.6183  -30.0228   22.7312 C   0  0  0  0  0  0  0  0  0  0  0  0
  -21.0642  -28.4208   21.5342 C   0  0  0  0  0  0  0  0  0  0  0  0
  -19.8950  -25.8634   19.6004 C   0  0  0  0  0  0  0  0  0  0  0  0
  -29.7194  -20.6195   20.2822 C   0  0  0  0  0  0  0  0  0  0  0  0
  -24.5094  -34.5660   24.8813 C   0  0  0  0  0  0  0  0  0  0  0  0
  -24.1595  -29.9804   20.2692 C   0  0  0  0  0  0  0  0  0  0  0  0
  -23.3180  -27.3221   21.2539 C   0  0  0  0  0  0  0  0  0  0  0  0
  -23.3051  -33.6368   24.7517 C   0  0  0  0  0  0  0  0  0  0  0  0
  -30.8838  -18.7140   23.1107 C   0  0  0  0  0  0  0  0  0  0  0  0
  -23.6869  -32.2112   25.1371 C   0  0  0  0  0  0  0  0  0  0  0  0
  -30.4062  -17.3094   22.7470 C   0  0  0  0  0  0  0  0  0  0  0  0
  -29.8831  -19.7878   22.6836 C   0  0  0  0  0  0  0  0  0  0  0  0
  -29.4889  -23.1406   19.8525 C   0  0  0  0  0  0  0  0  0  0  0  0
  -29.0321  -18.3142   20.8827 C   0  0  0  0  0  0  0  0  0  0  0  0
  -24.7736  -31.6602   24.2060 C   0  0  1  0  0  0  0  0  0  0  0  0
  -28.9031  -23.8785   21.0767 C   0  0  1  0  0  0  0  0  0  0  0  0
  -23.0848  -29.8242   21.3406 C   0  0  1  0  0  0  0  0  0  0  0  0
  -30.0464  -17.2215   21.2542 C   0  0  2  0  0  0  0  0  0  0  0  0
  -17.7602  -24.7820   18.8449 C   0  0  0  0  0  0  0  0  0  0  0  0
  -20.7646  -27.1059   24.2712 C   0  0  0  0  0  0  0  0  0  0  0  0
  -19.2811  -25.3921   23.2080 C   0  0  0  0  0  0  0  0  0  0  0  0
  -18.6106  -27.7948   23.2033 C   0  0  0  0  0  0  0  0  0  0  0  0
  -20.4732  -26.4409   16.7559 C   0  0  0  0  0  0  0  0  0  0  0  0
  -27.5521  -24.5350   20.8808 C   0  0  0  0  0  0  0  0  0  1  0  0
  -20.4980  -27.0318   21.7042 C   0  0  1  0  0  0  0  0  0  0  0  0
  -18.8233  -25.8216   18.5260 C   0  0  2  0  0  0  0  0  0  0  0  0
  -19.8150  -26.8353   23.0870 C   0  0  0  0  0  0  0  0  0  0  0  0
  -28.2344  -15.5835   20.9136 N   0  0  0  0  0  0  0  0  0  0  0  0
  -29.5534  -15.8378   20.8734 N   0  0  0  0  0  0  0  0  0  0  0  0
  -29.6123  -21.9468   20.7052 N   0  0  0  0  0  0  0  0  0  0  0  0
  -22.4460  -28.5068   21.3125 N   0  0  0  0  0  0  0  0  0  0  0  0
  -29.5223  -19.6404   21.2675 N   0  0  0  0  0  0  0  0  0  0  0  0
  -31.6523  -14.8557   20.3825 N   0  0  0  0  0  0  0  0  0  0  0  0
  -28.7274  -11.5013   19.6151 N   0  0  0  0  0  0  0  0  0  0  0  0
  -24.1987  -31.2594   22.9398 N   0  0  0  0  0  0  0  0  0  0  0  0
  -19.6150  -26.8086   20.5645 N   0  0  0  0  0  0  0  0  0  0  0  0
  -19.4269  -25.4867   17.2052 N   0  3  0  0  0  0  0  0  0  0  0  0
  -28.4413  -22.0414   22.7770 O   0  0  0  0  0  0  0  0  0  0  0  0
  -30.9481  -12.0732   19.6087 O   0  0  0  0  0  0  0  0  0  0  0  0
  -23.5100  -29.1215   23.5543 O   0  0  0  0  0  0  0  0  0  0  0  0
  -20.3073  -29.3933   21.5887 O   0  0  0  0  0  0  0  0  0  0  0  0
  -20.8799  -25.1284   19.5878 O   0  0  0  0  0  0  0  0  0  0  0  0
  -29.9268  -20.3479   19.0947 O   0  0  0  0  0  0  0  0  0  0  0  0
  -23.1923  -11.7622   20.1901 O   0  0  0  0  0  0  0  0  0  0  0  0
  -27.6747  -25.5417   19.8857 O   0  0  0  0  0  0  0  0  0  1  0  0
  -22.7672   -6.6786   22.2832 F   0  0  0  0  0  0  0  0  0  0  0  0
  -21.4089  -11.2127   22.2298 F   0  0  0  0  0  0  0  0  0  0  0  0
  1  2  1  0  0  0  0
  1  5  2  0  0  0  0
  2  6  2  0  0  0  0
  3  8  2  0  0  0  0
  3 15  1  0  0  0  0
  4  9  1  0  0  0  0
  4 15  2  0  0  0  0
  5 17  1  0  0  0  0
  6 19  1  0  0  0  0
  7 10  2  0  0  0  0
  7 18  1  0  0  0  0
  8 21  1  0  0  0  0
  9 21  2  0  0  0  0
 10 22  1  0  0  0  0
 11 12  2  0  0  0  0
 11 23  1  0  0  0  0
 12 24  1  0  0  0  0
 13 20  1  0  0  0  0
 13 22  2  0  0  0  0
 14 24  2  0  0  0  0
 14 25  1  0  0  0  0
 15 26  1  0  0  0  0
 16 26  1  0  0  0  0
 16 27  2  0  0  0  0
 16 29  1  0  0  0  0
 17 19  2  0  0  0  0
 17 34  1  0  0  0  0
 18 20  2  0  0  0  0
 18 35  1  0  0  0  0
 19 44  1  0  0  0  0
 20 36  1  0  0  0  0
 21 73  1  0  0  0  0
 22 74  1  0  0  0  0
 23 25  2  0  0  0  0
 23 73  1  0  0  0  0
 24 75  1  0  0  0  0
 25 76  1  0  0  0  0
 26 57  2  0  0  0  0
 27 58  1  0  0  0  0
 27 62  1  0  0  0  0
 28 45  1  0  0  0  0
 28 59  1  0  0  0  0
 28 67  2  0  0  0  0
 29 63  1  0  0  0  0
 29 68  2  0  0  0  0
 30 46  1  0  0  0  0
 30 64  1  0  0  0  0
 30 69  2  0  0  0  0
 31 54  1  0  0  0  0
 31 60  1  0  0  0  0
 31 70  2  0  0  0  0
 32 55  1  0  0  0  0
 32 65  1  0  0  0  0
 32 71  2  0  0  0  0
 33 59  1  0  0  0  0
 33 61  1  0  0  0  0
 33 72  2  0  0  0  0
 34 37  1  0  0  0  0
 35 46  1  0  0  0  0
 36 60  1  0  0  0  0
 37 39  1  0  0  0  0
 38 40  1  0  0  0  0
 38 41  1  0  0  0  0
 39 44  1  0  0  0  0
 40 47  1  0  0  0  0
 41 61  1  0  0  0  0
 42 45  1  0  0  0  0
 42 59  1  0  0  0  0
 43 47  1  0  0  0  0
 43 61  1  0  0  0  0
 44 64  1  0  0  0  0
 45 53  1  0  0  0  0
 46 60  1  0  0  0  0
 47 58  1  0  0  0  0
 48 55  1  0  0  0  0
 49 56  1  0  0  0  0
 50 56  1  0  0  0  0
 51 56  1  0  0  0  0
 52 66  1  0  0  0  0
 53 74  1  0  0  0  0
 54 56  1  0  0  0  0
 54 65  1  0  0  0  0
 55 66  1  0  0  0  0
 57 58  1  0  0  0  0
M  CHG  1  66   1
M  ISO  4  33 100  53 101  59 100  74 101
M  END
> <Batch ID>
0008

> <Smiles>
CNC(C)C(=O)NC(C(=O)N1Cc2cc([101O:1][101CH2:1]C3C[100N:0]([100C:0](=O)N4CCCC(n5nc(-c6ccc(Oc7ccc(F)cc7F)cc6)c(C(N)=O)c5N)C4)C3=O)ccc2CC1C(=O)NC1CCCc2ccccc21)C(C)(C)C

> <Shape>
0.346

> <Color>
0.094

> <Negative vol penalty>
0.000

$$$$

  -OEChem-04042320353D

 80 88  0     1  0  0  0  0  0999 V2000
  -40.4709  -26.2285   18.6322 C   0  0  0  0  0  0  0  0  0  0  0  0
  -39.7045  -25.2281   19.2215 C   0  0  0  0  0  0  0  0  0  0  0  0
  -23.0799   -9.8613   19.9439 C   0  0  0  0  0  0  0  0  0  0  0  0
  -23.8351   -9.8765   22.2388 C   0  0  0  0  0  0  0  0  0  0  0  0
  -40.2697  -27.5610   18.9897 C   0  0  0  0  0  0  0  0  0  0  0  0
  -38.7373  -25.5596   20.1696 C   0  0  0  0  0  0  0  0  0  0  0  0
  -33.3447  -22.7934   21.0497 C   0  0  0  0  0  0  0  0  0  0  0  0
  -30.4519  -18.3575   24.0335 C   0  0  0  0  0  0  0  0  0  0  0  0
  -29.8675  -17.4689   23.1310 C   0  0  0  0  0  0  0  0  0  0  0  0
  -22.3368   -8.7081   20.1960 C   0  0  0  0  0  0  0  0  0  0  0  0
  -23.0920   -8.7233   22.4910 C   0  0  0  0  0  0  0  0  0  0  0  0
  -32.9227  -21.8310   21.9660 C   0  0  0  0  0  0  0  0  0  0  0  0
  -19.8635   -7.9238   23.0894 C   0  0  0  0  0  0  0  0  0  0  0  0
  -19.1042   -7.8867   24.2589 C   0  0  0  0  0  0  0  0  0  0  0  0
  -32.0546  -23.5750   23.3887 C   0  0  0  0  0  0  0  0  0  0  0  0
  -32.0542  -16.6223   22.5488 C   0  0  0  0  0  0  0  0  0  0  0  0
  -20.3462   -5.9531   25.0041 C   0  0  0  0  0  0  0  0  0  0  0  0
  -23.8291  -10.4455   20.9653 C   0  0  0  0  0  0  0  0  0  0  0  0
  -24.1684  -12.9706   20.8379 C   0  0  0  0  0  0  0  0  0  0  0  0
  -39.2929  -27.9099   19.9356 C   0  0  0  0  0  0  0  0  0  0  0  0
  -33.1342  -24.1567   21.3017 C   0  0  0  0  0  0  0  0  0  0  0  0
  -38.5238  -26.8979   20.5412 C   0  0  0  0  0  0  0  0  0  0  0  0
  -32.4726  -24.5525   22.4729 C   0  0  0  0  0  0  0  0  0  0  0  0
  -31.8374  -18.3787   24.1936 C   0  0  0  0  0  0  0  0  0  0  0  0
  -30.6687  -16.6013   22.3887 C   0  0  0  0  0  0  0  0  0  0  0  0
  -22.3428   -8.1391   21.4696 C   0  0  0  0  0  0  0  0  0  0  0  0
  -32.2801  -22.2219   23.1370 C   0  0  0  0  0  0  0  0  0  0  0  0
  -20.8641   -6.9754   22.8772 C   0  0  0  0  0  0  0  0  0  0  0  0
  -19.3455   -6.9014   25.2162 C   0  0  0  0  0  0  0  0  0  0  0  0
  -21.1055   -5.9901   23.8345 C   0  0  0  0  0  0  0  0  0  0  0  0
  -32.6385  -17.5110   23.4512 C   0  0  0  0  0  0  0  0  0  0  0  0
  -24.5974  -11.6364   20.7053 C   0  0  0  0  0  0  0  0  0  0  0  0
  -25.2604  -13.7202   20.4745 C   0  0  0  0  0  0  0  0  0  0  0  0
  -22.8964  -13.4863   21.2526 C   0  0  0  0  0  0  0  0  0  0  0  0
  -35.0233  -26.6812   21.7041 C   0  0  0  0  0  0  0  0  0  0  0  0
  -32.2092  -28.2945   21.7268 C   0  0  0  0  0  0  0  0  0  0  0  0
  -28.8384  -28.2327   22.2570 C   0  0  0  0  0  0  0  0  0  0  0  0
  -30.7251  -14.7725   20.6571 C   0  0  0  0  0  0  0  0  0  0  0  0
  -39.1443  -29.3594   20.3249 C   0  0  0  0  0  0  0  0  0  0  0  0
  -33.5717  -25.1809   20.2907 C   0  0  0  0  0  0  0  0  0  0  0  0
  -32.2044  -26.0023   22.7808 C   0  0  0  0  0  0  0  0  0  0  0  0
  -37.8422  -29.6617   21.0620 C   0  0  0  0  0  0  0  0  0  0  0  0
  -29.6182  -12.3498   18.2942 C   0  0  0  0  0  0  0  0  0  0  0  0
  -37.5930  -28.6248   22.1527 C   0  0  0  0  0  0  0  0  0  0  0  0
  -28.1780  -12.0580   18.7218 C   0  0  0  0  0  0  0  0  0  0  0  0
  -30.5306  -12.5835   19.4970 C   0  0  0  0  0  0  0  0  0  0  0  0
  -28.6200  -13.3102   20.8720 C   0  0  0  0  0  0  0  0  0  0  0  0
  -37.4479  -27.2199   21.5555 C   0  0  1  0  0  0  0  0  0  0  0  0
  -33.7641  -26.5697   20.8920 C   0  0  1  0  0  0  0  0  0  0  0  0
  -27.6498  -13.1321   19.6928 C   0  0  2  0  0  0  0  0  0  0  0  0
  -26.8131  -29.7143   22.2334 C   0  0  0  0  0  0  0  0  0  0  0  0
  -33.0737  -29.5146   24.3865 C   0  0  0  0  0  0  0  0  0  0  0  0
  -30.6959  -30.2008   24.7650 C   0  0  0  0  0  0  0  0  0  0  0  0
  -31.9607  -31.1133   22.8181 C   0  0  0  0  0  0  0  0  0  0  0  0
  -27.5417  -26.6222   20.1395 C   0  0  0  0  0  0  0  0  0  0  0  0
  -32.4285  -19.3525   25.1780 C   0  0  0  0  0  0  0  0  0  0  0  0
  -31.2163  -28.6973   22.7903 C   0  0  1  0  0  0  0  0  0  0  0  0
  -27.6788  -28.7568   21.4293 C   0  0  2  0  0  0  0  0  0  0  0  0
  -31.7433  -29.8542   23.6854 C   0  0  0  0  0  0  0  0  0  0  0  0
  -25.8632  -11.5406   20.2900 N   0  0  0  0  0  0  0  0  0  0  0  0
  -26.2389  -12.8242   20.1583 N   0  0  0  0  0  0  0  0  0  0  0  0
  -32.6568  -26.9663   21.7643 N   0  0  0  0  0  0  0  0  0  0  0  0
  -29.9687  -13.6165   20.3699 N   0  0  0  0  0  0  0  0  0  0  0  0
  -25.4695  -15.0516   20.3976 N   0  0  0  0  0  0  0  0  0  0  0  0
  -21.8849  -12.5771   21.5907 N   0  0  0  0  0  0  0  0  0  0  0  0
  -30.0750  -15.6994   21.4712 N   0  0  0  0  0  0  0  0  0  0  0  0
  -36.1344  -27.0523   20.9713 N   0  0  0  0  0  0  0  0  0  0  0  0
  -29.9716  -29.0010   22.0926 N   0  0  0  0  0  0  0  0  0  0  0  0
  -33.0113  -20.5091   24.5129 N   0  0  0  0  0  0  0  0  0  1  0  0
  -26.8237  -27.6288   20.9631 N   0  3  0  0  0  0  0  0  0  0  0  0
  -22.6587  -14.7169   21.3055 O   0  0  0  0  0  0  0  0  0  0  0  0
  -34.9890  -26.4493   22.9069 O   0  0  0  0  0  0  0  0  0  0  0  0
  -32.5687  -29.1257   20.8892 O   0  0  0  0  0  0  0  0  0  0  0  0
  -28.7471  -27.2432   22.9801 O   0  0  0  0  0  0  0  0  0  0  0  0
  -31.8549  -14.9410   20.1912 O   0  0  0  0  0  0  0  0  0  0  0  0
  -21.6176   -7.0140   21.7160 O   0  0  0  0  0  0  0  0  0  0  0  0
  -31.8677  -21.2847   24.0333 O   0  0  0  0  0  0  0  0  0  1  0  0
  -18.6173   -6.8669   26.3399 F   0  0  0  0  0  0  0  0  0  0  0  0
  -22.0663   -5.0770   23.6368 F   0  0  0  0  0  0  0  0  0  0  0  0
  -34.3562  -17.5092   23.6224 Cl  0  0  0  0  0  0  0  0  0  0  0  0
  1  2  1  0  0  0  0
  1  5  2  0  0  0  0
  2  6  2  0  0  0  0
  3 10  2  0  0  0  0
  3 18  1  0  0  0  0
  4 11  1  0  0  0  0
  4 18  2  0  0  0  0
  5 20  1  0  0  0  0
  6 22  1  0  0  0  0
  7 12  2  0  0  0  0
  7 21  1  0  0  0  0
  8  9  2  0  0  0  0
  8 24  1  0  0  0  0
  9 25  1  0  0  0  0
 10 26  1  0  0  0  0
 11 26  2  0  0  0  0
 12 27  1  0  0  0  0
 13 14  2  0  0  0  0
 13 28  1  0  0  0  0
 14 29  1  0  0  0  0
 15 23  1  0  0  0  0
 15 27  2  0  0  0  0
 16 25  2  0  0  0  0
 16 31  1  0  0  0  0
 17 29  2  0  0  0  0
 17 30  1  0  0  0  0
 18 32  1  0  0  0  0
 19 32  1  0  0  0  0
 19 33  2  0  0  0  0
 19 34  1  0  0  0  0
 20 22  2  0  0  0  0
 20 39  1  0  0  0  0
 21 23  2  0  0  0  0
 21 40  1  0  0  0  0
 22 48  1  0  0  0  0
 23 41  1  0  0  0  0
 24 31  2  0  0  0  0
 24 56  1  0  0  0  0
 25 66  1  0  0  0  0
 26 76  1  0  0  0  0
 27 77  1  0  0  0  0
 28 30  2  0  0  0  0
 28 76  1  0  0  0  0
 29 78  1  0  0  0  0
 30 79  1  0  0  0  0
 31 80  1  0  0  0  0
 32 60  2  0  0  0  0
 33 61  1  0  0  0  0
 33 64  1  0  0  0  0
 34 65  1  0  0  0  0
 34 71  2  0  0  0  0
 35 49  1  0  0  0  0
 35 67  1  0  0  0  0
 35 72  2  0  0  0  0
 36 57  1  0  0  0  0
 36 62  1  0  0  0  0
 36 73  2  0  0  0  0
 37 58  1  0  0  0  0
 37 68  1  0  0  0  0
 37 74  2  0  0  0  0
 38 63  1  0  0  0  0
 38 66  1  0  0  0  0
 38 75  2  0  0  0  0
 39 42  1  0  0  0  0
 40 49  1  0  0  0  0
 41 62  1  0  0  0  0
 42 44  1  0  0  0  0
 43 45  1  0  0  0  0
 43 46  1  0  0  0  0
 44 48  1  0  0  0  0
 45 50  1  0  0  0  0
 46 63  1  0  0  0  0
 47 50  1  0  0  0  0
 47 63  1  0  0  0  0
 48 67  1  0  0  0  0
 49 62  1  0  0  0  0
 50 61  1  0  0  0  0
 51 58  1  0  0  0  0
 52 59  1  0  0  0  0
 53 59  1  0  0  0  0
 54 59  1  0  0  0  0
 55 70  1  0  0  0  0
 56 69  1  0  0  0  0
 57 59  1  0  0  0  0
 57 68  1  0  0  0  0
 58 70  1  0  0  0  0
 60 61  1  0  0  0  0
 69 77  1  0  0  0  0
M  CHG  1  70   1
M  ISO  4  38 100  66 100  69 101  77 101
M  END
> <Batch ID>
0008

> <Smiles>
CNC(C)C(=O)NC(C(=O)N1Cc2cc([101O:1][101NH:1]Cc3ccc([100NH:0][100C:0](=O)N4CCCC(n5nc(-c6ccc(Oc7ccc(F)cc7F)cc6)c(C(N)=O)c5N)C4)cc3Cl)ccc2CC1C(=O)NC1CCCc2ccccc21)C(C)(C)C

> <Shape>
0.199

> <Color>
0.205

> <Negative vol penalty>
0.000

$$$$

  -OEChem-04042320353D

 82 91  0     1  0  0  0  0  0999 V2000
  -17.9614  -33.1523   23.2353 C   0  0  0  0  0  0  0  0  0  0  0  0
  -19.2995  -33.0228   23.5934 C   0  0  0  0  0  0  0  0  0  0  0  0
  -25.4680  -13.5563   21.6999 C   0  0  0  0  0  0  0  0  0  0  0  0
  -26.6901  -13.3435   19.6267 C   0  0  0  0  0  0  0  0  0  0  0  0
  -17.1821  -32.0142   23.0323 C   0  0  0  0  0  0  0  0  0  0  0  0
  -19.8587  -31.7551   23.7497 C   0  0  0  0  0  0  0  0  0  0  0  0
  -25.5322  -29.6942   19.8183 C   0  0  0  0  0  0  0  0  0  0  0  0
  -25.2044  -12.1867   21.6852 C   0  0  0  0  0  0  0  0  0  0  0  0
  -26.4265  -11.9738   19.6119 C   0  0  0  0  0  0  0  0  0  0  0  0
  -26.7468  -29.3024   19.2548 C   0  0  0  0  0  0  0  0  0  0  0  0
  -23.0732  -10.0775   20.1251 C   0  0  0  0  0  0  0  0  0  0  0  0
  -21.7734   -9.6653   20.4185 C   0  0  0  0  0  0  0  0  0  0  0  0
  -26.5636  -27.1457   20.3334 C   0  0  0  0  0  0  0  0  0  0  0  0
  -29.8471  -23.4910   17.8472 C   0  0  0  0  0  0  0  0  0  0  0  0
  -29.3011  -24.6201   15.7607 C   0  0  0  0  0  0  0  0  0  0  0  0
  -22.6009   -8.3944   22.2992 C   0  0  0  0  0  0  0  0  0  0  0  0
  -26.2108  -14.1347   20.6706 C   0  0  0  0  0  0  0  0  0  0  0  0
  -25.5419  -16.5964   20.6759 C   0  0  0  0  0  0  0  0  0  0  0  0
  -17.7345  -30.7318   23.1768 C   0  0  0  0  0  0  0  0  0  0  0  0
  -24.8204  -28.8067   20.6300 C   0  0  0  0  0  0  0  0  0  0  0  0
  -19.0857  -30.5987   23.5497 C   0  0  0  0  0  0  0  0  0  0  0  0
  -25.3404  -27.5282   20.8904 C   0  0  0  0  0  0  0  0  0  0  0  0
  -29.5365  -22.2431   15.7970 C   0  0  0  0  0  0  0  0  0  0  0  0
  -29.5826  -24.6639   17.1339 C   0  0  0  0  0  0  0  0  0  0  0  0
  -29.8201  -22.2844   17.1633 C   0  0  0  0  0  0  0  0  0  0  0  0
  -25.6836  -11.3954   20.6412 C   0  0  0  0  0  0  0  0  0  0  0  0
  -27.2613  -28.0314   19.5120 C   0  0  0  0  0  0  0  0  0  0  0  0
  -24.1370   -9.6481   20.9187 C   0  0  0  0  0  0  0  0  0  0  0  0
  -21.5372   -8.8238   21.5055 C   0  0  0  0  0  0  0  0  0  0  0  0
  -29.2807  -23.4019   15.0808 C   0  0  0  0  0  0  0  0  0  0  0  0
  -23.9008   -8.8066   22.0058 C   0  0  0  0  0  0  0  0  0  0  0  0
  -26.4830  -15.5496   20.6850 C   0  0  0  0  0  0  0  0  0  0  0  0
  -26.3010  -17.7409   20.6970 C   0  0  0  0  0  0  0  0  0  0  0  0
  -24.1095  -16.5395   20.6507 C   0  0  0  0  0  0  0  0  0  0  0  0
  -21.7572  -28.1894   22.7065 C   0  0  0  0  0  0  0  0  0  0  0  0
  -22.3176  -25.6033   21.1545 C   0  0  0  0  0  0  0  0  0  0  0  0
  -22.1045  -22.6399   19.4781 C   0  0  0  0  0  0  0  0  0  0  0  0
  -30.6572  -20.6877   18.8744 C   0  0  0  0  0  0  0  0  0  0  0  0
  -16.8404  -29.5312   22.9930 C   0  0  0  0  0  0  0  0  0  0  0  0
  -23.5383  -29.2079   21.3077 C   0  0  0  0  0  0  0  0  0  0  0  0
  -29.6301  -20.8501   15.2632 C   0  0  0  0  0  0  0  0  0  0  0  0
  -24.5570  -26.6192   21.7976 C   0  0  0  0  0  0  0  0  0  0  0  0
  -17.6063  -28.2231   22.8129 C   0  0  0  0  0  0  0  0  0  0  0  0
  -31.2238  -18.4316   21.5306 C   0  0  0  0  0  0  0  0  0  0  0  0
  -18.7146  -28.1057   23.8544 C   0  0  0  0  0  0  0  0  0  0  0  0
  -29.9844  -17.5408   21.5343 C   0  0  0  0  0  0  0  0  0  0  0  0
  -29.7374  -20.0300   16.5551 C   0  0  0  0  0  0  0  0  0  0  0  0
  -31.6366  -18.7767   20.1062 C   0  0  0  0  0  0  0  0  0  0  0  0
  -29.2883  -18.5987   19.3224 C   0  0  0  0  0  0  0  0  0  0  0  0
  -19.7349  -29.2406   23.7047 C   0  0  1  0  0  0  0  0  0  0  0  0
  -22.5317  -28.0498   21.4290 C   0  0  1  0  0  0  0  0  0  0  0  0
  -28.8423  -18.1981   20.7438 C   0  0  1  0  0  0  0  0  0  0  0  0
  -21.2242  -20.3019   19.7147 C   0  0  0  0  0  0  0  0  0  0  0  0
  -24.6389  -24.9213   23.0120 C   0  0  0  0  0  0  0  0  0  0  0  0
  -24.2852  -22.5070   22.4514 C   0  0  0  0  0  0  0  0  0  0  0  0
  -22.4786  -23.7997   23.5861 C   0  0  0  0  0  0  0  0  0  0  0  0
  -20.3072  -22.9568   17.1483 C   0  0  0  0  0  0  0  0  0  0  0  0
  -29.5957  -25.9783   17.8411 C   0  0  0  0  0  0  0  0  0  0  0  0
  -22.9816  -24.2496   21.1496 C   0  0  1  0  0  0  0  0  0  0  0  0
  -20.9325  -21.7102   19.2204 C   0  0  2  0  0  0  0  0  0  0  0  0
  -23.6010  -23.8884   22.5292 C   0  0  0  0  0  0  0  0  0  0  0  0
  -27.7438  -15.9899   20.7098 N   0  0  0  0  0  0  0  0  0  0  0  0
  -27.6002  -17.3261   20.7164 N   0  0  0  0  0  0  0  0  0  0  0  0
  -30.0388  -20.9779   17.6564 N   0  0  0  0  0  0  0  0  0  0  0  0
  -23.1237  -26.7021   21.4760 N   0  0  0  0  0  0  0  0  0  0  0  0
  -30.5346  -19.3739   19.3504 N   0  0  0  0  0  0  0  0  0  0  0  0
  -25.9774  -19.0515   20.7006 N   0  0  0  0  0  0  0  0  0  0  0  0
  -23.4910  -15.2819   20.6314 N   0  0  0  0  0  0  0  0  0  0  0  0
  -20.6263  -28.9757   22.5957 N   0  0  0  0  0  0  0  0  0  0  0  0
  -21.9756  -23.3032   20.6801 N   0  0  0  0  0  0  0  0  0  0  0  0
  -28.2468  -26.4771   18.1125 N   0  0  0  0  0  0  0  0  0  1  0  0
  -20.6348  -21.6440   17.7616 N   0  3  0  0  0  0  0  0  0  0  0  0
  -23.3993  -17.5733   20.6290 O   0  0  0  0  0  0  0  0  0  0  0  0
  -22.1544  -27.6243   23.7187 O   0  0  0  0  0  0  0  0  0  0  0  0
  -21.1157  -25.6865   20.8865 O   0  0  0  0  0  0  0  0  0  0  0  0
  -23.0425  -22.7626   18.6935 O   0  0  0  0  0  0  0  0  0  0  0  0
  -31.3436  -21.5181   19.4827 O   0  0  0  0  0  0  0  0  0  0  0  0
  -25.4268  -10.0589   20.6266 O   0  0  0  0  0  0  0  0  0  0  0  0
  -28.4571  -27.6499   18.9494 O   0  0  0  0  0  0  0  0  0  1  0  0
  -20.2887   -8.4293   21.7881 F   0  0  0  0  0  0  0  0  0  0  0  0
  -29.0297  -23.3597   13.7667 F   0  0  0  0  0  0  0  0  0  0  0  0
  -24.9185   -8.3918   22.7725 F   0  0  0  0  0  0  0  0  0  0  0  0
  1  2  1  0  0  0  0
  1  5  2  0  0  0  0
  2  6  2  0  0  0  0
  3  8  2  0  0  0  0
  3 17  1  0  0  0  0
  4  9  1  0  0  0  0
  4 17  2  0  0  0  0
  5 19  1  0  0  0  0
  6 21  1  0  0  0  0
  7 10  2  0  0  0  0
  7 20  1  0  0  0  0
  8 26  1  0  0  0  0
  9 26  2  0  0  0  0
 10 27  1  0  0  0  0
 11 12  2  0  0  0  0
 11 28  1  0  0  0  0
 12 29  1  0  0  0  0
 13 22  1  0  0  0  0
 13 27  2  0  0  0  0
 14 24  2  0  0  0  0
 14 25  1  0  0  0  0
 15 24  1  0  0  0  0
 15 30  2  0  0  0  0
 16 29  2  0  0  0  0
 16 31  1  0  0  0  0
 17 32  1  0  0  0  0
 18 32  1  0  0  0  0
 18 33  2  0  0  0  0
 18 34  1  0  0  0  0
 19 21  2  0  0  0  0
 19 39  1  0  0  0  0
 20 22  2  0  0  0  0
 20 40  1  0  0  0  0
 21 50  1  0  0  0  0
 22 42  1  0  0  0  0
 23 25  2  0  0  0  0
 23 30  1  0  0  0  0
 23 41  1  0  0  0  0
 24 58  1  0  0  0  0
 25 64  1  0  0  0  0
 26 78  1  0  0  0  0
 27 79  1  0  0  0  0
 28 31  2  0  0  0  0
 28 78  1  0  0  0  0
 29 80  1  0  0  0  0
 30 81  1  0  0  0  0
 31 82  1  0  0  0  0
 32 62  2  0  0  0  0
 33 63  1  0  0  0  0
 33 67  1  0  0  0  0
 34 68  1  0  0  0  0
 34 73  2  0  0  0  0
 35 51  1  0  0  0  0
 35 69  1  0  0  0  0
 35 74  2  0  0  0  0
 36 59  1  0  0  0  0
 36 65  1  0  0  0  0
 36 75  2  0  0  0  0
 37 60  1  0  0  0  0
 37 70  1  0  0  0  0
 37 76  2  0  0  0  0
 38 64  1  0  0  0  0
 38 66  1  0  0  0  0
 38 77  2  0  0  0  0
 39 43  1  0  0  0  0
 40 51  1  0  0  0  0
 41 47  1  0  0  0  0
 42 65  1  0  0  0  0
 43 45  1  0  0  0  0
 44 46  1  0  0  0  0
 44 48  1  0  0  0  0
 45 50  1  0  0  0  0
 46 52  1  0  0  0  0
 47 64  1  0  0  0  0
 48 66  1  0  0  0  0
 49 52  1  0  0  0  0
 49 66  1  0  0  0  0
 50 69  1  0  0  0  0
 51 65  1  0  0  0  0
 52 63  1  0  0  0  0
 53 60  1  0  0  0  0
 54 61  1  0  0  0  0
 55 61  1  0  0  0  0
 56 61  1  0  0  0  0
 57 72  1  0  0  0  0
 58 71  1  0  0  0  0
 59 61  1  0  0  0  0
 59 70  1  0  0  0  0
 60 72  1  0  0  0  0
 62 63  1  0  0  0  0
 71 79  1  0  0  0  0
M  CHG  1  72   1
M  ISO  4  38 100  64 100  71 101  79 101
M  END
> <Batch ID>
0008

> <Smiles>
CNC(C)C(=O)NC(C(=O)N1Cc2cc([101O:1][101NH:1]Cc3cc(F)c4c(c3)[100N:0]([100C:0](=O)N3CCCC(n5nc(-c6ccc(Oc7ccc(F)cc7F)cc6)c(C(N)=O)c5N)C3)CC4)ccc2CC1C(=O)NC1CCCc2ccccc21)C(C)(C)C

> <Shape>
0.238

> <Color>
0.079

> <Negative vol penalty>
0.000

$$$$

  -OEChem-04042320353D

 80 88  0     1  0  0  0  0  0999 V2000
  -40.5188  -26.0778   18.4892 C   0  0  0  0  0  0  0  0  0  0  0  0
  -39.7448  -25.0902   19.0900 C   0  0  0  0  0  0  0  0  0  0  0  0
  -23.0777   -9.8645   19.9438 C   0  0  0  0  0  0  0  0  0  0  0  0
  -23.8341   -9.8783   22.2382 C   0  0  0  0  0  0  0  0  0  0  0  0
  -40.3499  -27.4127   18.8544 C   0  0  0  0  0  0  0  0  0  0  0  0
  -38.8022  -25.4369   20.0573 C   0  0  0  0  0  0  0  0  0  0  0  0
  -33.3755  -22.7709   21.0314 C   0  0  0  0  0  0  0  0  0  0  0  0
  -30.4582  -18.3548   24.0317 C   0  0  0  0  0  0  0  0  0  0  0  0
  -29.8725  -17.4663   23.1299 C   0  0  0  0  0  0  0  0  0  0  0  0
  -22.3339   -8.7117   20.1959 C   0  0  0  0  0  0  0  0  0  0  0  0
  -23.0903   -8.7256   22.4904 C   0  0  0  0  0  0  0  0  0  0  0  0
  -32.9525  -21.8137   21.9526 C   0  0  0  0  0  0  0  0  0  0  0  0
  -19.8616   -7.9281   23.0903 C   0  0  0  0  0  0  0  0  0  0  0  0
  -19.1029   -7.8911   24.2602 C   0  0  0  0  0  0  0  0  0  0  0  0
  -32.1449  -23.5692   23.3967 C   0  0  0  0  0  0  0  0  0  0  0  0
  -32.0581  -16.6188   22.5453 C   0  0  0  0  0  0  0  0  0  0  0  0
  -20.3441   -5.9563   25.0040 C   0  0  0  0  0  0  0  0  0  0  0  0
  -23.8278  -10.4478   20.9649 C   0  0  0  0  0  0  0  0  0  0  0  0
  -24.1687  -12.9727   20.8382 C   0  0  0  0  0  0  0  0  0  0  0  0
  -39.3980  -27.7770   19.8197 C   0  0  0  0  0  0  0  0  0  0  0  0
  -33.1958  -24.1371   21.2913 C   0  0  0  0  0  0  0  0  0  0  0  0
  -38.6213  -26.7778   20.4367 C   0  0  0  0  0  0  0  0  0  0  0  0
  -32.5641  -24.5416   22.4760 C   0  0  0  0  0  0  0  0  0  0  0  0
  -31.8439  -18.3753   24.1902 C   0  0  0  0  0  0  0  0  0  0  0  0
  -30.6724  -16.5983   22.3867 C   0  0  0  0  0  0  0  0  0  0  0  0
  -22.3402   -8.1423   21.4692 C   0  0  0  0  0  0  0  0  0  0  0  0
  -32.3398  -22.2129   23.1368 C   0  0  0  0  0  0  0  0  0  0  0  0
  -20.8615   -6.9791   22.8772 C   0  0  0  0  0  0  0  0  0  0  0  0
  -19.3442   -6.9053   25.2171 C   0  0  0  0  0  0  0  0  0  0  0  0
  -32.6439  -17.5073   23.4471 C   0  0  0  0  0  0  0  0  0  0  0  0
  -21.1027   -5.9932   23.8341 C   0  0  0  0  0  0  0  0  0  0  0  0
  -24.5968  -11.6382   20.7050 C   0  0  0  0  0  0  0  0  0  0  0  0
  -25.2611  -13.7216   20.4745 C   0  0  0  0  0  0  0  0  0  0  0  0
  -22.8974  -13.4892   21.2538 C   0  0  0  0  0  0  0  0  0  0  0  0
  -35.1400  -26.6239   21.6652 C   0  0  0  0  0  0  0  0  0  0  0  0
  -32.3581  -28.2903   21.7461 C   0  0  0  0  0  0  0  0  0  0  0  0
  -28.9974  -28.2909   22.3399 C   0  0  0  0  0  0  0  0  0  0  0  0
  -30.7266  -14.7701   20.6544 C   0  0  0  0  0  0  0  0  0  0  0  0
  -39.2845  -29.2278   20.2160 C   0  0  0  0  0  0  0  0  0  0  0  0
  -33.6335  -25.1562   20.2752 C   0  0  0  0  0  0  0  0  0  0  0  0
  -32.3295  -25.9951   22.7932 C   0  0  0  0  0  0  0  0  0  0  0  0
  -38.0025  -29.5524   20.9786 C   0  0  0  0  0  0  0  0  0  0  0  0
  -29.6168  -12.3491   18.2913 C   0  0  0  0  0  0  0  0  0  0  0  0
  -37.7543  -28.5168   22.0707 C   0  0  0  0  0  0  0  0  0  0  0  0
  -28.1766  -12.0581   18.7196 C   0  0  0  0  0  0  0  0  0  0  0  0
  -30.5300  -12.5817   19.4937 C   0  0  0  0  0  0  0  0  0  0  0  0
  -28.6206  -13.3093   20.8700 C   0  0  0  0  0  0  0  0  0  0  0  0
  -37.5711  -27.1169   21.4722 C   0  0  1  0  0  0  0  0  0  0  0  0
  -33.8637  -26.5391   20.8768 C   0  0  1  0  0  0  0  0  0  0  0  0
  -27.6497  -13.1322   19.6912 C   0  0  2  0  0  0  0  0  0  0  0  0
  -27.0006  -29.8108   22.3591 C   0  0  0  0  0  0  0  0  0  0  0  0
  -33.2959  -29.4850   24.3924 C   0  0  0  0  0  0  0  0  0  0  0  0
  -30.9392  -30.2150   24.8180 C   0  0  0  0  0  0  0  0  0  0  0  0
  -32.1841  -31.1097   22.8502 C   0  0  0  0  0  0  0  0  0  0  0  0
  -27.6304  -26.7124   20.2427 C   0  0  0  0  0  0  0  0  0  0  0  0
  -32.4719  -19.3345   25.1661 C   0  0  0  0  0  0  0  0  0  0  0  0
  -31.3933  -28.7084   22.8294 C   0  0  1  0  0  0  0  0  0  0  0  0
  -27.8325  -28.8397   21.5359 C   0  0  2  0  0  0  0  0  0  0  0  0
  -31.9591  -29.8521   23.7177 C   0  0  0  0  0  0  0  0  0  0  0  0
  -25.8623  -11.5418   20.2888 N   0  0  0  0  0  0  0  0  0  0  0  0
  -26.2388  -12.8251   20.1574 N   0  0  0  0  0  0  0  0  0  0  0  0
  -32.7809  -26.9538   21.7711 N   0  0  0  0  0  0  0  0  0  0  0  0
  -29.9692  -13.6148   20.3673 N   0  0  0  0  0  0  0  0  0  0  0  0
  -25.4711  -15.0530   20.3980 N   0  0  0  0  0  0  0  0  0  0  0  0
  -21.8854  -12.5805   21.5921 N   0  0  0  0  0  0  0  0  0  0  0  0
  -30.0776  -15.6972   21.4692 N   0  0  0  0  0  0  0  0  0  0  0  0
  -36.2439  -26.9762   20.9125 N   0  0  0  0  0  0  0  0  0  0  0  0
  -30.1417  -29.0381   22.1563 N   0  0  0  0  0  0  0  0  0  0  0  0
  -33.0640  -20.4820   24.4935 N   0  0  0  0  0  0  0  0  0  1  0  0
  -26.9474  -27.7297   21.0827 N   0  3  0  0  0  0  0  0  0  0  0  0
  -22.6605  -14.7198   21.3073 O   0  0  0  0  0  0  0  0  0  0  0  0
  -35.1240  -26.3887   22.8678 O   0  0  0  0  0  0  0  0  0  0  0  0
  -32.7175  -29.1173   20.9043 O   0  0  0  0  0  0  0  0  0  0  0  0
  -28.9008  -27.3009   23.0617 O   0  0  0  0  0  0  0  0  0  0  0  0
  -31.8563  -14.9380   20.1880 O   0  0  0  0  0  0  0  0  0  0  0  0
  -21.6144   -7.0176   21.7156 O   0  0  0  0  0  0  0  0  0  0  0  0
  -31.9266  -21.2807   24.0380 O   0  0  0  0  0  0  0  0  0  1  0  0
  -18.6166   -6.8709   26.3411 F   0  0  0  0  0  0  0  0  0  0  0  0
  -33.9762  -17.5195   23.5926 F   0  0  0  0  0  0  0  0  0  0  0  0
  -22.0628   -5.0796   23.6355 F   0  0  0  0  0  0  0  0  0  0  0  0
  1  2  1  0  0  0  0
  1  5  2  0  0  0  0
  2  6  2  0  0  0  0
  3 10  2  0  0  0  0
  3 18  1  0  0  0  0
  4 11  1  0  0  0  0
  4 18  2  0  0  0  0
  5 20  1  0  0  0  0
  6 22  1  0  0  0  0
  7 12  2  0  0  0  0
  7 21  1  0  0  0  0
  8  9  2  0  0  0  0
  8 24  1  0  0  0  0
  9 25  1  0  0  0  0
 10 26  1  0  0  0  0
 11 26  2  0  0  0  0
 12 27  1  0  0  0  0
 13 14  2  0  0  0  0
 13 28  1  0  0  0  0
 14 29  1  0  0  0  0
 15 23  1  0  0  0  0
 15 27  2  0  0  0  0
 16 25  2  0  0  0  0
 16 30  1  0  0  0  0
 17 29  2  0  0  0  0
 17 31  1  0  0  0  0
 18 32  1  0  0  0  0
 19 32  1  0  0  0  0
 19 33  2  0  0  0  0
 19 34  1  0  0  0  0
 20 22  2  0  0  0  0
 20 39  1  0  0  0  0
 21 23  2  0  0  0  0
 21 40  1  0  0  0  0
 22 48  1  0  0  0  0
 23 41  1  0  0  0  0
 24 30  2  0  0  0  0
 24 56  1  0  0  0  0
 25 66  1  0  0  0  0
 26 76  1  0  0  0  0
 27 77  1  0  0  0  0
 28 31  2  0  0  0  0
 28 76  1  0  0  0  0
 29 78  1  0  0  0  0
 30 79  1  0  0  0  0
 31 80  1  0  0  0  0
 32 60  2  0  0  0  0
 33 61  1  0  0  0  0
 33 64  1  0  0  0  0
 34 65  1  0  0  0  0
 34 71  2  0  0  0  0
 35 49  1  0  0  0  0
 35 67  1  0  0  0  0
 35 72  2  0  0  0  0
 36 57  1  0  0  0  0
 36 62  1  0  0  0  0
 36 73  2  0  0  0  0
 37 58  1  0  0  0  0
 37 68  1  0  0  0  0
 37 74  2  0  0  0  0
 38 63  1  0  0  0  0
 38 66  1  0  0  0  0
 38 75  2  0  0  0  0
 39 42  1  0  0  0  0
 40 49  1  0  0  0  0
 41 62  1  0  0  0  0
 42 44  1  0  0  0  0
 43 45  1  0  0  0  0
 43 46  1  0  0  0  0
 44 48  1  0  0  0  0
 45 50  1  0  0  0  0
 46 63  1  0  0  0  0
 47 50  1  0  0  0  0
 47 63  1  0  0  0  0
 48 67  1  0  0  0  0
 49 62  1  0  0  0  0
 50 61  1  0  0  0  0
 51 58  1  0  0  0  0
 52 59  1  0  0  0  0
 53 59  1  0  0  0  0
 54 59  1  0  0  0  0
 55 70  1  0  0  0  0
 56 69  1  0  0  0  0
 57 59  1  0  0  0  0
 57 68  1  0  0  0  0
 58 70  1  0  0  0  0
 60 61  1  0  0  0  0
 69 77  1  0  0  0  0
M  CHG  1  70   1
M  ISO  4  38 100  66 100  69 101  77 101
M  END
> <Batch ID>
0008

> <Smiles>
CNC(C)C(=O)NC(C(=O)N1Cc2cc([101O:1][101NH:1]Cc3ccc([100NH:0][100C:0](=O)N4CCCC(n5nc(-c6ccc(Oc7ccc(F)cc7F)cc6)c(C(N)=O)c5N)C4)cc3F)ccc2CC1C(=O)NC1CCCc2ccccc21)C(C)(C)C

> <Shape>
0.197

> <Color>
0.205

> <Negative vol penalty>
0.000

$$$$

  -OEChem-04042320353D

 82 90  0     1  0  0  0  0  0999 V2000
  -29.6002  -31.0558   28.8417 C   0  0  0  0  0  0  0  0  0  0  0  0
  -30.3168  -29.9889   28.3092 C   0  0  0  0  0  0  0  0  0  0  0  0
  -23.0014   -9.8894   19.9860 C   0  0  0  0  0  0  0  0  0  0  0  0
  -23.7196   -9.9536   22.2919 C   0  0  0  0  0  0  0  0  0  0  0  0
  -28.2829  -31.2778   28.4424 C   0  0  0  0  0  0  0  0  0  0  0  0
  -29.7161  -29.1426   27.3778 C   0  0  0  0  0  0  0  0  0  0  0  0
  -32.4244  -26.3772   22.6319 C   0  0  0  0  0  0  0  0  0  0  0  0
  -22.2345   -8.7561   20.2564 C   0  0  0  0  0  0  0  0  0  0  0  0
  -22.9526   -8.8203   22.5623 C   0  0  0  0  0  0  0  0  0  0  0  0
  -32.9201  -25.0859   22.4569 C   0  0  0  0  0  0  0  0  0  0  0  0
  -23.1996   -5.4789   22.1098 C   0  0  0  0  0  0  0  0  0  0  0  0
  -23.7853   -4.4661   22.8694 C   0  0  0  0  0  0  0  0  0  0  0  0
  -30.8430  -24.4360   21.4165 C   0  0  0  0  0  0  0  0  0  0  0  0
  -30.2332  -19.2016   22.5296 C   0  0  0  0  0  0  0  0  0  0  0  0
  -32.4637  -18.2736   22.5475 C   0  0  0  0  0  0  0  0  0  0  0  0
  -22.0563   -4.7177   24.5380 C   0  0  0  0  0  0  0  0  0  0  0  0
  -23.7440  -10.4881   21.0038 C   0  0  0  0  0  0  0  0  0  0  0  0
  -24.1289  -13.0029   20.8148 C   0  0  0  0  0  0  0  0  0  0  0  0
  -27.6689  -30.4396   27.4984 C   0  0  0  0  0  0  0  0  0  0  0  0
  -31.1280  -26.7052   22.2097 C   0  0  0  0  0  0  0  0  0  0  0  0
  -28.3889  -29.3529   26.9665 C   0  0  0  0  0  0  0  0  0  0  0  0
  -30.3341  -25.7328   21.5850 C   0  0  0  0  0  0  0  0  0  0  0  0
  -30.5871  -16.8955   21.9023 C   0  0  0  0  0  0  0  0  0  0  0  0
  -22.2101   -8.2216   21.5445 C   0  0  0  0  0  0  0  0  0  0  0  0
  -32.1284  -24.1143   21.8517 C   0  0  0  0  0  0  0  0  0  0  0  0
  -22.0423   -6.1111   22.5644 C   0  0  0  0  0  0  0  0  0  0  0  0
  -31.6022  -19.3516   22.7507 C   0  0  0  0  0  0  0  0  0  0  0  0
  -23.2136   -4.0855   24.0835 C   0  0  0  0  0  0  0  0  0  0  0  0
  -29.7256  -17.9735   22.1055 C   0  0  0  0  0  0  0  0  0  0  0  0
  -31.9562  -17.0455   22.1233 C   0  0  0  0  0  0  0  0  0  0  0  0
  -21.4706   -5.7305   23.7784 C   0  0  0  0  0  0  0  0  0  0  0  0
  -24.5368  -11.6585   20.7250 C   0  0  0  0  0  0  0  0  0  0  0  0
  -25.2395  -13.7238   20.4497 C   0  0  0  0  0  0  0  0  0  0  0  0
  -22.8595  -13.5509   21.1945 C   0  0  0  0  0  0  0  0  0  0  0  0
  -28.4826  -27.7063   23.6600 C   0  0  0  0  0  0  0  0  0  0  0  0
  -27.3792  -27.9613   20.6203 C   0  0  0  0  0  0  0  0  0  0  0  0
  -27.6021  -26.9644   17.3640 C   0  0  0  0  0  0  0  0  0  0  0  0
  -30.7178  -14.6884   20.6949 C   0  0  0  0  0  0  0  0  0  0  0  0
  -26.2275  -30.6913   27.1330 C   0  0  0  0  0  0  0  0  0  0  0  0
  -30.6178  -28.1097   22.3817 C   0  0  0  0  0  0  0  0  0  0  0  0
  -28.9431  -26.0394   21.0957 C   0  0  0  0  0  0  0  0  0  0  0  0
  -25.7869  -29.9713   25.8611 C   0  0  0  0  0  0  0  0  0  0  0  0
  -29.6075  -12.2221   18.3793 C   0  0  0  0  0  0  0  0  0  0  0  0
  -26.2502  -28.5181   25.8825 C   0  0  0  0  0  0  0  0  0  0  0  0
  -28.1558  -11.9662   18.7905 C   0  0  0  0  0  0  0  0  0  0  0  0
  -30.5043  -12.4726   19.5904 C   0  0  0  0  0  0  0  0  0  0  0  0
  -28.5846  -13.2682   20.9137 C   0  0  0  0  0  0  0  0  0  0  0  0
  -27.7801  -28.4276   25.9353 C   0  0  1  0  0  0  0  0  0  0  0  0
  -29.0947  -28.1967   22.3784 C   0  0  1  0  0  0  0  0  0  0  0  0
  -27.6306  -13.0748   19.7237 C   0  0  2  0  0  0  0  0  0  0  0  0
  -26.5414  -27.3206   15.1178 C   0  0  0  0  0  0  0  0  0  0  0  0
  -25.0073  -26.2402   21.4699 C   0  0  0  0  0  0  0  0  0  0  0  0
  -24.5152  -25.8453   19.0471 C   0  0  0  0  0  0  0  0  0  0  0  0
  -24.4221  -28.1586   19.9760 C   0  0  0  0  0  0  0  0  0  0  0  0
  -30.1303  -27.9711   16.2008 C   0  0  0  0  0  0  0  0  0  0  0  0
  -33.5562  -22.3830   22.6390 C   0  0  0  0  0  0  0  0  0  1  0  0
  -33.4262  -20.8776   22.7664 C   0  0  0  0  0  0  0  0  0  0  0  0
  -26.6669  -27.0390   19.6606 C   0  0  1  0  0  0  0  0  0  0  0  0
  -27.6454  -27.7554   16.0691 C   0  0  2  0  0  0  0  0  0  0  0  0
  -25.1783  -26.8141   20.0493 C   0  0  0  0  0  0  0  0  0  0  0  0
  -25.8073  -11.5303   20.3333 N   0  0  0  0  0  0  0  0  0  0  0  0
  -26.2073  -12.8033   20.1738 N   0  0  0  0  0  0  0  0  0  0  0  0
  -28.4869  -27.4253   21.2923 N   0  0  0  0  0  0  0  0  0  0  0  0
  -29.9463  -13.5380   20.4261 N   0  0  0  0  0  0  0  0  0  0  0  0
  -25.4727  -15.0490   20.3410 N   0  0  0  0  0  0  0  0  0  0  0  0
  -21.8271  -12.6683   21.5398 N   0  0  0  0  0  0  0  0  0  0  0  0
  -30.0708  -15.6477   21.4731 N   0  0  0  0  0  0  0  0  0  0  0  0
  -28.3469  -28.6827   24.6284 N   0  0  0  0  0  0  0  0  0  0  0  0
  -26.8579  -27.6072   18.3306 N   0  0  0  0  0  0  0  0  0  0  0  0
  -28.9565  -27.5618   15.3875 N   0  3  0  0  0  0  0  0  0  0  0  0
  -22.6423  -14.7863   21.2107 O   0  0  0  0  0  0  0  0  0  0  0  0
  -28.1561  -26.5296   23.7621 O   0  0  0  0  0  0  0  0  0  0  0  0
  -26.9722  -29.1170   20.7629 O   0  0  0  0  0  0  0  0  0  0  0  0
  -28.1684  -25.8824   17.5029 O   0  0  0  0  0  0  0  0  0  0  0  0
  -31.8578  -14.8252   20.2435 O   0  0  0  0  0  0  0  0  0  0  0  0
  -21.4616   -7.1159   21.8088 O   0  0  0  0  0  0  0  0  0  0  0  0
  -32.6095  -22.8530   21.6802 O   0  0  0  0  0  0  0  0  0  1  0  0
  -32.0996  -20.5581   23.1680 O   0  0  0  0  0  0  0  0  0  0  0  0
  -23.7752   -3.1119   24.8120 F   0  0  0  0  0  0  0  0  0  0  0  0
  -28.4079  -17.8401   21.8978 F   0  0  0  0  0  0  0  0  0  0  0  0
  -32.7934  -16.0156   21.9337 F   0  0  0  0  0  0  0  0  0  0  0  0
  -20.3582   -6.3335   24.2197 F   0  0  0  0  0  0  0  0  0  0  0  0
  1  2  1  0  0  0  0
  1  5  2  0  0  0  0
  2  6  2  0  0  0  0
  3  8  2  0  0  0  0
  3 17  1  0  0  0  0
  4  9  1  0  0  0  0
  4 17  2  0  0  0  0
  5 19  1  0  0  0  0
  6 21  1  0  0  0  0
  7 10  2  0  0  0  0
  7 20  1  0  0  0  0
  8 24  1  0  0  0  0
  9 24  2  0  0  0  0
 10 25  1  0  0  0  0
 11 12  2  0  0  0  0
 11 26  1  0  0  0  0
 12 28  1  0  0  0  0
 13 22  1  0  0  0  0
 13 25  2  0  0  0  0
 14 27  1  0  0  0  0
 14 29  2  0  0  0  0
 15 27  2  0  0  0  0
 15 30  1  0  0  0  0
 16 28  2  0  0  0  0
 16 31  1  0  0  0  0
 17 32  1  0  0  0  0
 18 32  1  0  0  0  0
 18 33  2  0  0  0  0
 18 34  1  0  0  0  0
 19 21  2  0  0  0  0
 19 39  1  0  0  0  0
 20 22  2  0  0  0  0
 20 40  1  0  0  0  0
 21 48  1  0  0  0  0
 22 41  1  0  0  0  0
 23 29  1  0  0  0  0
 23 30  2  0  0  0  0
 23 67  1  0  0  0  0
 24 76  1  0  0  0  0
 25 77  1  0  0  0  0
 26 31  2  0  0  0  0
 26 76  1  0  0  0  0
 27 78  1  0  0  0  0
 28 79  1  0  0  0  0
 29 80  1  0  0  0  0
 30 81  1  0  0  0  0
 31 82  1  0  0  0  0
 32 61  2  0  0  0  0
 33 62  1  0  0  0  0
 33 65  1  0  0  0  0
 34 66  1  0  0  0  0
 34 71  2  0  0  0  0
 35 49  1  0  0  0  0
 35 68  1  0  0  0  0
 35 72  2  0  0  0  0
 36 58  1  0  0  0  0
 36 63  1  0  0  0  0
 36 73  2  0  0  0  0
 37 59  1  0  0  0  0
 37 69  1  0  0  0  0
 37 74  2  0  0  0  0
 38 64  1  0  0  0  0
 38 67  1  0  0  0  0
 38 75  2  0  0  0  0
 39 42  1  0  0  0  0
 40 49  1  0  0  0  0
 41 63  1  0  0  0  0
 42 44  1  0  0  0  0
 43 45  1  0  0  0  0
 43 46  1  0  0  0  0
 44 48  1  0  0  0  0
 45 50  1  0  0  0  0
 46 64  1  0  0  0  0
 47 50  1  0  0  0  0
 47 64  1  0  0  0  0
 48 68  1  0  0  0  0
 49 63  1  0  0  0  0
 50 62  1  0  0  0  0
 51 59  1  0  0  0  0
 52 60  1  0  0  0  0
 53 60  1  0  0  0  0
 54 60  1  0  0  0  0
 55 70  1  0  0  0  0
 56 57  1  0  0  0  0
 56 77  1  0  0  0  0
 57 78  1  0  0  0  0
 58 60  1  0  0  0  0
 58 69  1  0  0  0  0
 59 70  1  0  0  0  0
 61 62  1  0  0  0  0
M  CHG  1  70   1
M  ISO  4  38 100  56 101  67 100  77 101
M  END
> <Batch ID>
0008

> <Smiles>
CNC(C)C(=O)NC(C(=O)N1Cc2cc([101O:1][101CH2:1]COc3cc(F)c([100NH:0][100C:0](=O)N4CCCC(n5nc(-c6ccc(Oc7ccc(F)cc7F)cc6)c(C(N)=O)c5N)C4)c(F)c3)ccc2CC1C(=O)NC1CCCc2ccccc21)C(C)(C)C

> <Shape>
0.269

> <Color>
0.202

> <Negative vol penalty>
0.000

$$$$

  -OEChem-04042320352D

  0  0  0     0  0  0  0  0  0999 V2000
M  END
$$$$

  -OEChem-04042320353D

 80 88  0     1  0  0  0  0  0999 V2000
  -29.0909  -32.9142   26.1056 C   0  0  0  0  0  0  0  0  0  0  0  0
  -29.4156  -31.6776   25.5570 C   0  0  0  0  0  0  0  0  0  0  0  0
  -24.2722   -9.5105   21.4505 C   0  0  0  0  0  0  0  0  0  0  0  0
  -24.8839  -10.7101   23.4565 C   0  0  0  0  0  0  0  0  0  0  0  0
  -27.7651  -33.3455   26.1137 C   0  0  0  0  0  0  0  0  0  0  0  0
  -28.4143  -30.8711   25.0171 C   0  0  0  0  0  0  0  0  0  0  0  0
  -28.8969  -27.1435   20.1820 C   0  0  0  0  0  0  0  0  0  0  0  0
  -23.9529   -8.3903   22.2178 C   0  0  0  0  0  0  0  0  0  0  0  0
  -24.5645   -9.5899   24.2238 C   0  0  0  0  0  0  0  0  0  0  0  0
  -29.1053  -25.7692   20.0743 C   0  0  0  0  0  0  0  0  0  0  0  0
  -22.6341   -5.3349   23.6809 C   0  0  0  0  0  0  0  0  0  0  0  0
  -21.4446   -4.6672   23.3899 C   0  0  0  0  0  0  0  0  0  0  0  0
  -26.7257  -25.4307   19.8683 C   0  0  0  0  0  0  0  0  0  0  0  0
  -20.1975   -6.6804   23.8682 C   0  0  0  0  0  0  0  0  0  0  0  0
  -24.7378  -10.6704   22.0698 C   0  0  0  0  0  0  0  0  0  0  0  0
  -24.2087  -12.8803   20.9106 C   0  0  0  0  0  0  0  0  0  0  0  0
  -26.7484  -32.5481   25.5649 C   0  0  0  0  0  0  0  0  0  0  0  0
  -27.5984  -27.6717   20.1446 C   0  0  0  0  0  0  0  0  0  0  0  0
  -27.0734  -31.2916   25.0191 C   0  0  0  0  0  0  0  0  0  0  0  0
  -26.5038  -26.8123   19.9732 C   0  0  0  0  0  0  0  0  0  0  0  0
  -24.0990   -8.4299   23.6044 C   0  0  0  0  0  0  0  0  0  0  0  0
  -28.0194  -24.9123   19.9203 C   0  0  0  0  0  0  0  0  0  0  0  0
  -22.6054   -6.6754   24.0656 C   0  0  0  0  0  0  0  0  0  0  0  0
  -20.2262   -5.3399   23.4835 C   0  0  0  0  0  0  0  0  0  0  0  0
  -21.3871   -7.3481   24.1592 C   0  0  0  0  0  0  0  0  0  0  0  0
  -25.0684  -11.8277   21.2777 C   0  0  0  0  0  0  0  0  0  0  0  0
  -24.9971  -13.7239   20.1667 C   0  0  0  0  0  0  0  0  0  0  0  0
  -22.8216  -13.0780   21.2148 C   0  0  0  0  0  0  0  0  0  0  0  0
  -25.7870  -29.3177   22.1727 C   0  0  0  0  0  0  0  0  0  0  0  0
  -23.7634  -29.4597   19.6415 C   0  0  0  0  0  0  0  0  0  0  0  0
  -22.7106  -28.0994   16.6939 C   0  0  0  0  0  0  0  0  0  0  0  0
  -29.9914  -16.4147   19.8937 C   0  0  0  0  0  0  0  0  0  0  0  0
  -25.3232  -33.0360   25.6392 C   0  0  0  0  0  0  0  0  0  0  0  0
  -27.3925  -29.1589   20.2353 C   0  0  0  0  0  0  0  0  0  0  0  0
  -25.0913  -27.3309   19.9066 C   0  0  0  0  0  0  0  0  0  0  0  0
  -24.3732  -32.2853   24.7096 C   0  0  0  0  0  0  0  0  0  0  0  0
  -29.6292  -13.1096   18.2541 C   0  0  0  0  0  0  0  0  0  0  0  0
  -26.7597  -18.2360   19.3667 C   0  0  0  0  0  0  0  0  0  0  0  0
  -24.5944  -30.7803   24.8223 C   0  0  0  0  0  0  0  0  0  0  0  0
  -28.3801  -12.5434   18.9277 C   0  0  0  0  0  0  0  0  0  0  0  0
  -27.1675  -19.6585   19.7483 C   0  0  0  0  0  0  0  0  0  0  0  0
  -30.3695  -14.0867   19.1622 C   0  0  0  0  0  0  0  0  0  0  0  0
  -27.9488  -17.4465   18.8286 C   0  0  0  0  0  0  0  0  0  0  0  0
  -28.2669  -14.6286   20.3480 C   0  0  0  0  0  0  0  0  0  0  0  0
  -29.5270  -18.8286   20.1433 C   0  0  0  0  0  0  0  0  0  0  0  0
  -26.0189  -30.3990   24.4015 C   0  0  1  0  0  0  0  0  0  0  0  0
  -25.9907  -29.5406   20.7008 C   0  0  1  0  0  0  0  0  0  0  0  0
  -27.4743  -13.6761   19.4407 C   0  0  2  0  0  0  0  0  0  0  0  0
  -28.3572  -19.6315   20.7046 C   0  0  1  0  0  0  0  0  0  0  0  0
  -21.0126  -28.4159   14.8735 C   0  0  0  0  0  0  0  0  0  0  0  0
  -21.5961  -28.3345   21.4708 C   0  0  0  0  0  0  0  0  0  0  0  0
  -20.2537  -27.7889   19.4291 C   0  0  0  0  0  0  0  0  0  0  0  0
  -20.8283  -30.1610   19.9447 C   0  0  0  0  0  0  0  0  0  0  0  0
  -24.8099  -28.4644   14.6399 C   0  0  0  0  0  0  0  0  0  0  0  0
  -29.5578  -21.1676   22.2538 C   0  0  0  0  0  0  0  0  0  0  0  0
  -29.5964  -21.5935   19.8007 C   0  0  0  0  0  0  0  0  0  0  0  0
  -29.5674  -23.1076   19.8711 C   0  0  0  0  0  0  0  0  0  1  0  0
  -22.6376  -28.5978   19.1231 C   0  0  1  0  0  0  0  0  0  0  0  0
  -22.4265  -28.7251   15.3403 C   0  0  2  0  0  0  0  0  0  0  0  0
  -21.3553  -28.7103   19.9951 C   0  0  0  0  0  0  0  0  0  0  0  0
  -26.3079  -11.9858   20.8059 N   0  0  0  0  0  0  0  0  0  0  0  0
  -26.2328  -13.1475   20.1345 N   0  0  0  0  0  0  0  0  0  0  0  0
  -24.9411  -28.7921   20.0063 N   0  0  0  0  0  0  0  0  0  0  0  0
  -29.4770  -15.1254   19.6769 N   0  0  0  0  0  0  0  0  0  0  0  0
  -29.0933  -17.4856   19.7504 N   0  0  0  0  0  0  0  0  0  0  0  0
  -24.7469  -14.8950   19.5435 N   0  0  0  0  0  0  0  0  0  0  0  0
  -22.1639  -12.1140   21.9910 N   0  0  0  0  0  0  0  0  0  0  0  0
  -26.1368  -30.3987   22.9591 N   0  0  0  0  0  0  0  0  0  0  0  0
  -22.4455  -28.9738   17.7266 N   0  0  0  0  0  0  0  0  0  0  0  0
  -23.3819  -28.2083   14.3200 N   0  3  0  0  0  0  0  0  0  0  0  0
  -28.8070  -21.0264   20.9536 N   0  3  1  0  0  0  0  0  0  0  0  0
  -22.1801  -14.0715   20.7966 O   0  0  0  0  0  0  0  0  0  0  0  0
  -25.3439  -28.2449   22.5656 O   0  0  0  0  0  0  0  0  0  0  0  0
  -23.6062  -30.6811   19.7131 O   0  0  0  0  0  0  0  0  0  0  0  0
  -23.1227  -26.9486   16.8225 O   0  0  0  0  0  0  0  0  0  0  0  0
  -31.1765  -16.5981   20.1978 O   0  0  0  0  0  0  0  0  0  0  0  0
  -23.7873   -7.3371   24.3535 O   0  0  0  0  0  0  0  0  0  0  0  0
  -28.2214  -23.5608   19.8148 O   0  0  0  0  0  0  0  0  0  1  0  0
  -19.0841   -4.6990   23.2025 F   0  0  0  0  0  0  0  0  0  0  0  0
  -21.3532   -8.6363   24.5272 F   0  0  0  0  0  0  0  0  0  0  0  0
  1  2  1  0  0  0  0
  1  5  2  0  0  0  0
  2  6  2  0  0  0  0
  3  8  2  0  0  0  0
  3 15  1  0  0  0  0
  4  9  1  0  0  0  0
  4 15  2  0  0  0  0
  5 17  1  0  0  0  0
  6 19  1  0  0  0  0
  7 10  2  0  0  0  0
  7 18  1  0  0  0  0
  8 21  1  0  0  0  0
  9 21  2  0  0  0  0
 10 22  1  0  0  0  0
 11 12  2  0  0  0  0
 11 23  1  0  0  0  0
 12 24  1  0  0  0  0
 13 20  1  0  0  0  0
 13 22  2  0  0  0  0
 14 24  2  0  0  0  0
 14 25  1  0  0  0  0
 15 26  1  0  0  0  0
 16 26  1  0  0  0  0
 16 27  2  0  0  0  0
 16 28  1  0  0  0  0
 17 19  2  0  0  0  0
 17 33  1  0  0  0  0
 18 20  2  0  0  0  0
 18 34  1  0  0  0  0
 19 46  1  0  0  0  0
 20 35  1  0  0  0  0
 21 77  1  0  0  0  0
 22 78  1  0  0  0  0
 23 25  2  0  0  0  0
 23 77  1  0  0  0  0
 24 79  1  0  0  0  0
 25 80  1  0  0  0  0
 26 61  2  0  0  0  0
 27 62  1  0  0  0  0
 27 66  1  0  0  0  0
 28 67  1  0  0  0  0
 28 72  2  0  0  0  0
 29 47  1  0  0  0  0
 29 68  1  0  0  0  0
 29 73  2  0  0  0  0
 30 58  1  0  0  0  0
 30 63  1  0  0  0  0
 30 74  2  0  0  0  0
 31 59  1  0  0  0  0
 31 69  1  0  0  0  0
 31 75  2  0  0  0  0
 32 64  1  0  0  0  0
 32 65  1  0  0  0  0
 32 76  2  0  0  0  0
 33 36  1  0  0  0  0
 34 47  1  0  0  0  0
 35 63  1  0  0  0  0
 36 39  1  0  0  0  0
 37 40  1  0  0  0  0
 37 42  1  0  0  0  0
 38 41  1  0  0  0  0
 38 43  1  0  0  0  0
 39 46  1  0  0  0  0
 40 48  1  0  0  0  0
 41 49  1  0  0  0  0
 42 64  1  0  0  0  0
 43 65  1  0  0  0  0
 44 48  1  0  0  0  0
 44 64  1  0  0  0  0
 45 49  1  0  0  0  0
 45 65  1  0  0  0  0
 46 68  1  0  0  0  0
 47 63  1  0  0  0  0
 48 62  1  0  0  0  0
 49 71  1  0  0  0  0
 50 59  1  0  0  0  0
 51 60  1  0  0  0  0
 52 60  1  0  0  0  0
 53 60  1  0  0  0  0
 54 70  1  0  0  0  0
 55 71  1  0  0  0  0
 56 57  1  0  0  0  0
 56 71  1  0  0  0  0
 57 78  1  0  0  0  0
 58 60  1  0  0  0  0
 58 69  1  0  0  0  0
 59 70  1  0  0  0  0
 61 62  1  0  0  0  0
M  CHG  2  70   1  71   1
M  ISO  4  32 100  57 101  65 100  78 101
M  END
> <Batch ID>
0008

> <Smiles>
CNC(C)C(=O)NC(C(=O)N1Cc2cc([101O:1][101CH2:1]CN(C)C3CCC[100N:0]([100C:0](=O)N4CCCC(n5nc(-c6ccc(Oc7ccc(F)cc7F)cc6)c(C(N)=O)c5N)C4)C3)ccc2CC1C(=O)NC1CCCc2ccccc21)C(C)(C)C

> <Shape>
0.347

> <Color>
0.116

> <Negative vol penalty>
0.000

$$$$

  -OEChem-04042320353D

 82 90  0     1  0  0  0  0  0999 V2000
  -25.4119  -22.3621   25.6810 C   0  0  0  0  0  0  0  0  0  0  0  0
  -24.9390  -23.5158   25.0639 C   0  0  0  0  0  0  0  0  0  0  0  0
  -29.3001  -17.8003   20.4207 C   0  0  0  0  0  0  0  0  0  0  0  0
  -27.1178  -18.3608   19.5488 C   0  0  0  0  0  0  0  0  0  0  0  0
  -25.3042  -21.1322   25.0333 C   0  0  0  0  0  0  0  0  0  0  0  0
  -24.3590  -23.4403   23.7980 C   0  0  0  0  0  0  0  0  0  0  0  0
  -20.0940  -26.1484   23.4507 C   0  0  0  0  0  0  0  0  0  0  0  0
  -25.6637  -29.9944   22.4169 C   0  0  0  0  0  0  0  0  0  0  0  0
  -25.7587  -29.7481   20.0154 C   0  0  0  0  0  0  0  0  0  0  0  0
  -24.3496  -30.4514   22.3181 C   0  0  0  0  0  0  0  0  0  0  0  0
  -24.4445  -30.2051   19.9166 C   0  0  0  0  0  0  0  0  0  0  0  0
  -28.8898  -16.4791   20.5985 C   0  0  0  0  0  0  0  0  0  0  0  0
  -26.7075  -17.0395   19.7265 C   0  0  0  0  0  0  0  0  0  0  0  0
  -20.2263  -27.5281   23.2999 C   0  0  0  0  0  0  0  0  0  0  0  0
  -28.4526  -13.7274   18.6827 C   0  0  0  0  0  0  0  0  0  0  0  0
  -29.3226  -12.7176   18.2717 C   0  0  0  0  0  0  0  0  0  0  0  0
  -19.8371  -27.3002   20.9301 C   0  0  0  0  0  0  0  0  0  0  0  0
  -29.4020  -11.8663   20.5314 C   0  0  0  0  0  0  0  0  0  0  0  0
  -28.4141  -18.7412   19.8959 C   0  0  0  0  0  0  0  0  0  0  0  0
  -29.4375  -20.6638   18.5679 C   0  0  0  0  0  0  0  0  0  0  0  0
  -24.7138  -21.0402   23.7630 C   0  0  0  0  0  0  0  0  0  0  0  0
  -19.8426  -25.3317   22.3389 C   0  0  0  0  0  0  0  0  0  0  0  0
  -24.2444  -22.2081   23.1321 C   0  0  0  0  0  0  0  0  0  0  0  0
  -19.6995  -25.9108   21.0699 C   0  0  0  0  0  0  0  0  0  0  0  0
  -26.3683  -29.6427   21.2655 C   0  0  0  0  0  0  0  0  0  0  0  0
  -23.7400  -30.5568   21.0680 C   0  0  0  0  0  0  0  0  0  0  0  0
  -27.5935  -16.0987   20.2513 C   0  0  0  0  0  0  0  0  0  0  0  0
  -20.1008  -28.1039   22.0390 C   0  0  0  0  0  0  0  0  0  0  0  0
  -28.0573  -13.8068   20.0181 C   0  0  0  0  0  0  0  0  0  0  0  0
  -29.7973  -11.7871   19.1960 C   0  0  0  0  0  0  0  0  0  0  0  0
  -28.5320  -12.8762   20.9424 C   0  0  0  0  0  0  0  0  0  0  0  0
  -28.8371  -20.1063   19.7127 C   0  0  0  0  0  0  0  0  0  0  0  0
  -29.6440  -21.9815   18.8957 C   0  0  0  0  0  0  0  0  0  0  0  0
  -29.7780  -20.0458   17.3197 C   0  0  0  0  0  0  0  0  0  0  0  0
  -21.3918  -22.9548   20.9056 C   0  0  0  0  0  0  0  0  0  0  0  0
  -18.6786  -22.7723   19.1370 C   0  0  0  0  0  0  0  0  0  0  0  0
  -15.8920  -24.3347   17.9368 C   0  0  0  0  0  0  0  0  0  0  0  0
  -27.8321  -26.7039   20.9844 C   0  0  0  0  0  0  0  0  0  0  0  0
  -24.6622  -19.6954   23.0821 C   0  0  0  0  0  0  0  0  0  0  0  0
  -19.6760  -23.8481   22.5224 C   0  0  0  0  0  0  0  0  0  0  0  0
  -19.4095  -25.0802   19.8474 C   0  0  0  0  0  0  0  0  0  0  0  0
  -23.6955  -19.6470   21.9017 C   0  0  0  0  0  0  0  0  0  0  0  0
  -29.2757  -24.3674   23.3412 C   0  0  0  0  0  0  0  0  0  0  0  0
  -23.8846  -20.8674   21.0064 C   0  0  0  0  0  0  0  0  0  0  0  0
  -29.3385  -23.0894   22.5028 C   0  0  0  0  0  0  0  0  0  0  0  0
  -28.0137  -25.1684   23.0343 C   0  0  0  0  0  0  0  0  0  0  0  0
  -27.8999  -24.2370   20.7554 C   0  0  0  0  0  0  0  0  0  0  0  0
  -23.5865  -22.1633   21.7701 C   0  0  1  0  0  0  0  0  0  0  0  0
  -19.9313  -23.0556   21.2441 C   0  0  1  0  0  0  0  0  0  0  0  0
  -29.1640  -23.3940   21.0031 C   0  0  2  0  0  0  0  0  0  0  0  0
  -13.8823  -23.9393   16.4868 C   0  0  0  0  0  0  0  0  0  0  0  0
  -20.4344  -22.9827   16.6504 C   0  0  0  0  0  0  0  0  0  0  0  0
  -18.3794  -23.5358   15.3314 C   0  0  0  0  0  0  0  0  0  0  0  0
  -18.5692  -21.3261   16.4734 C   0  0  0  0  0  0  0  0  0  0  0  0
  -21.7782  -31.1252   19.6578 C   0  0  0  0  0  0  0  0  0  0  0  0
  -14.0288  -24.8717   20.1727 C   0  0  0  0  0  0  0  0  0  0  0  0
  -27.7735  -29.1544   21.3702 C   0  0  0  0  0  0  0  0  0  0  0  0
  -21.6563  -31.3717   22.1423 C   0  0  0  0  0  0  0  0  0  0  0  0
  -21.0914  -30.1261   22.8042 C   0  0  0  0  0  0  0  0  0  1  0  0
  -18.1919  -23.4081   17.8572 C   0  0  1  0  0  0  0  0  0  0  0  0
  -14.4348  -23.9103   17.9034 C   0  0  2  0  0  0  0  0  0  0  0  0
  -18.9011  -22.8289   16.6007 C   0  0  0  0  0  0  0  0  0  0  0  0
  -28.6731  -20.9969   20.6944 N   0  0  0  0  0  0  0  0  0  0  0  0
  -29.1735  -22.1274   20.1674 N   0  0  0  0  0  0  0  0  0  0  0  0
  -19.2614  -23.6336   20.0774 N   0  0  0  0  0  0  0  0  0  0  0  0
  -27.9172  -25.4408   21.5933 N   0  0  0  0  0  0  0  0  0  0  0  0
  -30.1805  -23.0180   18.2172 N   0  0  0  0  0  0  0  0  0  0  0  0
  -29.4967  -18.6833   17.1501 N   0  0  0  0  0  0  0  0  0  0  0  0
  -22.1580  -22.3617   21.8907 N   0  0  0  0  0  0  0  0  0  0  0  0
  -16.7414  -23.2520   17.8498 N   0  0  0  0  0  0  0  0  0  0  0  0
  -27.8479  -27.7918   21.8486 N   0  0  0  0  0  0  0  0  0  0  0  0
  -22.4192  -31.0141   20.9684 N   0  0  3  0  0  0  0  0  0  0  0  0
  -13.6107  -24.8205   18.7480 N   0  3  0  0  0  0  0  0  0  0  0  0
  -30.3307  -20.6791   16.3886 O   0  0  0  0  0  0  0  0  0  0  0  0
  -21.7934  -23.3822   19.8296 O   0  0  0  0  0  0  0  0  0  0  0  0
  -18.5401  -21.5574   19.2994 O   0  0  0  0  0  0  0  0  0  0  0  0
  -16.2417  -25.5094   18.0270 O   0  0  0  0  0  0  0  0  0  0  0  0
  -27.7533  -26.8517   19.7601 O   0  0  0  0  0  0  0  0  0  0  0  0
  -27.1929  -14.8095   20.4244 O   0  0  0  0  0  0  0  0  0  0  0  0
  -20.2301  -29.4502   21.8889 O   0  0  0  0  0  0  0  0  0  1  0  0
  -30.6315  -10.8165   18.8009 F   0  0  0  0  0  0  0  0  0  0  0  0
  -28.1548  -12.9466   22.2264 F   0  0  0  0  0  0  0  0  0  0  0  0
  1  2  1  0  0  0  0
  1  5  2  0  0  0  0
  2  6  2  0  0  0  0
  3 12  2  0  0  0  0
  3 19  1  0  0  0  0
  4 13  1  0  0  0  0
  4 19  2  0  0  0  0
  5 21  1  0  0  0  0
  6 23  1  0  0  0  0
  7 14  2  0  0  0  0
  7 22  1  0  0  0  0
  8 10  2  0  0  0  0
  8 25  1  0  0  0  0
  9 11  1  0  0  0  0
  9 25  2  0  0  0  0
 10 26  1  0  0  0  0
 11 26  2  0  0  0  0
 12 27  1  0  0  0  0
 13 27  2  0  0  0  0
 14 28  1  0  0  0  0
 15 16  2  0  0  0  0
 15 29  1  0  0  0  0
 16 30  1  0  0  0  0
 17 24  1  0  0  0  0
 17 28  2  0  0  0  0
 18 30  2  0  0  0  0
 18 31  1  0  0  0  0
 19 32  1  0  0  0  0
 20 32  1  0  0  0  0
 20 33  2  0  0  0  0
 20 34  1  0  0  0  0
 21 23  2  0  0  0  0
 21 39  1  0  0  0  0
 22 24  2  0  0  0  0
 22 40  1  0  0  0  0
 23 48  1  0  0  0  0
 24 41  1  0  0  0  0
 25 57  1  0  0  0  0
 26 72  1  0  0  0  0
 27 79  1  0  0  0  0
 28 80  1  0  0  0  0
 29 31  2  0  0  0  0
 29 79  1  0  0  0  0
 30 81  1  0  0  0  0
 31 82  1  0  0  0  0
 32 63  2  0  0  0  0
 33 64  1  0  0  0  0
 33 67  1  0  0  0  0
 34 68  1  0  0  0  0
 34 74  2  0  0  0  0
 35 49  1  0  0  0  0
 35 69  1  0  0  0  0
 35 75  2  0  0  0  0
 36 60  1  0  0  0  0
 36 65  1  0  0  0  0
 36 76  2  0  0  0  0
 37 61  1  0  0  0  0
 37 70  1  0  0  0  0
 37 77  2  0  0  0  0
 38 66  1  0  0  0  0
 38 71  1  0  0  0  0
 38 78  2  0  0  0  0
 39 42  1  0  0  0  0
 40 49  1  0  0  0  0
 41 65  1  0  0  0  0
 42 44  1  0  0  0  0
 43 45  1  0  0  0  0
 43 46  1  0  0  0  0
 44 48  1  0  0  0  0
 45 50  1  0  0  0  0
 46 66  1  0  0  0  0
 47 50  1  0  0  0  0
 47 66  1  0  0  0  0
 48 69  1  0  0  0  0
 49 65  1  0  0  0  0
 50 64  1  0  0  0  0
 51 61  1  0  0  0  0
 52 62  1  0  0  0  0
 53 62  1  0  0  0  0
 54 62  1  0  0  0  0
 55 72  1  0  0  0  0
 56 73  1  0  0  0  0
 57 71  1  0  0  0  0
 58 59  1  0  0  0  0
 58 72  1  0  0  0  0
 59 80  1  0  0  0  0
 60 62  1  0  0  0  0
 60 70  1  0  0  0  0
 61 73  1  0  0  0  0
 63 64  1  0  0  0  0
M  CHG  1  73   1
M  ISO  4  38 100  59 101  71 100  80 101
M  END
> <Batch ID>
0008

> <Smiles>
CNC(C)C(=O)NC(C(=O)N1Cc2cc([101O:1][101CH2:1]CN(C)c3ccc(C[100NH:0][100C:0](=O)N4CCCC(n5nc(-c6ccc(Oc7ccc(F)cc7F)cc6)c(C(N)=O)c5N)C4)cc3)ccc2CC1C(=O)NC1CCCc2ccccc21)C(C)(C)C

> <Shape>
0.221

> <Color>
0.063

> <Negative vol penalty>
0.000

$$$$

  -OEChem-04042320353D

 82 90  0     1  0  0  0  0  0999 V2000
  -29.6002  -31.0558   28.8417 C   0  0  0  0  0  0  0  0  0  0  0  0
  -30.3168  -29.9889   28.3092 C   0  0  0  0  0  0  0  0  0  0  0  0
  -23.0014   -9.8894   19.9860 C   0  0  0  0  0  0  0  0  0  0  0  0
  -23.7196   -9.9536   22.2919 C   0  0  0  0  0  0  0  0  0  0  0  0
  -28.2829  -31.2778   28.4424 C   0  0  0  0  0  0  0  0  0  0  0  0
  -29.7161  -29.1426   27.3778 C   0  0  0  0  0  0  0  0  0  0  0  0
  -32.4244  -26.3772   22.6319 C   0  0  0  0  0  0  0  0  0  0  0  0
  -22.2345   -8.7561   20.2564 C   0  0  0  0  0  0  0  0  0  0  0  0
  -22.9526   -8.8203   22.5623 C   0  0  0  0  0  0  0  0  0  0  0  0
  -32.9201  -25.0859   22.4569 C   0  0  0  0  0  0  0  0  0  0  0  0
  -23.1996   -5.4789   22.1098 C   0  0  0  0  0  0  0  0  0  0  0  0
  -23.7853   -4.4661   22.8694 C   0  0  0  0  0  0  0  0  0  0  0  0
  -30.8430  -24.4360   21.4165 C   0  0  0  0  0  0  0  0  0  0  0  0
  -30.2332  -19.2016   22.5296 C   0  0  0  0  0  0  0  0  0  0  0  0
  -32.4637  -18.2736   22.5475 C   0  0  0  0  0  0  0  0  0  0  0  0
  -22.0563   -4.7177   24.5380 C   0  0  0  0  0  0  0  0  0  0  0  0
  -23.7440  -10.4881   21.0038 C   0  0  0  0  0  0  0  0  0  0  0  0
  -24.1289  -13.0029   20.8148 C   0  0  0  0  0  0  0  0  0  0  0  0
  -27.6689  -30.4396   27.4984 C   0  0  0  0  0  0  0  0  0  0  0  0
  -31.1280  -26.7052   22.2097 C   0  0  0  0  0  0  0  0  0  0  0  0
  -28.3889  -29.3529   26.9665 C   0  0  0  0  0  0  0  0  0  0  0  0
  -30.3341  -25.7328   21.5850 C   0  0  0  0  0  0  0  0  0  0  0  0
  -30.5871  -16.8955   21.9023 C   0  0  0  0  0  0  0  0  0  0  0  0
  -22.2101   -8.2216   21.5445 C   0  0  0  0  0  0  0  0  0  0  0  0
  -32.1284  -24.1143   21.8517 C   0  0  0  0  0  0  0  0  0  0  0  0
  -22.0423   -6.1111   22.5644 C   0  0  0  0  0  0  0  0  0  0  0  0
  -31.6022  -19.3516   22.7507 C   0  0  0  0  0  0  0  0  0  0  0  0
  -23.2136   -4.0855   24.0835 C   0  0  0  0  0  0  0  0  0  0  0  0
  -29.7256  -17.9735   22.1055 C   0  0  0  0  0  0  0  0  0  0  0  0
  -31.9562  -17.0455   22.1233 C   0  0  0  0  0  0  0  0  0  0  0  0
  -21.4706   -5.7305   23.7784 C   0  0  0  0  0  0  0  0  0  0  0  0
  -24.5368  -11.6585   20.7250 C   0  0  0  0  0  0  0  0  0  0  0  0
  -25.2395  -13.7238   20.4497 C   0  0  0  0  0  0  0  0  0  0  0  0
  -22.8595  -13.5509   21.1945 C   0  0  0  0  0  0  0  0  0  0  0  0
  -28.4826  -27.7063   23.6600 C   0  0  0  0  0  0  0  0  0  0  0  0
  -27.3792  -27.9613   20.6203 C   0  0  0  0  0  0  0  0  0  0  0  0
  -27.6021  -26.9644   17.3640 C   0  0  0  0  0  0  0  0  0  0  0  0
  -30.7178  -14.6884   20.6949 C   0  0  0  0  0  0  0  0  0  0  0  0
  -26.2275  -30.6913   27.1330 C   0  0  0  0  0  0  0  0  0  0  0  0
  -30.6178  -28.1097   22.3817 C   0  0  0  0  0  0  0  0  0  0  0  0
  -28.9431  -26.0394   21.0957 C   0  0  0  0  0  0  0  0  0  0  0  0
  -25.7869  -29.9713   25.8611 C   0  0  0  0  0  0  0  0  0  0  0  0
  -29.6075  -12.2221   18.3793 C   0  0  0  0  0  0  0  0  0  0  0  0
  -26.2502  -28.5181   25.8825 C   0  0  0  0  0  0  0  0  0  0  0  0
  -28.1558  -11.9662   18.7905 C   0  0  0  0  0  0  0  0  0  0  0  0
  -30.5043  -12.4726   19.5904 C   0  0  0  0  0  0  0  0  0  0  0  0
  -28.5846  -13.2682   20.9137 C   0  0  0  0  0  0  0  0  0  0  0  0
  -27.7801  -28.4276   25.9353 C   0  0  1  0  0  0  0  0  0  0  0  0
  -29.0947  -28.1967   22.3784 C   0  0  1  0  0  0  0  0  0  0  0  0
  -27.6306  -13.0748   19.7237 C   0  0  2  0  0  0  0  0  0  0  0  0
  -26.5414  -27.3206   15.1178 C   0  0  0  0  0  0  0  0  0  0  0  0
  -25.0073  -26.2402   21.4699 C   0  0  0  0  0  0  0  0  0  0  0  0
  -24.5152  -25.8453   19.0471 C   0  0  0  0  0  0  0  0  0  0  0  0
  -24.4221  -28.1586   19.9760 C   0  0  0  0  0  0  0  0  0  0  0  0
  -30.1303  -27.9711   16.2008 C   0  0  0  0  0  0  0  0  0  0  0  0
  -33.5562  -22.3830   22.6390 C   0  0  0  0  0  0  0  0  0  1  0  0
  -33.4262  -20.8776   22.7664 C   0  0  0  0  0  0  0  0  0  0  0  0
  -26.6669  -27.0390   19.6606 C   0  0  1  0  0  0  0  0  0  0  0  0
  -27.6454  -27.7554   16.0691 C   0  0  2  0  0  0  0  0  0  0  0  0
  -25.1783  -26.8141   20.0493 C   0  0  0  0  0  0  0  0  0  0  0  0
  -25.8073  -11.5303   20.3333 N   0  0  0  0  0  0  0  0  0  0  0  0
  -26.2073  -12.8033   20.1738 N   0  0  0  0  0  0  0  0  0  0  0  0
  -28.4869  -27.4253   21.2923 N   0  0  0  0  0  0  0  0  0  0  0  0
  -29.9463  -13.5380   20.4261 N   0  0  0  0  0  0  0  0  0  0  0  0
  -25.4727  -15.0490   20.3410 N   0  0  0  0  0  0  0  0  0  0  0  0
  -21.8271  -12.6683   21.5398 N   0  0  0  0  0  0  0  0  0  0  0  0
  -30.0708  -15.6477   21.4731 N   0  0  0  0  0  0  0  0  0  0  0  0
  -28.3469  -28.6827   24.6284 N   0  0  0  0  0  0  0  0  0  0  0  0
  -26.8579  -27.6072   18.3306 N   0  0  0  0  0  0  0  0  0  0  0  0
  -28.9565  -27.5618   15.3875 N   0  3  0  0  0  0  0  0  0  0  0  0
  -22.6423  -14.7863   21.2107 O   0  0  0  0  0  0  0  0  0  0  0  0
  -28.1561  -26.5296   23.7621 O   0  0  0  0  0  0  0  0  0  0  0  0
  -26.9722  -29.1170   20.7629 O   0  0  0  0  0  0  0  0  0  0  0  0
  -28.1684  -25.8824   17.5029 O   0  0  0  0  0  0  0  0  0  0  0  0
  -31.8578  -14.8252   20.2435 O   0  0  0  0  0  0  0  0  0  0  0  0
  -21.4616   -7.1159   21.8088 O   0  0  0  0  0  0  0  0  0  0  0  0
  -32.6095  -22.8530   21.6802 O   0  0  0  0  0  0  0  0  0  1  0  0
  -32.0996  -20.5581   23.1680 O   0  0  0  0  0  0  0  0  0  0  0  0
  -23.7752   -3.1119   24.8120 F   0  0  0  0  0  0  0  0  0  0  0  0
  -28.4079  -17.8401   21.8978 F   0  0  0  0  0  0  0  0  0  0  0  0
  -32.7934  -16.0156   21.9337 F   0  0  0  0  0  0  0  0  0  0  0  0
  -20.3582   -6.3335   24.2197 F   0  0  0  0  0  0  0  0  0  0  0  0
  1  2  1  0  0  0  0
  1  5  2  0  0  0  0
  2  6  2  0  0  0  0
  3  8  2  0  0  0  0
  3 17  1  0  0  0  0
  4  9  1  0  0  0  0
  4 17  2  0  0  0  0
  5 19  1  0  0  0  0
  6 21  1  0  0  0  0
  7 10  2  0  0  0  0
  7 20  1  0  0  0  0
  8 24  1  0  0  0  0
  9 24  2  0  0  0  0
 10 25  1  0  0  0  0
 11 12  2  0  0  0  0
 11 26  1  0  0  0  0
 12 28  1  0  0  0  0
 13 22  1  0  0  0  0
 13 25  2  0  0  0  0
 14 27  1  0  0  0  0
 14 29  2  0  0  0  0
 15 27  2  0  0  0  0
 15 30  1  0  0  0  0
 16 28  2  0  0  0  0
 16 31  1  0  0  0  0
 17 32  1  0  0  0  0
 18 32  1  0  0  0  0
 18 33  2  0  0  0  0
 18 34  1  0  0  0  0
 19 21  2  0  0  0  0
 19 39  1  0  0  0  0
 20 22  2  0  0  0  0
 20 40  1  0  0  0  0
 21 48  1  0  0  0  0
 22 41  1  0  0  0  0
 23 29  1  0  0  0  0
 23 30  2  0  0  0  0
 23 67  1  0  0  0  0
 24 76  1  0  0  0  0
 25 77  1  0  0  0  0
 26 31  2  0  0  0  0
 26 76  1  0  0  0  0
 27 78  1  0  0  0  0
 28 79  1  0  0  0  0
 29 80  1  0  0  0  0
 30 81  1  0  0  0  0
 31 82  1  0  0  0  0
 32 61  2  0  0  0  0
 33 62  1  0  0  0  0
 33 65  1  0  0  0  0
 34 66  1  0  0  0  0
 34 71  2  0  0  0  0
 35 49  1  0  0  0  0
 35 68  1  0  0  0  0
 35 72  2  0  0  0  0
 36 58  1  0  0  0  0
 36 63  1  0  0  0  0
 36 73  2  0  0  0  0
 37 59  1  0  0  0  0
 37 69  1  0  0  0  0
 37 74  2  0  0  0  0
 38 64  1  0  0  0  0
 38 67  1  0  0  0  0
 38 75  2  0  0  0  0
 39 42  1  0  0  0  0
 40 49  1  0  0  0  0
 41 63  1  0  0  0  0
 42 44  1  0  0  0  0
 43 45  1  0  0  0  0
 43 46  1  0  0  0  0
 44 48  1  0  0  0  0
 45 50  1  0  0  0  0
 46 64  1  0  0  0  0
 47 50  1  0  0  0  0
 47 64  1  0  0  0  0
 48 68  1  0  0  0  0
 49 63  1  0  0  0  0
 50 62  1  0  0  0  0
 51 59  1  0  0  0  0
 52 60  1  0  0  0  0
 53 60  1  0  0  0  0
 54 60  1  0  0  0  0
 55 70  1  0  0  0  0
 56 57  1  0  0  0  0
 56 77  1  0  0  0  0
 57 78  1  0  0  0  0
 58 60  1  0  0  0  0
 58 69  1  0  0  0  0
 59 70  1  0  0  0  0
 61 62  1  0  0  0  0
M  CHG  1  70   1
M  ISO  4  38 100  56 101  67 100  77 101
M  END
> <Batch ID>
0008

> <Smiles>
CNC(C)C(=O)NC(C(=O)N1Cc2cc([101O:1][101CH2:1]COc3cc(F)c([100NH:0][100C:0](=O)N4CCCC(n5nc(-c6ccc(Oc7ccc(F)cc7F)cc6)c(C(N)=O)c5N)C4)c(F)c3)ccc2CC1C(=O)NC1CCCc2ccccc21)C(C)(C)C

> <Shape>
0.269

> <Color>
0.202

> <Negative vol penalty>
0.000

$$$$

  -OEChem-04042320353D

 82 90  0     1  0  0  0  0  0999 V2000
  -21.4663  -27.4451   21.1667 C   0  0  0  0  0  0  0  0  0  0  0  0
  -22.6037  -26.7328   20.8002 C   0  0  0  0  0  0  0  0  0  0  0  0
  -22.9424  -10.0615   19.9560 C   0  0  0  0  0  0  0  0  0  0  0  0
  -23.7789   -9.9239   22.2183 C   0  0  0  0  0  0  0  0  0  0  0  0
  -21.5382  -28.8256   21.3486 C   0  0  0  0  0  0  0  0  0  0  0  0
  -23.8135  -27.4008   20.6143 C   0  0  0  0  0  0  0  0  0  0  0  0
  -27.7121  -24.9963   22.7740 C   0  0  0  0  0  0  0  0  0  0  0  0
  -31.5344  -17.3171   20.6214 C   0  0  0  0  0  0  0  0  0  0  0  0
  -22.1330   -8.9494   20.1875 C   0  0  0  0  0  0  0  0  0  0  0  0
  -22.9695   -8.8118   22.4500 C   0  0  0  0  0  0  0  0  0  0  0  0
  -28.2284  -23.8891   22.1023 C   0  0  0  0  0  0  0  0  0  0  0  0
  -31.7953  -18.6863   20.6743 C   0  0  0  0  0  0  0  0  0  0  0  0
  -19.7182   -8.1995   23.1389 C   0  0  0  0  0  0  0  0  0  0  0  0
  -19.0006   -8.1598   24.3344 C   0  0  0  0  0  0  0  0  0  0  0  0
  -30.0235  -25.2538   21.2453 C   0  0  0  0  0  0  0  0  0  0  0  0
  -20.1359   -6.1173   24.9479 C   0  0  0  0  0  0  0  0  0  0  0  0
  -23.7654  -10.5488   20.9714 C   0  0  0  0  0  0  0  0  0  0  0  0
  -24.2687  -13.0494   20.9383 C   0  0  0  0  0  0  0  0  0  0  0  0
  -22.7516  -29.5095   21.1742 C   0  0  0  0  0  0  0  0  0  0  0  0
  -28.3425  -26.2451   22.6775 C   0  0  0  0  0  0  0  0  0  0  0  0
  -23.9014  -28.7919   20.7927 C   0  0  0  0  0  0  0  0  0  0  0  0
  -29.5146  -26.3747   21.9189 C   0  0  0  0  0  0  0  0  0  0  0  0
  -30.6274  -16.7450   21.5135 C   0  0  0  0  0  0  0  0  0  0  0  0
  -22.1465   -8.3245   21.4345 C   0  0  0  0  0  0  0  0  0  0  0  0
  -29.3827  -24.0184   21.3354 C   0  0  0  0  0  0  0  0  0  0  0  0
  -20.6445   -7.1981   22.8479 C   0  0  0  0  0  0  0  0  0  0  0  0
  -31.1494  -19.4834   21.6193 C   0  0  0  0  0  0  0  0  0  0  0  0
  -19.2095   -7.1187   25.2389 C   0  0  0  0  0  0  0  0  0  0  0  0
  -20.8534   -6.1570   23.7524 C   0  0  0  0  0  0  0  0  0  0  0  0
  -29.9815  -17.5421   22.4585 C   0  0  0  0  0  0  0  0  0  0  0  0
  -30.2425  -18.9113   22.5114 C   0  0  0  0  0  0  0  0  0  0  0  0
  -24.6021  -11.6973   20.7326 C   0  0  0  0  0  0  0  0  0  0  0  0
  -25.3949  -13.7413   20.5649 C   0  0  0  0  0  0  0  0  0  0  0  0
  -23.0501  -13.6282   21.4236 C   0  0  0  0  0  0  0  0  0  0  0  0
  -27.4996  -29.1039   21.5726 C   0  0  0  0  0  0  0  0  0  0  0  0
  -30.3607  -29.9956   22.8142 C   0  0  0  0  0  0  0  0  0  0  0  0
  -33.5037  -29.0921   23.7898 C   0  0  0  0  0  0  0  0  0  0  0  0
  -30.9209  -14.4238   20.5795 C   0  0  0  0  0  0  0  0  0  0  0  0
  -22.7697  -31.0088   21.3360 C   0  0  0  0  0  0  0  0  0  0  0  0
  -27.7879  -27.4236   23.4299 C   0  0  0  0  0  0  0  0  0  0  0  0
  -30.2406  -27.6889   21.7993 C   0  0  0  0  0  0  0  0  0  0  0  0
  -24.1740  -31.5886   21.4847 C   0  0  0  0  0  0  0  0  0  0  0  0
  -29.5696  -12.1877   18.1606 C   0  0  0  0  0  0  0  0  0  0  0  0
  -25.1100  -30.9959   20.4361 C   0  0  0  0  0  0  0  0  0  0  0  0
  -28.1293  -11.9720   18.6311 C   0  0  0  0  0  0  0  0  0  0  0  0
  -30.5382  -12.3067   19.3359 C   0  0  0  0  0  0  0  0  0  0  0  0
  -28.7315  -13.0946   20.8138 C   0  0  0  0  0  0  0  0  0  0  0  0
  -25.2376  -29.4773   20.6058 C   0  0  1  0  0  0  0  0  0  0  0  0
  -28.2225  -28.7640   22.8452 C   0  0  1  0  0  0  0  0  0  0  0  0
  -27.7097  -13.0337   19.6666 C   0  0  2  0  0  0  0  0  0  0  0  0
  -35.6258  -30.0473   24.7287 C   0  0  0  0  0  0  0  0  0  0  0  0
  -31.0428  -31.1626   20.0787 C   0  0  0  0  0  0  0  0  0  0  0  0
  -33.4440  -31.2311   20.7841 C   0  0  0  0  0  0  0  0  0  0  0  0
  -31.7440  -32.5750   22.0197 C   0  0  0  0  0  0  0  0  0  0  0  0
  -33.3306  -27.4000   26.2118 C   0  0  0  0  0  0  0  0  0  0  0  0
  -31.3010  -22.9036   20.4793 C   0  0  0  0  0  0  0  0  0  1  0  0
  -31.7595  -21.4585   20.4435 C   0  0  0  0  0  0  0  0  0  0  0  0
  -31.7770  -30.0621   22.2959 C   0  0  1  0  0  0  0  0  0  0  0  0
  -34.2919  -29.3923   25.0520 C   0  0  2  0  0  0  0  0  0  0  0  0
  -31.9874  -31.2333   21.2951 C   0  0  0  0  0  0  0  0  0  0  0  0
  -25.8428  -11.5375   20.2646 N   0  0  0  0  0  0  0  0  0  0  0  0
  -26.2990  -12.7983   20.1731 N   0  0  0  0  0  0  0  0  0  0  0  0
  -29.6556  -28.8132   22.5484 N   0  0  0  0  0  0  0  0  0  0  0  0
  -30.0787  -13.3340   20.2731 N   0  0  0  0  0  0  0  0  0  0  0  0
  -25.6901  -15.0583   20.5366 N   0  0  0  0  0  0  0  0  0  0  0  0
  -21.9925  -12.7730   21.7618 N   0  0  0  0  0  0  0  0  0  0  0  0
  -30.3643  -15.3538   21.4569 N   0  0  0  0  0  0  0  0  0  0  0  0
  -26.1255  -29.1644   21.7050 N   0  0  0  0  0  0  0  0  0  0  0  0
  -32.6395  -30.1182   23.4712 N   0  0  0  0  0  0  0  0  0  0  0  0
  -34.5565  -28.1359   25.8086 N   0  3  0  0  0  0  0  0  0  0  0  0
  -22.8976  -14.8681   21.5379 O   0  0  0  0  0  0  0  0  0  0  0  0
  -28.1412  -29.2983   20.5467 O   0  0  0  0  0  0  0  0  0  0  0  0
  -29.8994  -30.9545   23.4382 O   0  0  0  0  0  0  0  0  0  0  0  0
  -33.6435  -28.0530   23.1486 O   0  0  0  0  0  0  0  0  0  0  0  0
  -32.0421  -14.5387   20.0777 O   0  0  0  0  0  0  0  0  0  0  0  0
  -21.3567   -7.2394   21.6609 O   0  0  0  0  0  0  0  0  0  0  0  0
  -29.8884  -22.9395   20.6781 O   0  0  0  0  0  0  0  0  0  1  0  0
  -31.4058  -20.8284   21.6687 O   0  0  0  0  0  0  0  0  0  0  0  0
  -18.5215   -7.0815   26.3875 F   0  0  0  0  0  0  0  0  0  0  0  0
  -21.7429   -5.1928   23.4788 F   0  0  0  0  0  0  0  0  0  0  0  0
  -29.1079  -17.0027   23.3208 F   0  0  0  0  0  0  0  0  0  0  0  0
  -29.6184  -19.6725   23.4206 F   0  0  0  0  0  0  0  0  0  0  0  0
  1  2  1  0  0  0  0
  1  5  2  0  0  0  0
  2  6  2  0  0  0  0
  3  9  2  0  0  0  0
  3 17  1  0  0  0  0
  4 10  1  0  0  0  0
  4 17  2  0  0  0  0
  5 19  1  0  0  0  0
  6 21  1  0  0  0  0
  7 11  2  0  0  0  0
  7 20  1  0  0  0  0
  8 12  2  0  0  0  0
  8 23  1  0  0  0  0
  9 24  1  0  0  0  0
 10 24  2  0  0  0  0
 11 25  1  0  0  0  0
 12 27  1  0  0  0  0
 13 14  2  0  0  0  0
 13 26  1  0  0  0  0
 14 28  1  0  0  0  0
 15 22  1  0  0  0  0
 15 25  2  0  0  0  0
 16 28  2  0  0  0  0
 16 29  1  0  0  0  0
 17 32  1  0  0  0  0
 18 32  1  0  0  0  0
 18 33  2  0  0  0  0
 18 34  1  0  0  0  0
 19 21  2  0  0  0  0
 19 39  1  0  0  0  0
 20 22  2  0  0  0  0
 20 40  1  0  0  0  0
 21 48  1  0  0  0  0
 22 41  1  0  0  0  0
 23 30  2  0  0  0  0
 23 67  1  0  0  0  0
 24 76  1  0  0  0  0
 25 77  1  0  0  0  0
 26 29  2  0  0  0  0
 26 76  1  0  0  0  0
 27 31  2  0  0  0  0
 27 78  1  0  0  0  0
 28 79  1  0  0  0  0
 29 80  1  0  0  0  0
 30 31  1  0  0  0  0
 30 81  1  0  0  0  0
 31 82  1  0  0  0  0
 32 61  2  0  0  0  0
 33 62  1  0  0  0  0
 33 65  1  0  0  0  0
 34 66  1  0  0  0  0
 34 71  2  0  0  0  0
 35 49  1  0  0  0  0
 35 68  1  0  0  0  0
 35 72  2  0  0  0  0
 36 58  1  0  0  0  0
 36 63  1  0  0  0  0
 36 73  2  0  0  0  0
 37 59  1  0  0  0  0
 37 69  1  0  0  0  0
 37 74  2  0  0  0  0
 38 64  1  0  0  0  0
 38 67  1  0  0  0  0
 38 75  2  0  0  0  0
 39 42  1  0  0  0  0
 40 49  1  0  0  0  0
 41 63  1  0  0  0  0
 42 44  1  0  0  0  0
 43 45  1  0  0  0  0
 43 46  1  0  0  0  0
 44 48  1  0  0  0  0
 45 50  1  0  0  0  0
 46 64  1  0  0  0  0
 47 50  1  0  0  0  0
 47 64  1  0  0  0  0
 48 68  1  0  0  0  0
 49 63  1  0  0  0  0
 50 62  1  0  0  0  0
 51 59  1  0  0  0  0
 52 60  1  0  0  0  0
 53 60  1  0  0  0  0
 54 60  1  0  0  0  0
 55 70  1  0  0  0  0
 56 57  1  0  0  0  0
 56 77  1  0  0  0  0
 57 78  1  0  0  0  0
 58 60  1  0  0  0  0
 58 69  1  0  0  0  0
 59 70  1  0  0  0  0
 61 62  1  0  0  0  0
M  CHG  1  70   1
M  ISO  4  38 100  56 101  67 100  77 101
M  END
> <Batch ID>
0008

> <Smiles>
CNC(C)C(=O)NC(C(=O)N1Cc2cc([101O:1][101CH2:1]COc3ccc([100NH:0][100C:0](=O)N4CCCC(n5nc(-c6ccc(Oc7ccc(F)cc7F)cc6)c(C(N)=O)c5N)C4)c(F)c3F)ccc2CC1C(=O)NC1CCCc2ccccc21)C(C)(C)C

> <Shape>
0.281

> <Color>
0.198

> <Negative vol penalty>
0.000

$$$$

  -OEChem-04042320353D

 80 88  0     1  0  0  0  0  0999 V2000
  -20.1911  -16.8478   32.7242 C   0  0  0  0  0  0  0  0  0  0  0  0
  -21.4569  -16.7066   32.1647 C   0  0  0  0  0  0  0  0  0  0  0  0
  -23.2883   -9.7996   19.9128 C   0  0  0  0  0  0  0  0  0  0  0  0
  -23.7391   -9.9399   22.2823 C   0  0  0  0  0  0  0  0  0  0  0  0
  -19.0727  -16.9518   31.8981 C   0  0  0  0  0  0  0  0  0  0  0  0
  -21.6050  -16.6681   30.7787 C   0  0  0  0  0  0  0  0  0  0  0  0
  -26.2720  -18.9152   27.5112 C   0  0  0  0  0  0  0  0  0  0  0  0
  -31.8274  -17.3031   24.7393 C   0  0  0  0  0  0  0  0  0  0  0  0
  -22.5620   -8.6270   20.1204 C   0  0  0  0  0  0  0  0  0  0  0  0
  -23.0127   -8.7673   22.4899 C   0  0  0  0  0  0  0  0  0  0  0  0
  -27.4031  -18.3171   26.9575 C   0  0  0  0  0  0  0  0  0  0  0  0
  -19.7657   -7.8562   22.7071 C   0  0  0  0  0  0  0  0  0  0  0  0
  -32.8631  -16.7183   24.0108 C   0  0  0  0  0  0  0  0  0  0  0  0
  -18.8633   -7.8343   23.7705 C   0  0  0  0  0  0  0  0  0  0  0  0
  -26.2567  -18.1192   24.8443 C   0  0  0  0  0  0  0  0  0  0  0  0
  -30.6915  -15.1729   24.8348 C   0  0  0  0  0  0  0  0  0  0  0  0
  -20.0691   -5.9870   24.7558 C   0  0  0  0  0  0  0  0  0  0  0  0
  -23.8769  -10.4560   20.9937 C   0  0  0  0  0  0  0  0  0  0  0  0
  -24.1363  -12.9860   20.7954 C   0  0  0  0  0  0  0  0  0  0  0  0
  -19.2082  -16.9243   30.5012 C   0  0  0  0  0  0  0  0  0  0  0  0
  -25.1190  -19.1101   26.7373 C   0  0  0  0  0  0  0  0  0  0  0  0
  -20.4873  -16.7705   29.9332 C   0  0  0  0  0  0  0  0  0  0  0  0
  -25.1131  -18.7222   25.3899 C   0  0  0  0  0  0  0  0  0  0  0  0
  -30.7416  -16.5305   25.1514 C   0  0  0  0  0  0  0  0  0  0  0  0
  -31.7272  -14.5880   24.1062 C   0  0  0  0  0  0  0  0  0  0  0  0
  -22.4242   -8.1109   21.4090 C   0  0  0  0  0  0  0  0  0  0  0  0
  -27.3946  -17.9164   25.6247 C   0  0  0  0  0  0  0  0  0  0  0  0
  -20.8198   -6.9434   22.6680 C   0  0  0  0  0  0  0  0  0  0  0  0
  -19.0151   -6.8998   24.7949 C   0  0  0  0  0  0  0  0  0  0  0  0
  -32.8130  -15.3607   23.6942 C   0  0  0  0  0  0  0  0  0  0  0  0
  -20.9715   -6.0089   23.6923 C   0  0  0  0  0  0  0  0  0  0  0  0
  -24.6279  -11.6670   20.7799 C   0  0  0  0  0  0  0  0  0  0  0  0
  -25.2377  -13.7660   20.5406 C   0  0  0  0  0  0  0  0  0  0  0  0
  -22.8032  -13.4636   21.0203 C   0  0  0  0  0  0  0  0  0  0  0  0
  -22.1171  -18.0751   26.8845 C   0  0  0  0  0  0  0  0  0  0  0  0
  -21.6959  -20.1383   24.4171 C   0  0  0  0  0  0  0  0  0  0  0  0
  -23.0753  -21.8647   21.8163 C   0  0  0  0  0  0  0  0  0  0  0  0
  -31.1087  -12.9231   21.3601 C   0  0  0  0  0  0  0  0  0  0  0  0
  -17.9651  -16.9926   29.6498 C   0  0  0  0  0  0  0  0  0  0  0  0
  -23.9162  -19.7810   27.3421 C   0  0  0  0  0  0  0  0  0  0  0  0
  -23.9075  -18.9276   24.5108 C   0  0  0  0  0  0  0  0  0  0  0  0
  -18.2470  -17.3196   28.1856 C   0  0  0  0  0  0  0  0  0  0  0  0
  -29.4598  -13.6628   18.2924 C   0  0  0  0  0  0  0  0  0  0  0  0
  -19.3977  -16.4673   27.6601 C   0  0  0  0  0  0  0  0  0  0  0  0
  -27.9901  -13.3542   18.5835 C   0  0  0  0  0  0  0  0  0  0  0  0
  -30.3931  -12.6833   19.0007 C   0  0  0  0  0  0  0  0  0  0  0  0
  -28.7065  -12.2537   20.7455 C   0  0  0  0  0  0  0  0  0  0  0  0
  -20.6913  -16.7495   28.4338 C   0  0  1  0  0  0  0  0  0  0  0  0
  -22.6200  -19.4628   26.6032 C   0  0  1  0  0  0  0  0  0  0  0  0
  -27.7285  -13.2490   20.0980 C   0  0  2  0  0  0  0  0  0  0  0  0
  -22.4732  -23.4384   19.9567 C   0  0  0  0  0  0  0  0  0  0  0  0
  -20.4926  -17.8165   22.8450 C   0  0  0  0  0  0  0  0  0  0  0  0
  -20.7938  -19.1652   20.7573 C   0  0  0  0  0  0  0  0  0  0  0  0
  -19.2945  -19.9945   22.5703 C   0  0  0  0  0  0  0  0  0  0  0  0
  -24.8519  -23.9811   22.8762 C   0  0  0  0  0  0  0  0  0  0  0  0
  -31.6706  -13.1365   23.7680 C   0  0  0  0  0  0  0  0  0  0  0  0
  -29.6278  -17.1597   25.9354 C   0  0  0  0  0  0  0  0  0  1  0  0
  -21.7988  -20.0426   22.9140 C   0  0  1  0  0  0  0  0  0  0  0  0
  -22.9536  -23.3179   21.3946 C   0  0  2  0  0  0  0  0  0  0  0  0
  -20.6171  -19.2489   22.2885 C   0  0  0  0  0  0  0  0  0  0  0  0
  -25.9395  -11.6084   20.5343 N   0  0  0  0  0  0  0  0  0  0  0  0
  -26.2814  -12.9004   20.3932 N   0  0  0  0  0  0  0  0  0  0  0  0
  -22.7539  -19.5821   25.1499 N   0  0  0  0  0  0  0  0  0  0  0  0
  -30.0938  -12.6317   20.4337 N   0  0  0  0  0  0  0  0  0  0  0  0
  -25.4056  -15.1009   20.4303 N   0  0  0  0  0  0  0  0  0  0  0  0
  -21.7907  -12.5266   21.2677 N   0  0  0  0  0  0  0  0  0  0  0  0
  -21.2875  -17.9899   27.9863 N   0  0  0  0  0  0  0  0  0  0  0  0
  -21.9242  -21.4115   22.4254 N   0  0  0  0  0  0  0  0  0  0  0  0
  -30.7390  -12.8574   22.6979 N   0  0  0  0  0  0  0  0  0  0  0  0
  -24.2724  -24.0025   21.5085 N   0  3  0  0  0  0  0  0  0  0  0  0
  -22.5153  -14.6840   20.9861 O   0  0  0  0  0  0  0  0  0  0  0  0
  -22.4556  -17.1505   26.1550 O   0  0  0  0  0  0  0  0  0  0  0  0
  -20.7166  -20.6927   24.9221 O   0  0  0  0  0  0  0  0  0  0  0  0
  -24.0887  -21.1971   21.6213 O   0  0  0  0  0  0  0  0  0  0  0  0
  -32.2577  -13.2249   21.0200 O   0  0  0  0  0  0  0  0  0  0  0  0
  -21.7153   -6.9669   21.6119 O   0  0  0  0  0  0  0  0  0  0  0  0
  -28.4971  -17.3318   25.0819 O   0  0  0  0  0  0  0  0  0  1  0  0
  -18.1493   -6.8799   25.8168 F   0  0  0  0  0  0  0  0  0  0  0  0
  -33.8123  -14.8080   22.9923 F   0  0  0  0  0  0  0  0  0  0  0  0
  -21.9828   -5.1302   23.6608 F   0  0  0  0  0  0  0  0  0  0  0  0
  1  2  1  0  0  0  0
  1  5  2  0  0  0  0
  2  6  2  0  0  0  0
  3  9  2  0  0  0  0
  3 18  1  0  0  0  0
  4 10  1  0  0  0  0
  4 18  2  0  0  0  0
  5 20  1  0  0  0  0
  6 22  1  0  0  0  0
  7 11  2  0  0  0  0
  7 21  1  0  0  0  0
  8 13  2  0  0  0  0
  8 24  1  0  0  0  0
  9 26  1  0  0  0  0
 10 26  2  0  0  0  0
 11 27  1  0  0  0  0
 12 14  2  0  0  0  0
 12 28  1  0  0  0  0
 13 30  1  0  0  0  0
 14 29  1  0  0  0  0
 15 23  1  0  0  0  0
 15 27  2  0  0  0  0
 16 24  2  0  0  0  0
 16 25  1  0  0  0  0
 17 29  2  0  0  0  0
 17 31  1  0  0  0  0
 18 32  1  0  0  0  0
 19 32  1  0  0  0  0
 19 33  2  0  0  0  0
 19 34  1  0  0  0  0
 20 22  2  0  0  0  0
 20 39  1  0  0  0  0
 21 23  2  0  0  0  0
 21 40  1  0  0  0  0
 22 48  1  0  0  0  0
 23 41  1  0  0  0  0
 24 57  1  0  0  0  0
 25 30  2  0  0  0  0
 25 56  1  0  0  0  0
 26 76  1  0  0  0  0
 27 77  1  0  0  0  0
 28 31  2  0  0  0  0
 28 76  1  0  0  0  0
 29 78  1  0  0  0  0
 30 79  1  0  0  0  0
 31 80  1  0  0  0  0
 32 61  2  0  0  0  0
 33 62  1  0  0  0  0
 33 65  1  0  0  0  0
 34 66  1  0  0  0  0
 34 71  2  0  0  0  0
 35 49  1  0  0  0  0
 35 67  1  0  0  0  0
 35 72  2  0  0  0  0
 36 58  1  0  0  0  0
 36 63  1  0  0  0  0
 36 73  2  0  0  0  0
 37 59  1  0  0  0  0
 37 68  1  0  0  0  0
 37 74  2  0  0  0  0
 38 64  1  0  0  0  0
 38 69  1  0  0  0  0
 38 75  2  0  0  0  0
 39 42  1  0  0  0  0
 40 49  1  0  0  0  0
 41 63  1  0  0  0  0
 42 44  1  0  0  0  0
 43 45  1  0  0  0  0
 43 46  1  0  0  0  0
 44 48  1  0  0  0  0
 45 50  1  0  0  0  0
 46 64  1  0  0  0  0
 47 50  1  0  0  0  0
 47 64  1  0  0  0  0
 48 67  1  0  0  0  0
 49 63  1  0  0  0  0
 50 62  1  0  0  0  0
 51 59  1  0  0  0  0
 52 60  1  0  0  0  0
 53 60  1  0  0  0  0
 54 60  1  0  0  0  0
 55 70  1  0  0  0  0
 56 69  1  0  0  0  0
 57 77  1  0  0  0  0
 58 60  1  0  0  0  0
 58 68  1  0  0  0  0
 59 70  1  0  0  0  0
 61 62  1  0  0  0  0
M  CHG  1  70   1
M  ISO  4  38 100  57 101  69 100  77 101
M  END
> <Batch ID>
0008

> <Smiles>
CNC(C)C(=O)NC(C(=O)N1Cc2cc([101O:1][101CH2:1]c3ccc(F)c(C[100NH:0][100C:0](=O)N4CCCC(n5nc(-c6ccc(Oc7ccc(F)cc7F)cc6)c(C(N)=O)c5N)C4)c3)ccc2CC1C(=O)NC1CCCc2ccccc21)C(C)(C)C

> <Shape>
0.138

> <Color>
0.182

> <Negative vol penalty>
0.000

$$$$

  -OEChem-04042320353D

 79 87  0     1  0  0  0  0  0999 V2000
  -28.0740  -37.0382   21.1621 C   0  0  0  0  0  0  0  0  0  0  0  0
  -28.4847  -35.7199   20.9925 C   0  0  0  0  0  0  0  0  0  0  0  0
  -26.8784  -12.7329   21.8104 C   0  0  0  0  0  0  0  0  0  0  0  0
  -26.2289  -14.3628   20.1495 C   0  0  0  0  0  0  0  0  0  0  0  0
  -26.9560  -37.3237   21.9446 C   0  0  0  0  0  0  0  0  0  0  0  0
  -27.7781  -34.6862   21.6063 C   0  0  0  0  0  0  0  0  0  0  0  0
  -26.8401  -29.0507   19.4002 C   0  0  0  0  0  0  0  0  0  0  0  0
  -29.9082  -23.9349   21.6621 C   0  0  0  0  0  0  0  0  0  0  0  0
  -30.3841  -22.6716   22.0129 C   0  0  0  0  0  0  0  0  0  0  0  0
  -25.5589  -12.2877   21.8895 C   0  0  0  0  0  0  0  0  0  0  0  0
  -24.9094  -13.9176   20.2286 C   0  0  0  0  0  0  0  0  0  0  0  0
  -27.4743  -27.8323   19.6391 C   0  0  0  0  0  0  0  0  0  0  0  0
  -22.4277  -10.4795   22.2650 C   0  0  0  0  0  0  0  0  0  0  0  0
  -22.2072   -9.1022   22.2714 C   0  0  0  0  0  0  0  0  0  0  0  0
  -25.7838  -27.2789   21.2686 C   0  0  0  0  0  0  0  0  0  0  0  0
  -29.0868  -23.0450   19.5716 C   0  0  0  0  0  0  0  0  0  0  0  0
  -23.2674   -8.9224   20.1079 C   0  0  0  0  0  0  0  0  0  0  0  0
  -27.2134  -13.7705   20.9404 C   0  0  0  0  0  0  0  0  0  0  0  0
  -29.5840  -13.7562   19.9981 C   0  0  0  0  0  0  0  0  0  0  0  0
  -26.2296  -36.2923   22.5605 C   0  0  0  0  0  0  0  0  0  0  0  0
  -25.6772  -29.3977   20.1027 C   0  0  0  0  0  0  0  0  0  0  0  0
  -26.6501  -34.9583   22.3989 C   0  0  0  0  0  0  0  0  0  0  0  0
  -25.1354  -28.5012   21.0349 C   0  0  0  0  0  0  0  0  0  0  0  0
  -29.2595  -24.1217   20.4414 C   0  0  0  0  0  0  0  0  0  0  0  0
  -30.2114  -21.5950   21.1430 C   0  0  0  0  0  0  0  0  0  0  0  0
  -24.5744  -12.8800   21.0986 C   0  0  0  0  0  0  0  0  0  0  0  0
  -26.9478  -26.9474   20.5756 C   0  0  0  0  0  0  0  0  0  0  0  0
  -23.0679  -11.0783   21.1799 C   0  0  0  0  0  0  0  0  0  0  0  0
  -22.6271   -8.3236   21.1929 C   0  0  0  0  0  0  0  0  0  0  0  0
  -29.5627  -21.7817   19.9223 C   0  0  0  0  0  0  0  0  0  0  0  0
  -23.4878  -10.2997   20.1014 C   0  0  0  0  0  0  0  0  0  0  0  0
  -28.5762  -14.2312   20.8586 C   0  0  0  0  0  0  0  0  0  0  0  0
  -30.6865  -14.5138   20.3092 C   0  0  0  0  0  0  0  0  0  0  0  0
  -29.5284  -12.7225   19.0060 C   0  0  0  0  0  0  0  0  0  0  0  0
  -24.8835  -31.7253   22.1167 C   0  0  0  0  0  0  0  0  0  0  0  0
  -21.9271  -30.4169   21.8509 C   0  0  0  0  0  0  0  0  0  0  0  0
  -20.0264  -27.6731   21.1398 C   0  0  0  0  0  0  0  0  0  0  0  0
  -31.3620  -19.9592   22.6750 C   0  0  0  0  0  0  0  0  0  0  0  0
  -25.0557  -36.6536   23.4356 C   0  0  0  0  0  0  0  0  0  0  0  0
  -24.9901  -30.7042   19.8140 C   0  0  0  0  0  0  0  0  0  0  0  0
  -23.8777  -28.8175   21.8009 C   0  0  0  0  0  0  0  0  0  0  0  0
  -24.1407  -35.4717   23.7459 C   0  0  0  0  0  0  0  0  0  0  0  0
  -32.6806  -16.9063   23.9471 C   0  0  0  0  0  0  0  0  0  0  0  0
  -24.9622  -34.2550   24.1603 C   0  0  0  0  0  0  0  0  0  0  0  0
  -31.8736  -15.8306   23.2166 C   0  0  0  0  0  0  0  0  0  0  0  0
  -31.8243  -18.1250   24.2865 C   0  0  0  0  0  0  0  0  0  0  0  0
  -30.2921  -17.6341   22.4209 C   0  0  0  0  0  0  0  0  0  0  0  0
  -25.8950  -33.8077   23.0283 C   0  0  1  0  0  0  0  0  0  0  0  0
  -24.0989  -31.1763   20.9587 C   0  0  1  0  0  0  0  0  0  0  0  0
  -31.1278  -16.4141   22.0005 C   0  0  2  0  0  0  0  0  0  0  0  0
  -17.6410  -26.8996   21.0464 C   0  0  0  0  0  0  0  0  0  0  0  0
  -21.8660  -30.2455   24.8967 C   0  0  0  0  0  0  0  0  0  0  0  0
  -19.9518  -28.6440   24.6987 C   0  0  0  0  0  0  0  0  0  0  0  0
  -19.7161  -30.9778   23.8497 C   0  0  0  0  0  0  0  0  0  0  0  0
  -20.2124  -27.0737   18.2476 C   0  0  0  0  0  0  0  0  0  0  0  0
  -28.7485  -25.4808   20.0633 C   0  0  0  0  0  0  0  0  0  1  0  0
  -21.1655  -29.3386   22.5831 C   0  0  1  0  0  0  0  0  0  0  0  0
  -18.7996  -27.4973   20.2633 C   0  0  2  0  0  0  0  0  0  0  0  0
  -20.6996  -29.7961   23.9942 C   0  0  0  0  0  0  0  0  0  0  0  0
  -29.0009  -15.2144   21.6567 N   0  0  0  0  0  0  0  0  0  0  0  0
  -30.2877  -15.3633   21.2990 N   0  0  0  0  0  0  0  0  0  0  0  0
  -23.2462  -30.1100   21.4879 N   0  0  0  0  0  0  0  0  0  0  0  0
  -31.1518  -18.6259   23.0858 N   0  0  0  0  0  0  0  0  0  0  0  0
  -31.9485  -14.5296   19.8302 N   0  0  0  0  0  0  0  0  0  0  0  0
  -28.3169  -12.0441   18.8151 N   0  0  0  0  0  0  0  0  0  0  0  0
  -30.6963  -20.3128   21.5018 N   0  0  0  0  0  0  0  0  0  0  0  0
  -25.1546  -33.0770   22.0222 N   0  0  0  0  0  0  0  0  0  0  0  0
  -20.0794  -28.9330   21.6976 N   0  0  0  0  0  0  0  0  0  0  0  0
  -19.1067  -26.5958   19.1170 N   0  3  0  0  0  0  0  0  0  0  0  0
  -30.5280  -12.3985   18.3210 O   0  0  0  0  0  0  0  0  0  0  0  0
  -25.2168  -30.9781   23.0290 O   0  0  0  0  0  0  0  0  0  0  0  0
  -21.3698  -31.4892   21.6037 O   0  0  0  0  0  0  0  0  0  0  0  0
  -20.8531  -26.7807   21.3153 O   0  0  0  0  0  0  0  0  0  0  0  0
  -32.1012  -20.7225   23.3018 O   0  0  0  0  0  0  0  0  0  0  0  0
  -23.2867  -12.4457   21.1754 O   0  0  0  0  0  0  0  0  0  0  0  0
  -27.5651  -25.7578   20.8112 O   0  0  0  0  0  0  0  0  0  1  0  0
  -22.4167   -7.0008   21.1999 F   0  0  0  0  0  0  0  0  0  0  0  0
  -29.3925  -20.7544   19.0779 F   0  0  0  0  0  0  0  0  0  0  0  0
  -24.1044  -10.8691   19.0568 F   0  0  0  0  0  0  0  0  0  0  0  0
  1  2  1  0  0  0  0
  1  5  2  0  0  0  0
  2  6  2  0  0  0  0
  3 10  2  0  0  0  0
  3 18  1  0  0  0  0
  4 11  1  0  0  0  0
  4 18  2  0  0  0  0
  5 20  1  0  0  0  0
  6 22  1  0  0  0  0
  7 12  2  0  0  0  0
  7 21  1  0  0  0  0
  8  9  2  0  0  0  0
  8 24  1  0  0  0  0
  9 25  1  0  0  0  0
 10 26  1  0  0  0  0
 11 26  2  0  0  0  0
 12 27  1  0  0  0  0
 13 14  2  0  0  0  0
 13 28  1  0  0  0  0
 14 29  1  0  0  0  0
 15 23  1  0  0  0  0
 15 27  2  0  0  0  0
 16 24  2  0  0  0  0
 16 30  1  0  0  0  0
 17 29  2  0  0  0  0
 17 31  1  0  0  0  0
 18 32  1  0  0  0  0
 19 32  1  0  0  0  0
 19 33  2  0  0  0  0
 19 34  1  0  0  0  0
 20 22  2  0  0  0  0
 20 39  1  0  0  0  0
 21 23  2  0  0  0  0
 21 40  1  0  0  0  0
 22 48  1  0  0  0  0
 23 41  1  0  0  0  0
 24 56  1  0  0  0  0
 25 30  2  0  0  0  0
 25 66  1  0  0  0  0
 26 75  1  0  0  0  0
 27 76  1  0  0  0  0
 28 31  2  0  0  0  0
 28 75  1  0  0  0  0
 29 77  1  0  0  0  0
 30 78  1  0  0  0  0
 31 79  1  0  0  0  0
 32 60  2  0  0  0  0
 33 61  1  0  0  0  0
 33 64  1  0  0  0  0
 34 65  1  0  0  0  0
 34 70  2  0  0  0  0
 35 49  1  0  0  0  0
 35 67  1  0  0  0  0
 35 71  2  0  0  0  0
 36 57  1  0  0  0  0
 36 62  1  0  0  0  0
 36 72  2  0  0  0  0
 37 58  1  0  0  0  0
 37 68  1  0  0  0  0
 37 73  2  0  0  0  0
 38 63  1  0  0  0  0
 38 66  1  0  0  0  0
 38 74  2  0  0  0  0
 39 42  1  0  0  0  0
 40 49  1  0  0  0  0
 41 62  1  0  0  0  0
 42 44  1  0  0  0  0
 43 45  1  0  0  0  0
 43 46  1  0  0  0  0
 44 48  1  0  0  0  0
 45 50  1  0  0  0  0
 46 63  1  0  0  0  0
 47 50  1  0  0  0  0
 47 63  1  0  0  0  0
 48 67  1  0  0  0  0
 49 62  1  0  0  0  0
 50 61  1  0  0  0  0
 51 58  1  0  0  0  0
 52 59  1  0  0  0  0
 53 59  1  0  0  0  0
 54 59  1  0  0  0  0
 55 69  1  0  0  0  0
 56 76  1  0  0  0  0
 57 59  1  0  0  0  0
 57 68  1  0  0  0  0
 58 69  1  0  0  0  0
 60 61  1  0  0  0  0
M  CHG  1  69   1
M  ISO  4  38 100  56 101  66 100  76 101
M  END
> <Batch ID>
0008

> <Smiles>
CNC(C)C(=O)NC(C(=O)N1Cc2cc([101O:1][101CH2:1]c3ccc([100NH:0][100C:0](=O)N4CCCC(n5nc(-c6ccc(Oc7ccc(F)cc7F)cc6)c(C(N)=O)c5N)C4)c(F)c3)ccc2CC1C(=O)NC1CCCc2ccccc21)C(C)(C)C

> <Shape>
0.344

> <Color>
0.078

> <Negative vol penalty>
0.000

$$$$

  -OEChem-04042320353D

 86 95  0     1  0  0  0  0  0999 V2000
  -24.1500   -8.0733   21.8064 C   0  0  0  0  0  0  0  0  0  0  0  0
  -24.6291   -9.0943   20.9919 C   0  0  0  0  0  0  0  0  0  0  0  0
  -22.5505  -28.0947   23.1944 C   0  0  0  0  0  0  0  0  0  0  0  0
  -23.3100  -29.9930   21.9074 C   0  0  0  0  0  0  0  0  0  0  0  0
  -29.5279  -21.5229   18.1332 C   0  0  0  0  0  0  0  0  0  0  0  0
  -22.8786   -8.1714   22.3702 C   0  0  0  0  0  0  0  0  0  0  0  0
  -23.8366  -10.2136   20.7399 C   0  0  0  0  0  0  0  0  0  0  0  0
  -26.4226  -14.5508   21.1227 C   0  0  0  0  0  0  0  0  0  0  0  0
  -29.6468  -22.7871   18.7105 C   0  0  0  0  0  0  0  0  0  0  0  0
  -21.2356  -28.3625   22.8136 C   0  0  0  0  0  0  0  0  0  0  0  0
  -21.9952  -30.2609   21.5265 C   0  0  0  0  0  0  0  0  0  0  0  0
  -27.2433  -14.8995   20.0510 C   0  0  0  0  0  0  0  0  0  0  0  0
  -18.7770  -30.5095   23.6910 C   0  0  0  0  0  0  0  0  0  0  0  0
  -17.7942  -30.4620   24.6797 C   0  0  0  0  0  0  0  0  0  0  0  0
  -25.5443  -16.4133   19.2504 C   0  0  0  0  0  0  0  0  0  0  0  0
  -28.0320  -22.1686   20.3978 C   0  0  0  0  0  0  0  0  0  0  0  0
  -16.6539  -28.7142   23.4623 C   0  0  0  0  0  0  0  0  0  0  0  0
  -23.5877  -28.9100   22.7414 C   0  0  0  0  0  0  0  0  0  0  0  0
  -28.6609  -20.5815   18.6882 C   0  0  0  0  0  0  0  0  0  0  0  0
  -25.4619  -28.6021   24.4443 C   0  0  0  0  0  0  0  0  0  0  0  0
  -22.0739   -9.2969   22.1328 C   0  0  0  0  0  0  0  0  0  0  0  0
  -25.1501  -15.1236   21.2606 C   0  0  0  0  0  0  0  0  0  0  0  0
  -22.5528  -10.3263   21.3000 C   0  0  0  0  0  0  0  0  0  0  0  0
  -24.7104  -16.0721   20.3262 C   0  0  0  0  0  0  0  0  0  0  0  0
  -28.8989  -23.1099   19.8428 C   0  0  0  0  0  0  0  0  0  0  0  0
  -20.9580  -29.4456   21.9796 C   0  0  0  0  0  0  0  0  0  0  0  0
  -26.8030  -15.8287   19.1130 C   0  0  0  0  0  0  0  0  0  0  0  0
  -18.6982  -29.6593   22.5879 C   0  0  0  0  0  0  0  0  0  0  0  0
  -16.7327  -29.5644   24.5654 C   0  0  0  0  0  0  0  0  0  0  0  0
  -27.9130  -20.9044   19.8205 C   0  0  0  0  0  0  0  0  0  0  0  0
  -17.6367  -28.7617   22.4736 C   0  0  0  0  0  0  0  0  0  0  0  0
  -24.9460  -28.6341   23.1349 C   0  0  0  0  0  0  0  0  0  0  0  0
  -26.7914  -28.2977   24.2823 C   0  0  0  0  0  0  0  0  0  0  0  0
  -28.5368  -19.2520   18.0750 C   0  0  0  0  0  0  0  0  0  0  0  0
  -24.7986  -28.8274   25.6953 C   0  0  0  0  0  0  0  0  0  0  0  0
  -22.1760  -14.0020   21.2850 C   0  0  0  0  0  0  0  0  0  0  0  0
  -21.4403  -17.0695   22.0408 C   0  0  0  0  0  0  0  0  0  0  0  0
  -22.3180  -20.3662   21.9494 C   0  0  0  0  0  0  0  0  0  0  0  0
  -29.8335  -25.4438   20.0037 C   0  0  0  0  0  0  0  0  0  0  0  0
  -20.6879   -9.3365   22.7260 C   0  0  0  0  0  0  0  0  0  0  0  0
  -24.2877  -14.7568   22.4371 C   0  0  0  0  0  0  0  0  0  0  0  0
  -23.3609  -16.7312   20.4402 C   0  0  0  0  0  0  0  0  0  0  0  0
  -20.0591  -10.7275   22.7127 C   0  0  0  0  0  0  0  0  0  0  0  0
  -30.3864  -28.7679   21.1535 C   0  0  0  0  0  0  0  0  0  0  0  0
  -31.8545  -17.5893   18.3313 C   0  0  0  0  0  0  0  0  0  0  0  0
  -20.2455  -11.3845   21.3487 C   0  0  0  0  0  0  0  0  0  0  0  0
  -29.1034  -29.1057   21.9164 C   0  0  0  0  0  0  0  0  0  0  0  0
  -31.1781  -16.8431   17.1860 C   0  0  0  0  0  0  0  0  0  0  0  0
  -31.0199  -18.8530   18.4656 C   0  0  0  0  0  0  0  0  0  0  0  0
  -30.1040  -27.9126   19.9196 C   0  0  0  0  0  0  0  0  0  0  0  0
  -28.0394  -27.0334   20.9364 C   0  0  0  0  0  0  0  0  0  0  0  0
  -21.7328  -11.5677   21.0232 C   0  0  1  0  0  0  0  0  0  0  0  0
  -22.8043  -15.0189   22.1954 C   0  0  1  0  0  0  0  0  0  0  0  0
  -28.2803  -27.8393   22.2233 C   0  0  2  0  0  0  0  0  0  0  0  0
  -29.6922  -17.1493   17.3843 C   0  0  1  0  0  0  0  0  0  0  0  0
  -21.4970  -22.6425   22.6143 C   0  0  0  0  0  0  0  0  0  0  0  0
  -19.4852  -17.0460   19.6984 C   0  0  0  0  0  0  0  0  0  0  0  0
  -19.4201  -19.5459   19.8180 C   0  0  0  0  0  0  0  0  0  0  0  0
  -18.6346  -18.1854   21.7557 C   0  0  0  0  0  0  0  0  0  0  0  0
  -24.6416  -20.8124   23.7273 C   0  0  0  0  0  0  0  0  0  0  0  0
  -29.0117  -16.1135   18.2784 C   0  0  0  0  0  0  0  0  0  1  0  0
  -21.1092  -18.3145   21.2538 C   0  0  1  0  0  0  0  0  0  0  0  0
  -22.3269  -21.4364   23.0260 C   0  0  2  0  0  0  0  0  0  0  0  0
  -19.6870  -18.2593   20.6280 C   0  0  0  0  0  0  0  0  0  0  0  0
  -25.8723  -28.3711   22.2092 N   0  0  0  0  0  0  0  0  0  0  0  0
  -26.9836  -28.1711   22.9379 N   0  0  0  0  0  0  0  0  0  0  0  0
  -29.6857  -18.4765   18.0020 N   0  0  0  0  0  0  0  0  0  0  0  0
  -22.5519  -16.3347   21.6045 N   0  0  0  0  0  0  0  0  0  0  0  0
  -29.3244  -26.7287   20.2877 N   0  0  0  0  0  0  0  0  0  0  0  0
  -27.8031  -28.1287   25.1599 N   0  0  0  0  0  0  0  0  0  0  0  0
  -23.4301  -29.1294   25.6811 N   0  0  0  0  0  0  0  0  0  0  0  0
  -29.0199  -24.3942   20.4291 N   0  0  0  0  0  0  0  0  0  0  0  0
  -22.2717  -12.7017   21.7429 N   0  0  0  0  0  0  0  0  0  0  0  0
  -21.3200  -19.4383   22.1600 N   0  0  0  0  0  0  0  0  0  0  0  0
  -23.7206  -21.8932   23.2907 N   0  3  0  0  0  0  0  0  0  0  0  0
  -27.4221  -18.9185   17.6796 O   0  0  0  0  0  0  0  0  0  0  0  0
  -25.4053  -28.7790   26.7922 O   0  0  0  0  0  0  0  0  0  0  0  0
  -21.6425  -14.3699   20.2450 O   0  0  0  0  0  0  0  0  0  0  0  0
  -20.7429  -16.7643   23.0114 O   0  0  0  0  0  0  0  0  0  0  0  0
  -23.1141  -20.3566   21.0131 O   0  0  0  0  0  0  0  0  0  0  0  0
  -30.9247  -25.2859   19.4501 O   0  0  0  0  0  0  0  0  0  0  0  0
  -19.6751  -29.7071   21.6076 O   0  0  0  0  0  0  0  0  0  0  0  0
  -27.6018  -16.1704   18.0656 O   0  0  0  0  0  0  0  0  0  1  0  0
  -15.7899  -29.5178   25.5157 F   0  0  0  0  0  0  0  0  0  0  0  0
  -27.0764  -20.0076   20.3622 F   0  0  0  0  0  0  0  0  0  0  0  0
  -17.5563  -27.9416   21.4168 F   0  0  0  0  0  0  0  0  0  0  0  0
  1  2  1  0  0  0  0
  1  6  2  0  0  0  0
  2  7  2  0  0  0  0
  3 10  2  0  0  0  0
  3 18  1  0  0  0  0
  4 11  1  0  0  0  0
  4 18  2  0  0  0  0
  5  9  2  0  0  0  0
  5 19  1  0  0  0  0
  6 21  1  0  0  0  0
  7 23  1  0  0  0  0
  8 12  2  0  0  0  0
  8 22  1  0  0  0  0
  9 25  1  0  0  0  0
 10 26  1  0  0  0  0
 11 26  2  0  0  0  0
 12 27  1  0  0  0  0
 13 14  2  0  0  0  0
 13 28  1  0  0  0  0
 14 29  1  0  0  0  0
 15 24  1  0  0  0  0
 15 27  2  0  0  0  0
 16 25  2  0  0  0  0
 16 30  1  0  0  0  0
 17 29  2  0  0  0  0
 17 31  1  0  0  0  0
 18 32  1  0  0  0  0
 19 30  2  0  0  0  0
 19 34  1  0  0  0  0
 20 32  1  0  0  0  0
 20 33  2  0  0  0  0
 20 35  1  0  0  0  0
 21 23  2  0  0  0  0
 21 40  1  0  0  0  0
 22 24  2  0  0  0  0
 22 41  1  0  0  0  0
 23 52  1  0  0  0  0
 24 42  1  0  0  0  0
 25 72  1  0  0  0  0
 26 82  1  0  0  0  0
 27 83  1  0  0  0  0
 28 31  2  0  0  0  0
 28 82  1  0  0  0  0
 29 84  1  0  0  0  0
 30 85  1  0  0  0  0
 31 86  1  0  0  0  0
 32 65  2  0  0  0  0
 33 66  1  0  0  0  0
 33 70  1  0  0  0  0
 34 67  1  0  0  0  0
 34 76  2  0  0  0  0
 35 71  1  0  0  0  0
 35 77  2  0  0  0  0
 36 53  1  0  0  0  0
 36 73  1  0  0  0  0
 36 78  2  0  0  0  0
 37 62  1  0  0  0  0
 37 68  1  0  0  0  0
 37 79  2  0  0  0  0
 38 63  1  0  0  0  0
 38 74  1  0  0  0  0
 38 80  2  0  0  0  0
 39 69  1  0  0  0  0
 39 72  1  0  0  0  0
 39 81  2  0  0  0  0
 40 43  1  0  0  0  0
 41 53  1  0  0  0  0
 42 68  1  0  0  0  0
 43 46  1  0  0  0  0
 44 47  1  0  0  0  0
 44 50  1  0  0  0  0
 45 48  1  0  0  0  0
 45 49  1  0  0  0  0
 46 52  1  0  0  0  0
 47 54  1  0  0  0  0
 48 55  1  0  0  0  0
 49 67  1  0  0  0  0
 50 69  1  0  0  0  0
 51 54  1  0  0  0  0
 51 69  1  0  0  0  0
 52 73  1  0  0  0  0
 53 68  1  0  0  0  0
 54 66  1  0  0  0  0
 55 61  1  0  0  0  0
 55 67  1  0  0  0  0
 56 63  1  0  0  0  0
 57 64  1  0  0  0  0
 58 64  1  0  0  0  0
 59 64  1  0  0  0  0
 60 75  1  0  0  0  0
 61 83  1  0  0  0  0
 62 64  1  0  0  0  0
 62 74  1  0  0  0  0
 63 75  1  0  0  0  0
 65 66  1  0  0  0  0
M  CHG  1  75   1
M  ISO  4  39 100  61 101  72 100  83 101
M  END
> <Batch ID>
0008

> <Smiles>
CNC(C)C(=O)NC(C(=O)N1Cc2cc([101O:1][101CH2:1]C3CCCN3C(=O)c3ccc([100NH:0][100C:0](=O)N4CCCC(n5nc(-c6ccc(Oc7ccc(F)cc7F)cc6)c(C(N)=O)c5N)C4)cc3F)ccc2CC1C(=O)NC1CCCc2ccccc21)C(C)(C)C

> <Shape>
0.239

> <Color>
0.079

> <Negative vol penalty>
0.000

$$$$

  -OEChem-04042320353D

 82 90  0     1  0  0  0  0  0999 V2000
  -29.6002  -31.0558   28.8417 C   0  0  0  0  0  0  0  0  0  0  0  0
  -30.3168  -29.9889   28.3092 C   0  0  0  0  0  0  0  0  0  0  0  0
  -23.0014   -9.8894   19.9860 C   0  0  0  0  0  0  0  0  0  0  0  0
  -23.7196   -9.9536   22.2919 C   0  0  0  0  0  0  0  0  0  0  0  0
  -28.2829  -31.2778   28.4424 C   0  0  0  0  0  0  0  0  0  0  0  0
  -29.7161  -29.1426   27.3778 C   0  0  0  0  0  0  0  0  0  0  0  0
  -32.4244  -26.3772   22.6319 C   0  0  0  0  0  0  0  0  0  0  0  0
  -22.2345   -8.7561   20.2564 C   0  0  0  0  0  0  0  0  0  0  0  0
  -22.9526   -8.8203   22.5623 C   0  0  0  0  0  0  0  0  0  0  0  0
  -32.9201  -25.0859   22.4569 C   0  0  0  0  0  0  0  0  0  0  0  0
  -23.1996   -5.4789   22.1098 C   0  0  0  0  0  0  0  0  0  0  0  0
  -23.7853   -4.4661   22.8694 C   0  0  0  0  0  0  0  0  0  0  0  0
  -30.8430  -24.4360   21.4165 C   0  0  0  0  0  0  0  0  0  0  0  0
  -30.2332  -19.2016   22.5296 C   0  0  0  0  0  0  0  0  0  0  0  0
  -32.4637  -18.2736   22.5475 C   0  0  0  0  0  0  0  0  0  0  0  0
  -22.0563   -4.7177   24.5380 C   0  0  0  0  0  0  0  0  0  0  0  0
  -23.7440  -10.4881   21.0038 C   0  0  0  0  0  0  0  0  0  0  0  0
  -24.1289  -13.0029   20.8148 C   0  0  0  0  0  0  0  0  0  0  0  0
  -27.6689  -30.4396   27.4984 C   0  0  0  0  0  0  0  0  0  0  0  0
  -31.1280  -26.7052   22.2097 C   0  0  0  0  0  0  0  0  0  0  0  0
  -28.3889  -29.3529   26.9665 C   0  0  0  0  0  0  0  0  0  0  0  0
  -30.3341  -25.7328   21.5850 C   0  0  0  0  0  0  0  0  0  0  0  0
  -30.5871  -16.8955   21.9023 C   0  0  0  0  0  0  0  0  0  0  0  0
  -22.2101   -8.2216   21.5445 C   0  0  0  0  0  0  0  0  0  0  0  0
  -32.1284  -24.1143   21.8517 C   0  0  0  0  0  0  0  0  0  0  0  0
  -22.0423   -6.1111   22.5644 C   0  0  0  0  0  0  0  0  0  0  0  0
  -31.6022  -19.3516   22.7507 C   0  0  0  0  0  0  0  0  0  0  0  0
  -23.2136   -4.0855   24.0835 C   0  0  0  0  0  0  0  0  0  0  0  0
  -29.7256  -17.9735   22.1055 C   0  0  0  0  0  0  0  0  0  0  0  0
  -31.9562  -17.0455   22.1233 C   0  0  0  0  0  0  0  0  0  0  0  0
  -21.4706   -5.7305   23.7784 C   0  0  0  0  0  0  0  0  0  0  0  0
  -24.5368  -11.6585   20.7250 C   0  0  0  0  0  0  0  0  0  0  0  0
  -25.2395  -13.7238   20.4497 C   0  0  0  0  0  0  0  0  0  0  0  0
  -22.8595  -13.5509   21.1945 C   0  0  0  0  0  0  0  0  0  0  0  0
  -28.4826  -27.7063   23.6600 C   0  0  0  0  0  0  0  0  0  0  0  0
  -27.3792  -27.9613   20.6203 C   0  0  0  0  0  0  0  0  0  0  0  0
  -27.6021  -26.9644   17.3640 C   0  0  0  0  0  0  0  0  0  0  0  0
  -30.7178  -14.6884   20.6949 C   0  0  0  0  0  0  0  0  0  0  0  0
  -26.2275  -30.6913   27.1330 C   0  0  0  0  0  0  0  0  0  0  0  0
  -30.6178  -28.1097   22.3817 C   0  0  0  0  0  0  0  0  0  0  0  0
  -28.9431  -26.0394   21.0957 C   0  0  0  0  0  0  0  0  0  0  0  0
  -25.7869  -29.9713   25.8611 C   0  0  0  0  0  0  0  0  0  0  0  0
  -29.6075  -12.2221   18.3793 C   0  0  0  0  0  0  0  0  0  0  0  0
  -26.2502  -28.5181   25.8825 C   0  0  0  0  0  0  0  0  0  0  0  0
  -28.1558  -11.9662   18.7905 C   0  0  0  0  0  0  0  0  0  0  0  0
  -30.5043  -12.4726   19.5904 C   0  0  0  0  0  0  0  0  0  0  0  0
  -28.5846  -13.2682   20.9137 C   0  0  0  0  0  0  0  0  0  0  0  0
  -27.7801  -28.4276   25.9353 C   0  0  1  0  0  0  0  0  0  0  0  0
  -29.0947  -28.1967   22.3784 C   0  0  1  0  0  0  0  0  0  0  0  0
  -27.6306  -13.0748   19.7237 C   0  0  2  0  0  0  0  0  0  0  0  0
  -26.5414  -27.3206   15.1178 C   0  0  0  0  0  0  0  0  0  0  0  0
  -25.0073  -26.2402   21.4699 C   0  0  0  0  0  0  0  0  0  0  0  0
  -24.5152  -25.8453   19.0471 C   0  0  0  0  0  0  0  0  0  0  0  0
  -24.4221  -28.1586   19.9760 C   0  0  0  0  0  0  0  0  0  0  0  0
  -30.1303  -27.9711   16.2008 C   0  0  0  0  0  0  0  0  0  0  0  0
  -33.5562  -22.3830   22.6390 C   0  0  0  0  0  0  0  0  0  1  0  0
  -33.4262  -20.8776   22.7664 C   0  0  0  0  0  0  0  0  0  0  0  0
  -26.6669  -27.0390   19.6606 C   0  0  1  0  0  0  0  0  0  0  0  0
  -27.6454  -27.7554   16.0691 C   0  0  2  0  0  0  0  0  0  0  0  0
  -25.1783  -26.8141   20.0493 C   0  0  0  0  0  0  0  0  0  0  0  0
  -25.8073  -11.5303   20.3333 N   0  0  0  0  0  0  0  0  0  0  0  0
  -26.2073  -12.8033   20.1738 N   0  0  0  0  0  0  0  0  0  0  0  0
  -28.4869  -27.4253   21.2923 N   0  0  0  0  0  0  0  0  0  0  0  0
  -29.9463  -13.5380   20.4261 N   0  0  0  0  0  0  0  0  0  0  0  0
  -25.4727  -15.0490   20.3410 N   0  0  0  0  0  0  0  0  0  0  0  0
  -21.8271  -12.6683   21.5398 N   0  0  0  0  0  0  0  0  0  0  0  0
  -30.0708  -15.6477   21.4731 N   0  0  0  0  0  0  0  0  0  0  0  0
  -28.3469  -28.6827   24.6284 N   0  0  0  0  0  0  0  0  0  0  0  0
  -26.8579  -27.6072   18.3306 N   0  0  0  0  0  0  0  0  0  0  0  0
  -28.9565  -27.5618   15.3875 N   0  3  0  0  0  0  0  0  0  0  0  0
  -22.6423  -14.7863   21.2107 O   0  0  0  0  0  0  0  0  0  0  0  0
  -28.1561  -26.5296   23.7621 O   0  0  0  0  0  0  0  0  0  0  0  0
  -26.9722  -29.1170   20.7629 O   0  0  0  0  0  0  0  0  0  0  0  0
  -28.1684  -25.8824   17.5029 O   0  0  0  0  0  0  0  0  0  0  0  0
  -31.8578  -14.8252   20.2435 O   0  0  0  0  0  0  0  0  0  0  0  0
  -21.4616   -7.1159   21.8088 O   0  0  0  0  0  0  0  0  0  0  0  0
  -32.6095  -22.8530   21.6802 O   0  0  0  0  0  0  0  0  0  1  0  0
  -32.0996  -20.5581   23.1680 O   0  0  0  0  0  0  0  0  0  0  0  0
  -23.7752   -3.1119   24.8120 F   0  0  0  0  0  0  0  0  0  0  0  0
  -28.4079  -17.8401   21.8978 F   0  0  0  0  0  0  0  0  0  0  0  0
  -32.7934  -16.0156   21.9337 F   0  0  0  0  0  0  0  0  0  0  0  0
  -20.3582   -6.3335   24.2197 F   0  0  0  0  0  0  0  0  0  0  0  0
  1  2  1  0  0  0  0
  1  5  2  0  0  0  0
  2  6  2  0  0  0  0
  3  8  2  0  0  0  0
  3 17  1  0  0  0  0
  4  9  1  0  0  0  0
  4 17  2  0  0  0  0
  5 19  1  0  0  0  0
  6 21  1  0  0  0  0
  7 10  2  0  0  0  0
  7 20  1  0  0  0  0
  8 24  1  0  0  0  0
  9 24  2  0  0  0  0
 10 25  1  0  0  0  0
 11 12  2  0  0  0  0
 11 26  1  0  0  0  0
 12 28  1  0  0  0  0
 13 22  1  0  0  0  0
 13 25  2  0  0  0  0
 14 27  1  0  0  0  0
 14 29  2  0  0  0  0
 15 27  2  0  0  0  0
 15 30  1  0  0  0  0
 16 28  2  0  0  0  0
 16 31  1  0  0  0  0
 17 32  1  0  0  0  0
 18 32  1  0  0  0  0
 18 33  2  0  0  0  0
 18 34  1  0  0  0  0
 19 21  2  0  0  0  0
 19 39  1  0  0  0  0
 20 22  2  0  0  0  0
 20 40  1  0  0  0  0
 21 48  1  0  0  0  0
 22 41  1  0  0  0  0
 23 29  1  0  0  0  0
 23 30  2  0  0  0  0
 23 67  1  0  0  0  0
 24 76  1  0  0  0  0
 25 77  1  0  0  0  0
 26 31  2  0  0  0  0
 26 76  1  0  0  0  0
 27 78  1  0  0  0  0
 28 79  1  0  0  0  0
 29 80  1  0  0  0  0
 30 81  1  0  0  0  0
 31 82  1  0  0  0  0
 32 61  2  0  0  0  0
 33 62  1  0  0  0  0
 33 65  1  0  0  0  0
 34 66  1  0  0  0  0
 34 71  2  0  0  0  0
 35 49  1  0  0  0  0
 35 68  1  0  0  0  0
 35 72  2  0  0  0  0
 36 58  1  0  0  0  0
 36 63  1  0  0  0  0
 36 73  2  0  0  0  0
 37 59  1  0  0  0  0
 37 69  1  0  0  0  0
 37 74  2  0  0  0  0
 38 64  1  0  0  0  0
 38 67  1  0  0  0  0
 38 75  2  0  0  0  0
 39 42  1  0  0  0  0
 40 49  1  0  0  0  0
 41 63  1  0  0  0  0
 42 44  1  0  0  0  0
 43 45  1  0  0  0  0
 43 46  1  0  0  0  0
 44 48  1  0  0  0  0
 45 50  1  0  0  0  0
 46 64  1  0  0  0  0
 47 50  1  0  0  0  0
 47 64  1  0  0  0  0
 48 68  1  0  0  0  0
 49 63  1  0  0  0  0
 50 62  1  0  0  0  0
 51 59  1  0  0  0  0
 52 60  1  0  0  0  0
 53 60  1  0  0  0  0
 54 60  1  0  0  0  0
 55 70  1  0  0  0  0
 56 57  1  0  0  0  0
 56 77  1  0  0  0  0
 57 78  1  0  0  0  0
 58 60  1  0  0  0  0
 58 69  1  0  0  0  0
 59 70  1  0  0  0  0
 61 62  1  0  0  0  0
M  CHG  1  70   1
M  ISO  4  38 100  56 101  67 100  77 101
M  END
> <Batch ID>
0008

> <Smiles>
CNC(C)C(=O)NC(C(=O)N1Cc2cc([101O:1][101CH2:1]COc3cc(F)c([100NH:0][100C:0](=O)N4CCCC(n5nc(-c6ccc(Oc7ccc(F)cc7F)cc6)c(C(N)=O)c5N)C4)c(F)c3)ccc2CC1C(=O)NC1CCCc2ccccc21)C(C)(C)C

> <Shape>
0.269

> <Color>
0.202

> <Negative vol penalty>
0.000

$$$$

  -OEChem-04042320353D

 87 96  0     1  0  0  0  0  0999 V2000
  -17.4984  -31.0173   24.0905 C   0  0  0  0  0  0  0  0  0  0  0  0
  -18.8741  -31.2241   24.0939 C   0  0  0  0  0  0  0  0  0  0  0  0
  -24.0233  -13.6982   21.2343 C   0  0  0  0  0  0  0  0  0  0  0  0
  -26.3875  -13.7446   20.7387 C   0  0  0  0  0  0  0  0  0  0  0  0
  -16.9774  -29.8090   23.6298 C   0  0  0  0  0  0  0  0  0  0  0  0
  -19.7298  -30.2221   23.6375 C   0  0  0  0  0  0  0  0  0  0  0  0
  -25.9896  -29.3321   20.2701 C   0  0  0  0  0  0  0  0  0  0  0  0
  -23.9358  -12.4143   20.6964 C   0  0  0  0  0  0  0  0  0  0  0  0
  -26.3000  -12.4606   20.2009 C   0  0  0  0  0  0  0  0  0  0  0  0
  -27.2043  -28.6632   20.4138 C   0  0  0  0  0  0  0  0  0  0  0  0
  -24.6578   -9.2550   21.6611 C   0  0  0  0  0  0  0  0  0  0  0  0
  -23.9356   -8.3002   22.3769 C   0  0  0  0  0  0  0  0  0  0  0  0
  -29.6920  -23.0679   19.2498 C   0  0  0  0  0  0  0  0  0  0  0  0
  -26.1871  -26.6465   19.5669 C   0  0  0  0  0  0  0  0  0  0  0  0
  -32.0663  -23.0903   19.6959 C   0  0  0  0  0  0  0  0  0  0  0  0
  -30.6196  -21.5993   20.9290 C   0  0  0  0  0  0  0  0  0  0  0  0
  -22.4392   -8.0250   20.5002 C   0  0  0  0  0  0  0  0  0  0  0  0
  -25.2492  -14.3635   21.2554 C   0  0  0  0  0  0  0  0  0  0  0  0
  -25.6139  -16.0353   23.1473 C   0  0  0  0  0  0  0  0  0  0  0  0
  -17.8265  -28.7953   23.1585 C   0  0  0  0  0  0  0  0  0  0  0  0
  -24.8597  -28.6592   19.7832 C   0  0  0  0  0  0  0  0  0  0  0  0
  -19.2197  -28.9985   23.1713 C   0  0  0  0  0  0  0  0  0  0  0  0
  -30.9657  -23.5724   18.9875 C   0  0  0  0  0  0  0  0  0  0  0  0
  -24.9598  -27.3098   19.4156 C   0  0  0  0  0  0  0  0  0  0  0  0
  -29.5189  -22.0813   20.2206 C   0  0  0  0  0  0  0  0  0  0  0  0
  -25.0741  -11.7954   20.1798 C   0  0  0  0  0  0  0  0  0  0  0  0
  -27.3025  -27.3194   20.0650 C   0  0  0  0  0  0  0  0  0  0  0  0
  -24.2706   -9.5949   20.3648 C   0  0  0  0  0  0  0  0  0  0  0  0
  -22.8264   -7.6852   21.7965 C   0  0  0  0  0  0  0  0  0  0  0  0
  -31.8933  -22.1037   20.6667 C   0  0  0  0  0  0  0  0  0  0  0  0
  -23.1613   -8.9798   19.7844 C   0  0  0  0  0  0  0  0  0  0  0  0
  -25.3402  -15.6901   21.8103 C   0  0  0  0  0  0  0  0  0  0  0  0
  -25.5903  -17.4086   23.1591 C   0  0  0  0  0  0  0  0  0  0  0  0
  -25.8669  -15.1903   24.2776 C   0  0  0  0  0  0  0  0  0  0  0  0
  -21.9862  -27.9644   20.9509 C   0  0  0  0  0  0  0  0  0  0  0  0
  -21.4573  -26.8720   17.9427 C   0  0  0  0  0  0  0  0  0  0  0  0
  -22.7593  -25.6682   15.0268 C   0  0  0  0  0  0  0  0  0  0  0  0
  -27.0276  -21.9377   19.8756 C   0  0  0  0  0  0  0  0  0  0  0  0
  -17.2196  -27.4880   22.7144 C   0  0  0  0  0  0  0  0  0  0  0  0
  -23.5635  -29.4021   19.6089 C   0  0  0  0  0  0  0  0  0  0  0  0
  -23.7816  -26.5473   18.8689 C   0  0  0  0  0  0  0  0  0  0  0  0
  -18.1733  -26.6200   21.8975 C   0  0  0  0  0  0  0  0  0  0  0  0
  -23.6441  -20.8857   20.2256 C   0  0  0  0  0  0  0  0  0  0  0  0
  -19.5417  -26.5534   22.5683 C   0  0  0  0  0  0  0  0  0  0  0  0
  -23.7615  -19.4724   20.8008 C   0  0  0  0  0  0  0  0  0  0  0  0
  -30.1799  -26.4724   15.8074 C   0  0  0  0  0  0  0  0  0  0  0  0
  -30.6876  -24.1263   16.5573 C   0  0  0  0  0  0  0  0  0  0  0  0
  -24.7535  -21.1820   19.2180 C   0  0  0  0  0  0  0  0  0  0  0  0
  -26.2343  -19.5249   20.2813 C   0  0  0  0  0  0  0  0  0  0  0  0
  -30.6599  -27.0058   17.1470 C   0  0  0  0  0  0  0  0  0  0  0  0
  -20.1789  -27.9452   22.6609 C   0  0  1  0  0  0  0  0  0  0  0  0
  -31.1547  -24.6460   17.9304 C   0  0  1  0  0  0  0  0  0  0  0  0
  -22.3462  -28.4828   19.5874 C   0  0  1  0  0  0  0  0  0  0  0  0
  -25.1764  -19.2030   21.3495 C   0  0  2  0  0  0  0  0  0  0  0  0
  -30.8569  -25.1599   15.4546 C   0  0  2  0  0  0  0  0  0  0  0  0
  -22.0760  -24.8270   12.7634 C   0  0  0  0  0  0  0  0  0  0  0  0
  -20.5915  -24.2256   19.1904 C   0  0  0  0  0  0  0  0  0  0  0  0
  -20.8405  -23.1620   16.9375 C   0  0  0  0  0  0  0  0  0  0  0  0
  -19.1756  -24.9887   17.2753 C   0  0  0  0  0  0  0  0  0  0  0  0
  -24.2409  -27.8280   13.6487 C   0  0  0  0  0  0  0  0  0  0  0  0
  -30.8050  -26.5488   19.5761 C   0  0  0  0  0  0  0  0  0  0  0  0
  -29.6778  -27.4373   20.0639 C   0  0  0  0  0  0  0  0  0  1  0  0
  -21.6406  -25.5497   17.2379 C   0  0  1  0  0  0  0  0  0  0  0  0
  -22.4987  -26.0396   13.5782 C   0  0  2  0  0  0  0  0  0  0  0  0
  -20.5839  -24.4951   17.6724 C   0  0  0  0  0  0  0  0  0  0  0  0
  -25.1561  -16.7579   21.0294 N   0  0  0  0  0  0  0  0  0  0  0  0
  -25.3143  -17.7876   21.8783 N   0  0  0  0  0  0  0  0  0  0  0  0
  -22.5344  -27.3159   18.7229 N   0  0  0  0  0  0  0  0  0  0  0  0
  -26.0652  -20.9080   19.8089 N   0  0  0  0  0  0  0  0  0  0  0  0
  -25.7788  -18.3167   24.1400 N   0  0  0  0  0  0  0  0  0  0  0  0
  -25.8540  -13.8014   24.0897 N   0  0  0  0  0  0  0  0  0  0  0  0
  -28.2252  -21.5688   20.4875 N   0  0  0  0  0  0  0  0  0  0  0  0
  -20.7264  -28.3367   21.3798 N   0  0  0  0  0  0  0  0  0  0  0  0
  -21.6377  -25.8448   15.8091 N   0  0  0  0  0  0  0  0  0  0  0  0
  -30.4368  -25.9699   18.2297 N   0  3  1  0  0  0  0  0  0  0  0  0
  -23.7275  -26.6149   12.9618 N   0  3  0  0  0  0  0  0  0  0  0  0
  -26.0814  -15.6527   25.4238 O   0  0  0  0  0  0  0  0  0  0  0  0
  -22.7911  -27.2763   21.5676 O   0  0  0  0  0  0  0  0  0  0  0  0
  -20.4003  -27.4918   17.8004 O   0  0  0  0  0  0  0  0  0  0  0  0
  -23.8479  -25.2586   15.4239 O   0  0  0  0  0  0  0  0  0  0  0  0
  -26.7958  -23.0713   19.4476 O   0  0  0  0  0  0  0  0  0  0  0  0
  -24.9890  -10.5424   19.6551 O   0  0  0  0  0  0  0  0  0  0  0  0
  -28.4868  -26.6639   20.2049 O   0  0  0  0  0  0  0  0  0  1  0  0
  -22.1339   -6.7672   22.4835 F   0  0  0  0  0  0  0  0  0  0  0  0
  -32.9503  -21.6409   21.3468 F   0  0  0  0  0  0  0  0  0  0  0  0
  -22.7852   -9.3013   18.5390 F   0  0  0  0  0  0  0  0  0  0  0  0
  -32.1880  -25.3911   15.2776 F   0  0  0  0  0  0  0  0  0  0  0  0
  1  2  1  0  0  0  0
  1  5  2  0  0  0  0
  2  6  2  0  0  0  0
  3  8  2  0  0  0  0
  3 18  1  0  0  0  0
  4  9  1  0  0  0  0
  4 18  2  0  0  0  0
  5 20  1  0  0  0  0
  6 22  1  0  0  0  0
  7 10  2  0  0  0  0
  7 21  1  0  0  0  0
  8 26  1  0  0  0  0
  9 26  2  0  0  0  0
 10 27  1  0  0  0  0
 11 12  2  0  0  0  0
 11 28  1  0  0  0  0
 12 29  1  0  0  0  0
 13 23  2  0  0  0  0
 13 25  1  0  0  0  0
 14 24  1  0  0  0  0
 14 27  2  0  0  0  0
 15 23  1  0  0  0  0
 15 30  2  0  0  0  0
 16 25  2  0  0  0  0
 16 30  1  0  0  0  0
 17 29  2  0  0  0  0
 17 31  1  0  0  0  0
 18 32  1  0  0  0  0
 19 32  1  0  0  0  0
 19 33  2  0  0  0  0
 19 34  1  0  0  0  0
 20 22  2  0  0  0  0
 20 39  1  0  0  0  0
 21 24  2  0  0  0  0
 21 40  1  0  0  0  0
 22 51  1  0  0  0  0
 23 52  1  0  0  0  0
 24 41  1  0  0  0  0
 25 72  1  0  0  0  0
 26 82  1  0  0  0  0
 27 83  1  0  0  0  0
 28 31  2  0  0  0  0
 28 82  1  0  0  0  0
 29 84  1  0  0  0  0
 30 85  1  0  0  0  0
 31 86  1  0  0  0  0
 32 66  2  0  0  0  0
 33 67  1  0  0  0  0
 33 70  1  0  0  0  0
 34 71  1  0  0  0  0
 34 77  2  0  0  0  0
 35 53  1  0  0  0  0
 35 73  1  0  0  0  0
 35 78  2  0  0  0  0
 36 63  1  0  0  0  0
 36 68  1  0  0  0  0
 36 79  2  0  0  0  0
 37 64  1  0  0  0  0
 37 74  1  0  0  0  0
 37 80  2  0  0  0  0
 38 69  1  0  0  0  0
 38 72  1  0  0  0  0
 38 81  2  0  0  0  0
 39 42  1  0  0  0  0
 40 53  1  0  0  0  0
 41 68  1  0  0  0  0
 42 44  1  0  0  0  0
 43 45  1  0  0  0  0
 43 48  1  0  0  0  0
 44 51  1  0  0  0  0
 45 54  1  0  0  0  0
 46 50  1  0  0  0  0
 46 55  1  0  0  0  0
 47 52  1  0  0  0  0
 47 55  1  0  0  0  0
 48 69  1  0  0  0  0
 49 54  1  0  0  0  0
 49 69  1  0  0  0  0
 50 75  1  0  0  0  0
 51 73  1  0  0  0  0
 52 75  1  0  0  0  0
 53 68  1  0  0  0  0
 54 67  1  0  0  0  0
 55 87  1  0  0  0  0
 56 64  1  0  0  0  0
 57 65  1  0  0  0  0
 58 65  1  0  0  0  0
 59 65  1  0  0  0  0
 60 76  1  0  0  0  0
 61 62  1  0  0  0  0
 61 75  1  0  0  0  0
 62 83  1  0  0  0  0
 63 65  1  0  0  0  0
 63 74  1  0  0  0  0
 64 76  1  0  0  0  0
 66 67  1  0  0  0  0
M  CHG  2  75   1  76   1
M  ISO  4  38 100  62 101  72 100  83 101
M  END
> <Batch ID>
0008

> <Smiles>
CNC(C)C(=O)NC(C(=O)N1Cc2cc([101O:1][101CH2:1]CN3CCC(F)CC3c3cc(F)cc([100NH:0][100C:0](=O)N4CCCC(n5nc(-c6ccc(Oc7ccc(F)cc7F)cc6)c(C(N)=O)c5N)C4)c3)ccc2CC1C(=O)NC1CCCc2ccccc21)C(C)(C)C

> <Shape>
0.262

> <Color>
0.088

> <Negative vol penalty>
0.000

$$$$

  -OEChem-04042320353D

 87 97  0     1  0  0  0  0  0999 V2000
  -30.1964  -13.1135   20.1937 C   0  0  0  0  0  0  0  0  0  0  0  0
  -29.7684  -14.2860   19.5794 C   0  0  0  0  0  0  0  0  0  0  0  0
  -31.3317  -19.6020   18.4004 C   0  0  0  0  0  0  0  0  0  0  0  0
  -26.3322  -31.6284   21.8842 C   0  0  0  0  0  0  0  0  0  0  0  0
  -25.1065  -30.0021   23.1841 C   0  0  0  0  0  0  0  0  0  0  0  0
  -29.2701  -12.1297   20.5375 C   0  0  0  0  0  0  0  0  0  0  0  0
  -28.4139  -14.4750   19.3075 C   0  0  0  0  0  0  0  0  0  0  0  0
  -31.4617  -19.6507   19.7884 C   0  0  0  0  0  0  0  0  0  0  0  0
  -26.8099  -19.1126   20.5586 C   0  0  0  0  0  0  0  0  0  0  0  0
  -30.9289  -20.7381   17.6842 C   0  0  0  0  0  0  0  0  0  0  0  0
  -26.1398  -32.5766   22.8889 C   0  0  0  0  0  0  0  0  0  0  0  0
  -24.9141  -30.9503   24.1889 C   0  0  0  0  0  0  0  0  0  0  0  0
  -27.1231  -20.1521   19.6840 C   0  0  0  0  0  0  0  0  0  0  0  0
  -23.6632  -34.6215   23.9421 C   0  0  0  0  0  0  0  0  0  0  0  0
  -23.2730  -35.9038   23.5560 C   0  0  0  0  0  0  0  0  0  0  0  0
  -24.8988  -20.0350   18.7579 C   0  0  0  0  0  0  0  0  0  0  0  0
  -25.2696  -36.8154   24.5657 C   0  0  0  0  0  0  0  0  0  0  0  0
  -25.8155  -30.3412   22.0317 C   0  0  0  0  0  0  0  0  0  0  0  0
  -25.5880  -29.4441   19.6545 C   0  0  0  0  0  0  0  0  0  0  0  0
  -27.9024  -12.3109   20.2785 C   0  0  0  0  0  0  0  0  0  0  0  0
  -25.5402  -18.5181   20.5320 C   0  0  0  0  0  0  0  0  0  0  0  0
  -27.4686  -13.4922   19.6470 C   0  0  0  0  0  0  0  0  0  0  0  0
  -31.1966  -20.8487   20.4336 C   0  0  0  0  0  0  0  0  0  0  0  0
  -24.5711  -18.9898   19.6349 C   0  0  0  0  0  0  0  0  0  0  0  0
  -30.6683  -21.9425   18.3439 C   0  0  0  0  0  0  0  0  0  0  0  0
  -30.8401  -21.9929   19.7192 C   0  0  0  0  0  0  0  0  0  0  0  0
  -25.4307  -32.2375   24.0413 C   0  0  0  0  0  0  0  0  0  0  0  0
  -26.1685  -20.6116   18.7815 C   0  0  0  0  0  0  0  0  0  0  0  0
  -24.8566  -34.4362   24.6401 C   0  0  0  0  0  0  0  0  0  0  0  0
  -24.0762  -37.0007   23.8677 C   0  0  0  0  0  0  0  0  0  0  0  0
  -25.6598  -35.5331   24.9518 C   0  0  0  0  0  0  0  0  0  0  0  0
  -26.0134  -29.3614   20.9939 C   0  0  0  0  0  0  0  0  0  0  0  0
  -26.0180  -28.2707   19.0846 C   0  0  0  0  0  0  0  0  0  0  0  0
  -24.8685  -30.4882   18.9853 C   0  0  0  0  0  0  0  0  0  0  0  0
  -24.4439  -15.5952   19.9331 C   0  0  0  0  0  0  0  0  0  0  0  0
  -21.6154  -16.8899   20.8524 C   0  0  0  0  0  0  0  0  0  0  0  0
  -19.6998  -19.6874   21.2416 C   0  0  0  0  0  0  0  0  0  0  0  0
  -30.0978  -24.3135   20.2802 C   0  0  0  0  0  0  0  0  0  0  0  0
  -26.9443  -11.1990   20.6255 C   0  0  0  0  0  0  0  0  0  0  0  0
  -25.2094  -17.4156   21.5002 C   0  0  0  0  0  0  0  0  0  0  0  0
  -31.2256  -21.1096   21.9065 C   0  0  0  0  0  0  0  0  0  0  0  0
  -23.1868  -18.3990   19.5802 C   0  0  0  0  0  0  0  0  0  0  0  0
  -25.4824  -11.6379   20.6427 C   0  0  0  0  0  0  0  0  0  0  0  0
  -26.5823  -24.3354   21.5519 C   0  0  0  0  0  0  0  0  0  0  0  0
  -30.0744  -24.8882   16.1807 C   0  0  0  0  0  0  0  0  0  0  0  0
  -25.1590  -12.4663   19.4033 C   0  0  0  0  0  0  0  0  0  0  0  0
  -26.3281  -25.0489   20.2236 C   0  0  0  0  0  0  0  0  0  0  0  0
  -28.8157  -24.8260   17.0299 C   0  0  0  0  0  0  0  0  0  0  0  0
  -31.0388  -23.9636   16.9180 C   0  0  0  0  0  0  0  0  0  0  0  0
  -28.0307  -23.8486   21.6726 C   0  0  0  0  0  0  0  0  0  0  0  0
  -28.5449  -26.1411   20.8910 C   0  0  0  0  0  0  0  0  0  0  0  0
  -26.0047  -13.7447   19.3581 C   0  0  1  0  0  0  0  0  0  0  0  0
  -24.0512  -16.5388   21.0344 C   0  0  1  0  0  0  0  0  0  0  0  0
  -27.3100  -26.2193   19.9764 C   0  0  2  0  0  0  0  0  0  0  0  0
  -30.6167  -22.5264   21.9912 C   0  0  1  0  0  0  0  0  0  0  0  0
  -28.7577  -23.3589   17.4806 C   0  0  1  0  0  0  0  0  0  0  0  0
  -31.4034  -23.4150   22.9500 C   0  0  0  0  0  0  0  0  0  0  0  0
  -17.4173  -20.4251   21.9786 C   0  0  0  0  0  0  0  0  0  0  0  0
  -20.4444  -15.8900   18.2182 C   0  0  0  0  0  0  0  0  0  0  0  0
  -18.5073  -17.4359   18.5729 C   0  0  0  0  0  0  0  0  0  0  0  0
  -18.9492  -15.5989   20.2017 C   0  0  0  0  0  0  0  0  0  0  0  0
  -20.8134  -21.3424   23.4279 C   0  0  0  0  0  0  0  0  0  0  0  0
  -28.0413  -22.4841   16.4529 C   0  0  0  0  0  0  0  0  0  0  0  0
  -20.4875  -17.6046   20.1480 C   0  0  1  0  0  0  0  0  0  0  0  0
  -18.8558  -20.1765   22.4047 C   0  0  2  0  0  0  0  0  0  0  0  0
  -19.6237  -16.6424   19.2847 C   0  0  0  0  0  0  0  0  0  0  0  0
  -26.6636  -28.2253   21.2592 N   0  0  0  0  0  0  0  0  0  0  0  0
  -26.6499  -27.5832   20.0787 N   0  0  0  0  0  0  0  0  0  0  0  0
  -30.6120  -23.0646   20.6098 N   0  0  0  0  0  0  0  0  0  0  0  0
  -30.1748  -22.9870   17.5856 N   0  0  3  0  0  0  0  0  0  0  0  0
  -22.9137  -17.3191   20.5428 N   0  0  0  0  0  0  0  0  0  0  0  0
  -28.9870  -24.7554   21.0186 N   0  0  0  0  0  0  0  0  0  0  0  0
  -25.9134  -27.7702   17.8353 N   0  0  0  0  0  0  0  0  0  0  0  0
  -23.4680  -30.4363   18.9785 N   0  0  0  0  0  0  0  0  0  0  0  0
  -25.4722  -14.7353   20.2689 N   0  0  0  0  0  0  0  0  0  0  0  0
  -19.7413  -18.3104   21.1841 N   0  0  0  0  0  0  0  0  0  0  0  0
  -27.5956  -21.2446   17.0708 N   0  0  0  0  0  0  0  0  0  1  0  0
  -19.4110  -21.4478   22.9492 N   0  3  0  0  0  0  0  0  0  0  0  0
  -25.4508  -31.4303   18.3962 O   0  0  0  0  0  0  0  0  0  0  0  0
  -23.8565  -15.6427   18.8586 O   0  0  0  0  0  0  0  0  0  0  0  0
  -21.3537  -15.9890   21.6534 O   0  0  0  0  0  0  0  0  0  0  0  0
  -20.2628  -20.4506   20.4599 O   0  0  0  0  0  0  0  0  0  0  0  0
  -30.5565  -24.9625   19.3324 O   0  0  0  0  0  0  0  0  0  0  0  0
  -25.2430  -33.1624   25.0220 O   0  0  0  0  0  0  0  0  0  0  0  0
  -26.4748  -21.6358   17.9176 O   0  0  0  0  0  0  0  0  0  1  0  0
  -23.7021  -38.2319   23.4955 F   0  0  0  0  0  0  0  0  0  0  0  0
  -26.8080  -35.3612   25.6211 F   0  0  0  0  0  0  0  0  0  0  0  0
  1  2  1  0  0  0  0
  1  6  2  0  0  0  0
  2  7  2  0  0  0  0
  3  8  1  0  0  0  0
  3 10  2  0  0  0  0
  4 11  2  0  0  0  0
  4 18  1  0  0  0  0
  5 12  1  0  0  0  0
  5 18  2  0  0  0  0
  6 20  1  0  0  0  0
  7 22  1  0  0  0  0
  8 23  2  0  0  0  0
  9 13  2  0  0  0  0
  9 21  1  0  0  0  0
 10 25  1  0  0  0  0
 11 27  1  0  0  0  0
 12 27  2  0  0  0  0
 13 28  1  0  0  0  0
 14 15  2  0  0  0  0
 14 29  1  0  0  0  0
 15 30  1  0  0  0  0
 16 24  1  0  0  0  0
 16 28  2  0  0  0  0
 17 30  2  0  0  0  0
 17 31  1  0  0  0  0
 18 32  1  0  0  0  0
 19 32  1  0  0  0  0
 19 33  2  0  0  0  0
 19 34  1  0  0  0  0
 20 22  2  0  0  0  0
 20 39  1  0  0  0  0
 21 24  2  0  0  0  0
 21 40  1  0  0  0  0
 22 52  1  0  0  0  0
 23 26  1  0  0  0  0
 23 41  1  0  0  0  0
 24 42  1  0  0  0  0
 25 26  2  0  0  0  0
 25 70  1  0  0  0  0
 26 69  1  0  0  0  0
 27 84  1  0  0  0  0
 28 85  1  0  0  0  0
 29 31  2  0  0  0  0
 29 84  1  0  0  0  0
 30 86  1  0  0  0  0
 31 87  1  0  0  0  0
 32 67  2  0  0  0  0
 33 68  1  0  0  0  0
 33 73  1  0  0  0  0
 34 74  1  0  0  0  0
 34 79  2  0  0  0  0
 35 53  1  0  0  0  0
 35 75  1  0  0  0  0
 35 80  2  0  0  0  0
 36 64  1  0  0  0  0
 36 71  1  0  0  0  0
 36 81  2  0  0  0  0
 37 65  1  0  0  0  0
 37 76  1  0  0  0  0
 37 82  2  0  0  0  0
 38 69  1  0  0  0  0
 38 72  1  0  0  0  0
 38 83  2  0  0  0  0
 39 43  1  0  0  0  0
 40 53  1  0  0  0  0
 41 55  1  0  0  0  0
 42 71  1  0  0  0  0
 43 46  1  0  0  0  0
 44 47  1  0  0  0  0
 44 50  1  0  0  0  0
 45 48  1  0  0  0  0
 45 49  1  0  0  0  0
 46 52  1  0  0  0  0
 47 54  1  0  0  0  0
 48 56  1  0  0  0  0
 49 70  1  0  0  0  0
 50 72  1  0  0  0  0
 51 54  1  0  0  0  0
 51 72  1  0  0  0  0
 52 75  1  0  0  0  0
 53 71  1  0  0  0  0
 54 68  1  0  0  0  0
 55 57  1  0  0  0  0
 55 69  1  0  0  0  0
 56 63  1  0  0  0  0
 56 70  1  0  0  0  0
 58 65  1  0  0  0  0
 59 66  1  0  0  0  0
 60 66  1  0  0  0  0
 61 66  1  0  0  0  0
 62 78  1  0  0  0  0
 63 77  1  0  0  0  0
 64 66  1  0  0  0  0
 64 76  1  0  0  0  0
 65 78  1  0  0  0  0
 67 68  1  0  0  0  0
 77 85  1  0  0  0  0
M  CHG  1  78   1
M  ISO  4  38 100  69 100  77 101  85 101
M  END
> <Batch ID>
0008

> <Smiles>
CNC(C)C(=O)NC(C(=O)N1Cc2cc([101O:1][101NH:1]CC3CCCN3c3cccc4c3[100N:0]([100C:0](=O)N3CCCC(n5nc(-c6ccc(Oc7ccc(F)cc7F)cc6)c(C(N)=O)c5N)C3)C(C)C4)ccc2CC1C(=O)NC1CCCc2ccccc21)C(C)(C)C

> <Shape>
0.235

> <Color>
0.065

> <Negative vol penalty>
0.000

$$$$

  -OEChem-04042320353D

 74 82  0     1  0  0  0  0  0999 V2000
  -32.3923  -13.9273   20.5822 C   0  0  0  0  0  0  0  0  0  0  0  0
  -31.6531  -15.1014   20.6843 C   0  0  0  0  0  0  0  0  0  0  0  0
  -25.4988  -29.9392   23.5335 C   0  0  0  0  0  0  0  0  0  0  0  0
  -26.4169  -31.6330   22.0758 C   0  0  0  0  0  0  0  0  0  0  0  0
  -31.7598  -12.7348   20.2331 C   0  0  0  0  0  0  0  0  0  0  0  0
  -30.2810  -15.0838   20.4363 C   0  0  0  0  0  0  0  0  0  0  0  0
  -27.6489  -17.6876   23.8913 C   0  0  0  0  0  0  0  0  0  0  0  0
  -25.5528  -30.8314   24.6043 C   0  0  0  0  0  0  0  0  0  0  0  0
  -26.4710  -32.5253   23.1466 C   0  0  0  0  0  0  0  0  0  0  0  0
  -27.6449  -19.0769   23.7745 C   0  0  0  0  0  0  0  0  0  0  0  0
  -26.5142  -35.3641   25.4175 C   0  0  0  0  0  0  0  0  0  0  0  0
  -26.0654  -36.6668   25.2004 C   0  0  0  0  0  0  0  0  0  0  0  0
  -25.4710  -18.9772   22.7336 C   0  0  0  0  0  0  0  0  0  0  0  0
  -23.8778  -35.8176   24.6260 C   0  0  0  0  0  0  0  0  0  0  0  0
  -25.9309  -30.3400   22.2692 C   0  0  0  0  0  0  0  0  0  0  0  0
  -24.8062  -29.2282   20.2675 C   0  0  0  0  0  0  0  0  0  0  0  0
  -30.3776  -12.7007   19.9901 C   0  0  0  0  0  0  0  0  0  0  0  0
  -26.5669  -16.9306   23.4194 C   0  0  0  0  0  0  0  0  0  0  0  0
  -29.6296  -13.8900   20.0823 C   0  0  0  0  0  0  0  0  0  0  0  0
  -25.4626  -17.5787   22.8479 C   0  0  0  0  0  0  0  0  0  0  0  0
  -26.0389  -32.1244   24.4108 C   0  0  0  0  0  0  0  0  0  0  0  0
  -26.5572  -19.7217   23.1930 C   0  0  0  0  0  0  0  0  0  0  0  0
  -25.6447  -34.2881   25.2388 C   0  0  0  0  0  0  0  0  0  0  0  0
  -24.7472  -36.8936   24.8047 C   0  0  0  0  0  0  0  0  0  0  0  0
  -24.3265  -34.5148   24.8431 C   0  0  0  0  0  0  0  0  0  0  0  0
  -25.8758  -29.4186   21.1628 C   0  0  0  0  0  0  0  0  0  0  0  0
  -25.2471  -28.2512   19.4087 C   0  0  0  0  0  0  0  0  0  0  0  0
  -23.5284  -29.8765   20.2167 C   0  0  0  0  0  0  0  0  0  0  0  0
  -26.1986  -14.6858   21.1993 C   0  0  0  0  0  0  0  0  0  0  0  0
  -23.1931  -14.5313   22.4100 C   0  0  0  0  0  0  0  0  0  0  0  0
  -20.6681  -16.0828   24.1023 C   0  0  0  0  0  0  0  0  0  0  0  0
  -28.5508  -23.4093   19.5968 C   0  0  0  0  0  0  0  0  0  0  0  0
  -29.7464  -11.3972   19.5696 C   0  0  0  0  0  0  0  0  0  0  0  0
  -26.5747  -15.4348   23.5770 C   0  0  0  0  0  0  0  0  0  0  0  0
  -24.2673  -16.8133   22.3440 C   0  0  0  0  0  0  0  0  0  0  0  0
  -28.2245  -11.3909   19.6890 C   0  0  0  0  0  0  0  0  0  0  0  0
  -29.6401  -26.4804   18.0757 C   0  0  0  0  0  0  0  0  0  0  0  0
  -27.6371  -12.6664   19.0934 C   0  0  0  0  0  0  0  0  0  0  0  0
  -28.7213  -27.5424   18.6707 C   0  0  0  0  0  0  0  0  0  0  0  0
  -29.9376  -25.3871   19.0931 C   0  0  0  0  0  0  0  0  0  0  0  0
  -27.7502  -25.7569   20.2042 C   0  0  0  0  0  0  0  0  0  0  0  0
  -27.5670  -21.3823   20.7913 C   0  0  0  0  0  0  0  0  0  0  0  0
  -27.4839  -23.1505   21.9717 C   0  0  0  0  0  0  0  0  0  0  0  0
  -28.1351  -13.9066   19.8452 C   0  0  1  0  0  0  0  0  0  0  0  0
  -25.6461  -14.7257   22.5960 C   0  0  1  0  0  0  0  0  0  0  0  0
  -27.4385  -26.8982   19.2157 C   0  0  1  0  0  0  0  0  0  0  0  0
  -27.6155  -21.6553   22.3002 C   0  0  0  0  0  0  0  0  0  1  0  0
  -18.3188  -15.7170   24.9048 C   0  0  0  0  0  0  0  0  0  0  0  0
  -22.1617  -14.9357   19.5670 C   0  0  0  0  0  0  0  0  0  0  0  0
  -19.9244  -15.5074   20.5345 C   0  0  0  0  0  0  0  0  0  0  0  0
  -20.8987  -13.2409   20.9038 C   0  0  0  0  0  0  0  0  0  0  0  0
  -21.4566  -16.4360   26.9330 C   0  0  0  0  0  0  0  0  0  0  0  0
  -21.8857  -15.2270   22.1175 C   0  0  1  0  0  0  0  0  0  0  0  0
  -19.7955  -15.6206   25.2553 C   0  0  2  0  0  0  0  0  0  0  0  0
  -21.2409  -14.7423   20.7883 C   0  0  0  0  0  0  0  0  0  0  0  0
  -26.9177  -28.6261   20.8974 N   0  0  0  0  0  0  0  0  0  0  0  0
  -26.5049  -27.9282   19.8257 N   0  0  0  0  0  0  0  0  0  0  0  0
  -24.3250  -15.3521   22.5149 N   0  0  0  0  0  0  0  0  0  0  0  0
  -28.7134  -24.7984   19.6446 N   0  0  0  0  0  0  0  0  0  0  0  0
  -27.8393  -22.8026   20.6061 N   0  0  0  0  0  0  0  0  0  0  0  0
  -24.6778  -27.6455   18.3450 N   0  0  0  0  0  0  0  0  0  0  0  0
  -23.2383  -30.8573   21.1749 N   0  0  0  0  0  0  0  0  0  0  0  0
  -27.4252  -14.0576   21.0972 N   0  0  0  0  0  0  0  0  0  0  0  0
  -21.0468  -15.0312   23.2949 N   0  0  0  0  0  0  0  0  0  0  0  0
  -20.0474  -16.4565   26.4631 N   0  3  0  0  0  0  0  0  0  0  0  0
  -22.6631  -29.5827   19.3574 O   0  0  0  0  0  0  0  0  0  0  0  0
  -25.5587  -15.1864   20.2819 O   0  0  0  0  0  0  0  0  0  0  0  0
  -23.2084  -13.3056   22.5476 O   0  0  0  0  0  0  0  0  0  0  0  0
  -20.9795  -17.2596   23.9327 O   0  0  0  0  0  0  0  0  0  0  0  0
  -29.0527  -22.7236   18.6961 O   0  0  0  0  0  0  0  0  0  0  0  0
  -26.0915  -32.9954   25.4555 O   0  0  0  0  0  0  0  0  0  0  0  0
  -26.5511  -21.0800   23.0770 O   0  0  0  0  0  0  0  0  0  1  0  0
  -24.3160  -38.1447   24.5978 F   0  0  0  0  0  0  0  0  0  0  0  0
  -23.4863  -33.4852   24.6710 F   0  0  0  0  0  0  0  0  0  0  0  0
  1  2  1  0  0  0  0
  1  5  2  0  0  0  0
  2  6  2  0  0  0  0
  3  8  2  0  0  0  0
  3 15  1  0  0  0  0
  4  9  1  0  0  0  0
  4 15  2  0  0  0  0
  5 17  1  0  0  0  0
  6 19  1  0  0  0  0
  7 10  2  0  0  0  0
  7 18  1  0  0  0  0
  8 21  1  0  0  0  0
  9 21  2  0  0  0  0
 10 22  1  0  0  0  0
 11 12  2  0  0  0  0
 11 23  1  0  0  0  0
 12 24  1  0  0  0  0
 13 20  1  0  0  0  0
 13 22  2  0  0  0  0
 14 24  2  0  0  0  0
 14 25  1  0  0  0  0
 15 26  1  0  0  0  0
 16 26  1  0  0  0  0
 16 27  2  0  0  0  0
 16 28  1  0  0  0  0
 17 19  2  0  0  0  0
 17 33  1  0  0  0  0
 18 20  2  0  0  0  0
 18 34  1  0  0  0  0
 19 44  1  0  0  0  0
 20 35  1  0  0  0  0
 21 71  1  0  0  0  0
 22 72  1  0  0  0  0
 23 25  2  0  0  0  0
 23 71  1  0  0  0  0
 24 73  1  0  0  0  0
 25 74  1  0  0  0  0
 26 56  2  0  0  0  0
 27 57  1  0  0  0  0
 27 61  1  0  0  0  0
 28 62  1  0  0  0  0
 28 66  2  0  0  0  0
 29 45  1  0  0  0  0
 29 63  1  0  0  0  0
 29 67  2  0  0  0  0
 30 53  1  0  0  0  0
 30 58  1  0  0  0  0
 30 68  2  0  0  0  0
 31 54  1  0  0  0  0
 31 64  1  0  0  0  0
 31 69  2  0  0  0  0
 32 59  1  0  0  0  0
 32 60  1  0  0  0  0
 32 70  2  0  0  0  0
 33 36  1  0  0  0  0
 34 45  1  0  0  0  0
 35 58  1  0  0  0  0
 36 38  1  0  0  0  0
 37 39  1  0  0  0  0
 37 40  1  0  0  0  0
 38 44  1  0  0  0  0
 39 46  1  0  0  0  0
 40 59  1  0  0  0  0
 41 46  1  0  0  0  0
 41 59  1  0  0  0  0
 42 47  1  0  0  0  0
 42 60  1  0  0  0  0
 43 47  1  0  0  0  0
 43 60  1  0  0  0  0
 44 63  1  0  0  0  0
 45 58  1  0  0  0  0
 46 57  1  0  0  0  0
 47 72  1  0  0  0  0
 48 54  1  0  0  0  0
 49 55  1  0  0  0  0
 50 55  1  0  0  0  0
 51 55  1  0  0  0  0
 52 65  1  0  0  0  0
 53 55  1  0  0  0  0
 53 64  1  0  0  0  0
 54 65  1  0  0  0  0
 56 57  1  0  0  0  0
M  CHG  1  65   1
M  ISO  4  32 100  47 101  60 100  72 101
M  END
> <Batch ID>
0008

> <Smiles>
CNC(C)C(=O)NC(C(=O)N1Cc2cc([101O:1][101CH:1]3C[100N:0]([100C:0](=O)N4CCCC(n5nc(-c6ccc(Oc7ccc(F)cc7F)cc6)c(C(N)=O)c5N)C4)C3)ccc2CC1C(=O)NC1CCCc2ccccc21)C(C)(C)C

> <Shape>
0.260

> <Color>
0.074

> <Negative vol penalty>
0.000

$$$$

  -OEChem-04042320353D

 81 89  0     1  0  0  0  0  0999 V2000
  -27.5408  -32.5719   26.3809 C   0  0  0  0  0  0  0  0  0  0  0  0
  -27.7467  -31.4308   25.6121 C   0  0  0  0  0  0  0  0  0  0  0  0
  -24.4150  -10.6599   22.9637 C   0  0  0  0  0  0  0  0  0  0  0  0
  -24.4055  -12.3303   24.7092 C   0  0  0  0  0  0  0  0  0  0  0  0
  -26.2528  -32.9091   26.7947 C   0  0  0  0  0  0  0  0  0  0  0  0
  -26.6648  -30.6257   25.2577 C   0  0  0  0  0  0  0  0  0  0  0  0
  -26.7911  -29.2344   20.3901 C   0  0  0  0  0  0  0  0  0  0  0  0
  -30.2093  -20.4377   21.0045 C   0  0  0  0  0  0  0  0  0  0  0  0
  -23.9386   -9.7115   23.8687 C   0  0  0  0  0  0  0  0  0  0  0  0
  -23.9291  -11.3819   25.6142 C   0  0  0  0  0  0  0  0  0  0  0  0
  -27.6627  -28.2024   20.0453 C   0  0  0  0  0  0  0  0  0  0  0  0
  -30.2532  -21.8267   21.1237 C   0  0  0  0  0  0  0  0  0  0  0  0
  -20.9789   -8.8750   25.2733 C   0  0  0  0  0  0  0  0  0  0  0  0
  -19.9387   -8.0451   24.8552 C   0  0  0  0  0  0  0  0  0  0  0  0
  -25.8180  -26.6480   20.0584 C   0  0  0  0  0  0  0  0  0  0  0  0
  -27.8118  -20.5373   20.7236 C   0  0  0  0  0  0  0  0  0  0  0  0
  -21.3390   -6.1092   25.2140 C   0  0  0  0  0  0  0  0  0  0  0  0
  -24.6485  -11.9694   23.3839 C   0  0  0  0  0  0  0  0  0  0  0  0
  -24.3772  -13.8019   21.6300 C   0  0  0  0  0  0  0  0  0  0  0  0
  -25.1533  -32.1130   26.4370 C   0  0  0  0  0  0  0  0  0  0  0  0
  -25.4258  -28.9785   20.5826 C   0  0  0  0  0  0  0  0  0  0  0  0
  -25.3610  -30.9519   25.6682 C   0  0  0  0  0  0  0  0  0  0  0  0
  -24.9307  -27.6790   20.4031 C   0  0  0  0  0  0  0  0  0  0  0  0
  -28.9887  -19.7930   20.8044 C   0  0  0  0  0  0  0  0  0  0  0  0
  -23.6957  -10.0724   25.1940 C   0  0  0  0  0  0  0  0  0  0  0  0
  -27.1768  -26.9084   19.8822 C   0  0  0  0  0  0  0  0  0  0  0  0
  -22.1992   -8.3220   25.6617 C   0  0  0  0  0  0  0  0  0  0  0  0
  -29.0763  -22.5711   21.0430 C   0  0  0  0  0  0  0  0  0  0  0  0
  -20.1187   -6.6622   24.8255 C   0  0  0  0  0  0  0  0  0  0  0  0
  -22.3792   -6.9392   25.6321 C   0  0  0  0  0  0  0  0  0  0  0  0
  -27.8556  -21.9264   20.8429 C   0  0  0  0  0  0  0  0  0  0  0  0
  -25.1411  -12.9495   22.4496 C   0  0  0  0  0  0  0  0  0  0  0  0
  -25.3079  -14.5347   20.9349 C   0  0  0  0  0  0  0  0  0  0  0  0
  -22.9536  -13.9207   21.5080 C   0  0  0  0  0  0  0  0  0  0  0  0
  -23.4198  -29.2341   23.0350 C   0  0  0  0  0  0  0  0  0  0  0  0
  -21.2042  -28.4423   20.8020 C   0  0  0  0  0  0  0  0  0  0  0  0
  -20.5077  -26.9452   17.8153 C   0  0  0  0  0  0  0  0  0  0  0  0
  -30.0196  -17.4953   20.7406 C   0  0  0  0  0  0  0  0  0  0  0  0
  -23.7858  -32.4922   26.9476 C   0  0  0  0  0  0  0  0  0  0  0  0
  -24.4942  -30.1077   20.9282 C   0  0  0  0  0  0  0  0  0  0  0  0
  -23.4702  -27.3556   20.5784 C   0  0  0  0  0  0  0  0  0  0  0  0
  -22.6456  -31.7903   26.2143 C   0  0  0  0  0  0  0  0  0  0  0  0
  -30.3196  -13.9540   20.5247 C   0  0  0  0  0  0  0  0  0  0  0  0
  -22.9404  -30.3006   26.0706 C   0  0  0  0  0  0  0  0  0  0  0  0
  -28.9362  -13.4471   20.9388 C   0  0  0  0  0  0  0  0  0  0  0  0
  -30.7342  -15.1879   21.3242 C   0  0  0  0  0  0  0  0  0  0  0  0
  -28.3780  -15.7810   21.7315 C   0  0  0  0  0  0  0  0  0  0  0  0
  -24.2097  -30.0668   25.2426 C   0  0  1  0  0  0  0  0  0  0  0  0
  -23.2094  -29.6370   21.6029 C   0  0  1  0  0  0  0  0  0  0  0  0
  -27.8893  -14.5779   20.9085 C   0  0  2  0  0  0  0  0  0  0  0  0
  -18.6001  -26.4244   16.2703 C   0  0  0  0  0  0  0  0  0  0  0  0
  -20.3120  -26.1964   22.6647 C   0  0  0  0  0  0  0  0  0  0  0  0
  -19.1112  -25.1608   20.7272 C   0  0  0  0  0  0  0  0  0  0  0  0
  -18.4449  -27.4230   21.5405 C   0  0  0  0  0  0  0  0  0  0  0  0
  -21.6996  -28.5331   15.6205 C   0  0  0  0  0  0  0  0  0  0  0  0
  -29.3761  -26.0103   19.9934 C   0  0  0  0  0  0  0  0  0  1  0  0
  -29.9441  -24.6202   20.2039 C   0  0  0  0  0  0  0  0  0  0  0  0
  -20.6222  -27.1488   20.2850 C   0  0  1  0  0  0  0  0  0  0  0  0
  -19.7016  -27.4138   16.6174 C   0  0  2  0  0  0  0  0  0  0  0  0
  -19.6505  -26.4876   21.3028 C   0  0  0  0  0  0  0  0  0  0  0  0
  -26.4558  -13.1235   22.2909 N   0  0  0  0  0  0  0  0  0  0  0  0
  -26.5253  -14.0936   21.3635 N   0  0  0  0  0  0  0  0  0  0  0  0
  -22.6002  -28.4924   20.9224 N   0  0  0  0  0  0  0  0  0  0  0  0
  -29.6963  -16.2183   21.2461 N   0  0  0  0  0  0  0  0  0  0  0  0
  -25.1956  -15.5068   20.0050 N   0  0  0  0  0  0  0  0  0  0  0  0
  -22.1439  -13.0914   22.2961 N   0  0  0  0  0  0  0  0  0  0  0  0
  -28.9448  -18.3819   20.6835 N   0  0  0  0  0  0  0  0  0  0  0  0
  -23.9324  -30.2393   23.8327 N   0  0  0  0  0  0  0  0  0  0  0  0
  -20.0154  -27.4608   18.9955 N   0  0  0  0  0  0  0  0  0  0  0  0
  -20.5851  -27.5700   15.4274 N   0  3  0  0  0  0  0  0  0  0  0  0
  -22.4155  -14.7265   20.7113 O   0  0  0  0  0  0  0  0  0  0  0  0
  -23.1366  -28.0960   23.3903 O   0  0  0  0  0  0  0  0  0  0  0  0
  -20.4486  -29.3763   21.0816 O   0  0  0  0  0  0  0  0  0  0  0  0
  -21.4750  -26.1937   17.7144 O   0  0  0  0  0  0  0  0  0  0  0  0
  -31.1596  -17.7727   20.3591 O   0  0  0  0  0  0  0  0  0  0  0  0
  -23.2307   -9.1472   26.0773 O   0  0  0  0  0  0  0  0  0  0  0  0
  -28.0255  -25.8991   19.5463 O   0  0  0  0  0  0  0  0  0  1  0  0
  -29.1493  -23.9339   21.1634 O   0  0  0  0  0  0  0  0  0  0  0  0
  -19.1192   -5.8653   24.4255 F   0  0  0  0  0  0  0  0  0  0  0  0
  -23.5489   -6.4020   26.0051 F   0  0  0  0  0  0  0  0  0  0  0  0
  -26.3851  -22.8226   20.7394 Cl  0  0  0  0  0  0  0  0  0  0  0  0
  1  2  1  0  0  0  0
  1  5  2  0  0  0  0
  2  6  2  0  0  0  0
  3  9  2  0  0  0  0
  3 18  1  0  0  0  0
  4 10  1  0  0  0  0
  4 18  2  0  0  0  0
  5 20  1  0  0  0  0
  6 22  1  0  0  0  0
  7 11  2  0  0  0  0
  7 21  1  0  0  0  0
  8 12  2  0  0  0  0
  8 24  1  0  0  0  0
  9 25  1  0  0  0  0
 10 25  2  0  0  0  0
 11 26  1  0  0  0  0
 12 28  1  0  0  0  0
 13 14  2  0  0  0  0
 13 27  1  0  0  0  0
 14 29  1  0  0  0  0
 15 23  1  0  0  0  0
 15 26  2  0  0  0  0
 16 24  2  0  0  0  0
 16 31  1  0  0  0  0
 17 29  2  0  0  0  0
 17 30  1  0  0  0  0
 18 32  1  0  0  0  0
 19 32  1  0  0  0  0
 19 33  2  0  0  0  0
 19 34  1  0  0  0  0
 20 22  2  0  0  0  0
 20 39  1  0  0  0  0
 21 23  2  0  0  0  0
 21 40  1  0  0  0  0
 22 48  1  0  0  0  0
 23 41  1  0  0  0  0
 24 67  1  0  0  0  0
 25 76  1  0  0  0  0
 26 77  1  0  0  0  0
 27 30  2  0  0  0  0
 27 76  1  0  0  0  0
 28 31  2  0  0  0  0
 28 78  1  0  0  0  0
 29 79  1  0  0  0  0
 30 80  1  0  0  0  0
 31 81  1  0  0  0  0
 32 61  2  0  0  0  0
 33 62  1  0  0  0  0
 33 65  1  0  0  0  0
 34 66  1  0  0  0  0
 34 71  2  0  0  0  0
 35 49  1  0  0  0  0
 35 68  1  0  0  0  0
 35 72  2  0  0  0  0
 36 58  1  0  0  0  0
 36 63  1  0  0  0  0
 36 73  2  0  0  0  0
 37 59  1  0  0  0  0
 37 69  1  0  0  0  0
 37 74  2  0  0  0  0
 38 64  1  0  0  0  0
 38 67  1  0  0  0  0
 38 75  2  0  0  0  0
 39 42  1  0  0  0  0
 40 49  1  0  0  0  0
 41 63  1  0  0  0  0
 42 44  1  0  0  0  0
 43 45  1  0  0  0  0
 43 46  1  0  0  0  0
 44 48  1  0  0  0  0
 45 50  1  0  0  0  0
 46 64  1  0  0  0  0
 47 50  1  0  0  0  0
 47 64  1  0  0  0  0
 48 68  1  0  0  0  0
 49 63  1  0  0  0  0
 50 62  1  0  0  0  0
 51 59  1  0  0  0  0
 52 60  1  0  0  0  0
 53 60  1  0  0  0  0
 54 60  1  0  0  0  0
 55 70  1  0  0  0  0
 56 57  1  0  0  0  0
 56 77  1  0  0  0  0
 57 78  1  0  0  0  0
 58 60  1  0  0  0  0
 58 69  1  0  0  0  0
 59 70  1  0  0  0  0
 61 62  1  0  0  0  0
M  CHG  1  70   1
M  ISO  4  38 100  56 101  67 100  77 101
M  END
> <Batch ID>
0008

> <Smiles>
CNC(C)C(=O)NC(C(=O)N1Cc2cc([101O:1][101CH2:1]COc3ccc([100NH:0][100C:0](=O)N4CCCC(n5nc(-c6ccc(Oc7ccc(F)cc7F)cc6)c(C(N)=O)c5N)C4)cc3Cl)ccc2CC1C(=O)NC1CCCc2ccccc21)C(C)(C)C

> <Shape>
0.296

> <Color>
0.114

> <Negative vol penalty>
0.000

$$$$

  -OEChem-04042320353D

 84 92  0     1  0  0  0  0  0999 V2000
  -22.4603  -22.7883   17.4812 C   0  0  0  0  0  0  0  0  0  0  0  0
  -23.5481  -21.9578   17.2314 C   0  0  0  0  0  0  0  0  0  0  0  0
  -31.3309  -19.2193   23.0730 C   0  0  0  0  0  0  0  0  0  0  0  0
  -26.5585  -28.5247   18.8954 C   0  0  0  0  0  0  0  0  0  0  0  0
  -26.2803  -27.5455   21.0865 C   0  0  0  0  0  0  0  0  0  0  0  0
  -21.7186  -22.6307   18.6513 C   0  0  0  0  0  0  0  0  0  0  0  0
  -23.8955  -20.9699   18.1522 C   0  0  0  0  0  0  0  0  0  0  0  0
  -26.2052  -15.4342   16.9164 C   0  0  0  0  0  0  0  0  0  0  0  0
  -30.0648  -19.5165   22.5689 C   0  0  0  0  0  0  0  0  0  0  0  0
  -32.0660  -18.1634   22.5341 C   0  0  0  0  0  0  0  0  0  0  0  0
  -25.4700  -29.3641   19.1323 C   0  0  0  0  0  0  0  0  0  0  0  0
  -25.1919  -28.3851   21.3235 C   0  0  0  0  0  0  0  0  0  0  0  0
  -27.5074  -14.9364   16.9314 C   0  0  0  0  0  0  0  0  0  0  0  0
  -24.6788  -31.6065   22.2065 C   0  0  0  0  0  0  0  0  0  0  0  0
  -24.6114  -32.2436   23.4455 C   0  0  0  0  0  0  0  0  0  0  0  0
  -27.1516  -14.0896   19.1620 C   0  0  0  0  0  0  0  0  0  0  0  0
  -30.2687  -17.7019   20.9870 C   0  0  0  0  0  0  0  0  0  0  0  0
  -22.4981  -31.1593   23.8879 C   0  0  0  0  0  0  0  0  0  0  0  0
  -26.9636  -27.6153   19.8725 C   0  0  0  0  0  0  0  0  0  0  0  0
  -29.4408  -27.0075   19.9162 C   0  0  0  0  0  0  0  0  0  0  0  0
  -22.0512  -21.6341   19.5822 C   0  0  0  0  0  0  0  0  0  0  0  0
  -25.3685  -15.2726   18.0301 C   0  0  0  0  0  0  0  0  0  0  0  0
  -23.1584  -20.7997   19.3364 C   0  0  0  0  0  0  0  0  0  0  0  0
  -25.8383  -14.5840   19.1576 C   0  0  0  0  0  0  0  0  0  0  0  0
  -29.5336  -18.7578   21.5259 C   0  0  0  0  0  0  0  0  0  0  0  0
  -31.5349  -17.4047   21.4911 C   0  0  0  0  0  0  0  0  0  0  0  0
  -24.7867  -29.2944   20.3464 C   0  0  0  0  0  0  0  0  0  0  0  0
  -27.9818  -14.2666   18.0554 C   0  0  0  0  0  0  0  0  0  0  0  0
  -23.6559  -30.7459   21.8081 C   0  0  0  0  0  0  0  0  0  0  0  0
  -23.5211  -32.0199   24.2862 C   0  0  0  0  0  0  0  0  0  0  0  0
  -22.5656  -30.5223   22.6488 C   0  0  0  0  0  0  0  0  0  0  0  0
  -28.0876  -26.7475   19.6281 C   0  0  0  0  0  0  0  0  0  0  0  0
  -30.1038  -25.8799   19.4974 C   0  0  0  0  0  0  0  0  0  0  0  0
  -30.0444  -28.1648   20.5095 C   0  0  0  0  0  0  0  0  0  0  0  0
  -23.9067  -17.2510   20.0433 C   0  0  0  0  0  0  0  0  0  0  0  0
  -22.5818  -14.5096   21.1622 C   0  0  0  0  0  0  0  0  0  0  0  0
  -22.7940  -11.1215   21.5115 C   0  0  0  0  0  0  0  0  0  0  0  0
  -28.4067  -20.1833   18.7764 C   0  0  0  0  0  0  0  0  0  0  0  0
  -21.2487  -21.5327   20.8551 C   0  0  0  0  0  0  0  0  0  0  0  0
  -23.9576  -15.7920   17.9879 C   0  0  0  0  0  0  0  0  0  0  0  0
  -24.9733  -14.3664   20.3713 C   0  0  0  0  0  0  0  0  0  0  0  0
  -21.4545  -20.2173   21.6019 C   0  0  0  0  0  0  0  0  0  0  0  0
  -29.8056  -22.3297   16.3040 C   0  0  0  0  0  0  0  0  0  0  0  0
  -22.9398  -19.8823   21.6936 C   0  0  0  0  0  0  0  0  0  0  0  0
  -29.6460  -23.7287   16.9015 C   0  0  0  0  0  0  0  0  0  0  0  0
  -28.6196  -21.4309   16.6470 C   0  0  0  0  0  0  0  0  0  0  0  0
  -28.1491  -22.7370   18.6832 C   0  0  0  0  0  0  0  0  0  0  0  0
  -23.5514  -19.7003   20.2992 C   0  0  1  0  0  0  0  0  0  0  0  0
  -23.3632  -16.0203   19.3742 C   0  0  1  0  0  0  0  0  0  0  0  0
  -29.3471  -23.6629   18.4114 C   0  0  2  0  0  0  0  0  0  0  0  0
  -21.5792   -9.1637   22.5060 C   0  0  0  0  0  0  0  0  0  0  0  0
  -23.5500  -15.3227   23.9392 C   0  0  0  0  0  0  0  0  0  0  0  0
  -23.1696  -12.9636   24.6862 C   0  0  0  0  0  0  0  0  0  0  0  0
  -21.2509  -14.3401   23.8822 C   0  0  0  0  0  0  0  0  0  0  0  0
  -22.4551   -9.8395   18.8656 C   0  0  0  0  0  0  0  0  0  0  0  0
  -32.1988  -14.6214   22.7751 C   0  0  0  0  0  0  0  0  0  0  0  0
  -28.1804  -19.0771   20.9865 C   0  0  0  0  0  0  0  0  0  0  0  0
  -32.3253  -16.2686   20.9119 C   0  0  0  0  0  0  0  0  0  0  0  0
  -31.4026  -13.9029   19.1294 C   0  0  0  0  0  0  0  0  0  0  0  0
  -32.2153  -13.8314   20.4134 C   0  0  0  0  0  0  0  0  0  0  0  0
  -29.9053  -13.7142   19.3403 C   0  0  0  0  0  0  0  0  0  1  0  0
  -22.9542  -13.4947   22.2159 C   0  0  1  0  0  0  0  0  0  0  0  0
  -21.7812  -10.0180   21.2641 C   0  0  2  0  0  0  0  0  0  0  0  0
  -22.7484  -14.0359   23.6589 C   0  0  0  0  0  0  0  0  0  0  0  0
  -27.9004  -25.5489   19.0692 N   0  0  0  0  0  0  0  0  0  0  0  0
  -29.1448  -25.0457   19.0028 N   0  0  0  0  0  0  0  0  0  0  0  0
  -23.6033  -14.8983   20.2840 N   0  0  0  0  0  0  0  0  0  0  0  0
  -28.3904  -21.4107   18.0937 N   0  0  0  0  0  0  0  0  0  0  0  0
  -31.4077  -25.5305   19.5076 N   0  0  0  0  0  0  0  0  0  0  0  0
  -29.2173  -29.2334   20.8812 N   0  0  0  0  0  0  0  0  0  0  0  0
  -23.2009  -18.4044   19.7587 N   0  0  0  0  0  0  0  0  0  0  0  0
  -22.1860  -12.2919   21.9136 N   0  0  0  0  0  0  0  0  0  0  0  0
  -28.1870  -20.2541   20.1466 N   0  0  0  0  0  0  0  0  0  0  0  0
  -22.2389   -9.1340   20.1550 N   0  3  0  0  0  0  0  0  0  0  0  0
  -31.8175  -14.9139   21.3438 N   0  3  1  0  0  0  0  0  0  0  0  0
  -31.2826  -28.2554   20.6891 O   0  0  0  0  0  0  0  0  0  0  0  0
  -24.8926  -17.1606   20.7654 O   0  0  0  0  0  0  0  0  0  0  0  0
  -21.4254  -14.9363   21.1154 O   0  0  0  0  0  0  0  0  0  0  0  0
  -24.0037  -10.9601   21.3663 O   0  0  0  0  0  0  0  0  0  0  0  0
  -28.6079  -19.1047   18.2079 O   0  0  0  0  0  0  0  0  0  0  0  0
  -23.7247  -30.1135   20.5780 O   0  0  0  0  0  0  0  0  0  0  0  0
  -29.2526  -13.7804   18.0730 O   0  0  0  0  0  0  0  0  0  1  0  0
  -23.4572  -32.6306   25.4767 F   0  0  0  0  0  0  0  0  0  0  0  0
  -21.5804  -29.6956   22.2721 F   0  0  0  0  0  0  0  0  0  0  0  0
  1  2  1  0  0  0  0
  1  6  2  0  0  0  0
  2  7  2  0  0  0  0
  3  9  1  0  0  0  0
  3 10  2  0  0  0  0
  4 11  2  0  0  0  0
  4 19  1  0  0  0  0
  5 12  1  0  0  0  0
  5 19  2  0  0  0  0
  6 21  1  0  0  0  0
  7 23  1  0  0  0  0
  8 13  2  0  0  0  0
  8 22  1  0  0  0  0
  9 25  2  0  0  0  0
 10 26  1  0  0  0  0
 11 27  1  0  0  0  0
 12 27  2  0  0  0  0
 13 28  1  0  0  0  0
 14 15  2  0  0  0  0
 14 29  1  0  0  0  0
 15 30  1  0  0  0  0
 16 24  1  0  0  0  0
 16 28  2  0  0  0  0
 17 25  1  0  0  0  0
 17 26  2  0  0  0  0
 18 30  2  0  0  0  0
 18 31  1  0  0  0  0
 19 32  1  0  0  0  0
 20 32  1  0  0  0  0
 20 33  2  0  0  0  0
 20 34  1  0  0  0  0
 21 23  2  0  0  0  0
 21 39  1  0  0  0  0
 22 24  2  0  0  0  0
 22 40  1  0  0  0  0
 23 48  1  0  0  0  0
 24 41  1  0  0  0  0
 25 57  1  0  0  0  0
 26 58  1  0  0  0  0
 27 81  1  0  0  0  0
 28 82  1  0  0  0  0
 29 31  2  0  0  0  0
 29 81  1  0  0  0  0
 30 83  1  0  0  0  0
 31 84  1  0  0  0  0
 32 65  2  0  0  0  0
 33 66  1  0  0  0  0
 33 69  1  0  0  0  0
 34 70  1  0  0  0  0
 34 76  2  0  0  0  0
 35 49  1  0  0  0  0
 35 71  1  0  0  0  0
 35 77  2  0  0  0  0
 36 62  1  0  0  0  0
 36 67  1  0  0  0  0
 36 78  2  0  0  0  0
 37 63  1  0  0  0  0
 37 72  1  0  0  0  0
 37 79  2  0  0  0  0
 38 68  1  0  0  0  0
 38 73  1  0  0  0  0
 38 80  2  0  0  0  0
 39 42  1  0  0  0  0
 40 49  1  0  0  0  0
 41 67  1  0  0  0  0
 42 44  1  0  0  0  0
 43 45  1  0  0  0  0
 43 46  1  0  0  0  0
 44 48  1  0  0  0  0
 45 50  1  0  0  0  0
 46 68  1  0  0  0  0
 47 50  1  0  0  0  0
 47 68  1  0  0  0  0
 48 71  1  0  0  0  0
 49 67  1  0  0  0  0
 50 66  1  0  0  0  0
 51 63  1  0  0  0  0
 52 64  1  0  0  0  0
 53 64  1  0  0  0  0
 54 64  1  0  0  0  0
 55 74  1  0  0  0  0
 56 75  1  0  0  0  0
 57 73  1  0  0  0  0
 58 75  1  0  0  0  0
 59 60  1  0  0  0  0
 59 61  1  0  0  0  0
 60 75  1  0  0  0  0
 61 82  1  0  0  0  0
 62 64  1  0  0  0  0
 62 72  1  0  0  0  0
 63 74  1  0  0  0  0
 65 66  1  0  0  0  0
M  CHG  2  74   1  75   1
M  ISO  4  38 100  61 101  73 100  82 101
M  END
> <Batch ID>
0008

> <Smiles>
CNC(C)C(=O)NC(C(=O)N1Cc2cc([101O:1][101CH2:1]CCN(C)Cc3cccc(C[100NH:0][100C:0](=O)N4CCCC(n5nc(-c6ccc(Oc7ccc(F)cc7F)cc6)c(C(N)=O)c5N)C4)c3)ccc2CC1C(=O)NC1CCCc2ccccc21)C(C)(C)C

> <Shape>
0.264

> <Color>
0.051

> <Negative vol penalty>
0.000

$$$$

  -OEChem-04042320353D

 76 84  0     1  0  0  0  0  0999 V2000
  -30.2800  -34.7039   21.2444 C   0  0  0  0  0  0  0  0  0  0  0  0
  -30.4889  -33.5019   20.5759 C   0  0  0  0  0  0  0  0  0  0  0  0
  -23.6285  -10.1841   22.0667 C   0  0  0  0  0  0  0  0  0  0  0  0
  -23.9711   -9.3682   19.8186 C   0  0  0  0  0  0  0  0  0  0  0  0
  -29.4846  -34.7345   22.3891 C   0  0  0  0  0  0  0  0  0  0  0  0
  -29.9035  -32.3295   21.0524 C   0  0  0  0  0  0  0  0  0  0  0  0
  -27.1516  -26.1286   18.7517 C   0  0  0  0  0  0  0  0  0  0  0  0
  -22.6876   -9.1786   22.2883 C   0  0  0  0  0  0  0  0  0  0  0  0
  -23.0302   -8.3626   20.0402 C   0  0  0  0  0  0  0  0  0  0  0  0
  -27.2658  -24.7553   18.9631 C   0  0  0  0  0  0  0  0  0  0  0  0
  -22.6950   -5.8746   23.0071 C   0  0  0  0  0  0  0  0  0  0  0  0
  -22.7679   -5.1723   24.2100 C   0  0  0  0  0  0  0  0  0  0  0  0
  -25.8465  -24.9423   20.9047 C   0  0  0  0  0  0  0  0  0  0  0  0
  -20.5337   -5.9011   24.7708 C   0  0  0  0  0  0  0  0  0  0  0  0
  -24.2703  -10.2789   20.8318 C   0  0  0  0  0  0  0  0  0  0  0  0
  -26.6284  -11.2520   20.8371 C   0  0  0  0  0  0  0  0  0  0  0  0
  -28.8813  -33.5635   22.8744 C   0  0  0  0  0  0  0  0  0  0  0  0
  -26.3917  -26.9222   19.6231 C   0  0  0  0  0  0  0  0  0  0  0  0
  -29.1004  -32.3442   22.2055 C   0  0  0  0  0  0  0  0  0  0  0  0
  -25.7223  -26.3250   20.7008 C   0  0  0  0  0  0  0  0  0  0  0  0
  -22.3884   -8.2678   21.2751 C   0  0  0  0  0  0  0  0  0  0  0  0
  -26.6155  -24.1624   20.0414 C   0  0  0  0  0  0  0  0  0  0  0  0
  -21.5415   -6.5903   22.6860 C   0  0  0  0  0  0  0  0  0  0  0  0
  -21.6872   -5.1855   25.0919 C   0  0  0  0  0  0  0  0  0  0  0  0
  -20.4609   -6.6034   23.5679 C   0  0  0  0  0  0  0  0  0  0  0  0
  -25.2420  -11.3178   20.6021 C   0  0  0  0  0  0  0  0  0  0  0  0
  -27.0995  -12.4858   20.4601 C   0  0  0  0  0  0  0  0  0  0  0  0
  -27.4198  -10.1720   21.3501 C   0  0  0  0  0  0  0  0  0  0  0  0
  -27.0237  -29.3552   21.5685 C   0  0  0  0  0  0  0  0  0  0  0  0
  -23.8006  -29.3939   21.9327 C   0  0  0  0  0  0  0  0  0  0  0  0
  -20.8467  -27.6917   21.7776 C   0  0  0  0  0  0  0  0  0  0  0  0
  -26.8934  -17.8482   20.3357 C   0  0  0  0  0  0  0  0  0  0  0  0
  -28.0684  -33.6377   24.1426 C   0  0  0  0  0  0  0  0  0  0  0  0
  -26.2568  -28.3980   19.3659 C   0  0  0  0  0  0  0  0  0  0  0  0
  -24.8776  -27.1295   21.6536 C   0  0  0  0  0  0  0  0  0  0  0  0
  -27.1790  -32.4177   24.3683 C   0  0  0  0  0  0  0  0  0  0  0  0
  -24.8518  -16.2584   17.9637 C   0  0  0  0  0  0  0  0  0  0  0  0
  -27.9641  -31.1326   24.1256 C   0  0  0  0  0  0  0  0  0  0  0  0
  -24.8806  -14.8126   18.4589 C   0  0  0  0  0  0  0  0  0  0  0  0
  -27.4191  -21.1171   18.6668 C   0  0  0  0  0  0  0  0  0  0  0  0
  -25.1138  -21.0869   19.7129 C   0  0  0  0  0  0  0  0  0  0  0  0
  -24.7517  -17.2575   19.1176 C   0  0  0  0  0  0  0  0  0  0  0  0
  -27.8450  -20.0126   19.6328 C   0  0  0  0  0  0  0  0  0  0  0  0
  -25.5933  -19.9865   20.6568 C   0  0  0  0  0  0  0  0  0  0  0  0
  -25.8207  -15.6377   20.6505 C   0  0  0  0  0  0  0  0  0  0  0  0
  -28.4623  -31.0556   22.6773 C   0  0  1  0  0  0  0  0  0  0  0  0
  -25.8758  -29.1895   20.6132 C   0  0  1  0  0  0  0  0  0  0  0  0
  -25.9803  -14.6127   19.5169 C   0  0  1  0  0  0  0  0  0  0  0  0
  -26.2634  -21.9601   19.2071 C   0  0  0  0  0  0  0  0  0  1  0  0
  -18.3847  -27.9789   22.1693 C   0  0  0  0  0  0  0  0  0  0  0  0
  -24.2645  -29.2422   24.9446 C   0  0  0  0  0  0  0  0  0  0  0  0
  -21.8644  -28.5812   25.2107 C   0  0  0  0  0  0  0  0  0  0  0  0
  -22.4435  -30.8081   24.2472 C   0  0  0  0  0  0  0  0  0  0  0  0
  -20.2090  -27.0894   18.9510 C   0  0  0  0  0  0  0  0  0  0  0  0
  -22.8221  -28.7240   22.8669 C   0  0  1  0  0  0  0  0  0  0  0  0
  -19.5111  -28.0472   21.1497 C   0  0  2  0  0  0  0  0  0  0  0  0
  -22.8661  -29.3237   24.3007 C   0  0  0  0  0  0  0  0  0  0  0  0
  -24.8573  -12.5000   20.1139 N   0  0  0  0  0  0  0  0  0  0  0  0
  -26.0090  -13.1885   20.0390 N   0  0  0  0  0  0  0  0  0  0  0  0
  -24.7818  -28.5697   21.3636 N   0  0  0  0  0  0  0  0  0  0  0  0
  -25.7954  -17.0020   20.1192 N   0  0  0  0  0  0  0  0  0  0  0  0
  -26.7017  -19.2160   20.0771 N   0  0  0  0  0  0  0  0  0  0  0  0
  -28.3360  -13.0275   20.4512 N   0  0  0  0  0  0  0  0  0  0  0  0
  -26.7761   -8.9737   21.6877 N   0  0  0  0  0  0  0  0  0  0  0  0
  -27.3845  -30.6702   21.7919 N   0  0  0  0  0  0  0  0  0  0  0  0
  -21.5164  -28.8120   22.2221 N   0  0  0  0  0  0  0  0  0  0  0  0
  -19.1954  -27.1075   20.0370 N   0  3  0  0  0  0  0  0  0  0  0  0
  -28.6585  -10.2725   21.5200 O   0  0  0  0  0  0  0  0  0  0  0  0
  -27.5426  -28.3634   22.0673 O   0  0  0  0  0  0  0  0  0  0  0  0
  -23.6938  -30.6025   21.7103 O   0  0  0  0  0  0  0  0  0  0  0  0
  -21.2535  -26.5355   21.8682 O   0  0  0  0  0  0  0  0  0  0  0  0
  -27.9807  -17.4106   20.7323 O   0  0  0  0  0  0  0  0  0  0  0  0
  -21.4704   -7.2864   21.4910 O   0  0  0  0  0  0  0  0  0  0  0  0
  -26.7265  -22.8130   20.2517 O   0  0  0  0  0  0  0  0  0  1  0  0
  -21.7567   -4.5098   26.2463 F   0  0  0  0  0  0  0  0  0  0  0  0
  -19.3496   -7.2881   23.2644 F   0  0  0  0  0  0  0  0  0  0  0  0
  1  2  1  0  0  0  0
  1  5  2  0  0  0  0
  2  6  2  0  0  0  0
  3  8  2  0  0  0  0
  3 15  1  0  0  0  0
  4  9  1  0  0  0  0
  4 15  2  0  0  0  0
  5 17  1  0  0  0  0
  6 19  1  0  0  0  0
  7 10  2  0  0  0  0
  7 18  1  0  0  0  0
  8 21  1  0  0  0  0
  9 21  2  0  0  0  0
 10 22  1  0  0  0  0
 11 12  2  0  0  0  0
 11 23  1  0  0  0  0
 12 24  1  0  0  0  0
 13 20  1  0  0  0  0
 13 22  2  0  0  0  0
 14 24  2  0  0  0  0
 14 25  1  0  0  0  0
 15 26  1  0  0  0  0
 16 26  1  0  0  0  0
 16 27  2  0  0  0  0
 16 28  1  0  0  0  0
 17 19  2  0  0  0  0
 17 33  1  0  0  0  0
 18 20  2  0  0  0  0
 18 34  1  0  0  0  0
 19 46  1  0  0  0  0
 20 35  1  0  0  0  0
 21 73  1  0  0  0  0
 22 74  1  0  0  0  0
 23 25  2  0  0  0  0
 23 73  1  0  0  0  0
 24 75  1  0  0  0  0
 25 76  1  0  0  0  0
 26 58  2  0  0  0  0
 27 59  1  0  0  0  0
 27 63  1  0  0  0  0
 28 64  1  0  0  0  0
 28 68  2  0  0  0  0
 29 47  1  0  0  0  0
 29 65  1  0  0  0  0
 29 69  2  0  0  0  0
 30 55  1  0  0  0  0
 30 60  1  0  0  0  0
 30 70  2  0  0  0  0
 31 56  1  0  0  0  0
 31 66  1  0  0  0  0
 31 71  2  0  0  0  0
 32 61  1  0  0  0  0
 32 62  1  0  0  0  0
 32 72  2  0  0  0  0
 33 36  1  0  0  0  0
 34 47  1  0  0  0  0
 35 60  1  0  0  0  0
 36 38  1  0  0  0  0
 37 39  1  0  0  0  0
 37 42  1  0  0  0  0
 38 46  1  0  0  0  0
 39 48  1  0  0  0  0
 40 43  1  0  0  0  0
 40 49  1  0  0  0  0
 41 44  1  0  0  0  0
 41 49  1  0  0  0  0
 42 61  1  0  0  0  0
 43 62  1  0  0  0  0
 44 62  1  0  0  0  0
 45 48  1  0  0  0  0
 45 61  1  0  0  0  0
 46 65  1  0  0  0  0
 47 60  1  0  0  0  0
 48 59  1  0  0  0  0
 49 74  1  0  0  0  0
 50 56  1  0  0  0  0
 51 57  1  0  0  0  0
 52 57  1  0  0  0  0
 53 57  1  0  0  0  0
 54 67  1  0  0  0  0
 55 57  1  0  0  0  0
 55 66  1  0  0  0  0
 56 67  1  0  0  0  0
 58 59  1  0  0  0  0
M  CHG  1  67   1
M  ISO  4  32 100  49 101  62 100  74 101
M  END
> <Batch ID>
0008

> <Smiles>
CNC(C)C(=O)NC(C(=O)N1Cc2cc([101O:1][101CH:1]3CC[100N:0]([100C:0](=O)N4CCCC(n5nc(-c6ccc(Oc7ccc(F)cc7F)cc6)c(C(N)=O)c5N)C4)CC3)ccc2CC1C(=O)NC1CCCc2ccccc21)C(C)(C)C

> <Shape>
0.250

> <Color>
0.087

> <Negative vol penalty>
0.000

$$$$

  -OEChem-04042320353D

 85 94  0     1  0  0  0  0  0999 V2000
  -26.4933  -33.1536   21.0844 C   0  0  0  0  0  0  0  0  0  0  0  0
  -27.5120  -32.3002   21.4959 C   0  0  0  0  0  0  0  0  0  0  0  0
  -23.1457   -9.7654   20.0226 C   0  0  0  0  0  0  0  0  0  0  0  0
  -23.7814   -9.9927   22.3423 C   0  0  0  0  0  0  0  0  0  0  0  0
  -25.1623  -32.7543   21.1985 C   0  0  0  0  0  0  0  0  0  0  0  0
  -27.2002  -31.0473   22.0227 C   0  0  0  0  0  0  0  0  0  0  0  0
  -30.4137  -25.8751   21.3685 C   0  0  0  0  0  0  0  0  0  0  0  0
  -22.4043   -8.6266   20.3373 C   0  0  0  0  0  0  0  0  0  0  0  0
  -23.0400   -8.8540   22.6571 C   0  0  0  0  0  0  0  0  0  0  0  0
  -31.3316  -25.2301   22.1962 C   0  0  0  0  0  0  0  0  0  0  0  0
  -19.7946   -8.0572   23.1604 C   0  0  0  0  0  0  0  0  0  0  0  0
  -18.9766   -8.1098   24.2890 C   0  0  0  0  0  0  0  0  0  0  0  0
  -29.5690  -23.8141   23.0373 C   0  0  0  0  0  0  0  0  0  0  0  0
  -30.2020  -18.7043   23.7168 C   0  0  0  0  0  0  0  0  0  0  0  0
  -31.8937  -16.8695   22.4702 C   0  0  0  0  0  0  0  0  0  0  0  0
  -20.2013   -6.2689   25.2626 C   0  0  0  0  0  0  0  0  0  0  0  0
  -23.8343  -10.4484   21.0250 C   0  0  0  0  0  0  0  0  0  0  0  0
  -24.1498  -12.9580   20.6935 C   0  0  0  0  0  0  0  0  0  0  0  0
  -24.8344  -31.4921   21.7179 C   0  0  0  0  0  0  0  0  0  0  0  0
  -29.0622  -25.5012   21.3770 C   0  0  0  0  0  0  0  0  0  0  0  0
  -25.8635  -30.6313   22.1450 C   0  0  0  0  0  0  0  0  0  0  0  0
  -28.6364  -24.4542   22.2069 C   0  0  0  0  0  0  0  0  0  0  0  0
  -31.5773  -18.7584   23.9429 C   0  0  0  0  0  0  0  0  0  0  0  0
  -30.5184  -16.8153   22.2442 C   0  0  0  0  0  0  0  0  0  0  0  0
  -22.3514   -8.1709   21.6546 C   0  0  0  0  0  0  0  0  0  0  0  0
  -30.9088  -24.2014   23.0329 C   0  0  0  0  0  0  0  0  0  0  0  0
  -20.8160   -7.1104   23.0829 C   0  0  0  0  0  0  0  0  0  0  0  0
  -19.1799   -7.2157   25.3401 C   0  0  0  0  0  0  0  0  0  0  0  0
  -29.6725  -17.7326   22.8675 C   0  0  0  0  0  0  0  0  0  0  0  0
  -32.4232  -17.8411   23.3195 C   0  0  0  0  0  0  0  0  0  0  0  0
  -21.0194   -6.2162   24.1340 C   0  0  0  0  0  0  0  0  0  0  0  0
  -24.6008  -11.6245   20.7004 C   0  0  0  0  0  0  0  0  0  0  0  0
  -25.2502  -13.6907   20.3210 C   0  0  0  0  0  0  0  0  0  0  0  0
  -22.8523  -13.4872   20.9968 C   0  0  0  0  0  0  0  0  0  0  0  0
  -26.3337  -26.9667   22.0919 C   0  0  0  0  0  0  0  0  0  0  0  0
  -25.0186  -24.2140   20.9896 C   0  0  0  0  0  0  0  0  0  0  0  0
  -25.3765  -20.8771   20.3698 C   0  0  0  0  0  0  0  0  0  0  0  0
  -30.6854  -14.8437   20.6849 C   0  0  0  0  0  0  0  0  0  0  0  0
  -23.3795  -31.1235   21.8656 C   0  0  0  0  0  0  0  0  0  0  0  0
  -28.0896  -26.1889   20.4586 C   0  0  0  0  0  0  0  0  0  0  0  0
  -27.2003  -24.0013   22.2386 C   0  0  0  0  0  0  0  0  0  0  0  0
  -23.1487  -29.6308   22.0867 C   0  0  0  0  0  0  0  0  0  0  0  0
  -29.7304  -12.2067   18.4914 C   0  0  0  0  0  0  0  0  0  0  0  0
  -24.1079  -29.0931   23.1438 C   0  0  0  0  0  0  0  0  0  0  0  0
  -28.2737  -11.9299   18.8700 C   0  0  0  0  0  0  0  0  0  0  0  0
  -34.0833  -22.8788   24.1593 C   0  0  0  0  0  0  0  0  0  0  0  0
  -30.5768  -12.5591   19.7133 C   0  0  0  0  0  0  0  0  0  0  0  0
  -28.5895  -13.3717   20.9214 C   0  0  0  0  0  0  0  0  0  0  0  0
  -33.7413  -21.7364   25.0945 C   0  0  0  0  0  0  0  0  0  0  0  0
  -32.5568  -21.4476   22.9702 C   0  0  0  0  0  0  0  0  0  0  0  0
  -25.5664  -29.2545   22.6986 C   0  0  1  0  0  0  0  0  0  0  0  0
  -26.6419  -26.0715   20.9252 C   0  0  1  0  0  0  0  0  0  0  0  0
  -27.6835  -13.0758   19.7151 C   0  0  2  0  0  0  0  0  0  0  0  0
  -32.8980  -22.9100   23.2099 C   0  0  1  0  0  0  0  0  0  1  0  0
  -24.1158  -18.8884   19.5021 C   0  0  0  0  0  0  0  0  0  0  0  0
  -23.4929  -24.0340   23.6259 C   0  0  0  0  0  0  0  0  0  0  0  0
  -23.0218  -21.6301   23.1088 C   0  0  0  0  0  0  0  0  0  0  0  0
  -22.1563  -23.4208   21.6031 C   0  0  0  0  0  0  0  0  0  0  0  0
  -27.2863  -20.4926   18.1418 C   0  0  0  0  0  0  0  0  0  0  0  0
  -32.1436  -19.8053   24.8563 C   0  0  0  0  0  0  0  0  0  0  0  0
  -24.6288  -22.8929   21.6075 C   0  0  1  0  0  0  0  0  0  0  0  0
  -25.0459  -20.0384   19.1484 C   0  0  2  0  0  0  0  0  0  0  0  0
  -23.3517  -23.0040   22.4874 C   0  0  0  0  0  0  0  0  0  0  0  0
  -25.8874  -11.5135   20.3592 N   0  0  0  0  0  0  0  0  0  0  0  0
  -26.2543  -12.7867   20.1344 N   0  0  0  0  0  0  0  0  0  0  0  0
  -26.2863  -24.7090   21.3269 N   0  0  0  0  0  0  0  0  0  0  0  0
  -29.9585  -13.6550   20.4628 N   0  0  0  0  0  0  0  0  0  0  0  0
  -25.4473  -15.0137   20.1381 N   0  0  0  0  0  0  0  0  0  0  0  0
  -21.8354  -12.5945   21.3622 N   0  0  0  0  0  0  0  0  0  0  0  0
  -29.9834  -15.8273   21.3807 N   0  0  0  0  0  0  0  0  0  0  0  0
  -25.9161  -28.2343   21.7336 N   0  0  0  0  0  0  0  0  0  0  0  0
  -24.5141  -21.9445   20.5049 N   0  0  0  0  0  0  0  0  0  0  0  0
  -33.1202  -20.7100   24.1762 N   0  3  2  0  0  0  0  0  0  0  0  0
  -26.2908  -19.4711   18.5573 N   0  3  0  0  0  0  0  0  0  0  0  0
  -22.5976  -14.7136   20.9294 O   0  0  0  0  0  0  0  0  0  0  0  0
  -26.4637  -26.5387   23.2328 O   0  0  0  0  0  0  0  0  0  0  0  0
  -24.2302  -24.7822   20.2298 O   0  0  0  0  0  0  0  0  0  0  0  0
  -26.3044  -20.6099   21.1301 O   0  0  0  0  0  0  0  0  0  0  0  0
  -31.8357  -14.9893   20.2635 O   0  0  0  0  0  0  0  0  0  0  0  0
  -21.6278   -7.0599   21.9622 O   0  0  0  0  0  0  0  0  0  0  0  0
  -31.8026  -23.5705   23.8423 O   0  0  0  0  0  0  0  0  0  1  0  0
  -18.3953   -7.2674   26.4244 F   0  0  0  0  0  0  0  0  0  0  0  0
  -28.3490  -17.6898   22.6576 F   0  0  0  0  0  0  0  0  0  0  0  0
  -33.7459  -17.8853   23.5307 F   0  0  0  0  0  0  0  0  0  0  0  0
  -21.9997   -5.3052   24.0658 F   0  0  0  0  0  0  0  0  0  0  0  0
  1  2  1  0  0  0  0
  1  5  2  0  0  0  0
  2  6  2  0  0  0  0
  3  8  2  0  0  0  0
  3 17  1  0  0  0  0
  4  9  1  0  0  0  0
  4 17  2  0  0  0  0
  5 19  1  0  0  0  0
  6 21  1  0  0  0  0
  7 10  2  0  0  0  0
  7 20  1  0  0  0  0
  8 25  1  0  0  0  0
  9 25  2  0  0  0  0
 10 26  1  0  0  0  0
 11 12  2  0  0  0  0
 11 27  1  0  0  0  0
 12 28  1  0  0  0  0
 13 22  1  0  0  0  0
 13 26  2  0  0  0  0
 14 23  1  0  0  0  0
 14 29  2  0  0  0  0
 15 24  2  0  0  0  0
 15 30  1  0  0  0  0
 16 28  2  0  0  0  0
 16 31  1  0  0  0  0
 17 32  1  0  0  0  0
 18 32  1  0  0  0  0
 18 33  2  0  0  0  0
 18 34  1  0  0  0  0
 19 21  2  0  0  0  0
 19 39  1  0  0  0  0
 20 22  2  0  0  0  0
 20 40  1  0  0  0  0
 21 51  1  0  0  0  0
 22 41  1  0  0  0  0
 23 30  2  0  0  0  0
 23 60  1  0  0  0  0
 24 29  1  0  0  0  0
 24 70  1  0  0  0  0
 25 80  1  0  0  0  0
 26 81  1  0  0  0  0
 27 31  2  0  0  0  0
 27 80  1  0  0  0  0
 28 82  1  0  0  0  0
 29 83  1  0  0  0  0
 30 84  1  0  0  0  0
 31 85  1  0  0  0  0
 32 64  2  0  0  0  0
 33 65  1  0  0  0  0
 33 68  1  0  0  0  0
 34 69  1  0  0  0  0
 34 75  2  0  0  0  0
 35 52  1  0  0  0  0
 35 71  1  0  0  0  0
 35 76  2  0  0  0  0
 36 61  1  0  0  0  0
 36 66  1  0  0  0  0
 36 77  2  0  0  0  0
 37 62  1  0  0  0  0
 37 72  1  0  0  0  0
 37 78  2  0  0  0  0
 38 67  1  0  0  0  0
 38 70  1  0  0  0  0
 38 79  2  0  0  0  0
 39 42  1  0  0  0  0
 40 52  1  0  0  0  0
 41 66  1  0  0  0  0
 42 44  1  0  0  0  0
 43 45  1  0  0  0  0
 43 47  1  0  0  0  0
 44 51  1  0  0  0  0
 45 53  1  0  0  0  0
 46 49  1  0  0  0  0
 46 54  1  0  0  0  0
 47 67  1  0  0  0  0
 48 53  1  0  0  0  0
 48 67  1  0  0  0  0
 49 73  1  0  0  0  0
 50 54  1  0  0  0  0
 50 73  1  0  0  0  0
 51 71  1  0  0  0  0
 52 66  1  0  0  0  0
 53 65  1  0  0  0  0
 54 81  1  0  0  0  0
 55 62  1  0  0  0  0
 56 63  1  0  0  0  0
 57 63  1  0  0  0  0
 58 63  1  0  0  0  0
 59 74  1  0  0  0  0
 60 73  1  0  0  0  0
 61 63  1  0  0  0  0
 61 72  1  0  0  0  0
 62 74  1  0  0  0  0
 64 65  1  0  0  0  0
M  CHG  2  73   1  74   1
M  ISO  4  38 100  54 101  70 100  81 101
M  END
> <Batch ID>
0008

> <Smiles>
CNC(C)C(=O)NC(C(=O)N1Cc2cc([101O:1][101CH:1]3CCN(Cc4cc(F)c([100NH:0][100C:0](=O)N5CCCC(n6nc(-c7ccc(Oc8ccc(F)cc8F)cc7)c(C(N)=O)c6N)C5)cc4F)C3)ccc2CC1C(=O)NC1CCCc2ccccc21)C(C)(C)C

> <Shape>
0.240

> <Color>
0.185

> <Negative vol penalty>
0.000

$$$$

  -OEChem-04042320353D

 82 90  0     1  0  0  0  0  0999 V2000
  -40.1408  -23.5651   19.7448 C   0  0  0  0  0  0  0  0  0  0  0  0
  -38.7805  -23.3514   19.9429 C   0  0  0  0  0  0  0  0  0  0  0  0
  -23.0929   -9.8327   19.9523 C   0  0  0  0  0  0  0  0  0  0  0  0
  -23.8438   -9.8724   22.2484 C   0  0  0  0  0  0  0  0  0  0  0  0
  -40.6600  -24.8571   19.8164 C   0  0  0  0  0  0  0  0  0  0  0  0
  -37.9387  -24.4295   20.2137 C   0  0  0  0  0  0  0  0  0  0  0  0
  -33.6399  -24.2567   17.5424 C   0  0  0  0  0  0  0  0  0  0  0  0
  -22.3615   -8.6737   20.2115 C   0  0  0  0  0  0  0  0  0  0  0  0
  -23.1123   -8.7134   22.5076 C   0  0  0  0  0  0  0  0  0  0  0  0
  -32.6495  -23.3813   17.9858 C   0  0  0  0  0  0  0  0  0  0  0  0
  -19.8912   -7.8845   23.1062 C   0  0  0  0  0  0  0  0  0  0  0  0
  -19.1303   -7.8480   24.2746 C   0  0  0  0  0  0  0  0  0  0  0  0
  -31.4943  -25.2253   19.0270 C   0  0  0  0  0  0  0  0  0  0  0  0
  -29.6092  -19.3520   22.2922 C   0  0  0  0  0  0  0  0  0  0  0  0
  -31.0791  -17.7436   20.5502 C   0  0  0  0  0  0  0  0  0  0  0  0
  -20.3911   -5.9328   25.0360 C   0  0  0  0  0  0  0  0  0  0  0  0
  -23.8341  -10.4321   20.9707 C   0  0  0  0  0  0  0  0  0  0  0  0
  -24.1472  -12.9596   20.8256 C   0  0  0  0  0  0  0  0  0  0  0  0
  -39.8226  -25.9528   20.0786 C   0  0  0  0  0  0  0  0  0  0  0  0
  -33.5705  -25.6235   17.8478 C   0  0  0  0  0  0  0  0  0  0  0  0
  -38.4473  -25.7373   20.2902 C   0  0  0  0  0  0  0  0  0  0  0  0
  -32.4837  -26.1164   18.5842 C   0  0  0  0  0  0  0  0  0  0  0  0
  -29.4431  -17.9673   22.3138 C   0  0  0  0  0  0  0  0  0  0  0  0
  -30.1781  -17.1630   21.4428 C   0  0  0  0  0  0  0  0  0  0  0  0
  -22.3711   -8.1140   21.4891 C   0  0  0  0  0  0  0  0  0  0  0  0
  -31.5780  -23.8651   18.7307 C   0  0  0  0  0  0  0  0  0  0  0  0
  -20.9021   -6.9451   22.9026 C   0  0  0  0  0  0  0  0  0  0  0  0
  -30.5101  -19.9326   21.3995 C   0  0  0  0  0  0  0  0  0  0  0  0
  -19.3802   -6.8722   25.2395 C   0  0  0  0  0  0  0  0  0  0  0  0
  -31.2451  -19.1284   20.5285 C   0  0  0  0  0  0  0  0  0  0  0  0
  -21.1521   -5.9693   23.8675 C   0  0  0  0  0  0  0  0  0  0  0  0
  -24.5904  -11.6290   20.7035 C   0  0  0  0  0  0  0  0  0  0  0  0
  -25.2321  -13.7179   20.4587 C   0  0  0  0  0  0  0  0  0  0  0  0
  -22.8692  -13.4650   21.2344 C   0  0  0  0  0  0  0  0  0  0  0  0
  -35.3933  -27.6527   19.4798 C   0  0  0  0  0  0  0  0  0  0  0  0
  -33.2922  -29.8468   18.3423 C   0  0  0  0  0  0  0  0  0  0  0  0
  -30.1727  -30.5143   17.1301 C   0  0  0  0  0  0  0  0  0  0  0  0
  -30.6851  -14.8286   20.6430 C   0  0  0  0  0  0  0  0  0  0  0  0
  -40.4373  -27.3253   20.1932 C   0  0  0  0  0  0  0  0  0  0  0  0
  -34.6330  -26.5590   17.3394 C   0  0  0  0  0  0  0  0  0  0  0  0
  -32.3521  -27.5783   18.9215 C   0  0  0  0  0  0  0  0  0  0  0  0
  -39.4172  -28.4581   20.1136 C   0  0  0  0  0  0  0  0  0  0  0  0
  -29.6079  -12.3775   18.2959 C   0  0  0  0  0  0  0  0  0  0  0  0
  -38.2188  -28.1613   21.0095 C   0  0  0  0  0  0  0  0  0  0  0  0
  -28.1700  -12.0737   18.7231 C   0  0  0  0  0  0  0  0  0  0  0  0
  -30.5156  -12.6294   19.4986 C   0  0  0  0  0  0  0  0  0  0  0  0
  -28.5950  -13.3460   20.8650 C   0  0  0  0  0  0  0  0  0  0  0  0
  -37.4980  -26.8841   20.5616 C   0  0  1  0  0  0  0  0  0  0  0  0
  -34.7287  -27.8498   18.1467 C   0  0  1  0  0  0  0  0  0  0  0  0
  -27.6289  -13.1493   19.6854 C   0  0  2  0  0  0  0  0  0  0  0  0
  -28.4710  -17.3727   23.2804 C   0  0  0  0  0  0  0  0  0  0  0  0
  -28.7365  -32.4071   16.3224 C   0  0  0  0  0  0  0  0  0  0  0  0
  -32.8730  -30.7555   21.2247 C   0  0  0  0  0  0  0  0  0  0  0  0
  -30.7966  -31.9375   20.4766 C   0  0  0  0  0  0  0  0  0  0  0  0
  -33.0144  -32.6125   19.5556 C   0  0  0  0  0  0  0  0  0  0  0  0
  -29.8833  -29.3025   14.4455 C   0  0  0  0  0  0  0  0  0  0  0  0
  -29.9498  -23.3476   20.3851 C   0  0  0  0  0  0  0  0  0  1  0  0
  -29.5196  -22.0712   21.0818 C   0  0  0  0  0  0  0  0  0  0  0  0
  -31.9828  -30.4232   18.8240 C   0  0  1  0  0  0  0  0  0  0  0  0
  -29.7101  -31.3094   15.9225 C   0  0  2  0  0  0  0  0  0  0  0  0
  -32.1699  -31.4043   20.0157 C   0  0  0  0  0  0  0  0  0  0  0  0
  -25.8579  -11.5435   20.2910 N   0  0  0  0  0  0  0  0  0  0  0  0
  -26.2204  -12.8300   20.1507 N   0  0  0  0  0  0  0  0  0  0  0  0
  -33.4196  -28.4520   18.4071 N   0  0  0  0  0  0  0  0  0  0  0  0
  -29.9413  -13.6627   20.3630 N   0  0  0  0  0  0  0  0  0  0  0  0
  -25.4273  -15.0509   20.3725 N   0  0  0  0  0  0  0  0  0  0  0  0
  -21.8666  -12.5477   21.5773 N   0  0  0  0  0  0  0  0  0  0  0  0
  -30.0239  -15.7545   21.4493 N   0  0  0  0  0  0  0  0  0  0  0  0
  -36.6772  -27.1482   19.3993 N   0  0  0  0  0  0  0  0  0  0  0  0
  -31.3440  -31.0180   17.6551 N   0  0  0  0  0  0  0  0  0  0  0  0
  -29.0326  -30.4148   14.9418 N   0  3  0  0  0  0  0  0  0  0  0  0
  -22.6186  -14.6933   21.2779 O   0  0  0  0  0  0  0  0  0  0  0  0
  -34.7868  -27.9388   20.5055 O   0  0  0  0  0  0  0  0  0  0  0  0
  -34.1670  -30.6055   17.9172 O   0  0  0  0  0  0  0  0  0  0  0  0
  -29.5546  -29.5458   17.5665 O   0  0  0  0  0  0  0  0  0  0  0  0
  -31.8139  -15.0055   20.1779 O   0  0  0  0  0  0  0  0  0  0  0  0
  -21.6573   -6.9832   21.7425 O   0  0  0  0  0  0  0  0  0  0  0  0
  -30.6103  -23.0127   19.1653 O   0  0  0  0  0  0  0  0  0  1  0  0
  -30.6724  -21.2929   21.3792 O   0  0  0  0  0  0  0  0  0  0  0  0
  -18.6504   -6.8382   26.3622 F   0  0  0  0  0  0  0  0  0  0  0  0
  -32.1123  -19.6804   19.6687 F   0  0  0  0  0  0  0  0  0  0  0  0
  -22.1226   -5.0650   23.6781 F   0  0  0  0  0  0  0  0  0  0  0  0
  1  2  1  0  0  0  0
  1  5  2  0  0  0  0
  2  6  2  0  0  0  0
  3  8  2  0  0  0  0
  3 17  1  0  0  0  0
  4  9  1  0  0  0  0
  4 17  2  0  0  0  0
  5 19  1  0  0  0  0
  6 21  1  0  0  0  0
  7 10  2  0  0  0  0
  7 20  1  0  0  0  0
  8 25  1  0  0  0  0
  9 25  2  0  0  0  0
 10 26  1  0  0  0  0
 11 12  2  0  0  0  0
 11 27  1  0  0  0  0
 12 29  1  0  0  0  0
 13 22  1  0  0  0  0
 13 26  2  0  0  0  0
 14 23  2  0  0  0  0
 14 28  1  0  0  0  0
 15 24  2  0  0  0  0
 15 30  1  0  0  0  0
 16 29  2  0  0  0  0
 16 31  1  0  0  0  0
 17 32  1  0  0  0  0
 18 32  1  0  0  0  0
 18 33  2  0  0  0  0
 18 34  1  0  0  0  0
 19 21  2  0  0  0  0
 19 39  1  0  0  0  0
 20 22  2  0  0  0  0
 20 40  1  0  0  0  0
 21 48  1  0  0  0  0
 22 41  1  0  0  0  0
 23 24  1  0  0  0  0
 23 51  1  0  0  0  0
 24 68  1  0  0  0  0
 25 77  1  0  0  0  0
 26 78  1  0  0  0  0
 27 31  2  0  0  0  0
 27 77  1  0  0  0  0
 28 30  2  0  0  0  0
 28 79  1  0  0  0  0
 29 80  1  0  0  0  0
 30 81  1  0  0  0  0
 31 82  1  0  0  0  0
 32 62  2  0  0  0  0
 33 63  1  0  0  0  0
 33 66  1  0  0  0  0
 34 67  1  0  0  0  0
 34 72  2  0  0  0  0
 35 49  1  0  0  0  0
 35 69  1  0  0  0  0
 35 73  2  0  0  0  0
 36 59  1  0  0  0  0
 36 64  1  0  0  0  0
 36 74  2  0  0  0  0
 37 60  1  0  0  0  0
 37 70  1  0  0  0  0
 37 75  2  0  0  0  0
 38 65  1  0  0  0  0
 38 68  1  0  0  0  0
 38 76  2  0  0  0  0
 39 42  1  0  0  0  0
 40 49  1  0  0  0  0
 41 64  1  0  0  0  0
 42 44  1  0  0  0  0
 43 45  1  0  0  0  0
 43 46  1  0  0  0  0
 44 48  1  0  0  0  0
 45 50  1  0  0  0  0
 46 65  1  0  0  0  0
 47 50  1  0  0  0  0
 47 65  1  0  0  0  0
 48 69  1  0  0  0  0
 49 64  1  0  0  0  0
 50 63  1  0  0  0  0
 52 60  1  0  0  0  0
 53 61  1  0  0  0  0
 54 61  1  0  0  0  0
 55 61  1  0  0  0  0
 56 71  1  0  0  0  0
 57 58  1  0  0  0  0
 57 78  1  0  0  0  0
 58 79  1  0  0  0  0
 59 61  1  0  0  0  0
 59 70  1  0  0  0  0
 60 71  1  0  0  0  0
 62 63  1  0  0  0  0
M  CHG  1  71   1
M  ISO  4  38 100  57 101  68 100  78 101
M  END
> <Batch ID>
0008

> <Smiles>
CNC(C)C(=O)NC(C(=O)N1Cc2cc([101O:1][101CH2:1]COc3cc(C)c([100NH:0][100C:0](=O)N4CCCC(n5nc(-c6ccc(Oc7ccc(F)cc7F)cc6)c(C(N)=O)c5N)C4)cc3F)ccc2CC1C(=O)NC1CCCc2ccccc21)C(C)(C)C

> <Shape>
0.213

> <Color>
0.197

> <Negative vol penalty>
0.000

$$$$

  -OEChem-04042320353D

 86 95  0     1  0  0  0  0  0999 V2000
  -33.5187  -23.7833   20.8827 C   0  0  0  0  0  0  0  0  0  0  0  0
  -32.4489  -23.2310   21.5798 C   0  0  0  0  0  0  0  0  0  0  0  0
  -26.4893  -28.0843   18.9431 C   0  0  0  0  0  0  0  0  0  0  0  0
  -26.1572  -26.8756   21.0085 C   0  0  0  0  0  0  0  0  0  0  0  0
  -33.9831  -23.1695   19.7202 C   0  0  0  0  0  0  0  0  0  0  0  0
  -31.8421  -22.0651   21.1141 C   0  0  0  0  0  0  0  0  0  0  0  0
  -30.9747  -18.7160   24.8122 C   0  0  0  0  0  0  0  0  0  0  0  0
  -23.1855  -18.6508   23.2073 C   0  0  0  0  0  0  0  0  0  0  0  0
  -22.9648  -18.5949   21.8312 C   0  0  0  0  0  0  0  0  0  0  0  0
  -25.9822  -29.2397   19.5377 C   0  0  0  0  0  0  0  0  0  0  0  0
  -25.6502  -28.0310   21.6031 C   0  0  0  0  0  0  0  0  0  0  0  0
  -29.8758  -18.9495   25.6378 C   0  0  0  0  0  0  0  0  0  0  0  0
  -26.8722  -30.8811   22.9463 C   0  0  0  0  0  0  0  0  0  0  0  0
  -27.3230  -31.2002   24.2271 C   0  0  0  0  0  0  0  0  0  0  0  0
  -28.5964  -17.3361   24.3811 C   0  0  0  0  0  0  0  0  0  0  0  0
  -25.5482  -18.9692   22.8155 C   0  0  0  0  0  0  0  0  0  0  0  0
  -25.0573  -31.0729   25.0562 C   0  0  0  0  0  0  0  0  0  0  0  0
  -26.5767  -26.9022   19.6785 C   0  0  0  0  0  0  0  0  0  0  0  0
  -28.4427  -25.2865   19.0339 C   0  0  0  0  0  0  0  0  0  0  0  0
  -33.3879  -21.9901   19.2453 C   0  0  0  0  0  0  0  0  0  0  0  0
  -30.8892  -17.7972   23.7563 C   0  0  0  0  0  0  0  0  0  0  0  0
  -32.2981  -21.4356   19.9434 C   0  0  0  0  0  0  0  0  0  0  0  0
  -29.6964  -17.0908   23.5452 C   0  0  0  0  0  0  0  0  0  0  0  0
  -24.4772  -18.8380   23.6995 C   0  0  0  0  0  0  0  0  0  0  0  0
  -24.0358  -18.7262   20.9472 C   0  0  0  0  0  0  0  0  0  0  0  0
  -25.5627  -29.2131   20.8677 C   0  0  0  0  0  0  0  0  0  0  0  0
  -28.6855  -18.2616   25.4206 C   0  0  0  0  0  0  0  0  0  0  0  0
  -25.5139  -30.6579   22.7204 C   0  0  0  0  0  0  0  0  0  0  0  0
  -26.4155  -31.2961   25.2821 C   0  0  0  0  0  0  0  0  0  0  0  0
  -25.3275  -18.9133   21.4394 C   0  0  0  0  0  0  0  0  0  0  0  0
  -24.6065  -30.7538   23.7754 C   0  0  0  0  0  0  0  0  0  0  0  0
  -27.0999  -25.7083   19.0646 C   0  0  0  0  0  0  0  0  0  0  0  0
  -28.4150  -24.1029   18.3377 C   0  0  0  0  0  0  0  0  0  0  0  0
  -29.6106  -25.9090   19.5855 C   0  0  0  0  0  0  0  0  0  0  0  0
  -31.1538  -17.9831   20.5942 C   0  0  0  0  0  0  0  0  0  0  0  0
  -30.9161  -14.7531   20.7747 C   0  0  0  0  0  0  0  0  0  0  0  0
  -29.8562  -12.0191   22.5207 C   0  0  0  0  0  0  0  0  0  0  0  0
  -24.1409  -20.0113   17.4200 C   0  0  0  0  0  0  0  0  0  0  0  0
  -33.8942  -21.3888   17.9581 C   0  0  0  0  0  0  0  0  0  0  0  0
  -32.0919  -17.5371   22.8913 C   0  0  0  0  0  0  0  0  0  0  0  0
  -29.5594  -16.0791   22.4378 C   0  0  0  0  0  0  0  0  0  0  0  0
  -33.4376  -19.9490   17.7374 C   0  0  0  0  0  0  0  0  0  0  0  0
  -25.9457  -21.8157   14.9374 C   0  0  0  0  0  0  0  0  0  0  0  0
  -24.3478  -21.7918   27.1437 C   0  0  0  0  0  0  0  0  0  0  0  0
  -31.9455  -19.8124   18.0234 C   0  0  0  0  0  0  0  0  0  0  0  0
  -26.5673  -22.9799   15.7108 C   0  0  0  0  0  0  0  0  0  0  0  0
  -25.7637  -21.4832   27.5884 C   0  0  0  0  0  0  0  0  0  0  0  0
  -24.5534  -21.4699   15.4607 C   0  0  0  0  0  0  0  0  0  0  0  0
  -25.1049  -22.3771   17.6848 C   0  0  0  0  0  0  0  0  0  0  0  0
  -24.3195  -21.3375   25.6971 C   0  0  0  0  0  0  0  0  0  0  0  0
  -31.6297  -20.1582   19.4836 C   0  0  1  0  0  0  0  0  0  0  0  0
  -31.7324  -16.9570   21.5269 C   0  0  1  0  0  0  0  0  0  0  0  0
  -26.5323  -22.7261   17.2299 C   0  0  2  0  0  0  0  0  0  0  0  0
  -26.0163  -20.1133   26.9765 C   0  0  2  0  0  0  0  0  0  0  0  0
  -29.7698   -9.5142   22.3963 C   0  0  0  0  0  0  0  0  0  0  0  0
  -28.6276  -14.9343   18.7647 C   0  0  0  0  0  0  0  0  0  0  0  0
  -27.9793  -12.6004   19.3978 C   0  0  0  0  0  0  0  0  0  0  0  0
  -30.2114  -13.0388   18.3741 C   0  0  0  0  0  0  0  0  0  0  0  0
  -31.4912  -11.7251   24.9701 C   0  0  0  0  0  0  0  0  0  0  0  0
  -23.7970  -18.6649   19.4763 C   0  0  0  0  0  0  0  0  0  0  0  0
  -24.7147  -18.8977   25.1797 C   0  0  0  0  0  0  0  0  0  0  0  0
  -27.4879  -19.7917   26.7919 C   0  0  0  0  0  0  0  0  0  1  0  0
  -29.7773  -13.7623   20.7574 C   0  0  1  0  0  0  0  0  0  0  0  0
  -30.5562  -10.7216   22.8827 C   0  0  2  0  0  0  0  0  0  0  0  0
  -29.1505  -13.6044   19.3432 C   0  0  0  0  0  0  0  0  0  0  0  0
  -26.2790  -24.8615   18.4376 N   0  0  0  0  0  0  0  0  0  0  0  0
  -27.1083  -23.8959   18.0063 N   0  0  0  0  0  0  0  0  0  0  0  0
  -30.7613  -15.8645   21.6152 N   0  0  0  0  0  0  0  0  0  0  0  0
  -24.5896  -21.2395   16.9070 N   0  0  0  0  0  0  0  0  0  0  0  0
  -29.3812  -23.2295   17.9827 N   0  0  0  0  0  0  0  0  0  0  0  0
  -29.4605  -27.1224   20.2706 N   0  0  0  0  0  0  0  0  0  0  0  0
  -31.9882  -19.0577   20.3525 N   0  0  0  0  0  0  0  0  0  0  0  0
  -30.3054  -12.5235   21.3186 N   0  0  0  0  0  0  0  0  0  0  0  0
  -24.2154  -19.8729   18.8006 N   0  0  0  0  0  0  0  0  0  0  0  0
  -25.3183  -20.1947   25.6256 N   0  3  1  0  0  0  0  0  0  0  0  0
  -30.7160  -10.6141   24.3605 N   0  3  0  0  0  0  0  0  0  0  0  0
  -30.7556  -25.4125   19.4599 O   0  0  0  0  0  0  0  0  0  0  0  0
  -30.0338  -17.8118   20.1271 O   0  0  0  0  0  0  0  0  0  0  0  0
  -31.9096  -14.5448   20.0738 O   0  0  0  0  0  0  0  0  0  0  0  0
  -28.9944  -12.5317   23.2313 O   0  0  0  0  0  0  0  0  0  0  0  0
  -23.7112  -19.1032   16.7006 O   0  0  0  0  0  0  0  0  0  0  0  0
  -25.0681  -30.3403   21.4484 O   0  0  0  0  0  0  0  0  0  0  0  0
  -27.6112  -18.4881   26.2245 O   0  0  0  0  0  0  0  0  0  1  0  0
  -26.8488  -31.6011   26.5123 F   0  0  0  0  0  0  0  0  0  0  0  0
  -26.3629  -19.0394   20.5976 F   0  0  0  0  0  0  0  0  0  0  0  0
  -23.3006  -30.5393   23.5647 F   0  0  0  0  0  0  0  0  0  0  0  0
  1  2  1  0  0  0  0
  1  5  2  0  0  0  0
  2  6  2  0  0  0  0
  3 10  2  0  0  0  0
  3 18  1  0  0  0  0
  4 11  1  0  0  0  0
  4 18  2  0  0  0  0
  5 20  1  0  0  0  0
  6 22  1  0  0  0  0
  7 12  2  0  0  0  0
  7 21  1  0  0  0  0
  8  9  2  0  0  0  0
  8 24  1  0  0  0  0
  9 25  1  0  0  0  0
 10 26  1  0  0  0  0
 11 26  2  0  0  0  0
 12 27  1  0  0  0  0
 13 14  2  0  0  0  0
 13 28  1  0  0  0  0
 14 29  1  0  0  0  0
 15 23  1  0  0  0  0
 15 27  2  0  0  0  0
 16 24  2  0  0  0  0
 16 30  1  0  0  0  0
 17 29  2  0  0  0  0
 17 31  1  0  0  0  0
 18 32  1  0  0  0  0
 19 32  1  0  0  0  0
 19 33  2  0  0  0  0
 19 34  1  0  0  0  0
 20 22  2  0  0  0  0
 20 39  1  0  0  0  0
 21 23  2  0  0  0  0
 21 40  1  0  0  0  0
 22 51  1  0  0  0  0
 23 41  1  0  0  0  0
 24 61  1  0  0  0  0
 25 30  2  0  0  0  0
 25 60  1  0  0  0  0
 26 82  1  0  0  0  0
 27 83  1  0  0  0  0
 28 31  2  0  0  0  0
 28 82  1  0  0  0  0
 29 84  1  0  0  0  0
 30 85  1  0  0  0  0
 31 86  1  0  0  0  0
 32 66  2  0  0  0  0
 33 67  1  0  0  0  0
 33 70  1  0  0  0  0
 34 71  1  0  0  0  0
 34 77  2  0  0  0  0
 35 52  1  0  0  0  0
 35 72  1  0  0  0  0
 35 78  2  0  0  0  0
 36 63  1  0  0  0  0
 36 68  1  0  0  0  0
 36 79  2  0  0  0  0
 37 64  1  0  0  0  0
 37 73  1  0  0  0  0
 37 80  2  0  0  0  0
 38 69  1  0  0  0  0
 38 74  1  0  0  0  0
 38 81  2  0  0  0  0
 39 42  1  0  0  0  0
 40 52  1  0  0  0  0
 41 68  1  0  0  0  0
 42 45  1  0  0  0  0
 43 46  1  0  0  0  0
 43 48  1  0  0  0  0
 44 47  1  0  0  0  0
 44 50  1  0  0  0  0
 45 51  1  0  0  0  0
 46 53  1  0  0  0  0
 47 54  1  0  0  0  0
 48 69  1  0  0  0  0
 49 53  1  0  0  0  0
 49 69  1  0  0  0  0
 50 75  1  0  0  0  0
 51 72  1  0  0  0  0
 52 68  1  0  0  0  0
 53 67  1  0  0  0  0
 54 62  1  0  0  0  0
 54 75  1  0  0  0  0
 55 64  1  0  0  0  0
 56 65  1  0  0  0  0
 57 65  1  0  0  0  0
 58 65  1  0  0  0  0
 59 76  1  0  0  0  0
 60 74  1  0  0  0  0
 61 75  1  0  0  0  0
 62 83  1  0  0  0  0
 63 65  1  0  0  0  0
 63 73  1  0  0  0  0
 64 76  1  0  0  0  0
 66 67  1  0  0  0  0
M  CHG  2  75   1  76   1
M  ISO  4  38 100  62 101  74 100  83 101
M  END
> <Batch ID>
0008

> <Smiles>
CNC(C)C(=O)NC(C(=O)N1Cc2cc([101O:1][101CH2:1]C3CCCN3Cc3ccc(C[100NH:0][100C:0](=O)N4CCCC(n5nc(-c6ccc(Oc7ccc(F)cc7F)cc6)c(C(N)=O)c5N)C4)c(F)c3)ccc2CC1C(=O)NC1CCCc2ccccc21)C(C)(C)C

> <Shape>
0.181

> <Color>
0.078

> <Negative vol penalty>
0.000

$$$$

  -OEChem-04042320353D

 81 90  0     1  0  0  0  0  0999 V2000
  -27.4800  -30.8122   28.2537 C   0  0  0  0  0  0  0  0  0  0  0  0
  -27.5999  -29.9064   27.2046 C   0  0  0  0  0  0  0  0  0  0  0  0
  -24.6851  -14.6748   22.2576 C   0  0  0  0  0  0  0  0  0  0  0  0
  -27.0832  -14.6313   21.9676 C   0  0  0  0  0  0  0  0  0  0  0  0
  -26.2601  -31.4439   28.4918 C   0  0  0  0  0  0  0  0  0  0  0  0
  -26.4995  -29.6309   26.3937 C   0  0  0  0  0  0  0  0  0  0  0  0
  -27.6800  -29.5777   21.4694 C   0  0  0  0  0  0  0  0  0  0  0  0
  -24.5793  -13.4690   21.5646 C   0  0  0  0  0  0  0  0  0  0  0  0
  -26.9775  -13.4254   21.2745 C   0  0  0  0  0  0  0  0  0  0  0  0
  -28.3171  -28.4384   20.9797 C   0  0  0  0  0  0  0  0  0  0  0  0
  -25.0478  -10.1812   22.2002 C   0  0  0  0  0  0  0  0  0  0  0  0
  -24.2163   -9.1972   22.7347 C   0  0  0  0  0  0  0  0  0  0  0  0
  -26.2135  -27.6454   20.1050 C   0  0  0  0  0  0  0  0  0  0  0  0
  -22.8807   -9.2324   20.7217 C   0  0  0  0  0  0  0  0  0  0  0  0
  -25.9370  -15.2560   22.4591 C   0  0  0  0  0  0  0  0  0  0  0  0
  -26.2179  -16.6738   24.5612 C   0  0  0  0  0  0  0  0  0  0  0  0
  -25.1468  -31.1832   27.6774 C   0  0  0  0  0  0  0  0  0  0  0  0
  -26.3005  -29.7545   21.2899 C   0  0  0  0  0  0  0  0  0  0  0  0
  -25.2632  -30.2586   26.6220 C   0  0  0  0  0  0  0  0  0  0  0  0
  -25.5617  -28.7890   20.5912 C   0  0  0  0  0  0  0  0  0  0  0  0
  -25.7255  -12.8443   21.0730 C   0  0  0  0  0  0  0  0  0  0  0  0
  -27.5834  -27.4707   20.2999 C   0  0  0  0  0  0  0  0  0  0  0  0
  -24.7958  -10.6910   20.9265 C   0  0  0  0  0  0  0  0  0  0  0  0
  -23.1328   -8.7227   21.9955 C   0  0  0  0  0  0  0  0  0  0  0  0
  -23.7122  -10.2166   20.1873 C   0  0  0  0  0  0  0  0  0  0  0  0
  -26.0469  -16.5019   23.1744 C   0  0  0  0  0  0  0  0  0  0  0  0
  -26.2646  -18.0354   24.7352 C   0  0  0  0  0  0  0  0  0  0  0  0
  -26.3252  -15.6905   25.5991 C   0  0  0  0  0  0  0  0  0  0  0  0
  -23.8023  -30.0295   23.2358 C   0  0  0  0  0  0  0  0  0  0  0  0
  -22.2107  -30.6289   20.4735 C   0  0  0  0  0  0  0  0  0  0  0  0
  -22.0563  -30.2729   17.0829 C   0  0  0  0  0  0  0  0  0  0  0  0
  -27.7803  -22.5653   21.3968 C   0  0  0  0  0  0  0  0  0  0  0  0
  -23.8361  -31.8547   28.0029 C   0  0  0  0  0  0  0  0  0  0  0  0
  -25.6330  -31.0018   21.8009 C   0  0  0  0  0  0  0  0  0  0  0  0
  -24.0821  -28.9411   20.3542 C   0  0  0  0  0  0  0  0  0  0  0  0
  -22.8195  -31.7895   26.8660 C   0  0  0  0  0  0  0  0  0  0  0  0
  -24.6905  -22.1214   22.8189 C   0  0  0  0  0  0  0  0  0  0  0  0
  -22.7484  -30.3774   26.2936 C   0  0  0  0  0  0  0  0  0  0  0  0
  -24.6922  -20.6470   23.2224 C   0  0  0  0  0  0  0  0  0  0  0  0
  -30.8577  -22.5626   17.5118 C   0  0  0  0  0  0  0  0  0  0  0  0
  -31.6343  -22.7134   18.8122 C   0  0  0  0  0  0  0  0  0  0  0  0
  -28.4787  -21.9676   18.2641 C   0  0  0  0  0  0  0  0  0  0  0  0
  -25.3190  -22.3109   21.4429 C   0  0  0  0  0  0  0  0  0  0  0  0
  -28.8380  -21.2080   19.5476 C   0  0  0  0  0  0  0  0  0  0  0  0
  -26.7266  -20.2978   21.7353 C   0  0  0  0  0  0  0  0  0  0  0  0
  -30.2054  -22.7745   20.9430 C   0  0  0  0  0  0  0  0  0  0  0  0
  -24.0990  -29.9521   25.7049 C   0  0  1  0  0  0  0  0  0  0  0  0
  -24.1312  -30.8331   22.0095 C   0  0  1  0  0  0  0  0  0  0  0  0
  -26.1071  -20.0483   23.1255 C   0  0  2  0  0  0  0  0  0  0  0  0
  -29.4496  -23.0592   17.7965 C   0  0  1  0  0  0  0  0  0  0  0  0
  -30.7742  -23.5609   19.7530 C   0  0  2  0  0  0  0  0  0  0  0  0
  -20.6171  -30.8379   15.1064 C   0  0  0  0  0  0  0  0  0  0  0  0
  -20.2648  -28.4144   21.2605 C   0  0  0  0  0  0  0  0  0  0  0  0
  -19.4584  -28.3765   18.8906 C   0  0  0  0  0  0  0  0  0  0  0  0
  -19.1909  -30.4414   20.2644 C   0  0  0  0  0  0  0  0  0  0  0  0
  -24.2054  -31.8758   15.8294 C   0  0  0  0  0  0  0  0  0  0  0  0
  -29.9039  -25.4730   18.3641 C   0  0  0  0  0  0  0  0  0  0  0  0
  -29.5708  -26.4865   19.4411 C   0  0  0  0  0  0  0  0  0  1  0  0
  -21.4921  -29.7847   19.4489 C   0  0  1  0  0  0  0  0  0  0  0  0
  -21.7852  -31.2759   15.9761 C   0  0  2  0  0  0  0  0  0  0  0  0
  -20.1291  -29.2502   19.9721 C   0  0  0  0  0  0  0  0  0  0  0  0
  -25.9886  -17.6617   22.5145 N   0  0  0  0  0  0  0  0  0  0  0  0
  -26.1237  -18.5753   23.4907 N   0  0  0  0  0  0  0  0  0  0  0  0
  -23.4739  -30.1750   20.8787 N   0  0  0  0  0  0  0  0  0  0  0  0
  -26.6573  -21.7253   21.3892 N   0  0  0  0  0  0  0  0  0  0  0  0
  -28.9218  -22.1013   20.7127 N   0  0  0  0  0  0  0  0  0  0  0  0
  -26.4118  -18.8115   25.8299 N   0  0  0  0  0  0  0  0  0  0  0  0
  -26.2571  -14.3359   25.2458 N   0  0  0  0  0  0  0  0  0  0  0  0
  -24.3004  -30.5636   24.4088 N   0  0  0  0  0  0  0  0  0  0  0  0
  -21.3909  -30.6023   18.2448 N   0  0  0  0  0  0  0  0  0  0  0  0
  -29.6469  -24.0878   18.8895 N   0  3  1  0  0  0  0  0  0  0  0  0
  -22.9870  -31.4265   15.1078 N   0  3  0  0  0  0  0  0  0  0  0  0
  -26.4604  -16.0041   26.8061 O   0  0  0  0  0  0  0  0  0  0  0  0
  -23.1438  -29.0018   23.1260 O   0  0  0  0  0  0  0  0  0  0  0  0
  -21.6742  -31.6572   20.8935 O   0  0  0  0  0  0  0  0  0  0  0  0
  -22.7825  -29.2931   16.9308 O   0  0  0  0  0  0  0  0  0  0  0  0
  -27.7640  -23.6624   21.9683 O   0  0  0  0  0  0  0  0  0  0  0  0
  -25.6227  -11.6674   20.3969 O   0  0  0  0  0  0  0  0  0  0  0  0
  -28.2071  -26.3494   19.8179 O   0  0  0  0  0  0  0  0  0  1  0  0
  -22.3352   -7.7766   22.5082 F   0  0  0  0  0  0  0  0  0  0  0  0
  -23.4657  -10.7016   18.9626 F   0  0  0  0  0  0  0  0  0  0  0  0
  1  2  1  0  0  0  0
  1  5  2  0  0  0  0
  2  6  2  0  0  0  0
  3  8  2  0  0  0  0
  3 15  1  0  0  0  0
  4  9  1  0  0  0  0
  4 15  2  0  0  0  0
  5 17  1  0  0  0  0
  6 19  1  0  0  0  0
  7 10  2  0  0  0  0
  7 18  1  0  0  0  0
  8 21  1  0  0  0  0
  9 21  2  0  0  0  0
 10 22  1  0  0  0  0
 11 12  2  0  0  0  0
 11 23  1  0  0  0  0
 12 24  1  0  0  0  0
 13 20  1  0  0  0  0
 13 22  2  0  0  0  0
 14 24  2  0  0  0  0
 14 25  1  0  0  0  0
 15 26  1  0  0  0  0
 16 26  1  0  0  0  0
 16 27  2  0  0  0  0
 16 28  1  0  0  0  0
 17 19  2  0  0  0  0
 17 33  1  0  0  0  0
 18 20  2  0  0  0  0
 18 34  1  0  0  0  0
 19 47  1  0  0  0  0
 20 35  1  0  0  0  0
 21 78  1  0  0  0  0
 22 79  1  0  0  0  0
 23 25  2  0  0  0  0
 23 78  1  0  0  0  0
 24 80  1  0  0  0  0
 25 81  1  0  0  0  0
 26 62  2  0  0  0  0
 27 63  1  0  0  0  0
 27 67  1  0  0  0  0
 28 68  1  0  0  0  0
 28 73  2  0  0  0  0
 29 48  1  0  0  0  0
 29 69  1  0  0  0  0
 29 74  2  0  0  0  0
 30 59  1  0  0  0  0
 30 64  1  0  0  0  0
 30 75  2  0  0  0  0
 31 60  1  0  0  0  0
 31 70  1  0  0  0  0
 31 76  2  0  0  0  0
 32 65  1  0  0  0  0
 32 66  1  0  0  0  0
 32 77  2  0  0  0  0
 33 36  1  0  0  0  0
 34 48  1  0  0  0  0
 35 64  1  0  0  0  0
 36 38  1  0  0  0  0
 37 39  1  0  0  0  0
 37 43  1  0  0  0  0
 38 47  1  0  0  0  0
 39 49  1  0  0  0  0
 40 41  1  0  0  0  0
 40 50  1  0  0  0  0
 41 51  1  0  0  0  0
 42 44  1  0  0  0  0
 42 50  1  0  0  0  0
 43 65  1  0  0  0  0
 44 66  1  0  0  0  0
 45 49  1  0  0  0  0
 45 65  1  0  0  0  0
 46 51  1  0  0  0  0
 46 66  1  0  0  0  0
 47 69  1  0  0  0  0
 48 64  1  0  0  0  0
 49 63  1  0  0  0  0
 50 71  1  0  0  0  0
 51 71  1  0  0  0  0
 52 60  1  0  0  0  0
 53 61  1  0  0  0  0
 54 61  1  0  0  0  0
 55 61  1  0  0  0  0
 56 72  1  0  0  0  0
 57 58  1  0  0  0  0
 57 71  1  0  0  0  0
 58 79  1  0  0  0  0
 59 61  1  0  0  0  0
 59 70  1  0  0  0  0
 60 72  1  0  0  0  0
 62 63  1  0  0  0  0
M  CHG  2  71   1  72   1
M  ISO  4  32 100  58 101  66 100  79 101
M  END
> <Batch ID>
0008

> <Smiles>
CNC(C)C(=O)NC(C(=O)N1Cc2cc([101O:1][101CH2:1]CN3C4CCC3C[100N:0]([100C:0](=O)N3CCCC(n5nc(-c6ccc(Oc7ccc(F)cc7F)cc6)c(C(N)=O)c5N)C3)CC4)ccc2CC1C(=O)NC1CCCc2ccccc21)C(C)(C)C

> <Shape>
0.235

> <Color>
0.080

> <Negative vol penalty>
0.000

$$$$

  -OEChem-04042320353D

 80 88  0     1  0  0  0  0  0999 V2000
  -29.1891  -23.9630   16.1959 C   0  0  0  0  0  0  0  0  0  0  0  0
  -27.9600  -23.8189   16.8315 C   0  0  0  0  0  0  0  0  0  0  0  0
  -27.2519  -16.5704   18.9503 C   0  0  0  0  0  0  0  0  0  0  0  0
  -27.0462  -17.3630   21.2233 C   0  0  0  0  0  0  0  0  0  0  0  0
  -30.1896  -24.7365   16.7828 C   0  0  0  0  0  0  0  0  0  0  0  0
  -27.7311  -24.4473   18.0550 C   0  0  0  0  0  0  0  0  0  0  0  0
  -22.4463  -26.8175   20.0448 C   0  0  0  0  0  0  0  0  0  0  0  0
  -18.5472  -23.1139   22.5569 C   0  0  0  0  0  0  0  0  0  0  0  0
  -28.5864  -16.9755   18.9298 C   0  0  0  0  0  0  0  0  0  0  0  0
  -28.3808  -17.7680   21.2029 C   0  0  0  0  0  0  0  0  0  0  0  0
  -21.4588  -26.3242   20.8964 C   0  0  0  0  0  0  0  0  0  0  0  0
  -18.8785  -24.4650   22.6584 C   0  0  0  0  0  0  0  0  0  0  0  0
  -31.6313  -19.3377   21.6275 C   0  0  0  0  0  0  0  0  0  0  0  0
  -31.9347  -20.5966   22.1457 C   0  0  0  0  0  0  0  0  0  0  0  0
  -22.4717  -27.5007   22.7427 C   0  0  0  0  0  0  0  0  0  0  0  0
  -30.4836  -21.6206   20.5077 C   0  0  0  0  0  0  0  0  0  0  0  0
  -26.4817  -16.7642   20.0970 C   0  0  0  0  0  0  0  0  0  0  0  0
  -24.6010  -15.0912   20.5111 C   0  0  0  0  0  0  0  0  0  0  0  0
  -29.9696  -25.3826   18.0095 C   0  0  0  0  0  0  0  0  0  0  0  0
  -23.4620  -27.6487   20.5388 C   0  0  0  0  0  0  0  0  0  0  0  0
  -28.7302  -25.2291   18.6596 C   0  0  0  0  0  0  0  0  0  0  0  0
  -23.4695  -28.0053   21.8948 C   0  0  0  0  0  0  0  0  0  0  0  0
  -19.5203  -22.1388   22.7759 C   0  0  0  0  0  0  0  0  0  0  0  0
  -29.1509  -17.5743   20.0561 C   0  0  0  0  0  0  0  0  0  0  0  0
  -21.4730  -26.6635   22.2461 C   0  0  0  0  0  0  0  0  0  0  0  0
  -20.1829  -24.8411   22.9790 C   0  0  0  0  0  0  0  0  0  1  0  0
  -30.7541  -19.2201   20.5494 C   0  0  0  0  0  0  0  0  0  0  0  0
  -31.3609  -21.7381   21.5858 C   0  0  0  0  0  0  0  0  0  0  0  0
  -30.1802  -20.3616   19.9895 C   0  0  0  0  0  0  0  0  0  0  0  0
  -20.8247  -22.5149   23.0965 C   0  0  0  0  0  0  0  0  0  0  0  0
  -21.1560  -23.8660   23.1980 C   0  0  0  0  0  0  0  0  0  0  0  0
  -25.1029  -16.3465   20.1186 C   0  0  0  0  0  0  0  0  0  0  0  0
  -23.2412  -15.1998   20.3511 C   0  0  0  0  0  0  0  0  0  0  0  0
  -25.3013  -13.9307   20.9786 C   0  0  0  0  0  0  0  0  0  0  0  0
  -26.6280  -27.4466   20.7372 C   0  0  0  0  0  0  0  0  0  0  0  0
  -26.3665  -30.5006   21.7989 C   0  0  0  0  0  0  0  0  0  0  0  0
  -24.4352  -32.9039   23.2621 C   0  0  0  0  0  0  0  0  0  0  0  0
  -19.4960  -19.8714   20.3497 C   0  0  0  0  0  0  0  0  0  0  0  0
  -31.0977  -26.1696   18.6281 C   0  0  0  0  0  0  0  0  0  0  0  0
  -24.5047  -28.1941   19.6019 C   0  0  0  0  0  0  0  0  0  0  0  0
  -24.5263  -28.9108   22.4708 C   0  0  0  0  0  0  0  0  0  0  0  0
  -30.6455  -27.1080   19.7439 C   0  0  0  0  0  0  0  0  0  0  0  0
  -19.9490  -17.4901   17.7420 C   0  0  0  0  0  0  0  0  0  0  0  0
  -29.7026  -26.3848   20.7003 C   0  0  0  0  0  0  0  0  0  0  0  0
  -21.2760  -16.8137   18.0908 C   0  0  0  0  0  0  0  0  0  0  0  0
  -19.9657  -18.9774   18.0878 C   0  0  0  0  0  0  0  0  0  0  0  0
  -21.6711  -18.6090   19.8284 C   0  0  0  0  0  0  0  0  0  0  0  0
  -28.4353  -25.9154   19.9757 C   0  0  1  0  0  0  0  0  0  0  0  0
  -25.7857  -28.6169   20.3144 C   0  0  1  0  0  0  0  0  0  0  0  0
  -21.6830  -17.0963   19.5494 C   0  0  2  0  0  0  0  0  0  0  0  0
  -24.5091  -35.2904   24.0342 C   0  0  0  0  0  0  0  0  0  0  0  0
  -27.9864  -29.6571   24.2432 C   0  0  0  0  0  0  0  0  0  0  0  0
  -27.2251  -31.7516   25.3839 C   0  0  0  0  0  0  0  0  0  0  0  0
  -28.5991  -31.8936   23.3067 C   0  0  0  0  0  0  0  0  0  0  0  0
  -22.2753  -33.6948   21.3998 C   0  0  0  0  0  0  0  0  0  0  0  0
  -19.1628  -20.6950   22.6670 C   0  0  0  0  0  0  0  0  0  0  0  0
  -26.1874  -31.1513   23.1493 C   0  0  1  0  0  0  0  0  0  0  0  0
  -24.1718  -34.3511   22.8868 C   0  0  2  0  0  0  0  0  0  0  0  0
  -27.4806  -31.0948   24.0106 C   0  0  0  0  0  0  0  0  0  0  0  0
  -24.1403  -17.1905   19.7377 N   0  0  0  0  0  0  0  0  0  0  0  0
  -23.0199  -16.4642   19.8901 N   0  0  0  0  0  0  0  0  0  0  0  0
  -25.5277  -29.4134   21.5158 N   0  0  0  0  0  0  0  0  0  0  0  0
  -20.3578  -19.1767   19.4851 N   0  0  0  0  0  0  0  0  0  0  0  0
  -22.2251  -14.3361   20.5610 N   0  0  0  0  0  0  0  0  0  0  0  0
  -26.6977  -13.9902   21.0835 N   0  0  0  0  0  0  0  0  0  0  0  0
  -27.5269  -27.0243   19.7764 N   0  0  0  0  0  0  0  0  0  0  0  0
  -25.7007  -32.5020   22.8901 N   0  0  0  0  0  0  0  0  0  0  0  0
  -19.9409  -20.0105   21.6587 N   0  0  0  0  0  0  0  0  0  0  0  0
  -22.7373  -34.5409   22.5301 N   0  3  0  0  0  0  0  0  0  0  0  0
  -24.7079  -12.8670   21.2784 O   0  0  0  0  0  0  0  0  0  0  0  0
  -26.4747  -26.9636   21.8529 O   0  0  0  0  0  0  0  0  0  0  0  0
  -27.2145  -30.9452   21.0211 O   0  0  0  0  0  0  0  0  0  0  0  0
  -23.6030  -32.2014   23.8317 O   0  0  0  0  0  0  0  0  0  0  0  0
  -18.4080  -20.3290   19.9837 O   0  0  0  0  0  0  0  0  0  0  0  0
  -30.4532  -17.9695   20.0365 O   0  0  0  0  0  0  0  0  0  0  0  0
  -20.5106  -26.1829   23.0796 O   0  0  0  0  0  0  0  0  0  1  0  0
  -31.6512  -22.9469   22.0846 F   0  0  0  0  0  0  0  0  0  0  0  0
  -29.3359  -20.2549   18.9544 F   0  0  0  0  0  0  0  0  0  0  0  0
  -21.7665  -21.5851   23.3085 F   0  0  0  0  0  0  0  0  0  0  0  0
  -22.4110  -24.2210   23.5060 F   0  0  0  0  0  0  0  0  0  0  0  0
  1  2  1  0  0  0  0
  1  5  2  0  0  0  0
  2  6  2  0  0  0  0
  3  9  2  0  0  0  0
  3 17  1  0  0  0  0
  4 10  1  0  0  0  0
  4 17  2  0  0  0  0
  5 19  1  0  0  0  0
  6 21  1  0  0  0  0
  7 11  2  0  0  0  0
  7 20  1  0  0  0  0
  8 12  2  0  0  0  0
  8 23  1  0  0  0  0
  9 24  1  0  0  0  0
 10 24  2  0  0  0  0
 11 25  1  0  0  0  0
 12 26  1  0  0  0  0
 13 14  2  0  0  0  0
 13 27  1  0  0  0  0
 14 28  1  0  0  0  0
 15 22  1  0  0  0  0
 15 25  2  0  0  0  0
 16 28  2  0  0  0  0
 16 29  1  0  0  0  0
 17 32  1  0  0  0  0
 18 32  1  0  0  0  0
 18 33  2  0  0  0  0
 18 34  1  0  0  0  0
 19 21  2  0  0  0  0
 19 39  1  0  0  0  0
 20 22  2  0  0  0  0
 20 40  1  0  0  0  0
 21 48  1  0  0  0  0
 22 41  1  0  0  0  0
 23 30  2  0  0  0  0
 23 56  1  0  0  0  0
 24 75  1  0  0  0  0
 25 76  1  0  0  0  0
 26 31  2  0  0  0  0
 26 76  1  0  0  0  0
 27 29  2  0  0  0  0
 27 75  1  0  0  0  0
 28 77  1  0  0  0  0
 29 78  1  0  0  0  0
 30 31  1  0  0  0  0
 30 79  1  0  0  0  0
 31 80  1  0  0  0  0
 32 60  2  0  0  0  0
 33 61  1  0  0  0  0
 33 64  1  0  0  0  0
 34 65  1  0  0  0  0
 34 70  2  0  0  0  0
 35 49  1  0  0  0  0
 35 66  1  0  0  0  0
 35 71  2  0  0  0  0
 36 57  1  0  0  0  0
 36 62  1  0  0  0  0
 36 72  2  0  0  0  0
 37 58  1  0  0  0  0
 37 67  1  0  0  0  0
 37 73  2  0  0  0  0
 38 63  1  0  0  0  0
 38 68  1  0  0  0  0
 38 74  2  0  0  0  0
 39 42  1  0  0  0  0
 40 49  1  0  0  0  0
 41 62  1  0  0  0  0
 42 44  1  0  0  0  0
 43 45  1  0  0  0  0
 43 46  1  0  0  0  0
 44 48  1  0  0  0  0
 45 50  1  0  0  0  0
 46 63  1  0  0  0  0
 47 50  1  0  0  0  0
 47 63  1  0  0  0  0
 48 66  1  0  0  0  0
 49 62  1  0  0  0  0
 50 61  1  0  0  0  0
 51 58  1  0  0  0  0
 52 59  1  0  0  0  0
 53 59  1  0  0  0  0
 54 59  1  0  0  0  0
 55 69  1  0  0  0  0
 56 68  1  0  0  0  0
 57 59  1  0  0  0  0
 57 67  1  0  0  0  0
 58 69  1  0  0  0  0
 60 61  1  0  0  0  0
M  CHG  1  69   1
M  ISO  4  26 101  38 100  68 100  76 101
M  END
> <Batch ID>
0008

> <Smiles>
CNC(C)C(=O)NC(C(=O)N1Cc2cc([101O:1][101c:1]3ccc(C[100NH:0][100C:0](=O)N4CCCC(n5nc(-c6ccc(Oc7ccc(F)cc7F)cc6)c(C(N)=O)c5N)C4)c(F)c3F)ccc2CC1C(=O)NC1CCCc2ccccc21)C(C)(C)C

> <Shape>
0.235

> <Color>
0.060

> <Negative vol penalty>
0.000

$$$$

  -OEChem-04042320353D

 86 95  0     1  0  0  0  0  0999 V2000
  -27.9555  -31.1471   14.7782 C   0  0  0  0  0  0  0  0  0  0  0  0
  -27.4472  -29.8591   14.9123 C   0  0  0  0  0  0  0  0  0  0  0  0
  -23.0594   -9.9210   19.9074 C   0  0  0  0  0  0  0  0  0  0  0  0
  -23.8464   -9.8498   22.1905 C   0  0  0  0  0  0  0  0  0  0  0  0
  -28.8789  -31.6308   15.7041 C   0  0  0  0  0  0  0  0  0  0  0  0
  -27.8627  -29.0536   15.9720 C   0  0  0  0  0  0  0  0  0  0  0  0
  -24.4935  -24.9402   19.0107 C   0  0  0  0  0  0  0  0  0  0  0  0
  -26.9184  -19.0620   22.1180 C   0  0  0  0  0  0  0  0  0  0  0  0
  -28.2785  -18.7637   22.1988 C   0  0  0  0  0  0  0  0  0  0  0  0
  -22.3296   -8.7520   20.1224 C   0  0  0  0  0  0  0  0  0  0  0  0
  -23.1165   -8.6807   22.4056 C   0  0  0  0  0  0  0  0  0  0  0  0
  -24.3843  -23.5544   18.9042 C   0  0  0  0  0  0  0  0  0  0  0  0
  -23.4326   -5.3850   21.7206 C   0  0  0  0  0  0  0  0  0  0  0  0
  -24.0663   -4.3397   22.3924 C   0  0  0  0  0  0  0  0  0  0  0  0
  -25.9824  -23.2969   20.6927 C   0  0  0  0  0  0  0  0  0  0  0  0
  -26.9950  -18.7620   19.7219 C   0  0  0  0  0  0  0  0  0  0  0  0
  -22.3837   -4.4323   24.1237 C   0  0  0  0  0  0  0  0  0  0  0  0
  -23.8178  -10.4699   20.9414 C   0  0  0  0  0  0  0  0  0  0  0  0
  -24.1341  -13.0011   20.9124 C   0  0  0  0  0  0  0  0  0  0  0  0
  -29.2986  -30.8343   16.7812 C   0  0  0  0  0  0  0  0  0  0  0  0
  -25.3576  -25.5157   19.9533 C   0  0  0  0  0  0  0  0  0  0  0  0
  -28.7935  -29.5266   16.9125 C   0  0  0  0  0  0  0  0  0  0  0  0
  -26.0989  -24.6903   20.8109 C   0  0  0  0  0  0  0  0  0  0  0  0
  -26.2765  -19.0611   20.8795 C   0  0  0  0  0  0  0  0  0  0  0  0
  -28.9969  -18.4646   21.0412 C   0  0  0  0  0  0  0  0  0  0  0  0
  -22.3581   -8.1318   21.3715 C   0  0  0  0  0  0  0  0  0  0  0  0
  -25.1310  -22.7325   19.7432 C   0  0  0  0  0  0  0  0  0  0  0  0
  -22.2744   -5.9540   22.2504 C   0  0  0  0  0  0  0  0  0  0  0  0
  -23.5419   -3.8633   23.5940 C   0  0  0  0  0  0  0  0  0  0  0  0
  -28.3552  -18.4638   19.8027 C   0  0  0  0  0  0  0  0  0  0  0  0
  -21.7500   -5.4776   23.4519 C   0  0  0  0  0  0  0  0  0  0  0  0
  -24.5724  -11.6772   20.7198 C   0  0  0  0  0  0  0  0  0  0  0  0
  -25.2146  -13.7745   20.5650 C   0  0  0  0  0  0  0  0  0  0  0  0
  -22.8638  -13.4881   21.3650 C   0  0  0  0  0  0  0  0  0  0  0  0
  -27.9215  -27.3881   19.7968 C   0  0  0  0  0  0  0  0  0  0  0  0
  -27.6201  -27.4117   23.0265 C   0  0  0  0  0  0  0  0  0  0  0  0
  -26.4590  -25.8668   25.8393 C   0  0  0  0  0  0  0  0  0  0  0  0
  -30.6902  -14.8406   20.7283 C   0  0  0  0  0  0  0  0  0  0  0  0
  -30.3343  -31.3836   17.7300 C   0  0  0  0  0  0  0  0  0  0  0  0
  -25.4440  -27.0125   20.0738 C   0  0  0  0  0  0  0  0  0  0  0  0
  -27.0257  -25.2586   21.8533 C   0  0  0  0  0  0  0  0  0  0  0  0
  -30.4396  -30.6009   19.0363 C   0  0  0  0  0  0  0  0  0  0  0  0
  -29.5472  -12.5358   18.2670 C   0  0  0  0  0  0  0  0  0  0  0  0
  -30.4841  -29.1017   18.7583 C   0  0  0  0  0  0  0  0  0  0  0  0
  -28.1179  -12.2117   18.7051 C   0  0  0  0  0  0  0  0  0  0  0  0
  -32.8414  -20.4755   20.9313 C   0  0  0  0  0  0  0  0  0  0  0  0
  -30.4764  -12.7207   19.4647 C   0  0  0  0  0  0  0  0  0  0  0  0
  -28.5843  -13.3803   20.8995 C   0  0  0  0  0  0  0  0  0  0  0  0
  -31.3465  -20.3633   20.5972 C   0  0  0  0  0  0  0  0  0  0  0  0
  -32.7100  -19.0371   21.4534 C   0  0  0  0  0  0  0  0  0  0  0  0
  -29.2011  -28.6314   18.0625 C   0  0  1  0  0  0  0  0  0  0  0  0
  -26.7414  -27.4859   20.7217 C   0  0  1  0  0  0  0  0  0  0  0  0
  -27.5980  -13.2402   19.7274 C   0  0  2  0  0  0  0  0  0  0  0  0
  -26.3989  -26.1071   28.3365 C   0  0  0  0  0  0  0  0  0  0  0  0
  -30.5349  -26.5223   23.1797 C   0  0  0  0  0  0  0  0  0  0  0  0
  -30.1384  -25.8722   25.5647 C   0  0  0  0  0  0  0  0  0  0  0  0
  -29.8821  -28.2524   24.8636 C   0  0  0  0  0  0  0  0  0  0  0  0
  -23.5019  -25.9839   25.8730 C   0  0  0  0  0  0  0  0  0  0  0  0
  -24.8084  -19.3834   20.7921 C   0  0  0  0  0  0  0  0  0  0  0  0
  -30.7502  -16.9439   22.0442 C   0  0  0  0  0  0  0  0  0  0  0  0
  -30.4515  -18.1472   21.1306 C   0  0  2  0  0  0  0  0  0  0  0  0
  -28.1447  -26.5577   24.1554 C   0  0  1  0  0  0  0  0  0  0  0  0
  -25.6777  -26.3949   27.0289 C   0  0  2  0  0  0  0  0  0  0  0  0
  -29.6591  -26.7901   24.4200 C   0  0  0  0  0  0  0  0  0  0  0  0
  -25.8331  -11.6098   20.2836 N   0  0  0  0  0  0  0  0  0  0  0  0
  -26.1961  -12.9010   20.1993 N   0  0  0  0  0  0  0  0  0  0  0  0
  -27.0803  -26.7279   21.9279 N   0  0  0  0  0  0  0  0  0  0  0  0
  -29.9266  -13.7098   20.3949 N   0  0  0  0  0  0  0  0  0  0  0  0
  -25.4114  -15.1098   20.5396 N   0  0  0  0  0  0  0  0  0  0  0  0
  -21.8647  -12.5569   21.6795 N   0  0  0  0  0  0  0  0  0  0  0  0
  -28.1217  -28.5127   19.0192 N   0  0  0  0  0  0  0  0  0  0  0  0
  -27.2886  -26.8298   25.3049 N   0  0  0  0  0  0  0  0  0  0  0  0
  -30.0923  -15.7312   21.6115 N   0  0  0  0  0  0  0  0  0  0  0  0
  -24.5597  -20.8134   20.9060 N   0  0  0  0  0  0  0  0  0  1  0  0
  -31.2633  -19.2886   21.6058 N   0  3  0  0  0  0  0  0  0  0  0  0
  -24.3301  -25.7612   27.0861 N   0  3  0  0  0  0  0  0  0  0  0  0
  -22.6165  -14.7133   21.4712 O   0  0  0  0  0  0  0  0  0  0  0  0
  -28.6010  -26.3683   19.7901 O   0  0  0  0  0  0  0  0  0  0  0  0
  -27.6804  -28.6402   23.1191 O   0  0  0  0  0  0  0  0  0  0  0  0
  -26.3474  -24.7141   25.4277 O   0  0  0  0  0  0  0  0  0  0  0  0
  -31.8190  -15.0442   20.2686 O   0  0  0  0  0  0  0  0  0  0  0  0
  -21.6459   -6.9911   21.5818 O   0  0  0  0  0  0  0  0  0  0  0  0
  -25.0268  -21.3795   19.6408 O   0  0  0  0  0  0  0  0  0  1  0  0
  -24.1497   -2.8585   24.2382 F   0  0  0  0  0  0  0  0  0  0  0  0
  -29.0376  -18.1785   18.6849 F   0  0  0  0  0  0  0  0  0  0  0  0
  -20.6370   -6.0195   23.9652 F   0  0  0  0  0  0  0  0  0  0  0  0
  1  2  1  0  0  0  0
  1  5  2  0  0  0  0
  2  6  2  0  0  0  0
  3 10  2  0  0  0  0
  3 18  1  0  0  0  0
  4 11  1  0  0  0  0
  4 18  2  0  0  0  0
  5 20  1  0  0  0  0
  6 22  1  0  0  0  0
  7 12  2  0  0  0  0
  7 21  1  0  0  0  0
  8  9  2  0  0  0  0
  8 24  1  0  0  0  0
  9 25  1  0  0  0  0
 10 26  1  0  0  0  0
 11 26  2  0  0  0  0
 12 27  1  0  0  0  0
 13 14  2  0  0  0  0
 13 28  1  0  0  0  0
 14 29  1  0  0  0  0
 15 23  1  0  0  0  0
 15 27  2  0  0  0  0
 16 24  2  0  0  0  0
 16 30  1  0  0  0  0
 17 29  2  0  0  0  0
 17 31  1  0  0  0  0
 18 32  1  0  0  0  0
 19 32  1  0  0  0  0
 19 33  2  0  0  0  0
 19 34  1  0  0  0  0
 20 22  2  0  0  0  0
 20 39  1  0  0  0  0
 21 23  2  0  0  0  0
 21 40  1  0  0  0  0
 22 51  1  0  0  0  0
 23 41  1  0  0  0  0
 24 59  1  0  0  0  0
 25 30  2  0  0  0  0
 25 61  1  0  0  0  0
 26 82  1  0  0  0  0
 27 83  1  0  0  0  0
 28 31  2  0  0  0  0
 28 82  1  0  0  0  0
 29 84  1  0  0  0  0
 30 85  1  0  0  0  0
 31 86  1  0  0  0  0
 32 65  2  0  0  0  0
 33 66  1  0  0  0  0
 33 69  1  0  0  0  0
 34 70  1  0  0  0  0
 34 77  2  0  0  0  0
 35 52  1  0  0  0  0
 35 71  1  0  0  0  0
 35 78  2  0  0  0  0
 36 62  1  0  0  0  0
 36 67  1  0  0  0  0
 36 79  2  0  0  0  0
 37 63  1  0  0  0  0
 37 72  1  0  0  0  0
 37 80  2  0  0  0  0
 38 68  1  0  0  0  0
 38 73  1  0  0  0  0
 38 81  2  0  0  0  0
 39 42  1  0  0  0  0
 40 52  1  0  0  0  0
 41 67  1  0  0  0  0
 42 44  1  0  0  0  0
 43 45  1  0  0  0  0
 43 47  1  0  0  0  0
 44 51  1  0  0  0  0
 45 53  1  0  0  0  0
 46 49  1  0  0  0  0
 46 50  1  0  0  0  0
 47 68  1  0  0  0  0
 48 53  1  0  0  0  0
 48 68  1  0  0  0  0
 49 75  1  0  0  0  0
 50 75  1  0  0  0  0
 51 71  1  0  0  0  0
 52 67  1  0  0  0  0
 53 66  1  0  0  0  0
 54 63  1  0  0  0  0
 55 64  1  0  0  0  0
 56 64  1  0  0  0  0
 57 64  1  0  0  0  0
 58 76  1  0  0  0  0
 59 74  1  0  0  0  0
 60 61  1  0  0  0  0
 60 73  1  0  0  0  0
 61 75  1  0  0  0  0
 62 64  1  0  0  0  0
 62 72  1  0  0  0  0
 63 76  1  0  0  0  0
 65 66  1  0  0  0  0
 74 83  1  0  0  0  0
M  CHG  2  75   1  76   1
M  ISO  4  38 100  73 100  74 101  83 101
M  END
> <Batch ID>
0008

> <Smiles>
CNC(C)C(=O)NC(C(=O)N1Cc2cc([101O:1][101NH:1]Cc3ccc(C(C[100NH:0][100C:0](=O)N4CCCC(n5nc(-c6ccc(Oc7ccc(F)cc7F)cc6)c(C(N)=O)c5N)C4)N4CCC4)c(F)c3)ccc2CC1C(=O)NC1CCCc2ccccc21)C(C)(C)C

> <Shape>
0.236

> <Color>
0.212

> <Negative vol penalty>
0.000

$$$$

  -OEChem-04042320353D

 79 87  0     1  0  0  0  0  0999 V2000
  -28.0836  -37.0373   21.1610 C   0  0  0  0  0  0  0  0  0  0  0  0
  -28.4933  -35.7188   20.9901 C   0  0  0  0  0  0  0  0  0  0  0  0
  -26.8786  -12.7373   21.8102 C   0  0  0  0  0  0  0  0  0  0  0  0
  -26.2304  -14.3669   20.1484 C   0  0  0  0  0  0  0  0  0  0  0  0
  -26.9671  -37.3230   21.9456 C   0  0  0  0  0  0  0  0  0  0  0  0
  -27.7873  -34.6853   21.6048 C   0  0  0  0  0  0  0  0  0  0  0  0
  -26.8428  -29.0511   19.3981 C   0  0  0  0  0  0  0  0  0  0  0  0
  -29.9120  -23.9372   21.6534 C   0  0  0  0  0  0  0  0  0  0  0  0
  -30.3901  -22.6753   22.0063 C   0  0  0  0  0  0  0  0  0  0  0  0
  -25.5587  -12.2931   21.8894 C   0  0  0  0  0  0  0  0  0  0  0  0
  -24.9105  -13.9227   20.2276 C   0  0  0  0  0  0  0  0  0  0  0  0
  -27.4768  -27.8323   19.6354 C   0  0  0  0  0  0  0  0  0  0  0  0
  -22.4262  -10.4874   22.2655 C   0  0  0  0  0  0  0  0  0  0  0  0
  -22.2047   -9.1103   22.2726 C   0  0  0  0  0  0  0  0  0  0  0  0
  -25.7890  -27.2790   21.2677 C   0  0  0  0  0  0  0  0  0  0  0  0
  -29.5679  -21.7799   19.9185 C   0  0  0  0  0  0  0  0  0  0  0  0
  -23.2649   -8.9286   20.1092 C   0  0  0  0  0  0  0  0  0  0  0  0
  -27.2144  -13.7743   20.9397 C   0  0  0  0  0  0  0  0  0  0  0  0
  -29.5850  -13.7578   19.9976 C   0  0  0  0  0  0  0  0  0  0  0  0
  -26.2413  -36.2916   22.5624 C   0  0  0  0  0  0  0  0  0  0  0  0
  -25.6813  -29.3983   20.1028 C   0  0  0  0  0  0  0  0  0  0  0  0
  -26.6608  -34.9575   22.3995 C   0  0  0  0  0  0  0  0  0  0  0  0
  -25.1407  -28.5017   21.0356 C   0  0  0  0  0  0  0  0  0  0  0  0
  -29.2617  -24.1205   20.4330 C   0  0  0  0  0  0  0  0  0  0  0  0
  -30.2181  -21.5966   21.1389 C   0  0  0  0  0  0  0  0  0  0  0  0
  -24.5747  -12.8858   21.0981 C   0  0  0  0  0  0  0  0  0  0  0  0
  -26.9516  -26.9473   20.5724 C   0  0  0  0  0  0  0  0  0  0  0  0
  -23.0669  -11.0852   21.1802 C   0  0  0  0  0  0  0  0  0  0  0  0
  -22.6241   -8.3309   21.1945 C   0  0  0  0  0  0  0  0  0  0  0  0
  -29.0897  -23.0418   19.5656 C   0  0  0  0  0  0  0  0  0  0  0  0
  -23.4863  -10.3058   20.1021 C   0  0  0  0  0  0  0  0  0  0  0  0
  -28.5775  -14.2339   20.8578 C   0  0  0  0  0  0  0  0  0  0  0  0
  -30.6881  -14.5148   20.3085 C   0  0  0  0  0  0  0  0  0  0  0  0
  -29.5288  -12.7236   19.0061 C   0  0  0  0  0  0  0  0  0  0  0  0
  -24.8922  -31.7254   22.1191 C   0  0  0  0  0  0  0  0  0  0  0  0
  -21.9349  -30.4185   21.8581 C   0  0  0  0  0  0  0  0  0  0  0  0
  -20.0316  -27.6759   21.1493 C   0  0  0  0  0  0  0  0  0  0  0  0
  -31.3673  -19.9608   22.6717 C   0  0  0  0  0  0  0  0  0  0  0  0
  -25.0691  -36.6531   23.4398 C   0  0  0  0  0  0  0  0  0  0  0  0
  -24.9943  -30.7053   19.8159 C   0  0  0  0  0  0  0  0  0  0  0  0
  -23.8846  -28.8183   21.8040 C   0  0  0  0  0  0  0  0  0  0  0  0
  -24.1541  -35.4715   23.7512 C   0  0  0  0  0  0  0  0  0  0  0  0
  -32.6837  -16.9076   23.9453 C   0  0  0  0  0  0  0  0  0  0  0  0
  -24.9758  -34.2543   24.1636 C   0  0  0  0  0  0  0  0  0  0  0  0
  -31.8759  -15.8320   23.2153 C   0  0  0  0  0  0  0  0  0  0  0  0
  -31.8282  -18.1270   24.2841 C   0  0  0  0  0  0  0  0  0  0  0  0
  -30.2957  -17.6363   22.4187 C   0  0  0  0  0  0  0  0  0  0  0  0
  -25.9064  -33.8070   23.0298 C   0  0  1  0  0  0  0  0  0  0  0  0
  -24.1054  -31.1773   20.9624 C   0  0  1  0  0  0  0  0  0  0  0  0
  -31.1307  -16.4155   21.9989 C   0  0  2  0  0  0  0  0  0  0  0  0
  -17.6456  -26.9035   21.0599 C   0  0  0  0  0  0  0  0  0  0  0  0
  -21.8790  -30.2460   24.9040 C   0  0  0  0  0  0  0  0  0  0  0  0
  -19.9638  -28.6454   24.7087 C   0  0  0  0  0  0  0  0  0  0  0  0
  -19.7276  -30.9796   23.8611 C   0  0  0  0  0  0  0  0  0  0  0  0
  -20.2122  -27.0776   18.2565 C   0  0  0  0  0  0  0  0  0  0  0  0
  -28.7507  -25.4800   20.0564 C   0  0  0  0  0  0  0  0  0  1  0  0
  -21.1740  -29.3402   22.5913 C   0  0  1  0  0  0  0  0  0  0  0  0
  -18.8031  -27.5010   20.2749 C   0  0  2  0  0  0  0  0  0  0  0  0
  -20.7109  -29.7974   24.0033 C   0  0  0  0  0  0  0  0  0  0  0  0
  -29.0029  -15.2172   21.6555 N   0  0  0  0  0  0  0  0  0  0  0  0
  -30.2898  -15.3650   21.2978 N   0  0  0  0  0  0  0  0  0  0  0  0
  -23.2531  -30.1112   21.4926 N   0  0  0  0  0  0  0  0  0  0  0  0
  -31.1562  -18.6278   23.0831 N   0  0  0  0  0  0  0  0  0  0  0  0
  -31.9501  -14.5294   19.8295 N   0  0  0  0  0  0  0  0  0  0  0  0
  -28.3169  -12.0460   18.8154 N   0  0  0  0  0  0  0  0  0  0  0  0
  -30.7020  -20.3143   21.4983 N   0  0  0  0  0  0  0  0  0  0  0  0
  -25.1638  -33.0770   22.0248 N   0  0  0  0  0  0  0  0  0  0  0  0
  -20.0861  -28.9355   21.7075 N   0  0  0  0  0  0  0  0  0  0  0  0
  -19.1078  -26.5998   19.1278 N   0  3  0  0  0  0  0  0  0  0  0  0
  -30.5283  -12.3986   18.3212 O   0  0  0  0  0  0  0  0  0  0  0  0
  -25.2269  -30.9778   23.0306 O   0  0  0  0  0  0  0  0  0  0  0  0
  -21.3776  -31.4912   21.6123 O   0  0  0  0  0  0  0  0  0  0  0  0
  -20.8582  -26.7830   21.3230 O   0  0  0  0  0  0  0  0  0  0  0  0
  -32.1071  -20.7238   23.2982 O   0  0  0  0  0  0  0  0  0  0  0  0
  -23.2868  -12.4524   21.1750 O   0  0  0  0  0  0  0  0  0  0  0  0
  -27.5688  -25.7573   20.8065 O   0  0  0  0  0  0  0  0  0  1  0  0
  -22.4127   -7.0082   21.2021 F   0  0  0  0  0  0  0  0  0  0  0  0
  -28.4663  -23.2080   18.3908 F   0  0  0  0  0  0  0  0  0  0  0  0
  -24.1034  -10.8743   19.0572 F   0  0  0  0  0  0  0  0  0  0  0  0
  1  2  1  0  0  0  0
  1  5  2  0  0  0  0
  2  6  2  0  0  0  0
  3 10  2  0  0  0  0
  3 18  1  0  0  0  0
  4 11  1  0  0  0  0
  4 18  2  0  0  0  0
  5 20  1  0  0  0  0
  6 22  1  0  0  0  0
  7 12  2  0  0  0  0
  7 21  1  0  0  0  0
  8  9  2  0  0  0  0
  8 24  1  0  0  0  0
  9 25  1  0  0  0  0
 10 26  1  0  0  0  0
 11 26  2  0  0  0  0
 12 27  1  0  0  0  0
 13 14  2  0  0  0  0
 13 28  1  0  0  0  0
 14 29  1  0  0  0  0
 15 23  1  0  0  0  0
 15 27  2  0  0  0  0
 16 25  2  0  0  0  0
 16 30  1  0  0  0  0
 17 29  2  0  0  0  0
 17 31  1  0  0  0  0
 18 32  1  0  0  0  0
 19 32  1  0  0  0  0
 19 33  2  0  0  0  0
 19 34  1  0  0  0  0
 20 22  2  0  0  0  0
 20 39  1  0  0  0  0
 21 23  2  0  0  0  0
 21 40  1  0  0  0  0
 22 48  1  0  0  0  0
 23 41  1  0  0  0  0
 24 30  2  0  0  0  0
 24 56  1  0  0  0  0
 25 66  1  0  0  0  0
 26 75  1  0  0  0  0
 27 76  1  0  0  0  0
 28 31  2  0  0  0  0
 28 75  1  0  0  0  0
 29 77  1  0  0  0  0
 30 78  1  0  0  0  0
 31 79  1  0  0  0  0
 32 60  2  0  0  0  0
 33 61  1  0  0  0  0
 33 64  1  0  0  0  0
 34 65  1  0  0  0  0
 34 70  2  0  0  0  0
 35 49  1  0  0  0  0
 35 67  1  0  0  0  0
 35 71  2  0  0  0  0
 36 57  1  0  0  0  0
 36 62  1  0  0  0  0
 36 72  2  0  0  0  0
 37 58  1  0  0  0  0
 37 68  1  0  0  0  0
 37 73  2  0  0  0  0
 38 63  1  0  0  0  0
 38 66  1  0  0  0  0
 38 74  2  0  0  0  0
 39 42  1  0  0  0  0
 40 49  1  0  0  0  0
 41 62  1  0  0  0  0
 42 44  1  0  0  0  0
 43 45  1  0  0  0  0
 43 46  1  0  0  0  0
 44 48  1  0  0  0  0
 45 50  1  0  0  0  0
 46 63  1  0  0  0  0
 47 50  1  0  0  0  0
 47 63  1  0  0  0  0
 48 67  1  0  0  0  0
 49 62  1  0  0  0  0
 50 61  1  0  0  0  0
 51 58  1  0  0  0  0
 52 59  1  0  0  0  0
 53 59  1  0  0  0  0
 54 59  1  0  0  0  0
 55 69  1  0  0  0  0
 56 76  1  0  0  0  0
 57 59  1  0  0  0  0
 57 68  1  0  0  0  0
 58 69  1  0  0  0  0
 60 61  1  0  0  0  0
M  CHG  1  69   1
M  ISO  4  38 100  56 101  66 100  76 101
M  END
> <Batch ID>
0008

> <Smiles>
CNC(C)C(=O)NC(C(=O)N1Cc2cc([101O:1][101CH2:1]c3ccc([100NH:0][100C:0](=O)N4CCCC(n5nc(-c6ccc(Oc7ccc(F)cc7F)cc6)c(C(N)=O)c5N)C4)cc3F)ccc2CC1C(=O)NC1CCCc2ccccc21)C(C)(C)C

> <Shape>
0.344

> <Color>
0.078

> <Negative vol penalty>
0.000

$$$$

  -OEChem-04042320353D

 74 81  0     1  0  0  0  0  0999 V2000
  -28.2370  -24.4861   17.1417 C   0  0  0  0  0  0  0  0  0  0  0  0
  -27.0905  -25.1970   17.4776 C   0  0  0  0  0  0  0  0  0  0  0  0
  -23.9976  -17.2212   19.7044 C   0  0  0  0  0  0  0  0  0  0  0  0
  -21.6114  -17.5982   19.7372 C   0  0  0  0  0  0  0  0  0  0  0  0
  -29.3729  -24.5840   17.9426 C   0  0  0  0  0  0  0  0  0  0  0  0
  -27.0832  -26.0153   18.6078 C   0  0  0  0  0  0  0  0  0  0  0  0
  -23.1087  -28.8301   19.3032 C   0  0  0  0  0  0  0  0  0  0  0  0
  -23.7896  -15.8777   20.0166 C   0  0  0  0  0  0  0  0  0  0  0  0
  -21.4034  -16.2547   20.0494 C   0  0  0  0  0  0  0  0  0  0  0  0
  -21.8764  -28.3102   19.6969 C   0  0  0  0  0  0  0  0  0  0  0  0
  -23.8696  -12.2693   20.4498 C   0  0  0  0  0  0  0  0  0  0  0  0
  -24.5945  -11.3172   19.7332 C   0  0  0  0  0  0  0  0  0  0  0  0
  -22.2606  -29.1131   21.9389 C   0  0  0  0  0  0  0  0  0  0  0  0
  -23.5960  -12.1033   17.6784 C   0  0  0  0  0  0  0  0  0  0  0  0
  -22.9085  -18.0814   19.5647 C   0  0  0  0  0  0  0  0  0  0  0  0
  -23.1955  -20.0430   17.9592 C   0  0  0  0  0  0  0  0  0  0  0  0
  -29.3747  -25.3944   19.0898 C   0  0  0  0  0  0  0  0  0  0  0  0
  -23.9324  -29.4870   20.2287 C   0  0  0  0  0  0  0  0  0  0  0  0
  -28.2273  -26.1461   19.4155 C   0  0  0  0  0  0  0  0  0  0  0  0
  -23.5017  -29.6426   21.5540 C   0  0  0  0  0  0  0  0  0  0  0  0
  -22.4925  -15.3945   20.1891 C   0  0  0  0  0  0  0  0  0  0  0  0
  -21.4534  -28.4491   21.0155 C   0  0  0  0  0  0  0  0  0  0  0  0
  -23.0077  -13.1384   19.7807 C   0  0  0  0  0  0  0  0  0  0  0  0
  -24.4578  -11.2342   18.3475 C   0  0  0  0  0  0  0  0  0  0  0  0
  -22.8709  -13.0554   18.3951 C   0  0  0  0  0  0  0  0  0  0  0  0
  -23.1227  -19.4695   19.2428 C   0  0  0  0  0  0  0  0  0  0  0  0
  -23.4090  -21.3796   18.1920 C   0  0  0  0  0  0  0  0  0  0  0  0
  -23.0803  -19.4229   16.6716 C   0  0  0  0  0  0  0  0  0  0  0  0
  -26.8422  -28.9749   21.4010 C   0  0  0  0  0  0  0  0  0  0  0  0
  -26.3567  -31.8553   22.8116 C   0  0  0  0  0  0  0  0  0  0  0  0
  -24.1398  -34.1868   23.9501 C   0  0  0  0  0  0  0  0  0  0  0  0
  -22.1653  -24.9610   22.8264 C   0  0  0  0  0  0  0  0  0  0  0  0
  -30.6340  -25.4698   19.9166 C   0  0  0  0  0  0  0  0  0  0  0  0
  -25.2470  -30.0656   19.7819 C   0  0  0  0  0  0  0  0  0  0  0  0
  -24.3398  -30.3572   22.5814 C   0  0  0  0  0  0  0  0  0  0  0  0
  -30.3902  -26.0052   21.3238 C   0  0  0  0  0  0  0  0  0  0  0  0
  -25.3644  -24.3589   21.3844 C   0  0  0  0  0  0  0  0  0  0  0  0
  -29.5719  -27.2861   21.2580 C   0  0  0  0  0  0  0  0  0  0  0  0
  -25.1592  -23.0892   20.5562 C   0  0  0  0  0  0  0  0  0  0  0  0
  -24.5549  -24.3253   22.6788 C   0  0  0  0  0  0  0  0  0  0  0  0
  -22.9098  -22.7899   21.6739 C   0  0  0  0  0  0  0  0  0  0  0  0
  -28.1862  -27.0186   20.6570 C   0  0  1  0  0  0  0  0  0  0  0  0
  -26.2328  -30.2646   20.9290 C   0  0  1  0  0  0  0  0  0  0  0  0
  -23.6624  -22.8016   20.3323 C   0  0  2  0  0  0  0  0  0  0  0  0
  -24.0417  -36.4211   25.0884 C   0  0  0  0  0  0  0  0  0  0  0  0
  -27.0386  -30.5268   25.4724 C   0  0  0  0  0  0  0  0  0  0  0  0
  -26.0199  -32.4953   26.6367 C   0  0  0  0  0  0  0  0  0  0  0  0
  -28.0109  -32.8106   25.1672 C   0  0  0  0  0  0  0  0  0  0  0  0
  -22.7535  -35.4283   21.6488 C   0  0  0  0  0  0  0  0  0  0  0  0
  -18.9463  -25.9462   21.6711 C   0  0  0  0  0  0  0  0  0  0  0  0
  -19.7364  -25.4678   22.8817 C   0  0  0  0  0  0  0  0  0  0  0  0
  -19.7817  -26.7851   20.7116 C   0  0  0  0  0  0  0  0  0  1  0  0
  -25.7630  -32.3184   24.1200 C   0  0  1  0  0  0  0  0  0  0  0  0
  -24.0705  -35.6906   23.7549 C   0  0  2  0  0  0  0  0  0  0  0  0
  -26.6930  -32.0226   25.3304 C   0  0  0  0  0  0  0  0  0  0  0  0
  -23.2776  -20.3682   20.2186 N   0  0  0  0  0  0  0  0  0  0  0  0
  -23.4499  -21.5200   19.5480 N   0  0  0  0  0  0  0  0  0  0  0  0
  -25.6199  -30.9000   22.0973 N   0  0  0  0  0  0  0  0  0  0  0  0
  -23.1441  -24.0498   22.3967 N   0  0  0  0  0  0  0  0  0  0  0  0
  -23.5640  -22.4369   17.3670 N   0  0  0  0  0  0  0  0  0  0  0  0
  -22.8617  -18.0397   16.6133 N   0  0  0  0  0  0  0  0  0  0  0  0
  -27.5233  -28.2817   20.4185 N   0  0  0  0  0  0  0  0  0  0  0  0
  -25.4410  -33.7306   23.9450 N   0  0  0  0  0  0  0  0  0  0  0  0
  -20.8535  -24.6272   22.5125 N   0  0  0  0  0  0  0  0  0  0  0  0
  -22.8445  -36.0579   22.9913 N   0  3  0  0  0  0  0  0  0  0  0  0
  -23.1849  -20.0734   15.6042 O   0  0  0  0  0  0  0  0  0  0  0  0
  -26.7060  -28.6345   22.5703 O   0  0  0  0  0  0  0  0  0  0  0  0
  -27.4311  -32.3292   22.4336 O   0  0  0  0  0  0  0  0  0  0  0  0
  -23.1399  -33.4873   24.0965 O   0  0  0  0  0  0  0  0  0  0  0  0
  -22.4405  -25.9981   23.4394 O   0  0  0  0  0  0  0  0  0  0  0  0
  -22.2892  -14.0836   20.4935 O   0  0  0  0  0  0  0  0  0  0  0  0
  -20.2514  -27.9420   21.4025 O   0  0  0  0  0  0  0  0  0  1  0  0
  -25.1552  -10.3209   17.6593 F   0  0  0  0  0  0  0  0  0  0  0  0
  -22.0454  -13.8884   17.7467 F   0  0  0  0  0  0  0  0  0  0  0  0
  1  2  1  0  0  0  0
  1  5  2  0  0  0  0
  2  6  2  0  0  0  0
  3  8  2  0  0  0  0
  3 15  1  0  0  0  0
  4  9  1  0  0  0  0
  4 15  2  0  0  0  0
  5 17  1  0  0  0  0
  6 19  1  0  0  0  0
  7 10  2  0  0  0  0
  7 18  1  0  0  0  0
  8 21  1  0  0  0  0
  9 21  2  0  0  0  0
 10 22  1  0  0  0  0
 11 12  2  0  0  0  0
 11 23  1  0  0  0  0
 12 24  1  0  0  0  0
 13 20  1  0  0  0  0
 13 22  2  0  0  0  0
 14 24  2  0  0  0  0
 14 25  1  0  0  0  0
 15 26  1  0  0  0  0
 16 26  1  0  0  0  0
 16 27  2  0  0  0  0
 16 28  1  0  0  0  0
 17 19  2  0  0  0  0
 17 33  1  0  0  0  0
 18 20  2  0  0  0  0
 18 34  1  0  0  0  0
 19 42  1  0  0  0  0
 20 35  1  0  0  0  0
 21 71  1  0  0  0  0
 22 72  1  0  0  0  0
 23 25  2  0  0  0  0
 23 71  1  0  0  0  0
 24 73  1  0  0  0  0
 25 74  1  0  0  0  0
 26 56  2  0  0  0  0
 27 57  1  0  0  0  0
 27 60  1  0  0  0  0
 28 61  1  0  0  0  0
 28 66  2  0  0  0  0
 29 43  1  0  0  0  0
 29 62  1  0  0  0  0
 29 67  2  0  0  0  0
 30 53  1  0  0  0  0
 30 58  1  0  0  0  0
 30 68  2  0  0  0  0
 31 54  1  0  0  0  0
 31 63  1  0  0  0  0
 31 69  2  0  0  0  0
 32 59  1  0  0  0  0
 32 64  1  0  0  0  0
 32 70  2  0  0  0  0
 33 36  1  0  0  0  0
 34 43  1  0  0  0  0
 35 58  1  0  0  0  0
 36 38  1  0  0  0  0
 37 39  1  0  0  0  0
 37 40  1  0  0  0  0
 38 42  1  0  0  0  0
 39 44  1  0  0  0  0
 40 59  1  0  0  0  0
 41 44  1  0  0  0  0
 41 59  1  0  0  0  0
 42 62  1  0  0  0  0
 43 58  1  0  0  0  0
 44 57  1  0  0  0  0
 45 54  1  0  0  0  0
 46 55  1  0  0  0  0
 47 55  1  0  0  0  0
 48 55  1  0  0  0  0
 49 65  1  0  0  0  0
 50 51  1  0  0  0  0
 50 52  1  0  0  0  0
 51 64  1  0  0  0  0
 52 72  1  0  0  0  0
 53 55  1  0  0  0  0
 53 63  1  0  0  0  0
 54 65  1  0  0  0  0
 56 57  1  0  0  0  0
M  CHG  1  65   1
M  ISO  4  32 100  52 101  64 100  72 101
M  END
> <Batch ID>
0008

> <Smiles>
CNC(C)C(=O)NC(C(=O)N1Cc2cc([101O:1][101CH2:1]CC[100NH:0][100C:0](=O)N3CCCC(n4nc(-c5ccc(Oc6ccc(F)cc6F)cc5)c(C(N)=O)c4N)C3)ccc2CC1C(=O)NC1CCCc2ccccc21)C(C)(C)C

> <Shape>
0.222

> <Color>
0.068

> <Negative vol penalty>
0.000

$$$$

  -OEChem-04042320353D

 84 93  0     1  0  0  0  0  0999 V2000
  -28.5866  -24.4522   17.0508 C   0  0  0  0  0  0  0  0  0  0  0  0
  -27.4980  -24.5031   17.9155 C   0  0  0  0  0  0  0  0  0  0  0  0
  -24.6736  -12.5588   20.9849 C   0  0  0  0  0  0  0  0  0  0  0  0
  -24.8275  -14.8727   21.6624 C   0  0  0  0  0  0  0  0  0  0  0  0
  -29.7143  -25.2318   17.3050 C   0  0  0  0  0  0  0  0  0  0  0  0
  -27.5367  -25.3328   19.0355 C   0  0  0  0  0  0  0  0  0  0  0  0
  -23.2431  -27.9419   19.6699 C   0  0  0  0  0  0  0  0  0  0  0  0
  -26.0617  -12.4445   21.0599 C   0  0  0  0  0  0  0  0  0  0  0  0
  -26.2157  -14.7584   21.7374 C   0  0  0  0  0  0  0  0  0  0  0  0
  -22.1593  -27.2601   20.2215 C   0  0  0  0  0  0  0  0  0  0  0  0
  -28.7355  -13.2859   19.1711 C   0  0  0  0  0  0  0  0  0  0  0  0
  -29.3892  -12.6379   18.1232 C   0  0  0  0  0  0  0  0  0  0  0  0
  -22.6408  -28.2452   22.3702 C   0  0  0  0  0  0  0  0  0  0  0  0
  -19.7419  -20.9437   22.0985 C   0  0  0  0  0  0  0  0  0  0  0  0
  -18.9766  -21.6978   19.9366 C   0  0  0  0  0  0  0  0  0  0  0  0
  -30.2469  -10.9956   19.6738 C   0  0  0  0  0  0  0  0  0  0  0  0
  -24.0565  -13.7730   21.2861 C   0  0  0  0  0  0  0  0  0  0  0  0
  -21.6679  -13.1567   21.9361 C   0  0  0  0  0  0  0  0  0  0  0  0
  -29.7630  -26.0788   18.4234 C   0  0  0  0  0  0  0  0  0  0  0  0
  -24.0418  -28.7734   20.4681 C   0  0  0  0  0  0  0  0  0  0  0  0
  -28.6666  -26.1235   19.3056 C   0  0  0  0  0  0  0  0  0  0  0  0
  -23.7327  -28.9384   21.8257 C   0  0  0  0  0  0  0  0  0  0  0  0
  -19.5136  -23.3306   21.6530 C   0  0  0  0  0  0  0  0  0  0  0  0
  -19.3014  -20.6586   20.8083 C   0  0  0  0  0  0  0  0  0  0  0  0
  -19.8609  -22.2739   22.5043 C   0  0  0  0  0  0  0  0  0  0  0  0
  -26.8328  -13.5443   21.4362 C   0  0  0  0  0  0  0  0  0  0  0  0
  -21.8598  -27.4094   21.5724 C   0  0  0  0  0  0  0  0  0  0  0  0
  -28.8375  -12.7889   20.4705 C   0  0  0  0  0  0  0  0  0  0  0  0
  -30.1449  -11.4927   18.3745 C   0  0  0  0  0  0  0  0  0  0  0  0
  -19.0826  -23.0264   20.3552 C   0  0  0  0  0  0  0  0  0  0  0  0
  -29.5932  -11.6438   20.7218 C   0  0  0  0  0  0  0  0  0  0  0  0
  -22.6226  -13.8918   21.2082 C   0  0  0  0  0  0  0  0  0  0  0  0
  -20.4580  -13.6413   21.5027 C   0  0  0  0  0  0  0  0  0  0  0  0
  -21.8577  -12.1278   22.9164 C   0  0  0  0  0  0  0  0  0  0  0  0
  -27.1026  -28.7933   21.3253 C   0  0  0  0  0  0  0  0  0  0  0  0
  -26.3073  -31.6412   22.6592 C   0  0  0  0  0  0  0  0  0  0  0  0
  -23.8735  -33.6610   23.9413 C   0  0  0  0  0  0  0  0  0  0  0  0
  -18.7625  -18.8574   19.1316 C   0  0  0  0  0  0  0  0  0  0  0  0
  -31.0224  -26.8672   18.6826 C   0  0  0  0  0  0  0  0  0  0  0  0
  -25.1913  -29.5228   19.8520 C   0  0  0  0  0  0  0  0  0  0  0  0
  -24.5467  -29.8351   22.7211 C   0  0  0  0  0  0  0  0  0  0  0  0
  -19.6362  -24.7652   22.1090 C   0  0  0  0  0  0  0  0  0  0  0  0
  -30.8349  -28.0018   19.6866 C   0  0  0  0  0  0  0  0  0  0  0  0
  -18.3741  -15.6307   17.6773 C   0  0  0  0  0  0  0  0  0  0  0  0
  -30.0633  -27.5119   20.9079 C   0  0  0  0  0  0  0  0  0  0  0  0
  -19.3281  -14.7505   18.4879 C   0  0  0  0  0  0  0  0  0  0  0  0
  -22.4581  -23.5268   22.9919 C   0  0  0  0  0  0  0  0  0  0  0  0
  -18.9438  -17.0309   17.4565 C   0  0  0  0  0  0  0  0  0  0  0  0
  -21.9169  -24.9627   23.0472 C   0  0  0  0  0  0  0  0  0  0  0  0
  -20.3259  -16.8463   19.4875 C   0  0  0  0  0  0  0  0  0  0  0  0
  -21.7087  -22.5184   23.8718 C   0  0  0  0  0  0  0  0  0  0  0  0
  -28.6609  -27.0298   20.5175 C   0  0  1  0  0  0  0  0  0  0  0  0
  -26.2464  -29.9415   20.8712 C   0  0  1  0  0  0  0  0  0  0  0  0
  -19.7671  -15.4466   19.7911 C   0  0  2  0  0  0  0  0  0  0  0  0
  -23.5345  -35.9162   24.9885 C   0  0  0  0  0  0  0  0  0  0  0  0
  -27.4698  -30.5965   25.2797 C   0  0  0  0  0  0  0  0  0  0  0  0
  -26.2733  -32.4473   26.4675 C   0  0  0  0  0  0  0  0  0  0  0  0
  -28.0222  -32.9820   24.7710 C   0  0  0  0  0  0  0  0  0  0  0  0
  -22.0715  -34.5312   21.7609 C   0  0  0  0  0  0  0  0  0  0  0  0
  -25.7866  -32.0829   24.0056 C   0  0  1  0  0  0  0  0  0  0  0  0
  -23.5415  -35.1211   23.6921 C   0  0  2  0  0  0  0  0  0  0  0  0
  -26.8736  -32.0087   25.1148 C   0  0  0  0  0  0  0  0  0  0  0  0
  -22.0671  -14.7761   20.3755 N   0  0  0  0  0  0  0  0  0  0  0  0
  -20.7502  -14.5997   20.5773 N   0  0  0  0  0  0  0  0  0  0  0  0
  -25.6643  -30.5416   22.0734 N   0  0  0  0  0  0  0  0  0  0  0  0
  -19.3339  -17.6299   18.7347 N   0  0  0  0  0  0  0  0  0  0  0  0
  -20.9906  -25.3076   21.9574 N   0  0  2  0  0  0  0  0  0  1  0  0
  -19.1834  -13.3367   21.8265 N   0  0  0  0  0  0  0  0  0  0  0  0
  -21.9685  -12.5002   24.2630 N   0  0  0  0  0  0  0  0  0  0  0  0
  -19.1846  -19.3130   20.3801 N   0  0  0  0  0  0  0  0  0  0  0  0
  -27.7804  -28.1579   20.3023 N   0  0  0  0  0  0  0  0  0  0  0  0
  -25.2236  -33.4143   23.8087 N   0  0  0  0  0  0  0  0  0  0  0  0
  -22.1992  -35.2461   23.0569 N   0  3  0  0  0  0  0  0  0  0  0  0
  -21.9435  -10.9155   22.6057 O   0  0  0  0  0  0  0  0  0  0  0  0
  -27.1464  -28.5061   22.5158 O   0  0  0  0  0  0  0  0  0  0  0  0
  -27.2452  -32.2539   22.1429 O   0  0  0  0  0  0  0  0  0  0  0  0
  -23.0210  -32.8237   24.2288 O   0  0  0  0  0  0  0  0  0  0  0  0
  -17.9374  -19.4465   18.4286 O   0  0  0  0  0  0  0  0  0  0  0  0
  -20.2843  -22.5715   23.7716 O   0  0  0  0  0  0  0  0  0  0  0  0
  -28.1873  -13.4330   21.5097 O   0  0  0  0  0  0  0  0  0  0  0  0
  -20.8029  -26.7445   22.1135 O   0  0  0  0  0  0  0  0  0  1  0  0
  -30.7714  -10.8696   17.3678 F   0  0  0  0  0  0  0  0  0  0  0  0
  -18.7651  -24.0075   19.4980 F   0  0  0  0  0  0  0  0  0  0  0  0
  -29.6940  -11.1609   21.9678 F   0  0  0  0  0  0  0  0  0  0  0  0
  1  2  1  0  0  0  0
  1  5  2  0  0  0  0
  2  6  2  0  0  0  0
  3  8  2  0  0  0  0
  3 17  1  0  0  0  0
  4  9  1  0  0  0  0
  4 17  2  0  0  0  0
  5 19  1  0  0  0  0
  6 21  1  0  0  0  0
  7 10  2  0  0  0  0
  7 20  1  0  0  0  0
  8 26  1  0  0  0  0
  9 26  2  0  0  0  0
 10 27  1  0  0  0  0
 11 12  2  0  0  0  0
 11 28  1  0  0  0  0
 12 29  1  0  0  0  0
 13 22  1  0  0  0  0
 13 27  2  0  0  0  0
 14 24  2  0  0  0  0
 14 25  1  0  0  0  0
 15 24  1  0  0  0  0
 15 30  2  0  0  0  0
 16 29  2  0  0  0  0
 16 31  1  0  0  0  0
 17 32  1  0  0  0  0
 18 32  1  0  0  0  0
 18 33  2  0  0  0  0
 18 34  1  0  0  0  0
 19 21  2  0  0  0  0
 19 39  1  0  0  0  0
 20 22  2  0  0  0  0
 20 40  1  0  0  0  0
 21 52  1  0  0  0  0
 22 41  1  0  0  0  0
 23 25  2  0  0  0  0
 23 30  1  0  0  0  0
 23 42  1  0  0  0  0
 24 70  1  0  0  0  0
 25 79  1  0  0  0  0
 26 80  1  0  0  0  0
 27 81  1  0  0  0  0
 28 31  2  0  0  0  0
 28 80  1  0  0  0  0
 29 82  1  0  0  0  0
 30 83  1  0  0  0  0
 31 84  1  0  0  0  0
 32 63  2  0  0  0  0
 33 64  1  0  0  0  0
 33 68  1  0  0  0  0
 34 69  1  0  0  0  0
 34 74  2  0  0  0  0
 35 53  1  0  0  0  0
 35 71  1  0  0  0  0
 35 75  2  0  0  0  0
 36 60  1  0  0  0  0
 36 65  1  0  0  0  0
 36 76  2  0  0  0  0
 37 61  1  0  0  0  0
 37 72  1  0  0  0  0
 37 77  2  0  0  0  0
 38 66  1  0  0  0  0
 38 70  1  0  0  0  0
 38 78  2  0  0  0  0
 39 43  1  0  0  0  0
 40 53  1  0  0  0  0
 41 65  1  0  0  0  0
 42 67  1  0  0  0  0
 43 45  1  0  0  0  0
 44 46  1  0  0  0  0
 44 48  1  0  0  0  0
 45 52  1  0  0  0  0
 46 54  1  0  0  0  0
 47 49  1  0  0  0  0
 47 51  1  0  0  0  0
 48 66  1  0  0  0  0
 49 67  1  0  0  0  0
 50 54  1  0  0  0  0
 50 66  1  0  0  0  0
 51 79  1  0  0  0  0
 52 71  1  0  0  0  0
 53 65  1  0  0  0  0
 54 64  1  0  0  0  0
 55 61  1  0  0  0  0
 56 62  1  0  0  0  0
 57 62  1  0  0  0  0
 58 62  1  0  0  0  0
 59 73  1  0  0  0  0
 60 62  1  0  0  0  0
 60 72  1  0  0  0  0
 61 73  1  0  0  0  0
 63 64  1  0  0  0  0
 67 81  1  0  0  0  0
M  CHG  1  73   1
M  ISO  4  38 100  67 101  70 100  81 101
M  END
> <Batch ID>
0008

> <Smiles>
CNC(C)C(=O)NC(C(=O)N1Cc2cc([101O:1][101N:1]3CCCOc4cc([100NH:0][100C:0](=O)N5CCCC(n6nc(-c7ccc(Oc8ccc(F)cc8F)cc7)c(C(N)=O)c6N)C5)cc(F)c4C3)ccc2CC1C(=O)NC1CCCc2ccccc21)C(C)(C)C

> <Shape>
0.273

> <Color>
0.075

> <Negative vol penalty>
0.000

$$$$

  -OEChem-04042320353D

 80 89  0     1  0  0  0  0  0999 V2000
  -32.1218  -27.2963   20.1575 C   0  0  0  0  0  0  0  0  0  0  0  0
  -31.1262  -26.3397   19.9865 C   0  0  0  0  0  0  0  0  0  0  0  0
  -22.8339  -10.2706   20.6864 C   0  0  0  0  0  0  0  0  0  0  0  0
  -24.5614   -9.0405   21.8438 C   0  0  0  0  0  0  0  0  0  0  0  0
  -32.0203  -28.2298   21.1881 C   0  0  0  0  0  0  0  0  0  0  0  0
  -30.0290  -26.3155   20.8467 C   0  0  0  0  0  0  0  0  0  0  0  0
  -25.6434  -25.7213   18.3853 C   0  0  0  0  0  0  0  0  0  0  0  0
  -22.0191   -9.1386   20.6993 C   0  0  0  0  0  0  0  0  0  0  0  0
  -23.7466   -7.9084   21.8567 C   0  0  0  0  0  0  0  0  0  0  0  0
  -25.3245  -24.4344   17.9541 C   0  0  0  0  0  0  0  0  0  0  0  0
  -21.1128   -6.7574   23.6340 C   0  0  0  0  0  0  0  0  0  0  0  0
  -21.0235   -6.0386   24.8260 C   0  0  0  0  0  0  0  0  0  0  0  0
  -23.8674  -24.1642   19.8575 C   0  0  0  0  0  0  0  0  0  0  0  0
  -21.8925   -4.0799   23.7099 C   0  0  0  0  0  0  0  0  0  0  0  0
  -24.1051  -10.2215   21.2586 C   0  0  0  0  0  0  0  0  0  0  0  0
  -25.0136  -12.4020   22.2219 C   0  0  0  0  0  0  0  0  0  0  0  0
  -30.9165  -28.2231   22.0554 C   0  0  0  0  0  0  0  0  0  0  0  0
  -25.0841  -26.2361   19.5637 C   0  0  0  0  0  0  0  0  0  0  0  0
  -29.9133  -27.2490   21.8907 C   0  0  0  0  0  0  0  0  0  0  0  0
  -24.1788  -25.4588   20.3002 C   0  0  0  0  0  0  0  0  0  0  0  0
  -22.4754   -7.9575   21.2845 C   0  0  0  0  0  0  0  0  0  0  0  0
  -24.4387  -23.6545   18.6917 C   0  0  0  0  0  0  0  0  0  0  0  0
  -21.5918   -6.1375   22.4799 C   0  0  0  0  0  0  0  0  0  0  0  0
  -21.4134   -4.6998   24.8640 C   0  0  0  0  0  0  0  0  0  0  0  0
  -21.9817   -4.7988   22.5179 C   0  0  0  0  0  0  0  0  0  0  0  0
  -24.9475  -11.3904   21.2451 C   0  0  0  0  0  0  0  0  0  0  0  0
  -25.9580  -13.2782   21.7455 C   0  0  0  0  0  0  0  0  0  0  0  0
  -24.2865  -12.5374   23.4502 C   0  0  0  0  0  0  0  0  0  0  0  0
  -26.2467  -27.2360   22.3480 C   0  0  0  0  0  0  0  0  0  0  0  0
  -23.1632  -28.0868   22.8868 C   0  0  0  0  0  0  0  0  0  0  0  0
  -19.8602  -27.6167   22.1686 C   0  0  0  0  0  0  0  0  0  0  0  0
  -27.8465  -16.2115   17.2935 C   0  0  0  0  0  0  0  0  0  0  0  0
  -30.8740  -29.2226   23.1840 C   0  0  0  0  0  0  0  0  0  0  0  0
  -25.4176  -27.6361   20.0010 C   0  0  0  0  0  0  0  0  0  0  0  0
  -23.5354  -25.9725   21.5613 C   0  0  0  0  0  0  0  0  0  0  0  0
  -29.4938  -29.3642   23.8207 C   0  0  0  0  0  0  0  0  0  0  0  0
  -29.2281  -12.8572   17.9143 C   0  0  0  0  0  0  0  0  0  0  0  0
  -28.8874  -27.9910   24.0913 C   0  0  0  0  0  0  0  0  0  0  0  0
  -28.2078  -12.2454   18.8748 C   0  0  0  0  0  0  0  0  0  0  0  0
  -28.6759  -18.5290   19.9924 C   0  0  0  0  0  0  0  0  0  0  0  0
  -28.5885  -13.8796   16.9781 C   0  0  0  0  0  0  0  0  0  0  0  0
  -28.1857  -17.1265   19.6595 C   0  0  0  0  0  0  0  0  0  0  0  0
  -26.8067  -14.3278   18.6230 C   0  0  0  0  0  0  0  0  0  0  0  0
  -26.4641  -19.8007   19.7311 C   0  0  0  0  0  0  0  0  0  0  0  0
  -25.9995  -18.8384   17.5844 C   0  0  0  0  0  0  0  0  0  0  0  0
  -28.6955  -27.2061   22.7880 C   0  0  1  0  0  0  0  0  0  0  0  0
  -25.1864  -27.8677   21.4911 C   0  0  1  0  0  0  0  0  0  0  0  0
  -27.8093  -19.4359   19.1283 C   0  0  2  0  0  0  0  0  0  0  0  0
  -27.4259  -13.3408   19.6226 C   0  0  1  0  0  0  0  0  0  0  0  0
  -27.4751  -18.5952   17.8923 C   0  0  1  0  0  0  0  0  0  0  0  0
  -17.5720  -28.4337   22.7964 C   0  0  0  0  0  0  0  0  0  0  0  0
  -23.3055  -26.4850   25.4799 C   0  0  0  0  0  0  0  0  0  0  0  0
  -20.8040  -26.5388   25.5687 C   0  0  0  0  0  0  0  0  0  0  0  0
  -22.0998  -28.6680   25.6671 C   0  0  0  0  0  0  0  0  0  0  0  0
  -19.3122  -28.5531   19.4151 C   0  0  0  0  0  0  0  0  0  0  0  0
  -24.1402  -20.0456   18.7903 C   0  0  0  0  0  0  0  0  0  0  0  0
  -23.7998  -21.4400   19.2780 C   0  0  0  0  0  0  0  0  0  1  0  0
  -21.9544  -27.4054   23.4815 C   0  0  1  0  0  0  0  0  0  0  0  0
  -18.7491  -28.6002   21.8481 C   0  0  2  0  0  0  0  0  0  0  0  0
  -22.0544  -27.2636   25.0266 C   0  0  0  0  0  0  0  0  0  0  0  0
  -25.7832  -11.6032   20.2251 N   0  0  0  0  0  0  0  0  0  0  0  0
  -26.3833  -12.7586   20.5584 N   0  0  0  0  0  0  0  0  0  0  0  0
  -23.8982  -27.3451   21.9511 N   0  0  0  0  0  0  0  0  0  0  0  0
  -27.8305  -14.8808   17.7287 N   0  0  0  0  0  0  0  0  0  0  0  0
  -27.7509  -17.2081   18.2653 N   0  0  0  0  0  0  0  0  0  0  0  0
  -26.4577  -14.4347   22.2304 N   0  0  0  0  0  0  0  0  0  0  0  0
  -23.3541  -11.5468   23.7874 N   0  0  0  0  0  0  0  0  0  0  0  0
  -27.5268  -27.6815   22.0791 N   0  0  0  0  0  0  0  0  0  0  0  0
  -20.7935  -28.1617   23.0247 N   0  0  0  0  0  0  0  0  0  0  0  0
  -25.6038  -19.9665   18.5065 N   0  3  1  0  0  0  0  0  0  0  0  0
  -18.2624  -28.3958   20.4544 N   0  3  0  0  0  0  0  0  0  0  0  0
  -24.4466  -13.5165   24.2178 O   0  0  0  0  0  0  0  0  0  0  0  0
  -25.9270  -26.4068   23.1918 O   0  0  0  0  0  0  0  0  0  0  0  0
  -23.4408  -29.2374   23.2343 O   0  0  0  0  0  0  0  0  0  0  0  0
  -19.8945  -26.4775   21.7086 O   0  0  0  0  0  0  0  0  0  0  0  0
  -27.9789  -16.4956   16.0959 O   0  0  0  0  0  0  0  0  0  0  0  0
  -21.6805   -6.8527   21.2974 O   0  0  0  0  0  0  0  0  0  0  0  0
  -24.1240  -22.3888   18.2704 O   0  0  0  0  0  0  0  0  0  1  0  0
  -21.3292   -4.0101   26.0091 F   0  0  0  0  0  0  0  0  0  0  0  0
  -22.4438   -4.1982   21.4126 F   0  0  0  0  0  0  0  0  0  0  0  0
  1  2  1  0  0  0  0
  1  5  2  0  0  0  0
  2  6  2  0  0  0  0
  3  8  2  0  0  0  0
  3 15  1  0  0  0  0
  4  9  1  0  0  0  0
  4 15  2  0  0  0  0
  5 17  1  0  0  0  0
  6 19  1  0  0  0  0
  7 10  2  0  0  0  0
  7 18  1  0  0  0  0
  8 21  1  0  0  0  0
  9 21  2  0  0  0  0
 10 22  1  0  0  0  0
 11 12  2  0  0  0  0
 11 23  1  0  0  0  0
 12 24  1  0  0  0  0
 13 20  1  0  0  0  0
 13 22  2  0  0  0  0
 14 24  2  0  0  0  0
 14 25  1  0  0  0  0
 15 26  1  0  0  0  0
 16 26  1  0  0  0  0
 16 27  2  0  0  0  0
 16 28  1  0  0  0  0
 17 19  2  0  0  0  0
 17 33  1  0  0  0  0
 18 20  2  0  0  0  0
 18 34  1  0  0  0  0
 19 46  1  0  0  0  0
 20 35  1  0  0  0  0
 21 77  1  0  0  0  0
 22 78  1  0  0  0  0
 23 25  2  0  0  0  0
 23 77  1  0  0  0  0
 24 79  1  0  0  0  0
 25 80  1  0  0  0  0
 26 61  2  0  0  0  0
 27 62  1  0  0  0  0
 27 66  1  0  0  0  0
 28 67  1  0  0  0  0
 28 72  2  0  0  0  0
 29 47  1  0  0  0  0
 29 68  1  0  0  0  0
 29 73  2  0  0  0  0
 30 58  1  0  0  0  0
 30 63  1  0  0  0  0
 30 74  2  0  0  0  0
 31 59  1  0  0  0  0
 31 69  1  0  0  0  0
 31 75  2  0  0  0  0
 32 64  1  0  0  0  0
 32 65  1  0  0  0  0
 32 76  2  0  0  0  0
 33 36  1  0  0  0  0
 34 47  1  0  0  0  0
 35 63  1  0  0  0  0
 36 38  1  0  0  0  0
 37 39  1  0  0  0  0
 37 41  1  0  0  0  0
 38 46  1  0  0  0  0
 39 49  1  0  0  0  0
 40 42  1  0  0  0  0
 40 48  1  0  0  0  0
 41 64  1  0  0  0  0
 42 65  1  0  0  0  0
 43 49  1  0  0  0  0
 43 64  1  0  0  0  0
 44 48  1  0  0  0  0
 44 70  1  0  0  0  0
 45 50  1  0  0  0  0
 45 70  1  0  0  0  0
 46 68  1  0  0  0  0
 47 63  1  0  0  0  0
 48 50  1  0  0  0  0
 49 62  1  0  0  0  0
 50 65  1  0  0  0  0
 51 59  1  0  0  0  0
 52 60  1  0  0  0  0
 53 60  1  0  0  0  0
 54 60  1  0  0  0  0
 55 71  1  0  0  0  0
 56 57  1  0  0  0  0
 56 70  1  0  0  0  0
 57 78  1  0  0  0  0
 58 60  1  0  0  0  0
 58 69  1  0  0  0  0
 59 71  1  0  0  0  0
 61 62  1  0  0  0  0
M  CHG  2  70   1  71   1
M  ISO  4  32 100  57 101  65 100  78 101
M  END
> <Batch ID>
0008

> <Smiles>
CNC(C)C(=O)NC(C(=O)N1Cc2cc([101O:1][101CH2:1]CN3CC4CC[100N:0]([100C:0](=O)N5CCCC(n6nc(-c7ccc(Oc8ccc(F)cc8F)cc7)c(C(N)=O)c6N)C5)C4C3)ccc2CC1C(=O)NC1CCCc2ccccc21)C(C)(C)C

> <Shape>
0.249

> <Color>
0.105

> <Negative vol penalty>
0.000

$$$$

  -OEChem-04042320353D

 82 91  0     1  0  0  0  0  0999 V2000
  -23.0238  -17.5229   23.2988 C   0  0  0  0  0  0  0  0  0  0  0  0
  -23.9274  -18.5706   23.4349 C   0  0  0  0  0  0  0  0  0  0  0  0
  -25.7741  -13.8629   21.4837 C   0  0  0  0  0  0  0  0  0  0  0  0
  -25.7272  -14.3015   19.1083 C   0  0  0  0  0  0  0  0  0  0  0  0
  -21.8783  -17.6917   22.5238 C   0  0  0  0  0  0  0  0  0  0  0  0
  -23.6801  -19.7913   22.8058 C   0  0  0  0  0  0  0  0  0  0  0  0
  -27.0793  -24.8373   22.4745 C   0  0  0  0  0  0  0  0  0  0  0  0
  -24.7014  -12.9826   21.3424 C   0  0  0  0  0  0  0  0  0  0  0  0
  -24.6546  -13.4211   18.9669 C   0  0  0  0  0  0  0  0  0  0  0  0
  -28.0380  -25.3780   21.6187 C   0  0  0  0  0  0  0  0  0  0  0  0
  -24.2099   -9.8008   20.3090 C   0  0  0  0  0  0  0  0  0  0  0  0
  -24.2873   -8.5737   20.9676 C   0  0  0  0  0  0  0  0  0  0  0  0
  -26.3231  -26.6789   20.5295 C   0  0  0  0  0  0  0  0  0  0  0  0
  -22.2871   -9.1145   22.2102 C   0  0  0  0  0  0  0  0  0  0  0  0
  -26.2869  -14.5225   20.3667 C   0  0  0  0  0  0  0  0  0  0  0  0
  -28.7654  -15.1234   20.4278 C   0  0  0  0  0  0  0  0  0  0  0  0
  -21.6238  -18.9113   21.8751 C   0  0  0  0  0  0  0  0  0  0  0  0
  -25.7314  -25.2058   22.3570 C   0  0  0  0  0  0  0  0  0  0  0  0
  -22.5177  -19.9890   22.0389 C   0  0  0  0  0  0  0  0  0  0  0  0
  -25.3498  -26.1434   21.3868 C   0  0  0  0  0  0  0  0  0  0  0  0
  -24.1417  -12.7616   20.0840 C   0  0  0  0  0  0  0  0  0  0  0  0
  -27.6595  -26.2967   20.6441 C   0  0  0  0  0  0  0  0  0  0  0  0
  -23.1711  -10.6848   20.6010 C   0  0  0  0  0  0  0  0  0  0  0  0
  -23.3259   -8.2305   21.9182 C   0  0  0  0  0  0  0  0  0  0  0  0
  -22.2097  -10.3416   21.5515 C   0  0  0  0  0  0  0  0  0  0  0  0
  -27.3946  -15.4324   20.5121 C   0  0  0  0  0  0  0  0  0  0  0  0
  -29.4012  -16.3229   20.6359 C   0  0  0  0  0  0  0  0  0  0  0  0
  -29.4066  -13.8646   20.1832 C   0  0  0  0  0  0  0  0  0  0  0  0
  -23.0329  -23.6607   21.6978 C   0  0  0  0  0  0  0  0  0  0  0  0
  -21.6799  -26.5255   22.3941 C   0  0  0  0  0  0  0  0  0  0  0  0
  -22.0233  -29.9134   22.6197 C   0  0  0  0  0  0  0  0  0  0  0  0
  -29.9924  -21.6855   19.9299 C   0  0  0  0  0  0  0  0  0  0  0  0
  -20.3647  -19.0419   21.0549 C   0  0  0  0  0  0  0  0  0  0  0  0
  -24.7137  -24.6337   23.3054 C   0  0  0  0  0  0  0  0  0  0  0  0
  -23.9188  -26.5873   21.2326 C   0  0  0  0  0  0  0  0  0  0  0  0
  -20.4119  -20.2096   20.0749 C   0  0  0  0  0  0  0  0  0  0  0  0
  -27.6213  -20.7730   22.2345 C   0  0  0  0  0  0  0  0  0  0  0  0
  -20.8598  -21.4735   20.7937 C   0  0  0  0  0  0  0  0  0  0  0  0
  -27.4571  -19.2712   22.0016 C   0  0  0  0  0  0  0  0  0  0  0  0
  -31.3541  -23.2710   15.4359 C   0  0  0  0  0  0  0  0  0  0  0  0
  -32.5664  -22.8126   16.2340 C   0  0  0  0  0  0  0  0  0  0  0  0
  -29.3489  -22.4902   16.8320 C   0  0  0  0  0  0  0  0  0  0  0  0
  -27.7261  -21.5217   20.9106 C   0  0  0  0  0  0  0  0  0  0  0  0
  -29.9834  -21.2349   17.4445 C   0  0  0  0  0  0  0  0  0  0  0  0
  -28.6798  -19.5354   19.7864 C   0  0  0  0  0  0  0  0  0  0  0  0
  -32.0668  -21.9876   18.6122 C   0  0  0  0  0  0  0  0  0  0  0  0
  -22.2848  -21.3158   21.3390 C   0  0  1  0  0  0  0  0  0  0  0  0
  -23.2901  -24.6917   22.7602 C   0  0  1  0  0  0  0  0  0  0  0  0
  -28.5755  -18.7260   21.0952 C   0  0  2  0  0  0  0  0  0  0  0  0
  -30.2889  -23.6421   16.4548 C   0  0  1  0  0  0  0  0  0  0  0  0
  -32.3128  -23.1940   17.6945 C   0  0  2  0  0  0  0  0  0  0  0  0
  -20.7323  -31.9914   23.1787 C   0  0  0  0  0  0  0  0  0  0  0  0
  -20.2805  -26.3814   19.6865 C   0  0  0  0  0  0  0  0  0  0  0  0
  -19.7964  -28.8298   19.8847 C   0  0  0  0  0  0  0  0  0  0  0  0
  -18.8531  -27.2346   21.5545 C   0  0  0  0  0  0  0  0  0  0  0  0
  -23.8283  -30.5686   24.8717 C   0  0  0  0  0  0  0  0  0  0  0  0
  -30.2273  -26.3751   18.1046 C   0  0  0  0  0  0  0  0  0  0  0  0
  -31.4221  -25.5493   17.6521 C   0  0  0  0  0  0  0  0  0  0  0  0
  -29.7225  -26.0120   19.4956 C   0  0  0  0  0  0  0  0  0  1  0  0
  -21.3255  -27.7610   21.6024 C   0  0  1  0  0  0  0  0  0  0  0  0
  -21.6397  -30.8942   23.7130 C   0  0  2  0  0  0  0  0  0  0  0  0
  -20.0906  -27.5421   20.6834 C   0  0  0  0  0  0  0  0  0  0  0  0
  -27.1718  -16.7268   20.7550 N   0  0  0  0  0  0  0  0  0  0  0  0
  -28.4112  -17.2417   20.8251 N   0  0  0  0  0  0  0  0  0  0  0  0
  -22.9598  -25.9947   22.1795 N   0  0  0  0  0  0  0  0  0  0  0  0
  -28.7939  -20.9723   20.0770 N   0  0  0  0  0  0  0  0  0  0  0  0
  -30.6766  -21.5271   18.7080 N   0  0  0  0  0  0  0  0  0  0  0  0
  -30.7051  -16.6708   20.6736 N   0  0  0  0  0  0  0  0  0  0  0  0
  -28.6038  -12.7320   19.9907 N   0  0  0  0  0  0  0  0  0  0  0  0
  -22.5933  -22.4457   22.1876 N   0  0  0  0  0  0  0  0  0  0  0  0
  -21.1635  -28.8364   22.5749 N   0  0  0  0  0  0  0  0  0  0  0  0
  -31.0873  -24.0835   17.6628 N   0  3  1  0  0  0  0  0  0  0  0  0
  -22.8580  -31.5307   24.2887 N   0  3  0  0  0  0  0  0  0  0  0  0
  -30.6549  -13.7445   20.1530 O   0  0  0  0  0  0  0  0  0  0  0  0
  -23.2182  -23.9469   20.5208 O   0  0  0  0  0  0  0  0  0  0  0  0
  -20.8543  -26.0529   23.1793 O   0  0  0  0  0  0  0  0  0  0  0  0
  -22.9871  -30.0873   21.8770 O   0  0  0  0  0  0  0  0  0  0  0  0
  -30.4207  -22.4233   20.8258 O   0  0  0  0  0  0  0  0  0  0  0  0
  -23.0952  -11.9024   19.9457 O   0  0  0  0  0  0  0  0  0  0  0  0
  -28.5996  -26.8292   19.8011 O   0  0  0  0  0  0  0  0  0  1  0  0
  -23.3995   -7.0515   22.5495 F   0  0  0  0  0  0  0  0  0  0  0  0
  -21.2088  -11.1862   21.8354 F   0  0  0  0  0  0  0  0  0  0  0  0
  1  2  1  0  0  0  0
  1  5  2  0  0  0  0
  2  6  2  0  0  0  0
  3  8  2  0  0  0  0
  3 15  1  0  0  0  0
  4  9  1  0  0  0  0
  4 15  2  0  0  0  0
  5 17  1  0  0  0  0
  6 19  1  0  0  0  0
  7 10  2  0  0  0  0
  7 18  1  0  0  0  0
  8 21  1  0  0  0  0
  9 21  2  0  0  0  0
 10 22  1  0  0  0  0
 11 12  2  0  0  0  0
 11 23  1  0  0  0  0
 12 24  1  0  0  0  0
 13 20  1  0  0  0  0
 13 22  2  0  0  0  0
 14 24  2  0  0  0  0
 14 25  1  0  0  0  0
 15 26  1  0  0  0  0
 16 26  1  0  0  0  0
 16 27  2  0  0  0  0
 16 28  1  0  0  0  0
 17 19  2  0  0  0  0
 17 33  1  0  0  0  0
 18 20  2  0  0  0  0
 18 34  1  0  0  0  0
 19 47  1  0  0  0  0
 20 35  1  0  0  0  0
 21 79  1  0  0  0  0
 22 80  1  0  0  0  0
 23 25  2  0  0  0  0
 23 79  1  0  0  0  0
 24 81  1  0  0  0  0
 25 82  1  0  0  0  0
 26 63  2  0  0  0  0
 27 64  1  0  0  0  0
 27 68  1  0  0  0  0
 28 69  1  0  0  0  0
 28 74  2  0  0  0  0
 29 48  1  0  0  0  0
 29 70  1  0  0  0  0
 29 75  2  0  0  0  0
 30 60  1  0  0  0  0
 30 65  1  0  0  0  0
 30 76  2  0  0  0  0
 31 61  1  0  0  0  0
 31 71  1  0  0  0  0
 31 77  2  0  0  0  0
 32 66  1  0  0  0  0
 32 67  1  0  0  0  0
 32 78  2  0  0  0  0
 33 36  1  0  0  0  0
 34 48  1  0  0  0  0
 35 65  1  0  0  0  0
 36 38  1  0  0  0  0
 37 39  1  0  0  0  0
 37 43  1  0  0  0  0
 38 47  1  0  0  0  0
 39 49  1  0  0  0  0
 40 41  1  0  0  0  0
 40 50  1  0  0  0  0
 41 51  1  0  0  0  0
 42 44  1  0  0  0  0
 42 50  1  0  0  0  0
 43 66  1  0  0  0  0
 44 67  1  0  0  0  0
 45 49  1  0  0  0  0
 45 66  1  0  0  0  0
 46 51  1  0  0  0  0
 46 67  1  0  0  0  0
 47 70  1  0  0  0  0
 48 65  1  0  0  0  0
 49 64  1  0  0  0  0
 50 72  1  0  0  0  0
 51 72  1  0  0  0  0
 52 61  1  0  0  0  0
 53 62  1  0  0  0  0
 54 62  1  0  0  0  0
 55 62  1  0  0  0  0
 56 73  1  0  0  0  0
 57 58  1  0  0  0  0
 57 59  1  0  0  0  0
 58 72  1  0  0  0  0
 59 80  1  0  0  0  0
 60 62  1  0  0  0  0
 60 71  1  0  0  0  0
 61 73  1  0  0  0  0
 63 64  1  0  0  0  0
M  CHG  2  72   1  73   1
M  ISO  4  32 100  59 101  67 100  80 101
M  END
> <Batch ID>
0008

> <Smiles>
CNC(C)C(=O)NC(C(=O)N1Cc2cc([101O:1][101CH2:1]CCN3C4CCC3C[100N:0]([100C:0](=O)N3CCCC(n5nc(-c6ccc(Oc7ccc(F)cc7F)cc6)c(C(N)=O)c5N)C3)CC4)ccc2CC1C(=O)NC1CCCc2ccccc21)C(C)(C)C

> <Shape>
0.244

> <Color>
0.060

> <Negative vol penalty>
0.000

$$$$

  -OEChem-04042320353D

 73 80  0     1  0  0  0  0  0999 V2000
  -28.7807  -11.4027   19.8413 C   0  0  0  0  0  0  0  0  0  0  0  0
  -28.8747  -12.6791   19.2960 C   0  0  0  0  0  0  0  0  0  0  0  0
  -25.9114  -28.9143   20.8188 C   0  0  0  0  0  0  0  0  0  0  0  0
  -25.2447  -26.5922   20.8056 C   0  0  0  0  0  0  0  0  0  0  0  0
  -27.5741  -10.9659   20.3863 C   0  0  0  0  0  0  0  0  0  0  0  0
  -27.7616  -13.5191   19.2943 C   0  0  0  0  0  0  0  0  0  0  0  0
  -28.8908  -18.2435   20.7261 C   0  0  0  0  0  0  0  0  0  0  0  0
  -24.5811  -29.2972   20.6476 C   0  0  0  0  0  0  0  0  0  0  0  0
  -23.9144  -26.9751   20.6344 C   0  0  0  0  0  0  0  0  0  0  0  0
  -29.5037  -19.0657   19.7816 C   0  0  0  0  0  0  0  0  0  0  0  0
  -20.2991  -27.3512   20.5553 C   0  0  0  0  0  0  0  0  0  0  0  0
  -19.3346  -26.7145   21.3363 C   0  0  0  0  0  0  0  0  0  0  0  0
  -27.3782  -20.1087   19.3193 C   0  0  0  0  0  0  0  0  0  0  0  0
  -20.4277  -27.5133   23.3374 C   0  0  0  0  0  0  0  0  0  0  0  0
  -26.2432  -27.5618   20.8978 C   0  0  0  0  0  0  0  0  0  0  0  0
  -28.2943  -26.9641   22.2918 C   0  0  0  0  0  0  0  0  0  0  0  0
  -26.4483  -11.8044   20.4000 C   0  0  0  0  0  0  0  0  0  0  0  0
  -27.5128  -18.3403   20.9669 C   0  0  0  0  0  0  0  0  0  0  0  0
  -26.5384  -13.0925   19.8388 C   0  0  0  0  0  0  0  0  0  0  0  0
  -26.7507  -19.2883   20.2692 C   0  0  0  0  0  0  0  0  0  0  0  0
  -23.5826  -28.3276   20.5554 C   0  0  0  0  0  0  0  0  0  0  0  0
  -28.7469  -19.9965   19.0760 C   0  0  0  0  0  0  0  0  0  0  0  0
  -21.3280  -28.0688   21.1653 C   0  0  0  0  0  0  0  0  0  0  0  0
  -19.3988  -26.7956   22.7274 C   0  0  0  0  0  0  0  0  0  0  0  0
  -21.3923  -28.1499   22.5564 C   0  0  0  0  0  0  0  0  0  0  0  0
  -27.6173  -27.1656   21.0741 C   0  0  0  0  0  0  0  0  0  0  0  0
  -29.5659  -26.6003   21.9215 C   0  0  0  0  0  0  0  0  0  0  0  0
  -27.8165  -27.0941   23.6374 C   0  0  0  0  0  0  0  0  0  0  0  0
  -25.0394  -16.3661   20.6693 C   0  0  0  0  0  0  0  0  0  0  0  0
  -23.4301  -18.7916   22.1009 C   0  0  0  0  0  0  0  0  0  0  0  0
  -23.2352  -22.1273   22.7949 C   0  0  0  0  0  0  0  0  0  0  0  0
  -31.8053  -24.0606   16.9833 C   0  0  0  0  0  0  0  0  0  0  0  0
  -25.1525  -11.2708   20.9575 C   0  0  0  0  0  0  0  0  0  0  0  0
  -26.8716  -17.4645   22.0082 C   0  0  0  0  0  0  0  0  0  0  0  0
  -25.2716  -19.4460   20.5052 C   0  0  0  0  0  0  0  0  0  0  0  0
  -24.1234  -12.3586   21.2544 C   0  0  0  0  0  0  0  0  0  0  0  0
  -32.7528  -27.1859   18.4013 C   0  0  0  0  0  0  0  0  0  0  0  0
  -24.0228  -13.3319   20.0842 C   0  0  0  0  0  0  0  0  0  0  0  0
  -31.6052  -27.5169   19.3570 C   0  0  0  0  0  0  0  0  0  0  0  0
  -32.2517  -26.4924   17.1365 C   0  0  0  0  0  0  0  0  0  0  0  0
  -30.2768  -25.6255   18.3290 C   0  0  0  0  0  0  0  0  0  0  0  0
  -25.3600  -14.0420   19.8407 C   0  0  1  0  0  0  0  0  0  0  0  0
  -25.3693  -17.2948   21.8034 C   0  0  1  0  0  0  0  0  0  0  0  0
  -30.7390  -26.2758   19.6442 C   0  0  2  0  0  0  0  0  0  0  0  0
  -21.7856  -23.8170   23.9528 C   0  0  0  0  0  0  0  0  0  0  0  0
  -21.4554  -18.6861   19.7772 C   0  0  0  0  0  0  0  0  0  0  0  0
  -20.6243  -20.9432   20.4723 C   0  0  0  0  0  0  0  0  0  0  0  0
  -20.4056  -19.0030   22.0249 C   0  0  0  0  0  0  0  0  0  0  0  0
  -25.3980  -22.8660   24.6752 C   0  0  0  0  0  0  0  0  0  0  0  0
  -31.2354  -21.6456   16.9357 C   0  0  0  0  0  0  0  0  0  0  0  0
  -30.7465  -20.6355   17.9583 C   0  0  0  0  0  0  0  0  0  1  0  0
  -22.6870  -20.0136   21.6176 C   0  0  1  0  0  0  0  0  0  0  0  0
  -22.9697  -22.8728   24.0904 C   0  0  2  0  0  0  0  0  0  0  0  0
  -21.3206  -19.6574   20.9669 C   0  0  0  0  0  0  0  0  0  0  0  0
  -28.3944  -26.9480   20.0099 N   0  0  0  0  0  0  0  0  0  0  0  0
  -29.5730  -26.6061   20.5576 N   0  0  0  0  0  0  0  0  0  0  0  0
  -24.6895  -18.5623   21.5289 N   0  0  0  0  0  0  0  0  0  0  0  0
  -31.4385  -25.3228   17.4784 N   0  0  0  0  0  0  0  0  0  0  0  0
  -30.6675  -26.2792   22.6327 N   0  0  0  0  0  0  0  0  0  0  0  0
  -26.4833  -27.4765   23.8389 N   0  0  0  0  0  0  0  0  0  0  0  0
  -25.5584  -15.0937   20.8148 N   0  0  0  0  0  0  0  0  0  0  0  0
  -22.5873  -20.9105   22.7639 N   0  0  0  0  0  0  0  0  0  0  0  0
  -30.9843  -23.0048   17.3602 N   0  0  0  0  0  0  0  0  0  0  0  0
  -24.1650  -23.6719   24.4825 N   0  3  0  0  0  0  0  0  0  0  0  0
  -28.5547  -26.8935   24.6315 O   0  0  0  0  0  0  0  0  0  0  0  0
  -24.3627  -16.7733   19.7323 O   0  0  0  0  0  0  0  0  0  0  0  0
  -22.9152  -18.0710   22.9596 O   0  0  0  0  0  0  0  0  0  0  0  0
  -23.9432  -22.5808   21.8985 O   0  0  0  0  0  0  0  0  0  0  0  0
  -32.7944  -23.8864   16.2633 O   0  0  0  0  0  0  0  0  0  0  0  0
  -22.2844  -28.7009   20.3885 O   0  0  0  0  0  0  0  0  0  0  0  0
  -29.3424  -20.7999   18.1530 O   0  0  0  0  0  0  0  0  0  1  0  0
  -18.4716  -26.1855   23.4772 F   0  0  0  0  0  0  0  0  0  0  0  0
  -22.3777  -28.8388   23.1481 F   0  0  0  0  0  0  0  0  0  0  0  0
  1  2  1  0  0  0  0
  1  5  2  0  0  0  0
  2  6  2  0  0  0  0
  3  8  2  0  0  0  0
  3 15  1  0  0  0  0
  4  9  1  0  0  0  0
  4 15  2  0  0  0  0
  5 17  1  0  0  0  0
  6 19  1  0  0  0  0
  7 10  2  0  0  0  0
  7 18  1  0  0  0  0
  8 21  1  0  0  0  0
  9 21  2  0  0  0  0
 10 22  1  0  0  0  0
 11 12  2  0  0  0  0
 11 23  1  0  0  0  0
 12 24  1  0  0  0  0
 13 20  1  0  0  0  0
 13 22  2  0  0  0  0
 14 24  2  0  0  0  0
 14 25  1  0  0  0  0
 15 26  1  0  0  0  0
 16 26  1  0  0  0  0
 16 27  2  0  0  0  0
 16 28  1  0  0  0  0
 17 19  2  0  0  0  0
 17 33  1  0  0  0  0
 18 20  2  0  0  0  0
 18 34  1  0  0  0  0
 19 42  1  0  0  0  0
 20 35  1  0  0  0  0
 21 70  1  0  0  0  0
 22 71  1  0  0  0  0
 23 25  2  0  0  0  0
 23 70  1  0  0  0  0
 24 72  1  0  0  0  0
 25 73  1  0  0  0  0
 26 55  2  0  0  0  0
 27 56  1  0  0  0  0
 27 59  1  0  0  0  0
 28 60  1  0  0  0  0
 28 65  2  0  0  0  0
 29 43  1  0  0  0  0
 29 61  1  0  0  0  0
 29 66  2  0  0  0  0
 30 52  1  0  0  0  0
 30 57  1  0  0  0  0
 30 67  2  0  0  0  0
 31 53  1  0  0  0  0
 31 62  1  0  0  0  0
 31 68  2  0  0  0  0
 32 58  1  0  0  0  0
 32 63  1  0  0  0  0
 32 69  2  0  0  0  0
 33 36  1  0  0  0  0
 34 43  1  0  0  0  0
 35 57  1  0  0  0  0
 36 38  1  0  0  0  0
 37 39  1  0  0  0  0
 37 40  1  0  0  0  0
 38 42  1  0  0  0  0
 39 44  1  0  0  0  0
 40 58  1  0  0  0  0
 41 44  1  0  0  0  0
 41 58  1  0  0  0  0
 42 61  1  0  0  0  0
 43 57  1  0  0  0  0
 44 56  1  0  0  0  0
 45 53  1  0  0  0  0
 46 54  1  0  0  0  0
 47 54  1  0  0  0  0
 48 54  1  0  0  0  0
 49 64  1  0  0  0  0
 50 51  1  0  0  0  0
 50 63  1  0  0  0  0
 51 71  1  0  0  0  0
 52 54  1  0  0  0  0
 52 62  1  0  0  0  0
 53 64  1  0  0  0  0
 55 56  1  0  0  0  0
M  CHG  1  64   1
M  ISO  4  32 100  51 101  63 100  71 101
M  END
> <Batch ID>
0008

> <Smiles>
CNC(C)C(=O)NC(C(=O)N1Cc2cc([101O:1][101CH2:1]C[100NH:0][100C:0](=O)N3CCCC(n4nc(-c5ccc(Oc6ccc(F)cc6F)cc5)c(C(N)=O)c4N)C3)ccc2CC1C(=O)NC1CCCc2ccccc21)C(C)(C)C

> <Shape>
0.226

> <Color>
0.066

> <Negative vol penalty>
0.000

$$$$

  -OEChem-04042320353D

 75 83  0     1  0  0  0  0  0999 V2000
  -21.5713  -13.1597   17.1348 C   0  0  0  0  0  0  0  0  0  0  0  0
  -22.3208  -14.3283   17.0451 C   0  0  0  0  0  0  0  0  0  0  0  0
  -22.8643  -28.1194   21.9761 C   0  0  0  0  0  0  0  0  0  0  0  0
  -23.6193  -30.4128   22.0631 C   0  0  0  0  0  0  0  0  0  0  0  0
  -21.4399  -12.5095   18.3612 C   0  0  0  0  0  0  0  0  0  0  0  0
  -22.9386  -14.8480   18.1821 C   0  0  0  0  0  0  0  0  0  0  0  0
  -28.3161  -17.7671   18.4411 C   0  0  0  0  0  0  0  0  0  0  0  0
  -21.7916  -28.4410   22.8076 C   0  0  0  0  0  0  0  0  0  0  0  0
  -22.5466  -30.7344   22.8946 C   0  0  0  0  0  0  0  0  0  0  0  0
  -28.6474  -19.1207   18.4849 C   0  0  0  0  0  0  0  0  0  0  0  0
  -18.6513  -28.7360   24.6151 C   0  0  0  0  0  0  0  0  0  0  0  0
  -17.3931  -28.2423   24.2707 C   0  0  0  0  0  0  0  0  0  0  0  0
  -28.8043  -18.9983   20.8890 C   0  0  0  0  0  0  0  0  0  0  0  0
  -17.5052  -29.4240   22.1664 C   0  0  0  0  0  0  0  0  0  0  0  0
  -23.7782  -29.1053   21.6038 C   0  0  0  0  0  0  0  0  0  0  0  0
  -24.9155  -28.8177   19.3386 C   0  0  0  0  0  0  0  0  0  0  0  0
  -22.0643  -13.0163   19.5118 C   0  0  0  0  0  0  0  0  0  0  0  0
  -28.2155  -17.0203   19.6238 C   0  0  0  0  0  0  0  0  0  0  0  0
  -22.8143  -14.2048   19.4253 C   0  0  0  0  0  0  0  0  0  0  0  0
  -28.4740  -17.6348   20.8573 C   0  0  0  0  0  0  0  0  0  0  0  0
  -21.6327  -29.7485   23.2669 C   0  0  0  0  0  0  0  0  0  0  0  0
  -28.8888  -19.7371   19.7092 C   0  0  0  0  0  0  0  0  0  0  0  0
  -19.3365  -29.5739   23.7351 C   0  0  0  0  0  0  0  0  0  0  0  0
  -16.8200  -28.5862   23.0464 C   0  0  0  0  0  0  0  0  0  0  0  0
  -18.7634  -29.9179   22.5108 C   0  0  0  0  0  0  0  0  0  0  0  0
  -24.8868  -28.7736   20.7453 C   0  0  0  0  0  0  0  0  0  0  0  0
  -26.1857  -28.4129   19.0082 C   0  0  0  0  0  0  0  0  0  0  0  0
  -23.8860  -29.1913   18.4132 C   0  0  0  0  0  0  0  0  0  0  0  0
  -25.8795  -15.4335   21.0829 C   0  0  0  0  0  0  0  0  0  0  0  0
  -28.2698  -14.5295   23.0807 C   0  0  0  0  0  0  0  0  0  0  0  0
  -31.3481  -15.1871   24.3994 C   0  0  0  0  0  0  0  0  0  0  0  0
  -30.4934  -24.9408   19.7091 C   0  0  0  0  0  0  0  0  0  0  0  0
  -21.8546  -12.3044   20.8248 C   0  0  0  0  0  0  0  0  0  0  0  0
  -27.8832  -15.5549   19.5576 C   0  0  0  0  0  0  0  0  0  0  0  0
  -28.3990  -16.8726   22.1542 C   0  0  0  0  0  0  0  0  0  0  0  0
  -22.8501  -12.7158   21.9065 C   0  0  0  0  0  0  0  0  0  0  0  0
  -30.2880  -27.7350   21.8583 C   0  0  0  0  0  0  0  0  0  0  0  0
  -22.9851  -14.2343   21.9582 C   0  0  0  0  0  0  0  0  0  0  0  0
  -28.8616  -28.2466   21.6768 C   0  0  0  0  0  0  0  0  0  0  0  0
  -29.6758  -22.0251   17.5786 C   0  0  0  0  0  0  0  0  0  0  0  0
  -30.3253  -26.2133   21.8190 C   0  0  0  0  0  0  0  0  0  0  0  0
  -30.6477  -23.0814   18.0844 C   0  0  0  0  0  0  0  0  0  0  0  0
  -28.3427  -26.1452   20.3311 C   0  0  0  0  0  0  0  0  0  0  0  0
  -28.5560  -23.3214   19.2435 C   0  0  0  0  0  0  0  0  0  0  0  0
  -23.5199  -14.7861   20.6312 C   0  0  1  0  0  0  0  0  0  0  0  0
  -27.3052  -15.0138   20.8616 C   0  0  1  0  0  0  0  0  0  0  0  0
  -28.2438  -27.6837   20.3874 C   0  0  1  0  0  0  0  0  0  0  0  0
  -28.6814  -21.8931   18.7271 C   0  0  2  0  0  0  0  0  0  1  0  0
  -33.0232  -14.2862   26.0363 C   0  0  0  0  0  0  0  0  0  0  0  0
  -26.5513  -15.5388   25.3911 C   0  0  0  0  0  0  0  0  0  0  0  0
  -28.5955  -15.5014   26.8362 C   0  0  0  0  0  0  0  0  0  0  0  0
  -27.7374  -13.3827   25.8375 C   0  0  0  0  0  0  0  0  0  0  0  0
  -33.4051  -14.8675   22.2957 C   0  0  0  0  0  0  0  0  0  0  0  0
  -28.8699  -15.0847   24.3499 C   0  0  1  0  0  0  0  0  0  0  0  0
  -32.5732  -14.3098   24.5839 C   0  0  2  0  0  0  0  0  0  0  0  0
  -27.9381  -14.8920   25.5796 C   0  0  0  0  0  0  0  0  0  0  0  0
  -26.0466  -28.3723   21.2724 N   0  0  0  0  0  0  0  0  0  0  0  0
  -26.8160  -28.1605   20.1910 N   0  0  0  0  0  0  0  0  0  0  0  0
  -28.0643  -15.4436   22.0377 N   0  0  0  0  0  0  0  0  0  0  0  0
  -29.7117  -25.6860   20.5988 N   0  0  0  0  0  0  0  0  0  0  0  0
  -29.8706  -23.9216   18.9891 N   0  0  0  0  0  0  0  0  0  0  0  0
  -26.8138  -28.2518   17.8241 N   0  0  0  0  0  0  0  0  0  0  0  0
  -22.6397  -29.5815   18.9220 N   0  0  0  0  0  0  0  0  0  0  0  0
  -24.9480  -14.5729   20.5341 N   0  0  0  0  0  0  0  0  0  0  0  0
  -30.1805  -14.4591   24.4894 N   0  0  0  0  0  0  0  0  0  0  0  0
  -33.7012  -14.8137   23.7505 N   0  3  0  0  0  0  0  0  0  0  0  0
  -24.0607  -29.1636   17.1713 O   0  0  0  0  0  0  0  0  0  0  0  0
  -25.6421  -16.4612   21.7066 O   0  0  0  0  0  0  0  0  0  0  0  0
  -28.0003  -13.3276   23.0146 O   0  0  0  0  0  0  0  0  0  0  0  0
  -31.4196  -16.3976   24.1994 O   0  0  0  0  0  0  0  0  0  0  0  0
  -31.7089  -25.1481   19.5930 O   0  0  0  0  0  0  0  0  0  0  0  0
  -20.5859  -30.0627   24.0781 O   0  0  0  0  0  0  0  0  0  0  0  0
  -29.2140  -21.0675   19.7551 O   0  0  0  0  0  0  0  0  0  1  0  0
  -15.6124  -28.1107   22.7152 F   0  0  0  0  0  0  0  0  0  0  0  0
  -19.4174  -30.7214   21.6609 F   0  0  0  0  0  0  0  0  0  0  0  0
  1  2  1  0  0  0  0
  1  5  2  0  0  0  0
  2  6  2  0  0  0  0
  3  8  2  0  0  0  0
  3 15  1  0  0  0  0
  4  9  1  0  0  0  0
  4 15  2  0  0  0  0
  5 17  1  0  0  0  0
  6 19  1  0  0  0  0
  7 10  2  0  0  0  0
  7 18  1  0  0  0  0
  8 21  1  0  0  0  0
  9 21  2  0  0  0  0
 10 22  1  0  0  0  0
 11 12  2  0  0  0  0
 11 23  1  0  0  0  0
 12 24  1  0  0  0  0
 13 20  1  0  0  0  0
 13 22  2  0  0  0  0
 14 24  2  0  0  0  0
 14 25  1  0  0  0  0
 15 26  1  0  0  0  0
 16 26  1  0  0  0  0
 16 27  2  0  0  0  0
 16 28  1  0  0  0  0
 17 19  2  0  0  0  0
 17 33  1  0  0  0  0
 18 20  2  0  0  0  0
 18 34  1  0  0  0  0
 19 45  1  0  0  0  0
 20 35  1  0  0  0  0
 21 72  1  0  0  0  0
 22 73  1  0  0  0  0
 23 25  2  0  0  0  0
 23 72  1  0  0  0  0
 24 74  1  0  0  0  0
 25 75  1  0  0  0  0
 26 57  2  0  0  0  0
 27 58  1  0  0  0  0
 27 62  1  0  0  0  0
 28 63  1  0  0  0  0
 28 67  2  0  0  0  0
 29 46  1  0  0  0  0
 29 64  1  0  0  0  0
 29 68  2  0  0  0  0
 30 54  1  0  0  0  0
 30 59  1  0  0  0  0
 30 69  2  0  0  0  0
 31 55  1  0  0  0  0
 31 65  1  0  0  0  0
 31 70  2  0  0  0  0
 32 60  1  0  0  0  0
 32 61  1  0  0  0  0
 32 71  2  0  0  0  0
 33 36  1  0  0  0  0
 34 46  1  0  0  0  0
 35 59  1  0  0  0  0
 36 38  1  0  0  0  0
 37 39  1  0  0  0  0
 37 41  1  0  0  0  0
 38 45  1  0  0  0  0
 39 47  1  0  0  0  0
 40 42  1  0  0  0  0
 40 48  1  0  0  0  0
 41 60  1  0  0  0  0
 42 61  1  0  0  0  0
 43 47  1  0  0  0  0
 43 60  1  0  0  0  0
 44 48  1  0  0  0  0
 44 61  1  0  0  0  0
 45 64  1  0  0  0  0
 46 59  1  0  0  0  0
 47 58  1  0  0  0  0
 48 73  1  0  0  0  0
 49 55  1  0  0  0  0
 50 56  1  0  0  0  0
 51 56  1  0  0  0  0
 52 56  1  0  0  0  0
 53 66  1  0  0  0  0
 54 56  1  0  0  0  0
 54 65  1  0  0  0  0
 55 66  1  0  0  0  0
 57 58  1  0  0  0  0
M  CHG  1  66   1
M  ISO  4  32 100  48 101  61 100  73 101
M  END
> <Batch ID>
0008

> <Smiles>
CNC(C)C(=O)NC(C(=O)N1Cc2cc([101O:1][101CH:1]3CC[100N:0]([100C:0](=O)N4CCCC(n5nc(-c6ccc(Oc7ccc(F)cc7F)cc6)c(C(N)=O)c5N)C4)C3)ccc2CC1C(=O)NC1CCCc2ccccc21)C(C)(C)C

> <Shape>
0.244

> <Color>
0.067

> <Negative vol penalty>
0.000

$$$$

  -OEChem-04042320353D

 90100  0     1  0  0  0  0  0999 V2000
  -16.6860  -23.3961   23.0680 C   0  0  0  0  0  0  0  0  0  0  0  0
  -17.7116  -22.9150   23.8756 C   0  0  0  0  0  0  0  0  0  0  0  0
  -22.7362  -10.1342   20.1915 C   0  0  0  0  0  0  0  0  0  0  0  0
  -24.2177   -9.6246   22.0306 C   0  0  0  0  0  0  0  0  0  0  0  0
  -16.9786  -24.2539   22.0086 C   0  0  0  0  0  0  0  0  0  0  0  0
  -19.0306  -23.2908   23.6235 C   0  0  0  0  0  0  0  0  0  0  0  0
  -23.4460  -24.2305   27.7620 C   0  0  0  0  0  0  0  0  0  0  0  0
  -21.9941   -8.9867   20.4713 C   0  0  0  0  0  0  0  0  0  0  0  0
  -23.4756   -8.4772   22.3105 C   0  0  0  0  0  0  0  0  0  0  0  0
  -24.4889  -23.4264   28.2200 C   0  0  0  0  0  0  0  0  0  0  0  0
  -19.6345   -8.0270   22.6947 C   0  0  0  0  0  0  0  0  0  0  0  0
  -18.2442   -8.1396   22.7006 C   0  0  0  0  0  0  0  0  0  0  0  0
  -25.9853  -24.4843   26.6512 C   0  0  0  0  0  0  0  0  0  0  0  0
  -29.8551  -18.7099   23.3920 C   0  0  0  0  0  0  0  0  0  0  0  0
  -29.6593  -17.1872   25.7214 C   0  0  0  0  0  0  0  0  0  0  0  0
  -18.1038   -6.4976   20.9339 C   0  0  0  0  0  0  0  0  0  0  0  0
  -23.8481  -10.4531   20.9711 C   0  0  0  0  0  0  0  0  0  0  0  0
  -24.1569  -12.9690   20.6835 C   0  0  0  0  0  0  0  0  0  0  0  0
  -18.3007  -24.6480   21.7493 C   0  0  0  0  0  0  0  0  0  0  0  0
  -23.6628  -25.1614   26.7359 C   0  0  0  0  0  0  0  0  0  0  0  0
  -19.3413  -24.1536   22.5588 C   0  0  0  0  0  0  0  0  0  0  0  0
  -24.9441  -25.3007   26.1838 C   0  0  0  0  0  0  0  0  0  0  0  0
  -30.4017  -17.4273   23.4348 C   0  0  0  0  0  0  0  0  0  0  0  0
  -29.1127  -18.4698   25.6786 C   0  0  0  0  0  0  0  0  0  0  0  0
  -22.3638   -8.1583   21.5308 C   0  0  0  0  0  0  0  0  0  0  0  0
  -25.7581  -23.5512   27.6626 C   0  0  0  0  0  0  0  0  0  0  0  0
  -20.2595   -7.1498   21.8084 C   0  0  0  0  0  0  0  0  0  0  0  0
  -17.4789   -7.3748   21.8202 C   0  0  0  0  0  0  0  0  0  0  0  0
  -29.2106  -19.2311   24.5139 C   0  0  0  0  0  0  0  0  0  0  0  0
  -30.3038  -16.6660   24.5995 C   0  0  0  0  0  0  0  0  0  0  0  0
  -19.4942   -6.3851   20.9280 C   0  0  0  0  0  0  0  0  0  0  0  0
  -24.6153  -11.6380   20.6821 C   0  0  0  0  0  0  0  0  0  0  0  0
  -25.2617  -13.7130   20.3484 C   0  0  0  0  0  0  0  0  0  0  0  0
  -22.8492  -13.4865   20.9627 C   0  0  0  0  0  0  0  0  0  0  0  0
  -22.5243  -25.5647   23.7957 C   0  0  0  0  0  0  0  0  0  0  0  0
  -24.2529  -28.3067   23.9222 C   0  0  0  0  0  0  0  0  0  0  0  0
  -26.8628  -30.0255   25.2935 C   0  0  0  0  0  0  0  0  0  0  0  0
  -30.7897  -14.5952   21.3380 C   0  0  0  0  0  0  0  0  0  0  0  0
  -18.5733  -25.5394   20.5636 C   0  0  0  0  0  0  0  0  0  0  0  0
  -22.5336  -26.0399   26.2716 C   0  0  0  0  0  0  0  0  0  0  0  0
  -25.2338  -26.2992   25.0940 C   0  0  0  0  0  0  0  0  0  0  0  0
  -19.9552  -26.1873   20.5936 C   0  0  0  0  0  0  0  0  0  0  0  0
  -29.7875  -12.3156   18.5993 C   0  0  0  0  0  0  0  0  0  0  0  0
  -21.0220  -25.1535   20.9398 C   0  0  0  0  0  0  0  0  0  0  0  0
  -28.4109  -17.7091   18.7107 C   0  0  0  0  0  0  0  0  0  0  0  0
  -29.3840  -18.5808   19.4543 C   0  0  0  0  0  0  0  0  0  0  0  0
  -28.3346  -11.9957   18.9471 C   0  0  0  0  0  0  0  0  0  0  0  0
  -27.3232  -19.1037   28.8386 C   0  0  0  0  0  0  0  0  0  0  0  0
  -30.6101  -12.6399   19.8426 C   0  0  0  0  0  0  0  0  0  0  0  0
  -28.3250  -18.2624   28.0505 C   0  0  0  0  0  0  0  0  0  0  0  0
  -27.8649  -20.3090   26.8434 C   0  0  0  0  0  0  0  0  0  0  0  0
  -28.5799  -13.4062   21.0281 C   0  0  0  0  0  0  0  0  0  0  0  0
  -20.7819  -24.5580   22.3324 C   0  0  1  0  0  0  0  0  0  0  0  0
  -22.7472  -26.5948   24.8666 C   0  0  1  0  0  0  0  0  0  0  0  0
  -29.4704  -17.0847   19.5759 C   0  0  0  0  0  0  0  0  0  0  0  0
  -27.5859  -20.5203   28.3358 C   0  0  1  0  0  0  0  0  0  0  0  0
  -27.7126  -13.1203   19.7930 C   0  0  2  0  0  0  0  0  0  0  0  0
  -28.0509  -32.2324   25.1685 C   0  0  0  0  0  0  0  0  0  0  0  0
  -25.5872  -27.4381   21.3193 C   0  0  0  0  0  0  0  0  0  0  0  0
  -27.3727  -29.1400   21.7481 C   0  0  0  0  0  0  0  0  0  0  0  0
  -25.0076  -29.8682   21.4342 C   0  0  0  0  0  0  0  0  0  0  0  0
  -26.2505  -30.6468   28.1216 C   0  0  0  0  0  0  0  0  0  0  0  0
  -31.0898  -16.8729   22.2334 C   0  0  0  0  0  0  0  0  0  0  0  0
  -29.0974  -16.4129   20.8535 C   0  0  0  0  0  0  0  0  0  0  0  0
  -26.4339  -21.4734   28.6017 C   0  0  0  0  0  0  0  0  0  1  0  0
  -25.6695  -28.6944   23.5734 C   0  0  1  0  0  0  0  0  0  0  0  0
  -26.9574  -31.4315   25.8581 C   0  0  2  0  0  0  0  0  0  0  0  0
  -25.9037  -28.7649   22.0380 C   0  0  0  0  0  0  0  0  0  0  0  0
  -25.9104  -11.5390   20.3708 N   0  0  0  0  0  0  0  0  0  0  0  0
  -26.2752  -12.8173   20.1732 N   0  0  0  0  0  0  0  0  0  0  0  0
  -28.4764  -18.9828   26.7889 N   0  0  3  0  0  0  0  0  0  0  0  0
  -24.0955  -27.1308   24.6695 N   0  0  0  0  0  0  0  0  0  0  0  0
  -29.9743  -13.6812   20.6505 N   0  0  0  0  0  0  0  0  0  0  0  0
  -25.4553  -15.0395   20.1894 N   0  0  0  0  0  0  0  0  0  0  0  0
  -22.5341  -13.8278   22.2850 N   0  0  0  0  0  0  0  0  0  0  0  0
  -21.2161  -25.4814   23.3586 N   0  0  0  0  0  0  0  0  0  0  0  0
  -25.9353  -29.9449   24.2764 N   0  0  0  0  0  0  0  0  0  0  0  0
  -30.2772  -15.8863   21.5361 N   0  0  0  0  0  0  0  0  0  0  0  0
  -27.2580  -31.3847   27.3170 N   0  3  0  0  0  0  0  0  0  0  0  0
  -21.9803  -13.6263   20.0689 O   0  0  0  0  0  0  0  0  0  0  0  0
  -23.4696  -24.8960   23.3945 O   0  0  0  0  0  0  0  0  0  0  0  0
  -23.3207  -29.0245   23.5516 O   0  0  0  0  0  0  0  0  0  0  0  0
  -27.5463  -29.0930   25.7103 O   0  0  0  0  0  0  0  0  0  0  0  0
  -31.9157  -14.2783   21.7427 O   0  0  0  0  0  0  0  0  0  0  0  0
  -21.6398   -7.0386   21.8043 O   0  0  0  0  0  0  0  0  0  0  0  0
  -26.7776  -22.7672   28.1073 O   0  0  0  0  0  0  0  0  0  1  0  0
  -16.1437   -7.4819   21.8270 F   0  0  0  0  0  0  0  0  0  0  0  0
  -28.6888  -20.4650   24.4618 F   0  0  0  0  0  0  0  0  0  0  0  0
  -30.8261  -15.4325   24.6501 F   0  0  0  0  0  0  0  0  0  0  0  0
  -20.0889   -5.5398   20.0750 F   0  0  0  0  0  0  0  0  0  0  0  0
  1  2  1  0  0  0  0
  1  5  2  0  0  0  0
  2  6  2  0  0  0  0
  3  8  2  0  0  0  0
  3 17  1  0  0  0  0
  4  9  1  0  0  0  0
  4 17  2  0  0  0  0
  5 19  1  0  0  0  0
  6 21  1  0  0  0  0
  7 10  2  0  0  0  0
  7 20  1  0  0  0  0
  8 25  1  0  0  0  0
  9 25  2  0  0  0  0
 10 26  1  0  0  0  0
 11 12  2  0  0  0  0
 11 27  1  0  0  0  0
 12 28  1  0  0  0  0
 13 22  1  0  0  0  0
 13 26  2  0  0  0  0
 14 23  2  0  0  0  0
 14 29  1  0  0  0  0
 15 24  1  0  0  0  0
 15 30  2  0  0  0  0
 16 28  2  0  0  0  0
 16 31  1  0  0  0  0
 17 32  1  0  0  0  0
 18 32  1  0  0  0  0
 18 33  2  0  0  0  0
 18 34  1  0  0  0  0
 19 21  2  0  0  0  0
 19 39  1  0  0  0  0
 20 22  2  0  0  0  0
 20 40  1  0  0  0  0
 21 53  1  0  0  0  0
 22 41  1  0  0  0  0
 23 30  1  0  0  0  0
 23 63  1  0  0  0  0
 24 29  2  0  0  0  0
 24 71  1  0  0  0  0
 25 85  1  0  0  0  0
 26 86  1  0  0  0  0
 27 31  2  0  0  0  0
 27 85  1  0  0  0  0
 28 87  1  0  0  0  0
 29 88  1  0  0  0  0
 30 89  1  0  0  0  0
 31 90  1  0  0  0  0
 32 69  2  0  0  0  0
 33 70  1  0  0  0  0
 33 74  1  0  0  0  0
 34 75  1  0  0  0  0
 34 80  2  0  0  0  0
 35 54  1  0  0  0  0
 35 76  1  0  0  0  0
 35 81  2  0  0  0  0
 36 66  1  0  0  0  0
 36 72  1  0  0  0  0
 36 82  2  0  0  0  0
 37 67  1  0  0  0  0
 37 77  1  0  0  0  0
 37 83  2  0  0  0  0
 38 73  1  0  0  0  0
 38 78  1  0  0  0  0
 38 84  2  0  0  0  0
 39 42  1  0  0  0  0
 40 54  1  0  0  0  0
 41 72  1  0  0  0  0
 42 44  1  0  0  0  0
 43 47  1  0  0  0  0
 43 49  1  0  0  0  0
 44 53  1  0  0  0  0
 45 46  1  0  0  0  0
 45 55  1  0  0  0  0
 46 55  1  0  0  0  0
 47 57  1  0  0  0  0
 48 50  1  0  0  0  0
 48 56  1  0  0  0  0
 49 73  1  0  0  0  0
 50 71  1  0  0  0  0
 51 56  1  0  0  0  0
 51 71  1  0  0  0  0
 52 57  1  0  0  0  0
 52 73  1  0  0  0  0
 53 76  1  0  0  0  0
 54 72  1  0  0  0  0
 55 64  1  0  0  0  0
 56 65  1  0  0  0  0
 57 70  1  0  0  0  0
 58 67  1  0  0  0  0
 59 68  1  0  0  0  0
 60 68  1  0  0  0  0
 61 68  1  0  0  0  0
 62 79  1  0  0  0  0
 63 78  1  0  0  0  0
 64 78  1  0  0  0  0
 65 86  1  0  0  0  0
 66 68  1  0  0  0  0
 66 77  1  0  0  0  0
 67 79  1  0  0  0  0
 69 70  1  0  0  0  0
M  CHG  1  79   1
M  ISO  4  38 100  65 101  78 100  86 101
M  END
> <Batch ID>
0008

> <Smiles>
CNC(C)C(=O)NC(C(=O)N1Cc2cc([101O:1][101CH2:1]C3CCN(c4cc(F)c(C[100N:0](CC5CC5)[100C:0](=O)N5CCCC(n6nc(-c7ccc(Oc8ccc(F)cc8F)cc7)c(C(N)=O)c6N)C5)cc4F)C3)ccc2CC1C(=O)NC1CCCc2ccccc21)C(C)(C)C

> <Shape>
0.243

> <Color>
0.173

> <Negative vol penalty>
0.000

$$$$

  -OEChem-04042320353D

 80 88  0     1  0  0  0  0  0999 V2000
  -40.5188  -26.0778   18.4892 C   0  0  0  0  0  0  0  0  0  0  0  0
  -39.7448  -25.0902   19.0900 C   0  0  0  0  0  0  0  0  0  0  0  0
  -23.0777   -9.8645   19.9438 C   0  0  0  0  0  0  0  0  0  0  0  0
  -23.8341   -9.8783   22.2382 C   0  0  0  0  0  0  0  0  0  0  0  0
  -40.3499  -27.4127   18.8544 C   0  0  0  0  0  0  0  0  0  0  0  0
  -38.8022  -25.4369   20.0573 C   0  0  0  0  0  0  0  0  0  0  0  0
  -33.3755  -22.7709   21.0314 C   0  0  0  0  0  0  0  0  0  0  0  0
  -30.4582  -18.3548   24.0317 C   0  0  0  0  0  0  0  0  0  0  0  0
  -29.8725  -17.4663   23.1299 C   0  0  0  0  0  0  0  0  0  0  0  0
  -22.3339   -8.7117   20.1959 C   0  0  0  0  0  0  0  0  0  0  0  0
  -23.0903   -8.7256   22.4904 C   0  0  0  0  0  0  0  0  0  0  0  0
  -32.9525  -21.8137   21.9526 C   0  0  0  0  0  0  0  0  0  0  0  0
  -19.8616   -7.9281   23.0903 C   0  0  0  0  0  0  0  0  0  0  0  0
  -19.1029   -7.8911   24.2602 C   0  0  0  0  0  0  0  0  0  0  0  0
  -32.1449  -23.5692   23.3967 C   0  0  0  0  0  0  0  0  0  0  0  0
  -32.0581  -16.6188   22.5453 C   0  0  0  0  0  0  0  0  0  0  0  0
  -20.3441   -5.9563   25.0040 C   0  0  0  0  0  0  0  0  0  0  0  0
  -23.8278  -10.4478   20.9649 C   0  0  0  0  0  0  0  0  0  0  0  0
  -24.1687  -12.9727   20.8382 C   0  0  0  0  0  0  0  0  0  0  0  0
  -39.3980  -27.7770   19.8197 C   0  0  0  0  0  0  0  0  0  0  0  0
  -33.1958  -24.1371   21.2913 C   0  0  0  0  0  0  0  0  0  0  0  0
  -38.6213  -26.7778   20.4367 C   0  0  0  0  0  0  0  0  0  0  0  0
  -32.5641  -24.5416   22.4760 C   0  0  0  0  0  0  0  0  0  0  0  0
  -31.8439  -18.3753   24.1902 C   0  0  0  0  0  0  0  0  0  0  0  0
  -30.6724  -16.5983   22.3867 C   0  0  0  0  0  0  0  0  0  0  0  0
  -22.3402   -8.1423   21.4692 C   0  0  0  0  0  0  0  0  0  0  0  0
  -32.3398  -22.2129   23.1368 C   0  0  0  0  0  0  0  0  0  0  0  0
  -20.8615   -6.9791   22.8772 C   0  0  0  0  0  0  0  0  0  0  0  0
  -19.3442   -6.9053   25.2171 C   0  0  0  0  0  0  0  0  0  0  0  0
  -32.6439  -17.5073   23.4471 C   0  0  0  0  0  0  0  0  0  0  0  0
  -21.1027   -5.9932   23.8341 C   0  0  0  0  0  0  0  0  0  0  0  0
  -24.5968  -11.6382   20.7050 C   0  0  0  0  0  0  0  0  0  0  0  0
  -25.2611  -13.7216   20.4745 C   0  0  0  0  0  0  0  0  0  0  0  0
  -22.8974  -13.4892   21.2538 C   0  0  0  0  0  0  0  0  0  0  0  0
  -35.1400  -26.6239   21.6652 C   0  0  0  0  0  0  0  0  0  0  0  0
  -32.3581  -28.2903   21.7461 C   0  0  0  0  0  0  0  0  0  0  0  0
  -28.9974  -28.2909   22.3399 C   0  0  0  0  0  0  0  0  0  0  0  0
  -30.7266  -14.7701   20.6544 C   0  0  0  0  0  0  0  0  0  0  0  0
  -39.2845  -29.2278   20.2160 C   0  0  0  0  0  0  0  0  0  0  0  0
  -33.6335  -25.1562   20.2752 C   0  0  0  0  0  0  0  0  0  0  0  0
  -32.3295  -25.9951   22.7932 C   0  0  0  0  0  0  0  0  0  0  0  0
  -38.0025  -29.5524   20.9786 C   0  0  0  0  0  0  0  0  0  0  0  0
  -29.6168  -12.3491   18.2913 C   0  0  0  0  0  0  0  0  0  0  0  0
  -37.7543  -28.5168   22.0707 C   0  0  0  0  0  0  0  0  0  0  0  0
  -28.1766  -12.0581   18.7196 C   0  0  0  0  0  0  0  0  0  0  0  0
  -30.5300  -12.5817   19.4937 C   0  0  0  0  0  0  0  0  0  0  0  0
  -28.6206  -13.3093   20.8700 C   0  0  0  0  0  0  0  0  0  0  0  0
  -37.5711  -27.1169   21.4722 C   0  0  1  0  0  0  0  0  0  0  0  0
  -33.8637  -26.5391   20.8768 C   0  0  1  0  0  0  0  0  0  0  0  0
  -27.6497  -13.1322   19.6912 C   0  0  2  0  0  0  0  0  0  0  0  0
  -27.0006  -29.8108   22.3591 C   0  0  0  0  0  0  0  0  0  0  0  0
  -33.2959  -29.4850   24.3924 C   0  0  0  0  0  0  0  0  0  0  0  0
  -30.9392  -30.2150   24.8180 C   0  0  0  0  0  0  0  0  0  0  0  0
  -32.1841  -31.1097   22.8502 C   0  0  0  0  0  0  0  0  0  0  0  0
  -27.6304  -26.7124   20.2427 C   0  0  0  0  0  0  0  0  0  0  0  0
  -32.4719  -19.3345   25.1661 C   0  0  0  0  0  0  0  0  0  0  0  0
  -31.3933  -28.7084   22.8294 C   0  0  1  0  0  0  0  0  0  0  0  0
  -27.8325  -28.8397   21.5359 C   0  0  2  0  0  0  0  0  0  0  0  0
  -31.9591  -29.8521   23.7177 C   0  0  0  0  0  0  0  0  0  0  0  0
  -25.8623  -11.5418   20.2888 N   0  0  0  0  0  0  0  0  0  0  0  0
  -26.2388  -12.8251   20.1574 N   0  0  0  0  0  0  0  0  0  0  0  0
  -32.7809  -26.9538   21.7711 N   0  0  0  0  0  0  0  0  0  0  0  0
  -29.9692  -13.6148   20.3673 N   0  0  0  0  0  0  0  0  0  0  0  0
  -25.4711  -15.0530   20.3980 N   0  0  0  0  0  0  0  0  0  0  0  0
  -21.8854  -12.5805   21.5921 N   0  0  0  0  0  0  0  0  0  0  0  0
  -30.0776  -15.6972   21.4692 N   0  0  0  0  0  0  0  0  0  0  0  0
  -36.2439  -26.9762   20.9125 N   0  0  0  0  0  0  0  0  0  0  0  0
  -30.1417  -29.0381   22.1563 N   0  0  0  0  0  0  0  0  0  0  0  0
  -33.0640  -20.4820   24.4935 N   0  0  0  0  0  0  0  0  0  1  0  0
  -26.9474  -27.7297   21.0827 N   0  3  0  0  0  0  0  0  0  0  0  0
  -22.6605  -14.7198   21.3073 O   0  0  0  0  0  0  0  0  0  0  0  0
  -35.1240  -26.3887   22.8678 O   0  0  0  0  0  0  0  0  0  0  0  0
  -32.7175  -29.1173   20.9043 O   0  0  0  0  0  0  0  0  0  0  0  0
  -28.9008  -27.3009   23.0617 O   0  0  0  0  0  0  0  0  0  0  0  0
  -31.8563  -14.9380   20.1880 O   0  0  0  0  0  0  0  0  0  0  0  0
  -21.6144   -7.0176   21.7156 O   0  0  0  0  0  0  0  0  0  0  0  0
  -31.9266  -21.2807   24.0380 O   0  0  0  0  0  0  0  0  0  1  0  0
  -18.6166   -6.8709   26.3411 F   0  0  0  0  0  0  0  0  0  0  0  0
  -33.9762  -17.5195   23.5926 F   0  0  0  0  0  0  0  0  0  0  0  0
  -22.0628   -5.0796   23.6355 F   0  0  0  0  0  0  0  0  0  0  0  0
  1  2  1  0  0  0  0
  1  5  2  0  0  0  0
  2  6  2  0  0  0  0
  3 10  2  0  0  0  0
  3 18  1  0  0  0  0
  4 11  1  0  0  0  0
  4 18  2  0  0  0  0
  5 20  1  0  0  0  0
  6 22  1  0  0  0  0
  7 12  2  0  0  0  0
  7 21  1  0  0  0  0
  8  9  2  0  0  0  0
  8 24  1  0  0  0  0
  9 25  1  0  0  0  0
 10 26  1  0  0  0  0
 11 26  2  0  0  0  0
 12 27  1  0  0  0  0
 13 14  2  0  0  0  0
 13 28  1  0  0  0  0
 14 29  1  0  0  0  0
 15 23  1  0  0  0  0
 15 27  2  0  0  0  0
 16 25  2  0  0  0  0
 16 30  1  0  0  0  0
 17 29  2  0  0  0  0
 17 31  1  0  0  0  0
 18 32  1  0  0  0  0
 19 32  1  0  0  0  0
 19 33  2  0  0  0  0
 19 34  1  0  0  0  0
 20 22  2  0  0  0  0
 20 39  1  0  0  0  0
 21 23  2  0  0  0  0
 21 40  1  0  0  0  0
 22 48  1  0  0  0  0
 23 41  1  0  0  0  0
 24 30  2  0  0  0  0
 24 56  1  0  0  0  0
 25 66  1  0  0  0  0
 26 76  1  0  0  0  0
 27 77  1  0  0  0  0
 28 31  2  0  0  0  0
 28 76  1  0  0  0  0
 29 78  1  0  0  0  0
 30 79  1  0  0  0  0
 31 80  1  0  0  0  0
 32 60  2  0  0  0  0
 33 61  1  0  0  0  0
 33 64  1  0  0  0  0
 34 65  1  0  0  0  0
 34 71  2  0  0  0  0
 35 49  1  0  0  0  0
 35 67  1  0  0  0  0
 35 72  2  0  0  0  0
 36 57  1  0  0  0  0
 36 62  1  0  0  0  0
 36 73  2  0  0  0  0
 37 58  1  0  0  0  0
 37 68  1  0  0  0  0
 37 74  2  0  0  0  0
 38 63  1  0  0  0  0
 38 66  1  0  0  0  0
 38 75  2  0  0  0  0
 39 42  1  0  0  0  0
 40 49  1  0  0  0  0
 41 62  1  0  0  0  0
 42 44  1  0  0  0  0
 43 45  1  0  0  0  0
 43 46  1  0  0  0  0
 44 48  1  0  0  0  0
 45 50  1  0  0  0  0
 46 63  1  0  0  0  0
 47 50  1  0  0  0  0
 47 63  1  0  0  0  0
 48 67  1  0  0  0  0
 49 62  1  0  0  0  0
 50 61  1  0  0  0  0
 51 58  1  0  0  0  0
 52 59  1  0  0  0  0
 53 59  1  0  0  0  0
 54 59  1  0  0  0  0
 55 70  1  0  0  0  0
 56 69  1  0  0  0  0
 57 59  1  0  0  0  0
 57 68  1  0  0  0  0
 58 70  1  0  0  0  0
 60 61  1  0  0  0  0
 69 77  1  0  0  0  0
M  CHG  1  70   1
M  ISO  4  38 100  66 100  69 101  77 101
M  END
> <Batch ID>
0008

> <Smiles>
CNC(C)C(=O)NC(C(=O)N1Cc2cc([101O:1][101NH:1]Cc3ccc([100NH:0][100C:0](=O)N4CCCC(n5nc(-c6ccc(Oc7ccc(F)cc7F)cc6)c(C(N)=O)c5N)C4)cc3F)ccc2CC1C(=O)NC1CCCc2ccccc21)C(C)(C)C

> <Shape>
0.197

> <Color>
0.205

> <Negative vol penalty>
0.000

$$$$

  -OEChem-04042320353D

 81 89  0     1  0  0  0  0  0999 V2000
  -29.8662  -32.7340   21.2241 C   0  0  0  0  0  0  0  0  0  0  0  0
  -30.5628  -31.5890   21.5972 C   0  0  0  0  0  0  0  0  0  0  0  0
  -23.2024   -9.7200   20.5384 C   0  0  0  0  0  0  0  0  0  0  0  0
  -23.8917  -10.2152   22.8004 C   0  0  0  0  0  0  0  0  0  0  0  0
  -28.5188  -32.6465   20.8764 C   0  0  0  0  0  0  0  0  0  0  0  0
  -29.9121  -30.3560   21.6237 C   0  0  0  0  0  0  0  0  0  0  0  0
  -32.3177  -24.8935   20.2523 C   0  0  0  0  0  0  0  0  0  0  0  0
  -32.3846  -18.2825   22.6666 C   0  0  0  0  0  0  0  0  0  0  0  0
  -31.8551  -17.2131   21.9444 C   0  0  0  0  0  0  0  0  0  0  0  0
  -22.4938   -8.6097   20.9973 C   0  0  0  0  0  0  0  0  0  0  0  0
  -23.1831   -9.1048   23.2594 C   0  0  0  0  0  0  0  0  0  0  0  0
  -32.8251  -23.8660   21.0464 C   0  0  0  0  0  0  0  0  0  0  0  0
  -19.9694   -8.3088   23.9369 C   0  0  0  0  0  0  0  0  0  0  0  0
  -19.1793   -8.4712   25.0748 C   0  0  0  0  0  0  0  0  0  0  0  0
  -30.6903  -22.7467   20.9513 C   0  0  0  0  0  0  0  0  0  0  0  0
  -20.4676   -6.7728   26.2118 C   0  0  0  0  0  0  0  0  0  0  0  0
  -23.9014  -10.5228   21.4399 C   0  0  0  0  0  0  0  0  0  0  0  0
  -24.1545  -12.9855   20.8247 C   0  0  0  0  0  0  0  0  0  0  0  0
  -27.8538  -31.4103   20.8894 C   0  0  0  0  0  0  0  0  0  0  0  0
  -30.9874  -24.8607   19.8101 C   0  0  0  0  0  0  0  0  0  0  0  0
  -28.5543  -30.2521   21.2772 C   0  0  0  0  0  0  0  0  0  0  0  0
  -30.1692  -23.7737   20.1496 C   0  0  0  0  0  0  0  0  0  0  0  0
  -31.5349  -19.2472   23.2081 C   0  0  0  0  0  0  0  0  0  0  0  0
  -30.4759  -17.1084   21.7636 C   0  0  0  0  0  0  0  0  0  0  0  0
  -22.4841   -8.3021   22.3578 C   0  0  0  0  0  0  0  0  0  0  0  0
  -32.0105  -22.7938   21.3984 C   0  0  0  0  0  0  0  0  0  0  0  0
  -21.0086   -7.3783   23.9363 C   0  0  0  0  0  0  0  0  0  0  0  0
  -19.4284   -7.7032   26.2123 C   0  0  0  0  0  0  0  0  0  0  0  0
  -21.2577   -6.6103   25.0737 C   0  0  0  0  0  0  0  0  0  0  0  0
  -30.1558  -19.1425   23.0273 C   0  0  0  0  0  0  0  0  0  0  0  0
  -29.6263  -18.0731   22.3051 C   0  0  0  0  0  0  0  0  0  0  0  0
  -24.6340  -11.6695   20.9664 C   0  0  0  0  0  0  0  0  0  0  0  0
  -25.2291  -13.6926   20.3433 C   0  0  0  0  0  0  0  0  0  0  0  0
  -22.8539  -13.5209   21.1033 C   0  0  0  0  0  0  0  0  0  0  0  0
  -28.4367  -26.7096   20.2332 C   0  0  0  0  0  0  0  0  0  0  0  0
  -27.1069  -24.7058   18.0563 C   0  0  0  0  0  0  0  0  0  0  0  0
  -27.1088  -21.6373   16.5626 C   0  0  0  0  0  0  0  0  0  0  0  0
  -30.6457  -14.9794   20.4277 C   0  0  0  0  0  0  0  0  0  0  0  0
  -26.3845  -31.3728   20.5511 C   0  0  0  0  0  0  0  0  0  0  0  0
  -30.4631  -25.9637   18.9320 C   0  0  0  0  0  0  0  0  0  0  0  0
  -28.7400  -23.6810   19.6837 C   0  0  0  0  0  0  0  0  0  0  0  0
  -25.8658  -29.9704   20.2439 C   0  0  0  0  0  0  0  0  0  0  0  0
  -29.6923  -12.0980   18.5660 C   0  0  0  0  0  0  0  0  0  0  0  0
  -26.3586  -28.9775   21.2918 C   0  0  0  0  0  0  0  0  0  0  0  0
  -28.2519  -11.8379   19.0129 C   0  0  0  0  0  0  0  0  0  0  0  0
  -30.5616  -12.5995   19.7177 C   0  0  0  0  0  0  0  0  0  0  0  0
  -28.5886  -13.5041   20.8830 C   0  0  0  0  0  0  0  0  0  0  0  0
  -27.8897  -28.8926   21.2944 C   0  0  1  0  0  0  0  0  0  0  0  0
  -28.9425  -26.0821   18.9651 C   0  0  1  0  0  0  0  0  0  0  0  0
  -27.6588  -13.0594   19.7422 C   0  0  2  0  0  0  0  0  0  0  0  0
  -25.8782  -20.2808   14.8471 C   0  0  0  0  0  0  0  0  0  0  0  0
  -24.8394  -24.2503   20.0465 C   0  0  0  0  0  0  0  0  0  0  0  0
  -24.1778  -22.2301   18.7240 C   0  0  0  0  0  0  0  0  0  0  0  0
  -24.1070  -24.4886   17.6672 C   0  0  0  0  0  0  0  0  0  0  0  0
  -29.5235  -21.3706   14.8723 C   0  0  0  0  0  0  0  0  0  0  0  0
  -32.1094  -20.4013   23.9859 C   0  0  0  0  0  0  0  0  0  0  0  0
  -26.3444  -23.4047   18.1267 C   0  0  1  0  0  0  0  0  0  0  0  0
  -27.0404  -21.2277   15.1024 C   0  0  2  0  0  0  0  0  0  0  0  0
  -24.8934  -23.5958   18.6516 C   0  0  0  0  0  0  0  0  0  0  0  0
  -25.9136  -11.5453   20.6042 N   0  0  0  0  0  0  0  0  0  0  0  0
  -26.2472  -12.7922   20.2301 N   0  0  0  0  0  0  0  0  0  0  0  0
  -28.2717  -24.7872   18.8324 N   0  0  0  0  0  0  0  0  0  0  0  0
  -29.9391  -13.7601   20.3583 N   0  0  0  0  0  0  0  0  0  0  0  0
  -25.3929  -14.9905   20.0101 N   0  0  0  0  0  0  0  0  0  0  0  0
  -21.8660  -12.6556   21.5930 N   0  0  0  0  0  0  0  0  0  0  0  0
  -29.9406  -16.0210   21.0297 N   0  0  0  0  0  0  0  0  0  0  0  0
  -28.3532  -28.0881   20.1843 N   0  0  0  0  0  0  0  0  0  0  0  0
  -26.4252  -22.8118   16.7961 N   0  0  0  0  0  0  0  0  0  0  0  0
  -31.7305  -21.6843   23.4113 N   0  0  0  0  0  0  0  0  0  1  0  0
  -28.3012  -20.5446   14.6965 N   0  3  0  0  0  0  0  0  0  0  0  0
  -22.5713  -14.7273   20.9079 O   0  0  0  0  0  0  0  0  0  0  0  0
  -28.1424  -25.9960   21.1849 O   0  0  0  0  0  0  0  0  0  0  0  0
  -26.6884  -25.6137   17.3337 O   0  0  0  0  0  0  0  0  0  0  0  0
  -27.7054  -20.9790   17.4118 O   0  0  0  0  0  0  0  0  0  0  0  0
  -31.7816  -15.0986   19.9611 O   0  0  0  0  0  0  0  0  0  0  0  0
  -21.7926   -7.2188   22.8060 O   0  0  0  0  0  0  0  0  0  0  0  0
  -32.5030  -21.7898   22.1739 O   0  0  0  0  0  0  0  0  0  1  0  0
  -18.6706   -7.8604   27.3055 F   0  0  0  0  0  0  0  0  0  0  0  0
  -22.2554   -5.7157   25.0796 F   0  0  0  0  0  0  0  0  0  0  0  0
  -29.3318  -20.0650   23.5436 F   0  0  0  0  0  0  0  0  0  0  0  0
  -28.2994  -17.9824   22.1380 F   0  0  0  0  0  0  0  0  0  0  0  0
  1  2  1  0  0  0  0
  1  5  2  0  0  0  0
  2  6  2  0  0  0  0
  3 10  2  0  0  0  0
  3 17  1  0  0  0  0
  4 11  1  0  0  0  0
  4 17  2  0  0  0  0
  5 19  1  0  0  0  0
  6 21  1  0  0  0  0
  7 12  2  0  0  0  0
  7 20  1  0  0  0  0
  8  9  2  0  0  0  0
  8 23  1  0  0  0  0
  9 24  1  0  0  0  0
 10 25  1  0  0  0  0
 11 25  2  0  0  0  0
 12 26  1  0  0  0  0
 13 14  2  0  0  0  0
 13 27  1  0  0  0  0
 14 28  1  0  0  0  0
 15 22  1  0  0  0  0
 15 26  2  0  0  0  0
 16 28  2  0  0  0  0
 16 29  1  0  0  0  0
 17 32  1  0  0  0  0
 18 32  1  0  0  0  0
 18 33  2  0  0  0  0
 18 34  1  0  0  0  0
 19 21  2  0  0  0  0
 19 39  1  0  0  0  0
 20 22  2  0  0  0  0
 20 40  1  0  0  0  0
 21 48  1  0  0  0  0
 22 41  1  0  0  0  0
 23 30  2  0  0  0  0
 23 56  1  0  0  0  0
 24 31  2  0  0  0  0
 24 66  1  0  0  0  0
 25 76  1  0  0  0  0
 26 77  1  0  0  0  0
 27 29  2  0  0  0  0
 27 76  1  0  0  0  0
 28 78  1  0  0  0  0
 29 79  1  0  0  0  0
 30 31  1  0  0  0  0
 30 80  1  0  0  0  0
 31 81  1  0  0  0  0
 32 60  2  0  0  0  0
 33 61  1  0  0  0  0
 33 64  1  0  0  0  0
 34 65  1  0  0  0  0
 34 71  2  0  0  0  0
 35 49  1  0  0  0  0
 35 67  1  0  0  0  0
 35 72  2  0  0  0  0
 36 57  1  0  0  0  0
 36 62  1  0  0  0  0
 36 73  2  0  0  0  0
 37 58  1  0  0  0  0
 37 68  1  0  0  0  0
 37 74  2  0  0  0  0
 38 63  1  0  0  0  0
 38 66  1  0  0  0  0
 38 75  2  0  0  0  0
 39 42  1  0  0  0  0
 40 49  1  0  0  0  0
 41 62  1  0  0  0  0
 42 44  1  0  0  0  0
 43 45  1  0  0  0  0
 43 46  1  0  0  0  0
 44 48  1  0  0  0  0
 45 50  1  0  0  0  0
 46 63  1  0  0  0  0
 47 50  1  0  0  0  0
 47 63  1  0  0  0  0
 48 67  1  0  0  0  0
 49 62  1  0  0  0  0
 50 61  1  0  0  0  0
 51 58  1  0  0  0  0
 52 59  1  0  0  0  0
 53 59  1  0  0  0  0
 54 59  1  0  0  0  0
 55 70  1  0  0  0  0
 56 69  1  0  0  0  0
 57 59  1  0  0  0  0
 57 68  1  0  0  0  0
 58 70  1  0  0  0  0
 60 61  1  0  0  0  0
 69 77  1  0  0  0  0
M  CHG  1  70   1
M  ISO  4  38 100  66 100  69 101  77 101
M  END
> <Batch ID>
0008

> <Smiles>
CNC(C)C(=O)NC(C(=O)N1Cc2cc([101O:1][101NH:1]Cc3ccc([100NH:0][100C:0](=O)N4CCCC(n5nc(-c6ccc(Oc7ccc(F)cc7F)cc6)c(C(N)=O)c5N)C4)c(F)c3F)ccc2CC1C(=O)NC1CCCc2ccccc21)C(C)(C)C

> <Shape>
0.253

> <Color>
0.177

> <Negative vol penalty>
0.000

$$$$

  -OEChem-04042320353D

 83 91  0     1  0  0  0  0  0999 V2000
  -26.5058  -35.0533   24.0195 C   0  0  0  0  0  0  0  0  0  0  0  0
  -26.9670  -33.7881   23.6700 C   0  0  0  0  0  0  0  0  0  0  0  0
  -24.5171  -12.2836   21.0722 C   0  0  0  0  0  0  0  0  0  0  0  0
  -25.1026  -12.6931   18.7642 C   0  0  0  0  0  0  0  0  0  0  0  0
  -25.1972  -35.2166   24.4720 C   0  0  0  0  0  0  0  0  0  0  0  0
  -26.1200  -32.6853   23.7738 C   0  0  0  0  0  0  0  0  0  0  0  0
  -26.3627  -29.6607   19.7194 C   0  0  0  0  0  0  0  0  0  0  0  0
  -28.3925  -22.2242   15.5966 C   0  0  0  0  0  0  0  0  0  0  0  0
  -23.6982  -11.2260   20.6768 C   0  0  0  0  0  0  0  0  0  0  0  0
  -24.2837  -11.6354   18.3688 C   0  0  0  0  0  0  0  0  0  0  0  0
  -27.4576  -28.8023   19.6301 C   0  0  0  0  0  0  0  0  0  0  0  0
  -24.0761   -8.0016   19.7315 C   0  0  0  0  0  0  0  0  0  0  0  0
  -27.4175  -21.3406   15.1339 C   0  0  0  0  0  0  0  0  0  0  0  0
  -24.1599   -6.8116   20.4543 C   0  0  0  0  0  0  0  0  0  0  0  0
  -26.0928  -26.9867   20.4426 C   0  0  0  0  0  0  0  0  0  0  0  0
  -21.8205   -6.9958   21.0289 C   0  0  0  0  0  0  0  0  0  0  0  0
  -25.2193  -13.0172   20.1159 C   0  0  0  0  0  0  0  0  0  0  0  0
  -27.4308  -14.0490   20.8591 C   0  0  0  0  0  0  0  0  0  0  0  0
  -24.3308  -34.1166   24.5723 C   0  0  0  0  0  0  0  0  0  0  0  0
  -25.1253  -29.1903   20.1822 C   0  0  0  0  0  0  0  0  0  0  0  0
  -24.7989  -32.8338   24.2294 C   0  0  0  0  0  0  0  0  0  0  0  0
  -24.9831  -27.8406   20.5345 C   0  0  0  0  0  0  0  0  0  0  0  0
  -28.5481  -22.4362   16.9665 C   0  0  0  0  0  0  0  0  0  0  0  0
  -26.7534  -20.8811   17.4109 C   0  0  0  0  0  0  0  0  0  0  0  0
  -23.5815  -10.9018   19.3251 C   0  0  0  0  0  0  0  0  0  0  0  0
  -27.3236  -27.4657   19.9945 C   0  0  0  0  0  0  0  0  0  0  0  0
  -22.8644   -8.6888   19.6575 C   0  0  0  0  0  0  0  0  0  0  0  0
  -23.0321   -6.3086   21.1030 C   0  0  0  0  0  0  0  0  0  0  0  0
  -26.5979  -20.6691   16.0410 C   0  0  0  0  0  0  0  0  0  0  0  0
  -21.7367   -8.1859   20.3062 C   0  0  0  0  0  0  0  0  0  0  0  0
  -27.7285  -21.7646   17.8736 C   0  0  0  0  0  0  0  0  0  0  0  0
  -26.0650  -14.1102   20.5237 C   0  0  0  0  0  0  0  0  0  0  0  0
  -27.7657  -15.3435   21.1729 C   0  0  0  0  0  0  0  0  0  0  0  0
  -28.3176  -12.9226   20.8847 C   0  0  0  0  0  0  0  0  0  0  0  0
  -23.2502  -29.8703   22.6571 C   0  0  0  0  0  0  0  0  0  0  0  0
  -21.2126  -27.8264   21.1763 C   0  0  0  0  0  0  0  0  0  0  0  0
  -20.7864  -25.2146   19.0214 C   0  0  0  0  0  0  0  0  0  0  0  0
  -25.5068  -20.6433   19.5871 C   0  0  0  0  0  0  0  0  0  0  0  0
  -22.9394  -34.3354   25.1115 C   0  0  0  0  0  0  0  0  0  0  0  0
  -23.9470  -30.1228   20.2474 C   0  0  0  0  0  0  0  0  0  0  0  0
  -23.6709  -27.2813   21.0182 C   0  0  0  0  0  0  0  0  0  0  0  0
  -21.9898  -33.1722   24.8367 C   0  0  0  0  0  0  0  0  0  0  0  0
  -25.8703  -19.3885   22.8993 C   0  0  0  0  0  0  0  0  0  0  0  0
  -22.6604  -31.8444   25.1745 C   0  0  0  0  0  0  0  0  0  0  0  0
  -26.0919  -17.8879   22.6961 C   0  0  0  0  0  0  0  0  0  0  0  0
  -24.8742  -19.9564   21.8899 C   0  0  0  0  0  0  0  0  0  0  0  0
  -25.4049  -18.1685   20.2803 C   0  0  0  0  0  0  0  0  0  0  0  0
  -23.9027  -31.6168   24.3048 C   0  0  1  0  0  0  0  0  0  0  0  0
  -22.8683  -29.6556   21.2198 C   0  0  1  0  0  0  0  0  0  0  0  0
  -26.4498  -17.5641   21.2324 C   0  0  2  0  0  0  0  0  0  0  0  0
  -19.0086  -23.7393   18.0413 C   0  0  0  0  0  0  0  0  0  0  0  0
  -21.0419  -26.2890   23.8063 C   0  0  0  0  0  0  0  0  0  0  0  0
  -20.0611  -24.3660   22.5381 C   0  0  0  0  0  0  0  0  0  0  0  0
  -18.8623  -26.5525   22.6086 C   0  0  0  0  0  0  0  0  0  0  0  0
  -21.4029  -26.1047   16.2670 C   0  0  0  0  0  0  0  0  0  0  0  0
  -29.5985  -23.3868   17.4606 C   0  0  0  0  0  0  0  0  0  0  0  0
  -30.0465  -25.6210   18.4834 C   0  0  0  0  0  0  0  0  0  0  0  0
  -29.3589  -26.9067   18.8987 C   0  0  0  0  0  0  0  0  0  1  0  0
  -20.9681  -26.3375   21.2260 C   0  0  1  0  0  0  0  0  0  0  0  0
  -19.8253  -25.0099   17.8643 C   0  0  2  0  0  0  0  0  0  0  0  0
  -20.2587  -25.8969   22.5375 C   0  0  0  0  0  0  0  0  0  0  0  0
  -25.5663  -15.3459   20.6159 N   0  0  0  0  0  0  0  0  0  0  0  0
  -26.6245  -16.0730   21.0129 N   0  0  0  0  0  0  0  0  0  0  0  0
  -22.5499  -28.2342   21.0704 N   0  0  0  0  0  0  0  0  0  0  0  0
  -25.2801  -19.6139   20.5251 N   0  0  0  0  0  0  0  0  0  0  0  0
  -28.9221  -15.9176   21.5674 N   0  0  0  0  0  0  0  0  0  0  0  0
  -27.8098  -11.6644   20.5334 N   0  0  0  0  0  0  0  0  0  0  0  0
  -25.9203  -20.1986   18.3317 N   0  0  0  0  0  0  0  0  0  0  0  0
  -23.5185  -31.1875   22.9772 N   0  0  0  0  0  0  0  0  0  0  0  0
  -20.2357  -26.0033   20.0093 N   0  0  0  0  0  0  0  0  0  0  0  0
  -20.5745  -24.9119   16.5797 N   0  3  0  0  0  0  0  0  0  0  0  0
  -29.0374  -24.6815   17.9326 N   0  3  0  0  0  0  0  0  0  0  0  0
  -29.5204  -13.0259   21.2253 O   0  0  0  0  0  0  0  0  0  0  0  0
  -23.2965  -28.9121   23.4196 O   0  0  0  0  0  0  0  0  0  0  0  0
  -20.2520  -28.5989   21.2223 O   0  0  0  0  0  0  0  0  0  0  0  0
  -21.9116  -24.7208   19.0480 O   0  0  0  0  0  0  0  0  0  0  0  0
  -25.3723  -21.8331   19.8841 O   0  0  0  0  0  0  0  0  0  0  0  0
  -22.7826   -9.8697   18.9389 O   0  0  0  0  0  0  0  0  0  0  0  0
  -28.3909  -26.6258   19.9088 O   0  0  0  0  0  0  0  0  0  1  0  0
  -23.1124   -5.1650   21.7957 F   0  0  0  0  0  0  0  0  0  0  0  0
  -25.6638  -19.8224   15.5852 F   0  0  0  0  0  0  0  0  0  0  0  0
  -20.5696   -8.8410   20.2377 F   0  0  0  0  0  0  0  0  0  0  0  0
  -27.8801  -21.9697   19.1907 F   0  0  0  0  0  0  0  0  0  0  0  0
  1  2  1  0  0  0  0
  1  5  2  0  0  0  0
  2  6  2  0  0  0  0
  3  9  2  0  0  0  0
  3 17  1  0  0  0  0
  4 10  1  0  0  0  0
  4 17  2  0  0  0  0
  5 19  1  0  0  0  0
  6 21  1  0  0  0  0
  7 11  2  0  0  0  0
  7 20  1  0  0  0  0
  8 13  2  0  0  0  0
  8 23  1  0  0  0  0
  9 25  1  0  0  0  0
 10 25  2  0  0  0  0
 11 26  1  0  0  0  0
 12 14  2  0  0  0  0
 12 27  1  0  0  0  0
 13 29  1  0  0  0  0
 14 28  1  0  0  0  0
 15 22  1  0  0  0  0
 15 26  2  0  0  0  0
 16 28  2  0  0  0  0
 16 30  1  0  0  0  0
 17 32  1  0  0  0  0
 18 32  1  0  0  0  0
 18 33  2  0  0  0  0
 18 34  1  0  0  0  0
 19 21  2  0  0  0  0
 19 39  1  0  0  0  0
 20 22  2  0  0  0  0
 20 40  1  0  0  0  0
 21 48  1  0  0  0  0
 22 41  1  0  0  0  0
 23 31  2  0  0  0  0
 23 56  1  0  0  0  0
 24 29  2  0  0  0  0
 24 31  1  0  0  0  0
 24 68  1  0  0  0  0
 25 78  1  0  0  0  0
 26 79  1  0  0  0  0
 27 30  2  0  0  0  0
 27 78  1  0  0  0  0
 28 80  1  0  0  0  0
 29 81  1  0  0  0  0
 30 82  1  0  0  0  0
 31 83  1  0  0  0  0
 32 62  2  0  0  0  0
 33 63  1  0  0  0  0
 33 66  1  0  0  0  0
 34 67  1  0  0  0  0
 34 73  2  0  0  0  0
 35 49  1  0  0  0  0
 35 69  1  0  0  0  0
 35 74  2  0  0  0  0
 36 59  1  0  0  0  0
 36 64  1  0  0  0  0
 36 75  2  0  0  0  0
 37 60  1  0  0  0  0
 37 70  1  0  0  0  0
 37 76  2  0  0  0  0
 38 65  1  0  0  0  0
 38 68  1  0  0  0  0
 38 77  2  0  0  0  0
 39 42  1  0  0  0  0
 40 49  1  0  0  0  0
 41 64  1  0  0  0  0
 42 44  1  0  0  0  0
 43 45  1  0  0  0  0
 43 46  1  0  0  0  0
 44 48  1  0  0  0  0
 45 50  1  0  0  0  0
 46 65  1  0  0  0  0
 47 50  1  0  0  0  0
 47 65  1  0  0  0  0
 48 69  1  0  0  0  0
 49 64  1  0  0  0  0
 50 63  1  0  0  0  0
 51 60  1  0  0  0  0
 52 61  1  0  0  0  0
 53 61  1  0  0  0  0
 54 61  1  0  0  0  0
 55 71  1  0  0  0  0
 56 72  1  0  0  0  0
 57 58  1  0  0  0  0
 57 72  1  0  0  0  0
 58 79  1  0  0  0  0
 59 61  1  0  0  0  0
 59 70  1  0  0  0  0
 60 71  1  0  0  0  0
 62 63  1  0  0  0  0
M  CHG  2  71   1  72   1
M  ISO  4  38 100  58 101  68 100  79 101
M  END
> <Batch ID>
0008

> <Smiles>
CNC(C)C(=O)NC(C(=O)N1Cc2cc([101O:1][101CH2:1]CNCc3ccc(F)c([100NH:0][100C:0](=O)N4CCCC(n5nc(-c6ccc(Oc7ccc(F)cc7F)cc6)c(C(N)=O)c5N)C4)c3F)ccc2CC1C(=O)NC1CCCc2ccccc21)C(C)(C)C

> <Shape>
0.263

> <Color>
0.077

> <Negative vol penalty>
0.000

$$$$

  -OEChem-04042320353D

 81 89  0     1  0  0  0  0  0999 V2000
  -20.2864  -23.4127   21.1190 C   0  0  0  0  0  0  0  0  0  0  0  0
  -21.6606  -23.2058   21.0557 C   0  0  0  0  0  0  0  0  0  0  0  0
  -22.0664  -28.3511   19.0809 C   0  0  0  0  0  0  0  0  0  0  0  0
  -22.5169  -27.4042   21.2575 C   0  0  0  0  0  0  0  0  0  0  0  0
  -19.4648  -22.4544   21.7110 C   0  0  0  0  0  0  0  0  0  0  0  0
  -22.2143  -22.0408   21.5855 C   0  0  0  0  0  0  0  0  0  0  0  0
  -27.0491  -18.9554   19.4381 C   0  0  0  0  0  0  0  0  0  0  0  0
  -32.8113  -22.3337   21.0298 C   0  0  0  0  0  0  0  0  0  0  0  0
  -20.7086  -28.4212   19.3924 C   0  0  0  0  0  0  0  0  0  0  0  0
  -21.1591  -27.4744   21.5690 C   0  0  0  0  0  0  0  0  0  0  0  0
  -28.3928  -18.9406   19.8096 C   0  0  0  0  0  0  0  0  0  0  0  0
  -18.9507  -29.8336   22.5577 C   0  0  0  0  0  0  0  0  0  0  0  0
  -33.0597  -21.4234   22.0570 C   0  0  0  0  0  0  0  0  0  0  0  0
  -18.6003  -30.3273   23.8143 C   0  0  0  0  0  0  0  0  0  0  0  0
  -27.9873  -16.9946   21.1762 C   0  0  0  0  0  0  0  0  0  0  0  0
  -32.2724  -20.5079   19.5421 C   0  0  0  0  0  0  0  0  0  0  0  0
  -17.5102  -28.2343   24.3326 C   0  0  0  0  0  0  0  0  0  0  0  0
  -22.9706  -27.8426   20.0135 C   0  0  0  0  0  0  0  0  0  0  0  0
  -25.3502  -28.7570   19.9198 C   0  0  0  0  0  0  0  0  0  0  0  0
  -20.0076  -21.2726   22.2397 C   0  0  0  0  0  0  0  0  0  0  0  0
  -26.1606  -17.9948   19.9423 C   0  0  0  0  0  0  0  0  0  0  0  0
  -21.3993  -21.0663   22.1863 C   0  0  0  0  0  0  0  0  0  0  0  0
  -26.6333  -16.9978   20.8075 C   0  0  0  0  0  0  0  0  0  0  0  0
  -32.4176  -21.8759   19.7723 C   0  0  0  0  0  0  0  0  0  0  0  0
  -32.5209  -19.5976   20.5693 C   0  0  0  0  0  0  0  0  0  0  0  0
  -20.2549  -27.9829   20.6365 C   0  0  0  0  0  0  0  0  0  0  0  0
  -28.8615  -17.9619   20.6810 C   0  0  0  0  0  0  0  0  0  0  0  0
  -18.5808  -28.5403   22.1885 C   0  0  0  0  0  0  0  0  0  0  0  0
  -17.8801  -29.5276   24.7018 C   0  0  0  0  0  0  0  0  0  0  0  0
  -32.9145  -20.0553   21.8268 C   0  0  0  0  0  0  0  0  0  0  0  0
  -17.8606  -27.7407   23.0759 C   0  0  0  0  0  0  0  0  0  0  0  0
  -24.3733  -27.7694   19.6921 C   0  0  0  0  0  0  0  0  0  0  0  0
  -26.5135  -28.2063   19.4403 C   0  0  0  0  0  0  0  0  0  0  0  0
  -25.2180  -30.0562   20.5118 C   0  0  0  0  0  0  0  0  0  0  0  0
  -23.5385  -18.0873   21.7367 C   0  0  0  0  0  0  0  0  0  0  0  0
  -23.4345  -14.9165   21.0604 C   0  0  0  0  0  0  0  0  0  0  0  0
  -25.1192  -12.0912   20.1513 C   0  0  0  0  0  0  0  0  0  0  0  0
  -29.9887  -23.9939   19.0846 C   0  0  0  0  0  0  0  0  0  0  0  0
  -19.0848  -20.2873   22.9122 C   0  0  0  0  0  0  0  0  0  0  0  0
  -24.7197  -18.0084   19.5108 C   0  0  0  0  0  0  0  0  0  0  0  0
  -25.7245  -15.9318   21.3608 C   0  0  0  0  0  0  0  0  0  0  0  0
  -19.7087  -18.9089   23.1147 C   0  0  0  0  0  0  0  0  0  0  0  0
  -27.2919  -24.0446   16.6716 C   0  0  0  0  0  0  0  0  0  0  0  0
  -21.1161  -19.0390   23.6882 C   0  0  0  0  0  0  0  0  0  0  0  0
  -26.3691  -25.1084   17.2691 C   0  0  0  0  0  0  0  0  0  0  0  0
  -27.9368  -23.1959   17.7633 C   0  0  0  0  0  0  0  0  0  0  0  0
  -27.7625  -25.0400   19.3889 C   0  0  0  0  0  0  0  0  0  0  0  0
  -22.0347  -19.8040   22.7277 C   0  0  1  0  0  0  0  0  0  0  0  0
  -23.7961  -17.2898   20.4895 C   0  0  1  0  0  0  0  0  0  0  0  0
  -27.0972  -25.9460   18.3370 C   0  0  2  0  0  0  0  0  0  0  0  0
  -24.7715   -9.6443   19.7163 C   0  0  0  0  0  0  0  0  0  0  0  0
  -23.2665  -14.4088   24.0644 C   0  0  0  0  0  0  0  0  0  0  0  0
  -23.8755  -12.0205   23.6243 C   0  0  0  0  0  0  0  0  0  0  0  0
  -21.7695  -12.9638   22.6768 C   0  0  0  0  0  0  0  0  0  0  0  0
  -26.0155  -12.3447   17.3421 C   0  0  0  0  0  0  0  0  0  0  0  0
  -32.1517  -22.8494   18.6742 C   0  0  0  0  0  0  0  0  0  0  0  0
  -32.3645  -18.1214   20.3178 C   0  0  0  0  0  0  0  0  0  0  0  0
  -23.9925  -13.6681   21.7000 C   0  0  1  0  0  0  0  0  0  0  0  0
  -24.8221  -11.0348   19.1024 C   0  0  2  0  0  0  0  0  0  0  0  0
  -23.2430  -13.2864   23.0076 C   0  0  0  0  0  0  0  0  0  0  0  0
  -24.8724  -26.6742   19.1129 N   0  0  0  0  0  0  0  0  0  0  0  0
  -26.1757  -26.9705   18.9725 N   0  0  0  0  0  0  0  0  0  0  0  0
  -24.3229  -15.9913   20.9142 N   0  0  0  0  0  0  0  0  0  0  0  0
  -28.6288  -24.0522   18.7369 N   0  0  0  0  0  0  0  0  0  0  0  0
  -27.7822  -28.6634   19.3774 N   0  0  0  0  0  0  0  0  0  0  0  0
  -23.9512  -30.4646   20.9508 N   0  0  0  0  0  0  0  0  0  0  0  0
  -22.4594  -18.9453   21.6430 N   0  0  0  0  0  0  0  0  0  0  0  0
  -23.9632  -12.6342   20.6710 N   0  0  0  0  0  0  0  0  0  0  0  0
  -30.7381  -23.0263   18.4266 N   0  0  0  0  0  0  0  0  0  0  0  0
  -31.0215  -17.7879   19.8654 N   0  0  0  0  0  0  0  0  0  1  0  0
  -25.8729  -11.0440   18.0457 N   0  3  0  0  0  0  0  0  0  0  0  0
  -26.1912  -30.8383   20.6325 O   0  0  0  0  0  0  0  0  0  0  0  0
  -24.2641  -17.9344   22.7122 O   0  0  0  0  0  0  0  0  0  0  0  0
  -22.2558  -14.9348   20.6971 O   0  0  0  0  0  0  0  0  0  0  0  0
  -26.2624  -12.4009   20.4796 O   0  0  0  0  0  0  0  0  0  0  0  0
  -30.4989  -24.7521   19.9164 O   0  0  0  0  0  0  0  0  0  0  0  0
  -18.9301  -28.0514   20.9408 O   0  0  0  0  0  0  0  0  0  0  0  0
  -30.1724  -17.9455   21.0458 O   0  0  0  0  0  0  0  0  0  1  0  0
  -17.5450  -30.0013   25.9091 F   0  0  0  0  0  0  0  0  0  0  0  0
  -33.1570  -19.1882   22.8197 F   0  0  0  0  0  0  0  0  0  0  0  0
  -17.5035  -26.4970   22.7273 F   0  0  0  0  0  0  0  0  0  0  0  0
  1  2  1  0  0  0  0
  1  5  2  0  0  0  0
  2  6  2  0  0  0  0
  3  9  2  0  0  0  0
  3 18  1  0  0  0  0
  4 10  1  0  0  0  0
  4 18  2  0  0  0  0
  5 20  1  0  0  0  0
  6 22  1  0  0  0  0
  7 11  2  0  0  0  0
  7 21  1  0  0  0  0
  8 13  2  0  0  0  0
  8 24  1  0  0  0  0
  9 26  1  0  0  0  0
 10 26  2  0  0  0  0
 11 27  1  0  0  0  0
 12 14  2  0  0  0  0
 12 28  1  0  0  0  0
 13 30  1  0  0  0  0
 14 29  1  0  0  0  0
 15 23  1  0  0  0  0
 15 27  2  0  0  0  0
 16 24  2  0  0  0  0
 16 25  1  0  0  0  0
 17 29  2  0  0  0  0
 17 31  1  0  0  0  0
 18 32  1  0  0  0  0
 19 32  1  0  0  0  0
 19 33  2  0  0  0  0
 19 34  1  0  0  0  0
 20 22  2  0  0  0  0
 20 39  1  0  0  0  0
 21 23  2  0  0  0  0
 21 40  1  0  0  0  0
 22 48  1  0  0  0  0
 23 41  1  0  0  0  0
 24 56  1  0  0  0  0
 25 30  2  0  0  0  0
 25 57  1  0  0  0  0
 26 77  1  0  0  0  0
 27 78  1  0  0  0  0
 28 31  2  0  0  0  0
 28 77  1  0  0  0  0
 29 79  1  0  0  0  0
 30 80  1  0  0  0  0
 31 81  1  0  0  0  0
 32 61  2  0  0  0  0
 33 62  1  0  0  0  0
 33 65  1  0  0  0  0
 34 66  1  0  0  0  0
 34 72  2  0  0  0  0
 35 49  1  0  0  0  0
 35 67  1  0  0  0  0
 35 73  2  0  0  0  0
 36 58  1  0  0  0  0
 36 63  1  0  0  0  0
 36 74  2  0  0  0  0
 37 59  1  0  0  0  0
 37 68  1  0  0  0  0
 37 75  2  0  0  0  0
 38 64  1  0  0  0  0
 38 69  1  0  0  0  0
 38 76  2  0  0  0  0
 39 42  1  0  0  0  0
 40 49  1  0  0  0  0
 41 63  1  0  0  0  0
 42 44  1  0  0  0  0
 43 45  1  0  0  0  0
 43 46  1  0  0  0  0
 44 48  1  0  0  0  0
 45 50  1  0  0  0  0
 46 64  1  0  0  0  0
 47 50  1  0  0  0  0
 47 64  1  0  0  0  0
 48 67  1  0  0  0  0
 49 63  1  0  0  0  0
 50 62  1  0  0  0  0
 51 59  1  0  0  0  0
 52 60  1  0  0  0  0
 53 60  1  0  0  0  0
 54 60  1  0  0  0  0
 55 71  1  0  0  0  0
 56 69  1  0  0  0  0
 57 70  1  0  0  0  0
 58 60  1  0  0  0  0
 58 68  1  0  0  0  0
 59 71  1  0  0  0  0
 61 62  1  0  0  0  0
 70 78  1  0  0  0  0
M  CHG  1  71   1
M  ISO  4  38 100  69 100  70 101  78 101
M  END
> <Batch ID>
0008

> <Smiles>
CNC(C)C(=O)NC(C(=O)N1Cc2cc([101O:1][101NH:1]Cc3cc(C[100NH:0][100C:0](=O)N4CCCC(n5nc(-c6ccc(Oc7ccc(F)cc7F)cc6)c(C(N)=O)c5N)C4)ccc3F)ccc2CC1C(=O)NC1CCCc2ccccc21)C(C)(C)C

> <Shape>
0.208

> <Color>
0.060

> <Negative vol penalty>
0.000

$$$$

  -OEChem-04042320353D

 86 94  0     1  0  0  0  0  0999 V2000
  -28.1458  -18.5343   17.7464 C   0  0  0  0  0  0  0  0  0  0  0  0
  -27.1515  -19.4899   17.5632 C   0  0  0  0  0  0  0  0  0  0  0  0
  -25.6937  -16.4916   19.8592 C   0  0  0  0  0  0  0  0  0  0  0  0
  -25.8475  -16.7725   22.2539 C   0  0  0  0  0  0  0  0  0  0  0  0
  -29.0598  -18.6722   18.7901 C   0  0  0  0  0  0  0  0  0  0  0  0
  -27.0700  -20.5836   18.4244 C   0  0  0  0  0  0  0  0  0  0  0  0
  -25.2521  -27.5123   18.4929 C   0  0  0  0  0  0  0  0  0  0  0  0
  -18.3037  -29.1885   22.1604 C   0  0  0  0  0  0  0  0  0  0  0  0
  -17.3027  -28.3136   21.7382 C   0  0  0  0  0  0  0  0  0  0  0  0
  -26.9323  -15.8501   19.8549 C   0  0  0  0  0  0  0  0  0  0  0  0
  -27.0861  -16.1309   22.2496 C   0  0  0  0  0  0  0  0  0  0  0  0
  -24.4404  -28.4060   19.1902 C   0  0  0  0  0  0  0  0  0  0  0  0
  -29.8875  -13.8178   19.2616 C   0  0  0  0  0  0  0  0  0  0  0  0
  -30.0104  -12.6502   18.5085 C   0  0  0  0  0  0  0  0  0  0  0  0
  -26.1224  -28.5819   20.9105 C   0  0  0  0  0  0  0  0  0  0  0  0
  -19.5128  -27.3364   23.1323 C   0  0  0  0  0  0  0  0  0  0  0  0
  -28.2752  -11.6138   19.8322 C   0  0  0  0  0  0  0  0  0  0  0  0
  -25.1513  -16.9528   21.0587 C   0  0  0  0  0  0  0  0  0  0  0  0
  -22.6060  -17.0197   21.2152 C   0  0  0  0  0  0  0  0  0  0  0  0
  -28.9954  -19.7731   19.6587 C   0  0  0  0  0  0  0  0  0  0  0  0
  -26.5025  -27.1376   19.0054 C   0  0  0  0  0  0  0  0  0  0  0  0
  -27.9832  -20.7357   19.4815 C   0  0  0  0  0  0  0  0  0  0  0  0
  -26.9491  -27.6852   20.2165 C   0  0  0  0  0  0  0  0  0  0  0  0
  -19.4088  -28.6999   22.8574 C   0  0  0  0  0  0  0  0  0  0  0  0
  -17.4068  -26.9501   22.0132 C   0  0  0  0  0  0  0  0  0  0  0  0
  -18.5118  -26.4614   22.7102 C   0  0  0  0  0  0  0  0  0  0  0  0
  -27.6285  -15.6698   21.0500 C   0  0  0  0  0  0  0  0  0  0  0  0
  -24.8742  -28.9387   20.4006 C   0  0  0  0  0  0  0  0  0  0  0  0
  -28.9584  -13.8834   20.3000 C   0  0  0  0  0  0  0  0  0  0  0  0
  -29.2043  -11.5482   18.7938 C   0  0  0  0  0  0  0  0  0  0  0  0
  -28.1523  -12.7814   20.5853 C   0  0  0  0  0  0  0  0  0  0  0  0
  -23.8722  -17.6161   21.0637 C   0  0  0  0  0  0  0  0  0  0  0  0
  -21.7222  -18.0690   21.1497 C   0  0  0  0  0  0  0  0  0  0  0  0
  -22.2597  -15.6406   21.3987 C   0  0  0  0  0  0  0  0  0  0  0  0
  -27.8127  -24.3977   19.9434 C   0  0  0  0  0  0  0  0  0  0  0  0
  -30.4819  -26.2198   20.2217 C   0  0  0  0  0  0  0  0  0  0  0  0
  -31.8414  -29.3203   20.6523 C   0  0  0  0  0  0  0  0  0  0  0  0
  -20.1983  -23.1054   22.6528 C   0  0  0  0  0  0  0  0  0  0  0  0
  -29.9764  -19.8546   20.8014 C   0  0  0  0  0  0  0  0  0  0  0  0
  -27.3775  -26.1931   18.2278 C   0  0  0  0  0  0  0  0  0  0  0  0
  -28.2918  -27.3309   20.7997 C   0  0  0  0  0  0  0  0  0  0  0  0
  -30.0520  -21.2383   21.4417 C   0  0  0  0  0  0  0  0  0  0  0  0
  -22.4324  -22.8962   19.8134 C   0  0  0  0  0  0  0  0  0  0  0  0
  -28.6513  -21.7871   21.6938 C   0  0  0  0  0  0  0  0  0  0  0  0
  -22.9023  -21.4431   19.9025 C   0  0  0  0  0  0  0  0  0  0  0  0
  -22.2761  -23.5127   21.2003 C   0  0  0  0  0  0  0  0  0  0  0  0
  -21.8400  -21.3040   22.2029 C   0  0  0  0  0  0  0  0  0  0  0  0
  -27.8775  -21.9490   20.3798 C   0  0  1  0  0  0  0  0  0  0  0  0
  -28.4121  -25.4847   19.0968 C   0  0  1  0  0  0  0  0  0  0  0  0
  -21.9955  -20.6171   20.8340 C   0  0  2  0  0  0  0  0  0  0  0  0
  -34.0509  -30.4886   20.8770 C   0  0  0  0  0  0  0  0  0  0  0  0
  -30.7234  -25.2062   23.0894 C   0  0  0  0  0  0  0  0  0  0  0  0
  -32.3233  -27.0779   23.5424 C   0  0  0  0  0  0  0  0  0  0  0  0
  -32.8883  -25.3400   21.8445 C   0  0  0  0  0  0  0  0  0  0  0  0
  -31.3583  -30.9485   18.2285 C   0  0  0  0  0  0  0  0  0  0  0  0
  -18.6445  -25.0056   23.0162 C   0  0  0  0  0  0  0  0  0  0  0  0
  -20.4850  -29.6413   23.3117 C   0  0  0  0  0  0  0  0  0  0  0  0
  -22.8950  -30.2700   23.1228 C   0  0  0  0  0  0  0  0  0  0  0  0
  -24.2043  -29.8200   22.5054 C   0  0  0  0  0  0  0  0  0  1  0  0
  -31.1004  -27.0492   21.3210 C   0  0  1  0  0  0  0  0  0  0  0  0
  -32.9579  -30.0414   19.9189 C   0  0  2  0  0  0  0  0  0  0  0  0
  -16.3220  -26.0328   21.5521 C   0  0  0  0  0  0  0  0  0  0  0  0
  -31.7327  -26.1737   22.4396 C   0  0  0  0  0  0  0  0  0  0  0  0
  -23.8033  -18.9414   20.9132 N   0  0  0  0  0  0  0  0  0  0  0  0
  -22.4831  -19.1866   20.9697 N   0  0  0  0  0  0  0  0  0  0  0  0
  -29.1082  -26.3984   20.0051 N   0  0  0  0  0  0  0  0  0  0  0  0
  -21.3867  -22.6882   22.0306 N   0  0  0  0  0  0  0  0  0  0  0  0
  -20.3762  -18.1356   21.2290 N   0  0  0  0  0  0  0  0  0  0  0  0
  -23.2913  -14.6928   21.4429 N   0  0  0  0  0  0  0  0  0  0  0  0
  -28.3143  -23.1376   19.6791 N   0  0  0  0  0  0  0  0  0  0  0  0
  -32.0393  -27.9559   20.6693 N   0  0  0  0  0  0  0  0  0  0  0  0
  -19.8433  -24.4327   22.4455 N   0  0  0  0  0  0  0  0  0  0  0  0
  -32.4254  -31.2444   19.2188 N   0  3  0  0  0  0  0  0  0  0  0  0
  -21.8203  -29.3203   22.7390 N   0  3  0  0  0  0  0  0  0  0  0  0
  -21.0697  -15.2580   21.5035 O   0  0  0  0  0  0  0  0  0  0  0  0
  -26.9593  -24.6814   20.7758 O   0  0  0  0  0  0  0  0  0  0  0  0
  -31.1929  -25.4474   19.5740 O   0  0  0  0  0  0  0  0  0  0  0  0
  -30.8907  -29.9090   21.1625 O   0  0  0  0  0  0  0  0  0  0  0  0
  -19.5018  -22.3492   23.3385 O   0  0  0  0  0  0  0  0  0  0  0  0
  -28.8370  -15.0436   21.0462 O   0  0  0  0  0  0  0  0  0  0  0  0
  -24.0837  -29.8107   21.0836 O   0  0  0  0  0  0  0  0  0  1  0  0
  -29.3214  -10.4275   18.0695 F   0  0  0  0  0  0  0  0  0  0  0  0
  -27.2572  -12.8389   21.5809 F   0  0  0  0  0  0  0  0  0  0  0  0
  -15.3146  -26.6704   20.8872 F   0  0  0  0  0  0  0  0  0  0  0  0
  -16.7568  -25.0617   20.6969 F   0  0  0  0  0  0  0  0  0  0  0  0
  -15.7217  -25.3726   22.5839 F   0  0  0  0  0  0  0  0  0  0  0  0
  1  2  1  0  0  0  0
  1  5  2  0  0  0  0
  2  6  2  0  0  0  0
  3 10  2  0  0  0  0
  3 18  1  0  0  0  0
  4 11  1  0  0  0  0
  4 18  2  0  0  0  0
  5 20  1  0  0  0  0
  6 22  1  0  0  0  0
  7 12  2  0  0  0  0
  7 21  1  0  0  0  0
  8  9  2  0  0  0  0
  8 24  1  0  0  0  0
  9 25  1  0  0  0  0
 10 27  1  0  0  0  0
 11 27  2  0  0  0  0
 12 28  1  0  0  0  0
 13 14  2  0  0  0  0
 13 29  1  0  0  0  0
 14 30  1  0  0  0  0
 15 23  1  0  0  0  0
 15 28  2  0  0  0  0
 16 24  2  0  0  0  0
 16 26  1  0  0  0  0
 17 30  2  0  0  0  0
 17 31  1  0  0  0  0
 18 32  1  0  0  0  0
 19 32  1  0  0  0  0
 19 33  2  0  0  0  0
 19 34  1  0  0  0  0
 20 22  2  0  0  0  0
 20 39  1  0  0  0  0
 21 23  2  0  0  0  0
 21 40  1  0  0  0  0
 22 48  1  0  0  0  0
 23 41  1  0  0  0  0
 24 57  1  0  0  0  0
 25 26  2  0  0  0  0
 25 62  1  0  0  0  0
 26 56  1  0  0  0  0
 27 80  1  0  0  0  0
 28 81  1  0  0  0  0
 29 31  2  0  0  0  0
 29 80  1  0  0  0  0
 30 82  1  0  0  0  0
 31 83  1  0  0  0  0
 32 64  2  0  0  0  0
 33 65  1  0  0  0  0
 33 68  1  0  0  0  0
 34 69  1  0  0  0  0
 34 75  2  0  0  0  0
 35 49  1  0  0  0  0
 35 70  1  0  0  0  0
 35 76  2  0  0  0  0
 36 60  1  0  0  0  0
 36 66  1  0  0  0  0
 36 77  2  0  0  0  0
 37 61  1  0  0  0  0
 37 71  1  0  0  0  0
 37 78  2  0  0  0  0
 38 67  1  0  0  0  0
 38 72  1  0  0  0  0
 38 79  2  0  0  0  0
 39 42  1  0  0  0  0
 40 49  1  0  0  0  0
 41 66  1  0  0  0  0
 42 44  1  0  0  0  0
 43 45  1  0  0  0  0
 43 46  1  0  0  0  0
 44 48  1  0  0  0  0
 45 50  1  0  0  0  0
 46 67  1  0  0  0  0
 47 50  1  0  0  0  0
 47 67  1  0  0  0  0
 48 70  1  0  0  0  0
 49 66  1  0  0  0  0
 50 65  1  0  0  0  0
 51 61  1  0  0  0  0
 52 63  1  0  0  0  0
 53 63  1  0  0  0  0
 54 63  1  0  0  0  0
 55 73  1  0  0  0  0
 56 72  1  0  0  0  0
 57 74  1  0  0  0  0
 58 59  1  0  0  0  0
 58 74  1  0  0  0  0
 59 81  1  0  0  0  0
 60 63  1  0  0  0  0
 60 71  1  0  0  0  0
 61 73  1  0  0  0  0
 62 84  1  0  0  0  0
 62 85  1  0  0  0  0
 62 86  1  0  0  0  0
 64 65  1  0  0  0  0
M  CHG  2  73   1  74   1
M  ISO  4  38 100  59 101  72 100  81 101
M  END
> <Batch ID>
0008

> <Smiles>
CNC(C)C(=O)NC(C(=O)N1Cc2cc([101O:1][101CH2:1]CNCc3ccc(C(F)(F)F)c(C[100NH:0][100C:0](=O)N4CCCC(n5nc(-c6ccc(Oc7ccc(F)cc7F)cc6)c(C(N)=O)c5N)C4)c3)ccc2CC1C(=O)NC1CCCc2ccccc21)C(C)(C)C

> <Shape>
0.244

> <Color>
0.071

> <Negative vol penalty>
0.000

$$$$

  -OEChem-04042320353D

 84 92  0     1  0  0  0  0  0999 V2000
  -37.6713  -24.7279   33.0858 C   0  0  0  0  0  0  0  0  0  0  0  0
  -36.6214  -24.8609   32.1828 C   0  0  0  0  0  0  0  0  0  0  0  0
  -23.1204   -9.8738   19.9484 C   0  0  0  0  0  0  0  0  0  0  0  0
  -23.9143   -9.8952   22.2301 C   0  0  0  0  0  0  0  0  0  0  0  0
  -38.8782  -24.1656   32.6720 C   0  0  0  0  0  0  0  0  0  0  0  0
  -36.7781  -24.4324   30.8651 C   0  0  0  0  0  0  0  0  0  0  0  0
  -32.4910  -21.9448   27.2682 C   0  0  0  0  0  0  0  0  0  0  0  0
  -29.7187  -20.2417   18.9122 C   0  0  0  0  0  0  0  0  0  0  0  0
  -22.4063   -8.7041   20.2078 C   0  0  0  0  0  0  0  0  0  0  0  0
  -23.2001   -8.7255   22.4895 C   0  0  0  0  0  0  0  0  0  0  0  0
  -31.6776  -22.4801   26.2704 C   0  0  0  0  0  0  0  0  0  0  0  0
  -20.0000   -7.8552   23.1392 C   0  0  0  0  0  0  0  0  0  0  0  0
  -19.2618   -7.7971   24.3213 C   0  0  0  0  0  0  0  0  0  0  0  0
  -30.0940  -19.0734   18.2491 C   0  0  0  0  0  0  0  0  0  0  0  0
  -33.2511  -21.7395   24.5987 C   0  0  0  0  0  0  0  0  0  0  0  0
  -28.9491  -18.9293   20.7890 C   0  0  0  0  0  0  0  0  0  0  0  0
  -20.5570   -5.8870   25.0362 C   0  0  0  0  0  0  0  0  0  0  0  0
  -23.8745  -10.4694   20.9595 C   0  0  0  0  0  0  0  0  0  0  0  0
  -24.1581  -13.0017   20.8380 C   0  0  0  0  0  0  0  0  0  0  0  0
  -39.0465  -23.7212   31.3511 C   0  0  0  0  0  0  0  0  0  0  0  0
  -33.6979  -21.3113   26.9389 C   0  0  0  0  0  0  0  0  0  0  0  0
  -37.9888  -23.8648   30.4329 C   0  0  0  0  0  0  0  0  0  0  0  0
  -34.0768  -21.1947   25.5939 C   0  0  0  0  0  0  0  0  0  0  0  0
  -29.1463  -20.1697   20.1822 C   0  0  0  0  0  0  0  0  0  0  0  0
  -29.3243  -17.7610   20.1259 C   0  0  0  0  0  0  0  0  0  0  0  0
  -22.4461   -8.1299   21.4783 C   0  0  0  0  0  0  0  0  0  0  0  0
  -32.0590  -22.3801   24.9356 C   0  0  0  0  0  0  0  0  0  0  0  0
  -21.0166   -6.9292   22.9056 C   0  0  0  0  0  0  0  0  0  0  0  0
  -19.5403   -6.8130   25.2698 C   0  0  0  0  0  0  0  0  0  0  0  0
  -21.2951   -5.9451   23.8541 C   0  0  0  0  0  0  0  0  0  0  0  0
  -29.8968  -17.8330   18.8559 C   0  0  0  0  0  0  0  0  0  0  0  0
  -24.6129  -11.6774   20.6920 C   0  0  0  0  0  0  0  0  0  0  0  0
  -25.2277  -13.7757   20.4595 C   0  0  0  0  0  0  0  0  0  0  0  0
  -22.8829  -13.4885   21.2767 C   0  0  0  0  0  0  0  0  0  0  0  0
  -36.7626  -21.8457   27.5917 C   0  0  0  0  0  0  0  0  0  0  0  0
  -37.1776  -19.0080   26.0758 C   0  0  0  0  0  0  0  0  0  0  0  0
  -35.9943  -16.7177   23.8395 C   0  0  0  0  0  0  0  0  0  0  0  0
  -30.8251  -14.6127   20.9944 C   0  0  0  0  0  0  0  0  0  0  0  0
  -40.3854  -23.1632   30.9379 C   0  0  0  0  0  0  0  0  0  0  0  0
  -34.5511  -20.7155   28.0250 C   0  0  0  0  0  0  0  0  0  0  0  0
  -35.3530  -20.5064   25.1864 C   0  0  0  0  0  0  0  0  0  0  0  0
  -40.3435  -22.3911   29.6218 C   0  0  0  0  0  0  0  0  0  0  0  0
  -29.5688  -12.5430   18.1945 C   0  0  0  0  0  0  0  0  0  0  0  0
  -39.5669  -23.1741   28.5679 C   0  0  0  0  0  0  0  0  0  0  0  0
  -28.1544  -12.1888   18.6506 C   0  0  0  0  0  0  0  0  0  0  0  0
  -30.5043  -12.7763   19.3769 C   0  0  0  0  0  0  0  0  0  0  0  0
  -28.5946  -13.4376   20.8016 C   0  0  0  0  0  0  0  0  0  0  0  0
  -38.1119  -23.3893   29.0015 C   0  0  1  0  0  0  0  0  0  0  0  0
  -36.0101  -20.5453   27.6131 C   0  0  1  0  0  0  0  0  0  0  0  0
  -27.6154  -13.2418   19.6344 C   0  0  2  0  0  0  0  0  0  0  0  0
  -36.5723  -14.5169   22.7814 C   0  0  0  0  0  0  0  0  0  0  0  0
  -39.2041  -20.4086   24.2754 C   0  0  0  0  0  0  0  0  0  0  0  0
  -39.0273  -18.4775   22.6918 C   0  0  0  0  0  0  0  0  0  0  0  0
  -39.8726  -18.1136   25.0104 C   0  0  0  0  0  0  0  0  0  0  0  0
  -31.2102  -16.8170   22.0299 C   0  0  0  0  0  0  0  0  0  0  0  0
  -33.5801  -15.4168   24.9522 C   0  0  0  0  0  0  0  0  0  0  0  0
  -29.0971  -16.4519   20.8104 C   0  0  0  0  0  0  0  0  0  0  0  0
  -28.7426  -21.4266   20.8951 C   0  0  0  0  0  0  0  0  0  0  0  0
  -29.1114  -22.8771   22.8948 C   0  0  0  0  0  0  0  0  0  0  0  0
  -29.8627  -22.9334   24.2102 C   0  0  0  0  0  0  0  0  0  1  0  0
  -37.4153  -18.5842   24.6465 C   0  0  1  0  0  0  0  0  0  0  0  0
  -35.8473  -15.2093   23.9250 C   0  0  2  0  0  0  0  0  0  0  0  0
  -38.8567  -18.9107   24.1635 C   0  0  0  0  0  0  0  0  0  0  0  0
  -25.8731  -11.6103   20.2547 N   0  0  0  0  0  0  0  0  0  0  0  0
  -26.2194  -12.9021   20.1225 N   0  0  0  0  0  0  0  0  0  0  0  0
  -36.1562  -19.9455   26.2853 N   0  0  0  0  0  0  0  0  0  0  0  0
  -29.9480  -13.7490   20.3179 N   0  0  0  0  0  0  0  0  0  0  0  0
  -25.4073  -15.1116   20.3853 N   0  0  0  0  0  0  0  0  0  0  0  0
  -21.8967  -12.5567   21.6278 N   0  0  0  0  0  0  0  0  0  0  0  0
  -37.3409  -22.1810   28.8011 N   0  0  0  0  0  0  0  0  0  0  0  0
  -37.0682  -17.1689   24.5773 N   0  0  0  0  0  0  0  0  0  0  0  0
  -30.3349  -15.8817   21.3378 N   0  0  0  0  0  0  0  0  0  0  0  0
  -34.4084  -14.8251   23.8703 N   0  3  0  0  0  0  0  0  0  0  0  0
  -29.4455  -21.6120   22.1934 N   0  3  0  0  0  0  0  0  0  0  0  0
  -22.6202  -14.7135   21.3393 O   0  0  0  0  0  0  0  0  0  0  0  0
  -36.8159  -22.4959   26.5543 O   0  0  0  0  0  0  0  0  0  0  0  0
  -37.8677  -18.5198   26.9741 O   0  0  0  0  0  0  0  0  0  0  0  0
  -35.2348  -17.4247   23.1808 O   0  0  0  0  0  0  0  0  0  0  0  0
  -31.9835  -14.2725   21.2670 O   0  0  0  0  0  0  0  0  0  0  0  0
  -21.7491   -6.9887   21.7319 O   0  0  0  0  0  0  0  0  0  0  0  0
  -31.2673  -22.9023   23.9598 O   0  0  0  0  0  0  0  0  0  1  0  0
  -18.8323   -6.7583   26.4056 F   0  0  0  0  0  0  0  0  0  0  0  0
  -22.2714   -5.0535   23.6358 F   0  0  0  0  0  0  0  0  0  0  0  0
  -30.3735  -16.4087   18.0056 Cl  0  0  0  0  0  0  0  0  0  0  0  0
  1  2  1  0  0  0  0
  1  5  2  0  0  0  0
  2  6  2  0  0  0  0
  3  9  2  0  0  0  0
  3 18  1  0  0  0  0
  4 10  1  0  0  0  0
  4 18  2  0  0  0  0
  5 20  1  0  0  0  0
  6 22  1  0  0  0  0
  7 11  2  0  0  0  0
  7 21  1  0  0  0  0
  8 14  2  0  0  0  0
  8 24  1  0  0  0  0
  9 26  1  0  0  0  0
 10 26  2  0  0  0  0
 11 27  1  0  0  0  0
 12 13  2  0  0  0  0
 12 28  1  0  0  0  0
 13 29  1  0  0  0  0
 14 31  1  0  0  0  0
 15 23  1  0  0  0  0
 15 27  2  0  0  0  0
 16 24  2  0  0  0  0
 16 25  1  0  0  0  0
 17 29  2  0  0  0  0
 17 30  1  0  0  0  0
 18 32  1  0  0  0  0
 19 32  1  0  0  0  0
 19 33  2  0  0  0  0
 19 34  1  0  0  0  0
 20 22  2  0  0  0  0
 20 39  1  0  0  0  0
 21 23  2  0  0  0  0
 21 40  1  0  0  0  0
 22 48  1  0  0  0  0
 23 41  1  0  0  0  0
 24 58  1  0  0  0  0
 25 31  2  0  0  0  0
 25 57  1  0  0  0  0
 26 80  1  0  0  0  0
 27 81  1  0  0  0  0
 28 30  2  0  0  0  0
 28 80  1  0  0  0  0
 29 82  1  0  0  0  0
 30 83  1  0  0  0  0
 31 84  1  0  0  0  0
 32 64  2  0  0  0  0
 33 65  1  0  0  0  0
 33 68  1  0  0  0  0
 34 69  1  0  0  0  0
 34 75  2  0  0  0  0
 35 49  1  0  0  0  0
 35 70  1  0  0  0  0
 35 76  2  0  0  0  0
 36 61  1  0  0  0  0
 36 66  1  0  0  0  0
 36 77  2  0  0  0  0
 37 62  1  0  0  0  0
 37 71  1  0  0  0  0
 37 78  2  0  0  0  0
 38 67  1  0  0  0  0
 38 72  1  0  0  0  0
 38 79  2  0  0  0  0
 39 42  1  0  0  0  0
 40 49  1  0  0  0  0
 41 66  1  0  0  0  0
 42 44  1  0  0  0  0
 43 45  1  0  0  0  0
 43 46  1  0  0  0  0
 44 48  1  0  0  0  0
 45 50  1  0  0  0  0
 46 67  1  0  0  0  0
 47 50  1  0  0  0  0
 47 67  1  0  0  0  0
 48 70  1  0  0  0  0
 49 66  1  0  0  0  0
 50 65  1  0  0  0  0
 51 62  1  0  0  0  0
 52 63  1  0  0  0  0
 53 63  1  0  0  0  0
 54 63  1  0  0  0  0
 55 72  1  0  0  0  0
 56 73  1  0  0  0  0
 57 72  1  0  0  0  0
 58 74  1  0  0  0  0
 59 60  1  0  0  0  0
 59 74  1  0  0  0  0
 60 81  1  0  0  0  0
 61 63  1  0  0  0  0
 61 71  1  0  0  0  0
 62 73  1  0  0  0  0
 64 65  1  0  0  0  0
M  CHG  2  73   1  74   1
M  ISO  4  38 100  60 101  72 100  81 101
M  END
> <Batch ID>
0008

> <Smiles>
CNC(C)C(=O)NC(C(=O)N1Cc2cc([101O:1][101CH2:1]CNCc3ccc(Cl)c(C[100N:0](C)[100C:0](=O)N4CCCC(n5nc(-c6ccc(Oc7ccc(F)cc7F)cc6)c(C(N)=O)c5N)C4)c3)ccc2CC1C(=O)NC1CCCc2ccccc21)C(C)(C)C

> <Shape>
0.211

> <Color>
0.177

> <Negative vol penalty>
0.000

$$$$

  -OEChem-04042320353D

 83 91  0     1  0  0  0  0  0999 V2000
  -23.2802  -18.3815   22.4159 C   0  0  0  0  0  0  0  0  0  0  0  0
  -24.4189  -18.2784   23.2085 C   0  0  0  0  0  0  0  0  0  0  0  0
  -23.2883   -9.8003   19.9132 C   0  0  0  0  0  0  0  0  0  0  0  0
  -23.7420   -9.9401   22.2821 C   0  0  0  0  0  0  0  0  0  0  0  0
  -22.4147  -19.4625   22.5784 C   0  0  0  0  0  0  0  0  0  0  0  0
  -24.6933  -19.2569   24.1633 C   0  0  0  0  0  0  0  0  0  0  0  0
  -26.1278  -17.2900   28.6039 C   0  0  0  0  0  0  0  0  0  0  0  0
  -32.6968  -15.3655   24.6209 C   0  0  0  0  0  0  0  0  0  0  0  0
  -32.2040  -14.6064   23.5596 C   0  0  0  0  0  0  0  0  0  0  0  0
  -22.5627   -8.6274   20.1213 C   0  0  0  0  0  0  0  0  0  0  0  0
  -23.0164   -8.7671   22.4902 C   0  0  0  0  0  0  0  0  0  0  0  0
  -27.4416  -16.8343   28.7037 C   0  0  0  0  0  0  0  0  0  0  0  0
  -19.7701   -7.8544   22.7113 C   0  0  0  0  0  0  0  0  0  0  0  0
  -18.8691   -7.8318   23.7758 C   0  0  0  0  0  0  0  0  0  0  0  0
  -28.0580  -18.8768   29.8295 C   0  0  0  0  0  0  0  0  0  0  0  0
  -31.1456  -14.2773   26.1197 C   0  0  0  0  0  0  0  0  0  0  0  0
  -20.0769   -5.9847   24.7589 C   0  0  0  0  0  0  0  0  0  0  0  0
  -23.8780  -10.4567   20.9936 C   0  0  0  0  0  0  0  0  0  0  0  0
  -24.1359  -12.9869   20.7958 C   0  0  0  0  0  0  0  0  0  0  0  0
  -22.6736  -20.4496   23.5423 C   0  0  0  0  0  0  0  0  0  0  0  0
  -25.7709  -18.5492   29.1072 C   0  0  0  0  0  0  0  0  0  0  0  0
  -23.8312  -20.3528   24.3379 C   0  0  0  0  0  0  0  0  0  0  0  0
  -26.7385  -19.3450   29.7371 C   0  0  0  0  0  0  0  0  0  0  0  0
  -32.1677  -15.2010   25.9010 C   0  0  0  0  0  0  0  0  0  0  0  0
  -31.1820  -13.6827   23.7783 C   0  0  0  0  0  0  0  0  0  0  0  0
  -22.4268   -8.1107   21.4098 C   0  0  0  0  0  0  0  0  0  0  0  0
  -28.4076  -17.6289   29.3140 C   0  0  0  0  0  0  0  0  0  0  0  0
  -20.8245   -6.9421   22.6705 C   0  0  0  0  0  0  0  0  0  0  0  0
  -19.0225   -6.8969   24.7996 C   0  0  0  0  0  0  0  0  0  0  0  0
  -30.6527  -13.5181   25.0584 C   0  0  0  0  0  0  0  0  0  0  0  0
  -20.9779   -6.0073   23.6943 C   0  0  0  0  0  0  0  0  0  0  0  0
  -24.6281  -11.6681   20.7791 C   0  0  0  0  0  0  0  0  0  0  0  0
  -25.2367  -13.7674   20.5398 C   0  0  0  0  0  0  0  0  0  0  0  0
  -22.8029  -13.4637   21.0225 C   0  0  0  0  0  0  0  0  0  0  0  0
  -24.6210  -21.2279   27.8398 C   0  0  0  0  0  0  0  0  0  0  0  0
  -24.4466  -22.1600   30.9419 C   0  0  0  0  0  0  0  0  0  0  0  0
  -25.5776  -21.8040   34.1420 C   0  0  0  0  0  0  0  0  0  0  0  0
  -31.0984  -12.9555   21.3678 C   0  0  0  0  0  0  0  0  0  0  0  0
  -21.7338  -21.6244   23.6488 C   0  0  0  0  0  0  0  0  0  0  0  0
  -24.3437  -19.0149   29.0154 C   0  0  0  0  0  0  0  0  0  0  0  0
  -26.4024  -20.6961   30.3117 C   0  0  0  0  0  0  0  0  0  0  0  0
  -21.8996  -22.4219   24.9398 C   0  0  0  0  0  0  0  0  0  0  0  0
  -29.4607  -13.6606   18.2859 C   0  0  0  0  0  0  0  0  0  0  0  0
  -23.3755  -22.6913   25.2151 C   0  0  0  0  0  0  0  0  0  0  0  0
  -27.9899  -13.3555   18.5788 C   0  0  0  0  0  0  0  0  0  0  0  0
  -30.3953  -12.6855   18.9997 C   0  0  0  0  0  0  0  0  0  0  0  0
  -28.7045  -12.2558   20.7392 C   0  0  0  0  0  0  0  0  0  0  0  0
  -24.1501  -21.3810   25.4015 C   0  0  1  0  0  0  0  0  0  0  0  0
  -24.2031  -20.5315   29.1040 C   0  0  1  0  0  0  0  0  0  0  0  0
  -27.7269  -13.2516   20.0939 C   0  0  2  0  0  0  0  0  0  0  0  0
  -25.2724  -22.7313   36.4538 C   0  0  0  0  0  0  0  0  0  0  0  0
  -26.0483  -24.6358   30.1577 C   0  0  0  0  0  0  0  0  0  0  0  0
  -26.5202  -25.0145   32.5871 C   0  0  0  0  0  0  0  0  0  0  0  0
  -24.1704  -25.0698   31.7514 C   0  0  0  0  0  0  0  0  0  0  0  0
  -24.7071  -19.1824   35.2042 C   0  0  0  0  0  0  0  0  0  0  0  0
  -31.7886  -18.2653   26.4708 C   0  0  0  0  0  0  0  0  0  0  0  0
  -32.6968  -16.0183   27.0425 C   0  0  0  0  0  0  0  0  0  0  0  0
  -31.9974  -17.5762   28.8548 C   0  0  0  0  0  0  0  0  0  0  0  0
  -30.7202  -18.1751   29.4100 C   0  0  0  0  0  0  0  0  0  1  0  0
  -25.3801  -22.8549   31.9035 C   0  0  1  0  0  0  0  0  0  0  0  0
  -24.8400  -21.6633   35.4613 C   0  0  2  0  0  0  0  0  0  0  0  0
  -25.5368  -24.3692   31.5875 C   0  0  0  0  0  0  0  0  0  0  0  0
  -25.9394  -11.6101   20.5319 N   0  0  0  0  0  0  0  0  0  0  0  0
  -26.2805  -12.9023   20.3908 N   0  0  0  0  0  0  0  0  0  0  0  0
  -24.9946  -21.1099   30.1917 N   0  0  0  0  0  0  0  0  0  0  0  0
  -30.0903  -12.6428   20.4315 N   0  0  0  0  0  0  0  0  0  0  0  0
  -25.4038  -15.1025   20.4297 N   0  0  0  0  0  0  0  0  0  0  0  0
  -21.7911  -12.5262   21.2708 N   0  0  0  0  0  0  0  0  0  0  0  0
  -30.6829  -12.9132   22.6982 N   0  0  0  0  0  0  0  0  0  0  0  0
  -23.9113  -20.8361   26.7207 N   0  0  0  0  0  0  0  0  0  0  0  0
  -24.8715  -22.5733   33.2416 N   0  0  0  0  0  0  0  0  0  0  0  0
  -25.1063  -20.3264   36.0637 N   0  3  0  0  0  0  0  0  0  0  0  0
  -31.7616  -17.1262   27.4597 N   0  3  1  0  0  0  0  0  0  0  0  0
  -22.5144  -14.6841   20.9891 O   0  0  0  0  0  0  0  0  0  0  0  0
  -25.5196  -22.0602   27.8772 O   0  0  0  0  0  0  0  0  0  0  0  0
  -23.2725  -22.5305   30.8646 O   0  0  0  0  0  0  0  0  0  0  0  0
  -26.6726  -21.2866   33.9326 O   0  0  0  0  0  0  0  0  0  0  0  0
  -32.2387  -13.2665   21.0141 O   0  0  0  0  0  0  0  0  0  0  0  0
  -21.7186   -6.9663   21.6133 O   0  0  0  0  0  0  0  0  0  0  0  0
  -29.6908  -17.1868   29.4123 O   0  0  0  0  0  0  0  0  0  1  0  0
  -18.1581   -6.8764   25.8226 F   0  0  0  0  0  0  0  0  0  0  0  0
  -29.6692  -12.6344   25.2798 F   0  0  0  0  0  0  0  0  0  0  0  0
  -21.9896   -5.1291   23.6612 F   0  0  0  0  0  0  0  0  0  0  0  0
  1  2  1  0  0  0  0
  1  5  2  0  0  0  0
  2  6  2  0  0  0  0
  3 10  2  0  0  0  0
  3 18  1  0  0  0  0
  4 11  1  0  0  0  0
  4 18  2  0  0  0  0
  5 20  1  0  0  0  0
  6 22  1  0  0  0  0
  7 12  2  0  0  0  0
  7 21  1  0  0  0  0
  8  9  2  0  0  0  0
  8 24  1  0  0  0  0
  9 25  1  0  0  0  0
 10 26  1  0  0  0  0
 11 26  2  0  0  0  0
 12 27  1  0  0  0  0
 13 14  2  0  0  0  0
 13 28  1  0  0  0  0
 14 29  1  0  0  0  0
 15 23  1  0  0  0  0
 15 27  2  0  0  0  0
 16 24  2  0  0  0  0
 16 30  1  0  0  0  0
 17 29  2  0  0  0  0
 17 31  1  0  0  0  0
 18 32  1  0  0  0  0
 19 32  1  0  0  0  0
 19 33  2  0  0  0  0
 19 34  1  0  0  0  0
 20 22  2  0  0  0  0
 20 39  1  0  0  0  0
 21 23  2  0  0  0  0
 21 40  1  0  0  0  0
 22 48  1  0  0  0  0
 23 41  1  0  0  0  0
 24 57  1  0  0  0  0
 25 30  2  0  0  0  0
 25 69  1  0  0  0  0
 26 79  1  0  0  0  0
 27 80  1  0  0  0  0
 28 31  2  0  0  0  0
 28 79  1  0  0  0  0
 29 81  1  0  0  0  0
 30 82  1  0  0  0  0
 31 83  1  0  0  0  0
 32 63  2  0  0  0  0
 33 64  1  0  0  0  0
 33 67  1  0  0  0  0
 34 68  1  0  0  0  0
 34 74  2  0  0  0  0
 35 49  1  0  0  0  0
 35 70  1  0  0  0  0
 35 75  2  0  0  0  0
 36 60  1  0  0  0  0
 36 65  1  0  0  0  0
 36 76  2  0  0  0  0
 37 61  1  0  0  0  0
 37 71  1  0  0  0  0
 37 77  2  0  0  0  0
 38 66  1  0  0  0  0
 38 69  1  0  0  0  0
 38 78  2  0  0  0  0
 39 42  1  0  0  0  0
 40 49  1  0  0  0  0
 41 65  1  0  0  0  0
 42 44  1  0  0  0  0
 43 45  1  0  0  0  0
 43 46  1  0  0  0  0
 44 48  1  0  0  0  0
 45 50  1  0  0  0  0
 46 66  1  0  0  0  0
 47 50  1  0  0  0  0
 47 66  1  0  0  0  0
 48 70  1  0  0  0  0
 49 65  1  0  0  0  0
 50 64  1  0  0  0  0
 51 61  1  0  0  0  0
 52 62  1  0  0  0  0
 53 62  1  0  0  0  0
 54 62  1  0  0  0  0
 55 72  1  0  0  0  0
 56 73  1  0  0  0  0
 57 73  1  0  0  0  0
 58 59  1  0  0  0  0
 58 73  1  0  0  0  0
 59 80  1  0  0  0  0
 60 62  1  0  0  0  0
 60 71  1  0  0  0  0
 61 72  1  0  0  0  0
 63 64  1  0  0  0  0
M  CHG  2  72   1  73   1
M  ISO  4  38 100  59 101  69 100  80 101
M  END
> <Batch ID>
0008

> <Smiles>
CNC(C)C(=O)NC(C(=O)N1Cc2cc([101O:1][101CH2:1]CN(C)Cc3ccc([100NH:0][100C:0](=O)N4CCCC(n5nc(-c6ccc(Oc7ccc(F)cc7F)cc6)c(C(N)=O)c5N)C4)c(F)c3)ccc2CC1C(=O)NC1CCCc2ccccc21)C(C)(C)C

> <Shape>
0.135

> <Color>
0.174

> <Negative vol penalty>
0.000

$$$$

  -OEChem-04042320353D

 79 87  0     1  0  0  0  0  0999 V2000
  -17.7101  -25.9347   22.7515 C   0  0  0  0  0  0  0  0  0  0  0  0
  -19.0279  -25.5147   22.6016 C   0  0  0  0  0  0  0  0  0  0  0  0
  -27.8996  -13.9884   19.6979 C   0  0  0  0  0  0  0  0  0  0  0  0
  -30.2693  -13.5371   19.5645 C   0  0  0  0  0  0  0  0  0  0  0  0
  -17.3601  -27.2498   22.4484 C   0  0  0  0  0  0  0  0  0  0  0  0
  -19.9963  -26.4093   22.1474 C   0  0  0  0  0  0  0  0  0  0  0  0
  -25.8841  -26.6230   23.8187 C   0  0  0  0  0  0  0  0  0  0  0  0
  -27.6349  -12.6210   19.6218 C   0  0  0  0  0  0  0  0  0  0  0  0
  -30.0046  -12.1697   19.4885 C   0  0  0  0  0  0  0  0  0  0  0  0
  -27.0463  -26.1338   23.2240 C   0  0  0  0  0  0  0  0  0  0  0  0
  -26.3511   -9.2261   19.8262 C   0  0  0  0  0  0  0  0  0  0  0  0
  -25.4088   -8.6980   20.7085 C   0  0  0  0  0  0  0  0  0  0  0  0
  -27.4391  -28.2954   22.2277 C   0  0  0  0  0  0  0  0  0  0  0  0
  -26.7544   -9.4230   22.5796 C   0  0  0  0  0  0  0  0  0  0  0  0
  -29.2168  -14.4465   19.6692 C   0  0  0  0  0  0  0  0  0  0  0  0
  -29.7018  -16.6209   20.9119 C   0  0  0  0  0  0  0  0  0  0  0  0
  -18.3265  -28.1637   21.9995 C   0  0  0  0  0  0  0  0  0  0  0  0
  -25.4842  -27.9512   23.6133 C   0  0  0  0  0  0  0  0  0  0  0  0
  -19.6586  -27.7375   21.8367 C   0  0  0  0  0  0  0  0  0  0  0  0
  -26.2728  -28.7997   22.8231 C   0  0  0  0  0  0  0  0  0  0  0  0
  -28.6873  -11.7117   19.5171 C   0  0  0  0  0  0  0  0  0  0  0  0
  -27.8225  -26.9692   22.4260 C   0  0  0  0  0  0  0  0  0  0  0  0
  -27.4952   -9.8527   20.3204 C   0  0  0  0  0  0  0  0  0  0  0  0
  -25.6104   -8.7964   22.0852 C   0  0  0  0  0  0  0  0  0  0  0  0
  -27.6968   -9.9512   21.6971 C   0  0  0  0  0  0  0  0  0  0  0  0
  -29.4909  -15.8589   19.7471 C   0  0  0  0  0  0  0  0  0  0  0  0
  -29.9198  -17.8968   20.4527 C   0  0  0  0  0  0  0  0  0  0  0  0
  -29.7008  -16.2119   22.2861 C   0  0  0  0  0  0  0  0  0  0  0  0
  -22.9477  -29.3538   22.3085 C   0  0  0  0  0  0  0  0  0  0  0  0
  -24.3572  -32.0561   23.4189 C   0  0  0  0  0  0  0  0  0  0  0  0
  -27.2176  -33.6399   24.3969 C   0  0  0  0  0  0  0  0  0  0  0  0
  -28.0873  -21.9706   16.9310 C   0  0  0  0  0  0  0  0  0  0  0  0
  -17.8913  -29.5620   21.6392 C   0  0  0  0  0  0  0  0  0  0  0  0
  -24.2421  -28.4711   24.2836 C   0  0  0  0  0  0  0  0  0  0  0  0
  -25.8980  -30.2393   22.5876 C   0  0  0  0  0  0  0  0  0  0  0  0
  -19.0498  -30.5490   21.5209 C   0  0  0  0  0  0  0  0  0  0  0  0
  -30.7343  -19.6434   15.7873 C   0  0  0  0  0  0  0  0  0  0  0  0
  -20.1837  -29.9453   20.6983 C   0  0  0  0  0  0  0  0  0  0  0  0
  -30.6030  -18.4836   16.7730 C   0  0  0  0  0  0  0  0  0  0  0  0
  -29.4092  -20.3735   15.5925 C   0  0  0  0  0  0  0  0  0  0  0  0
  -27.3609  -23.9179   18.2753 C   0  0  0  0  0  0  0  0  0  0  0  0
  -28.6624  -19.6908   17.8505 C   0  0  0  0  0  0  0  0  0  0  0  0
  -29.0595  -22.4090   19.2319 C   0  0  0  0  0  0  0  0  0  0  0  0
  -28.2968  -25.1103   18.3889 C   0  0  0  0  0  0  0  0  0  0  0  0
  -20.7423  -28.6851   21.3702 C   0  0  1  0  0  0  0  0  0  0  0  0
  -23.6561  -29.6962   23.5885 C   0  0  1  0  0  0  0  0  0  0  0  0
  -29.9907  -18.9607   18.1012 C   0  0  1  0  0  0  0  0  0  0  0  0
  -30.0596  -23.5654   19.3806 C   0  0  1  0  0  0  0  0  0  0  0  0
  -31.0625  -23.6162   18.2282 C   0  0  0  0  0  0  0  0  0  0  0  0
  -28.0601  -35.8574   25.2157 C   0  0  0  0  0  0  0  0  0  0  0  0
  -24.1526  -33.1764   20.5881 C   0  0  0  0  0  0  0  0  0  0  0  0
  -25.8168  -34.9307   21.2369 C   0  0  0  0  0  0  0  0  0  0  0  0
  -23.6130  -34.8139   22.3997 C   0  0  0  0  0  0  0  0  0  0  0  0
  -28.1644  -32.4701   26.9452 C   0  0  0  0  0  0  0  0  0  0  0  0
  -30.1352  -26.0715   19.7862 C   0  0  0  0  0  0  0  0  0  0  0  0
  -29.3426  -27.0752   20.6001 C   0  0  0  0  0  0  0  0  0  1  0  0
  -25.3568  -33.0443   22.8682 C   0  0  1  0  0  0  0  0  0  0  0  0
  -27.5330  -34.4881   25.6158 C   0  0  2  0  0  0  0  0  0  0  0  0
  -24.7411  -33.9637   21.7759 C   0  0  0  0  0  0  0  0  0  0  0  0
  -29.5678  -16.5898   18.6319 N   0  0  0  0  0  0  0  0  0  0  0  0
  -29.8294  -17.8244   19.0937 N   0  0  0  0  0  0  0  0  0  0  0  0
  -24.6713  -30.6990   23.2596 N   0  0  0  0  0  0  0  0  0  0  0  0
  -28.8243  -20.7765   16.8715 N   0  0  0  0  0  0  0  0  0  0  0  0
  -28.1005  -22.6649   18.1500 N   0  0  0  0  0  0  0  0  0  0  0  0
  -30.1780  -19.0624   21.0828 N   0  0  0  0  0  0  0  0  0  0  0  0
  -29.4598  -14.8632   22.5816 N   0  0  0  0  0  0  0  0  0  0  0  0
  -21.6112  -29.0423   22.4711 N   0  0  0  0  0  0  0  0  0  0  0  0
  -25.8975  -33.7616   24.0177 N   0  0  0  0  0  0  0  0  0  0  0  0
  -29.2779  -24.8656   19.5136 N   0  3  1  0  0  0  0  0  0  0  0  0
  -28.5606  -33.8177   26.4615 N   0  3  0  0  0  0  0  0  0  0  0  0
  -29.8912  -17.0216   23.2251 O   0  0  0  0  0  0  0  0  0  0  0  0
  -23.5672  -29.3724   21.2513 O   0  0  0  0  0  0  0  0  0  0  0  0
  -23.3389  -32.4730   23.9763 O   0  0  0  0  0  0  0  0  0  0  0  0
  -28.0591  -32.9423   23.8350 O   0  0  0  0  0  0  0  0  0  0  0  0
  -27.4614  -22.3934   15.9508 O   0  0  0  0  0  0  0  0  0  0  0  0
  -28.4294  -10.3773   19.4431 O   0  0  0  0  0  0  0  0  0  0  0  0
  -28.9651  -26.4907   21.8396 O   0  0  0  0  0  0  0  0  0  1  0  0
  -24.7046   -8.2905   22.9325 F   0  0  0  0  0  0  0  0  0  0  0  0
  -28.7933  -10.5531   22.1780 F   0  0  0  0  0  0  0  0  0  0  0  0
  1  2  1  0  0  0  0
  1  5  2  0  0  0  0
  2  6  2  0  0  0  0
  3  8  2  0  0  0  0
  3 15  1  0  0  0  0
  4  9  1  0  0  0  0
  4 15  2  0  0  0  0
  5 17  1  0  0  0  0
  6 19  1  0  0  0  0
  7 10  2  0  0  0  0
  7 18  1  0  0  0  0
  8 21  1  0  0  0  0
  9 21  2  0  0  0  0
 10 22  1  0  0  0  0
 11 12  2  0  0  0  0
 11 23  1  0  0  0  0
 12 24  1  0  0  0  0
 13 20  1  0  0  0  0
 13 22  2  0  0  0  0
 14 24  2  0  0  0  0
 14 25  1  0  0  0  0
 15 26  1  0  0  0  0
 16 26  1  0  0  0  0
 16 27  2  0  0  0  0
 16 28  1  0  0  0  0
 17 19  2  0  0  0  0
 17 33  1  0  0  0  0
 18 20  2  0  0  0  0
 18 34  1  0  0  0  0
 19 45  1  0  0  0  0
 20 35  1  0  0  0  0
 21 76  1  0  0  0  0
 22 77  1  0  0  0  0
 23 25  2  0  0  0  0
 23 76  1  0  0  0  0
 24 78  1  0  0  0  0
 25 79  1  0  0  0  0
 26 60  2  0  0  0  0
 27 61  1  0  0  0  0
 27 65  1  0  0  0  0
 28 66  1  0  0  0  0
 28 71  2  0  0  0  0
 29 46  1  0  0  0  0
 29 67  1  0  0  0  0
 29 72  2  0  0  0  0
 30 57  1  0  0  0  0
 30 62  1  0  0  0  0
 30 73  2  0  0  0  0
 31 58  1  0  0  0  0
 31 68  1  0  0  0  0
 31 74  2  0  0  0  0
 32 63  1  0  0  0  0
 32 64  1  0  0  0  0
 32 75  2  0  0  0  0
 33 36  1  0  0  0  0
 34 46  1  0  0  0  0
 35 62  1  0  0  0  0
 36 38  1  0  0  0  0
 37 39  1  0  0  0  0
 37 40  1  0  0  0  0
 38 45  1  0  0  0  0
 39 47  1  0  0  0  0
 40 63  1  0  0  0  0
 41 44  1  0  0  0  0
 41 64  1  0  0  0  0
 42 47  1  0  0  0  0
 42 63  1  0  0  0  0
 43 48  1  0  0  0  0
 43 64  1  0  0  0  0
 44 69  1  0  0  0  0
 45 67  1  0  0  0  0
 46 62  1  0  0  0  0
 47 61  1  0  0  0  0
 48 49  1  0  0  0  0
 48 69  1  0  0  0  0
 50 58  1  0  0  0  0
 51 59  1  0  0  0  0
 52 59  1  0  0  0  0
 53 59  1  0  0  0  0
 54 70  1  0  0  0  0
 55 56  1  0  0  0  0
 55 69  1  0  0  0  0
 56 77  1  0  0  0  0
 57 59  1  0  0  0  0
 57 68  1  0  0  0  0
 58 70  1  0  0  0  0
 60 61  1  0  0  0  0
M  CHG  2  69   1  70   1
M  ISO  4  32 100  56 101  64 100  77 101
M  END
> <Batch ID>
0008

> <Smiles>
CNC(C)C(=O)NC(C(=O)N1Cc2cc([101O:1][101CH2:1]CN3CC[100N:0]([100C:0](=O)N4CCCC(n5nc(-c6ccc(Oc7ccc(F)cc7F)cc6)c(C(N)=O)c5N)C4)CC3C)ccc2CC1C(=O)NC1CCCc2ccccc21)C(C)(C)C

> <Shape>
0.283

> <Color>
0.077

> <Negative vol penalty>
0.000

$$$$

  -OEChem-04042320353D

 83 91  0     1  0  0  0  0  0999 V2000
  -19.3238  -31.7998   26.5833 C   0  0  0  0  0  0  0  0  0  0  0  0
  -20.5821  -31.2095   26.5220 C   0  0  0  0  0  0  0  0  0  0  0  0
  -22.3123  -10.3599   21.7921 C   0  0  0  0  0  0  0  0  0  0  0  0
  -23.4197   -9.7603   19.7303 C   0  0  0  0  0  0  0  0  0  0  0  0
  -18.3932  -31.5614   25.5729 C   0  0  0  0  0  0  0  0  0  0  0  0
  -20.9101  -30.3795   25.4506 C   0  0  0  0  0  0  0  0  0  0  0  0
  -26.4888  -28.4339   21.3997 C   0  0  0  0  0  0  0  0  0  0  0  0
  -21.9153   -9.0340   21.9645 C   0  0  0  0  0  0  0  0  0  0  0  0
  -23.0228   -8.4343   19.9027 C   0  0  0  0  0  0  0  0  0  0  0  0
  -27.1489  -27.2898   20.9536 C   0  0  0  0  0  0  0  0  0  0  0  0
  -23.2996   -6.1372   23.0255 C   0  0  0  0  0  0  0  0  0  0  0  0
  -23.4520   -5.5745   24.2926 C   0  0  0  0  0  0  0  0  0  0  0  0
  -25.4889  -27.0132   19.2252 C   0  0  0  0  0  0  0  0  0  0  0  0
  -27.0727  -20.5625   19.0884 C   0  0  0  0  0  0  0  0  0  0  0  0
  -25.2898  -20.9954   16.9868 C   0  0  0  0  0  0  0  0  0  0  0  0
  -21.0718   -5.1747   24.4015 C   0  0  0  0  0  0  0  0  0  0  0  0
  -23.0645  -10.7231   20.6749 C   0  0  0  0  0  0  0  0  0  0  0  0
  -24.6610  -12.6924   20.9587 C   0  0  0  0  0  0  0  0  0  0  0  0
  -18.7134  -30.7358   24.4836 C   0  0  0  0  0  0  0  0  0  0  0  0
  -25.3157  -28.8709   20.7677 C   0  0  0  0  0  0  0  0  0  0  0  0
  -19.9824  -30.1288   24.4252 C   0  0  0  0  0  0  0  0  0  0  0  0
  -24.8172  -28.1647   19.6636 C   0  0  0  0  0  0  0  0  0  0  0  0
  -26.8286  -19.5496   18.1610 C   0  0  0  0  0  0  0  0  0  0  0  0
  -25.9372  -19.7660   17.1102 C   0  0  0  0  0  0  0  0  0  0  0  0
  -22.2706   -8.0711   21.0199 C   0  0  0  0  0  0  0  0  0  0  0  0
  -26.6474  -26.5776   19.8681 C   0  0  0  0  0  0  0  0  0  0  0  0
  -22.0332   -6.2188   22.4464 C   0  0  0  0  0  0  0  0  0  0  0  0
  -26.4252  -21.7919   18.9650 C   0  0  0  0  0  0  0  0  0  0  0  0
  -22.3382   -5.0932   24.9806 C   0  0  0  0  0  0  0  0  0  0  0  0
  -25.5338  -22.0083   17.9142 C   0  0  0  0  0  0  0  0  0  0  0  0
  -20.9193   -5.7375   23.1344 C   0  0  0  0  0  0  0  0  0  0  0  0
  -23.4744  -12.0928   20.4959 C   0  0  0  0  0  0  0  0  0  0  0  0
  -24.5759  -13.9955   20.5330 C   0  0  0  0  0  0  0  0  0  0  0  0
  -25.7435  -12.1225   21.7064 C   0  0  0  0  0  0  0  0  0  0  0  0
  -22.2957  -29.2731   21.6740 C   0  0  0  0  0  0  0  0  0  0  0  0
  -21.9846  -30.5505   18.7086 C   0  0  0  0  0  0  0  0  0  0  0  0
  -23.1379  -30.7459   15.5025 C   0  0  0  0  0  0  0  0  0  0  0  0
  -23.4103  -17.7573   16.5788 C   0  0  0  0  0  0  0  0  0  0  0  0
  -17.6580  -30.4698   23.4395 C   0  0  0  0  0  0  0  0  0  0  0  0
  -24.6303  -30.1221   21.2442 C   0  0  0  0  0  0  0  0  0  0  0  0
  -23.5727  -28.6035   18.9377 C   0  0  0  0  0  0  0  0  0  0  0  0
  -18.2150  -29.8775   22.1475 C   0  0  0  0  0  0  0  0  0  0  0  0
  -20.6958  -16.5644   18.5500 C   0  0  0  0  0  0  0  0  0  0  0  0
  -19.1834  -28.7399   22.4558 C   0  0  0  0  0  0  0  0  0  0  0  0
  -21.2727  -15.3412   19.2648 C   0  0  0  0  0  0  0  0  0  0  0  0
  -21.2404  -16.6968   17.1294 C   0  0  0  0  0  0  0  0  0  0  0  0
  -23.2886  -15.4708   17.7422 C   0  0  0  0  0  0  0  0  0  0  0  0
  -20.3842  -29.2422   23.2665 C   0  0  1  0  0  0  0  0  0  0  0  0
  -23.1584  -30.1849   20.8482 C   0  0  1  0  0  0  0  0  0  0  0  0
  -22.8117  -15.3265   19.1976 C   0  0  2  0  0  0  0  0  0  0  0  0
  -27.5325  -18.2412   18.3137 C   0  0  0  0  0  0  0  0  0  0  0  0
  -22.6542  -31.8442   13.2986 C   0  0  0  0  0  0  0  0  0  0  0  0
  -19.6740  -28.6108   18.2518 C   0  0  0  0  0  0  0  0  0  0  0  0
  -19.8626  -29.0730   15.7984 C   0  0  0  0  0  0  0  0  0  0  0  0
  -19.2867  -30.9200   17.3731 C   0  0  0  0  0  0  0  0  0  0  0  0
  -25.7558  -32.1263   15.4843 C   0  0  0  0  0  0  0  0  0  0  0  0
  -25.6581  -18.6968   16.1055 C   0  0  0  0  0  0  0  0  0  0  0  0
  -28.0046  -24.6996   20.4039 C   0  0  0  0  0  0  0  0  0  1  0  0
  -28.0094  -23.2416   19.9870 C   0  0  0  0  0  0  0  0  0  0  0  0
  -21.6447  -30.0084   17.3412 C   0  0  1  0  0  0  0  0  0  0  0  0
  -23.4251  -31.9370   14.6062 C   0  0  2  0  0  0  0  0  0  0  0  0
  -20.1394  -29.6434   17.2058 C   0  0  0  0  0  0  0  0  0  0  0  0
  -22.6927  -12.9450   19.8276 N   0  0  0  0  0  0  0  0  0  0  0  0
  -23.3895  -14.0935   19.8674 N   0  0  0  0  0  0  0  0  0  0  0  0
  -22.9349  -29.8295   19.4453 N   0  0  0  0  0  0  0  0  0  0  0  0
  -22.7051  -16.6777   17.1357 N   0  0  0  0  0  0  0  0  0  0  0  0
  -25.4009  -15.0557   20.6669 N   0  0  0  0  0  0  0  0  0  0  0  0
  -25.6703  -10.7687   22.0616 N   0  0  0  0  0  0  0  0  0  0  0  0
  -21.3238  -29.9283   22.4058 N   0  0  0  0  0  0  0  0  0  0  0  0
  -22.1068  -31.0045   16.3807 N   0  0  0  0  0  0  0  0  0  0  0  0
  -24.7955  -17.6624   16.6316 N   0  0  0  0  0  0  0  0  0  0  0  0
  -24.8797  -32.0086   14.2902 N   0  3  0  0  0  0  0  0  0  0  0  0
  -26.7384  -12.7979   22.0634 O   0  0  0  0  0  0  0  0  0  0  0  0
  -22.4960  -28.0644   21.6480 O   0  0  0  0  0  0  0  0  0  0  0  0
  -21.4326  -31.5799   19.1053 O   0  0  0  0  0  0  0  0  0  0  0  0
  -23.7630  -29.6904   15.4284 O   0  0  0  0  0  0  0  0  0  0  0  0
  -22.8471  -18.7361   16.0770 O   0  0  0  0  0  0  0  0  0  0  0  0
  -21.8836   -6.7771   21.1880 O   0  0  0  0  0  0  0  0  0  0  0  0
  -27.2894  -25.4601   19.4310 O   0  0  0  0  0  0  0  0  0  1  0  0
  -26.6666  -22.7855   19.8769 O   0  0  0  0  0  0  0  0  0  0  0  0
  -22.4850   -4.5514   26.1968 F   0  0  0  0  0  0  0  0  0  0  0  0
  -24.9088  -23.1873   17.7907 F   0  0  0  0  0  0  0  0  0  0  0  0
  -19.7004   -5.8120   22.5826 F   0  0  0  0  0  0  0  0  0  0  0  0
  1  2  1  0  0  0  0
  1  5  2  0  0  0  0
  2  6  2  0  0  0  0
  3  8  2  0  0  0  0
  3 17  1  0  0  0  0
  4  9  1  0  0  0  0
  4 17  2  0  0  0  0
  5 19  1  0  0  0  0
  6 21  1  0  0  0  0
  7 10  2  0  0  0  0
  7 20  1  0  0  0  0
  8 25  1  0  0  0  0
  9 25  2  0  0  0  0
 10 26  1  0  0  0  0
 11 12  2  0  0  0  0
 11 27  1  0  0  0  0
 12 29  1  0  0  0  0
 13 22  1  0  0  0  0
 13 26  2  0  0  0  0
 14 23  2  0  0  0  0
 14 28  1  0  0  0  0
 15 24  2  0  0  0  0
 15 30  1  0  0  0  0
 16 29  2  0  0  0  0
 16 31  1  0  0  0  0
 17 32  1  0  0  0  0
 18 32  1  0  0  0  0
 18 33  2  0  0  0  0
 18 34  1  0  0  0  0
 19 21  2  0  0  0  0
 19 39  1  0  0  0  0
 20 22  2  0  0  0  0
 20 40  1  0  0  0  0
 21 48  1  0  0  0  0
 22 41  1  0  0  0  0
 23 24  1  0  0  0  0
 23 51  1  0  0  0  0
 24 57  1  0  0  0  0
 25 78  1  0  0  0  0
 26 79  1  0  0  0  0
 27 31  2  0  0  0  0
 27 78  1  0  0  0  0
 28 30  2  0  0  0  0
 28 80  1  0  0  0  0
 29 81  1  0  0  0  0
 30 82  1  0  0  0  0
 31 83  1  0  0  0  0
 32 63  2  0  0  0  0
 33 64  1  0  0  0  0
 33 67  1  0  0  0  0
 34 68  1  0  0  0  0
 34 73  2  0  0  0  0
 35 49  1  0  0  0  0
 35 69  1  0  0  0  0
 35 74  2  0  0  0  0
 36 60  1  0  0  0  0
 36 65  1  0  0  0  0
 36 75  2  0  0  0  0
 37 61  1  0  0  0  0
 37 70  1  0  0  0  0
 37 76  2  0  0  0  0
 38 66  1  0  0  0  0
 38 71  1  0  0  0  0
 38 77  2  0  0  0  0
 39 42  1  0  0  0  0
 40 49  1  0  0  0  0
 41 65  1  0  0  0  0
 42 44  1  0  0  0  0
 43 45  1  0  0  0  0
 43 46  1  0  0  0  0
 44 48  1  0  0  0  0
 45 50  1  0  0  0  0
 46 66  1  0  0  0  0
 47 50  1  0  0  0  0
 47 66  1  0  0  0  0
 48 69  1  0  0  0  0
 49 65  1  0  0  0  0
 50 64  1  0  0  0  0
 52 61  1  0  0  0  0
 53 62  1  0  0  0  0
 54 62  1  0  0  0  0
 55 62  1  0  0  0  0
 56 72  1  0  0  0  0
 57 71  1  0  0  0  0
 58 59  1  0  0  0  0
 58 79  1  0  0  0  0
 59 80  1  0  0  0  0
 60 62  1  0  0  0  0
 60 70  1  0  0  0  0
 61 72  1  0  0  0  0
 63 64  1  0  0  0  0
M  CHG  1  72   1
M  ISO  4  38 100  58 101  71 100  79 101
M  END
> <Batch ID>
0008

> <Smiles>
CNC(C)C(=O)NC(C(=O)N1Cc2cc([101O:1][101CH2:1]COc3cc(C)c(C[100NH:0][100C:0](=O)N4CCCC(n5nc(-c6ccc(Oc7ccc(F)cc7F)cc6)c(C(N)=O)c5N)C4)cc3F)ccc2CC1C(=O)NC1CCCc2ccccc21)C(C)(C)C

> <Shape>
0.210

> <Color>
0.121

> <Negative vol penalty>
0.000

$$$$

  -OEChem-04042320353D

 84 92  0     1  0  0  0  0  0999 V2000
  -20.8318  -32.9255   25.5427 C   0  0  0  0  0  0  0  0  0  0  0  0
  -22.0763  -32.4848   25.1040 C   0  0  0  0  0  0  0  0  0  0  0  0
  -26.5347  -12.6001   21.8150 C   0  0  0  0  0  0  0  0  0  0  0  0
  -25.8086  -14.0805   20.0492 C   0  0  0  0  0  0  0  0  0  0  0  0
  -19.7274  -32.0777   25.4684 C   0  0  0  0  0  0  0  0  0  0  0  0
  -22.2173  -31.1956   24.5916 C   0  0  0  0  0  0  0  0  0  0  0  0
  -25.9578  -29.4154   20.0811 C   0  0  0  0  0  0  0  0  0  0  0  0
  -25.2829  -11.9848   21.8140 C   0  0  0  0  0  0  0  0  0  0  0  0
  -24.5567  -13.4652   20.0481 C   0  0  0  0  0  0  0  0  0  0  0  0
  -27.2122  -28.8068   20.0879 C   0  0  0  0  0  0  0  0  0  0  0  0
  -22.3963   -9.7855   22.0277 C   0  0  0  0  0  0  0  0  0  0  0  0
  -22.3586   -8.3919   22.0710 C   0  0  0  0  0  0  0  0  0  0  0  0
  -26.1614  -26.6518   19.8211 C   0  0  0  0  0  0  0  0  0  0  0  0
  -29.0900  -23.0918   18.7388 C   0  0  0  0  0  0  0  0  0  0  0  0
  -31.3864  -22.9445   19.4746 C   0  0  0  0  0  0  0  0  0  0  0  0
  -23.5987   -8.2939   19.9999 C   0  0  0  0  0  0  0  0  0  0  0  0
  -26.7975  -13.6480   20.9326 C   0  0  0  0  0  0  0  0  0  0  0  0
  -29.2157  -13.9240   20.1685 C   0  0  0  0  0  0  0  0  0  0  0  0
  -19.8530  -30.7809   24.9460 C   0  0  0  0  0  0  0  0  0  0  0  0
  -24.7933  -28.6444   19.9549 C   0  0  0  0  0  0  0  0  0  0  0  0
  -21.1138  -30.3293   24.5115 C   0  0  0  0  0  0  0  0  0  0  0  0
  -24.8936  -27.2533   19.8104 C   0  0  0  0  0  0  0  0  0  0  0  0
  -30.4206  -23.4963   18.6329 C   0  0  0  0  0  0  0  0  0  0  0  0
  -28.7250  -22.1355   19.6865 C   0  0  0  0  0  0  0  0  0  0  0  0
  -29.6908  -21.5837   20.5282 C   0  0  0  0  0  0  0  0  0  0  0  0
  -24.2939  -12.4174   20.9306 C   0  0  0  0  0  0  0  0  0  0  0  0
  -27.3139  -27.4245   19.9608 C   0  0  0  0  0  0  0  0  0  0  0  0
  -23.0351  -10.4334   20.9703 C   0  0  0  0  0  0  0  0  0  0  0  0
  -22.9598   -7.6460   21.0572 C   0  0  0  0  0  0  0  0  0  0  0  0
  -31.0215  -21.9882   20.4222 C   0  0  0  0  0  0  0  0  0  0  0  0
  -23.6363   -9.6876   19.9565 C   0  0  0  0  0  0  0  0  0  0  0  0
  -28.0903  -14.2843   20.9336 C   0  0  0  0  0  0  0  0  0  0  0  0
  -30.1816  -14.8309   20.5304 C   0  0  0  0  0  0  0  0  0  0  0  0
  -29.3738  -12.8643   19.2157 C   0  0  0  0  0  0  0  0  0  0  0  0
  -22.2466  -28.1123   21.7811 C   0  0  0  0  0  0  0  0  0  0  0  0
  -21.2000  -26.4913   19.1736 C   0  0  0  0  0  0  0  0  0  0  0  0
  -21.9703  -24.8132   16.3035 C   0  0  0  0  0  0  0  0  0  0  0  0
  -29.9502  -20.3828   22.7275 C   0  0  0  0  0  0  0  0  0  0  0  0
  -18.6403  -29.8843   24.9295 C   0  0  0  0  0  0  0  0  0  0  0  0
  -23.4492  -29.3187   19.9225 C   0  0  0  0  0  0  0  0  0  0  0  0
  -23.6749  -26.3826   19.6517 C   0  0  0  0  0  0  0  0  0  0  0  0
  -18.7976  -28.6636   24.0265 C   0  0  0  0  0  0  0  0  0  0  0  0
  -31.5547  -17.5713   24.2100 C   0  0  0  0  0  0  0  0  0  0  0  0
  -20.1477  -27.9945   24.2636 C   0  0  0  0  0  0  0  0  0  0  0  0
  -30.9553  -16.3768   23.4642 C   0  0  0  0  0  0  0  0  0  0  0  0
  -30.5220  -18.6736   24.4383 C   0  0  0  0  0  0  0  0  0  0  0  0
  -29.2177  -17.9292   22.4854 C   0  0  0  0  0  0  0  0  0  0  0  0
  -21.3018  -28.9463   23.9265 C   0  0  1  0  0  0  0  0  0  0  0  0
  -22.3037  -28.3865   20.3049 C   0  0  1  0  0  0  0  0  0  0  0  0
  -30.2365  -16.8205   22.1749 C   0  0  2  0  0  0  0  0  0  0  0  0
  -27.2921  -21.7216   19.7783 C   0  0  0  0  0  0  0  0  0  0  0  0
  -20.9045  -23.5689   14.4026 C   0  0  0  0  0  0  0  0  0  0  0  0
  -20.7422  -24.0930   21.0034 C   0  0  0  0  0  0  0  0  0  0  0  0
  -20.6035  -22.6502   18.9619 C   0  0  0  0  0  0  0  0  0  0  0  0
  -18.9390  -24.4748   19.3130 C   0  0  0  0  0  0  0  0  0  0  0  0
  -23.0323  -26.7216   14.3063 C   0  0  0  0  0  0  0  0  0  0  0  0
  -30.0282  -26.6155   16.5114 C   0  0  0  0  0  0  0  0  0  0  0  0
  -30.8136  -24.5261   17.6151 C   0  0  0  0  0  0  0  0  0  0  0  0
  -30.6900  -26.6482   18.9120 C   0  0  0  0  0  0  0  0  0  0  0  0
  -29.6329  -27.5871   19.4590 C   0  0  0  0  0  0  0  0  0  1  0  0
  -21.3142  -25.0684   18.6823 C   0  0  1  0  0  0  0  0  0  0  0  0
  -21.4111  -24.9153   14.8959 C   0  0  2  0  0  0  0  0  0  0  0  0
  -20.4228  -24.0875   19.4951 C   0  0  0  0  0  0  0  0  0  0  0  0
  -28.3187  -15.3378   21.7222 N   0  0  0  0  0  0  0  0  0  0  0  0
  -29.5989  -15.6472   21.4546 N   0  0  0  0  0  0  0  0  0  0  0  0
  -22.3829  -27.0882   19.6323 N   0  0  0  0  0  0  0  0  0  0  0  0
  -29.8854  -19.0456   23.1729 N   0  0  0  0  0  0  0  0  0  0  0  0
  -31.4641  -15.0016   20.1452 N   0  0  0  0  0  0  0  0  0  0  0  0
  -28.2805  -12.0248   18.9625 N   0  0  0  0  0  0  0  0  0  0  0  0
  -29.3375  -20.6106   21.4957 N   0  0  0  0  0  0  0  0  0  0  0  0
  -21.4910  -29.0237   22.4938 N   0  0  0  0  0  0  0  0  0  0  0  0
  -21.0155  -25.1042   17.2548 N   0  0  0  0  0  0  0  0  0  0  0  0
  -22.4619  -25.3957   13.9547 N   0  3  0  0  0  0  0  0  0  0  0  0
  -30.1081  -25.8459   17.8066 N   0  3  1  0  0  0  0  0  0  0  0  0
  -30.4577  -12.6576   18.6190 O   0  0  0  0  0  0  0  0  0  0  0  0
  -22.8427  -27.1447   22.2394 O   0  0  0  0  0  0  0  0  0  0  0  0
  -20.1032  -27.0549   19.1445 O   0  0  0  0  0  0  0  0  0  0  0  0
  -23.1364  -24.5024   16.5360 O   0  0  0  0  0  0  0  0  0  0  0  0
  -30.5318  -21.2557   23.3770 O   0  0  0  0  0  0  0  0  0  0  0  0
  -23.0723  -11.8171   20.9291 O   0  0  0  0  0  0  0  0  0  0  0  0
  -28.5370  -26.8279   19.9679 O   0  0  0  0  0  0  0  0  0  1  0  0
  -22.9249   -6.3077   21.0997 F   0  0  0  0  0  0  0  0  0  0  0  0
  -31.9589  -21.4660   21.2262 F   0  0  0  0  0  0  0  0  0  0  0  0
  -24.2526  -10.3044   18.9388 F   0  0  0  0  0  0  0  0  0  0  0  0
  1  2  1  0  0  0  0
  1  5  2  0  0  0  0
  2  6  2  0  0  0  0
  3  8  2  0  0  0  0
  3 17  1  0  0  0  0
  4  9  1  0  0  0  0
  4 17  2  0  0  0  0
  5 19  1  0  0  0  0
  6 21  1  0  0  0  0
  7 10  2  0  0  0  0
  7 20  1  0  0  0  0
  8 26  1  0  0  0  0
  9 26  2  0  0  0  0
 10 27  1  0  0  0  0
 11 12  2  0  0  0  0
 11 28  1  0  0  0  0
 12 29  1  0  0  0  0
 13 22  1  0  0  0  0
 13 27  2  0  0  0  0
 14 23  1  0  0  0  0
 14 24  2  0  0  0  0
 15 23  2  0  0  0  0
 15 30  1  0  0  0  0
 16 29  2  0  0  0  0
 16 31  1  0  0  0  0
 17 32  1  0  0  0  0
 18 32  1  0  0  0  0
 18 33  2  0  0  0  0
 18 34  1  0  0  0  0
 19 21  2  0  0  0  0
 19 39  1  0  0  0  0
 20 22  2  0  0  0  0
 20 40  1  0  0  0  0
 21 48  1  0  0  0  0
 22 41  1  0  0  0  0
 23 58  1  0  0  0  0
 24 25  1  0  0  0  0
 24 51  1  0  0  0  0
 25 30  2  0  0  0  0
 25 70  1  0  0  0  0
 26 80  1  0  0  0  0
 27 81  1  0  0  0  0
 28 31  2  0  0  0  0
 28 80  1  0  0  0  0
 29 82  1  0  0  0  0
 30 83  1  0  0  0  0
 31 84  1  0  0  0  0
 32 64  2  0  0  0  0
 33 65  1  0  0  0  0
 33 68  1  0  0  0  0
 34 69  1  0  0  0  0
 34 75  2  0  0  0  0
 35 49  1  0  0  0  0
 35 71  1  0  0  0  0
 35 76  2  0  0  0  0
 36 61  1  0  0  0  0
 36 66  1  0  0  0  0
 36 77  2  0  0  0  0
 37 62  1  0  0  0  0
 37 72  1  0  0  0  0
 37 78  2  0  0  0  0
 38 67  1  0  0  0  0
 38 70  1  0  0  0  0
 38 79  2  0  0  0  0
 39 42  1  0  0  0  0
 40 49  1  0  0  0  0
 41 66  1  0  0  0  0
 42 44  1  0  0  0  0
 43 45  1  0  0  0  0
 43 46  1  0  0  0  0
 44 48  1  0  0  0  0
 45 50  1  0  0  0  0
 46 67  1  0  0  0  0
 47 50  1  0  0  0  0
 47 67  1  0  0  0  0
 48 71  1  0  0  0  0
 49 66  1  0  0  0  0
 50 65  1  0  0  0  0
 52 62  1  0  0  0  0
 53 63  1  0  0  0  0
 54 63  1  0  0  0  0
 55 63  1  0  0  0  0
 56 73  1  0  0  0  0
 57 74  1  0  0  0  0
 58 74  1  0  0  0  0
 59 60  1  0  0  0  0
 59 74  1  0  0  0  0
 60 81  1  0  0  0  0
 61 63  1  0  0  0  0
 61 72  1  0  0  0  0
 62 73  1  0  0  0  0
 64 65  1  0  0  0  0
M  CHG  2  73   1  74   1
M  ISO  4  38 100  60 101  70 100  81 101
M  END
> <Batch ID>
0008

> <Smiles>
CNC(C)C(=O)NC(C(=O)N1Cc2cc([101O:1][101CH2:1]CN(C)Cc3cc(C)c([100NH:0][100C:0](=O)N4CCCC(n5nc(-c6ccc(Oc7ccc(F)cc7F)cc6)c(C(N)=O)c5N)C4)c(F)c3)ccc2CC1C(=O)NC1CCCc2ccccc21)C(C)(C)C

> <Shape>
0.289

> <Color>
0.103

> <Negative vol penalty>
0.000

$$$$

  -OEChem-04042320353D

 83 92  0     1  0  0  0  0  0999 V2000
  -29.4196  -27.4746   12.6252 C   0  0  0  0  0  0  0  0  0  0  0  0
  -29.5837  -26.6400   13.7261 C   0  0  0  0  0  0  0  0  0  0  0  0
  -22.9969   -9.9112   19.9750 C   0  0  0  0  0  0  0  0  0  0  0  0
  -23.6276   -9.9721   22.3065 C   0  0  0  0  0  0  0  0  0  0  0  0
  -29.0524  -28.8068   12.8104 C   0  0  0  0  0  0  0  0  0  0  0  0
  -29.3818  -27.1375   15.0130 C   0  0  0  0  0  0  0  0  0  0  0  0
  -29.1843  -17.4919   21.3116 C   0  0  0  0  0  0  0  0  0  0  0  0
  -26.6559  -23.9978   17.9039 C   0  0  0  0  0  0  0  0  0  0  0  0
  -28.5473  -18.5147   20.6089 C   0  0  0  0  0  0  0  0  0  0  0  0
  -22.1879   -8.8023   20.2228 C   0  0  0  0  0  0  0  0  0  0  0  0
  -22.8185   -8.8632   22.5543 C   0  0  0  0  0  0  0  0  0  0  0  0
  -27.3155  -22.8936   18.4420 C   0  0  0  0  0  0  0  0  0  0  0  0
  -22.9865   -5.5128   22.1331 C   0  0  0  0  0  0  0  0  0  0  0  0
  -23.5131   -4.4895   22.9211 C   0  0  0  0  0  0  0  0  0  0  0  0
  -27.5272  -24.0534   20.5466 C   0  0  0  0  0  0  0  0  0  0  0  0
  -30.6367  -19.7196   20.4685 C   0  0  0  0  0  0  0  0  0  0  0  0
  -21.7292   -4.8028   24.5201 C   0  0  0  0  0  0  0  0  0  0  0  0
  -23.7168  -10.4961   21.0168 C   0  0  0  0  0  0  0  0  0  0  0  0
  -24.1809  -12.9973   20.8268 C   0  0  0  0  0  0  0  0  0  0  0  0
  -28.8364  -29.3183   14.0997 C   0  0  0  0  0  0  0  0  0  0  0  0
  -26.4363  -25.1441   18.6811 C   0  0  0  0  0  0  0  0  0  0  0  0
  -29.0126  -28.4781   15.2157 C   0  0  0  0  0  0  0  0  0  0  0  0
  -30.5475  -17.5830   21.5929 C   0  0  0  0  0  0  0  0  0  0  0  0
  -26.8623  -25.1698   20.0167 C   0  0  0  0  0  0  0  0  0  0  0  0
  -29.2735  -19.6285   20.1873 C   0  0  0  0  0  0  0  0  0  0  0  0
  -22.0987   -8.2783   21.5124 C   0  0  0  0  0  0  0  0  0  0  0  0
  -27.7538  -22.9224   19.7626 C   0  0  0  0  0  0  0  0  0  0  0  0
  -21.8312   -6.1812   22.5385 C   0  0  0  0  0  0  0  0  0  0  0  0
  -22.8845   -4.1345   24.1146 C   0  0  0  0  0  0  0  0  0  0  0  0
  -31.2737  -18.6968   21.1713 C   0  0  0  0  0  0  0  0  0  0  0  0
  -21.2026   -5.8262   23.7320 C   0  0  0  0  0  0  0  0  0  0  0  0
  -24.5532  -11.6412   20.7614 C   0  0  0  0  0  0  0  0  0  0  0  0
  -25.3250  -13.6836   20.5003 C   0  0  0  0  0  0  0  0  0  0  0  0
  -22.9142  -13.5842   21.1537 C   0  0  0  0  0  0  0  0  0  0  0  0
  -27.3428  -28.1853   18.4988 C   0  0  0  0  0  0  0  0  0  0  0  0
  -25.3361  -28.5289   21.0242 C   0  0  0  0  0  0  0  0  0  0  0  0
  -23.7433  -27.0877   23.6761 C   0  0  0  0  0  0  0  0  0  0  0  0
  -30.7727  -14.4961   20.8962 C   0  0  0  0  0  0  0  0  0  0  0  0
  -28.4867  -30.7774   14.2527 C   0  0  0  0  0  0  0  0  0  0  0  0
  -25.6996  -26.3166   18.0938 C   0  0  0  0  0  0  0  0  0  0  0  0
  -26.6331  -26.3685   20.8993 C   0  0  0  0  0  0  0  0  0  0  0  0
  -27.9266  -31.1286   15.6286 C   0  0  0  0  0  0  0  0  0  0  0  0
  -31.1679  -15.2542   24.4202 C   0  0  0  0  0  0  0  0  0  0  0  0
  -29.7148  -12.0858   18.5939 C   0  0  0  0  0  0  0  0  0  0  0  0
  -31.1676  -16.6767   23.8750 C   0  0  0  0  0  0  0  0  0  0  0  0
  -28.7805  -30.5044   16.7277 C   0  0  0  0  0  0  0  0  0  0  0  0
  -28.2517  -11.8424   18.9585 C   0  0  0  0  0  0  0  0  0  0  0  0
  -30.5633  -12.2664   19.8464 C   0  0  0  0  0  0  0  0  0  0  0  0
  -30.3234  -14.5027   23.4029 C   0  0  0  0  0  0  0  0  0  0  0  0
  -28.6263  -13.1580   21.1059 C   0  0  0  0  0  0  0  0  0  0  0  0
  -31.2341  -16.4728   22.3556 C   0  0  1  0  0  0  0  0  0  0  0  0
  -28.7784  -28.9743   16.6261 C   0  0  1  0  0  0  0  0  0  0  0  0
  -25.9855  -27.6269   18.8210 C   0  0  1  0  0  0  0  0  0  0  0  0
  -27.7230  -12.9612   19.8712 C   0  0  2  0  0  0  0  0  0  0  0  0
  -22.2004  -27.6304   25.5794 C   0  0  0  0  0  0  0  0  0  0  0  0
  -27.6509  -29.8308   22.5264 C   0  0  0  0  0  0  0  0  0  0  0  0
  -26.3764  -29.4808   24.6527 C   0  0  0  0  0  0  0  0  0  0  0  0
  -25.4346  -30.9397   22.8618 C   0  0  0  0  0  0  0  0  0  0  0  0
  -21.6718  -25.2230   22.6809 C   0  0  0  0  0  0  0  0  0  0  0  0
  -28.5923  -20.7212   19.4349 C   0  0  0  0  0  0  0  0  0  1  0  0
  -25.4792  -28.4345   22.5240 C   0  0  1  0  0  0  0  0  0  0  0  0
  -22.2991  -27.1512   24.1395 C   0  0  2  0  0  0  0  0  0  0  0  0
  -26.2415  -29.6494   23.1243 C   0  0  0  0  0  0  0  0  0  0  0  0
  -25.8336  -11.4739   20.4199 N   0  0  0  0  0  0  0  0  0  0  0  0
  -26.2758  -12.7338   20.2678 N   0  0  0  0  0  0  0  0  0  0  0  0
  -25.9138  -27.4925   20.2773 N   0  0  0  0  0  0  0  0  0  0  0  0
  -30.0304  -13.3236   20.7065 N   0  0  0  0  0  0  0  0  0  0  0  0
  -30.6407  -15.1464   22.1266 N   0  0  0  0  0  0  0  0  0  0  0  0
  -25.6003  -15.0007   20.3921 N   0  0  0  0  0  0  0  0  0  0  0  0
  -21.8443  -12.7340   21.4645 N   0  0  0  0  0  0  0  0  0  0  0  0
  -27.5441  -28.4344   17.1546 N   0  0  0  0  0  0  0  0  0  0  0  0
  -24.1312  -28.2546   23.0522 N   0  0  0  0  0  0  0  0  0  0  0  0
  -21.6661  -25.8051   24.0477 N   0  3  0  0  0  0  0  0  0  0  0  0
  -22.7322  -14.8253   21.1536 O   0  0  0  0  0  0  0  0  0  0  0  0
  -28.1472  -28.3774   19.4031 O   0  0  0  0  0  0  0  0  0  0  0  0
  -24.7277  -29.4834   20.5337 O   0  0  0  0  0  0  0  0  0  0  0  0
  -24.4571  -26.1031   23.8535 O   0  0  0  0  0  0  0  0  0  0  0  0
  -31.5320  -14.9295   20.0201 O   0  0  0  0  0  0  0  0  0  0  0  0
  -21.3092   -7.1964   21.7547 O   0  0  0  0  0  0  0  0  0  0  0  0
  -28.4029  -21.8389   20.2938 O   0  0  0  0  0  0  0  0  0  1  0  0
  -23.3895   -3.1507   24.8705 F   0  0  0  0  0  0  0  0  0  0  0  0
  -32.5836  -18.7940   21.4382 F   0  0  0  0  0  0  0  0  0  0  0  0
  -20.0918   -6.4638   24.1262 F   0  0  0  0  0  0  0  0  0  0  0  0
  1  2  1  0  0  0  0
  1  5  2  0  0  0  0
  2  6  2  0  0  0  0
  3 10  2  0  0  0  0
  3 18  1  0  0  0  0
  4 11  1  0  0  0  0
  4 18  2  0  0  0  0
  5 20  1  0  0  0  0
  6 22  1  0  0  0  0
  7  9  2  0  0  0  0
  7 23  1  0  0  0  0
  8 12  2  0  0  0  0
  8 21  1  0  0  0  0
  9 25  1  0  0  0  0
 10 26  1  0  0  0  0
 11 26  2  0  0  0  0
 12 27  1  0  0  0  0
 13 14  2  0  0  0  0
 13 28  1  0  0  0  0
 14 29  1  0  0  0  0
 15 24  1  0  0  0  0
 15 27  2  0  0  0  0
 16 25  2  0  0  0  0
 16 30  1  0  0  0  0
 17 29  2  0  0  0  0
 17 31  1  0  0  0  0
 18 32  1  0  0  0  0
 19 32  1  0  0  0  0
 19 33  2  0  0  0  0
 19 34  1  0  0  0  0
 20 22  2  0  0  0  0
 20 39  1  0  0  0  0
 21 24  2  0  0  0  0
 21 40  1  0  0  0  0
 22 52  1  0  0  0  0
 23 30  2  0  0  0  0
 23 51  1  0  0  0  0
 24 41  1  0  0  0  0
 25 60  1  0  0  0  0
 26 79  1  0  0  0  0
 27 80  1  0  0  0  0
 28 31  2  0  0  0  0
 28 79  1  0  0  0  0
 29 81  1  0  0  0  0
 30 82  1  0  0  0  0
 31 83  1  0  0  0  0
 32 64  2  0  0  0  0
 33 65  1  0  0  0  0
 33 69  1  0  0  0  0
 34 70  1  0  0  0  0
 34 74  2  0  0  0  0
 35 53  1  0  0  0  0
 35 71  1  0  0  0  0
 35 75  2  0  0  0  0
 36 61  1  0  0  0  0
 36 66  1  0  0  0  0
 36 76  2  0  0  0  0
 37 62  1  0  0  0  0
 37 72  1  0  0  0  0
 37 77  2  0  0  0  0
 38 67  1  0  0  0  0
 38 68  1  0  0  0  0
 38 78  2  0  0  0  0
 39 42  1  0  0  0  0
 40 53  1  0  0  0  0
 41 66  1  0  0  0  0
 42 46  1  0  0  0  0
 43 45  1  0  0  0  0
 43 49  1  0  0  0  0
 44 47  1  0  0  0  0
 44 48  1  0  0  0  0
 45 51  1  0  0  0  0
 46 52  1  0  0  0  0
 47 54  1  0  0  0  0
 48 67  1  0  0  0  0
 49 68  1  0  0  0  0
 50 54  1  0  0  0  0
 50 67  1  0  0  0  0
 51 68  1  0  0  0  0
 52 71  1  0  0  0  0
 53 66  1  0  0  0  0
 54 65  1  0  0  0  0
 55 62  1  0  0  0  0
 56 63  1  0  0  0  0
 57 63  1  0  0  0  0
 58 63  1  0  0  0  0
 59 73  1  0  0  0  0
 60 80  1  0  0  0  0
 61 63  1  0  0  0  0
 61 72  1  0  0  0  0
 62 73  1  0  0  0  0
 64 65  1  0  0  0  0
M  CHG  1  73   1
M  ISO  4  38 100  60 101  68 100  80 101
M  END
> <Batch ID>
0008

> <Smiles>
CNC(C)C(=O)NC(C(=O)N1Cc2cc([101O:1][101CH2:1]c3ccc(C4CCC[100N:0]4[100C:0](=O)N4CCCC(n5nc(-c6ccc(Oc7ccc(F)cc7F)cc6)c(C(N)=O)c5N)C4)c(F)c3)ccc2CC1C(=O)NC1CCCc2ccccc21)C(C)(C)C

> <Shape>
0.303

> <Color>
0.206

> <Negative vol penalty>
0.000

$$$$

  -OEChem-04042320353D

 76 84  0     1  0  0  0  0  0999 V2000
  -21.6405  -11.9886   19.7844 C   0  0  0  0  0  0  0  0  0  0  0  0
  -21.5304  -13.2428   20.3762 C   0  0  0  0  0  0  0  0  0  0  0  0
  -25.0511  -27.4382   19.0873 C   0  0  0  0  0  0  0  0  0  0  0  0
  -25.3585  -25.4128   20.3680 C   0  0  0  0  0  0  0  0  0  0  0  0
  -22.8873  -11.3723   19.6863 C   0  0  0  0  0  0  0  0  0  0  0  0
  -22.6671  -13.8810   20.8713 C   0  0  0  0  0  0  0  0  0  0  0  0
  -22.8626  -18.7751   19.5849 C   0  0  0  0  0  0  0  0  0  0  0  0
  -26.4095  -27.7268   19.2175 C   0  0  0  0  0  0  0  0  0  0  0  0
  -26.7170  -25.7013   20.4982 C   0  0  0  0  0  0  0  0  0  0  0  0
  -22.0611  -19.6564   20.3093 C   0  0  0  0  0  0  0  0  0  0  0  0
  -29.7295  -29.1793   19.5196 C   0  0  0  0  0  0  0  0  0  0  0  0
  -30.0876  -30.4858   19.8521 C   0  0  0  0  0  0  0  0  0  0  0  0
  -23.9757  -20.3069   21.6248 C   0  0  0  0  0  0  0  0  0  0  0  0
  -28.8309  -30.3070   21.9079 C   0  0  0  0  0  0  0  0  0  0  0  0
  -24.5256  -26.2812   19.6625 C   0  0  0  0  0  0  0  0  0  0  0  0
  -22.5048  -25.2409   18.5041 C   0  0  0  0  0  0  0  0  0  0  0  0
  -24.0412  -12.0075   20.1718 C   0  0  0  0  0  0  0  0  0  0  0  0
  -24.2267  -18.6449   19.8828 C   0  0  0  0  0  0  0  0  0  0  0  0
  -23.9303  -13.2721   20.7808 C   0  0  0  0  0  0  0  0  0  0  0  0
  -24.7928  -19.4251   20.9010 C   0  0  0  0  0  0  0  0  0  0  0  0
  -27.2425  -26.8583   19.9230 C   0  0  0  0  0  0  0  0  0  0  0  0
  -22.6169  -20.4203   21.3314 C   0  0  0  0  0  0  0  0  0  0  0  0
  -28.9221  -28.4367   20.3812 C   0  0  0  0  0  0  0  0  0  0  0  0
  -29.6383  -31.0496   21.0462 C   0  0  0  0  0  0  0  0  0  0  0  0
  -28.4729  -29.0005   21.5753 C   0  0  0  0  0  0  0  0  0  0  0  0
  -23.1223  -25.9828   19.5288 C   0  0  0  0  0  0  0  0  0  0  0  0
  -21.1713  -25.2453   18.8328 C   0  0  0  0  0  0  0  0  0  0  0  0
  -23.0849  -24.6046   17.3577 C   0  0  0  0  0  0  0  0  0  0  0  0
  -26.0872  -16.2704   20.8846 C   0  0  0  0  0  0  0  0  0  0  0  0
  -28.4521  -18.4354   20.3925 C   0  0  0  0  0  0  0  0  0  0  0  0
  -29.3752  -21.7116   20.1448 C   0  0  0  0  0  0  0  0  0  0  0  0
  -20.7173  -24.2950   23.7982 C   0  0  0  0  0  0  0  0  0  0  0  0
  -25.3602  -11.2813   20.0858 C   0  0  0  0  0  0  0  0  0  0  0  0
  -25.0833  -17.7095   19.0743 C   0  0  0  0  0  0  0  0  0  0  0  0
  -26.2562  -19.3374   21.2466 C   0  0  0  0  0  0  0  0  0  0  0  0
  -26.5697  -12.1881   20.2979 C   0  0  0  0  0  0  0  0  0  0  0  0
  -20.6311  -27.7004   22.7197 C   0  0  0  0  0  0  0  0  0  0  0  0
  -18.5896  -21.3950   24.2592 C   0  0  0  0  0  0  0  0  0  0  0  0
  -26.3553  -13.0893   21.5098 C   0  0  0  0  0  0  0  0  0  0  0  0
  -19.8634  -27.6739   21.4028 C   0  0  0  0  0  0  0  0  0  0  0  0
  -19.9339  -20.6891   24.1505 C   0  0  0  0  0  0  0  0  0  0  0  0
  -20.0668  -26.6740   23.6898 C   0  0  0  0  0  0  0  0  0  0  0  0
  -18.8071  -22.6529   23.4326 C   0  0  0  0  0  0  0  0  0  0  0  0
  -19.3998  -25.1896   21.8089 C   0  0  0  0  0  0  0  0  0  0  0  0
  -25.1437  -14.0072   21.3074 C   0  0  1  0  0  0  0  0  0  0  0  0
  -26.3524  -17.2802   19.8041 C   0  0  1  0  0  0  0  0  0  0  0  0
  -19.8088  -26.2694   20.7806 C   0  0  2  0  0  0  0  0  0  0  0  0
  -20.9407  -21.8419   24.1937 C   0  0  1  0  0  0  0  0  0  0  0  0
  -31.3839  -23.1697   19.7754 C   0  0  0  0  0  0  0  0  0  0  0  0
  -29.3535  -17.9162   23.2609 C   0  0  0  0  0  0  0  0  0  0  0  0
  -30.7025  -20.0220   23.1443 C   0  0  0  0  0  0  0  0  0  0  0  0
  -31.2152  -18.1277   21.6045 C   0  0  0  0  0  0  0  0  0  0  0  0
  -28.2241  -22.8712   17.6772 C   0  0  0  0  0  0  0  0  0  0  0  0
  -22.1984  -21.5293   23.3931 C   0  0  0  0  0  0  0  0  0  1  0  0
  -29.1222  -19.4961   21.2320 C   0  0  1  0  0  0  0  0  0  0  0  0
  -30.2192  -22.4455   19.1184 C   0  0  2  0  0  0  0  0  0  0  0  0
  -30.0703  -18.8910   22.3054 C   0  0  0  0  0  0  0  0  0  0  0  0
  -22.2524  -26.4265   20.4402 N   0  0  0  0  0  0  0  0  0  0  0  0
  -21.0747  -25.9620   19.9892 N   0  0  0  0  0  0  0  0  0  0  0  0
  -27.0509  -18.4037   20.4317 N   0  0  0  0  0  0  0  0  0  0  0  0
  -20.0561  -25.3278   23.1170 N   0  0  0  0  0  0  0  0  0  0  0  0
  -20.2096  -23.0005   23.6666 N   0  0  0  0  0  0  0  0  0  0  0  0
  -20.0835  -24.7061   18.2425 N   0  0  0  0  0  0  0  0  0  0  0  0
  -24.4708  -24.6981   17.1714 N   0  0  0  0  0  0  0  0  0  0  0  0
  -25.4856  -15.1104   20.4353 N   0  0  0  0  0  0  0  0  0  0  0  0
  -29.7797  -20.4022   20.2965 N   0  0  0  0  0  0  0  0  0  0  0  0
  -29.3925  -23.4489   18.3900 N   0  3  0  0  0  0  0  0  0  0  0  0
  -22.3925  -23.9857   16.5144 O   0  0  0  0  0  0  0  0  0  0  0  0
  -26.4062  -16.5242   22.0403 O   0  0  0  0  0  0  0  0  0  0  0  0
  -29.1460  -17.6680   19.7208 O   0  0  0  0  0  0  0  0  0  0  0  0
  -28.4520  -22.2475   20.7539 O   0  0  0  0  0  0  0  0  0  0  0  0
  -21.7114  -24.5205   24.5011 O   0  0  0  0  0  0  0  0  0  0  0  0
  -28.5682  -27.1395   20.0501 O   0  0  0  0  0  0  0  0  0  0  0  0
  -21.8299  -21.2883   22.0466 O   0  0  0  0  0  0  0  0  0  1  0  0
  -29.9835  -32.3037   21.3661 F   0  0  0  0  0  0  0  0  0  0  0  0
  -27.6979  -28.2916   22.4076 F   0  0  0  0  0  0  0  0  0  0  0  0
  1  2  1  0  0  0  0
  1  5  2  0  0  0  0
  2  6  2  0  0  0  0
  3  8  2  0  0  0  0
  3 15  1  0  0  0  0
  4  9  1  0  0  0  0
  4 15  2  0  0  0  0
  5 17  1  0  0  0  0
  6 19  1  0  0  0  0
  7 10  2  0  0  0  0
  7 18  1  0  0  0  0
  8 21  1  0  0  0  0
  9 21  2  0  0  0  0
 10 22  1  0  0  0  0
 11 12  2  0  0  0  0
 11 23  1  0  0  0  0
 12 24  1  0  0  0  0
 13 20  1  0  0  0  0
 13 22  2  0  0  0  0
 14 24  2  0  0  0  0
 14 25  1  0  0  0  0
 15 26  1  0  0  0  0
 16 26  1  0  0  0  0
 16 27  2  0  0  0  0
 16 28  1  0  0  0  0
 17 19  2  0  0  0  0
 17 33  1  0  0  0  0
 18 20  2  0  0  0  0
 18 34  1  0  0  0  0
 19 45  1  0  0  0  0
 20 35  1  0  0  0  0
 21 73  1  0  0  0  0
 22 74  1  0  0  0  0
 23 25  2  0  0  0  0
 23 73  1  0  0  0  0
 24 75  1  0  0  0  0
 25 76  1  0  0  0  0
 26 58  2  0  0  0  0
 27 59  1  0  0  0  0
 27 63  1  0  0  0  0
 28 64  1  0  0  0  0
 28 68  2  0  0  0  0
 29 46  1  0  0  0  0
 29 65  1  0  0  0  0
 29 69  2  0  0  0  0
 30 55  1  0  0  0  0
 30 60  1  0  0  0  0
 30 70  2  0  0  0  0
 31 56  1  0  0  0  0
 31 66  1  0  0  0  0
 31 71  2  0  0  0  0
 32 61  1  0  0  0  0
 32 62  1  0  0  0  0
 32 72  2  0  0  0  0
 33 36  1  0  0  0  0
 34 46  1  0  0  0  0
 35 60  1  0  0  0  0
 36 39  1  0  0  0  0
 37 40  1  0  0  0  0
 37 42  1  0  0  0  0
 38 41  1  0  0  0  0
 38 43  1  0  0  0  0
 39 45  1  0  0  0  0
 40 47  1  0  0  0  0
 41 48  1  0  0  0  0
 42 61  1  0  0  0  0
 43 62  1  0  0  0  0
 44 47  1  0  0  0  0
 44 61  1  0  0  0  0
 45 65  1  0  0  0  0
 46 60  1  0  0  0  0
 47 59  1  0  0  0  0
 48 54  1  0  0  0  0
 48 62  1  0  0  0  0
 49 56  1  0  0  0  0
 50 57  1  0  0  0  0
 51 57  1  0  0  0  0
 52 57  1  0  0  0  0
 53 67  1  0  0  0  0
 54 74  1  0  0  0  0
 55 57  1  0  0  0  0
 55 66  1  0  0  0  0
 56 67  1  0  0  0  0
 58 59  1  0  0  0  0
M  CHG  1  67   1
M  ISO  4  32 100  54 101  62 100  74 101
M  END
> <Batch ID>
0008

> <Smiles>
CNC(C)C(=O)NC(C(=O)N1Cc2cc([101O:1][101CH2:1]C3CCC[100N:0]3[100C:0](=O)N3CCCC(n4nc(-c5ccc(Oc6ccc(F)cc6F)cc5)c(C(N)=O)c4N)C3)ccc2CC1C(=O)NC1CCCc2ccccc21)C(C)(C)C

> <Shape>
0.192

> <Color>
0.066

> <Negative vol penalty>
0.000

$$$$

  -OEChem-04042320353D

 74 81  0     1  0  0  0  0  0999 V2000
  -17.2958  -29.8755   23.2741 C   0  0  0  0  0  0  0  0  0  0  0  0
  -18.4645  -30.5301   22.8987 C   0  0  0  0  0  0  0  0  0  0  0  0
  -27.9912  -17.5152   20.9825 C   0  0  0  0  0  0  0  0  0  0  0  0
  -30.2200  -17.9793   21.7911 C   0  0  0  0  0  0  0  0  0  0  0  0
  -17.2883  -28.4880   23.4106 C   0  0  0  0  0  0  0  0  0  0  0  0
  -19.6269  -29.7975   22.6607 C   0  0  0  0  0  0  0  0  0  0  0  0
  -25.4972  -29.8195   18.5550 C   0  0  0  0  0  0  0  0  0  0  0  0
  -28.2336  -16.1466   21.0995 C   0  0  0  0  0  0  0  0  0  0  0  0
  -30.4625  -16.6107   21.9081 C   0  0  0  0  0  0  0  0  0  0  0  0
  -26.8853  -29.7436   18.6602 C   0  0  0  0  0  0  0  0  0  0  0  0
  -29.8507  -13.7458   19.3543 C   0  0  0  0  0  0  0  0  0  0  0  0
  -29.4592  -12.9262   18.2958 C   0  0  0  0  0  0  0  0  0  0  0  0
  -26.7338  -27.3436   18.8499 C   0  0  0  0  0  0  0  0  0  0  0  0
  -28.0001  -11.7027   19.7829 C   0  0  0  0  0  0  0  0  0  0  0  0
  -28.9844  -18.4316   21.3282 C   0  0  0  0  0  0  0  0  0  0  0  0
  -28.2005  -20.7016   22.1886 C   0  0  0  0  0  0  0  0  0  0  0  0
  -18.4487  -27.7371   23.1647 C   0  0  0  0  0  0  0  0  0  0  0  0
  -24.7148  -28.6569   18.6076 C   0  0  0  0  0  0  0  0  0  0  0  0
  -19.6353  -28.3988   22.7953 C   0  0  0  0  0  0  0  0  0  0  0  0
  -25.3361  -27.4071   18.7427 C   0  0  0  0  0  0  0  0  0  0  0  0
  -29.4693  -15.6943   21.5623 C   0  0  0  0  0  0  0  0  0  0  0  0
  -27.5037  -28.5058   18.8105 C   0  0  0  0  0  0  0  0  0  0  0  0
  -29.3170  -13.5439   20.6272 C   0  0  0  0  0  0  0  0  0  0  0  0
  -28.5338  -11.9047   18.5101 C   0  0  0  0  0  0  0  0  0  0  0  0
  -28.3917  -12.5223   20.8414 C   0  0  0  0  0  0  0  0  0  0  0  0
  -28.7347  -19.8455   21.2070 C   0  0  0  0  0  0  0  0  0  0  0  0
  -28.1636  -21.9349   21.5852 C   0  0  0  0  0  0  0  0  0  0  0  0
  -27.7758  -20.4083   23.5262 C   0  0  0  0  0  0  0  0  0  0  0  0
  -22.4491  -27.5638   20.5506 C   0  0  0  0  0  0  0  0  0  0  0  0
  -22.2394  -25.1987   18.3405 C   0  0  0  0  0  0  0  0  0  0  0  0
  -23.7483  -23.4180   15.8507 C   0  0  0  0  0  0  0  0  0  0  0  0
  -30.5696  -25.8518   18.6160 C   0  0  0  0  0  0  0  0  0  0  0  0
  -18.4043  -26.2438   23.3711 C   0  0  0  0  0  0  0  0  0  0  0  0
  -23.2205  -28.7533   18.4659 C   0  0  0  0  0  0  0  0  0  0  0  0
  -24.5428  -26.1275   18.7843 C   0  0  0  0  0  0  0  0  0  0  0  0
  -19.5804  -25.5060   22.7364 C   0  0  0  0  0  0  0  0  0  0  0  0
  -28.8618  -23.2611   16.7535 C   0  0  0  0  0  0  0  0  0  0  0  0
  -20.8929  -26.2099   23.0660 C   0  0  0  0  0  0  0  0  0  0  0  0
  -28.6327  -22.2073   17.8385 C   0  0  0  0  0  0  0  0  0  0  0  0
  -30.2120  -23.9501   16.9284 C   0  0  0  0  0  0  0  0  0  0  0  0
  -30.1909  -23.5164   19.3543 C   0  0  0  0  0  0  0  0  0  0  0  0
  -20.9099  -27.6366   22.5042 C   0  0  1  0  0  0  0  0  0  0  0  0
  -22.4862  -27.5497   19.0486 C   0  0  1  0  0  0  0  0  0  0  0  0
  -28.8328  -22.7995   19.2461 C   0  0  2  0  0  0  0  0  0  0  0  0
  -23.3385  -21.5228   14.2577 C   0  0  0  0  0  0  0  0  0  0  0  0
  -22.6046  -23.2055   20.6217 C   0  0  0  0  0  0  0  0  0  0  0  0
  -23.1354  -21.4539   18.9134 C   0  0  0  0  0  0  0  0  0  0  0  0
  -20.8921  -22.5448   18.9231 C   0  0  0  0  0  0  0  0  0  0  0  0
  -24.1353  -25.1636   13.4922 C   0  0  0  0  0  0  0  0  0  0  0  0
  -30.9383  -28.1391   17.7277 C   0  0  0  0  0  0  0  0  0  0  0  0
  -22.9059  -23.8588   18.1420 C   0  0  1  0  0  0  0  0  0  0  0  0
  -23.2751  -23.0285   14.4618 C   0  0  2  0  0  0  0  0  0  0  0  0
  -29.6418  -28.9269   17.8255 C   0  0  2  0  0  0  0  0  0  1  0  0
  -22.3996  -22.7898   19.1512 C   0  0  0  0  0  0  0  0  0  0  0  0
  -29.0166  -20.4811   20.0666 N   0  0  0  0  0  0  0  0  0  0  0  0
  -28.6582  -21.7497   20.3277 N   0  0  0  0  0  0  0  0  0  0  0  0
  -23.0843  -26.2745   18.6482 N   0  0  0  0  0  0  0  0  0  0  0  0
  -30.3312  -24.5081   18.2828 N   0  0  0  0  0  0  0  0  0  0  0  0
  -27.7564  -23.1489   22.0129 N   0  0  0  0  0  0  0  0  0  0  0  0
  -27.8826  -19.0890   23.9870 N   0  0  0  0  0  0  0  0  0  0  0  0
  -21.1744  -27.6164   21.0815 N   0  0  0  0  0  0  0  0  0  0  0  0
  -22.6998  -23.5037   16.7421 N   0  0  0  0  0  0  0  0  0  0  0  0
  -30.6970  -26.7254   17.5430 N   0  0  0  0  0  0  0  0  0  0  0  0
  -24.1236  -23.6796   13.4240 N   0  3  0  0  0  0  0  0  0  0  0  0
  -27.3001  -21.2869   24.2847 O   0  0  0  0  0  0  0  0  0  0  0  0
  -23.4992  -27.5279   21.1813 O   0  0  0  0  0  0  0  0  0  0  0  0
  -21.0151  -25.2890   18.2197 O   0  0  0  0  0  0  0  0  0  0  0  0
  -24.9303  -23.6220   16.1188 O   0  0  0  0  0  0  0  0  0  0  0  0
  -30.6573  -26.2453   19.7842 O   0  0  0  0  0  0  0  0  0  0  0  0
  -29.7062  -14.3589   21.6769 O   0  0  0  0  0  0  0  0  0  0  0  0
  -28.8584  -28.4291   18.9140 O   0  0  0  0  0  0  0  0  0  1  0  0
  -28.1568  -11.1186   17.4931 F   0  0  0  0  0  0  0  0  0  0  0  0
  -27.8746  -12.3243   22.0618 F   0  0  0  0  0  0  0  0  0  0  0  0
  -28.9410  -28.7634   16.6716 F   0  0  0  0  0  0  0  0  0  0  0  0
  1  2  1  0  0  0  0
  1  5  2  0  0  0  0
  2  6  2  0  0  0  0
  3  8  2  0  0  0  0
  3 15  1  0  0  0  0
  4  9  1  0  0  0  0
  4 15  2  0  0  0  0
  5 17  1  0  0  0  0
  6 19  1  0  0  0  0
  7 10  2  0  0  0  0
  7 18  1  0  0  0  0
  8 21  1  0  0  0  0
  9 21  2  0  0  0  0
 10 22  1  0  0  0  0
 11 12  2  0  0  0  0
 11 23  1  0  0  0  0
 12 24  1  0  0  0  0
 13 20  1  0  0  0  0
 13 22  2  0  0  0  0
 14 24  2  0  0  0  0
 14 25  1  0  0  0  0
 15 26  1  0  0  0  0
 16 26  1  0  0  0  0
 16 27  2  0  0  0  0
 16 28  1  0  0  0  0
 17 19  2  0  0  0  0
 17 33  1  0  0  0  0
 18 20  2  0  0  0  0
 18 34  1  0  0  0  0
 19 42  1  0  0  0  0
 20 35  1  0  0  0  0
 21 70  1  0  0  0  0
 22 71  1  0  0  0  0
 23 25  2  0  0  0  0
 23 70  1  0  0  0  0
 24 72  1  0  0  0  0
 25 73  1  0  0  0  0
 26 55  2  0  0  0  0
 27 56  1  0  0  0  0
 27 59  1  0  0  0  0
 28 60  1  0  0  0  0
 28 65  2  0  0  0  0
 29 43  1  0  0  0  0
 29 61  1  0  0  0  0
 29 66  2  0  0  0  0
 30 51  1  0  0  0  0
 30 57  1  0  0  0  0
 30 67  2  0  0  0  0
 31 52  1  0  0  0  0
 31 62  1  0  0  0  0
 31 68  2  0  0  0  0
 32 58  1  0  0  0  0
 32 63  1  0  0  0  0
 32 69  2  0  0  0  0
 33 36  1  0  0  0  0
 34 43  1  0  0  0  0
 35 57  1  0  0  0  0
 36 38  1  0  0  0  0
 37 39  1  0  0  0  0
 37 40  1  0  0  0  0
 38 42  1  0  0  0  0
 39 44  1  0  0  0  0
 40 58  1  0  0  0  0
 41 44  1  0  0  0  0
 41 58  1  0  0  0  0
 42 61  1  0  0  0  0
 43 57  1  0  0  0  0
 44 56  1  0  0  0  0
 45 52  1  0  0  0  0
 46 54  1  0  0  0  0
 47 54  1  0  0  0  0
 48 54  1  0  0  0  0
 49 64  1  0  0  0  0
 50 53  1  0  0  0  0
 50 63  1  0  0  0  0
 51 54  1  0  0  0  0
 51 62  1  0  0  0  0
 52 64  1  0  0  0  0
 53 71  1  0  0  0  0
 53 74  1  0  0  0  0
 55 56  1  0  0  0  0
M  CHG  1  64   1
M  ISO  4  32 100  53 101  63 100  71 101
M  END
> <Batch ID>
0008

> <Smiles>
CNC(C)C(=O)NC(C(=O)N1Cc2cc([101O:1][101CH:1](F)C[100NH:0][100C:0](=O)N3CCCC(n4nc(-c5ccc(Oc6ccc(F)cc6F)cc5)c(C(N)=O)c4N)C3)ccc2CC1C(=O)NC1CCCc2ccccc21)C(C)(C)C

> <Shape>
0.244

> <Color>
0.070

> <Negative vol penalty>
0.000

$$$$

  -OEChem-04042320353D

 82 90  0     1  0  0  0  0  0999 V2000
  -40.0633  -23.6973   19.7985 C   0  0  0  0  0  0  0  0  0  0  0  0
  -38.7050  -23.4670   19.9920 C   0  0  0  0  0  0  0  0  0  0  0  0
  -23.0959   -9.8268   19.9552 C   0  0  0  0  0  0  0  0  0  0  0  0
  -23.8450   -9.8732   22.2517 C   0  0  0  0  0  0  0  0  0  0  0  0
  -40.5675  -24.9946   19.8790 C   0  0  0  0  0  0  0  0  0  0  0  0
  -37.8503  -24.5339   20.2672 C   0  0  0  0  0  0  0  0  0  0  0  0
  -33.5601  -24.3281   17.5845 C   0  0  0  0  0  0  0  0  0  0  0  0
  -22.3662   -8.6671   20.2166 C   0  0  0  0  0  0  0  0  0  0  0  0
  -23.1152   -8.7136   22.5131 C   0  0  0  0  0  0  0  0  0  0  0  0
  -32.5787  -23.4389   18.0203 C   0  0  0  0  0  0  0  0  0  0  0  0
  -19.8952   -7.8806   23.1114 C   0  0  0  0  0  0  0  0  0  0  0  0
  -19.1334   -7.8456   24.2793 C   0  0  0  0  0  0  0  0  0  0  0  0
  -31.4001  -25.2635   19.0697 C   0  0  0  0  0  0  0  0  0  0  0  0
  -31.0639  -17.7684   20.5461 C   0  0  0  0  0  0  0  0  0  0  0  0
  -29.5741  -19.3503   22.2955 C   0  0  0  0  0  0  0  0  0  0  0  0
  -20.3970   -5.9344   25.0462 C   0  0  0  0  0  0  0  0  0  0  0  0
  -23.8353  -10.4298   20.9727 C   0  0  0  0  0  0  0  0  0  0  0  0
  -24.1442  -12.9576   20.8218 C   0  0  0  0  0  0  0  0  0  0  0  0
  -39.7171  -26.0792   20.1457 C   0  0  0  0  0  0  0  0  0  0  0  0
  -33.4744  -25.6923   17.8979 C   0  0  0  0  0  0  0  0  0  0  0  0
  -38.3439  -25.8468   20.3526 C   0  0  0  0  0  0  0  0  0  0  0  0
  -32.3804  -26.1683   18.6345 C   0  0  0  0  0  0  0  0  0  0  0  0
  -30.1674  -17.1728   21.4333 C   0  0  0  0  0  0  0  0  0  0  0  0
  -22.3759   -8.1105   21.4956 C   0  0  0  0  0  0  0  0  0  0  0  0
  -31.5000  -23.9061   18.7654 C   0  0  0  0  0  0  0  0  0  0  0  0
  -20.9078   -6.9425   22.9108 C   0  0  0  0  0  0  0  0  0  0  0  0
  -30.4706  -19.9459   21.4083 C   0  0  0  0  0  0  0  0  0  0  0  0
  -19.3843   -6.8725   25.2467 C   0  0  0  0  0  0  0  0  0  0  0  0
  -31.2155  -19.1550   20.5336 C   0  0  0  0  0  0  0  0  0  0  0  0
  -29.4225  -17.9637   22.3080 C   0  0  0  0  0  0  0  0  0  0  0  0
  -21.1587   -5.9694   23.8782 C   0  0  0  0  0  0  0  0  0  0  0  0
  -24.5897  -11.6275   20.7031 C   0  0  0  0  0  0  0  0  0  0  0  0
  -25.2280  -13.7168   20.4538 C   0  0  0  0  0  0  0  0  0  0  0  0
  -22.8650  -13.4617   21.2283 C   0  0  0  0  0  0  0  0  0  0  0  0
  -35.2702  -27.7323   19.5462 C   0  0  0  0  0  0  0  0  0  0  0  0
  -33.1470  -29.9091   18.4167 C   0  0  0  0  0  0  0  0  0  0  0  0
  -30.0229  -30.5484   17.2009 C   0  0  0  0  0  0  0  0  0  0  0  0
  -30.6790  -14.8373   20.6395 C   0  0  0  0  0  0  0  0  0  0  0  0
  -40.3159  -27.4578   20.2699 C   0  0  0  0  0  0  0  0  0  0  0  0
  -34.5274  -26.6427   17.3975 C   0  0  0  0  0  0  0  0  0  0  0  0
  -32.2313  -27.6267   18.9801 C   0  0  0  0  0  0  0  0  0  0  0  0
  -39.2832  -28.5795   20.1945 C   0  0  0  0  0  0  0  0  0  0  0  0
  -29.6077  -12.3787   18.2975 C   0  0  0  0  0  0  0  0  0  0  0  0
  -38.0861  -28.2638   21.0858 C   0  0  0  0  0  0  0  0  0  0  0  0
  -28.1701  -12.0735   18.7243 C   0  0  0  0  0  0  0  0  0  0  0  0
  -30.5141  -12.6350   19.5002 C   0  0  0  0  0  0  0  0  0  0  0  0
  -28.5913  -13.3517   20.8635 C   0  0  0  0  0  0  0  0  0  0  0  0
  -37.3810  -26.9811   20.6285 C   0  0  1  0  0  0  0  0  0  0  0  0
  -34.6066  -27.9298   18.2127 C   0  0  1  0  0  0  0  0  0  0  0  0
  -27.6263  -13.1504   19.6836 C   0  0  2  0  0  0  0  0  0  0  0  0
  -28.5673  -32.4295   16.4010 C   0  0  0  0  0  0  0  0  0  0  0  0
  -32.7107  -30.7957   21.3034 C   0  0  0  0  0  0  0  0  0  0  0  0
  -30.6228  -31.9585   20.5573 C   0  0  0  0  0  0  0  0  0  0  0  0
  -32.8349  -32.6641   19.6457 C   0  0  0  0  0  0  0  0  0  0  0  0
  -29.7537  -29.3494   14.5086 C   0  0  0  0  0  0  0  0  0  0  0  0
  -29.8739  -23.3603   20.4128 C   0  0  0  0  0  0  0  0  0  1  0  0
  -29.4565  -22.0750   21.1009 C   0  0  0  0  0  0  0  0  0  0  0  0
  -31.8300  -30.4678   18.8987 C   0  0  1  0  0  0  0  0  0  0  0  0
  -29.5542  -31.3453   15.9969 C   0  0  2  0  0  0  0  0  0  0  0  0
  -32.0031  -31.4437   20.0966 C   0  0  0  0  0  0  0  0  0  0  0  0
  -25.8577  -11.5431   20.2918 N   0  0  0  0  0  0  0  0  0  0  0  0
  -26.2181  -12.8299   20.1487 N   0  0  0  0  0  0  0  0  0  0  0  0
  -33.2901  -28.5155   18.4736 N   0  0  0  0  0  0  0  0  0  0  0  0
  -29.9374  -13.6695   20.3617 N   0  0  0  0  0  0  0  0  0  0  0  0
  -25.4211  -15.0499   20.3646 N   0  0  0  0  0  0  0  0  0  0  0  0
  -21.8637  -12.5436   21.5727 N   0  0  0  0  0  0  0  0  0  0  0  0
  -30.0156  -15.7640   21.4431 N   0  0  0  0  0  0  0  0  0  0  0  0
  -36.5599  -27.2428   19.4658 N   0  0  0  0  0  0  0  0  0  0  0  0
  -31.1872  -31.0622   17.7317 N   0  0  0  0  0  0  0  0  0  0  0  0
  -28.8893  -30.4489   15.0094 N   0  3  0  0  0  0  0  0  0  0  0  0
  -22.6122  -14.6897   21.2688 O   0  0  0  0  0  0  0  0  0  0  0  0
  -34.6580  -28.0053   20.5721 O   0  0  0  0  0  0  0  0  0  0  0  0
  -34.0142  -30.6802   17.9982 O   0  0  0  0  0  0  0  0  0  0  0  0
  -29.4149  -29.5703   17.6301 O   0  0  0  0  0  0  0  0  0  0  0  0
  -31.8079  -15.0150   20.1748 O   0  0  0  0  0  0  0  0  0  0  0  0
  -21.6638   -6.9791   21.7511 O   0  0  0  0  0  0  0  0  0  0  0  0
  -30.5410  -23.0402   19.1926 O   0  0  0  0  0  0  0  0  0  1  0  0
  -30.6174  -21.3080   21.3964 O   0  0  0  0  0  0  0  0  0  0  0  0
  -18.6537   -6.8400   26.3689 F   0  0  0  0  0  0  0  0  0  0  0  0
  -32.0780  -19.7218   19.6791 F   0  0  0  0  0  0  0  0  0  0  0  0
  -28.5584  -17.4016   23.1655 F   0  0  0  0  0  0  0  0  0  0  0  0
  -22.1310   -5.0663   23.6916 F   0  0  0  0  0  0  0  0  0  0  0  0
  1  2  1  0  0  0  0
  1  5  2  0  0  0  0
  2  6  2  0  0  0  0
  3  8  2  0  0  0  0
  3 17  1  0  0  0  0
  4  9  1  0  0  0  0
  4 17  2  0  0  0  0
  5 19  1  0  0  0  0
  6 21  1  0  0  0  0
  7 10  2  0  0  0  0
  7 20  1  0  0  0  0
  8 24  1  0  0  0  0
  9 24  2  0  0  0  0
 10 25  1  0  0  0  0
 11 12  2  0  0  0  0
 11 26  1  0  0  0  0
 12 28  1  0  0  0  0
 13 22  1  0  0  0  0
 13 25  2  0  0  0  0
 14 23  2  0  0  0  0
 14 29  1  0  0  0  0
 15 27  1  0  0  0  0
 15 30  2  0  0  0  0
 16 28  2  0  0  0  0
 16 31  1  0  0  0  0
 17 32  1  0  0  0  0
 18 32  1  0  0  0  0
 18 33  2  0  0  0  0
 18 34  1  0  0  0  0
 19 21  2  0  0  0  0
 19 39  1  0  0  0  0
 20 22  2  0  0  0  0
 20 40  1  0  0  0  0
 21 48  1  0  0  0  0
 22 41  1  0  0  0  0
 23 30  1  0  0  0  0
 23 67  1  0  0  0  0
 24 76  1  0  0  0  0
 25 77  1  0  0  0  0
 26 31  2  0  0  0  0
 26 76  1  0  0  0  0
 27 29  2  0  0  0  0
 27 78  1  0  0  0  0
 28 79  1  0  0  0  0
 29 80  1  0  0  0  0
 30 81  1  0  0  0  0
 31 82  1  0  0  0  0
 32 61  2  0  0  0  0
 33 62  1  0  0  0  0
 33 65  1  0  0  0  0
 34 66  1  0  0  0  0
 34 71  2  0  0  0  0
 35 49  1  0  0  0  0
 35 68  1  0  0  0  0
 35 72  2  0  0  0  0
 36 58  1  0  0  0  0
 36 63  1  0  0  0  0
 36 73  2  0  0  0  0
 37 59  1  0  0  0  0
 37 69  1  0  0  0  0
 37 74  2  0  0  0  0
 38 64  1  0  0  0  0
 38 67  1  0  0  0  0
 38 75  2  0  0  0  0
 39 42  1  0  0  0  0
 40 49  1  0  0  0  0
 41 63  1  0  0  0  0
 42 44  1  0  0  0  0
 43 45  1  0  0  0  0
 43 46  1  0  0  0  0
 44 48  1  0  0  0  0
 45 50  1  0  0  0  0
 46 64  1  0  0  0  0
 47 50  1  0  0  0  0
 47 64  1  0  0  0  0
 48 68  1  0  0  0  0
 49 63  1  0  0  0  0
 50 62  1  0  0  0  0
 51 59  1  0  0  0  0
 52 60  1  0  0  0  0
 53 60  1  0  0  0  0
 54 60  1  0  0  0  0
 55 70  1  0  0  0  0
 56 57  1  0  0  0  0
 56 77  1  0  0  0  0
 57 78  1  0  0  0  0
 58 60  1  0  0  0  0
 58 69  1  0  0  0  0
 59 70  1  0  0  0  0
 61 62  1  0  0  0  0
M  CHG  1  70   1
M  ISO  4  38 100  56 101  67 100  77 101
M  END
> <Batch ID>
0008

> <Smiles>
CNC(C)C(=O)NC(C(=O)N1Cc2cc([101O:1][101CH2:1]COc3cc(F)c([100NH:0][100C:0](=O)N4CCCC(n5nc(-c6ccc(Oc7ccc(F)cc7F)cc6)c(C(N)=O)c5N)C4)cc3F)ccc2CC1C(=O)NC1CCCc2ccccc21)C(C)(C)C

> <Shape>
0.216

> <Color>
0.197

> <Negative vol penalty>
0.000

$$$$

  -OEChem-04042320353D

 84 92  0     1  0  0  0  0  0999 V2000
  -18.8917  -16.8094   22.2674 C   0  0  0  0  0  0  0  0  0  0  0  0
  -20.0557  -17.0452   22.9919 C   0  0  0  0  0  0  0  0  0  0  0  0
  -23.2859   -9.8011   19.9140 C   0  0  0  0  0  0  0  0  0  0  0  0
  -23.7368   -9.9425   22.2834 C   0  0  0  0  0  0  0  0  0  0  0  0
  -17.9427  -15.9086   22.7489 C   0  0  0  0  0  0  0  0  0  0  0  0
  -20.2708  -16.3811   24.1991 C   0  0  0  0  0  0  0  0  0  0  0  0
  -24.9833  -14.5730   24.6087 C   0  0  0  0  0  0  0  0  0  0  0  0
  -32.8289  -12.9067   23.8461 C   0  0  0  0  0  0  0  0  0  0  0  0
  -22.5591   -8.6289   20.1223 C   0  0  0  0  0  0  0  0  0  0  0  0
  -23.0100   -8.7703   22.4916 C   0  0  0  0  0  0  0  0  0  0  0  0
  -25.9877  -15.4821   24.9381 C   0  0  0  0  0  0  0  0  0  0  0  0
  -20.8871   -5.4026   19.9854 C   0  0  0  0  0  0  0  0  0  0  0  0
  -33.6004  -13.1662   24.9788 C   0  0  0  0  0  0  0  0  0  0  0  0
  -21.1115   -4.3354   19.1158 C   0  0  0  0  0  0  0  0  0  0  0  0
  -25.8994  -14.7394   27.2315 C   0  0  0  0  0  0  0  0  0  0  0  0
  -23.4345   -4.2845   19.7777 C   0  0  0  0  0  0  0  0  0  0  0  0
  -23.8748  -10.4579   20.9946 C   0  0  0  0  0  0  0  0  0  0  0  0
  -24.1351  -12.9877   20.7949 C   0  0  0  0  0  0  0  0  0  0  0  0
  -18.1508  -15.2259   23.9578 C   0  0  0  0  0  0  0  0  0  0  0  0
  -24.4208  -13.7466   25.5921 C   0  0  0  0  0  0  0  0  0  0  0  0
  -19.3231  -15.4714   24.6979 C   0  0  0  0  0  0  0  0  0  0  0  0
  -24.8898  -13.8189   26.9115 C   0  0  0  0  0  0  0  0  0  0  0  0
  -31.6341  -13.9608   26.1360 C   0  0  0  0  0  0  0  0  0  0  0  0
  -31.4600  -13.1743   23.8583 C   0  0  0  0  0  0  0  0  0  0  0  0
  -22.4211   -8.1135   21.4111 C   0  0  0  0  0  0  0  0  0  0  0  0
  -26.4439  -15.5675   26.2502 C   0  0  0  0  0  0  0  0  0  0  0  0
  -21.9364   -5.9108   20.7512 C   0  0  0  0  0  0  0  0  0  0  0  0
  -22.3852   -3.7763   19.0119 C   0  0  0  0  0  0  0  0  0  0  0  0
  -33.0030  -13.6932   26.1238 C   0  0  0  0  0  0  0  0  0  0  0  0
  -23.2101   -5.3518   20.6473 C   0  0  0  0  0  0  0  0  0  0  0  0
  -30.8626  -13.7013   25.0033 C   0  0  0  0  0  0  0  0  0  0  0  0
  -24.6262  -11.6684   20.7800 C   0  0  0  0  0  0  0  0  0  0  0  0
  -25.2369  -13.7671   20.5396 C   0  0  0  0  0  0  0  0  0  0  0  0
  -30.7920  -16.0182   27.2837 C   0  0  0  0  0  0  0  0  0  0  0  0
  -22.8023  -13.4659   21.0196 C   0  0  0  0  0  0  0  0  0  0  0  0
  -29.6456  -16.7120   27.4235 C   0  0  0  0  0  0  0  0  0  0  0  0
  -21.5101  -13.3758   26.8142 C   0  0  0  0  0  0  0  0  0  0  0  0
  -22.9035  -10.8940   28.3702 C   0  0  0  0  0  0  0  0  0  0  0  0
  -25.7593   -9.4665   29.5758 C   0  0  0  0  0  0  0  0  0  0  0  0
  -31.0969  -12.9510   21.3754 C   0  0  0  0  0  0  0  0  0  0  0  0
  -17.0746  -14.2970   24.4614 C   0  0  0  0  0  0  0  0  0  0  0  0
  -23.3569  -12.7524   25.2152 C   0  0  0  0  0  0  0  0  0  0  0  0
  -24.3330  -12.9397   28.0003 C   0  0  0  0  0  0  0  0  0  0  0  0
  -17.5509  -13.3534   25.5628 C   0  0  0  0  0  0  0  0  0  0  0  0
  -29.4636  -13.6547   18.2909 C   0  0  0  0  0  0  0  0  0  0  0  0
  -18.3494  -14.1188   26.6131 C   0  0  0  0  0  0  0  0  0  0  0  0
  -27.9922  -13.3511   18.5823 C   0  0  0  0  0  0  0  0  0  0  0  0
  -30.3965  -12.6795   19.0067 C   0  0  0  0  0  0  0  0  0  0  0  0
  -28.7032  -12.2527   20.7445 C   0  0  0  0  0  0  0  0  0  0  0  0
  -19.6040  -14.7518   25.9992 C   0  0  1  0  0  0  0  0  0  0  0  0
  -22.4961  -12.3210   26.3986 C   0  0  1  0  0  0  0  0  0  0  0  0
  -27.7272  -13.2488   20.0972 C   0  0  2  0  0  0  0  0  0  0  0  0
  -29.6550  -18.2158   27.3215 C   0  0  0  0  0  0  0  0  0  0  0  0
  -26.5767   -7.4554   30.8347 C   0  0  0  0  0  0  0  0  0  0  0  0
  -21.8547  -12.0982   30.9702 C   0  0  0  0  0  0  0  0  0  0  0  0
  -23.4594  -10.6335   32.2144 C   0  0  0  0  0  0  0  0  0  0  0  0
  -21.6617   -9.6092   30.8209 C   0  0  0  0  0  0  0  0  0  0  0  0
  -27.4506   -8.5915   27.3102 C   0  0  0  0  0  0  0  0  0  0  0  0
  -30.9885  -14.5309   27.3741 C   0  0  0  0  0  0  0  0  0  0  0  0
  -28.2899  -16.1000   27.6518 C   0  0  0  0  0  0  0  0  0  1  0  0
  -23.6251  -10.7265   29.6856 C   0  0  1  0  0  0  0  0  0  0  0  0
  -26.3045   -8.0542   29.4635 C   0  0  2  0  0  0  0  0  0  0  0  0
  -22.6596  -10.7849   30.9029 C   0  0  0  0  0  0  0  0  0  0  0  0
  -25.9378  -11.6092   20.5344 N   0  0  0  0  0  0  0  0  0  0  0  0
  -26.2802  -12.9010   20.3926 N   0  0  0  0  0  0  0  0  0  0  0  0
  -23.2899  -11.9881   27.5832 N   0  0  0  0  0  0  0  0  0  0  0  0
  -30.0897  -12.6382   20.4382 N   0  0  0  0  0  0  0  0  0  0  0  0
  -25.4053  -15.1019   20.4286 N   0  0  0  0  0  0  0  0  0  0  0  0
  -21.7894  -12.5294   21.2675 N   0  0  0  0  0  0  0  0  0  0  0  0
  -30.6797  -12.9101   22.7054 N   0  0  0  0  0  0  0  0  0  0  0  0
  -20.6348  -13.7532   25.8137 N   0  0  0  0  0  0  0  0  0  0  0  0
  -24.3805   -9.4828   29.5813 N   0  0  0  0  0  0  0  0  0  0  0  0
  -27.5771   -8.0504   28.6880 N   0  3  0  0  0  0  0  0  0  0  0  0
  -22.5148  -14.6864   20.9849 O   0  0  0  0  0  0  0  0  0  0  0  0
  -21.5400  -13.8137   27.9583 O   0  0  0  0  0  0  0  0  0  0  0  0
  -22.0341  -10.0798   28.0494 O   0  0  0  0  0  0  0  0  0  0  0  0
  -26.4840  -10.4560   29.6548 O   0  0  0  0  0  0  0  0  0  0  0  0
  -32.2379  -13.2607   21.0228 O   0  0  0  0  0  0  0  0  0  0  0  0
  -21.7118   -6.9699   21.6147 O   0  0  0  0  0  0  0  0  0  0  0  0
  -27.4237  -16.4544   26.5746 O   0  0  0  0  0  0  0  0  0  1  0  0
  -22.6002   -2.7505   18.1779 F   0  0  0  0  0  0  0  0  0  0  0  0
  -33.7522  -13.9372   27.2079 F   0  0  0  0  0  0  0  0  0  0  0  0
  -24.2218   -5.8350   21.3813 F   0  0  0  0  0  0  0  0  0  0  0  0
  -29.5461  -13.9600   25.0162 F   0  0  0  0  0  0  0  0  0  0  0  0
  1  2  1  0  0  0  0
  1  5  2  0  0  0  0
  2  6  2  0  0  0  0
  3  9  2  0  0  0  0
  3 17  1  0  0  0  0
  4 10  1  0  0  0  0
  4 17  2  0  0  0  0
  5 19  1  0  0  0  0
  6 21  1  0  0  0  0
  7 11  2  0  0  0  0
  7 20  1  0  0  0  0
  8 13  1  0  0  0  0
  8 24  2  0  0  0  0
  9 25  1  0  0  0  0
 10 25  2  0  0  0  0
 11 26  1  0  0  0  0
 12 14  2  0  0  0  0
 12 27  1  0  0  0  0
 13 29  2  0  0  0  0
 14 28  1  0  0  0  0
 15 22  1  0  0  0  0
 15 26  2  0  0  0  0
 16 28  2  0  0  0  0
 16 30  1  0  0  0  0
 17 32  1  0  0  0  0
 18 32  1  0  0  0  0
 18 33  2  0  0  0  0
 18 35  1  0  0  0  0
 19 21  2  0  0  0  0
 19 41  1  0  0  0  0
 20 22  2  0  0  0  0
 20 42  1  0  0  0  0
 21 50  1  0  0  0  0
 22 43  1  0  0  0  0
 23 29  1  0  0  0  0
 23 31  2  0  0  0  0
 23 59  1  0  0  0  0
 24 31  1  0  0  0  0
 24 70  1  0  0  0  0
 25 79  1  0  0  0  0
 26 80  1  0  0  0  0
 27 30  2  0  0  0  0
 27 79  1  0  0  0  0
 28 81  1  0  0  0  0
 29 82  1  0  0  0  0
 30 83  1  0  0  0  0
 31 84  1  0  0  0  0
 32 64  2  0  0  0  0
 33 65  1  0  0  0  0
 33 68  1  0  0  0  0
 34 36  2  0  0  0  0
 34 59  1  0  0  0  0
 35 69  1  0  0  0  0
 35 74  2  0  0  0  0
 36 53  1  0  0  0  0
 36 60  1  0  0  0  0
 37 51  1  0  0  0  0
 37 71  1  0  0  0  0
 37 75  2  0  0  0  0
 38 61  1  0  0  0  0
 38 66  1  0  0  0  0
 38 76  2  0  0  0  0
 39 62  1  0  0  0  0
 39 72  1  0  0  0  0
 39 77  2  0  0  0  0
 40 67  1  0  0  0  0
 40 70  1  0  0  0  0
 40 78  2  0  0  0  0
 41 44  1  0  0  0  0
 42 51  1  0  0  0  0
 43 66  1  0  0  0  0
 44 46  1  0  0  0  0
 45 47  1  0  0  0  0
 45 48  1  0  0  0  0
 46 50  1  0  0  0  0
 47 52  1  0  0  0  0
 48 67  1  0  0  0  0
 49 52  1  0  0  0  0
 49 67  1  0  0  0  0
 50 71  1  0  0  0  0
 51 66  1  0  0  0  0
 52 65  1  0  0  0  0
 54 62  1  0  0  0  0
 55 63  1  0  0  0  0
 56 63  1  0  0  0  0
 57 63  1  0  0  0  0
 58 73  1  0  0  0  0
 60 80  1  0  0  0  0
 61 63  1  0  0  0  0
 61 72  1  0  0  0  0
 62 73  1  0  0  0  0
 64 65  1  0  0  0  0
M  CHG  1  73   1
M  ISO  4  40 100  60 101  70 100  80 101
M  END
> <Batch ID>
0008

> <Smiles>
CNC(C)C(=O)NC(C(=O)N1Cc2cc([101O:1][101CH2:1]C(C)=CCc3c(F)ccc([100NH:0][100C:0](=O)N4CCCC(n5nc(-c6ccc(Oc7ccc(F)cc7F)cc6)c(C(N)=O)c5N)C4)c3F)ccc2CC1C(=O)NC1CCCc2ccccc21)C(C)(C)C

> <Shape>
0.121

> <Color>
0.178

> <Negative vol penalty>
0.000

$$$$

  -OEChem-04042320353D

 82 90  0     1  0  0  0  0  0999 V2000
  -27.4880  -34.3810   24.5497 C   0  0  0  0  0  0  0  0  0  0  0  0
  -27.7621  -33.0947   24.0962 C   0  0  0  0  0  0  0  0  0  0  0  0
  -26.2844  -12.0694   21.2003 C   0  0  0  0  0  0  0  0  0  0  0  0
  -25.7512  -13.8423   19.6479 C   0  0  0  0  0  0  0  0  0  0  0  0
  -26.2145  -34.6958   25.0219 C   0  0  0  0  0  0  0  0  0  0  0  0
  -26.7631  -32.1221   24.1156 C   0  0  0  0  0  0  0  0  0  0  0  0
  -26.5866  -29.4325   19.8285 C   0  0  0  0  0  0  0  0  0  0  0  0
  -31.2367  -22.5581   20.8257 C   0  0  0  0  0  0  0  0  0  0  0  0
  -31.5161  -21.2197   21.1018 C   0  0  0  0  0  0  0  0  0  0  0  0
  -24.9244  -11.8621   21.4307 C   0  0  0  0  0  0  0  0  0  0  0  0
  -24.3912  -13.6349   19.8783 C   0  0  0  0  0  0  0  0  0  0  0  0
  -27.5455  -28.4339   19.6634 C   0  0  0  0  0  0  0  0  0  0  0  0
  -22.3392  -10.3343   19.8765 C   0  0  0  0  0  0  0  0  0  0  0  0
  -21.8771   -9.0183   19.8892 C   0  0  0  0  0  0  0  0  0  0  0  0
  -25.9263  -26.7765   20.3346 C   0  0  0  0  0  0  0  0  0  0  0  0
  -21.1205   -9.3059   22.1656 C   0  0  0  0  0  0  0  0  0  0  0  0
  -26.6978  -13.0595   20.3090 C   0  0  0  0  0  0  0  0  0  0  0  0
  -28.9029  -12.6574   19.0911 C   0  0  0  0  0  0  0  0  0  0  0  0
  -25.1966  -33.7292   25.0381 C   0  0  0  0  0  0  0  0  0  0  0  0
  -25.2913  -29.1113   20.2591 C   0  0  0  0  0  0  0  0  0  0  0  0
  -25.4751  -32.4239   24.5897 C   0  0  0  0  0  0  0  0  0  0  0  0
  -24.9521  -27.7726   20.5019 C   0  0  0  0  0  0  0  0  0  0  0  0
  -30.0332  -21.8969   18.8379 C   0  0  0  0  0  0  0  0  0  0  0  0
  -30.4952  -22.8967   19.6938 C   0  0  0  0  0  0  0  0  0  0  0  0
  -31.0541  -20.2199   20.2459 C   0  0  0  0  0  0  0  0  0  0  0  0
  -23.9778  -12.6449   20.7697 C   0  0  0  0  0  0  0  0  0  0  0  0
  -27.2162  -27.1060   19.9192 C   0  0  0  0  0  0  0  0  0  0  0  0
  -22.1920  -11.1361   21.0084 C   0  0  0  0  0  0  0  0  0  0  0  0
  -21.2677   -8.5041   21.0337 C   0  0  0  0  0  0  0  0  0  0  0  0
  -21.5827  -10.6219   22.1529 C   0  0  0  0  0  0  0  0  0  0  0  0
  -30.3126  -20.5585   19.1139 C   0  0  0  0  0  0  0  0  0  0  0  0
  -28.1025  -13.2745   20.0710 C   0  0  0  0  0  0  0  0  0  0  0  0
  -30.1519  -13.1976   19.2777 C   0  0  0  0  0  0  0  0  0  0  0  0
  -28.5491  -11.6831   18.1005 C   0  0  0  0  0  0  0  0  0  0  0  0
  -23.5207  -29.8545   22.7921 C   0  0  0  0  0  0  0  0  0  0  0  0
  -21.2161  -28.2554   21.1631 C   0  0  0  0  0  0  0  0  0  0  0  0
  -20.4268  -25.9164   18.8066 C   0  0  0  0  0  0  0  0  0  0  0  0
  -32.0609  -18.3570   21.6105 C   0  0  0  0  0  0  0  0  0  0  0  0
  -23.8488  -34.1038   25.6016 C   0  0  0  0  0  0  0  0  0  0  0  0
  -24.2609  -30.1970   20.4066 C   0  0  0  0  0  0  0  0  0  0  0  0
  -23.5697  -27.3729   20.9466 C   0  0  0  0  0  0  0  0  0  0  0  0
  -22.7416  -33.1172   25.2394 C   0  0  0  0  0  0  0  0  0  0  0  0
  -32.9478  -15.0789   22.6803 C   0  0  0  0  0  0  0  0  0  0  0  0
  -23.2098  -31.6831   25.4645 C   0  0  0  0  0  0  0  0  0  0  0  0
  -31.8823  -14.1873   22.0385 C   0  0  0  0  0  0  0  0  0  0  0  0
  -32.3689  -16.4179   23.1337 C   0  0  0  0  0  0  0  0  0  0  0  0
  -30.5692  -16.2672   21.4581 C   0  0  0  0  0  0  0  0  0  0  0  0
  -24.4108  -31.3482   24.5718 C   0  0  1  0  0  0  0  0  0  0  0  0
  -23.1201  -29.8146   21.3445 C   0  0  1  0  0  0  0  0  0  0  0  0
  -31.1185  -14.9332   20.9268 C   0  0  2  0  0  0  0  0  0  0  0  0
  -29.2372  -22.2353   17.6194 C   0  0  0  0  0  0  0  0  0  0  0  0
  -18.4590  -24.7998   17.7211 C   0  0  0  0  0  0  0  0  0  0  0  0
  -20.8081  -26.5515   23.6612 C   0  0  0  0  0  0  0  0  0  0  0  0
  -19.5652  -24.9007   22.2475 C   0  0  0  0  0  0  0  0  0  0  0  0
  -18.6971  -27.2254   22.5019 C   0  0  0  0  0  0  0  0  0  0  0  0
  -21.1824  -26.9273   16.1296 C   0  0  0  0  0  0  0  0  0  0  0  0
  -30.2941  -25.2705   20.4356 C   0  0  0  0  0  0  0  0  0  0  0  0
  -29.5129  -26.4917   19.9802 C   0  0  0  0  0  0  0  0  0  1  0  0
  -20.7571  -26.8189   21.0937 C   0  0  1  0  0  0  0  0  0  0  0  0
  -19.4529  -25.9482   17.6426 C   0  0  2  0  0  0  0  0  0  0  0  0
  -19.9836  -26.3815   22.3696 C   0  0  0  0  0  0  0  0  0  0  0  0
  -28.7856  -14.1404   20.8244 N   0  0  0  0  0  0  0  0  0  0  0  0
  -30.0285  -14.0712   20.3179 N   0  0  0  0  0  0  0  0  0  0  0  0
  -22.5990  -28.4714   21.0825 N   0  0  0  0  0  0  0  0  0  0  0  0
  -31.6636  -17.0690   22.0276 N   0  0  0  0  0  0  0  0  0  0  0  0
  -31.3326  -13.0058   18.6520 N   0  0  0  0  0  0  0  0  0  0  0  0
  -27.2218  -11.2362   18.0472 N   0  0  0  0  0  0  0  0  0  0  0  0
  -31.3391  -18.8611   20.5291 N   0  0  0  0  0  0  0  0  0  0  0  0
  -30.2286  -24.2308   19.4342 N   0  0  0  0  0  0  0  0  0  0  0  0
  -23.9760  -31.0883   23.2161 N   0  0  0  0  0  0  0  0  0  0  0  0
  -19.9910  -26.6943   19.8584 N   0  0  0  0  0  0  0  0  0  0  0  0
  -20.1873  -25.8464   16.3498 N   0  3  0  0  0  0  0  0  0  0  0  0
  -29.3889  -11.2102   17.2976 O   0  0  0  0  0  0  0  0  0  0  0  0
  -23.4226  -28.8412   23.4743 O   0  0  0  0  0  0  0  0  0  0  0  0
  -20.3779  -29.1532   21.2773 O   0  0  0  0  0  0  0  0  0  0  0  0
  -21.4680  -25.2637   18.7864 O   0  0  0  0  0  0  0  0  0  0  0  0
  -32.9922  -18.9565   22.1538 O   0  0  0  0  0  0  0  0  0  0  0  0
  -22.6507  -12.4427   20.9941 O   0  0  0  0  0  0  0  0  0  0  0  0
  -28.1504  -26.1295   19.7595 O   0  0  0  0  0  0  0  0  0  1  0  0
  -20.8226   -7.2408   21.0451 F   0  0  0  0  0  0  0  0  0  0  0  0
  -21.4374  -11.3877   23.2430 F   0  0  0  0  0  0  0  0  0  0  0  0
  -29.8709  -19.5978   18.2879 F   0  0  0  0  0  0  0  0  0  0  0  0
  1  2  1  0  0  0  0
  1  5  2  0  0  0  0
  2  6  2  0  0  0  0
  3 10  2  0  0  0  0
  3 17  1  0  0  0  0
  4 11  1  0  0  0  0
  4 17  2  0  0  0  0
  5 19  1  0  0  0  0
  6 21  1  0  0  0  0
  7 12  2  0  0  0  0
  7 20  1  0  0  0  0
  8  9  2  0  0  0  0
  8 24  1  0  0  0  0
  9 25  1  0  0  0  0
 10 26  1  0  0  0  0
 11 26  2  0  0  0  0
 12 27  1  0  0  0  0
 13 14  2  0  0  0  0
 13 28  1  0  0  0  0
 14 29  1  0  0  0  0
 15 22  1  0  0  0  0
 15 27  2  0  0  0  0
 16 29  2  0  0  0  0
 16 30  1  0  0  0  0
 17 32  1  0  0  0  0
 18 32  1  0  0  0  0
 18 33  2  0  0  0  0
 18 34  1  0  0  0  0
 19 21  2  0  0  0  0
 19 39  1  0  0  0  0
 20 22  2  0  0  0  0
 20 40  1  0  0  0  0
 21 48  1  0  0  0  0
 22 41  1  0  0  0  0
 23 24  2  0  0  0  0
 23 31  1  0  0  0  0
 23 51  1  0  0  0  0
 24 69  1  0  0  0  0
 25 31  2  0  0  0  0
 25 68  1  0  0  0  0
 26 78  1  0  0  0  0
 27 79  1  0  0  0  0
 28 30  2  0  0  0  0
 28 78  1  0  0  0  0
 29 80  1  0  0  0  0
 30 81  1  0  0  0  0
 31 82  1  0  0  0  0
 32 62  2  0  0  0  0
 33 63  1  0  0  0  0
 33 66  1  0  0  0  0
 34 67  1  0  0  0  0
 34 73  2  0  0  0  0
 35 49  1  0  0  0  0
 35 70  1  0  0  0  0
 35 74  2  0  0  0  0
 36 59  1  0  0  0  0
 36 64  1  0  0  0  0
 36 75  2  0  0  0  0
 37 60  1  0  0  0  0
 37 71  1  0  0  0  0
 37 76  2  0  0  0  0
 38 65  1  0  0  0  0
 38 68  1  0  0  0  0
 38 77  2  0  0  0  0
 39 42  1  0  0  0  0
 40 49  1  0  0  0  0
 41 64  1  0  0  0  0
 42 44  1  0  0  0  0
 43 45  1  0  0  0  0
 43 46  1  0  0  0  0
 44 48  1  0  0  0  0
 45 50  1  0  0  0  0
 46 65  1  0  0  0  0
 47 50  1  0  0  0  0
 47 65  1  0  0  0  0
 48 70  1  0  0  0  0
 49 64  1  0  0  0  0
 50 63  1  0  0  0  0
 52 60  1  0  0  0  0
 53 61  1  0  0  0  0
 54 61  1  0  0  0  0
 55 61  1  0  0  0  0
 56 72  1  0  0  0  0
 57 58  1  0  0  0  0
 57 69  1  0  0  0  0
 58 79  1  0  0  0  0
 59 61  1  0  0  0  0
 59 71  1  0  0  0  0
 60 72  1  0  0  0  0
 62 63  1  0  0  0  0
M  CHG  1  72   1
M  ISO  4  38 100  58 101  68 100  79 101
M  END
> <Batch ID>
0008

> <Smiles>
CNC(C)C(=O)NC(C(=O)N1Cc2cc([101O:1][101CH2:1]CNc3ccc([100NH:0][100C:0](=O)N4CCCC(n5nc(-c6ccc(Oc7ccc(F)cc7F)cc6)c(C(N)=O)c5N)C4)c(F)c3C)ccc2CC1C(=O)NC1CCCc2ccccc21)C(C)(C)C

> <Shape>
0.344

> <Color>
0.082

> <Negative vol penalty>
0.000

$$$$

  -OEChem-04042320353D

 82 90  0     1  0  0  0  0  0999 V2000
  -40.0633  -23.6973   19.7985 C   0  0  0  0  0  0  0  0  0  0  0  0
  -38.7050  -23.4670   19.9920 C   0  0  0  0  0  0  0  0  0  0  0  0
  -23.0959   -9.8268   19.9552 C   0  0  0  0  0  0  0  0  0  0  0  0
  -23.8450   -9.8732   22.2517 C   0  0  0  0  0  0  0  0  0  0  0  0
  -40.5675  -24.9946   19.8790 C   0  0  0  0  0  0  0  0  0  0  0  0
  -37.8503  -24.5339   20.2672 C   0  0  0  0  0  0  0  0  0  0  0  0
  -33.5601  -24.3281   17.5845 C   0  0  0  0  0  0  0  0  0  0  0  0
  -22.3662   -8.6671   20.2166 C   0  0  0  0  0  0  0  0  0  0  0  0
  -23.1152   -8.7136   22.5131 C   0  0  0  0  0  0  0  0  0  0  0  0
  -32.5787  -23.4389   18.0203 C   0  0  0  0  0  0  0  0  0  0  0  0
  -19.8952   -7.8806   23.1114 C   0  0  0  0  0  0  0  0  0  0  0  0
  -19.1334   -7.8456   24.2793 C   0  0  0  0  0  0  0  0  0  0  0  0
  -31.4001  -25.2635   19.0697 C   0  0  0  0  0  0  0  0  0  0  0  0
  -31.0639  -17.7684   20.5461 C   0  0  0  0  0  0  0  0  0  0  0  0
  -29.5741  -19.3503   22.2955 C   0  0  0  0  0  0  0  0  0  0  0  0
  -20.3970   -5.9344   25.0462 C   0  0  0  0  0  0  0  0  0  0  0  0
  -23.8353  -10.4298   20.9727 C   0  0  0  0  0  0  0  0  0  0  0  0
  -24.1442  -12.9576   20.8218 C   0  0  0  0  0  0  0  0  0  0  0  0
  -39.7171  -26.0792   20.1457 C   0  0  0  0  0  0  0  0  0  0  0  0
  -33.4744  -25.6923   17.8979 C   0  0  0  0  0  0  0  0  0  0  0  0
  -38.3439  -25.8468   20.3526 C   0  0  0  0  0  0  0  0  0  0  0  0
  -32.3804  -26.1683   18.6345 C   0  0  0  0  0  0  0  0  0  0  0  0
  -30.1674  -17.1728   21.4333 C   0  0  0  0  0  0  0  0  0  0  0  0
  -22.3759   -8.1105   21.4956 C   0  0  0  0  0  0  0  0  0  0  0  0
  -31.5000  -23.9061   18.7654 C   0  0  0  0  0  0  0  0  0  0  0  0
  -20.9078   -6.9425   22.9108 C   0  0  0  0  0  0  0  0  0  0  0  0
  -30.4706  -19.9459   21.4083 C   0  0  0  0  0  0  0  0  0  0  0  0
  -19.3843   -6.8725   25.2467 C   0  0  0  0  0  0  0  0  0  0  0  0
  -31.2155  -19.1550   20.5336 C   0  0  0  0  0  0  0  0  0  0  0  0
  -29.4225  -17.9637   22.3080 C   0  0  0  0  0  0  0  0  0  0  0  0
  -21.1587   -5.9694   23.8782 C   0  0  0  0  0  0  0  0  0  0  0  0
  -24.5897  -11.6275   20.7031 C   0  0  0  0  0  0  0  0  0  0  0  0
  -25.2280  -13.7168   20.4538 C   0  0  0  0  0  0  0  0  0  0  0  0
  -22.8650  -13.4617   21.2283 C   0  0  0  0  0  0  0  0  0  0  0  0
  -35.2702  -27.7323   19.5462 C   0  0  0  0  0  0  0  0  0  0  0  0
  -33.1470  -29.9091   18.4167 C   0  0  0  0  0  0  0  0  0  0  0  0
  -30.0229  -30.5484   17.2009 C   0  0  0  0  0  0  0  0  0  0  0  0
  -30.6790  -14.8373   20.6395 C   0  0  0  0  0  0  0  0  0  0  0  0
  -40.3159  -27.4578   20.2699 C   0  0  0  0  0  0  0  0  0  0  0  0
  -34.5274  -26.6427   17.3975 C   0  0  0  0  0  0  0  0  0  0  0  0
  -32.2313  -27.6267   18.9801 C   0  0  0  0  0  0  0  0  0  0  0  0
  -39.2832  -28.5795   20.1945 C   0  0  0  0  0  0  0  0  0  0  0  0
  -29.6077  -12.3787   18.2975 C   0  0  0  0  0  0  0  0  0  0  0  0
  -38.0861  -28.2638   21.0858 C   0  0  0  0  0  0  0  0  0  0  0  0
  -28.1701  -12.0735   18.7243 C   0  0  0  0  0  0  0  0  0  0  0  0
  -30.5141  -12.6350   19.5002 C   0  0  0  0  0  0  0  0  0  0  0  0
  -28.5913  -13.3517   20.8635 C   0  0  0  0  0  0  0  0  0  0  0  0
  -37.3810  -26.9811   20.6285 C   0  0  1  0  0  0  0  0  0  0  0  0
  -34.6066  -27.9298   18.2127 C   0  0  1  0  0  0  0  0  0  0  0  0
  -27.6263  -13.1504   19.6836 C   0  0  2  0  0  0  0  0  0  0  0  0
  -28.5673  -32.4295   16.4010 C   0  0  0  0  0  0  0  0  0  0  0  0
  -32.7107  -30.7957   21.3034 C   0  0  0  0  0  0  0  0  0  0  0  0
  -30.6228  -31.9585   20.5573 C   0  0  0  0  0  0  0  0  0  0  0  0
  -32.8349  -32.6641   19.6457 C   0  0  0  0  0  0  0  0  0  0  0  0
  -29.7537  -29.3494   14.5086 C   0  0  0  0  0  0  0  0  0  0  0  0
  -29.8739  -23.3603   20.4128 C   0  0  0  0  0  0  0  0  0  1  0  0
  -29.4565  -22.0750   21.1009 C   0  0  0  0  0  0  0  0  0  0  0  0
  -31.8300  -30.4678   18.8987 C   0  0  1  0  0  0  0  0  0  0  0  0
  -29.5542  -31.3453   15.9969 C   0  0  2  0  0  0  0  0  0  0  0  0
  -32.0031  -31.4437   20.0966 C   0  0  0  0  0  0  0  0  0  0  0  0
  -25.8577  -11.5431   20.2918 N   0  0  0  0  0  0  0  0  0  0  0  0
  -26.2181  -12.8299   20.1487 N   0  0  0  0  0  0  0  0  0  0  0  0
  -33.2901  -28.5155   18.4736 N   0  0  0  0  0  0  0  0  0  0  0  0
  -29.9374  -13.6695   20.3617 N   0  0  0  0  0  0  0  0  0  0  0  0
  -25.4211  -15.0499   20.3646 N   0  0  0  0  0  0  0  0  0  0  0  0
  -21.8637  -12.5436   21.5727 N   0  0  0  0  0  0  0  0  0  0  0  0
  -30.0156  -15.7640   21.4431 N   0  0  0  0  0  0  0  0  0  0  0  0
  -36.5599  -27.2428   19.4658 N   0  0  0  0  0  0  0  0  0  0  0  0
  -31.1872  -31.0622   17.7317 N   0  0  0  0  0  0  0  0  0  0  0  0
  -28.8893  -30.4489   15.0094 N   0  3  0  0  0  0  0  0  0  0  0  0
  -22.6122  -14.6897   21.2688 O   0  0  0  0  0  0  0  0  0  0  0  0
  -34.6580  -28.0053   20.5721 O   0  0  0  0  0  0  0  0  0  0  0  0
  -34.0142  -30.6802   17.9982 O   0  0  0  0  0  0  0  0  0  0  0  0
  -29.4149  -29.5703   17.6301 O   0  0  0  0  0  0  0  0  0  0  0  0
  -31.8079  -15.0150   20.1748 O   0  0  0  0  0  0  0  0  0  0  0  0
  -21.6638   -6.9791   21.7511 O   0  0  0  0  0  0  0  0  0  0  0  0
  -30.5410  -23.0402   19.1926 O   0  0  0  0  0  0  0  0  0  1  0  0
  -30.6174  -21.3080   21.3964 O   0  0  0  0  0  0  0  0  0  0  0  0
  -18.6537   -6.8400   26.3689 F   0  0  0  0  0  0  0  0  0  0  0  0
  -32.0780  -19.7218   19.6791 F   0  0  0  0  0  0  0  0  0  0  0  0
  -28.5584  -17.4016   23.1655 F   0  0  0  0  0  0  0  0  0  0  0  0
  -22.1310   -5.0663   23.6916 F   0  0  0  0  0  0  0  0  0  0  0  0
  1  2  1  0  0  0  0
  1  5  2  0  0  0  0
  2  6  2  0  0  0  0
  3  8  2  0  0  0  0
  3 17  1  0  0  0  0
  4  9  1  0  0  0  0
  4 17  2  0  0  0  0
  5 19  1  0  0  0  0
  6 21  1  0  0  0  0
  7 10  2  0  0  0  0
  7 20  1  0  0  0  0
  8 24  1  0  0  0  0
  9 24  2  0  0  0  0
 10 25  1  0  0  0  0
 11 12  2  0  0  0  0
 11 26  1  0  0  0  0
 12 28  1  0  0  0  0
 13 22  1  0  0  0  0
 13 25  2  0  0  0  0
 14 23  2  0  0  0  0
 14 29  1  0  0  0  0
 15 27  1  0  0  0  0
 15 30  2  0  0  0  0
 16 28  2  0  0  0  0
 16 31  1  0  0  0  0
 17 32  1  0  0  0  0
 18 32  1  0  0  0  0
 18 33  2  0  0  0  0
 18 34  1  0  0  0  0
 19 21  2  0  0  0  0
 19 39  1  0  0  0  0
 20 22  2  0  0  0  0
 20 40  1  0  0  0  0
 21 48  1  0  0  0  0
 22 41  1  0  0  0  0
 23 30  1  0  0  0  0
 23 67  1  0  0  0  0
 24 76  1  0  0  0  0
 25 77  1  0  0  0  0
 26 31  2  0  0  0  0
 26 76  1  0  0  0  0
 27 29  2  0  0  0  0
 27 78  1  0  0  0  0
 28 79  1  0  0  0  0
 29 80  1  0  0  0  0
 30 81  1  0  0  0  0
 31 82  1  0  0  0  0
 32 61  2  0  0  0  0
 33 62  1  0  0  0  0
 33 65  1  0  0  0  0
 34 66  1  0  0  0  0
 34 71  2  0  0  0  0
 35 49  1  0  0  0  0
 35 68  1  0  0  0  0
 35 72  2  0  0  0  0
 36 58  1  0  0  0  0
 36 63  1  0  0  0  0
 36 73  2  0  0  0  0
 37 59  1  0  0  0  0
 37 69  1  0  0  0  0
 37 74  2  0  0  0  0
 38 64  1  0  0  0  0
 38 67  1  0  0  0  0
 38 75  2  0  0  0  0
 39 42  1  0  0  0  0
 40 49  1  0  0  0  0
 41 63  1  0  0  0  0
 42 44  1  0  0  0  0
 43 45  1  0  0  0  0
 43 46  1  0  0  0  0
 44 48  1  0  0  0  0
 45 50  1  0  0  0  0
 46 64  1  0  0  0  0
 47 50  1  0  0  0  0
 47 64  1  0  0  0  0
 48 68  1  0  0  0  0
 49 63  1  0  0  0  0
 50 62  1  0  0  0  0
 51 59  1  0  0  0  0
 52 60  1  0  0  0  0
 53 60  1  0  0  0  0
 54 60  1  0  0  0  0
 55 70  1  0  0  0  0
 56 57  1  0  0  0  0
 56 77  1  0  0  0  0
 57 78  1  0  0  0  0
 58 60  1  0  0  0  0
 58 69  1  0  0  0  0
 59 70  1  0  0  0  0
 61 62  1  0  0  0  0
M  CHG  1  70   1
M  ISO  4  38 100  56 101  67 100  77 101
M  END
> <Batch ID>
0008

> <Smiles>
CNC(C)C(=O)NC(C(=O)N1Cc2cc([101O:1][101CH2:1]COc3cc(F)c([100NH:0][100C:0](=O)N4CCCC(n5nc(-c6ccc(Oc7ccc(F)cc7F)cc6)c(C(N)=O)c5N)C4)cc3F)ccc2CC1C(=O)NC1CCCc2ccccc21)C(C)(C)C

> <Shape>
0.216

> <Color>
0.197

> <Negative vol penalty>
0.000

$$$$

  -OEChem-04042320353D

 84 93  0     1  0  0  0  0  0999 V2000
  -26.5967  -37.1184   25.0872 C   0  0  0  0  0  0  0  0  0  0  0  0
  -27.5438  -36.2084   24.6285 C   0  0  0  0  0  0  0  0  0  0  0  0
  -22.7981  -10.2818   20.2367 C   0  0  0  0  0  0  0  0  0  0  0  0
  -24.5643   -9.2289   21.5053 C   0  0  0  0  0  0  0  0  0  0  0  0
  -25.4298  -36.6602   25.6974 C   0  0  0  0  0  0  0  0  0  0  0  0
  -27.3251  -34.8397   24.7808 C   0  0  0  0  0  0  0  0  0  0  0  0
  -27.2101  -29.1653   19.4128 C   0  0  0  0  0  0  0  0  0  0  0  0
  -28.0636  -20.2153   19.4312 C   0  0  0  0  0  0  0  0  0  0  0  0
  -28.3683  -18.8710   19.6448 C   0  0  0  0  0  0  0  0  0  0  0  0
  -21.8505   -9.7340   21.1013 C   0  0  0  0  0  0  0  0  0  0  0  0
  -23.6167   -8.6812   22.3699 C   0  0  0  0  0  0  0  0  0  0  0  0
  -27.0088  -28.0993   18.5358 C   0  0  0  0  0  0  0  0  0  0  0  0
  -21.4540   -6.0824   22.3724 C   0  0  0  0  0  0  0  0  0  0  0  0
  -21.5954   -4.7395   22.7221 C   0  0  0  0  0  0  0  0  0  0  0  0
  -25.5513  -27.0358   20.1459 C   0  0  0  0  0  0  0  0  0  0  0  0
  -25.7490  -19.6315   19.0588 C   0  0  0  0  0  0  0  0  0  0  0  0
  -21.7820   -5.3649   25.0483 C   0  0  0  0  0  0  0  0  0  0  0  0
  -24.1550  -10.0292   20.4386 C   0  0  0  0  0  0  0  0  0  0  0  0
  -25.2399  -10.3849   18.1573 C   0  0  0  0  0  0  0  0  0  0  0  0
  -25.1922  -35.2849   25.8485 C   0  0  0  0  0  0  0  0  0  0  0  0
  -26.5698  -29.1780   20.6551 C   0  0  0  0  0  0  0  0  0  0  0  0
  -26.1545  -34.3627   25.3948 C   0  0  0  0  0  0  0  0  0  0  0  0
  -25.7393  -28.1069   21.0236 C   0  0  0  0  0  0  0  0  0  0  0  0
  -26.7539  -20.5956   19.1382 C   0  0  0  0  0  0  0  0  0  0  0  0
  -27.3634  -17.9070   19.5654 C   0  0  0  0  0  0  0  0  0  0  0  0
  -22.2598   -8.9337   22.1679 C   0  0  0  0  0  0  0  0  0  0  0  0
  -26.1816  -27.0371   18.9015 C   0  0  0  0  0  0  0  0  0  0  0  0
  -21.4767   -7.0666   23.3607 C   0  0  0  0  0  0  0  0  0  0  0  0
  -21.7594   -4.3808   24.0600 C   0  0  0  0  0  0  0  0  0  0  0  0
  -26.0537  -18.2872   19.2724 C   0  0  0  0  0  0  0  0  0  0  0  0
  -21.6406   -6.7078   24.6986 C   0  0  0  0  0  0  0  0  0  0  0  0
  -25.1344  -10.5943   19.5455 C   0  0  0  0  0  0  0  0  0  0  0  0
  -26.3240  -11.1381   17.7780 C   0  0  0  0  0  0  0  0  0  0  0  0
  -24.4303   -9.5816   17.2885 C   0  0  0  0  0  0  0  0  0  0  0  0
  -25.9727  -30.9966   23.8819 C   0  0  0  0  0  0  0  0  0  0  0  0
  -23.2806  -29.8056   23.0189 C   0  0  0  0  0  0  0  0  0  0  0  0
  -20.4344  -28.6887   21.5061 C   0  0  0  0  0  0  0  0  0  0  0  0
  -28.9251  -15.9991   20.0825 C   0  0  0  0  0  0  0  0  0  0  0  0
  -23.9378  -34.8385   26.5571 C   0  0  0  0  0  0  0  0  0  0  0  0
  -26.8062  -30.2758   21.6565 C   0  0  0  0  0  0  0  0  0  0  0  0
  -25.0985  -28.1465   22.3840 C   0  0  0  0  0  0  0  0  0  0  0  0
  -23.6096  -33.3631   26.3430 C   0  0  0  0  0  0  0  0  0  0  0  0
  -30.4675  -12.8508   19.4610 C   0  0  0  0  0  0  0  0  0  0  0  0
  -24.8556  -32.5052   26.5386 C   0  0  0  0  0  0  0  0  0  0  0  0
  -29.2845  -11.8969   19.2798 C   0  0  0  0  0  0  0  0  0  0  0  0
  -25.5206  -23.7173   17.4855 C   0  0  0  0  0  0  0  0  0  0  0  0
  -26.9101  -24.3024   19.4790 C   0  0  0  0  0  0  0  0  0  0  0  0
  -30.1870  -13.9056   20.5298 C   0  0  0  0  0  0  0  0  0  0  0  0
  -25.3483  -22.2978   18.0190 C   0  0  0  0  0  0  0  0  0  0  0  0
  -26.7353  -22.8856   20.0170 C   0  0  0  0  0  0  0  0  0  0  0  0
  -27.7589  -13.7080   20.1628 C   0  0  0  0  0  0  0  0  0  0  0  0
  -25.9419  -32.8696   25.5195 C   0  0  1  0  0  0  0  0  0  0  0  0
  -25.5578  -30.6086   22.4931 C   0  0  1  0  0  0  0  0  0  0  0  0
  -27.9694  -12.6674   19.0508 C   0  0  2  0  0  0  0  0  0  0  0  0
  -25.7313  -24.7239   18.6093 C   0  0  0  0  0  0  0  0  0  1  0  0
  -17.9508  -28.5519   21.8381 C   0  0  0  0  0  0  0  0  0  0  0  0
  -23.6757  -27.5267   25.0075 C   0  0  0  0  0  0  0  0  0  0  0  0
  -21.3109  -26.8301   24.5706 C   0  0  0  0  0  0  0  0  0  0  0  0
  -21.7873  -29.0727   25.5537 C   0  0  0  0  0  0  0  0  0  0  0  0
  -19.9051  -30.3124   19.0890 C   0  0  0  0  0  0  0  0  0  0  0  0
  -22.3192  -28.6485   23.1187 C   0  0  1  0  0  0  0  0  0  0  0  0
  -19.0974  -29.3615   21.2528 C   0  0  2  0  0  0  0  0  0  0  0  0
  -22.2919  -28.0215   24.5412 C   0  0  0  0  0  0  0  0  0  0  0  0
  -26.0763  -11.4159   20.0161 N   0  0  0  0  0  0  0  0  0  0  0  0
  -26.7842  -11.7295   18.9176 N   0  0  0  0  0  0  0  0  0  0  0  0
  -26.4480  -21.9456   18.9243 N   0  0  0  0  0  0  0  0  0  0  0  0
  -24.6011  -29.5022   22.6657 N   0  0  0  0  0  0  0  0  0  0  0  0
  -28.9280  -14.5975   20.2450 N   0  0  0  0  0  0  0  0  0  0  0  0
  -26.9190  -11.3456   16.5841 N   0  0  0  0  0  0  0  0  0  0  0  0
  -23.3559   -8.8725   17.8427 N   0  0  0  0  0  0  0  0  0  0  0  0
  -27.6762  -16.5421   19.7826 N   0  0  0  0  0  0  0  0  0  0  0  0
  -25.6376  -32.2917   24.2280 N   0  0  0  0  0  0  0  0  0  0  0  0
  -21.0277  -29.1503   22.6620 N   0  0  0  0  0  0  0  0  0  0  0  0
  -18.8644  -29.5162   19.7890 N   0  3  0  0  0  0  0  0  0  0  0  0
  -24.6631   -9.4821   16.0599 O   0  0  0  0  0  0  0  0  0  0  0  0
  -26.5530  -30.1812   24.5891 O   0  0  0  0  0  0  0  0  0  0  0  0
  -22.8759  -30.9479   23.2528 O   0  0  0  0  0  0  0  0  0  0  0  0
  -20.9037  -27.8360   20.7556 O   0  0  0  0  0  0  0  0  0  0  0  0
  -29.9595  -16.6651   20.1738 O   0  0  0  0  0  0  0  0  0  0  0  0
  -21.3354   -8.3993   23.0120 O   0  0  0  0  0  0  0  0  0  0  0  0
  -25.9858  -26.0018   18.0387 O   0  0  0  0  0  0  0  0  0  1  0  0
  -21.8936   -3.0910   24.3958 F   0  0  0  0  0  0  0  0  0  0  0  0
  -25.0800  -17.3689   19.1932 F   0  0  0  0  0  0  0  0  0  0  0  0
  -21.6620   -7.6487   25.6526 F   0  0  0  0  0  0  0  0  0  0  0  0
  1  2  1  0  0  0  0
  1  5  2  0  0  0  0
  2  6  2  0  0  0  0
  3 10  2  0  0  0  0
  3 18  1  0  0  0  0
  4 11  1  0  0  0  0
  4 18  2  0  0  0  0
  5 20  1  0  0  0  0
  6 22  1  0  0  0  0
  7 12  2  0  0  0  0
  7 21  1  0  0  0  0
  8  9  2  0  0  0  0
  8 24  1  0  0  0  0
  9 25  1  0  0  0  0
 10 26  1  0  0  0  0
 11 26  2  0  0  0  0
 12 27  1  0  0  0  0
 13 14  2  0  0  0  0
 13 28  1  0  0  0  0
 14 29  1  0  0  0  0
 15 23  1  0  0  0  0
 15 27  2  0  0  0  0
 16 24  2  0  0  0  0
 16 30  1  0  0  0  0
 17 29  2  0  0  0  0
 17 31  1  0  0  0  0
 18 32  1  0  0  0  0
 19 32  1  0  0  0  0
 19 33  2  0  0  0  0
 19 34  1  0  0  0  0
 20 22  2  0  0  0  0
 20 39  1  0  0  0  0
 21 23  2  0  0  0  0
 21 40  1  0  0  0  0
 22 52  1  0  0  0  0
 23 41  1  0  0  0  0
 24 66  1  0  0  0  0
 25 30  2  0  0  0  0
 25 71  1  0  0  0  0
 26 80  1  0  0  0  0
 27 81  1  0  0  0  0
 28 31  2  0  0  0  0
 28 80  1  0  0  0  0
 29 82  1  0  0  0  0
 30 83  1  0  0  0  0
 31 84  1  0  0  0  0
 32 64  2  0  0  0  0
 33 65  1  0  0  0  0
 33 69  1  0  0  0  0
 34 70  1  0  0  0  0
 34 75  2  0  0  0  0
 35 53  1  0  0  0  0
 35 72  1  0  0  0  0
 35 76  2  0  0  0  0
 36 61  1  0  0  0  0
 36 67  1  0  0  0  0
 36 77  2  0  0  0  0
 37 62  1  0  0  0  0
 37 73  1  0  0  0  0
 37 78  2  0  0  0  0
 38 68  1  0  0  0  0
 38 71  1  0  0  0  0
 38 79  2  0  0  0  0
 39 42  1  0  0  0  0
 40 53  1  0  0  0  0
 41 67  1  0  0  0  0
 42 44  1  0  0  0  0
 43 45  1  0  0  0  0
 43 48  1  0  0  0  0
 44 52  1  0  0  0  0
 45 54  1  0  0  0  0
 46 49  1  0  0  0  0
 46 55  1  0  0  0  0
 47 50  1  0  0  0  0
 47 55  1  0  0  0  0
 48 68  1  0  0  0  0
 49 66  1  0  0  0  0
 50 66  1  0  0  0  0
 51 54  1  0  0  0  0
 51 68  1  0  0  0  0
 52 72  1  0  0  0  0
 53 67  1  0  0  0  0
 54 65  1  0  0  0  0
 55 81  1  0  0  0  0
 56 62  1  0  0  0  0
 57 63  1  0  0  0  0
 58 63  1  0  0  0  0
 59 63  1  0  0  0  0
 60 74  1  0  0  0  0
 61 63  1  0  0  0  0
 61 73  1  0  0  0  0
 62 74  1  0  0  0  0
 64 65  1  0  0  0  0
M  CHG  1  74   1
M  ISO  4  38 100  55 101  71 100  81 101
M  END
> <Batch ID>
0008

> <Smiles>
CNC(C)C(=O)NC(C(=O)N1Cc2cc([101O:1][101CH:1]3CCN(c4ccc([100NH:0][100C:0](=O)N5CCCC(n6nc(-c7ccc(Oc8ccc(F)cc8F)cc7)c(C(N)=O)c6N)C5)c(F)c4)CC3)ccc2CC1C(=O)NC1CCCc2ccccc21)C(C)(C)C

> <Shape>
0.309

> <Color>
0.105

> <Negative vol penalty>
0.000

$$$$

  -OEChem-04042320353D

 83 92  0     1  0  0  0  0  0999 V2000
  -26.7533  -35.7850   21.3991 C   0  0  0  0  0  0  0  0  0  0  0  0
  -27.1754  -34.4632   21.5004 C   0  0  0  0  0  0  0  0  0  0  0  0
  -23.0540  -11.0454   22.7204 C   0  0  0  0  0  0  0  0  0  0  0  0
  -23.0274   -9.5210   20.8462 C   0  0  0  0  0  0  0  0  0  0  0  0
  -25.4658  -36.1372   21.8017 C   0  0  0  0  0  0  0  0  0  0  0  0
  -26.3104  -33.4930   22.0053 C   0  0  0  0  0  0  0  0  0  0  0  0
  -26.3425  -29.2408   19.2553 C   0  0  0  0  0  0  0  0  0  0  0  0
  -28.0991  -20.7680   17.9125 C   0  0  0  0  0  0  0  0  0  0  0  0
  -27.0987  -19.7992   17.7896 C   0  0  0  0  0  0  0  0  0  0  0  0
  -22.3227  -10.1291   23.4761 C   0  0  0  0  0  0  0  0  0  0  0  0
  -22.2962   -8.6046   21.6020 C   0  0  0  0  0  0  0  0  0  0  0  0
  -27.4157  -28.3704   19.4412 C   0  0  0  0  0  0  0  0  0  0  0  0
  -22.9051   -6.3254   24.0217 C   0  0  0  0  0  0  0  0  0  0  0  0
  -23.3013   -4.9888   23.9776 C   0  0  0  0  0  0  0  0  0  0  0  0
  -27.5080  -21.1495   20.2371 C   0  0  0  0  0  0  0  0  0  0  0  0
  -26.0447  -26.9955   20.8727 C   0  0  0  0  0  0  0  0  0  0  0  0
  -21.1314   -4.3743   23.1109 C   0  0  0  0  0  0  0  0  0  0  0  0
  -23.4063  -10.7414   21.4054 C   0  0  0  0  0  0  0  0  0  0  0  0
  -25.5622  -11.7836   20.5260 C   0  0  0  0  0  0  0  0  0  0  0  0
  -24.5813  -35.1691   22.3028 C   0  0  0  0  0  0  0  0  0  0  0  0
  -25.1136  -29.0005   19.8865 C   0  0  0  0  0  0  0  0  0  0  0  0
  -25.0102  -33.8329   22.4162 C   0  0  0  0  0  0  0  0  0  0  0  0
  -26.5237  -20.1821   20.1090 C   0  0  0  0  0  0  0  0  0  0  0  0
  -24.9568  -27.8629   20.6912 C   0  0  0  0  0  0  0  0  0  0  0  0
  -28.3026  -21.4386   19.1273 C   0  0  0  0  0  0  0  0  0  0  0  0
  -26.3167  -19.5158   18.8998 C   0  0  0  0  0  0  0  0  0  0  0  0
  -21.9438   -8.9086   22.9170 C   0  0  0  0  0  0  0  0  0  0  0  0
  -27.2678  -27.2491   20.2523 C   0  0  0  0  0  0  0  0  0  0  0  0
  -21.6220   -6.6865   23.6105 C   0  0  0  0  0  0  0  0  0  0  0  0
  -22.4145   -4.0132   23.5221 C   0  0  0  0  0  0  0  0  0  0  0  0
  -20.7352   -5.7110   23.1551 C   0  0  0  0  0  0  0  0  0  0  0  0
  -24.1611  -11.6878   20.6240 C   0  0  0  0  0  0  0  0  0  0  0  0
  -25.7753  -12.8342   19.6674 C   0  0  0  0  0  0  0  0  0  0  0  0
  -26.5800  -10.9935   21.1548 C   0  0  0  0  0  0  0  0  0  0  0  0
  -23.3447  -30.5586   22.0189 C   0  0  0  0  0  0  0  0  0  0  0  0
  -21.2129  -28.1933   21.3999 C   0  0  0  0  0  0  0  0  0  0  0  0
  -20.6546  -25.0100   20.3036 C   0  0  0  0  0  0  0  0  0  0  0  0
  -24.5896  -17.9974   17.9567 C   0  0  0  0  0  0  0  0  0  0  0  0
  -23.2153  -35.6061   22.7696 C   0  0  0  0  0  0  0  0  0  0  0  0
  -23.9577  -29.9346   19.6544 C   0  0  0  0  0  0  0  0  0  0  0  0
  -25.5245  -19.7644   21.1391 C   0  0  0  0  0  0  0  0  0  0  0  0
  -23.6521  -27.5490   21.3750 C   0  0  0  0  0  0  0  0  0  0  0  0
  -22.2327  -34.4509   22.9436 C   0  0  0  0  0  0  0  0  0  0  0  0
  -22.5983  -15.3707   16.6882 C   0  0  0  0  0  0  0  0  0  0  0  0
  -22.8879  -33.3028   23.7049 C   0  0  0  0  0  0  0  0  0  0  0  0
  -22.9091  -14.1906   17.6049 C   0  0  0  0  0  0  0  0  0  0  0  0
  -24.8670  -18.5559   20.4605 C   0  0  0  0  0  0  0  0  0  0  0  0
  -22.5546  -16.6715   17.4785 C   0  0  0  0  0  0  0  0  0  0  0  0
  -24.1796  -15.7866   19.1328 C   0  0  0  0  0  0  0  0  0  0  0  0
  -24.0926  -32.7474   22.9357 C   0  0  1  0  0  0  0  0  0  0  0  0
  -22.9061  -29.8696   20.7577 C   0  0  1  0  0  0  0  0  0  0  0  0
  -24.2102  -14.4383   18.3841 C   0  0  1  0  0  0  0  0  0  0  0  0
  -18.8124  -23.3435   19.9483 C   0  0  0  0  0  0  0  0  0  0  0  0
  -21.1071  -27.6732   24.4046 C   0  0  0  0  0  0  0  0  0  0  0  0
  -20.0414  -25.4615   23.9138 C   0  0  0  0  0  0  0  0  0  0  0  0
  -18.8910  -27.5730   23.2500 C   0  0  0  0  0  0  0  0  0  0  0  0
  -21.1880  -24.8662   17.3960 C   0  0  0  0  0  0  0  0  0  0  0  0
  -29.3740  -22.4718   19.2311 C   0  0  0  0  0  0  0  0  0  0  0  0
  -29.8982  -24.9079   19.4021 C   0  0  0  0  0  0  0  0  0  0  0  0
  -29.2501  -26.2779   19.3673 C   0  0  0  0  0  0  0  0  0  1  0  0
  -20.9399  -26.8233   21.9724 C   0  0  1  0  0  0  0  0  0  0  0  0
  -19.6478  -24.4464   19.3171 C   0  0  2  0  0  0  0  0  0  0  0  0
  -20.2702  -26.8894   23.3740 C   0  0  0  0  0  0  0  0  0  0  0  0
  -23.5288  -12.6046   19.8867 N   0  0  0  0  0  0  0  0  0  0  0  0
  -24.5372  -13.2865   19.3172 N   0  0  0  0  0  0  0  0  0  0  0  0
  -25.2642  -18.5816   19.0309 N   0  0  0  0  0  0  0  0  0  0  0  0
  -22.5534  -28.4959   21.1221 N   0  0  0  0  0  0  0  0  0  0  0  0
  -23.7843  -16.8851   18.2429 N   0  0  0  0  0  0  0  0  0  0  0  0
  -26.8991  -13.4061   19.1854 N   0  0  0  0  0  0  0  0  0  0  0  0
  -26.1867   -9.9531   22.0076 N   0  0  0  0  0  0  0  0  0  0  0  0
  -23.6514  -31.8956   21.8521 N   0  0  0  0  0  0  0  0  0  0  0  0
  -20.1568  -26.1103   20.9690 N   0  0  0  0  0  0  0  0  0  0  0  0
  -20.3473  -23.8837   18.1276 N   0  3  0  0  0  0  0  0  0  0  0  0
  -28.8509  -23.8656   19.2420 N   0  3  0  0  0  0  0  0  0  0  0  0
  -27.8023  -11.2143   20.9790 O   0  0  0  0  0  0  0  0  0  0  0  0
  -23.3992  -29.9245   23.0661 O   0  0  0  0  0  0  0  0  0  0  0  0
  -20.2706  -28.9638   21.1997 O   0  0  0  0  0  0  0  0  0  0  0  0
  -21.7697  -24.5207   20.4701 O   0  0  0  0  0  0  0  0  0  0  0  0
  -24.6327  -18.4679   16.8132 O   0  0  0  0  0  0  0  0  0  0  0  0
  -21.2305   -8.0141   23.6542 O   0  0  0  0  0  0  0  0  0  0  0  0
  -28.3213  -26.3922   20.4373 O   0  0  0  0  0  0  0  0  0  1  0  0
  -22.7956   -2.7298   23.4783 F   0  0  0  0  0  0  0  0  0  0  0  0
  -19.5017   -6.0520   22.7576 F   0  0  0  0  0  0  0  0  0  0  0  0
  1  2  1  0  0  0  0
  1  5  2  0  0  0  0
  2  6  2  0  0  0  0
  3 10  2  0  0  0  0
  3 18  1  0  0  0  0
  4 11  1  0  0  0  0
  4 18  2  0  0  0  0
  5 20  1  0  0  0  0
  6 22  1  0  0  0  0
  7 12  2  0  0  0  0
  7 21  1  0  0  0  0
  8  9  2  0  0  0  0
  8 25  1  0  0  0  0
  9 26  1  0  0  0  0
 10 27  1  0  0  0  0
 11 27  2  0  0  0  0
 12 28  1  0  0  0  0
 13 14  2  0  0  0  0
 13 29  1  0  0  0  0
 14 30  1  0  0  0  0
 15 23  1  0  0  0  0
 15 25  2  0  0  0  0
 16 24  1  0  0  0  0
 16 28  2  0  0  0  0
 17 30  2  0  0  0  0
 17 31  1  0  0  0  0
 18 32  1  0  0  0  0
 19 32  1  0  0  0  0
 19 33  2  0  0  0  0
 19 34  1  0  0  0  0
 20 22  2  0  0  0  0
 20 39  1  0  0  0  0
 21 24  2  0  0  0  0
 21 40  1  0  0  0  0
 22 50  1  0  0  0  0
 23 26  2  0  0  0  0
 23 41  1  0  0  0  0
 24 42  1  0  0  0  0
 25 58  1  0  0  0  0
 26 66  1  0  0  0  0
 27 80  1  0  0  0  0
 28 81  1  0  0  0  0
 29 31  2  0  0  0  0
 29 80  1  0  0  0  0
 30 82  1  0  0  0  0
 31 83  1  0  0  0  0
 32 64  2  0  0  0  0
 33 65  1  0  0  0  0
 33 69  1  0  0  0  0
 34 70  1  0  0  0  0
 34 75  2  0  0  0  0
 35 51  1  0  0  0  0
 35 71  1  0  0  0  0
 35 76  2  0  0  0  0
 36 61  1  0  0  0  0
 36 67  1  0  0  0  0
 36 77  2  0  0  0  0
 37 62  1  0  0  0  0
 37 72  1  0  0  0  0
 37 78  2  0  0  0  0
 38 66  1  0  0  0  0
 38 68  1  0  0  0  0
 38 79  2  0  0  0  0
 39 43  1  0  0  0  0
 40 51  1  0  0  0  0
 41 47  1  0  0  0  0
 42 67  1  0  0  0  0
 43 45  1  0  0  0  0
 44 46  1  0  0  0  0
 44 48  1  0  0  0  0
 45 50  1  0  0  0  0
 46 52  1  0  0  0  0
 47 66  1  0  0  0  0
 48 68  1  0  0  0  0
 49 52  1  0  0  0  0
 49 68  1  0  0  0  0
 50 71  1  0  0  0  0
 51 67  1  0  0  0  0
 52 65  1  0  0  0  0
 53 62  1  0  0  0  0
 54 63  1  0  0  0  0
 55 63  1  0  0  0  0
 56 63  1  0  0  0  0
 57 73  1  0  0  0  0
 58 74  1  0  0  0  0
 59 60  1  0  0  0  0
 59 74  1  0  0  0  0
 60 81  1  0  0  0  0
 61 63  1  0  0  0  0
 61 72  1  0  0  0  0
 62 73  1  0  0  0  0
 64 65  1  0  0  0  0
M  CHG  2  73   1  74   1
M  ISO  4  38 100  60 101  66 100  81 101
M  END
> <Batch ID>
0008

> <Smiles>
CNC(C)C(=O)NC(C(=O)N1Cc2cc([101O:1][101CH2:1]CNCc3ccc4c(c3)CC[100N:0]4[100C:0](=O)N3CCCC(n4nc(-c5ccc(Oc6ccc(F)cc6F)cc5)c(C(N)=O)c4N)C3)ccc2CC1C(=O)NC1CCCc2ccccc21)C(C)(C)C

> <Shape>
0.261

> <Color>
0.069

> <Negative vol penalty>
0.000

$$$$

  -OEChem-04042320353D

 75 83  0     1  0  0  0  0  0999 V2000
  -21.5713  -13.1597   17.1348 C   0  0  0  0  0  0  0  0  0  0  0  0
  -22.3208  -14.3283   17.0451 C   0  0  0  0  0  0  0  0  0  0  0  0
  -22.8643  -28.1194   21.9761 C   0  0  0  0  0  0  0  0  0  0  0  0
  -23.6193  -30.4128   22.0631 C   0  0  0  0  0  0  0  0  0  0  0  0
  -21.4399  -12.5095   18.3612 C   0  0  0  0  0  0  0  0  0  0  0  0
  -22.9386  -14.8480   18.1821 C   0  0  0  0  0  0  0  0  0  0  0  0
  -28.3161  -17.7671   18.4411 C   0  0  0  0  0  0  0  0  0  0  0  0
  -21.7916  -28.4410   22.8076 C   0  0  0  0  0  0  0  0  0  0  0  0
  -22.5466  -30.7344   22.8946 C   0  0  0  0  0  0  0  0  0  0  0  0
  -28.6474  -19.1207   18.4849 C   0  0  0  0  0  0  0  0  0  0  0  0
  -18.6513  -28.7360   24.6151 C   0  0  0  0  0  0  0  0  0  0  0  0
  -17.3931  -28.2423   24.2707 C   0  0  0  0  0  0  0  0  0  0  0  0
  -28.8043  -18.9983   20.8890 C   0  0  0  0  0  0  0  0  0  0  0  0
  -17.5052  -29.4240   22.1664 C   0  0  0  0  0  0  0  0  0  0  0  0
  -23.7782  -29.1053   21.6038 C   0  0  0  0  0  0  0  0  0  0  0  0
  -24.9155  -28.8177   19.3386 C   0  0  0  0  0  0  0  0  0  0  0  0
  -22.0643  -13.0163   19.5118 C   0  0  0  0  0  0  0  0  0  0  0  0
  -28.2155  -17.0203   19.6238 C   0  0  0  0  0  0  0  0  0  0  0  0
  -22.8143  -14.2048   19.4253 C   0  0  0  0  0  0  0  0  0  0  0  0
  -28.4740  -17.6348   20.8573 C   0  0  0  0  0  0  0  0  0  0  0  0
  -21.6327  -29.7485   23.2669 C   0  0  0  0  0  0  0  0  0  0  0  0
  -28.8888  -19.7371   19.7092 C   0  0  0  0  0  0  0  0  0  0  0  0
  -19.3365  -29.5739   23.7351 C   0  0  0  0  0  0  0  0  0  0  0  0
  -16.8200  -28.5862   23.0464 C   0  0  0  0  0  0  0  0  0  0  0  0
  -18.7634  -29.9179   22.5108 C   0  0  0  0  0  0  0  0  0  0  0  0
  -24.8868  -28.7736   20.7453 C   0  0  0  0  0  0  0  0  0  0  0  0
  -26.1857  -28.4129   19.0082 C   0  0  0  0  0  0  0  0  0  0  0  0
  -23.8860  -29.1913   18.4132 C   0  0  0  0  0  0  0  0  0  0  0  0
  -25.8795  -15.4335   21.0829 C   0  0  0  0  0  0  0  0  0  0  0  0
  -28.2698  -14.5295   23.0807 C   0  0  0  0  0  0  0  0  0  0  0  0
  -31.3481  -15.1871   24.3994 C   0  0  0  0  0  0  0  0  0  0  0  0
  -30.4934  -24.9408   19.7091 C   0  0  0  0  0  0  0  0  0  0  0  0
  -21.8546  -12.3044   20.8248 C   0  0  0  0  0  0  0  0  0  0  0  0
  -27.8832  -15.5549   19.5576 C   0  0  0  0  0  0  0  0  0  0  0  0
  -28.3990  -16.8726   22.1542 C   0  0  0  0  0  0  0  0  0  0  0  0
  -22.8501  -12.7158   21.9065 C   0  0  0  0  0  0  0  0  0  0  0  0
  -30.2880  -27.7350   21.8583 C   0  0  0  0  0  0  0  0  0  0  0  0
  -22.9851  -14.2343   21.9582 C   0  0  0  0  0  0  0  0  0  0  0  0
  -28.8616  -28.2466   21.6768 C   0  0  0  0  0  0  0  0  0  0  0  0
  -29.6758  -22.0251   17.5786 C   0  0  0  0  0  0  0  0  0  0  0  0
  -30.3253  -26.2133   21.8190 C   0  0  0  0  0  0  0  0  0  0  0  0
  -30.6477  -23.0814   18.0844 C   0  0  0  0  0  0  0  0  0  0  0  0
  -28.3427  -26.1452   20.3311 C   0  0  0  0  0  0  0  0  0  0  0  0
  -28.5560  -23.3214   19.2435 C   0  0  0  0  0  0  0  0  0  0  0  0
  -23.5199  -14.7861   20.6312 C   0  0  1  0  0  0  0  0  0  0  0  0
  -27.3052  -15.0138   20.8616 C   0  0  1  0  0  0  0  0  0  0  0  0
  -28.2438  -27.6837   20.3874 C   0  0  1  0  0  0  0  0  0  0  0  0
  -28.6814  -21.8931   18.7271 C   0  0  2  0  0  0  0  0  0  1  0  0
  -33.0232  -14.2862   26.0363 C   0  0  0  0  0  0  0  0  0  0  0  0
  -26.5513  -15.5388   25.3911 C   0  0  0  0  0  0  0  0  0  0  0  0
  -28.5955  -15.5014   26.8362 C   0  0  0  0  0  0  0  0  0  0  0  0
  -27.7374  -13.3827   25.8375 C   0  0  0  0  0  0  0  0  0  0  0  0
  -33.4051  -14.8675   22.2957 C   0  0  0  0  0  0  0  0  0  0  0  0
  -28.8699  -15.0847   24.3499 C   0  0  1  0  0  0  0  0  0  0  0  0
  -32.5732  -14.3098   24.5839 C   0  0  2  0  0  0  0  0  0  0  0  0
  -27.9381  -14.8920   25.5796 C   0  0  0  0  0  0  0  0  0  0  0  0
  -26.0466  -28.3723   21.2724 N   0  0  0  0  0  0  0  0  0  0  0  0
  -26.8160  -28.1605   20.1910 N   0  0  0  0  0  0  0  0  0  0  0  0
  -28.0643  -15.4436   22.0377 N   0  0  0  0  0  0  0  0  0  0  0  0
  -29.7117  -25.6860   20.5988 N   0  0  0  0  0  0  0  0  0  0  0  0
  -29.8706  -23.9216   18.9891 N   0  0  0  0  0  0  0  0  0  0  0  0
  -26.8138  -28.2518   17.8241 N   0  0  0  0  0  0  0  0  0  0  0  0
  -22.6397  -29.5815   18.9220 N   0  0  0  0  0  0  0  0  0  0  0  0
  -24.9480  -14.5729   20.5341 N   0  0  0  0  0  0  0  0  0  0  0  0
  -30.1805  -14.4591   24.4894 N   0  0  0  0  0  0  0  0  0  0  0  0
  -33.7012  -14.8137   23.7505 N   0  3  0  0  0  0  0  0  0  0  0  0
  -24.0607  -29.1636   17.1713 O   0  0  0  0  0  0  0  0  0  0  0  0
  -25.6421  -16.4612   21.7066 O   0  0  0  0  0  0  0  0  0  0  0  0
  -28.0003  -13.3276   23.0146 O   0  0  0  0  0  0  0  0  0  0  0  0
  -31.4196  -16.3976   24.1994 O   0  0  0  0  0  0  0  0  0  0  0  0
  -31.7089  -25.1481   19.5930 O   0  0  0  0  0  0  0  0  0  0  0  0
  -20.5859  -30.0627   24.0781 O   0  0  0  0  0  0  0  0  0  0  0  0
  -29.2140  -21.0675   19.7551 O   0  0  0  0  0  0  0  0  0  1  0  0
  -15.6124  -28.1107   22.7152 F   0  0  0  0  0  0  0  0  0  0  0  0
  -19.4174  -30.7214   21.6609 F   0  0  0  0  0  0  0  0  0  0  0  0
  1  2  1  0  0  0  0
  1  5  2  0  0  0  0
  2  6  2  0  0  0  0
  3  8  2  0  0  0  0
  3 15  1  0  0  0  0
  4  9  1  0  0  0  0
  4 15  2  0  0  0  0
  5 17  1  0  0  0  0
  6 19  1  0  0  0  0
  7 10  2  0  0  0  0
  7 18  1  0  0  0  0
  8 21  1  0  0  0  0
  9 21  2  0  0  0  0
 10 22  1  0  0  0  0
 11 12  2  0  0  0  0
 11 23  1  0  0  0  0
 12 24  1  0  0  0  0
 13 20  1  0  0  0  0
 13 22  2  0  0  0  0
 14 24  2  0  0  0  0
 14 25  1  0  0  0  0
 15 26  1  0  0  0  0
 16 26  1  0  0  0  0
 16 27  2  0  0  0  0
 16 28  1  0  0  0  0
 17 19  2  0  0  0  0
 17 33  1  0  0  0  0
 18 20  2  0  0  0  0
 18 34  1  0  0  0  0
 19 45  1  0  0  0  0
 20 35  1  0  0  0  0
 21 72  1  0  0  0  0
 22 73  1  0  0  0  0
 23 25  2  0  0  0  0
 23 72  1  0  0  0  0
 24 74  1  0  0  0  0
 25 75  1  0  0  0  0
 26 57  2  0  0  0  0
 27 58  1  0  0  0  0
 27 62  1  0  0  0  0
 28 63  1  0  0  0  0
 28 67  2  0  0  0  0
 29 46  1  0  0  0  0
 29 64  1  0  0  0  0
 29 68  2  0  0  0  0
 30 54  1  0  0  0  0
 30 59  1  0  0  0  0
 30 69  2  0  0  0  0
 31 55  1  0  0  0  0
 31 65  1  0  0  0  0
 31 70  2  0  0  0  0
 32 60  1  0  0  0  0
 32 61  1  0  0  0  0
 32 71  2  0  0  0  0
 33 36  1  0  0  0  0
 34 46  1  0  0  0  0
 35 59  1  0  0  0  0
 36 38  1  0  0  0  0
 37 39  1  0  0  0  0
 37 41  1  0  0  0  0
 38 45  1  0  0  0  0
 39 47  1  0  0  0  0
 40 42  1  0  0  0  0
 40 48  1  0  0  0  0
 41 60  1  0  0  0  0
 42 61  1  0  0  0  0
 43 47  1  0  0  0  0
 43 60  1  0  0  0  0
 44 48  1  0  0  0  0
 44 61  1  0  0  0  0
 45 64  1  0  0  0  0
 46 59  1  0  0  0  0
 47 58  1  0  0  0  0
 48 73  1  0  0  0  0
 49 55  1  0  0  0  0
 50 56  1  0  0  0  0
 51 56  1  0  0  0  0
 52 56  1  0  0  0  0
 53 66  1  0  0  0  0
 54 56  1  0  0  0  0
 54 65  1  0  0  0  0
 55 66  1  0  0  0  0
 57 58  1  0  0  0  0
M  CHG  1  66   1
M  ISO  4  32 100  48 101  61 100  73 101
M  END
> <Batch ID>
0008

> <Smiles>
CNC(C)C(=O)NC(C(=O)N1Cc2cc([101O:1][101CH:1]3CC[100N:0]([100C:0](=O)N4CCCC(n5nc(-c6ccc(Oc7ccc(F)cc7F)cc6)c(C(N)=O)c5N)C4)C3)ccc2CC1C(=O)NC1CCCc2ccccc21)C(C)(C)C

> <Shape>
0.244

> <Color>
0.067

> <Negative vol penalty>
0.000

$$$$

  -OEChem-04042320353D

 79 88  0     1  0  0  0  0  0999 V2000
  -16.8784  -25.6944   24.8100 C   0  0  0  0  0  0  0  0  0  0  0  0
  -17.6888  -24.7335   24.2140 C   0  0  0  0  0  0  0  0  0  0  0  0
  -25.1691  -14.0808   21.1089 C   0  0  0  0  0  0  0  0  0  0  0  0
  -26.2025  -12.4013   19.7130 C   0  0  0  0  0  0  0  0  0  0  0  0
  -16.9893  -27.0313   24.4301 C   0  0  0  0  0  0  0  0  0  0  0  0
  -18.6100  -25.1089   23.2368 C   0  0  0  0  0  0  0  0  0  0  0  0
  -25.0867  -23.3791   20.7115 C   0  0  0  0  0  0  0  0  0  0  0  0
  -24.0582  -13.2550   21.2801 C   0  0  0  0  0  0  0  0  0  0  0  0
  -25.0915  -11.5754   19.8843 C   0  0  0  0  0  0  0  0  0  0  0  0
  -25.7274  -23.0671   19.5132 C   0  0  0  0  0  0  0  0  0  0  0  0
  -22.6833   -8.8761   20.2476 C   0  0  0  0  0  0  0  0  0  0  0  0
  -22.9126   -7.5287   20.5262 C   0  0  0  0  0  0  0  0  0  0  0  0
  -25.8867  -25.4173   18.9933 C   0  0  0  0  0  0  0  0  0  0  0  0
  -24.1047   -8.1470   22.5347 C   0  0  0  0  0  0  0  0  0  0  0  0
  -26.2413  -13.6540   20.3253 C   0  0  0  0  0  0  0  0  0  0  0  0
  -28.5459  -14.5530   20.9483 C   0  0  0  0  0  0  0  0  0  0  0  0
  -17.9191  -27.4246   23.4546 C   0  0  0  0  0  0  0  0  0  0  0  0
  -24.8310  -24.7144   21.0552 C   0  0  0  0  0  0  0  0  0  0  0  0
  -18.7326  -26.4521   22.8425 C   0  0  0  0  0  0  0  0  0  0  0  0
  -25.2449  -25.7437   20.1977 C   0  0  0  0  0  0  0  0  0  0  0  0
  -24.0194  -12.0023   20.6678 C   0  0  0  0  0  0  0  0  0  0  0  0
  -26.1249  -24.0861   18.6526 C   0  0  0  0  0  0  0  0  0  0  0  0
  -23.1647   -9.8589   21.1125 C   0  0  0  0  0  0  0  0  0  0  0  0
  -23.6233   -7.1642   21.6697 C   0  0  0  0  0  0  0  0  0  0  0  0
  -23.8754   -9.4943   22.2560 C   0  0  0  0  0  0  0  0  0  0  0  0
  -27.3890  -14.5069   20.1476 C   0  0  0  0  0  0  0  0  0  0  0  0
  -29.3291  -15.5187   20.3647 C   0  0  0  0  0  0  0  0  0  0  0  0
  -28.8827  -13.7910   22.1152 C   0  0  0  0  0  0  0  0  0  0  0  0
  -22.2094  -26.4299   21.5918 C   0  0  0  0  0  0  0  0  0  0  0  0
  -24.3496  -28.7199   22.4270 C   0  0  0  0  0  0  0  0  0  0  0  0
  -27.5153  -29.9650   22.1533 C   0  0  0  0  0  0  0  0  0  0  0  0
  -30.1235  -20.3171   18.1126 C   0  0  0  0  0  0  0  0  0  0  0  0
  -17.9697  -28.8746   23.0429 C   0  0  0  0  0  0  0  0  0  0  0  0
  -24.1627  -25.0355   22.3639 C   0  0  0  0  0  0  0  0  0  0  0  0
  -25.0120  -27.1942   20.5299 C   0  0  0  0  0  0  0  0  0  0  0  0
  -19.2321  -29.2441   22.2683 C   0  0  0  0  0  0  0  0  0  0  0  0
  -31.8262  -22.5953   15.7224 C   0  0  0  0  0  0  0  0  0  0  0  0
  -28.8907  -17.8899   15.9251 C   0  0  0  0  0  0  0  0  0  0  0  0
  -19.5161  -28.2084   21.1850 C   0  0  0  0  0  0  0  0  0  0  0  0
  -30.8341  -23.7365   15.5692 C   0  0  0  0  0  0  0  0  0  0  0  0
  -28.4806  -16.7833   16.8967 C   0  0  0  0  0  0  0  0  0  0  0  0
  -28.5251  -19.2784   16.4524 C   0  0  0  0  0  0  0  0  0  0  0  0
  -31.6609  -21.9289   17.0787 C   0  0  0  0  0  0  0  0  0  0  0  0
  -28.4505  -24.4409   16.0275 C   0  0  0  0  0  0  0  0  0  0  0  0
  -28.6347  -18.4539   18.7825 C   0  0  0  0  0  0  0  0  0  0  0  0
  -28.9526  -23.3902   18.0855 C   0  0  0  0  0  0  0  0  0  0  0  0
  -19.7611  -26.8236   21.7965 C   0  0  1  0  0  0  0  0  0  0  0  0
  -23.4931  -26.4063   22.3723 C   0  0  1  0  0  0  0  0  0  0  0  0
  -29.3883  -23.2534   15.7515 C   0  0  2  0  0  0  0  0  0  0  0  0
  -29.0388  -17.0499   18.3063 C   0  0  1  0  0  0  0  0  0  0  0  0
  -29.1977  -22.3633   16.9801 C   0  0  1  0  0  0  0  0  0  0  0  0
  -28.9559  -31.8705   22.9219 C   0  0  0  0  0  0  0  0  0  0  0  0
  -22.9507  -30.5728   20.4472 C   0  0  0  0  0  0  0  0  0  0  0  0
  -24.9500  -32.0764   20.5488 C   0  0  0  0  0  0  0  0  0  0  0  0
  -23.6035  -31.6541   22.6057 C   0  0  0  0  0  0  0  0  0  0  0  0
  -29.4084  -28.1388   23.5100 C   0  0  0  0  0  0  0  0  0  0  0  0
  -25.0820  -29.8174   21.6934 C   0  0  1  0  0  0  0  0  0  0  0  0
  -28.5026  -30.4460   23.2012 C   0  0  2  0  0  0  0  0  0  0  0  0
  -24.1494  -31.0029   21.3163 C   0  0  0  0  0  0  0  0  0  0  0  0
  -27.4293  -15.3744   19.1328 N   0  0  0  0  0  0  0  0  0  0  0  0
  -28.6210  -15.9748   19.2919 N   0  0  0  0  0  0  0  0  0  0  0  0
  -24.3492  -27.4570   21.8180 N   0  0  0  0  0  0  0  0  0  0  0  0
  -29.0455  -19.4706   17.8130 N   0  0  0  0  0  0  0  0  0  0  0  0
  -30.2997  -21.4343   17.2728 N   0  0  0  0  0  0  0  0  0  0  0  0
  -28.0764  -24.3973   17.4580 N   0  0  2  0  0  0  0  0  0  1  0  0
  -30.5474  -16.0138   20.6697 N   0  0  0  0  0  0  0  0  0  0  0  0
  -27.9640  -12.8403   22.5803 N   0  0  0  0  0  0  0  0  0  0  0  0
  -21.0966  -26.7439   22.3484 N   0  0  0  0  0  0  0  0  0  0  0  0
  -26.2109  -30.1907   22.5388 N   0  0  0  0  0  0  0  0  0  0  0  0
  -29.7051  -29.5659   23.2228 N   0  3  0  0  0  0  0  0  0  0  0  0
  -29.9590  -13.9601   22.7368 O   0  0  0  0  0  0  0  0  0  0  0  0
  -22.2274  -26.1830   20.3916 O   0  0  0  0  0  0  0  0  0  0  0  0
  -23.8043  -28.9721   23.5043 O   0  0  0  0  0  0  0  0  0  0  0  0
  -27.8663  -29.4446   21.0966 O   0  0  0  0  0  0  0  0  0  0  0  0
  -30.8844  -20.0921   19.0617 O   0  0  0  0  0  0  0  0  0  0  0  0
  -22.9355  -11.1961   20.8349 O   0  0  0  0  0  0  0  0  0  0  0  0
  -26.7554  -23.7816   17.4718 O   0  0  0  0  0  0  0  0  0  1  0  0
  -23.8422   -5.8702   21.9379 F   0  0  0  0  0  0  0  0  0  0  0  0
  -24.3393  -10.4340   23.0913 F   0  0  0  0  0  0  0  0  0  0  0  0
  1  2  1  0  0  0  0
  1  5  2  0  0  0  0
  2  6  2  0  0  0  0
  3  8  2  0  0  0  0
  3 15  1  0  0  0  0
  4  9  1  0  0  0  0
  4 15  2  0  0  0  0
  5 17  1  0  0  0  0
  6 19  1  0  0  0  0
  7 10  2  0  0  0  0
  7 18  1  0  0  0  0
  8 21  1  0  0  0  0
  9 21  2  0  0  0  0
 10 22  1  0  0  0  0
 11 12  2  0  0  0  0
 11 23  1  0  0  0  0
 12 24  1  0  0  0  0
 13 20  1  0  0  0  0
 13 22  2  0  0  0  0
 14 24  2  0  0  0  0
 14 25  1  0  0  0  0
 15 26  1  0  0  0  0
 16 26  1  0  0  0  0
 16 27  2  0  0  0  0
 16 28  1  0  0  0  0
 17 19  2  0  0  0  0
 17 33  1  0  0  0  0
 18 20  2  0  0  0  0
 18 34  1  0  0  0  0
 19 47  1  0  0  0  0
 20 35  1  0  0  0  0
 21 76  1  0  0  0  0
 22 77  1  0  0  0  0
 23 25  2  0  0  0  0
 23 76  1  0  0  0  0
 24 78  1  0  0  0  0
 25 79  1  0  0  0  0
 26 60  2  0  0  0  0
 27 61  1  0  0  0  0
 27 66  1  0  0  0  0
 28 67  1  0  0  0  0
 28 71  2  0  0  0  0
 29 48  1  0  0  0  0
 29 68  1  0  0  0  0
 29 72  2  0  0  0  0
 30 57  1  0  0  0  0
 30 62  1  0  0  0  0
 30 73  2  0  0  0  0
 31 58  1  0  0  0  0
 31 69  1  0  0  0  0
 31 74  2  0  0  0  0
 32 63  1  0  0  0  0
 32 64  1  0  0  0  0
 32 75  2  0  0  0  0
 33 36  1  0  0  0  0
 34 48  1  0  0  0  0
 35 62  1  0  0  0  0
 36 39  1  0  0  0  0
 37 40  1  0  0  0  0
 37 43  1  0  0  0  0
 38 41  1  0  0  0  0
 38 42  1  0  0  0  0
 39 47  1  0  0  0  0
 40 49  1  0  0  0  0
 41 50  1  0  0  0  0
 42 63  1  0  0  0  0
 43 64  1  0  0  0  0
 44 49  1  0  0  0  0
 44 65  1  0  0  0  0
 45 50  1  0  0  0  0
 45 63  1  0  0  0  0
 46 51  1  0  0  0  0
 46 65  1  0  0  0  0
 47 68  1  0  0  0  0
 48 62  1  0  0  0  0
 49 51  1  0  0  0  0
 50 61  1  0  0  0  0
 51 64  1  0  0  0  0
 52 58  1  0  0  0  0
 53 59  1  0  0  0  0
 54 59  1  0  0  0  0
 55 59  1  0  0  0  0
 56 70  1  0  0  0  0
 57 59  1  0  0  0  0
 57 69  1  0  0  0  0
 58 70  1  0  0  0  0
 60 61  1  0  0  0  0
 65 77  1  0  0  0  0
M  CHG  1  70   1
M  ISO  4  32 100  64 100  65 101  77 101
M  END
> <Batch ID>
0008

> <Smiles>
CNC(C)C(=O)NC(C(=O)N1Cc2cc([101O:1][101N:1]3CC4CCC[100N:0]([100C:0](=O)N5CCCC(n6nc(-c7ccc(Oc8ccc(F)cc8F)cc7)c(C(N)=O)c6N)C5)C4C3)ccc2CC1C(=O)NC1CCCc2ccccc21)C(C)(C)C

> <Shape>
0.246

> <Color>
0.063

> <Negative vol penalty>
0.000

$$$$
