
  -OEChem-04042320373D

 82 90  0     1  0  0  0  0  0999 V2000
  -21.4663  -27.4451   21.1667 C   0  0  0  0  0  0  0  0  0  0  0  0
  -22.6037  -26.7328   20.8002 C   0  0  0  0  0  0  0  0  0  0  0  0
  -22.9424  -10.0615   19.9560 C   0  0  0  0  0  0  0  0  0  0  0  0
  -23.7789   -9.9239   22.2183 C   0  0  0  0  0  0  0  0  0  0  0  0
  -21.5382  -28.8256   21.3486 C   0  0  0  0  0  0  0  0  0  0  0  0
  -23.8135  -27.4008   20.6143 C   0  0  0  0  0  0  0  0  0  0  0  0
  -27.7121  -24.9963   22.7740 C   0  0  0  0  0  0  0  0  0  0  0  0
  -31.5344  -17.3171   20.6214 C   0  0  0  0  0  0  0  0  0  0  0  0
  -22.1330   -8.9494   20.1875 C   0  0  0  0  0  0  0  0  0  0  0  0
  -22.9695   -8.8118   22.4500 C   0  0  0  0  0  0  0  0  0  0  0  0
  -28.2284  -23.8891   22.1023 C   0  0  0  0  0  0  0  0  0  0  0  0
  -31.7953  -18.6863   20.6743 C   0  0  0  0  0  0  0  0  0  0  0  0
  -19.7182   -8.1995   23.1389 C   0  0  0  0  0  0  0  0  0  0  0  0
  -19.0006   -8.1598   24.3344 C   0  0  0  0  0  0  0  0  0  0  0  0
  -30.0235  -25.2538   21.2453 C   0  0  0  0  0  0  0  0  0  0  0  0
  -20.1359   -6.1173   24.9479 C   0  0  0  0  0  0  0  0  0  0  0  0
  -23.7654  -10.5488   20.9714 C   0  0  0  0  0  0  0  0  0  0  0  0
  -24.2687  -13.0494   20.9383 C   0  0  0  0  0  0  0  0  0  0  0  0
  -22.7516  -29.5095   21.1742 C   0  0  0  0  0  0  0  0  0  0  0  0
  -28.3425  -26.2451   22.6775 C   0  0  0  0  0  0  0  0  0  0  0  0
  -23.9014  -28.7919   20.7927 C   0  0  0  0  0  0  0  0  0  0  0  0
  -29.5146  -26.3747   21.9189 C   0  0  0  0  0  0  0  0  0  0  0  0
  -30.6274  -16.7450   21.5135 C   0  0  0  0  0  0  0  0  0  0  0  0
  -22.1465   -8.3245   21.4345 C   0  0  0  0  0  0  0  0  0  0  0  0
  -29.3827  -24.0184   21.3354 C   0  0  0  0  0  0  0  0  0  0  0  0
  -20.6445   -7.1981   22.8479 C   0  0  0  0  0  0  0  0  0  0  0  0
  -31.1494  -19.4834   21.6193 C   0  0  0  0  0  0  0  0  0  0  0  0
  -19.2095   -7.1187   25.2389 C   0  0  0  0  0  0  0  0  0  0  0  0
  -20.8534   -6.1570   23.7524 C   0  0  0  0  0  0  0  0  0  0  0  0
  -29.9815  -17.5421   22.4585 C   0  0  0  0  0  0  0  0  0  0  0  0
  -30.2425  -18.9113   22.5114 C   0  0  0  0  0  0  0  0  0  0  0  0
  -24.6021  -11.6973   20.7326 C   0  0  0  0  0  0  0  0  0  0  0  0
  -25.3949  -13.7413   20.5649 C   0  0  0  0  0  0  0  0  0  0  0  0
  -23.0501  -13.6282   21.4236 C   0  0  0  0  0  0  0  0  0  0  0  0
  -27.4996  -29.1039   21.5726 C   0  0  0  0  0  0  0  0  0  0  0  0
  -30.3607  -29.9956   22.8142 C   0  0  0  0  0  0  0  0  0  0  0  0
  -33.5037  -29.0921   23.7898 C   0  0  0  0  0  0  0  0  0  0  0  0
  -30.9209  -14.4238   20.5795 C   0  0  0  0  0  0  0  0  0  0  0  0
  -22.7697  -31.0088   21.3360 C   0  0  0  0  0  0  0  0  0  0  0  0
  -27.7879  -27.4236   23.4299 C   0  0  0  0  0  0  0  0  0  0  0  0
  -30.2406  -27.6889   21.7993 C   0  0  0  0  0  0  0  0  0  0  0  0
  -24.1740  -31.5886   21.4847 C   0  0  0  0  0  0  0  0  0  0  0  0
  -29.5696  -12.1877   18.1606 C   0  0  0  0  0  0  0  0  0  0  0  0
  -25.1100  -30.9959   20.4361 C   0  0  0  0  0  0  0  0  0  0  0  0
  -28.1293  -11.9720   18.6311 C   0  0  0  0  0  0  0  0  0  0  0  0
  -30.5382  -12.3067   19.3359 C   0  0  0  0  0  0  0  0  0  0  0  0
  -28.7315  -13.0946   20.8138 C   0  0  0  0  0  0  0  0  0  0  0  0
  -25.2376  -29.4773   20.6058 C   0  0  1  0  0  0  0  0  0  0  0  0
  -28.2225  -28.7640   22.8452 C   0  0  1  0  0  0  0  0  0  0  0  0
  -27.7097  -13.0337   19.6666 C   0  0  2  0  0  0  0  0  0  0  0  0
  -35.6258  -30.0473   24.7287 C   0  0  0  0  0  0  0  0  0  0  0  0
  -31.0428  -31.1626   20.0787 C   0  0  0  0  0  0  0  0  0  0  0  0
  -33.4440  -31.2311   20.7841 C   0  0  0  0  0  0  0  0  0  0  0  0
  -31.7440  -32.5750   22.0197 C   0  0  0  0  0  0  0  0  0  0  0  0
  -33.3306  -27.4000   26.2118 C   0  0  0  0  0  0  0  0  0  0  0  0
  -31.3010  -22.9036   20.4793 C   0  0  0  0  0  0  0  0  0  1  0  0
  -31.7595  -21.4585   20.4435 C   0  0  0  0  0  0  0  0  0  0  0  0
  -31.7770  -30.0621   22.2959 C   0  0  1  0  0  0  0  0  0  0  0  0
  -34.2919  -29.3923   25.0520 C   0  0  2  0  0  0  0  0  0  0  0  0
  -31.9874  -31.2333   21.2951 C   0  0  0  0  0  0  0  0  0  0  0  0
  -25.8428  -11.5375   20.2646 N   0  0  0  0  0  0  0  0  0  0  0  0
  -26.2990  -12.7983   20.1731 N   0  0  0  0  0  0  0  0  0  0  0  0
  -29.6556  -28.8132   22.5484 N   0  0  0  0  0  0  0  0  0  0  0  0
  -30.0787  -13.3340   20.2731 N   0  0  0  0  0  0  0  0  0  0  0  0
  -25.6901  -15.0583   20.5366 N   0  0  0  0  0  0  0  0  0  0  0  0
  -21.9925  -12.7730   21.7618 N   0  0  0  0  0  0  0  0  0  0  0  0
  -30.3643  -15.3538   21.4569 N   0  0  0  0  0  0  0  0  0  0  0  0
  -26.1255  -29.1644   21.7050 N   0  0  0  0  0  0  0  0  0  0  0  0
  -32.6395  -30.1182   23.4712 N   0  0  0  0  0  0  0  0  0  0  0  0
  -34.5565  -28.1359   25.8086 N   0  3  0  0  0  0  0  0  0  0  0  0
  -22.8976  -14.8681   21.5379 O   0  0  0  0  0  0  0  0  0  0  0  0
  -28.1412  -29.2983   20.5467 O   0  0  0  0  0  0  0  0  0  0  0  0
  -29.8994  -30.9545   23.4382 O   0  0  0  0  0  0  0  0  0  0  0  0
  -33.6435  -28.0530   23.1486 O   0  0  0  0  0  0  0  0  0  0  0  0
  -32.0421  -14.5387   20.0777 O   0  0  0  0  0  0  0  0  0  0  0  0
  -21.3567   -7.2394   21.6609 O   0  0  0  0  0  0  0  0  0  0  0  0
  -29.8884  -22.9395   20.6781 O   0  0  0  0  0  0  0  0  0  1  0  0
  -31.4058  -20.8284   21.6687 O   0  0  0  0  0  0  0  0  0  0  0  0
  -18.5215   -7.0815   26.3875 F   0  0  0  0  0  0  0  0  0  0  0  0
  -21.7429   -5.1928   23.4788 F   0  0  0  0  0  0  0  0  0  0  0  0
  -29.1079  -17.0027   23.3208 F   0  0  0  0  0  0  0  0  0  0  0  0
  -29.6184  -19.6725   23.4206 F   0  0  0  0  0  0  0  0  0  0  0  0
  1  2  1  0  0  0  0
  1  5  2  0  0  0  0
  2  6  2  0  0  0  0
  3  9  2  0  0  0  0
  3 17  1  0  0  0  0
  4 10  1  0  0  0  0
  4 17  2  0  0  0  0
  5 19  1  0  0  0  0
  6 21  1  0  0  0  0
  7 11  2  0  0  0  0
  7 20  1  0  0  0  0
  8 12  2  0  0  0  0
  8 23  1  0  0  0  0
  9 24  1  0  0  0  0
 10 24  2  0  0  0  0
 11 25  1  0  0  0  0
 12 27  1  0  0  0  0
 13 14  2  0  0  0  0
 13 26  1  0  0  0  0
 14 28  1  0  0  0  0
 15 22  1  0  0  0  0
 15 25  2  0  0  0  0
 16 28  2  0  0  0  0
 16 29  1  0  0  0  0
 17 32  1  0  0  0  0
 18 32  1  0  0  0  0
 18 33  2  0  0  0  0
 18 34  1  0  0  0  0
 19 21  2  0  0  0  0
 19 39  1  0  0  0  0
 20 22  2  0  0  0  0
 20 40  1  0  0  0  0
 21 48  1  0  0  0  0
 22 41  1  0  0  0  0
 23 30  2  0  0  0  0
 23 67  1  0  0  0  0
 24 76  1  0  0  0  0
 25 77  1  0  0  0  0
 26 29  2  0  0  0  0
 26 76  1  0  0  0  0
 27 31  2  0  0  0  0
 27 78  1  0  0  0  0
 28 79  1  0  0  0  0
 29 80  1  0  0  0  0
 30 31  1  0  0  0  0
 30 81  1  0  0  0  0
 31 82  1  0  0  0  0
 32 61  2  0  0  0  0
 33 62  1  0  0  0  0
 33 65  1  0  0  0  0
 34 66  1  0  0  0  0
 34 71  2  0  0  0  0
 35 49  1  0  0  0  0
 35 68  1  0  0  0  0
 35 72  2  0  0  0  0
 36 58  1  0  0  0  0
 36 63  1  0  0  0  0
 36 73  2  0  0  0  0
 37 59  1  0  0  0  0
 37 69  1  0  0  0  0
 37 74  2  0  0  0  0
 38 64  1  0  0  0  0
 38 67  1  0  0  0  0
 38 75  2  0  0  0  0
 39 42  1  0  0  0  0
 40 49  1  0  0  0  0
 41 63  1  0  0  0  0
 42 44  1  0  0  0  0
 43 45  1  0  0  0  0
 43 46  1  0  0  0  0
 44 48  1  0  0  0  0
 45 50  1  0  0  0  0
 46 64  1  0  0  0  0
 47 50  1  0  0  0  0
 47 64  1  0  0  0  0
 48 68  1  0  0  0  0
 49 63  1  0  0  0  0
 50 62  1  0  0  0  0
 51 59  1  0  0  0  0
 52 60  1  0  0  0  0
 53 60  1  0  0  0  0
 54 60  1  0  0  0  0
 55 70  1  0  0  0  0
 56 57  1  0  0  0  0
 56 77  1  0  0  0  0
 57 78  1  0  0  0  0
 58 60  1  0  0  0  0
 58 69  1  0  0  0  0
 59 70  1  0  0  0  0
 61 62  1  0  0  0  0
M  CHG  1  70   1
M  ISO  4  38 100  56 101  67 100  77 101
M  END
> <Batch ID>
0009

> <Smiles>
CNC(C)C(=O)NC(C(=O)N1Cc2cc([101O:1][101CH2:1]COc3ccc([100NH:0][100C:0](=O)N4CCCC(n5nc(-c6ccc(Oc7ccc(F)cc7F)cc6)c(C(N)=O)c5N)C4)c(F)c3F)ccc2CC1C(=O)NC1CCCc2ccccc21)C(C)(C)C

> <Shape>
0.281

> <Color>
0.198

> <Negative vol penalty>
0.000

$$$$

  -OEChem-04042320373D

 82 90  0     1  0  0  0  0  0999 V2000
  -25.3168  -31.7623   24.3911 C   0  0  0  0  0  0  0  0  0  0  0  0
  -26.0449  -30.6051   24.6482 C   0  0  0  0  0  0  0  0  0  0  0  0
  -23.4187   -9.7598   20.7645 C   0  0  0  0  0  0  0  0  0  0  0  0
  -23.9654  -10.4258   23.0216 C   0  0  0  0  0  0  0  0  0  0  0  0
  -24.7052  -31.9385   23.1506 C   0  0  0  0  0  0  0  0  0  0  0  0
  -26.1610  -29.6229   23.6652 C   0  0  0  0  0  0  0  0  0  0  0  0
  -31.0030  -26.0245   22.6104 C   0  0  0  0  0  0  0  0  0  0  0  0
  -32.8702  -16.2785   22.7590 C   0  0  0  0  0  0  0  0  0  0  0  0
  -32.8983  -17.6730   22.7588 C   0  0  0  0  0  0  0  0  0  0  0  0
  -22.7504   -8.6390   21.2571 C   0  0  0  0  0  0  0  0  0  0  0  0
  -23.2971   -9.3050   23.5143 C   0  0  0  0  0  0  0  0  0  0  0  0
  -31.2952  -24.7126   22.9812 C   0  0  0  0  0  0  0  0  0  0  0  0
  -20.1023   -8.3646   24.0885 C   0  0  0  0  0  0  0  0  0  0  0  0
  -19.2485   -8.5472   25.1763 C   0  0  0  0  0  0  0  0  0  0  0  0
  -30.4814  -23.9347   20.8477 C   0  0  0  0  0  0  0  0  0  0  0  0
  -30.8378  -17.7147   24.0198 C   0  0  0  0  0  0  0  0  0  0  0  0
  -20.5700   -6.9960   26.4741 C   0  0  0  0  0  0  0  0  0  0  0  0
  -24.0262  -10.6533   21.6468 C   0  0  0  0  0  0  0  0  0  0  0  0
  -24.1734  -13.0863   20.8941 C   0  0  0  0  0  0  0  0  0  0  0  0
  -24.8220  -30.9623   22.1485 C   0  0  0  0  0  0  0  0  0  0  0  0
  -30.4367  -26.3007   21.3576 C   0  0  0  0  0  0  0  0  0  0  0  0
  -25.5494  -29.7856   22.4106 C   0  0  0  0  0  0  0  0  0  0  0  0
  -30.1853  -25.2512   20.4624 C   0  0  0  0  0  0  0  0  0  0  0  0
  -31.8259  -15.6020   23.3895 C   0  0  0  0  0  0  0  0  0  0  0  0
  -30.8098  -16.3201   24.0199 C   0  0  0  0  0  0  0  0  0  0  0  0
  -31.8821  -18.3911   23.3892 C   0  0  0  0  0  0  0  0  0  0  0  0
  -22.6895   -8.4116   22.6320 C   0  0  0  0  0  0  0  0  0  0  0  0
  -31.0317  -23.6673   22.1009 C   0  0  0  0  0  0  0  0  0  0  0  0
  -21.1900   -7.4976   24.1935 C   0  0  0  0  0  0  0  0  0  0  0  0
  -19.4823   -7.8629   26.3690 C   0  0  0  0  0  0  0  0  0  0  0  0
  -21.4239   -6.8134   25.3863 C   0  0  0  0  0  0  0  0  0  0  0  0
  -24.7172  -11.8110   21.1385 C   0  0  0  0  0  0  0  0  0  0  0  0
  -25.2301  -13.8252   20.4210 C   0  0  0  0  0  0  0  0  0  0  0  0
  -22.8330  -13.5605   21.0784 C   0  0  0  0  0  0  0  0  0  0  0  0
  -27.7063  -27.5907   20.3654 C   0  0  0  0  0  0  0  0  0  0  0  0
  -29.0997  -27.3385   17.4470 C   0  0  0  0  0  0  0  0  0  0  0  0
  -31.4010  -25.7894   15.4594 C   0  0  0  0  0  0  0  0  0  0  0  0
  -31.1606  -13.3596   21.1023 C   0  0  0  0  0  0  0  0  0  0  0  0
  -24.1038  -31.1760   20.8396 C   0  0  0  0  0  0  0  0  0  0  0  0
  -30.1521  -27.7238   20.9623 C   0  0  0  0  0  0  0  0  0  0  0  0
  -29.5969  -25.4966   19.0979 C   0  0  0  0  0  0  0  0  0  0  0  0
  -24.5880  -30.2560   19.7219 C   0  0  0  0  0  0  0  0  0  0  0  0
  -29.3517  -13.3639   18.0355 C   0  0  0  0  0  0  0  0  0  0  0  0
  -24.6976  -28.8194   20.2228 C   0  0  0  0  0  0  0  0  0  0  0  0
  -27.9098  -13.0814   18.4610 C   0  0  0  0  0  0  0  0  0  0  0  0
  -30.3539  -12.5907   18.8899 C   0  0  0  0  0  0  0  0  0  0  0  0
  -28.7633  -12.4999   20.7701 C   0  0  0  0  0  0  0  0  0  0  0  0
  -25.7189  -28.7085   21.3613 C   0  0  1  0  0  0  0  0  0  0  0  0
  -29.1004  -27.8397   19.8633 C   0  0  1  0  0  0  0  0  0  0  0  0
  -27.7184  -13.3002   19.9739 C   0  0  2  0  0  0  0  0  0  0  0  0
  -29.6809  -15.6175   24.7001 C   0  0  0  0  0  0  0  0  0  0  0  0
  -32.2821  -25.7733   13.1098 C   0  0  0  0  0  0  0  0  0  0  0  0
  -26.6076  -25.8385   16.5253 C   0  0  0  0  0  0  0  0  0  0  0  0
  -27.9071  -25.0407   14.5396 C   0  0  0  0  0  0  0  0  0  0  0  0
  -27.5088  -27.4811   14.8688 C   0  0  0  0  0  0  0  0  0  0  0  0
  -34.1242  -26.5286   16.3520 C   0  0  0  0  0  0  0  0  0  0  0  0
  -31.8169  -14.1087   23.3754 C   0  0  0  0  0  0  0  0  0  0  0  0
  -30.9018  -20.5980   24.0171 C   0  0  0  0  0  0  0  0  0  0  0  0
  -31.2413  -22.0697   23.8501 C   0  0  0  0  0  0  0  0  0  1  0  0
  -29.1471  -26.2788   16.3729 C   0  0  1  0  0  0  0  0  0  0  0  0
  -32.4477  -26.3436   14.5098 C   0  0  2  0  0  0  0  0  0  0  0  0
  -27.8019  -26.1546   15.6031 C   0  0  0  0  0  0  0  0  0  0  0  0
  -26.0183  -11.7403   20.8447 N   0  0  0  0  0  0  0  0  0  0  0  0
  -26.3008  -12.9804   20.4108 N   0  0  0  0  0  0  0  0  0  0  0  0
  -29.3302  -26.9045   18.7601 N   0  0  0  0  0  0  0  0  0  0  0  0
  -30.1192  -12.8430   20.3137 N   0  0  0  0  0  0  0  0  0  0  0  0
  -25.3385  -15.1087   20.0168 N   0  0  0  0  0  0  0  0  0  0  0  0
  -21.8711  -12.6695   21.5735 N   0  0  0  0  0  0  0  0  0  0  0  0
  -31.9109  -19.7759   23.3896 N   0  0  0  0  0  0  0  0  0  0  0  0
  -27.0667  -28.7223   20.8343 N   0  0  0  0  0  0  0  0  0  0  0  0
  -30.2911  -26.6045   15.5282 N   0  0  0  0  0  0  0  0  0  0  0  0
  -30.8521  -13.5752   22.4398 N   0  0  0  0  0  0  0  0  0  0  0  0
  -33.8164  -26.0086   14.9949 N   0  3  0  0  0  0  0  0  0  0  0  0
  -22.4944  -14.7350   20.7964 O   0  0  0  0  0  0  0  0  0  0  0  0
  -27.2445  -26.4562   20.3287 O   0  0  0  0  0  0  0  0  0  0  0  0
  -28.8737  -28.5095   17.1316 O   0  0  0  0  0  0  0  0  0  0  0  0
  -31.5513  -24.7365   16.0754 O   0  0  0  0  0  0  0  0  0  0  0  0
  -32.2805  -13.6150   20.6468 O   0  0  0  0  0  0  0  0  0  0  0  0
  -22.0373   -7.3181   23.1130 O   0  0  0  0  0  0  0  0  0  0  0  0
  -31.3154  -22.3858   22.4606 O   0  0  0  0  0  0  0  0  0  1  0  0
  -18.6631   -8.0395   27.4140 F   0  0  0  0  0  0  0  0  0  0  0  0
  -22.4679   -5.9801   25.4936 F   0  0  0  0  0  0  0  0  0  0  0  0
  1  2  1  0  0  0  0
  1  5  2  0  0  0  0
  2  6  2  0  0  0  0
  3 10  2  0  0  0  0
  3 18  1  0  0  0  0
  4 11  1  0  0  0  0
  4 18  2  0  0  0  0
  5 20  1  0  0  0  0
  6 22  1  0  0  0  0
  7 12  2  0  0  0  0
  7 21  1  0  0  0  0
  8  9  2  0  0  0  0
  8 24  1  0  0  0  0
  9 26  1  0  0  0  0
 10 27  1  0  0  0  0
 11 27  2  0  0  0  0
 12 28  1  0  0  0  0
 13 14  2  0  0  0  0
 13 29  1  0  0  0  0
 14 30  1  0  0  0  0
 15 23  1  0  0  0  0
 15 28  2  0  0  0  0
 16 25  1  0  0  0  0
 16 26  2  0  0  0  0
 17 30  2  0  0  0  0
 17 31  1  0  0  0  0
 18 32  1  0  0  0  0
 19 32  1  0  0  0  0
 19 33  2  0  0  0  0
 19 34  1  0  0  0  0
 20 22  2  0  0  0  0
 20 39  1  0  0  0  0
 21 23  2  0  0  0  0
 21 40  1  0  0  0  0
 22 48  1  0  0  0  0
 23 41  1  0  0  0  0
 24 25  2  0  0  0  0
 24 57  1  0  0  0  0
 25 51  1  0  0  0  0
 26 69  1  0  0  0  0
 27 79  1  0  0  0  0
 28 80  1  0  0  0  0
 29 31  2  0  0  0  0
 29 79  1  0  0  0  0
 30 81  1  0  0  0  0
 31 82  1  0  0  0  0
 32 63  2  0  0  0  0
 33 64  1  0  0  0  0
 33 67  1  0  0  0  0
 34 68  1  0  0  0  0
 34 74  2  0  0  0  0
 35 49  1  0  0  0  0
 35 70  1  0  0  0  0
 35 75  2  0  0  0  0
 36 60  1  0  0  0  0
 36 65  1  0  0  0  0
 36 76  2  0  0  0  0
 37 61  1  0  0  0  0
 37 71  1  0  0  0  0
 37 77  2  0  0  0  0
 38 66  1  0  0  0  0
 38 72  1  0  0  0  0
 38 78  2  0  0  0  0
 39 42  1  0  0  0  0
 40 49  1  0  0  0  0
 41 65  1  0  0  0  0
 42 44  1  0  0  0  0
 43 45  1  0  0  0  0
 43 46  1  0  0  0  0
 44 48  1  0  0  0  0
 45 50  1  0  0  0  0
 46 66  1  0  0  0  0
 47 50  1  0  0  0  0
 47 66  1  0  0  0  0
 48 70  1  0  0  0  0
 49 65  1  0  0  0  0
 50 64  1  0  0  0  0
 52 61  1  0  0  0  0
 53 62  1  0  0  0  0
 54 62  1  0  0  0  0
 55 62  1  0  0  0  0
 56 73  1  0  0  0  0
 57 72  1  0  0  0  0
 58 59  1  0  0  0  0
 58 69  1  0  0  0  0
 59 80  1  0  0  0  0
 60 62  1  0  0  0  0
 60 71  1  0  0  0  0
 61 73  1  0  0  0  0
 63 64  1  0  0  0  0
M  CHG  1  73   1
M  ISO  4  38 100  59 101  72 100  80 101
M  END
> <Batch ID>
0009

> <Smiles>
CNC(C)C(=O)NC(C(=O)N1Cc2cc([101O:1][101CH2:1]CNc3ccc(C[100NH:0][100C:0](=O)N4CCCC(n5nc(-c6ccc(Oc7ccc(F)cc7F)cc6)c(C(N)=O)c5N)C4)c(C)c3)ccc2CC1C(=O)NC1CCCc2ccccc21)C(C)(C)C

> <Shape>
0.264

> <Color>
0.171

> <Negative vol penalty>
0.000

$$$$

  -OEChem-04042320373D

 84 93  0     1  0  0  0  0  0999 V2000
  -39.0602  -27.9110   21.1903 C   0  0  0  0  0  0  0  0  0  0  0  0
  -38.0268  -27.1327   21.7019 C   0  0  0  0  0  0  0  0  0  0  0  0
  -23.0754   -9.8688   19.9397 C   0  0  0  0  0  0  0  0  0  0  0  0
  -23.8354   -9.8737   22.2331 C   0  0  0  0  0  0  0  0  0  0  0  0
  -39.0346  -28.3112   19.8550 C   0  0  0  0  0  0  0  0  0  0  0  0
  -36.9665  -26.7550   20.8787 C   0  0  0  0  0  0  0  0  0  0  0  0
  -35.7283  -21.8748   21.4215 C   0  0  0  0  0  0  0  0  0  0  0  0
  -30.4681  -18.3377   24.0493 C   0  0  0  0  0  0  0  0  0  0  0  0
  -32.6519  -17.4891   23.4595 C   0  0  0  0  0  0  0  0  0  0  0  0
  -29.8803  -17.4546   23.1436 C   0  0  0  0  0  0  0  0  0  0  0  0
  -32.0641  -16.6059   22.5538 C   0  0  0  0  0  0  0  0  0  0  0  0
  -22.3313   -8.7156   20.1887 C   0  0  0  0  0  0  0  0  0  0  0  0
  -23.0912   -8.7205   22.4821 C   0  0  0  0  0  0  0  0  0  0  0  0
  -34.9722  -21.5304   22.5411 C   0  0  0  0  0  0  0  0  0  0  0  0
  -19.8629   -7.9229   23.0840 C   0  0  0  0  0  0  0  0  0  0  0  0
  -19.1059   -7.8822   24.2549 C   0  0  0  0  0  0  0  0  0  0  0  0
  -32.9808  -21.5020   21.1800 C   0  0  0  0  0  0  0  0  0  0  0  0
  -20.3469   -5.9439   24.9897 C   0  0  0  0  0  0  0  0  0  0  0  0
  -23.8275  -10.4479   20.9619 C   0  0  0  0  0  0  0  0  0  0  0  0
  -24.1699  -12.9730   20.8439 C   0  0  0  0  0  0  0  0  0  0  0  0
  -37.9783  -27.9301   19.0125 C   0  0  0  0  0  0  0  0  0  0  0  0
  -35.1137  -22.0462   20.1728 C   0  0  0  0  0  0  0  0  0  0  0  0
  -36.9261  -27.1516   19.5312 C   0  0  0  0  0  0  0  0  0  0  0  0
  -33.7317  -21.8460   20.0456 C   0  0  0  0  0  0  0  0  0  0  0  0
  -31.8539  -18.3550   24.2072 C   0  0  0  0  0  0  0  0  0  0  0  0
  -30.6783  -16.5887   22.3959 C   0  0  0  0  0  0  0  0  0  0  0  0
  -22.3392   -8.1415   21.4599 C   0  0  0  0  0  0  0  0  0  0  0  0
  -33.5978  -21.3468   22.4211 C   0  0  0  0  0  0  0  0  0  0  0  0
  -20.8618   -6.9741   22.8659 C   0  0  0  0  0  0  0  0  0  0  0  0
  -19.3480   -6.8927   25.2078 C   0  0  0  0  0  0  0  0  0  0  0  0
  -21.1039   -5.9846   23.8188 C   0  0  0  0  0  0  0  0  0  0  0  0
  -24.5969  -11.6388   20.7051 C   0  0  0  0  0  0  0  0  0  0  0  0
  -25.2622  -13.7226   20.4813 C   0  0  0  0  0  0  0  0  0  0  0  0
  -22.8995  -13.4888   21.2633 C   0  0  0  0  0  0  0  0  0  0  0  0
  -34.7886  -24.4742   18.1472 C   0  0  0  0  0  0  0  0  0  0  0  0
  -33.4641  -22.2033   16.2470 C   0  0  0  0  0  0  0  0  0  0  0  0
  -31.8773  -19.1914   16.0067 C   0  0  0  0  0  0  0  0  0  0  0  0
  -30.7286  -14.7668   20.6567 C   0  0  0  0  0  0  0  0  0  0  0  0
  -37.9705  -28.4265   17.5883 C   0  0  0  0  0  0  0  0  0  0  0  0
  -35.9473  -22.3916   18.9694 C   0  0  0  0  0  0  0  0  0  0  0  0
  -33.0268  -21.9982   18.7233 C   0  0  0  0  0  0  0  0  0  0  0  0
  -36.9995  -27.6705   16.6851 C   0  0  0  0  0  0  0  0  0  0  0  0
  -29.6137  -12.3552   18.2865 C   0  0  0  0  0  0  0  0  0  0  0  0
  -32.8258  -17.2723   28.2486 C   0  0  0  0  0  0  0  0  0  0  0  0
  -32.8117  -18.7226   28.6878 C   0  0  0  0  0  0  0  0  0  0  0  0
  -35.6451  -27.5145   17.3694 C   0  0  0  0  0  0  0  0  0  0  0  0
  -28.1739  -12.0636   18.7159 C   0  0  0  0  0  0  0  0  0  0  0  0
  -30.5288  -12.5828   19.4883 C   0  0  0  0  0  0  0  0  0  0  0  0
  -28.6221  -13.3066   20.8702 C   0  0  0  0  0  0  0  0  0  0  0  0
  -32.4393  -17.3662   26.7882 C   0  0  0  0  0  0  0  0  0  0  0  0
  -33.4488  -19.4657   27.5267 C   0  0  0  0  0  0  0  0  0  0  0  0
  -35.7712  -26.7011   18.6633 C   0  0  1  0  0  0  0  0  0  0  0  0
  -35.1405  -23.0438   17.8509 C   0  0  1  0  0  0  0  0  0  0  0  0
  -27.6492  -13.1345   19.6923 C   0  0  2  0  0  0  0  0  0  0  0  0
  -30.8867  -17.6155   14.3237 C   0  0  0  0  0  0  0  0  0  0  0  0
  -31.0354  -24.0294   15.9703 C   0  0  0  0  0  0  0  0  0  0  0  0
  -29.7435  -22.0648   15.1100 C   0  0  0  0  0  0  0  0  0  0  0  0
  -31.7332  -22.8937   13.8542 C   0  0  0  0  0  0  0  0  0  0  0  0
  -33.7569  -17.0302   16.7517 C   0  0  0  0  0  0  0  0  0  0  0  0
  -33.5061  -20.2463   24.5274 C   0  0  0  0  0  0  0  0  0  1  0  0
  -32.4906  -19.3117   25.1884 C   0  0  2  0  0  0  0  0  0  0  0  0
  -32.0694  -21.6646   16.0379 C   0  0  1  0  0  0  0  0  0  0  0  0
  -32.1299  -17.9880   15.1165 C   0  0  2  0  0  0  0  0  0  0  0  0
  -31.1581  -22.6621   15.2685 C   0  0  0  0  0  0  0  0  0  0  0  0
  -25.8617  -11.5430   20.2867 N   0  0  0  0  0  0  0  0  0  0  0  0
  -26.2389  -12.8266   20.1595 N   0  0  0  0  0  0  0  0  0  0  0  0
  -33.8843  -22.3429   17.5773 N   0  0  0  0  0  0  0  0  0  0  0  0
  -29.9701  -13.6131   20.3666 N   0  0  0  0  0  0  0  0  0  0  0  0
  -25.4729  -15.0541   20.4094 N   0  0  0  0  0  0  0  0  0  0  0  0
  -21.8874  -12.5795   21.5998 N   0  0  0  0  0  0  0  0  0  0  0  0
  -30.0815  -15.6914   21.4759 N   0  0  0  0  0  0  0  0  0  0  0  0
  -35.8830  -25.2896   18.3640 N   0  0  0  0  0  0  0  0  0  0  0  0
  -32.2257  -20.3705   15.3826 N   0  0  0  0  0  0  0  0  0  0  0  0
  -33.1743  -18.5995   26.3109 N   0  3  0  0  0  0  0  0  0  0  0  0
  -32.5335  -16.8118   15.9378 N   0  3  0  0  0  0  0  0  0  0  0  0
  -22.6635  -14.7194   21.3217 O   0  0  0  0  0  0  0  0  0  0  0  0
  -33.6114  -24.8133   18.1756 O   0  0  0  0  0  0  0  0  0  0  0  0
  -34.1578  -22.4829   15.2661 O   0  0  0  0  0  0  0  0  0  0  0  0
  -31.4136  -19.0954   17.1409 O   0  0  0  0  0  0  0  0  0  0  0  0
  -31.8577  -14.9357   20.1893 O   0  0  0  0  0  0  0  0  0  0  0  0
  -21.6130   -7.0163   21.7033 O   0  0  0  0  0  0  0  0  0  0  0  0
  -32.8573  -21.0113   23.5124 O   0  0  0  0  0  0  0  0  0  1  0  0
  -18.6220   -6.8546   26.3328 F   0  0  0  0  0  0  0  0  0  0  0  0
  -22.0630   -5.0711   23.6154 F   0  0  0  0  0  0  0  0  0  0  0  0
  1  2  1  0  0  0  0
  1  5  2  0  0  0  0
  2  6  2  0  0  0  0
  3 12  2  0  0  0  0
  3 19  1  0  0  0  0
  4 13  1  0  0  0  0
  4 19  2  0  0  0  0
  5 21  1  0  0  0  0
  6 23  1  0  0  0  0
  7 14  2  0  0  0  0
  7 22  1  0  0  0  0
  8 10  2  0  0  0  0
  8 25  1  0  0  0  0
  9 11  1  0  0  0  0
  9 25  2  0  0  0  0
 10 26  1  0  0  0  0
 11 26  2  0  0  0  0
 12 27  1  0  0  0  0
 13 27  2  0  0  0  0
 14 28  1  0  0  0  0
 15 16  2  0  0  0  0
 15 29  1  0  0  0  0
 16 30  1  0  0  0  0
 17 24  1  0  0  0  0
 17 28  2  0  0  0  0
 18 30  2  0  0  0  0
 18 31  1  0  0  0  0
 19 32  1  0  0  0  0
 20 32  1  0  0  0  0
 20 33  2  0  0  0  0
 20 34  1  0  0  0  0
 21 23  2  0  0  0  0
 21 39  1  0  0  0  0
 22 24  2  0  0  0  0
 22 40  1  0  0  0  0
 23 52  1  0  0  0  0
 24 41  1  0  0  0  0
 25 61  1  0  0  0  0
 26 71  1  0  0  0  0
 27 81  1  0  0  0  0
 28 82  1  0  0  0  0
 29 31  2  0  0  0  0
 29 81  1  0  0  0  0
 30 83  1  0  0  0  0
 31 84  1  0  0  0  0
 32 65  2  0  0  0  0
 33 66  1  0  0  0  0
 33 69  1  0  0  0  0
 34 70  1  0  0  0  0
 34 76  2  0  0  0  0
 35 53  1  0  0  0  0
 35 72  1  0  0  0  0
 35 77  2  0  0  0  0
 36 62  1  0  0  0  0
 36 67  1  0  0  0  0
 36 78  2  0  0  0  0
 37 63  1  0  0  0  0
 37 73  1  0  0  0  0
 37 79  2  0  0  0  0
 38 68  1  0  0  0  0
 38 71  1  0  0  0  0
 38 80  2  0  0  0  0
 39 42  1  0  0  0  0
 40 53  1  0  0  0  0
 41 67  1  0  0  0  0
 42 46  1  0  0  0  0
 43 47  1  0  0  0  0
 43 48  1  0  0  0  0
 44 45  1  0  0  0  0
 44 50  1  0  0  0  0
 45 51  1  0  0  0  0
 46 52  1  0  0  0  0
 47 54  1  0  0  0  0
 48 68  1  0  0  0  0
 49 54  1  0  0  0  0
 49 68  1  0  0  0  0
 50 74  1  0  0  0  0
 51 74  1  0  0  0  0
 52 72  1  0  0  0  0
 53 67  1  0  0  0  0
 54 66  1  0  0  0  0
 55 63  1  0  0  0  0
 56 64  1  0  0  0  0
 57 64  1  0  0  0  0
 58 64  1  0  0  0  0
 59 75  1  0  0  0  0
 60 61  1  0  0  0  0
 60 82  1  0  0  0  0
 61 74  1  0  0  0  0
 62 64  1  0  0  0  0
 62 73  1  0  0  0  0
 63 75  1  0  0  0  0
 65 66  1  0  0  0  0
M  CHG  2  74   1  75   1
M  ISO  4  38 100  60 101  71 100  82 101
M  END
> <Batch ID>
0009

> <Smiles>
CNC(C)C(=O)NC(C(=O)N1Cc2cc([101O:1][101CH2:1]C(c3ccc([100NH:0][100C:0](=O)N4CCCC(n5nc(-c6ccc(Oc7ccc(F)cc7F)cc6)c(C(N)=O)c5N)C4)cc3)N3CCCC3)ccc2CC1C(=O)NC1CCCc2ccccc21)C(C)(C)C

> <Shape>
0.169

> <Color>
0.188

> <Negative vol penalty>
0.000

$$$$

  -OEChem-04042320373D

 84 93  0     1  0  0  0  0  0999 V2000
  -22.6955  -33.6752   27.1104 C   0  0  0  0  0  0  0  0  0  0  0  0
  -23.2016  -32.4276   27.4610 C   0  0  0  0  0  0  0  0  0  0  0  0
  -23.1239   -9.8438   19.9900 C   0  0  0  0  0  0  0  0  0  0  0  0
  -23.8087   -9.9785   22.3030 C   0  0  0  0  0  0  0  0  0  0  0  0
  -22.1528  -33.8746   25.8417 C   0  0  0  0  0  0  0  0  0  0  0  0
  -23.1642  -31.3784   26.5433 C   0  0  0  0  0  0  0  0  0  0  0  0
  -27.3159  -26.9269   25.8697 C   0  0  0  0  0  0  0  0  0  0  0  0
  -29.1896  -19.0834   21.9927 C   0  0  0  0  0  0  0  0  0  0  0  0
  -28.3414  -19.9224   22.7152 C   0  0  0  0  0  0  0  0  0  0  0  0
  -22.3900   -8.6923   20.2743 C   0  0  0  0  0  0  0  0  0  0  0  0
  -23.0747   -8.8270   22.5874 C   0  0  0  0  0  0  0  0  0  0  0  0
  -27.3631  -25.6111   26.3283 C   0  0  0  0  0  0  0  0  0  0  0  0
  -19.4086   -7.9199   21.6700 C   0  0  0  0  0  0  0  0  0  0  0  0
  -18.1190   -7.8274   21.1466 C   0  0  0  0  0  0  0  0  0  0  0  0
  -26.4727  -24.8505   24.2193 C   0  0  0  0  0  0  0  0  0  0  0  0
  -28.6685  -18.5587   24.6826 C   0  0  0  0  0  0  0  0  0  0  0  0
  -18.7509   -5.8302   19.9428 C   0  0  0  0  0  0  0  0  0  0  0  0
  -23.8334  -10.4869   21.0043 C   0  0  0  0  0  0  0  0  0  0  0  0
  -24.1404  -13.0083   20.7675 C   0  0  0  0  0  0  0  0  0  0  0  0
  -22.1175  -32.8300   24.9047 C   0  0  0  0  0  0  0  0  0  0  0  0
  -26.8357  -27.2159   24.5843 C   0  0  0  0  0  0  0  0  0  0  0  0
  -22.6193  -31.5637   25.2613 C   0  0  0  0  0  0  0  0  0  0  0  0
  -26.4228  -26.1706   23.7459 C   0  0  0  0  0  0  0  0  0  0  0  0
  -29.7773  -17.9820   22.6150 C   0  0  0  0  0  0  0  0  0  0  0  0
  -28.0808  -19.6601   24.0602 C   0  0  0  0  0  0  0  0  0  0  0  0
  -22.3653   -8.1839   21.5730 C   0  0  0  0  0  0  0  0  0  0  0  0
  -26.9388  -24.5730   25.5041 C   0  0  0  0  0  0  0  0  0  0  0  0
  -20.3694   -6.9676   21.3298 C   0  0  0  0  0  0  0  0  0  0  0  0
  -17.7901   -6.7826   20.2830 C   0  0  0  0  0  0  0  0  0  0  0  0
  -29.5167  -17.7197   23.9600 C   0  0  0  0  0  0  0  0  0  0  0  0
  -20.0405   -5.9227   20.4662 C   0  0  0  0  0  0  0  0  0  0  0  0
  -24.5922  -11.6762   20.7111 C   0  0  0  0  0  0  0  0  0  0  0  0
  -25.2323  -13.7569   20.4015 C   0  0  0  0  0  0  0  0  0  0  0  0
  -22.8493  -13.5230   21.1193 C   0  0  0  0  0  0  0  0  0  0  0  0
  -24.3994  -28.8966   23.4253 C   0  0  0  0  0  0  0  0  0  0  0  0
  -25.7914  -28.2150   20.5757 C   0  0  0  0  0  0  0  0  0  0  0  0
  -27.8266  -26.1608   18.7632 C   0  0  0  0  0  0  0  0  0  0  0  0
  -30.6909  -14.8763   20.7116 C   0  0  0  0  0  0  0  0  0  0  0  0
  -21.4780  -33.0805   23.5620 C   0  0  0  0  0  0  0  0  0  0  0  0
  -26.8162  -28.6380   24.0948 C   0  0  0  0  0  0  0  0  0  0  0  0
  -25.9178  -26.4259   22.3501 C   0  0  0  0  0  0  0  0  0  0  0  0
  -21.8169  -32.0191   22.5184 C   0  0  0  0  0  0  0  0  0  0  0  0
  -29.6678  -12.3564   18.4138 C   0  0  0  0  0  0  0  0  0  0  0  0
  -21.6594  -30.6212   23.1081 C   0  0  0  0  0  0  0  0  0  0  0  0
  -28.2217  -12.0605   18.8153 C   0  0  0  0  0  0  0  0  0  0  0  0
  -25.7501  -21.2654   26.4247 C   0  0  0  0  0  0  0  0  0  0  0  0
  -30.5420  -12.6525   19.6304 C   0  0  0  0  0  0  0  0  0  0  0  0
  -26.9093  -20.2988   26.1826 C   0  0  0  0  0  0  0  0  0  0  0  0
  -28.5853  -13.4200   20.9173 C   0  0  0  0  0  0  0  0  0  0  0  0
  -26.5852  -21.6707   24.2120 C   0  0  0  0  0  0  0  0  0  0  0  0
  -22.6192  -30.4075   24.2849 C   0  0  1  0  0  0  0  0  0  0  0  0
  -25.8265  -28.8645   22.9561 C   0  0  1  0  0  0  0  0  0  0  0  0
  -27.6527  -13.1702   19.7197 C   0  0  2  0  0  0  0  0  0  0  0  0
  -26.0092  -22.3889   25.4316 C   0  0  2  0  0  0  0  0  0  1  0  0
  -28.7435  -25.8379   16.4497 C   0  0  0  0  0  0  0  0  0  0  0  0
  -23.0947  -27.1177   19.6628 C   0  0  0  0  0  0  0  0  0  0  0  0
  -24.2769  -25.9772   17.7734 C   0  0  0  0  0  0  0  0  0  0  0  0
  -24.3091  -28.4659   17.9417 C   0  0  0  0  0  0  0  0  0  0  0  0
  -30.6168  -26.4684   19.7007 C   0  0  0  0  0  0  0  0  0  0  0  0
  -30.6838  -17.0869   21.8395 C   0  0  0  0  0  0  0  0  0  0  0  0
  -25.6747  -27.0957   19.5695 C   0  0  1  0  0  0  0  0  0  0  0  0
  -28.9758  -26.4603   17.8177 C   0  0  2  0  0  0  0  0  0  0  0  0
  -24.3465  -27.1592   18.7638 C   0  0  0  0  0  0  0  0  0  0  0  0
  -25.8713  -11.5808   20.3385 N   0  0  0  0  0  0  0  0  0  0  0  0
  -26.2326  -12.8625   20.1573 N   0  0  0  0  0  0  0  0  0  0  0  0
  -27.2423  -20.4902   24.7742 N   0  0  3  0  0  0  0  0  0  0  0  0
  -25.9120  -27.8338   21.9195 N   0  0  0  0  0  0  0  0  0  0  0  0
  -29.9473  -13.7147   20.4453 N   0  0  0  0  0  0  0  0  0  0  0  0
  -25.4246  -15.0864   20.2679 N   0  0  0  0  0  0  0  0  0  0  0  0
  -21.8409  -12.6149   21.4700 N   0  0  0  0  0  0  0  0  0  0  0  0
  -23.9597  -30.1508   23.8036 N   0  0  0  0  0  0  0  0  0  0  0  0
  -26.8770  -27.1605   18.7456 N   0  0  0  0  0  0  0  0  0  0  0  0
  -30.0506  -15.8359   21.4862 N   0  0  0  0  0  0  0  0  0  0  0  0
  -30.2525  -25.9231   18.3677 N   0  3  0  0  0  0  0  0  0  0  0  0
  -22.5926  -14.7508   21.1068 O   0  0  0  0  0  0  0  0  0  0  0  0
  -23.7452  -27.8606   23.4414 O   0  0  0  0  0  0  0  0  0  0  0  0
  -25.7832  -29.3844   20.1831 O   0  0  0  0  0  0  0  0  0  0  0  0
  -27.7744  -25.1403   19.4461 O   0  0  0  0  0  0  0  0  0  0  0  0
  -31.8381  -15.0479   20.2859 O   0  0  0  0  0  0  0  0  0  0  0  0
  -21.6490   -7.0603   21.8509 O   0  0  0  0  0  0  0  0  0  0  0  0
  -26.9832  -23.2878   25.9494 O   0  0  0  0  0  0  0  0  0  1  0  0
  -16.5513   -6.6930   19.7816 F   0  0  0  0  0  0  0  0  0  0  0  0
  -30.0759  -16.6631   24.5663 F   0  0  0  0  0  0  0  0  0  0  0  0
  -20.9589   -5.0042   20.1366 F   0  0  0  0  0  0  0  0  0  0  0  0
  1  2  1  0  0  0  0
  1  5  2  0  0  0  0
  2  6  2  0  0  0  0
  3 10  2  0  0  0  0
  3 18  1  0  0  0  0
  4 11  1  0  0  0  0
  4 18  2  0  0  0  0
  5 20  1  0  0  0  0
  6 22  1  0  0  0  0
  7 12  2  0  0  0  0
  7 21  1  0  0  0  0
  8  9  2  0  0  0  0
  8 24  1  0  0  0  0
  9 25  1  0  0  0  0
 10 26  1  0  0  0  0
 11 26  2  0  0  0  0
 12 27  1  0  0  0  0
 13 14  2  0  0  0  0
 13 28  1  0  0  0  0
 14 29  1  0  0  0  0
 15 23  1  0  0  0  0
 15 27  2  0  0  0  0
 16 25  2  0  0  0  0
 16 30  1  0  0  0  0
 17 29  2  0  0  0  0
 17 31  1  0  0  0  0
 18 32  1  0  0  0  0
 19 32  1  0  0  0  0
 19 33  2  0  0  0  0
 19 34  1  0  0  0  0
 20 22  2  0  0  0  0
 20 39  1  0  0  0  0
 21 23  2  0  0  0  0
 21 40  1  0  0  0  0
 22 51  1  0  0  0  0
 23 41  1  0  0  0  0
 24 30  2  0  0  0  0
 24 60  1  0  0  0  0
 25 66  1  0  0  0  0
 26 80  1  0  0  0  0
 27 81  1  0  0  0  0
 28 31  2  0  0  0  0
 28 80  1  0  0  0  0
 29 82  1  0  0  0  0
 30 83  1  0  0  0  0
 31 84  1  0  0  0  0
 32 64  2  0  0  0  0
 33 65  1  0  0  0  0
 33 69  1  0  0  0  0
 34 70  1  0  0  0  0
 34 75  2  0  0  0  0
 35 52  1  0  0  0  0
 35 71  1  0  0  0  0
 35 76  2  0  0  0  0
 36 61  1  0  0  0  0
 36 67  1  0  0  0  0
 36 77  2  0  0  0  0
 37 62  1  0  0  0  0
 37 72  1  0  0  0  0
 37 78  2  0  0  0  0
 38 68  1  0  0  0  0
 38 73  1  0  0  0  0
 38 79  2  0  0  0  0
 39 42  1  0  0  0  0
 40 52  1  0  0  0  0
 41 67  1  0  0  0  0
 42 44  1  0  0  0  0
 43 45  1  0  0  0  0
 43 47  1  0  0  0  0
 44 51  1  0  0  0  0
 45 53  1  0  0  0  0
 46 48  1  0  0  0  0
 46 54  1  0  0  0  0
 47 68  1  0  0  0  0
 48 66  1  0  0  0  0
 49 53  1  0  0  0  0
 49 68  1  0  0  0  0
 50 54  1  0  0  0  0
 50 66  1  0  0  0  0
 51 71  1  0  0  0  0
 52 67  1  0  0  0  0
 53 65  1  0  0  0  0
 54 81  1  0  0  0  0
 55 62  1  0  0  0  0
 56 63  1  0  0  0  0
 57 63  1  0  0  0  0
 58 63  1  0  0  0  0
 59 74  1  0  0  0  0
 60 73  1  0  0  0  0
 61 63  1  0  0  0  0
 61 72  1  0  0  0  0
 62 74  1  0  0  0  0
 64 65  1  0  0  0  0
M  CHG  1  74   1
M  ISO  4  38 100  54 101  73 100  81 101
M  END
> <Batch ID>
0009

> <Smiles>
CNC(C)C(=O)NC(C(=O)N1Cc2cc([101O:1][101CH:1]3CCN(c4ccc(C[100NH:0][100C:0](=O)N5CCCC(n6nc(-c7ccc(Oc8ccc(F)cc8F)cc7)c(C(N)=O)c6N)C5)c(F)c4)C3)ccc2CC1C(=O)NC1CCCc2ccccc21)C(C)(C)C

> <Shape>
0.237

> <Color>
0.203

> <Negative vol penalty>
0.000

$$$$

  -OEChem-04042320373D

 87 96  0     1  0  0  0  0  0999 V2000
  -36.9019  -29.6309   14.7498 C   0  0  0  0  0  0  0  0  0  0  0  0
  -36.2997  -28.3785   14.8156 C   0  0  0  0  0  0  0  0  0  0  0  0
  -23.0695   -9.8814   19.9261 C   0  0  0  0  0  0  0  0  0  0  0  0
  -23.8378   -9.8592   22.2166 C   0  0  0  0  0  0  0  0  0  0  0  0
  -36.6569  -30.5742   15.7469 C   0  0  0  0  0  0  0  0  0  0  0  0
  -35.4529  -28.0683   15.8791 C   0  0  0  0  0  0  0  0  0  0  0  0
  -30.4503  -24.5405   15.6939 C   0  0  0  0  0  0  0  0  0  0  0  0
  -22.3258   -8.7256   20.1643 C   0  0  0  0  0  0  0  0  0  0  0  0
  -23.0941   -8.7034   22.4548 C   0  0  0  0  0  0  0  0  0  0  0  0
  -30.2310  -23.2055   16.0306 C   0  0  0  0  0  0  0  0  0  0  0  0
  -19.3825   -7.9125   21.6163 C   0  0  0  0  0  0  0  0  0  0  0  0
  -18.0738   -7.8731   21.1353 C   0  0  0  0  0  0  0  0  0  0  0  0
  -29.4463  -23.8896   18.2068 C   0  0  0  0  0  0  0  0  0  0  0  0
  -18.6275   -5.9465   19.7868 C   0  0  0  0  0  0  0  0  0  0  0  0
  -23.8255  -10.4482   20.9522 C   0  0  0  0  0  0  0  0  0  0  0  0
  -24.1684  -12.9745   20.8627 C   0  0  0  0  0  0  0  0  0  0  0  0
  -35.7990  -30.2788   16.8181 C   0  0  0  0  0  0  0  0  0  0  0  0
  -30.1790  -25.5611   16.6165 C   0  0  0  0  0  0  0  0  0  0  0  0
  -35.1972  -29.0081   16.8922 C   0  0  0  0  0  0  0  0  0  0  0  0
  -29.6606  -25.2369   17.8784 C   0  0  0  0  0  0  0  0  0  0  0  0
  -30.2390  -19.1856   22.7505 C   0  0  0  0  0  0  0  0  0  0  0  0
  -30.6072  -19.8819   21.5788 C   0  0  0  0  0  0  0  0  0  0  0  0
  -30.7731  -19.1555   20.3898 C   0  0  0  0  0  0  0  0  0  0  0  0
  -30.2547  -17.0895   21.5294 C   0  0  0  0  0  0  0  0  0  0  0  0
  -22.3381   -8.1366   21.4286 C   0  0  0  0  0  0  0  0  0  0  0  0
  -29.7316  -22.8796   17.2882 C   0  0  0  0  0  0  0  0  0  0  0  0
  -20.3137   -6.9689   21.1825 C   0  0  0  0  0  0  0  0  0  0  0  0
  -17.6962   -6.8901   20.2206 C   0  0  0  0  0  0  0  0  0  0  0  0
  -19.9362   -5.9859   20.2677 C   0  0  0  0  0  0  0  0  0  0  0  0
  -30.0771  -17.7929   22.7190 C   0  0  0  0  0  0  0  0  0  0  0  0
  -30.6005  -17.7703   20.3658 C   0  0  0  0  0  0  0  0  0  0  0  0
  -24.5943  -11.6418   20.7066 C   0  0  0  0  0  0  0  0  0  0  0  0
  -25.2597  -13.7278   20.5048 C   0  0  0  0  0  0  0  0  0  0  0  0
  -22.8998  -13.4857   21.2927 C   0  0  0  0  0  0  0  0  0  0  0  0
  -31.9183  -27.7847   18.0774 C   0  0  0  0  0  0  0  0  0  0  0  0
  -29.0257  -28.7880   19.1493 C   0  0  0  0  0  0  0  0  0  0  0  0
  -25.7754  -28.0267   19.8583 C   0  0  0  0  0  0  0  0  0  0  0  0
  -30.7271  -14.7681   20.6724 C   0  0  0  0  0  0  0  0  0  0  0  0
  -35.6019  -31.3140   17.8970 C   0  0  0  0  0  0  0  0  0  0  0  0
  -30.3958  -26.9980   16.2283 C   0  0  0  0  0  0  0  0  0  0  0  0
  -30.0878  -19.9201   24.0626 C   0  0  0  0  0  0  0  0  0  0  0  0
  -29.3339  -26.2966   18.8976 C   0  0  0  0  0  0  0  0  0  0  0  0
  -34.3970  -31.0383   18.7928 C   0  0  0  0  0  0  0  0  0  0  0  0
  -29.9092  -21.4278   23.8726 C   0  0  0  0  0  0  0  0  0  0  0  0
  -29.6025  -12.3849   18.2782 C   0  0  0  0  0  0  0  0  0  0  0  0
  -34.3781  -29.5762   19.2271 C   0  0  0  0  0  0  0  0  0  0  0  0
  -28.1643  -12.0887   18.7094 C   0  0  0  0  0  0  0  0  0  0  0  0
  -30.9172  -21.9664   22.8630 C   0  0  0  0  0  0  0  0  0  0  0  0
  -30.5222  -12.5981   19.4792 C   0  0  0  0  0  0  0  0  0  0  0  0
  -28.6208  -13.3062   20.8765 C   0  0  0  0  0  0  0  0  0  0  0  0
  -34.2530  -28.6428   18.0169 C   0  0  1  0  0  0  0  0  0  0  0  0
  -30.5694  -27.9219   17.4299 C   0  0  1  0  0  0  0  0  0  0  0  0
  -27.6435  -13.1483   19.7002 C   0  0  2  0  0  0  0  0  0  0  0  0
  -23.6649  -29.0441   20.7573 C   0  0  0  0  0  0  0  0  0  0  0  0
  -30.1627  -28.6419   21.9770 C   0  0  0  0  0  0  0  0  0  0  0  0
  -27.8177  -28.7303   22.8496 C   0  0  0  0  0  0  0  0  0  0  0  0
  -28.7289  -30.6419   21.5311 C   0  0  0  0  0  0  0  0  0  0  0  0
  -24.3156  -27.5126   17.3357 C   0  0  0  0  0  0  0  0  0  0  0  0
  -30.4869  -19.3960   17.9228 C   0  0  0  0  0  0  0  0  0  0  0  0
  -30.3636  -20.6039   17.0093 C   0  0  0  0  0  0  0  0  0  1  0  0
  -28.1646  -28.4789   20.3501 C   0  0  1  0  0  0  0  0  0  0  0  0
  -24.4767  -28.7314   19.5099 C   0  0  2  0  0  0  0  0  0  0  0  0
  -28.7263  -29.1029   21.6587 C   0  0  0  0  0  0  0  0  0  0  0  0
  -25.8576  -11.5505   20.2825 N   0  0  0  0  0  0  0  0  0  0  0  0
  -26.2348  -12.8354   20.1689 N   0  0  0  0  0  0  0  0  0  0  0  0
  -30.7467  -21.2707   21.6053 N   0  0  1  0  0  0  0  0  0  0  0  0
  -29.5690  -27.6865   18.4730 N   0  0  0  0  0  0  0  0  0  0  0  0
  -29.9671  -13.6181   20.3715 N   0  0  0  0  0  0  0  0  0  0  0  0
  -25.4706  -15.0600   20.4477 N   0  0  0  0  0  0  0  0  0  0  0  0
  -21.8886  -12.5729   21.6223 N   0  0  0  0  0  0  0  0  0  0  0  0
  -30.0833  -15.6832   21.5048 N   0  0  0  0  0  0  0  0  0  0  0  0
  -31.0654  -19.7818   19.1895 N   0  0  0  0  0  0  0  0  0  0  0  0
  -32.8865  -28.6122   17.5414 N   0  0  0  0  0  0  0  0  0  0  0  0
  -26.8159  -28.9188   20.0093 N   0  0  0  0  0  0  0  0  0  0  0  0
  -23.6487  -27.8775   18.6121 N   0  3  0  0  0  0  0  0  0  0  0  0
  -22.6645  -14.7156   21.3664 O   0  0  0  0  0  0  0  0  0  0  0  0
  -32.0691  -26.9882   18.9964 O   0  0  0  0  0  0  0  0  0  0  0  0
  -29.2038  -29.9631   18.8192 O   0  0  0  0  0  0  0  0  0  0  0  0
  -25.8577  -26.8073   19.9875 O   0  0  0  0  0  0  0  0  0  0  0  0
  -31.8545  -14.9421   20.2028 O   0  0  0  0  0  0  0  0  0  0  0  0
  -21.6124   -7.0089   21.6615 O   0  0  0  0  0  0  0  0  0  0  0  0
  -29.5173  -21.5773   17.6197 O   0  0  0  0  0  0  0  0  0  1  0  0
  -16.4391   -6.8514   19.7600 F   0  0  0  0  0  0  0  0  0  0  0  0
  -20.8261   -5.0760   19.8481 F   0  0  0  0  0  0  0  0  0  0  0  0
  -29.7521  -17.1344   23.8422 F   0  0  0  0  0  0  0  0  0  0  0  0
  -30.7587  -17.0933   19.2176 F   0  0  0  0  0  0  0  0  0  0  0  0
  -31.7785  -21.6424   20.6882 F   0  0  0  0  0  0  0  0  0  0  0  0
  1  2  1  0  0  0  0
  1  5  2  0  0  0  0
  2  6  2  0  0  0  0
  3  8  2  0  0  0  0
  3 15  1  0  0  0  0
  4  9  1  0  0  0  0
  4 15  2  0  0  0  0
  5 17  1  0  0  0  0
  6 19  1  0  0  0  0
  7 10  2  0  0  0  0
  7 18  1  0  0  0  0
  8 25  1  0  0  0  0
  9 25  2  0  0  0  0
 10 26  1  0  0  0  0
 11 12  2  0  0  0  0
 11 27  1  0  0  0  0
 12 28  1  0  0  0  0
 13 20  1  0  0  0  0
 13 26  2  0  0  0  0
 14 28  2  0  0  0  0
 14 29  1  0  0  0  0
 15 32  1  0  0  0  0
 16 32  1  0  0  0  0
 16 33  2  0  0  0  0
 16 34  1  0  0  0  0
 17 19  2  0  0  0  0
 17 39  1  0  0  0  0
 18 20  2  0  0  0  0
 18 40  1  0  0  0  0
 19 51  1  0  0  0  0
 20 42  1  0  0  0  0
 21 22  1  0  0  0  0
 21 30  2  0  0  0  0
 21 41  1  0  0  0  0
 22 23  2  0  0  0  0
 22 66  1  0  0  0  0
 23 31  1  0  0  0  0
 23 72  1  0  0  0  0
 24 30  1  0  0  0  0
 24 31  2  0  0  0  0
 24 71  1  0  0  0  0
 25 81  1  0  0  0  0
 26 82  1  0  0  0  0
 27 29  2  0  0  0  0
 27 81  1  0  0  0  0
 28 83  1  0  0  0  0
 29 84  1  0  0  0  0
 30 85  1  0  0  0  0
 31 86  1  0  0  0  0
 32 64  2  0  0  0  0
 33 65  1  0  0  0  0
 33 69  1  0  0  0  0
 34 70  1  0  0  0  0
 34 76  2  0  0  0  0
 35 52  1  0  0  0  0
 35 73  1  0  0  0  0
 35 77  2  0  0  0  0
 36 61  1  0  0  0  0
 36 67  1  0  0  0  0
 36 78  2  0  0  0  0
 37 62  1  0  0  0  0
 37 74  1  0  0  0  0
 37 79  2  0  0  0  0
 38 68  1  0  0  0  0
 38 71  1  0  0  0  0
 38 80  2  0  0  0  0
 39 43  1  0  0  0  0
 40 52  1  0  0  0  0
 41 44  1  0  0  0  0
 42 67  1  0  0  0  0
 43 46  1  0  0  0  0
 44 48  1  0  0  0  0
 45 47  1  0  0  0  0
 45 49  1  0  0  0  0
 46 51  1  0  0  0  0
 47 53  1  0  0  0  0
 48 66  1  0  0  0  0
 49 68  1  0  0  0  0
 50 53  1  0  0  0  0
 50 68  1  0  0  0  0
 51 73  1  0  0  0  0
 52 67  1  0  0  0  0
 53 65  1  0  0  0  0
 54 62  1  0  0  0  0
 55 63  1  0  0  0  0
 56 63  1  0  0  0  0
 57 63  1  0  0  0  0
 58 75  1  0  0  0  0
 59 60  1  0  0  0  0
 59 72  1  0  0  0  0
 60 82  1  0  0  0  0
 61 63  1  0  0  0  0
 61 74  1  0  0  0  0
 62 75  1  0  0  0  0
 64 65  1  0  0  0  0
 66 87  1  0  0  0  0
M  CHG  1  75   1
M  ISO  4  38 100  60 101  71 100  82 101
M  END
> <Batch ID>
0009

> <Smiles>
CNC(C)C(=O)NC(C(=O)N1Cc2cc([101O:1][101CH2:1]CNc3c(F)c([100NH:0][100C:0](=O)N4CCCC(n5nc(-c6ccc(Oc7ccc(F)cc7F)cc6)c(C(N)=O)c5N)C4)c(F)c4c3N(F)CCC4)ccc2CC1C(=O)NC1CCCc2ccccc21)C(C)(C)C

> <Shape>
0.266

> <Color>
0.192

> <Negative vol penalty>
0.000

$$$$

  -OEChem-04042320373D

 83 91  0     1  0  0  0  0  0999 V2000
  -20.8639  -30.0469   27.2780 C   0  0  0  0  0  0  0  0  0  0  0  0
  -21.9672  -29.4056   26.7241 C   0  0  0  0  0  0  0  0  0  0  0  0
  -24.6218   -9.1013   22.1338 C   0  0  0  0  0  0  0  0  0  0  0  0
  -22.9744  -10.4457   20.9868 C   0  0  0  0  0  0  0  0  0  0  0  0
  -19.7012  -30.2064   26.5252 C   0  0  0  0  0  0  0  0  0  0  0  0
  -21.9081  -28.9224   25.4174 C   0  0  0  0  0  0  0  0  0  0  0  0
  -26.4826  -28.7378   21.3499 C   0  0  0  0  0  0  0  0  0  0  0  0
  -28.8769  -20.7113   22.7821 C   0  0  0  0  0  0  0  0  0  0  0  0
  -27.9154  -19.8178   23.2540 C   0  0  0  0  0  0  0  0  0  0  0  0
  -23.8054   -7.9793   21.9914 C   0  0  0  0  0  0  0  0  0  0  0  0
  -22.1579   -9.3237   20.8444 C   0  0  0  0  0  0  0  0  0  0  0  0
  -27.3462  -27.7169   20.9552 C   0  0  0  0  0  0  0  0  0  0  0  0
  -21.0600   -6.6914   23.4843 C   0  0  0  0  0  0  0  0  0  0  0  0
  -20.8928   -5.8671   24.5970 C   0  0  0  0  0  0  0  0  0  0  0  0
  -25.9048  -27.2293   19.0834 C   0  0  0  0  0  0  0  0  0  0  0  0
  -27.3217  -19.2560   20.9804 C   0  0  0  0  0  0  0  0  0  0  0  0
  -21.8268   -4.0119   23.3629 C   0  0  0  0  0  0  0  0  0  0  0  0
  -24.2062  -10.3345   21.6316 C   0  0  0  0  0  0  0  0  0  0  0  0
  -26.0387  -11.9446   20.8851 C   0  0  0  0  0  0  0  0  0  0  0  0
  -19.6310  -29.7334   25.2054 C   0  0  0  0  0  0  0  0  0  0  0  0
  -25.3160  -29.0054   20.6192 C   0  0  0  0  0  0  0  0  0  0  0  0
  -20.7428  -29.0744   24.6468 C   0  0  0  0  0  0  0  0  0  0  0  0
  -25.0293  -28.2558   19.4694 C   0  0  0  0  0  0  0  0  0  0  0  0
  -29.0608  -20.8772   21.4093 C   0  0  0  0  0  0  0  0  0  0  0  0
  -27.1378  -19.0901   22.3532 C   0  0  0  0  0  0  0  0  0  0  0  0
  -22.5735   -8.0905   21.3467 C   0  0  0  0  0  0  0  0  0  0  0  0
  -27.0559  -26.9606   19.8235 C   0  0  0  0  0  0  0  0  0  0  0  0
  -21.6106   -6.1760   22.3108 C   0  0  0  0  0  0  0  0  0  0  0  0
  -21.2762   -4.5273   24.5363 C   0  0  0  0  0  0  0  0  0  0  0  0
  -28.2832  -20.1496   20.5085 C   0  0  0  0  0  0  0  0  0  0  0  0
  -21.9940   -4.8362   22.2502 C   0  0  0  0  0  0  0  0  0  0  0  0
  -25.0489  -11.4939   21.7789 C   0  0  0  0  0  0  0  0  0  0  0  0
  -26.5474  -13.0746   21.4773 C   0  0  0  0  0  0  0  0  0  0  0  0
  -26.4606  -11.3912   19.6315 C   0  0  0  0  0  0  0  0  0  0  0  0
  -22.2028  -28.9253   21.2557 C   0  0  0  0  0  0  0  0  0  0  0  0
  -21.9589  -30.2046   18.2848 C   0  0  0  0  0  0  0  0  0  0  0  0
  -28.9403  -23.8719   20.0626 C   0  0  0  0  0  0  0  0  0  0  0  0
  -23.3431  -30.6420   15.1962 C   0  0  0  0  0  0  0  0  0  0  0  0
  -25.8486  -17.9022   24.1623 C   0  0  0  0  0  0  0  0  0  0  0  0
  -18.3365  -29.8871   24.4470 C   0  0  0  0  0  0  0  0  0  0  0  0
  -24.4085  -30.1276   21.0429 C   0  0  0  0  0  0  0  0  0  0  0  0
  -23.8002  -28.5165   18.6389 C   0  0  0  0  0  0  0  0  0  0  0  0
  -18.4838  -29.6787   22.9419 C   0  0  0  0  0  0  0  0  0  0  0  0
  -25.8774  -14.9386   26.1355 C   0  0  0  0  0  0  0  0  0  0  0  0
  -19.3082  -28.4279   22.6544 C   0  0  0  0  0  0  0  0  0  0  0  0
  -25.7458  -13.8153   25.1044 C   0  0  0  0  0  0  0  0  0  0  0  0
  -25.0507  -16.1635   25.7483 C   0  0  0  0  0  0  0  0  0  0  0  0
  -25.1670  -15.5540   23.3641 C   0  0  0  0  0  0  0  0  0  0  0  0
  -20.7259  -28.5585   23.2242 C   0  0  1  0  0  0  0  0  0  0  0  0
  -22.9844  -29.9751   20.5176 C   0  0  1  0  0  0  0  0  0  0  0  0
  -26.0332  -14.3232   23.6779 C   0  0  2  0  0  0  0  0  0  0  0  0
  -22.8907  -31.7016   12.9669 C   0  0  0  0  0  0  0  0  0  0  0  0
  -20.0208  -27.9473   17.6080 C   0  0  0  0  0  0  0  0  0  0  0  0
  -20.3491  -28.4858   15.1850 C   0  0  0  0  0  0  0  0  0  0  0  0
  -19.3628  -30.1895   16.7170 C   0  0  0  0  0  0  0  0  0  0  0  0
  -25.7106  -32.4034   15.4228 C   0  0  0  0  0  0  0  0  0  0  0  0
  -30.0982  -21.8386   20.9056 C   0  0  0  0  0  0  0  0  0  0  0  0
  -28.6326  -25.2990   20.4630 C   0  0  0  0  0  0  0  0  0  1  0  0
  -21.8262  -29.6469   16.8883 C   0  0  1  0  0  0  0  0  0  0  0  0
  -23.5216  -31.8820   14.3388 C   0  0  2  0  0  0  0  0  0  0  0  0
  -20.4120  -29.0610   16.6161 C   0  0  0  0  0  0  0  0  0  0  0  0
  -24.9340  -12.2740   22.8571 N   0  0  0  0  0  0  0  0  0  0  0  0
  -25.8584  -13.2261   22.6446 N   0  0  0  0  0  0  0  0  0  0  0  0
  -22.9407  -29.6203   19.0976 N   0  0  0  0  0  0  0  0  0  0  0  0
  -25.3794  -16.5905   24.3865 N   0  0  0  0  0  0  0  0  0  0  0  0
  -27.5124  -13.9435   21.1083 N   0  0  0  0  0  0  0  0  0  0  0  0
  -25.8324  -10.2264   19.1701 N   0  0  0  0  0  0  0  0  0  0  0  0
  -26.1597  -18.1838   22.8325 N   0  0  0  0  0  0  0  0  0  0  0  0
  -21.5382  -29.3989   22.3708 N   0  0  0  0  0  0  0  0  0  0  0  0
  -29.6716  -23.2125   21.0381 N   0  0  0  0  0  0  0  0  0  0  0  0
  -22.2122  -30.7222   15.9809 N   0  0  0  0  0  0  0  0  0  0  0  0
  -24.9701  -32.1801   14.1544 N   0  3  0  0  0  0  0  0  0  0  0  0
  -27.3791  -11.9049   18.9488 O   0  0  0  0  0  0  0  0  0  0  0  0
  -22.2015  -27.7714   20.8432 O   0  0  0  0  0  0  0  0  0  0  0  0
  -21.2237  -31.1296   18.6391 O   0  0  0  0  0  0  0  0  0  0  0  0
  -28.5735  -23.3875   18.9955 O   0  0  0  0  0  0  0  0  0  0  0  0
  -24.1264  -29.6953   15.1695 O   0  0  0  0  0  0  0  0  0  0  0  0
  -25.9916  -18.7070   25.0863 O   0  0  0  0  0  0  0  0  0  0  0  0
  -21.7767   -6.9959   21.2073 O   0  0  0  0  0  0  0  0  0  0  0  0
  -27.8968  -25.9631   19.4364 O   0  0  0  0  0  0  0  0  0  1  0  0
  -21.1169   -3.7362   25.6054 F   0  0  0  0  0  0  0  0  0  0  0  0
  -28.4526  -20.3021   19.1878 F   0  0  0  0  0  0  0  0  0  0  0  0
  -22.5246   -4.3357   21.1260 F   0  0  0  0  0  0  0  0  0  0  0  0
  1  2  1  0  0  0  0
  1  5  2  0  0  0  0
  2  6  2  0  0  0  0
  3 10  2  0  0  0  0
  3 18  1  0  0  0  0
  4 11  1  0  0  0  0
  4 18  2  0  0  0  0
  5 20  1  0  0  0  0
  6 22  1  0  0  0  0
  7 12  2  0  0  0  0
  7 21  1  0  0  0  0
  8  9  2  0  0  0  0
  8 24  1  0  0  0  0
  9 25  1  0  0  0  0
 10 26  1  0  0  0  0
 11 26  2  0  0  0  0
 12 27  1  0  0  0  0
 13 14  2  0  0  0  0
 13 28  1  0  0  0  0
 14 29  1  0  0  0  0
 15 23  1  0  0  0  0
 15 27  2  0  0  0  0
 16 25  2  0  0  0  0
 16 30  1  0  0  0  0
 17 29  2  0  0  0  0
 17 31  1  0  0  0  0
 18 32  1  0  0  0  0
 19 32  1  0  0  0  0
 19 33  2  0  0  0  0
 19 34  1  0  0  0  0
 20 22  2  0  0  0  0
 20 40  1  0  0  0  0
 21 23  2  0  0  0  0
 21 41  1  0  0  0  0
 22 49  1  0  0  0  0
 23 42  1  0  0  0  0
 24 30  2  0  0  0  0
 24 57  1  0  0  0  0
 25 68  1  0  0  0  0
 26 79  1  0  0  0  0
 27 80  1  0  0  0  0
 28 31  2  0  0  0  0
 28 79  1  0  0  0  0
 29 81  1  0  0  0  0
 30 82  1  0  0  0  0
 31 83  1  0  0  0  0
 32 62  2  0  0  0  0
 33 63  1  0  0  0  0
 33 66  1  0  0  0  0
 34 67  1  0  0  0  0
 34 73  2  0  0  0  0
 35 50  1  0  0  0  0
 35 69  1  0  0  0  0
 35 74  2  0  0  0  0
 36 59  1  0  0  0  0
 36 64  1  0  0  0  0
 36 75  2  0  0  0  0
 37 58  1  0  0  0  0
 37 70  1  0  0  0  0
 37 76  2  0  0  0  0
 38 60  1  0  0  0  0
 38 71  1  0  0  0  0
 38 77  2  0  0  0  0
 39 65  1  0  0  0  0
 39 68  1  0  0  0  0
 39 78  2  0  0  0  0
 40 43  1  0  0  0  0
 41 50  1  0  0  0  0
 42 64  1  0  0  0  0
 43 45  1  0  0  0  0
 44 46  1  0  0  0  0
 44 47  1  0  0  0  0
 45 49  1  0  0  0  0
 46 51  1  0  0  0  0
 47 65  1  0  0  0  0
 48 51  1  0  0  0  0
 48 65  1  0  0  0  0
 49 69  1  0  0  0  0
 50 64  1  0  0  0  0
 51 63  1  0  0  0  0
 52 60  1  0  0  0  0
 53 61  1  0  0  0  0
 54 61  1  0  0  0  0
 55 61  1  0  0  0  0
 56 72  1  0  0  0  0
 57 70  1  0  0  0  0
 58 80  1  0  0  0  0
 59 61  1  0  0  0  0
 59 71  1  0  0  0  0
 60 72  1  0  0  0  0
 62 63  1  0  0  0  0
M  CHG  1  72   1
M  ISO  4  39 100  58 101  68 100  80 101
M  END
> <Batch ID>
0009

> <Smiles>
CNC(C)C(=O)NC(C(=O)N1Cc2cc([101O:1][101CH2:1]C(=O)NCc3ccc([100NH:0][100C:0](=O)N4CCCC(n5nc(-c6ccc(Oc7ccc(F)cc7F)cc6)c(C(N)=O)c5N)C4)cc3F)ccc2CC1C(=O)NC1CCCc2ccccc21)C(C)(C)C

> <Shape>
0.256

> <Color>
0.119

> <Negative vol penalty>
0.000

$$$$

  -OEChem-04042320373D

 81 89  0     1  0  0  0  0  0999 V2000
  -23.6146  -32.7404   26.6417 C   0  0  0  0  0  0  0  0  0  0  0  0
  -24.8879  -32.2906   26.3072 C   0  0  0  0  0  0  0  0  0  0  0  0
  -24.0433   -9.7225   21.7174 C   0  0  0  0  0  0  0  0  0  0  0  0
  -24.6463  -10.9946   23.6809 C   0  0  0  0  0  0  0  0  0  0  0  0
  -22.4922  -32.0271   26.2230 C   0  0  0  0  0  0  0  0  0  0  0  0
  -25.0395  -31.1265   25.5547 C   0  0  0  0  0  0  0  0  0  0  0  0
  -29.3143  -28.1906   20.6127 C   0  0  0  0  0  0  0  0  0  0  0  0
  -30.7820  -18.9585   20.2106 C   0  0  0  0  0  0  0  0  0  0  0  0
  -23.6164   -8.6717   22.5293 C   0  0  0  0  0  0  0  0  0  0  0  0
  -24.2193   -9.9438   24.4928 C   0  0  0  0  0  0  0  0  0  0  0  0
  -30.0451  -27.0275   20.3746 C   0  0  0  0  0  0  0  0  0  0  0  0
  -31.0681  -20.2797   20.5541 C   0  0  0  0  0  0  0  0  0  0  0  0
  -20.9059   -7.9145   24.4036 C   0  0  0  0  0  0  0  0  0  0  0  0
  -19.6862   -7.3118   24.0959 C   0  0  0  0  0  0  0  0  0  0  0  0
  -28.0319  -25.9204   19.6392 C   0  0  0  0  0  0  0  0  0  0  0  0
  -28.7097  -20.7140   20.8479 C   0  0  0  0  0  0  0  0  0  0  0  0
  -20.8098   -5.1954   23.7874 C   0  0  0  0  0  0  0  0  0  0  0  0
  -24.5583  -10.8839   22.2932 C   0  0  0  0  0  0  0  0  0  0  0  0
  -24.2298  -13.0524   20.9902 C   0  0  0  0  0  0  0  0  0  0  0  0
  -22.6299  -30.8589   25.4568 C   0  0  0  0  0  0  0  0  0  0  0  0
  -27.9326  -28.2242   20.3757 C   0  0  0  0  0  0  0  0  0  0  0  0
  -23.9180  -30.3961   25.1265 C   0  0  0  0  0  0  0  0  0  0  0  0
  -27.2863  -27.0860   19.8726 C   0  0  0  0  0  0  0  0  0  0  0  0
  -29.4598  -18.5150   20.1855 C   0  0  0  0  0  0  0  0  0  0  0  0
  -23.7044   -8.7823   23.9170 C   0  0  0  0  0  0  0  0  0  0  0  0
  -29.4035  -25.8912   19.8905 C   0  0  0  0  0  0  0  0  0  0  0  0
  -30.0320  -21.1575   20.8728 C   0  0  0  0  0  0  0  0  0  0  0  0
  -22.0776   -7.1576   24.4031 C   0  0  0  0  0  0  0  0  0  0  0  0
  -19.6381   -5.9523   23.7878 C   0  0  0  0  0  0  0  0  0  0  0  0
  -28.4236  -19.3928   20.5042 C   0  0  0  0  0  0  0  0  0  0  0  0
  -22.0296   -5.7981   24.0950 C   0  0  0  0  0  0  0  0  0  0  0  0
  -25.0000  -11.9695   21.4550 C   0  0  0  0  0  0  0  0  0  0  0  0
  -25.1046  -13.7986   20.2391 C   0  0  0  0  0  0  0  0  0  0  0  0
  -22.8471  -13.3565   21.2173 C   0  0  0  0  0  0  0  0  0  0  0  0
  -25.3581  -28.6945   22.1797 C   0  0  0  0  0  0  0  0  0  0  0  0
  -23.8210  -28.6090   19.3245 C   0  0  0  0  0  0  0  0  0  0  0  0
  -23.8043  -27.5722   16.0731 C   0  0  0  0  0  0  0  0  0  0  0  0
  -30.0847  -16.1747   19.4935 C   0  0  0  0  0  0  0  0  0  0  0  0
  -21.3887  -30.0957   25.0674 C   0  0  0  0  0  0  0  0  0  0  0  0
  -27.1632  -29.4948   20.6123 C   0  0  0  0  0  0  0  0  0  0  0  0
  -25.8084  -27.0763   19.5826 C   0  0  0  0  0  0  0  0  0  0  0  0
  -21.6240  -29.0770   23.9551 C   0  0  0  0  0  0  0  0  0  0  0  0
  -29.7777  -12.7400   18.6070 C   0  0  0  0  0  0  0  0  0  0  0  0
  -22.8783  -28.2567   24.2391 C   0  0  0  0  0  0  0  0  0  0  0  0
  -28.4440  -12.3225   19.2307 C   0  0  0  0  0  0  0  0  0  0  0  0
  -30.5323  -13.7304   19.4921 C   0  0  0  0  0  0  0  0  0  0  0  0
  -28.4284  -14.4960   20.5202 C   0  0  0  0  0  0  0  0  0  0  0  0
  -24.1226  -29.1513   24.2906 C   0  0  1  0  0  0  0  0  0  0  0  0
  -25.6707  -29.2593   20.8229 C   0  0  1  0  0  0  0  0  0  0  0  0
  -27.6023  -13.5488   19.6347 C   0  0  2  0  0  0  0  0  0  0  0  0
  -22.3954  -27.6215   13.9970 C   0  0  0  0  0  0  0  0  0  0  0  0
  -22.0091  -26.4570   20.5059 C   0  0  0  0  0  0  0  0  0  0  0  0
  -21.2863  -25.8860   18.1779 C   0  0  0  0  0  0  0  0  0  0  0  0
  -20.8302  -28.1578   19.1017 C   0  0  0  0  0  0  0  0  0  0  0  0
  -25.8768  -29.0487   14.5620 C   0  0  0  0  0  0  0  0  0  0  0  0
  -31.2612  -24.5267   20.4758 C   0  0  0  0  0  0  0  0  0  1  0  0
  -31.4737  -23.0327   20.6261 C   0  0  0  0  0  0  0  0  0  0  0  0
  -23.1974  -27.5257   18.4781 C   0  0  1  0  0  0  0  0  0  0  0  0
  -23.5008  -28.3106   14.7819 C   0  0  2  0  0  0  0  0  0  0  0  0
  -21.8583  -27.0059   19.0731 C   0  0  0  0  0  0  0  0  0  0  0  0
  -26.2666  -12.0195   21.0342 N   0  0  0  0  0  0  0  0  0  0  0  0
  -26.2990  -13.1428   20.2971 N   0  0  0  0  0  0  0  0  0  0  0  0
  -25.0986  -28.3411   19.8361 N   0  0  0  0  0  0  0  0  0  0  0  0
  -29.6740  -14.8677   19.8310 N   0  0  0  0  0  0  0  0  0  0  0  0
  -24.9610  -14.9452   19.5412 N   0  0  0  0  0  0  0  0  0  0  0  0
  -22.0930  -12.4837   22.0134 N   0  0  0  0  0  0  0  0  0  0  0  0
  -29.1724  -17.1722   19.8360 N   0  0  0  0  0  0  0  0  0  0  0  0
  -24.5475  -29.5037   22.9528 N   0  0  0  0  0  0  0  0  0  0  0  0
  -23.0794  -28.0763   17.1322 N   0  0  0  0  0  0  0  0  0  0  0  0
  -24.7173  -28.3743   13.9234 N   0  3  0  0  0  0  0  0  0  0  0  0
  -22.2926  -14.3634   20.7151 O   0  0  0  0  0  0  0  0  0  0  0  0
  -25.8170  -27.6046   22.5009 O   0  0  0  0  0  0  0  0  0  0  0  0
  -23.2006  -29.6574   19.5185 O   0  0  0  0  0  0  0  0  0  0  0  0
  -24.6016  -26.6390   16.1351 O   0  0  0  0  0  0  0  0  0  0  0  0
  -31.1537  -16.3905   18.9167 O   0  0  0  0  0  0  0  0  0  0  0  0
  -23.2877   -7.7573   24.7095 O   0  0  0  0  0  0  0  0  0  0  0  0
  -30.1143  -24.7543   19.6579 O   0  0  0  0  0  0  0  0  0  1  0  0
  -30.3131  -22.4549   21.2114 O   0  0  0  0  0  0  0  0  0  0  0  0
  -18.4666   -5.3733   23.4939 F   0  0  0  0  0  0  0  0  0  0  0  0
  -27.1490  -18.9774   20.4830 F   0  0  0  0  0  0  0  0  0  0  0  0
  -23.1517   -5.0655   24.0941 F   0  0  0  0  0  0  0  0  0  0  0  0
  1  2  1  0  0  0  0
  1  5  2  0  0  0  0
  2  6  2  0  0  0  0
  3  9  2  0  0  0  0
  3 18  1  0  0  0  0
  4 10  1  0  0  0  0
  4 18  2  0  0  0  0
  5 20  1  0  0  0  0
  6 22  1  0  0  0  0
  7 11  2  0  0  0  0
  7 21  1  0  0  0  0
  8 12  2  0  0  0  0
  8 24  1  0  0  0  0
  9 25  1  0  0  0  0
 10 25  2  0  0  0  0
 11 26  1  0  0  0  0
 12 27  1  0  0  0  0
 13 14  2  0  0  0  0
 13 28  1  0  0  0  0
 14 29  1  0  0  0  0
 15 23  1  0  0  0  0
 15 26  2  0  0  0  0
 16 27  2  0  0  0  0
 16 30  1  0  0  0  0
 17 29  2  0  0  0  0
 17 31  1  0  0  0  0
 18 32  1  0  0  0  0
 19 32  1  0  0  0  0
 19 33  2  0  0  0  0
 19 34  1  0  0  0  0
 20 22  2  0  0  0  0
 20 39  1  0  0  0  0
 21 23  2  0  0  0  0
 21 40  1  0  0  0  0
 22 48  1  0  0  0  0
 23 41  1  0  0  0  0
 24 30  2  0  0  0  0
 24 67  1  0  0  0  0
 25 76  1  0  0  0  0
 26 77  1  0  0  0  0
 27 78  1  0  0  0  0
 28 31  2  0  0  0  0
 28 76  1  0  0  0  0
 29 79  1  0  0  0  0
 30 80  1  0  0  0  0
 31 81  1  0  0  0  0
 32 61  2  0  0  0  0
 33 62  1  0  0  0  0
 33 65  1  0  0  0  0
 34 66  1  0  0  0  0
 34 71  2  0  0  0  0
 35 49  1  0  0  0  0
 35 68  1  0  0  0  0
 35 72  2  0  0  0  0
 36 58  1  0  0  0  0
 36 63  1  0  0  0  0
 36 73  2  0  0  0  0
 37 59  1  0  0  0  0
 37 69  1  0  0  0  0
 37 74  2  0  0  0  0
 38 64  1  0  0  0  0
 38 67  1  0  0  0  0
 38 75  2  0  0  0  0
 39 42  1  0  0  0  0
 40 49  1  0  0  0  0
 41 63  1  0  0  0  0
 42 44  1  0  0  0  0
 43 45  1  0  0  0  0
 43 46  1  0  0  0  0
 44 48  1  0  0  0  0
 45 50  1  0  0  0  0
 46 64  1  0  0  0  0
 47 50  1  0  0  0  0
 47 64  1  0  0  0  0
 48 68  1  0  0  0  0
 49 63  1  0  0  0  0
 50 62  1  0  0  0  0
 51 59  1  0  0  0  0
 52 60  1  0  0  0  0
 53 60  1  0  0  0  0
 54 60  1  0  0  0  0
 55 70  1  0  0  0  0
 56 57  1  0  0  0  0
 56 77  1  0  0  0  0
 57 78  1  0  0  0  0
 58 60  1  0  0  0  0
 58 69  1  0  0  0  0
 59 70  1  0  0  0  0
 61 62  1  0  0  0  0
M  CHG  1  70   1
M  ISO  4  38 100  56 101  67 100  77 101
M  END
> <Batch ID>
0009

> <Smiles>
CNC(C)C(=O)NC(C(=O)N1Cc2cc([101O:1][101CH2:1]COc3ccc([100NH:0][100C:0](=O)N4CCCC(n5nc(-c6ccc(Oc7ccc(F)cc7F)cc6)c(C(N)=O)c5N)C4)c(F)c3)ccc2CC1C(=O)NC1CCCc2ccccc21)C(C)(C)C

> <Shape>
0.293

> <Color>
0.123

> <Negative vol penalty>
0.000

$$$$

  -OEChem-04042320373D

 85 94  0     1  0  0  0  0  0999 V2000
  -29.2100  -34.2000   24.1952 C   0  0  0  0  0  0  0  0  0  0  0  0
  -29.1192  -32.8478   23.8812 C   0  0  0  0  0  0  0  0  0  0  0  0
  -24.1787   -9.7186   21.1881 C   0  0  0  0  0  0  0  0  0  0  0  0
  -24.7225  -10.6443   23.3524 C   0  0  0  0  0  0  0  0  0  0  0  0
  -28.0674  -34.9056   24.5703 C   0  0  0  0  0  0  0  0  0  0  0  0
  -27.8859  -32.2000   23.9431 C   0  0  0  0  0  0  0  0  0  0  0  0
  -27.0490  -29.2278   19.9293 C   0  0  0  0  0  0  0  0  0  0  0  0
  -30.9262  -20.4882   21.9933 C   0  0  0  0  0  0  0  0  0  0  0  0
  -30.6809  -19.2399   21.4212 C   0  0  0  0  0  0  0  0  0  0  0  0
  -23.7707   -8.5324   21.7979 C   0  0  0  0  0  0  0  0  0  0  0  0
  -24.3144   -9.4581   23.9623 C   0  0  0  0  0  0  0  0  0  0  0  0
  -27.6900  -27.9899   19.9090 C   0  0  0  0  0  0  0  0  0  0  0  0
  -21.0589   -7.3940   23.4663 C   0  0  0  0  0  0  0  0  0  0  0  0
  -19.8600   -6.8240   23.0381 C   0  0  0  0  0  0  0  0  0  0  0  0
  -25.6546  -26.9304   20.6531 C   0  0  0  0  0  0  0  0  0  0  0  0
  -28.5532  -20.8060   22.3173 C   0  0  0  0  0  0  0  0  0  0  0  0
  -21.0447   -4.8219   22.3860 C   0  0  0  0  0  0  0  0  0  0  0  0
  -24.6547  -10.7746   21.9653 C   0  0  0  0  0  0  0  0  0  0  0  0
  -24.2832  -13.1278   21.0531 C   0  0  0  0  0  0  0  0  0  0  0  0
  -26.8178  -34.2684   24.6275 C   0  0  0  0  0  0  0  0  0  0  0  0
  -25.7068  -29.3279   20.3229 C   0  0  0  0  0  0  0  0  0  0  0  0
  -26.7258  -32.8974   24.3206 C   0  0  0  0  0  0  0  0  0  0  0  0
  -24.9981  -28.1704   20.6751 C   0  0  0  0  0  0  0  0  0  0  0  0
  -29.8623  -21.2712   22.4414 C   0  0  0  0  0  0  0  0  0  0  0  0
  -29.3718  -18.7747   21.2971 C   0  0  0  0  0  0  0  0  0  0  0  0
  -23.8384   -8.4021   23.1851 C   0  0  0  0  0  0  0  0  0  0  0  0
  -26.9937  -26.8413   20.2737 C   0  0  0  0  0  0  0  0  0  0  0  0
  -22.2507   -6.6779   23.3543 C   0  0  0  0  0  0  0  0  0  0  0  0
  -19.8528   -5.5380   22.4980 C   0  0  0  0  0  0  0  0  0  0  0  0
  -28.3079  -19.5577   21.7451 C   0  0  0  0  0  0  0  0  0  0  0  0
  -22.2436   -5.3919   22.8142 C   0  0  0  0  0  0  0  0  0  0  0  0
  -25.0769  -12.0000   21.3358 C   0  0  0  0  0  0  0  0  0  0  0  0
  -25.1466  -14.0147   20.4577 C   0  0  0  0  0  0  0  0  0  0  0  0
  -28.5747  -24.3504   22.0787 C   0  0  0  0  0  0  0  0  0  0  0  0
  -22.8901  -13.3535   21.3060 C   0  0  0  0  0  0  0  0  0  0  0  0
  -24.1643  -30.7992   22.6808 C   0  0  0  0  0  0  0  0  0  0  0  0
  -21.5373  -29.7427   21.0981 C   0  0  0  0  0  0  0  0  0  0  0  0
  -20.1702  -27.4806   18.9392 C   0  0  0  0  0  0  0  0  0  0  0  0
  -30.0688  -16.6067   20.2201 C   0  0  0  0  0  0  0  0  0  0  0  0
  -25.6189  -35.0613   25.0840 C   0  0  0  0  0  0  0  0  0  0  0  0
  -25.0221  -30.6671   20.3138 C   0  0  0  0  0  0  0  0  0  0  0  0
  -23.5499  -28.2214   21.0858 C   0  0  0  0  0  0  0  0  0  0  0  0
  -24.2862  -34.3900   24.7624 C   0  0  0  0  0  0  0  0  0  0  0  0
  -29.8666  -13.3720   18.7459 C   0  0  0  0  0  0  0  0  0  0  0  0
  -24.3253  -32.9144   25.1470 C   0  0  0  0  0  0  0  0  0  0  0  0
  -28.5372  -12.8194   19.2651 C   0  0  0  0  0  0  0  0  0  0  0  0
  -29.9646  -25.0548   20.2741 C   0  0  0  0  0  0  0  0  0  0  0  0
  -30.5830  -14.2117   19.8021 C   0  0  0  0  0  0  0  0  0  0  0  0
  -30.7944  -24.2635   21.2659 C   0  0  0  0  0  0  0  0  0  0  0  0
  -28.4464  -14.7345   20.9117 C   0  0  0  0  0  0  0  0  0  0  0  0
  -25.4017  -32.1654   24.3520 C   0  0  1  0  0  0  0  0  0  0  0  0
  -28.7426  -25.4802   21.0821 C   0  0  1  0  0  0  0  0  0  1  0  0
  -23.7998  -30.7195   21.2253 C   0  0  1  0  0  0  0  0  0  0  0  0
  -27.6574  -13.9356   19.8614 C   0  0  2  0  0  0  0  0  0  0  0  0
  -17.9909  -26.8484   17.8676 C   0  0  0  0  0  0  0  0  0  0  0  0
  -20.6111  -28.4947   23.7238 C   0  0  0  0  0  0  0  0  0  0  0  0
  -18.9832  -27.1158   22.4136 C   0  0  0  0  0  0  0  0  0  0  0  0
  -18.8018  -29.6037   22.4005 C   0  0  0  0  0  0  0  0  0  0  0  0
  -21.2378  -27.9513   16.2193 C   0  0  0  0  0  0  0  0  0  0  0  0
  -30.1259  -22.6153   23.0562 C   0  0  0  0  0  0  0  0  0  0  0  0
  -20.6929  -28.4922   21.1433 C   0  0  1  0  0  0  0  0  0  0  0  0
  -19.2702  -27.6591   17.7298 C   0  0  2  0  0  0  0  0  0  0  0  0
  -19.8001  -28.4256   22.4145 C   0  0  0  0  0  0  0  0  0  0  0  0
  -26.3469  -12.1537   20.9516 N   0  0  0  0  0  0  0  0  0  0  0  0
  -26.3577  -13.3885   20.4212 N   0  0  0  0  0  0  0  0  0  0  0  0
  -29.8033  -23.6972   22.1514 N   0  0  0  0  0  0  0  0  0  0  0  0
  -22.9264  -29.5549   21.0670 N   0  0  0  0  0  0  0  0  0  0  0  0
  -29.6899  -15.2511   20.3186 N   0  0  0  0  0  0  0  0  0  0  0  0
  -24.9804  -15.2613   19.9671 N   0  0  0  0  0  0  0  0  0  0  0  0
  -22.1503  -12.3372   21.9257 N   0  0  0  0  0  0  0  0  0  0  0  0
  -29.1255  -17.5065   20.7151 N   0  0  0  0  0  0  0  0  0  0  0  0
  -24.9403  -31.8949   23.0073 N   0  0  0  0  0  0  0  0  0  0  0  0
  -19.9495  -28.4560   19.8885 N   0  0  0  0  0  0  0  0  0  0  0  0
  -19.9735  -27.2202   16.4914 N   0  3  0  0  0  0  0  0  0  0  0  0
  -27.5482  -24.1026   22.6931 O   0  0  0  0  0  0  0  0  0  0  0  0
  -22.3146  -14.4184   20.9769 O   0  0  0  0  0  0  0  0  0  0  0  0
  -23.7694  -29.9316   23.4509 O   0  0  0  0  0  0  0  0  0  0  0  0
  -20.9846  -30.8454   21.0834 O   0  0  0  0  0  0  0  0  0  0  0  0
  -20.9848  -26.5652   19.0340 O   0  0  0  0  0  0  0  0  0  0  0  0
  -31.1386  -16.9458   19.7077 O   0  0  0  0  0  0  0  0  0  0  0  0
  -23.4401   -7.2449   23.7805 O   0  0  0  0  0  0  0  0  0  0  0  0
  -27.6172  -25.6319   20.2554 O   0  0  0  0  0  0  0  0  0  1  0  0
  -18.7012   -4.9902   22.0883 F   0  0  0  0  0  0  0  0  0  0  0  0
  -27.0455  -19.1212   21.6295 F   0  0  0  0  0  0  0  0  0  0  0  0
  -23.3852   -4.6987   22.7051 F   0  0  0  0  0  0  0  0  0  0  0  0
  1  2  1  0  0  0  0
  1  5  2  0  0  0  0
  2  6  2  0  0  0  0
  3 10  2  0  0  0  0
  3 18  1  0  0  0  0
  4 11  1  0  0  0  0
  4 18  2  0  0  0  0
  5 20  1  0  0  0  0
  6 22  1  0  0  0  0
  7 12  2  0  0  0  0
  7 21  1  0  0  0  0
  8  9  2  0  0  0  0
  8 24  1  0  0  0  0
  9 25  1  0  0  0  0
 10 26  1  0  0  0  0
 11 26  2  0  0  0  0
 12 27  1  0  0  0  0
 13 14  2  0  0  0  0
 13 28  1  0  0  0  0
 14 29  1  0  0  0  0
 15 23  1  0  0  0  0
 15 27  2  0  0  0  0
 16 24  2  0  0  0  0
 16 30  1  0  0  0  0
 17 29  2  0  0  0  0
 17 31  1  0  0  0  0
 18 32  1  0  0  0  0
 19 32  1  0  0  0  0
 19 33  2  0  0  0  0
 19 35  1  0  0  0  0
 20 22  2  0  0  0  0
 20 40  1  0  0  0  0
 21 23  2  0  0  0  0
 21 41  1  0  0  0  0
 22 51  1  0  0  0  0
 23 42  1  0  0  0  0
 24 60  1  0  0  0  0
 25 30  2  0  0  0  0
 25 71  1  0  0  0  0
 26 81  1  0  0  0  0
 27 82  1  0  0  0  0
 28 31  2  0  0  0  0
 28 81  1  0  0  0  0
 29 83  1  0  0  0  0
 30 84  1  0  0  0  0
 31 85  1  0  0  0  0
 32 64  2  0  0  0  0
 33 65  1  0  0  0  0
 33 69  1  0  0  0  0
 34 52  1  0  0  0  0
 34 66  1  0  0  0  0
 34 75  2  0  0  0  0
 35 70  1  0  0  0  0
 35 76  2  0  0  0  0
 36 53  1  0  0  0  0
 36 72  1  0  0  0  0
 36 77  2  0  0  0  0
 37 61  1  0  0  0  0
 37 67  1  0  0  0  0
 37 78  2  0  0  0  0
 38 62  1  0  0  0  0
 38 73  1  0  0  0  0
 38 79  2  0  0  0  0
 39 68  1  0  0  0  0
 39 71  1  0  0  0  0
 39 80  2  0  0  0  0
 40 43  1  0  0  0  0
 41 53  1  0  0  0  0
 42 67  1  0  0  0  0
 43 45  1  0  0  0  0
 44 46  1  0  0  0  0
 44 48  1  0  0  0  0
 45 51  1  0  0  0  0
 46 54  1  0  0  0  0
 47 49  1  0  0  0  0
 47 52  1  0  0  0  0
 48 68  1  0  0  0  0
 49 66  1  0  0  0  0
 50 54  1  0  0  0  0
 50 68  1  0  0  0  0
 51 72  1  0  0  0  0
 52 82  1  0  0  0  0
 53 67  1  0  0  0  0
 54 65  1  0  0  0  0
 55 62  1  0  0  0  0
 56 63  1  0  0  0  0
 57 63  1  0  0  0  0
 58 63  1  0  0  0  0
 59 74  1  0  0  0  0
 60 66  1  0  0  0  0
 61 63  1  0  0  0  0
 61 73  1  0  0  0  0
 62 74  1  0  0  0  0
 64 65  1  0  0  0  0
M  CHG  1  74   1
M  ISO  4  39 100  52 101  71 100  82 101
M  END
> <Batch ID>
0009

> <Smiles>
CNC(C)C(=O)NC(C(=O)N1Cc2cc([101O:1][101CH:1]3CCN(Cc4ccc([100NH:0][100C:0](=O)N5CCCC(n6nc(-c7ccc(Oc8ccc(F)cc8F)cc7)c(C(N)=O)c6N)C5)c(F)c4)C3=O)ccc2CC1C(=O)NC1CCCc2ccccc21)C(C)(C)C

> <Shape>
0.340

> <Color>
0.142

> <Negative vol penalty>
0.000

$$$$

  -OEChem-04042320373D

 81 89  0     1  0  0  0  0  0999 V2000
  -25.9363  -35.3720   23.5163 C   0  0  0  0  0  0  0  0  0  0  0  0
  -26.5036  -34.1307   23.2470 C   0  0  0  0  0  0  0  0  0  0  0  0
  -24.8367  -12.0672   21.5877 C   0  0  0  0  0  0  0  0  0  0  0  0
  -25.8716  -12.0511   19.4046 C   0  0  0  0  0  0  0  0  0  0  0  0
  -24.6252  -35.4514   23.9838 C   0  0  0  0  0  0  0  0  0  0  0  0
  -25.7604  -32.9677   23.4461 C   0  0  0  0  0  0  0  0  0  0  0  0
  -26.2126  -29.6924   19.6104 C   0  0  0  0  0  0  0  0  0  0  0  0
  -24.3449  -10.7813   21.3641 C   0  0  0  0  0  0  0  0  0  0  0  0
  -25.3798  -10.7651   19.1810 C   0  0  0  0  0  0  0  0  0  0  0  0
  -27.3786  -28.9297   19.5585 C   0  0  0  0  0  0  0  0  0  0  0  0
  -25.5239   -7.6135   21.4506 C   0  0  0  0  0  0  0  0  0  0  0  0
  -25.6498   -6.6829   22.4820 C   0  0  0  0  0  0  0  0  0  0  0  0
  -26.1941  -27.0640   20.5256 C   0  0  0  0  0  0  0  0  0  0  0  0
  -28.5262  -22.6747   18.4730 C   0  0  0  0  0  0  0  0  0  0  0  0
  -30.1767  -20.9302   18.7361 C   0  0  0  0  0  0  0  0  0  0  0  0
  -30.8790  -23.2079   18.3413 C   0  0  0  0  0  0  0  0  0  0  0  0
  -23.2480   -6.4287   22.5458 C   0  0  0  0  0  0  0  0  0  0  0  0
  -25.6000  -12.7022   20.6079 C   0  0  0  0  0  0  0  0  0  0  0  0
  -27.3412  -14.3805   21.4199 C   0  0  0  0  0  0  0  0  0  0  0  0
  -23.8623  -34.2894   24.1796 C   0  0  0  0  0  0  0  0  0  0  0  0
  -25.0294  -29.1492   20.1312 C   0  0  0  0  0  0  0  0  0  0  0  0
  -24.4383  -33.0315   23.9180 C   0  0  0  0  0  0  0  0  0  0  0  0
  -25.0138  -27.8210   20.5806 C   0  0  0  0  0  0  0  0  0  0  0  0
  -28.8423  -21.3340   18.6923 C   0  0  0  0  0  0  0  0  0  0  0  0
  -24.6164  -10.1302   20.1608 C   0  0  0  0  0  0  0  0  0  0  0  0
  -27.3702  -27.6163   20.0188 C   0  0  0  0  0  0  0  0  0  0  0  0
  -24.2601   -7.9518   20.9668 C   0  0  0  0  0  0  0  0  0  0  0  0
  -29.5446  -23.6117   18.2974 C   0  0  0  0  0  0  0  0  0  0  0  0
  -24.5119   -6.0905   23.0295 C   0  0  0  0  0  0  0  0  0  0  0  0
  -31.1951  -21.8672   18.5606 C   0  0  0  0  0  0  0  0  0  0  0  0
  -23.1222   -7.3594   21.5144 C   0  0  0  0  0  0  0  0  0  0  0  0
  -26.1079  -14.0308   20.8381 C   0  0  0  0  0  0  0  0  0  0  0  0
  -27.3475  -15.7540   21.4118 C   0  0  0  0  0  0  0  0  0  0  0  0
  -28.3876  -13.5391   21.9226 C   0  0  0  0  0  0  0  0  0  0  0  0
  -23.1379  -29.8375   22.5913 C   0  0  0  0  0  0  0  0  0  0  0  0
  -21.2697  -27.5204   21.3016 C   0  0  0  0  0  0  0  0  0  0  0  0
  -21.0470  -24.7329   19.3453 C   0  0  0  0  0  0  0  0  0  0  0  0
  -26.4335  -20.6140   18.8530 C   0  0  0  0  0  0  0  0  0  0  0  0
  -22.4651  -34.4227   24.7315 C   0  0  0  0  0  0  0  0  0  0  0  0
  -23.7734  -29.9764   20.1556 C   0  0  0  0  0  0  0  0  0  0  0  0
  -23.7643  -27.1844   21.1301 C   0  0  0  0  0  0  0  0  0  0  0  0
  -21.6194  -33.1635   24.5595 C   0  0  0  0  0  0  0  0  0  0  0  0
  -23.6429  -19.0592   20.4252 C   0  0  0  0  0  0  0  0  0  0  0  0
  -22.4112  -31.9278   24.9755 C   0  0  0  0  0  0  0  0  0  0  0  0
  -24.1369  -17.6411   20.7206 C   0  0  0  0  0  0  0  0  0  0  0  0
  -24.1855  -19.5836   19.0969 C   0  0  0  0  0  0  0  0  0  0  0  0
  -26.1385  -18.0891   19.2441 C   0  0  0  0  0  0  0  0  0  0  0  0
  -23.6558  -31.7488   24.0979 C   0  0  1  0  0  0  0  0  0  0  0  0
  -22.7555  -29.4870   21.1812 C   0  0  1  0  0  0  0  0  0  0  0  0
  -25.6705  -17.5427   20.6029 C   0  0  2  0  0  0  0  0  0  0  0  0
  -19.3941  -23.0398   18.5095 C   0  0  0  0  0  0  0  0  0  0  0  0
  -21.2764  -26.1673   24.0364 C   0  0  0  0  0  0  0  0  0  0  0  0
  -20.4529  -24.0790   22.9277 C   0  0  0  0  0  0  0  0  0  0  0  0
  -19.0644  -26.1506   22.8696 C   0  0  0  0  0  0  0  0  0  0  0  0
  -21.5404  -25.4734   16.5227 C   0  0  0  0  0  0  0  0  0  0  0  0
  -29.4309  -27.1616   18.9222 C   0  0  0  0  0  0  0  0  0  1  0  0
  -30.1710  -25.8923   18.5469 C   0  0  0  0  0  0  0  0  0  0  0  0
  -21.1602  -26.0232   21.4611 C   0  0  1  0  0  0  0  0  0  0  0  0
  -20.0910  -24.3615   18.2262 C   0  0  2  0  0  0  0  0  0  0  0  0
  -20.5127  -25.6173   22.8152 C   0  0  0  0  0  0  0  0  0  0  0  0
  -25.3833  -15.0962   20.4861 N   0  0  0  0  0  0  0  0  0  0  0  0
  -26.1636  -16.1288   20.8479 N   0  0  0  0  0  0  0  0  0  0  0  0
  -22.5634  -28.0360   21.1389 N   0  0  0  0  0  0  0  0  0  0  0  0
  -25.6446  -19.4626   19.0590 N   0  0  0  0  0  0  0  0  0  0  0  0
  -28.2502  -16.6655   21.8321 N   0  0  0  0  0  0  0  0  0  0  0  0
  -28.2187  -12.1494   21.8537 N   0  0  0  0  0  0  0  0  0  0  0  0
  -27.8084  -20.3814   18.8691 N   0  0  0  0  0  0  0  0  0  0  0  0
  -23.2919  -31.1928   22.8122 N   0  0  0  0  0  0  0  0  0  0  0  0
  -20.4427  -25.5390   20.2868 N   0  0  0  0  0  0  0  0  0  0  0  0
  -20.8268  -24.2377   16.9361 N   0  3  0  0  0  0  0  0  0  0  0  0
  -29.4340  -14.0058   22.4332 O   0  0  0  0  0  0  0  0  0  0  0  0
  -23.2811  -28.9445   23.4182 O   0  0  0  0  0  0  0  0  0  0  0  0
  -20.2446  -28.2064   21.3135 O   0  0  0  0  0  0  0  0  0  0  0  0
  -22.2122  -24.3436   19.3828 O   0  0  0  0  0  0  0  0  0  0  0  0
  -25.9275  -21.7291   18.7025 O   0  0  0  0  0  0  0  0  0  0  0  0
  -24.1369   -8.8753   19.9423 O   0  0  0  0  0  0  0  0  0  0  0  0
  -28.5070  -26.8699   19.9699 O   0  0  0  0  0  0  0  0  0  1  0  0
  -29.2340  -24.9286   18.0815 O   0  0  0  0  0  0  0  0  0  0  0  0
  -24.6330   -5.1957   24.0189 F   0  0  0  0  0  0  0  0  0  0  0  0
  -32.4766  -21.4792   18.6007 F   0  0  0  0  0  0  0  0  0  0  0  0
  -21.9054   -7.6795   21.0530 F   0  0  0  0  0  0  0  0  0  0  0  0
  1  2  1  0  0  0  0
  1  5  2  0  0  0  0
  2  6  2  0  0  0  0
  3  8  2  0  0  0  0
  3 18  1  0  0  0  0
  4  9  1  0  0  0  0
  4 18  2  0  0  0  0
  5 20  1  0  0  0  0
  6 22  1  0  0  0  0
  7 10  2  0  0  0  0
  7 21  1  0  0  0  0
  8 25  1  0  0  0  0
  9 25  2  0  0  0  0
 10 26  1  0  0  0  0
 11 12  2  0  0  0  0
 11 27  1  0  0  0  0
 12 29  1  0  0  0  0
 13 23  1  0  0  0  0
 13 26  2  0  0  0  0
 14 24  1  0  0  0  0
 14 28  2  0  0  0  0
 15 24  2  0  0  0  0
 15 30  1  0  0  0  0
 16 28  1  0  0  0  0
 16 30  2  0  0  0  0
 17 29  2  0  0  0  0
 17 31  1  0  0  0  0
 18 32  1  0  0  0  0
 19 32  1  0  0  0  0
 19 33  2  0  0  0  0
 19 34  1  0  0  0  0
 20 22  2  0  0  0  0
 20 39  1  0  0  0  0
 21 23  2  0  0  0  0
 21 40  1  0  0  0  0
 22 48  1  0  0  0  0
 23 41  1  0  0  0  0
 24 67  1  0  0  0  0
 25 76  1  0  0  0  0
 26 77  1  0  0  0  0
 27 31  2  0  0  0  0
 27 76  1  0  0  0  0
 28 78  1  0  0  0  0
 29 79  1  0  0  0  0
 30 80  1  0  0  0  0
 31 81  1  0  0  0  0
 32 61  2  0  0  0  0
 33 62  1  0  0  0  0
 33 65  1  0  0  0  0
 34 66  1  0  0  0  0
 34 71  2  0  0  0  0
 35 49  1  0  0  0  0
 35 68  1  0  0  0  0
 35 72  2  0  0  0  0
 36 58  1  0  0  0  0
 36 63  1  0  0  0  0
 36 73  2  0  0  0  0
 37 59  1  0  0  0  0
 37 69  1  0  0  0  0
 37 74  2  0  0  0  0
 38 64  1  0  0  0  0
 38 67  1  0  0  0  0
 38 75  2  0  0  0  0
 39 42  1  0  0  0  0
 40 49  1  0  0  0  0
 41 63  1  0  0  0  0
 42 44  1  0  0  0  0
 43 45  1  0  0  0  0
 43 46  1  0  0  0  0
 44 48  1  0  0  0  0
 45 50  1  0  0  0  0
 46 64  1  0  0  0  0
 47 50  1  0  0  0  0
 47 64  1  0  0  0  0
 48 68  1  0  0  0  0
 49 63  1  0  0  0  0
 50 62  1  0  0  0  0
 51 59  1  0  0  0  0
 52 60  1  0  0  0  0
 53 60  1  0  0  0  0
 54 60  1  0  0  0  0
 55 70  1  0  0  0  0
 56 57  1  0  0  0  0
 56 77  1  0  0  0  0
 57 78  1  0  0  0  0
 58 60  1  0  0  0  0
 58 69  1  0  0  0  0
 59 70  1  0  0  0  0
 61 62  1  0  0  0  0
M  CHG  1  70   1
M  ISO  4  38 100  56 101  67 100  77 101
M  END
> <Batch ID>
0009

> <Smiles>
CNC(C)C(=O)NC(C(=O)N1Cc2cc([101O:1][101CH2:1]COc3cc(F)cc([100NH:0][100C:0](=O)N4CCCC(n5nc(-c6ccc(Oc7ccc(F)cc7F)cc6)c(C(N)=O)c5N)C4)c3)ccc2CC1C(=O)NC1CCCc2ccccc21)C(C)(C)C

> <Shape>
0.268

> <Color>
0.081

> <Negative vol penalty>
0.000

$$$$

  -OEChem-04042320373D

 82 90  0     1  0  0  0  0  0999 V2000
  -32.6500  -31.7515   22.1261 C   0  0  0  0  0  0  0  0  0  0  0  0
  -32.0189  -30.5340   22.3600 C   0  0  0  0  0  0  0  0  0  0  0  0
  -23.1781  -10.3338   20.6620 C   0  0  0  0  0  0  0  0  0  0  0  0
  -24.4461   -9.0063   22.2326 C   0  0  0  0  0  0  0  0  0  0  0  0
  -27.3122  -18.3693   19.8496 C   0  0  0  0  0  0  0  0  0  0  0  0
  -32.0162  -32.9427   22.4771 C   0  0  0  0  0  0  0  0  0  0  0  0
  -30.7539  -30.5069   22.9461 C   0  0  0  0  0  0  0  0  0  0  0  0
  -27.6041  -27.2944   20.6216 C   0  0  0  0  0  0  0  0  0  0  0  0
  -22.2242   -9.3198   20.5750 C   0  0  0  0  0  0  0  0  0  0  0  0
  -23.4922   -7.9923   22.1457 C   0  0  0  0  0  0  0  0  0  0  0  0
  -26.5535  -19.4303   20.3437 C   0  0  0  0  0  0  0  0  0  0  0  0
  -27.7560  -25.9376   20.9038 C   0  0  0  0  0  0  0  0  0  0  0  0
  -20.4199   -7.3510   23.3986 C   0  0  0  0  0  0  0  0  0  0  0  0
  -19.9928   -6.7614   24.5883 C   0  0  0  0  0  0  0  0  0  0  0  0
  -28.9095  -19.9361   18.9380 C   0  0  0  0  0  0  0  0  0  0  0  0
  -25.9043  -26.0571   22.4452 C   0  0  0  0  0  0  0  0  0  0  0  0
  -20.7789   -4.6147   23.8066 C   0  0  0  0  0  0  0  0  0  0  0  0
  -24.2891  -10.1771   21.4907 C   0  0  0  0  0  0  0  0  0  0  0  0
  -28.4903  -18.6222   19.1467 C   0  0  0  0  0  0  0  0  0  0  0  0
  -25.2882  -12.3041   22.4832 C   0  0  0  0  0  0  0  0  0  0  0  0
  -30.7387  -32.9306   23.0590 C   0  0  0  0  0  0  0  0  0  0  0  0
  -26.6064  -28.0465   21.2583 C   0  0  0  0  0  0  0  0  0  0  0  0
  -30.1030  -31.6990   23.3065 C   0  0  0  0  0  0  0  0  0  0  0  0
  -25.7401  -27.4227   22.1674 C   0  0  0  0  0  0  0  0  0  0  0  0
  -22.3813   -8.1491   21.3169 C   0  0  0  0  0  0  0  0  0  0  0  0
  -26.9079  -25.3193   21.8179 C   0  0  0  0  0  0  0  0  0  0  0  0
  -21.0264   -6.5725   22.4128 C   0  0  0  0  0  0  0  0  0  0  0  0
  -26.9727  -20.7442   20.1349 C   0  0  0  0  0  0  0  0  0  0  0  0
  -20.1723   -5.3932   24.7924 C   0  0  0  0  0  0  0  0  0  0  0  0
  -28.1508  -20.9971   19.4321 C   0  0  0  0  0  0  0  0  0  0  0  0
  -21.2059   -5.2044   22.6168 C   0  0  0  0  0  0  0  0  0  0  0  0
  -25.2750  -11.2239   21.5805 C   0  0  0  0  0  0  0  0  0  0  0  0
  -26.4238  -13.0066   22.1614 C   0  0  0  0  0  0  0  0  0  0  0  0
  -29.2920  -17.5014   18.6242 C   0  0  0  0  0  0  0  0  0  0  0  0
  -24.3573  -12.6422   23.5199 C   0  0  0  0  0  0  0  0  0  0  0  0
  -26.5904  -30.5567   23.2082 C   0  0  0  0  0  0  0  0  0  0  0  0
  -23.3786  -30.3649   22.7957 C   0  0  0  0  0  0  0  0  0  0  0  0
  -20.6684  -28.4471   22.0063 C   0  0  0  0  0  0  0  0  0  0  0  0
  -29.7380  -15.2707   18.2830 C   0  0  0  0  0  0  0  0  0  0  0  0
  -30.1134  -34.2418   23.4648 C   0  0  0  0  0  0  0  0  0  0  0  0
  -26.4385  -29.5031   20.9229 C   0  0  0  0  0  0  0  0  0  0  0  0
  -24.6402  -28.1811   22.8627 C   0  0  0  0  0  0  0  0  0  0  0  0
  -28.6148  -34.1431   23.7381 C   0  0  0  0  0  0  0  0  0  0  0  0
  -30.3052  -11.8179   19.1555 C   0  0  0  0  0  0  0  0  0  0  0  0
  -28.3106  -32.9325   24.6148 C   0  0  0  0  0  0  0  0  0  0  0  0
  -29.0307  -11.4363   19.9082 C   0  0  0  0  0  0  0  0  0  0  0  0
  -30.0157  -12.8046   18.0285 C   0  0  0  0  0  0  0  0  0  0  0  0
  -28.0221  -13.6595   19.2299 C   0  0  0  0  0  0  0  0  0  0  0  0
  -28.7203  -31.6296   23.9176 C   0  0  1  0  0  0  0  0  0  0  0  0
  -25.7181  -30.2884   22.0145 C   0  0  1  0  0  0  0  0  0  0  0  0
  -28.2801  -12.6887   20.3950 C   0  0  1  0  0  0  0  0  0  0  0  0
  -18.1706  -28.5596   21.7920 C   0  0  0  0  0  0  0  0  0  0  0  0
  -23.1176  -30.3063   25.8352 C   0  0  0  0  0  0  0  0  0  0  0  0
  -20.7733  -29.4755   25.5481 C   0  0  0  0  0  0  0  0  0  0  0  0
  -21.4158  -31.7199   24.6691 C   0  0  0  0  0  0  0  0  0  0  0  0
  -20.7671  -27.7447   19.1330 C   0  0  0  0  0  0  0  0  0  0  0  0
  -25.8787  -23.2747   22.4630 C   0  0  0  0  0  0  0  0  0  1  0  0
  -26.0274  -21.8296   22.0281 C   0  0  0  0  0  0  0  0  0  0  0  0
  -22.2522  -29.6430   23.4949 C   0  0  1  0  0  0  0  0  0  0  0  0
  -19.5010  -28.6909   21.0670 C   0  0  2  0  0  0  0  0  0  0  0  0
  -21.9116  -30.2720   24.8753 C   0  0  0  0  0  0  0  0  0  0  0  0
  -26.3192  -11.2351   20.7477 N   0  0  0  0  0  0  0  0  0  0  0  0
  -28.9368  -16.2708   18.7999 N   0  0  0  0  0  0  0  0  0  0  0  0
  -26.9991  -12.3310   21.1257 N   0  0  0  0  0  0  0  0  0  0  0  0
  -24.5203  -29.6044   22.5060 N   0  0  0  0  0  0  0  0  0  0  0  0
  -29.2729  -13.9647   18.5228 N   0  0  0  0  0  0  0  0  0  0  0  0
  -26.9762  -14.1302   22.6662 N   0  0  0  0  0  0  0  0  0  0  0  0
  -23.2448  -11.8125   23.7156 N   0  0  0  0  0  0  0  0  0  0  0  0
  -27.7418  -31.2628   22.9164 N   0  0  0  0  0  0  0  0  0  0  0  0
  -21.1357  -29.6221   22.5559 N   0  0  0  0  0  0  0  0  0  0  0  0
  -19.5243  -27.7091   19.9460 N   0  3  0  0  0  0  0  0  0  0  0  0
  -24.4988  -13.6594   24.2402 O   0  0  0  0  0  0  0  0  0  0  0  0
  -26.2437  -30.1542   24.3125 O   0  0  0  0  0  0  0  0  0  0  0  0
  -23.2474  -31.5579   22.5105 O   0  0  0  0  0  0  0  0  0  0  0  0
  -21.1181  -27.3259   22.2328 O   0  0  0  0  0  0  0  0  0  0  0  0
  -30.7780  -15.4793   17.6538 O   0  0  0  0  0  0  0  0  0  0  0  0
  -21.4506   -7.1595   21.2325 O   0  0  0  0  0  0  0  0  0  0  0  0
  -27.0544  -23.9952   22.0957 O   0  0  0  0  0  0  0  0  0  1  0  0
  -26.2273  -21.7861   20.6205 O   0  0  0  0  0  0  0  0  0  0  0  0
  -19.7636   -4.8274   25.9356 F   0  0  0  0  0  0  0  0  0  0  0  0
  -28.5595  -22.2571   19.2284 F   0  0  0  0  0  0  0  0  0  0  0  0
  -21.7891   -4.4516   21.6739 F   0  0  0  0  0  0  0  0  0  0  0  0
  1  2  1  0  0  0  0
  1  6  2  0  0  0  0
  2  7  2  0  0  0  0
  3  9  2  0  0  0  0
  3 18  1  0  0  0  0
  4 10  1  0  0  0  0
  4 18  2  0  0  0  0
  5 11  2  0  0  0  0
  5 19  1  0  0  0  0
  6 21  1  0  0  0  0
  7 23  1  0  0  0  0
  8 12  2  0  0  0  0
  8 22  1  0  0  0  0
  9 25  1  0  0  0  0
 10 25  2  0  0  0  0
 11 28  1  0  0  0  0
 12 26  1  0  0  0  0
 13 14  2  0  0  0  0
 13 27  1  0  0  0  0
 14 29  1  0  0  0  0
 15 19  2  0  0  0  0
 15 30  1  0  0  0  0
 16 24  1  0  0  0  0
 16 26  2  0  0  0  0
 17 29  2  0  0  0  0
 17 31  1  0  0  0  0
 18 32  1  0  0  0  0
 19 34  1  0  0  0  0
 20 32  1  0  0  0  0
 20 33  2  0  0  0  0
 20 35  1  0  0  0  0
 21 23  2  0  0  0  0
 21 40  1  0  0  0  0
 22 24  2  0  0  0  0
 22 41  1  0  0  0  0
 23 49  1  0  0  0  0
 24 42  1  0  0  0  0
 25 77  1  0  0  0  0
 26 78  1  0  0  0  0
 27 31  2  0  0  0  0
 27 77  1  0  0  0  0
 28 30  2  0  0  0  0
 28 79  1  0  0  0  0
 29 80  1  0  0  0  0
 30 81  1  0  0  0  0
 31 82  1  0  0  0  0
 32 62  2  0  0  0  0
 33 64  1  0  0  0  0
 33 67  1  0  0  0  0
 34 63  2  0  0  0  0
 35 68  1  0  0  0  0
 35 72  2  0  0  0  0
 36 50  1  0  0  0  0
 36 69  1  0  0  0  0
 36 73  2  0  0  0  0
 37 59  1  0  0  0  0
 37 65  1  0  0  0  0
 37 74  2  0  0  0  0
 38 60  1  0  0  0  0
 38 70  1  0  0  0  0
 38 75  2  0  0  0  0
 39 63  1  0  0  0  0
 39 66  1  0  0  0  0
 39 76  2  0  0  0  0
 40 43  1  0  0  0  0
 41 50  1  0  0  0  0
 42 65  1  0  0  0  0
 43 45  1  0  0  0  0
 44 46  1  0  0  0  0
 44 47  1  0  0  0  0
 45 49  1  0  0  0  0
 46 51  1  0  0  0  0
 47 66  1  0  0  0  0
 48 51  1  0  0  0  0
 48 66  1  0  0  0  0
 49 69  1  0  0  0  0
 50 65  1  0  0  0  0
 51 64  1  0  0  0  0
 52 60  1  0  0  0  0
 53 61  1  0  0  0  0
 54 61  1  0  0  0  0
 55 61  1  0  0  0  0
 56 71  1  0  0  0  0
 57 58  1  0  0  0  0
 57 78  1  0  0  0  0
 58 79  1  0  0  0  0
 59 61  1  0  0  0  0
 59 70  1  0  0  0  0
 60 71  1  0  0  0  0
 62 64  1  0  0  0  0
M  CHG  1  71   1
M  ISO  4  39 100  57 101  63 100  78 101
M  END
> <Batch ID>
0009

> <Smiles>
CNC(C)C(=O)NC(C(=O)N1Cc2cc([101O:1][101CH2:1]COc3ccc(C=[100N:0][100C:0](=O)N4CCCC(n5nc(-c6ccc(Oc7ccc(F)cc7F)cc6)c(C(N)=O)c5N)C4)cc3F)ccc2CC1C(=O)NC1CCCc2ccccc21)C(C)(C)C

> <Shape>
0.273

> <Color>
0.091

> <Negative vol penalty>
0.000

$$$$

  -OEChem-04042320373D

 81 89  0     1  0  0  0  0  0999 V2000
  -33.8337  -33.9310   23.8193 C   0  0  0  0  0  0  0  0  0  0  0  0
  -33.8791  -32.5775   24.1378 C   0  0  0  0  0  0  0  0  0  0  0  0
  -23.0013   -9.8922   19.9798 C   0  0  0  0  0  0  0  0  0  0  0  0
  -23.7314   -9.9408   22.2823 C   0  0  0  0  0  0  0  0  0  0  0  0
  -32.9327  -34.3903   22.8595 C   0  0  0  0  0  0  0  0  0  0  0  0
  -33.0226  -31.6826   23.4974 C   0  0  0  0  0  0  0  0  0  0  0  0
  -34.2398  -25.8807   21.9607 C   0  0  0  0  0  0  0  0  0  0  0  0
  -22.2374   -8.7560   20.2460 C   0  0  0  0  0  0  0  0  0  0  0  0
  -22.9674   -8.8046   22.5486 C   0  0  0  0  0  0  0  0  0  0  0  0
  -33.9351  -24.6649   22.5713 C   0  0  0  0  0  0  0  0  0  0  0  0
  -21.4939   -5.7071   23.7502 C   0  0  0  0  0  0  0  0  0  0  0  0
  -22.0834   -4.6911   24.5026 C   0  0  0  0  0  0  0  0  0  0  0  0
  -31.9982  -24.4437   21.1504 C   0  0  0  0  0  0  0  0  0  0  0  0
  -23.8065   -4.4496   22.8264 C   0  0  0  0  0  0  0  0  0  0  0  0
  -23.7484  -10.4846   20.9979 C   0  0  0  0  0  0  0  0  0  0  0  0
  -24.1290  -13.0012   20.8251 C   0  0  0  0  0  0  0  0  0  0  0  0
  -32.0714  -33.4992   22.2001 C   0  0  0  0  0  0  0  0  0  0  0  0
  -33.4186  -26.3932   20.9461 C   0  0  0  0  0  0  0  0  0  0  0  0
  -32.1083  -32.1306   22.5289 C   0  0  0  0  0  0  0  0  0  0  0  0
  -32.2962  -25.6650   20.5268 C   0  0  0  0  0  0  0  0  0  0  0  0
  -22.2204   -8.2122   21.5304 C   0  0  0  0  0  0  0  0  0  0  0  0
  -32.8125  -23.9477   22.1682 C   0  0  0  0  0  0  0  0  0  0  0  0
  -22.0607   -6.0942   22.5359 C   0  0  0  0  0  0  0  0  0  0  0  0
  -23.2396   -4.0624   24.0407 C   0  0  0  0  0  0  0  0  0  0  0  0
  -23.2170   -5.4655   22.0740 C   0  0  0  0  0  0  0  0  0  0  0  0
  -24.5383  -11.6581   20.7234 C   0  0  0  0  0  0  0  0  0  0  0  0
  -25.2367  -13.7263   20.4594 C   0  0  0  0  0  0  0  0  0  0  0  0
  -22.8609  -13.5448   21.2152 C   0  0  0  0  0  0  0  0  0  0  0  0
  -31.6518  -29.0128   20.5993 C   0  0  0  0  0  0  0  0  0  0  0  0
  -31.2620  -27.8796   17.5850 C   0  0  0  0  0  0  0  0  0  0  0  0
  -31.2723  -25.1981   15.4739 C   0  0  0  0  0  0  0  0  0  0  0  0
  -30.7320  -14.6700   20.6975 C   0  0  0  0  0  0  0  0  0  0  0  0
  -31.0817  -34.0493   21.2039 C   0  0  0  0  0  0  0  0  0  0  0  0
  -33.7760  -27.6931   20.2791 C   0  0  0  0  0  0  0  0  0  0  0  0
  -31.3936  -26.1618   19.4281 C   0  0  0  0  0  0  0  0  0  0  0  0
  -30.4683  -32.9817   20.3016 C   0  0  0  0  0  0  0  0  0  0  0  0
  -29.5904  -12.2481   18.3507 C   0  0  0  0  0  0  0  0  0  0  0  0
  -30.0219  -31.7783   21.1258 C   0  0  0  0  0  0  0  0  0  0  0  0
  -28.1433  -11.9852   18.7710 C   0  0  0  0  0  0  0  0  0  0  0  0
  -29.8053  -17.9870   22.0482 C   0  0  0  0  0  0  0  0  0  0  0  0
  -31.6370  -16.6349   23.1588 C   0  0  0  0  0  0  0  0  0  0  0  0
  -30.4930  -19.2796   22.4898 C   0  0  0  0  0  0  0  0  0  0  0  0
  -32.3241  -17.9283   23.5986 C   0  0  0  0  0  0  0  0  0  0  0  0
  -30.4950  -12.4831   19.5583 C   0  0  0  0  0  0  0  0  0  0  0  0
  -28.5864  -13.2732   20.9025 C   0  0  0  0  0  0  0  0  0  0  0  0
  -31.2125  -31.1253   21.8383 C   0  0  1  0  0  0  0  0  0  0  0  0
  -32.5830  -28.3696   19.6109 C   0  0  1  0  0  0  0  0  0  0  0  0
  -27.6251  -13.0857   19.7163 C   0  0  2  0  0  0  0  0  0  0  0  0
  -30.8121  -16.8447   21.8851 C   0  0  0  0  0  0  0  0  0  0  0  0
  -31.3080  -19.0561   23.7612 C   0  0  0  0  0  0  0  0  0  0  0  0
  -30.8791  -24.5788   13.0741 C   0  0  0  0  0  0  0  0  0  0  0  0
  -28.2511  -28.1144   18.0202 C   0  0  0  0  0  0  0  0  0  0  0  0
  -27.9182  -26.6311   16.0309 C   0  0  0  0  0  0  0  0  0  0  0  0
  -29.0386  -28.8435   15.7613 C   0  0  0  0  0  0  0  0  0  0  0  0
  -34.0445  -24.2129   15.1530 C   0  0  0  0  0  0  0  0  0  0  0  0
  -32.3406  -20.3873   25.5705 C   0  0  0  0  0  0  0  0  0  0  0  0
  -33.2339  -20.5194   23.2499 C   0  0  0  0  0  0  0  0  0  0  0  0
  -33.6048  -21.9893   23.2604 C   0  0  0  0  0  0  0  0  0  1  0  0
  -30.2748  -26.9597   16.9080 C   0  0  1  0  0  0  0  0  0  0  0  0
  -31.9110  -24.9903   14.1126 C   0  0  2  0  0  0  0  0  0  0  0  0
  -28.8864  -27.6285   16.7022 C   0  0  0  0  0  0  0  0  0  0  0  0
  -25.8069  -11.5344   20.3243 N   0  0  0  0  0  0  0  0  0  0  0  0
  -26.2043  -12.8091   20.1718 N   0  0  0  0  0  0  0  0  0  0  0  0
  -31.7816  -27.4410   18.8111 N   0  0  0  0  0  0  0  0  0  0  0  0
  -29.9482  -13.5395   20.4132 N   0  0  0  0  0  0  0  0  0  0  0  0
  -25.4676  -15.0525   20.3589 N   0  0  0  0  0  0  0  0  0  0  0  0
  -21.8314  -12.6583   21.5596 N   0  0  0  0  0  0  0  0  0  0  0  0
  -31.9766  -30.3194   20.9104 N   0  0  0  0  0  0  0  0  0  0  0  0
  -30.9123  -26.5141   15.6737 N   0  0  0  0  0  0  0  0  0  0  0  0
  -30.1357  -15.6265   21.5101 N   0  0  0  0  0  0  0  0  0  0  0  0
  -32.9533  -23.9277   14.1862 N   0  3  0  0  0  0  0  0  0  0  0  0
  -32.0316  -20.3113   24.0957 N   0  3  1  0  0  0  0  0  0  0  0  0
  -22.6421  -14.7797   21.2414 O   0  0  0  0  0  0  0  0  0  0  0  0
  -30.7076  -28.3716   21.0455 O   0  0  0  0  0  0  0  0  0  0  0  0
  -31.5664  -28.9447   17.0423 O   0  0  0  0  0  0  0  0  0  0  0  0
  -31.1056  -24.2837   16.2781 O   0  0  0  0  0  0  0  0  0  0  0  0
  -31.8762  -14.8186   20.2551 O   0  0  0  0  0  0  0  0  0  0  0  0
  -21.4748   -7.1036   21.7905 O   0  0  0  0  0  0  0  0  0  0  0  0
  -32.5124  -22.7610   22.7630 O   0  0  0  0  0  0  0  0  0  1  0  0
  -23.8064   -3.0878   24.7640 F   0  0  0  0  0  0  0  0  0  0  0  0
  -23.7668   -5.8340   20.9088 F   0  0  0  0  0  0  0  0  0  0  0  0
  1  2  1  0  0  0  0
  1  5  2  0  0  0  0
  2  6  2  0  0  0  0
  3  8  2  0  0  0  0
  3 15  1  0  0  0  0
  4  9  1  0  0  0  0
  4 15  2  0  0  0  0
  5 17  1  0  0  0  0
  6 19  1  0  0  0  0
  7 10  2  0  0  0  0
  7 18  1  0  0  0  0
  8 21  1  0  0  0  0
  9 21  2  0  0  0  0
 10 22  1  0  0  0  0
 11 12  2  0  0  0  0
 11 23  1  0  0  0  0
 12 24  1  0  0  0  0
 13 20  1  0  0  0  0
 13 22  2  0  0  0  0
 14 24  2  0  0  0  0
 14 25  1  0  0  0  0
 15 26  1  0  0  0  0
 16 26  1  0  0  0  0
 16 27  2  0  0  0  0
 16 28  1  0  0  0  0
 17 19  2  0  0  0  0
 17 33  1  0  0  0  0
 18 20  2  0  0  0  0
 18 34  1  0  0  0  0
 19 46  1  0  0  0  0
 20 35  1  0  0  0  0
 21 78  1  0  0  0  0
 22 79  1  0  0  0  0
 23 25  2  0  0  0  0
 23 78  1  0  0  0  0
 24 80  1  0  0  0  0
 25 81  1  0  0  0  0
 26 62  2  0  0  0  0
 27 63  1  0  0  0  0
 27 66  1  0  0  0  0
 28 67  1  0  0  0  0
 28 73  2  0  0  0  0
 29 47  1  0  0  0  0
 29 68  1  0  0  0  0
 29 74  2  0  0  0  0
 30 59  1  0  0  0  0
 30 64  1  0  0  0  0
 30 75  2  0  0  0  0
 31 60  1  0  0  0  0
 31 69  1  0  0  0  0
 31 76  2  0  0  0  0
 32 65  1  0  0  0  0
 32 70  1  0  0  0  0
 32 77  2  0  0  0  0
 33 36  1  0  0  0  0
 34 47  1  0  0  0  0
 35 64  1  0  0  0  0
 36 38  1  0  0  0  0
 37 39  1  0  0  0  0
 37 44  1  0  0  0  0
 38 46  1  0  0  0  0
 39 48  1  0  0  0  0
 40 42  1  0  0  0  0
 40 49  1  0  0  0  0
 41 43  1  0  0  0  0
 41 49  1  0  0  0  0
 42 50  1  0  0  0  0
 43 50  1  0  0  0  0
 44 65  1  0  0  0  0
 45 48  1  0  0  0  0
 45 65  1  0  0  0  0
 46 68  1  0  0  0  0
 47 64  1  0  0  0  0
 48 63  1  0  0  0  0
 49 70  1  0  0  0  0
 50 72  1  0  0  0  0
 51 60  1  0  0  0  0
 52 61  1  0  0  0  0
 53 61  1  0  0  0  0
 54 61  1  0  0  0  0
 55 71  1  0  0  0  0
 56 72  1  0  0  0  0
 57 58  1  0  0  0  0
 57 72  1  0  0  0  0
 58 79  1  0  0  0  0
 59 61  1  0  0  0  0
 59 69  1  0  0  0  0
 60 71  1  0  0  0  0
 62 63  1  0  0  0  0
M  CHG  2  71   1  72   1
M  ISO  4  32 100  58 101  70 100  79 101
M  END
> <Batch ID>
0009

> <Smiles>
CNC(C)C(=O)NC(C(=O)N1Cc2cc([101O:1][101CH2:1]CN(C)C3CCC([100NH:0][100C:0](=O)N4CCCC(n5nc(-c6ccc(Oc7ccc(F)cc7F)cc6)c(C(N)=O)c5N)C4)CC3)ccc2CC1C(=O)NC1CCCc2ccccc21)C(C)(C)C

> <Shape>
0.203

> <Color>
0.197

> <Negative vol penalty>
0.000

$$$$

  -OEChem-04042320373D

 82 91  0     1  0  0  0  0  0999 V2000
  -27.5295  -34.3096   25.5324 C   0  0  0  0  0  0  0  0  0  0  0  0
  -28.0544  -33.0424   25.2994 C   0  0  0  0  0  0  0  0  0  0  0  0
  -23.1631   -9.7550   19.9109 C   0  0  0  0  0  0  0  0  0  0  0  0
  -23.9110   -9.7778   22.2081 C   0  0  0  0  0  0  0  0  0  0  0  0
  -26.2139  -34.5953   25.1699 C   0  0  0  0  0  0  0  0  0  0  0  0
  -27.2635  -32.0599   24.7047 C   0  0  0  0  0  0  0  0  0  0  0  0
  -29.1147  -27.6823   20.8427 C   0  0  0  0  0  0  0  0  0  0  0  0
  -30.9460  -19.3519   20.6994 C   0  0  0  0  0  0  0  0  0  0  0  0
  -29.2994  -19.4448   22.4649 C   0  0  0  0  0  0  0  0  0  0  0  0
  -30.8455  -17.9608   20.6788 C   0  0  0  0  0  0  0  0  0  0  0  0
  -29.1988  -18.0537   22.4443 C   0  0  0  0  0  0  0  0  0  0  0  0
  -22.4749   -8.5649   20.1468 C   0  0  0  0  0  0  0  0  0  0  0  0
  -23.2227   -8.5877   22.4440 C   0  0  0  0  0  0  0  0  0  0  0  0
  -29.4318  -26.3378   21.0313 C   0  0  0  0  0  0  0  0  0  0  0  0
  -20.0343   -7.6289   23.0228 C   0  0  0  0  0  0  0  0  0  0  0  0
  -19.2747   -7.5416   24.1894 C   0  0  0  0  0  0  0  0  0  0  0  0
  -27.1952  -25.7235   20.3684 C   0  0  0  0  0  0  0  0  0  0  0  0
  -20.6051   -5.6599   24.9149 C   0  0  0  0  0  0  0  0  0  0  0  0
  -23.8812  -10.3614   20.9416 C   0  0  0  0  0  0  0  0  0  0  0  0
  -24.1007  -12.9011   20.8458 C   0  0  0  0  0  0  0  0  0  0  0  0
  -25.4096  -33.6187   24.5617 C   0  0  0  0  0  0  0  0  0  0  0  0
  -27.8299  -28.0588   20.4253 C   0  0  0  0  0  0  0  0  0  0  0  0
  -25.9355  -32.3325   24.3350 C   0  0  0  0  0  0  0  0  0  0  0  0
  -26.8651  -27.0732   20.1728 C   0  0  0  0  0  0  0  0  0  0  0  0
  -30.1729  -20.0939   21.5925 C   0  0  0  0  0  0  0  0  0  0  0  0
  -29.9719  -17.3117   21.5512 C   0  0  0  0  0  0  0  0  0  0  0  0
  -22.5047   -7.9812   21.4133 C   0  0  0  0  0  0  0  0  0  0  0  0
  -28.4712  -25.3583   20.7969 C   0  0  0  0  0  0  0  0  0  0  0  0
  -21.0793   -6.7316   22.8022 C   0  0  0  0  0  0  0  0  0  0  0  0
  -19.5601   -6.5572   25.1355 C   0  0  0  0  0  0  0  0  0  0  0  0
  -21.3647   -5.7472   23.7483 C   0  0  0  0  0  0  0  0  0  0  0  0
  -24.5928  -11.5904   20.6984 C   0  0  0  0  0  0  0  0  0  0  0  0
  -25.1569  -13.7059   20.4949 C   0  0  0  0  0  0  0  0  0  0  0  0
  -22.8048  -13.3509   21.2628 C   0  0  0  0  0  0  0  0  0  0  0  0
  -25.4880  -29.8073   21.6749 C   0  0  0  0  0  0  0  0  0  0  0  0
  -24.1132  -29.3323   18.7755 C   0  0  0  0  0  0  0  0  0  0  0  0
  -23.8761  -27.4178   15.9603 C   0  0  0  0  0  0  0  0  0  0  0  0
  -30.5651  -15.0135   20.7069 C   0  0  0  0  0  0  0  0  0  0  0  0
  -23.9783  -33.9603   24.2306 C   0  0  0  0  0  0  0  0  0  0  0  0
  -27.5117  -29.5116   20.2008 C   0  0  0  0  0  0  0  0  0  0  0  0
  -25.4773  -27.4237   19.7040 C   0  0  0  0  0  0  0  0  0  0  0  0
  -23.3253  -32.9759   23.2638 C   0  0  0  0  0  0  0  0  0  0  0  0
  -29.5802  -12.5703   18.3116 C   0  0  0  0  0  0  0  0  0  0  0  0
  -23.6115  -31.5395   23.6900 C   0  0  0  0  0  0  0  0  0  0  0  0
  -28.1544  -12.2054   18.7311 C   0  0  0  0  0  0  0  0  0  0  0  0
  -31.1337  -23.6452   21.3375 C   0  0  0  0  0  0  0  0  0  0  0  0
  -30.4775  -12.8322   19.5199 C   0  0  0  0  0  0  0  0  0  0  0  0
  -31.1586  -22.2369   20.7435 C   0  0  0  0  0  0  0  0  0  0  0  0
  -28.5312  -13.4507   20.8977 C   0  0  0  0  0  0  0  0  0  0  0  0
  -29.5018  -22.3327   22.5089 C   0  0  0  0  0  0  0  0  0  0  0  0
  -25.1168  -31.2476   23.6696 C   0  0  1  0  0  0  0  0  0  0  0  0
  -26.0179  -29.8135   20.2689 C   0  0  1  0  0  0  0  0  0  0  0  0
  -27.5735  -13.2413   19.7134 C   0  0  2  0  0  0  0  0  0  0  0  0
  -29.7534  -23.7407   21.9711 C   0  0  2  0  0  0  0  0  0  1  0  0
  -22.6381  -27.2611   13.7831 C   0  0  0  0  0  0  0  0  0  0  0  0
  -21.6540  -28.2914   20.2515 C   0  0  0  0  0  0  0  0  0  0  0  0
  -20.8693  -27.2905   18.0950 C   0  0  0  0  0  0  0  0  0  0  0  0
  -21.1500  -29.7613   18.2920 C   0  0  0  0  0  0  0  0  0  0  0  0
  -26.3719  -27.6695   14.3897 C   0  0  0  0  0  0  0  0  0  0  0  0
  -23.2001  -28.2857   18.1838 C   0  0  1  0  0  0  0  0  0  0  0  0
  -23.8788  -27.7871   14.4878 C   0  0  2  0  0  0  0  0  0  0  0  0
  -21.7439  -28.4004   18.7163 C   0  0  0  0  0  0  0  0  0  0  0  0
  -25.8628  -11.5598   20.2858 N   0  0  0  0  0  0  0  0  0  0  0  0
  -26.1776  -12.8613   20.1709 N   0  0  0  0  0  0  0  0  0  0  0  0
  -30.2736  -21.4691   21.6143 N   0  0  3  0  0  0  0  0  0  0  0  0
  -25.2128  -28.8583   19.5050 N   0  0  0  0  0  0  0  0  0  0  0  0
  -29.8651  -13.8267   20.4035 N   0  0  0  0  0  0  0  0  0  0  0  0
  -25.3029  -15.0467   20.4348 N   0  0  0  0  0  0  0  0  0  0  0  0
  -21.8366  -12.3907   21.5868 N   0  0  0  0  0  0  0  0  0  0  0  0
  -29.8698  -15.8986   21.5302 N   0  0  0  0  0  0  0  0  0  0  0  0
  -25.5711  -31.0303   22.3128 N   0  0  0  0  0  0  0  0  0  0  0  0
  -23.3185  -28.4126   16.7353 N   0  0  0  0  0  0  0  0  0  0  0  0
  -25.0795  -27.2175   13.8132 N   0  3  0  0  0  0  0  0  0  0  0  0
  -22.5089  -14.5681   21.3299 O   0  0  0  0  0  0  0  0  0  0  0  0
  -25.0358  -28.7702   22.1456 O   0  0  0  0  0  0  0  0  0  0  0  0
  -23.8642  -30.5262   18.5909 O   0  0  0  0  0  0  0  0  0  0  0  0
  -24.3205  -26.3517   16.3805 O   0  0  0  0  0  0  0  0  0  0  0  0
  -31.6869  -15.2410   20.2467 O   0  0  0  0  0  0  0  0  0  0  0  0
  -21.8330   -6.8201   21.6439 O   0  0  0  0  0  0  0  0  0  0  0  0
  -28.7779  -24.0453   20.9808 O   0  0  0  0  0  0  0  0  0  1  0  0
  -18.8315   -6.4744   26.2564 F   0  0  0  0  0  0  0  0  0  0  0  0
  -22.3681   -4.8832   23.5424 F   0  0  0  0  0  0  0  0  0  0  0  0
  1  2  1  0  0  0  0
  1  5  2  0  0  0  0
  2  6  2  0  0  0  0
  3 12  2  0  0  0  0
  3 19  1  0  0  0  0
  4 13  1  0  0  0  0
  4 19  2  0  0  0  0
  5 21  1  0  0  0  0
  6 23  1  0  0  0  0
  7 14  2  0  0  0  0
  7 22  1  0  0  0  0
  8 10  2  0  0  0  0
  8 25  1  0  0  0  0
  9 11  1  0  0  0  0
  9 25  2  0  0  0  0
 10 26  1  0  0  0  0
 11 26  2  0  0  0  0
 12 27  1  0  0  0  0
 13 27  2  0  0  0  0
 14 28  1  0  0  0  0
 15 16  2  0  0  0  0
 15 29  1  0  0  0  0
 16 30  1  0  0  0  0
 17 24  1  0  0  0  0
 17 28  2  0  0  0  0
 18 30  2  0  0  0  0
 18 31  1  0  0  0  0
 19 32  1  0  0  0  0
 20 32  1  0  0  0  0
 20 33  2  0  0  0  0
 20 34  1  0  0  0  0
 21 23  2  0  0  0  0
 21 39  1  0  0  0  0
 22 24  2  0  0  0  0
 22 40  1  0  0  0  0
 23 51  1  0  0  0  0
 24 41  1  0  0  0  0
 25 65  1  0  0  0  0
 26 70  1  0  0  0  0
 27 79  1  0  0  0  0
 28 80  1  0  0  0  0
 29 31  2  0  0  0  0
 29 79  1  0  0  0  0
 30 81  1  0  0  0  0
 31 82  1  0  0  0  0
 32 63  2  0  0  0  0
 33 64  1  0  0  0  0
 33 68  1  0  0  0  0
 34 69  1  0  0  0  0
 34 74  2  0  0  0  0
 35 52  1  0  0  0  0
 35 71  1  0  0  0  0
 35 75  2  0  0  0  0
 36 60  1  0  0  0  0
 36 66  1  0  0  0  0
 36 76  2  0  0  0  0
 37 61  1  0  0  0  0
 37 72  1  0  0  0  0
 37 77  2  0  0  0  0
 38 67  1  0  0  0  0
 38 70  1  0  0  0  0
 38 78  2  0  0  0  0
 39 42  1  0  0  0  0
 40 52  1  0  0  0  0
 41 66  1  0  0  0  0
 42 44  1  0  0  0  0
 43 45  1  0  0  0  0
 43 47  1  0  0  0  0
 44 51  1  0  0  0  0
 45 53  1  0  0  0  0
 46 48  1  0  0  0  0
 46 54  1  0  0  0  0
 47 67  1  0  0  0  0
 48 65  1  0  0  0  0
 49 53  1  0  0  0  0
 49 67  1  0  0  0  0
 50 54  1  0  0  0  0
 50 65  1  0  0  0  0
 51 71  1  0  0  0  0
 52 66  1  0  0  0  0
 53 64  1  0  0  0  0
 54 80  1  0  0  0  0
 55 61  1  0  0  0  0
 56 62  1  0  0  0  0
 57 62  1  0  0  0  0
 58 62  1  0  0  0  0
 59 73  1  0  0  0  0
 60 62  1  0  0  0  0
 60 72  1  0  0  0  0
 61 73  1  0  0  0  0
 63 64  1  0  0  0  0
M  CHG  1  73   1
M  ISO  4  38 100  54 101  70 100  80 101
M  END
> <Batch ID>
0009

> <Smiles>
CNC(C)C(=O)NC(C(=O)N1Cc2cc([101O:1][101CH:1]3CCN(c4ccc([100NH:0][100C:0](=O)N5CCCC(n6nc(-c7ccc(Oc8ccc(F)cc8F)cc7)c(C(N)=O)c6N)C5)cc4)C3)ccc2CC1C(=O)NC1CCCc2ccccc21)C(C)(C)C

> <Shape>
0.353

> <Color>
0.208

> <Negative vol penalty>
0.000

$$$$

  -OEChem-04042320373D

 81 89  0     1  0  0  0  0  0999 V2000
  -26.7871  -33.7648   27.7847 C   0  0  0  0  0  0  0  0  0  0  0  0
  -27.3221  -32.8987   26.8365 C   0  0  0  0  0  0  0  0  0  0  0  0
  -26.4218  -12.4201   21.5083 C   0  0  0  0  0  0  0  0  0  0  0  0
  -26.1583  -13.1709   19.2271 C   0  0  0  0  0  0  0  0  0  0  0  0
  -25.4273  -33.7107   28.0879 C   0  0  0  0  0  0  0  0  0  0  0  0
  -26.4977  -31.9772   26.1917 C   0  0  0  0  0  0  0  0  0  0  0  0
  -26.9651  -30.0401   20.4008 C   0  0  0  0  0  0  0  0  0  0  0  0
  -28.5298  -21.3667   15.8384 C   0  0  0  0  0  0  0  0  0  0  0  0
  -28.3956  -22.7004   16.2242 C   0  0  0  0  0  0  0  0  0  0  0  0
  -25.1612  -11.8253   21.4582 C   0  0  0  0  0  0  0  0  0  0  0  0
  -24.8976  -12.5760   19.1769 C   0  0  0  0  0  0  0  0  0  0  0  0
  -27.5247  -28.8942   19.8373 C   0  0  0  0  0  0  0  0  0  0  0  0
  -23.7887   -8.9977   20.2116 C   0  0  0  0  0  0  0  0  0  0  0  0
  -23.6600   -7.7072   20.7251 C   0  0  0  0  0  0  0  0  0  0  0  0
  -25.3509  -27.8485   19.8201 C   0  0  0  0  0  0  0  0  0  0  0  0
  -29.1325  -22.1299   18.4532 C   0  0  0  0  0  0  0  0  0  0  0  0
  -22.0347   -8.5058   22.3245 C   0  0  0  0  0  0  0  0  0  0  0  0
  -26.9204  -13.0929   20.3927 C   0  0  0  0  0  0  0  0  0  0  0  0
  -29.4552  -13.1179   20.1072 C   0  0  0  0  0  0  0  0  0  0  0  0
  -24.5840  -32.7947   27.4395 C   0  0  0  0  0  0  0  0  0  0  0  0
  -25.5938  -30.0949   20.6887 C   0  0  0  0  0  0  0  0  0  0  0  0
  -25.1256  -31.9100   26.4875 C   0  0  0  0  0  0  0  0  0  0  0  0
  -24.7759  -28.9972   20.3849 C   0  0  0  0  0  0  0  0  0  0  0  0
  -28.9653  -20.4145   16.7601 C   0  0  0  0  0  0  0  0  0  0  0  0
  -28.6969  -23.0820   17.5316 C   0  0  0  0  0  0  0  0  0  0  0  0
  -29.2667  -20.7961   18.0674 C   0  0  0  0  0  0  0  0  0  0  0  0
  -24.3991  -11.9032   20.2925 C   0  0  0  0  0  0  0  0  0  0  0  0
  -26.7181  -27.7971   19.5495 C   0  0  0  0  0  0  0  0  0  0  0  0
  -23.0406  -10.0423   20.7546 C   0  0  0  0  0  0  0  0  0  0  0  0
  -22.7829   -7.4612   21.7815 C   0  0  0  0  0  0  0  0  0  0  0  0
  -22.1635   -9.7963   21.8110 C   0  0  0  0  0  0  0  0  0  0  0  0
  -28.2224  -13.7080   20.4440 C   0  0  0  0  0  0  0  0  0  0  0  0
  -30.3812  -14.1086   20.3254 C   0  0  0  0  0  0  0  0  0  0  0  0
  -29.7382  -11.7926   19.6388 C   0  0  0  0  0  0  0  0  0  0  0  0
  -23.8699  -30.4453   23.3362 C   0  0  0  0  0  0  0  0  0  0  0  0
  -21.3952  -30.5667   21.2425 C   0  0  0  0  0  0  0  0  0  0  0  0
  -20.1631  -29.7620   18.1634 C   0  0  0  0  0  0  0  0  0  0  0  0
  -30.0468  -20.0746   20.3515 C   0  0  0  0  0  0  0  0  0  0  0  0
  -23.1295  -32.7414   27.8348 C   0  0  0  0  0  0  0  0  0  0  0  0
  -25.0009  -31.3482   21.2719 C   0  0  0  0  0  0  0  0  0  0  0  0
  -23.2944  -29.0130   20.6559 C   0  0  0  0  0  0  0  0  0  0  0  0
  -22.2538  -31.9903   26.8352 C   0  0  0  0  0  0  0  0  0  0  0  0
  -31.1457  -17.9917   23.0219 C   0  0  0  0  0  0  0  0  0  0  0  0
  -22.9095  -30.6722   26.4359 C   0  0  0  0  0  0  0  0  0  0  0  0
  -30.6382  -16.6020   22.6302 C   0  0  0  0  0  0  0  0  0  0  0  0
  -30.1568  -19.0880   22.6296 C   0  0  0  0  0  0  0  0  0  0  0  0
  -29.2313  -17.6826   20.8302 C   0  0  0  0  0  0  0  0  0  0  0  0
  -24.2590  -30.9133   25.7487 C   0  0  1  0  0  0  0  0  0  0  0  0
  -23.6821  -31.1034   21.9985 C   0  0  1  0  0  0  0  0  0  0  0  0
  -30.2229  -16.5512   21.1468 C   0  0  2  0  0  0  0  0  0  0  0  0
  -29.0997  -18.9932   16.3189 C   0  0  0  0  0  0  0  0  0  0  0  0
  -18.0959  -29.9623   16.7548 C   0  0  0  0  0  0  0  0  0  0  0  0
  -20.0778  -28.3427   22.8638 C   0  0  0  0  0  0  0  0  0  0  0  0
  -18.5391  -27.9399   20.9303 C   0  0  0  0  0  0  0  0  0  0  0  0
  -18.5176  -30.1423   22.1014 C   0  0  0  0  0  0  0  0  0  0  0  0
  -21.5831  -31.3345   16.0970 C   0  0  0  0  0  0  0  0  0  0  0  0
  -28.8532  -24.8889   19.2452 C   0  0  0  0  0  0  0  0  0  0  0  0
  -28.6210  -26.3885   19.3250 C   0  0  0  0  0  0  0  0  0  1  0  0
  -20.4746  -29.5479   20.6152 C   0  0  1  0  0  0  0  0  0  0  0  0
  -19.4309  -30.5906   17.1234 C   0  0  2  0  0  0  0  0  0  0  0  0
  -19.4305  -28.9919   21.6243 C   0  0  0  0  0  0  0  0  0  0  0  0
  -28.3500  -14.9754   20.8459 N   0  0  0  0  0  0  0  0  0  0  0  0
  -29.6742  -15.1897   20.7630 N   0  0  0  0  0  0  0  0  0  0  0  0
  -22.7630  -30.2590   21.2326 N   0  0  0  0  0  0  0  0  0  0  0  0
  -29.8126  -18.9798   21.2102 N   0  0  0  0  0  0  0  0  0  0  0  0
  -31.7230  -14.1517   20.1838 N   0  0  0  0  0  0  0  0  0  0  0  0
  -28.6698  -10.9014   19.4697 N   0  0  0  0  0  0  0  0  0  0  0  0
  -29.7105  -19.8437   19.0180 N   0  0  0  0  0  0  0  0  0  0  0  0
  -28.5635  -24.4064   17.9142 N   0  0  0  0  0  0  0  0  0  0  0  0
  -24.0604  -31.3329   24.3780 N   0  0  0  0  0  0  0  0  0  0  0  0
  -19.8896  -30.1925   19.4444 N   0  0  0  0  0  0  0  0  0  0  0  0
  -20.2515  -30.7108   15.8852 N   0  3  0  0  0  0  0  0  0  0  0  0
  -30.9057  -11.4050   19.3936 O   0  0  0  0  0  0  0  0  0  0  0  0
  -23.8424  -29.2229   23.4173 O   0  0  0  0  0  0  0  0  0  0  0  0
  -20.9189  -31.6008   21.7173 O   0  0  0  0  0  0  0  0  0  0  0  0
  -20.9008  -28.8240   17.8689 O   0  0  0  0  0  0  0  0  0  0  0  0
  -30.5369  -21.1291   20.7634 O   0  0  0  0  0  0  0  0  0  0  0  0
  -23.1689  -11.3227   20.2432 O   0  0  0  0  0  0  0  0  0  0  0  0
  -27.2618  -26.6771   19.0001 O   0  0  0  0  0  0  0  0  0  1  0  0
  -22.6582   -6.2216   22.2735 F   0  0  0  0  0  0  0  0  0  0  0  0
  -21.4413  -10.7955   22.3360 F   0  0  0  0  0  0  0  0  0  0  0  0
  1  2  1  0  0  0  0
  1  5  2  0  0  0  0
  2  6  2  0  0  0  0
  3 10  2  0  0  0  0
  3 18  1  0  0  0  0
  4 11  1  0  0  0  0
  4 18  2  0  0  0  0
  5 20  1  0  0  0  0
  6 22  1  0  0  0  0
  7 12  2  0  0  0  0
  7 21  1  0  0  0  0
  8  9  2  0  0  0  0
  8 24  1  0  0  0  0
  9 25  1  0  0  0  0
 10 27  1  0  0  0  0
 11 27  2  0  0  0  0
 12 28  1  0  0  0  0
 13 14  2  0  0  0  0
 13 29  1  0  0  0  0
 14 30  1  0  0  0  0
 15 23  1  0  0  0  0
 15 28  2  0  0  0  0
 16 25  2  0  0  0  0
 16 26  1  0  0  0  0
 17 30  2  0  0  0  0
 17 31  1  0  0  0  0
 18 32  1  0  0  0  0
 19 32  1  0  0  0  0
 19 33  2  0  0  0  0
 19 34  1  0  0  0  0
 20 22  2  0  0  0  0
 20 39  1  0  0  0  0
 21 23  2  0  0  0  0
 21 40  1  0  0  0  0
 22 48  1  0  0  0  0
 23 41  1  0  0  0  0
 24 26  2  0  0  0  0
 24 51  1  0  0  0  0
 25 69  1  0  0  0  0
 26 68  1  0  0  0  0
 27 78  1  0  0  0  0
 28 79  1  0  0  0  0
 29 31  2  0  0  0  0
 29 78  1  0  0  0  0
 30 80  1  0  0  0  0
 31 81  1  0  0  0  0
 32 62  2  0  0  0  0
 33 63  1  0  0  0  0
 33 66  1  0  0  0  0
 34 67  1  0  0  0  0
 34 73  2  0  0  0  0
 35 49  1  0  0  0  0
 35 70  1  0  0  0  0
 35 74  2  0  0  0  0
 36 59  1  0  0  0  0
 36 64  1  0  0  0  0
 36 75  2  0  0  0  0
 37 60  1  0  0  0  0
 37 71  1  0  0  0  0
 37 76  2  0  0  0  0
 38 65  1  0  0  0  0
 38 68  1  0  0  0  0
 38 77  2  0  0  0  0
 39 42  1  0  0  0  0
 40 49  1  0  0  0  0
 41 64  1  0  0  0  0
 42 44  1  0  0  0  0
 43 45  1  0  0  0  0
 43 46  1  0  0  0  0
 44 48  1  0  0  0  0
 45 50  1  0  0  0  0
 46 65  1  0  0  0  0
 47 50  1  0  0  0  0
 47 65  1  0  0  0  0
 48 70  1  0  0  0  0
 49 64  1  0  0  0  0
 50 63  1  0  0  0  0
 52 60  1  0  0  0  0
 53 61  1  0  0  0  0
 54 61  1  0  0  0  0
 55 61  1  0  0  0  0
 56 72  1  0  0  0  0
 57 58  1  0  0  0  0
 57 69  1  0  0  0  0
 58 79  1  0  0  0  0
 59 61  1  0  0  0  0
 59 71  1  0  0  0  0
 60 72  1  0  0  0  0
 62 63  1  0  0  0  0
M  CHG  1  72   1
M  ISO  4  38 100  58 101  68 100  79 101
M  END
> <Batch ID>
0009

> <Smiles>
CNC(C)C(=O)NC(C(=O)N1Cc2cc([101O:1][101CH2:1]CNc3ccc(C)c([100NH:0][100C:0](=O)N4CCCC(n5nc(-c6ccc(Oc7ccc(F)cc7F)cc6)c(C(N)=O)c5N)C4)c3)ccc2CC1C(=O)NC1CCCc2ccccc21)C(C)(C)C

> <Shape>
0.313

> <Color>
0.090

> <Negative vol penalty>
0.000

$$$$

  -OEChem-04042320373D

 81 89  0     1  0  0  0  0  0999 V2000
  -22.6520  -29.0192   22.0341 C   0  0  0  0  0  0  0  0  0  0  0  0
  -22.9592  -27.6683   22.1606 C   0  0  0  0  0  0  0  0  0  0  0  0
  -23.8041   -9.8798   22.0888 C   0  0  0  0  0  0  0  0  0  0  0  0
  -24.3714  -11.2785   23.9752 C   0  0  0  0  0  0  0  0  0  0  0  0
  -23.5287  -29.8728   21.3657 C   0  0  0  0  0  0  0  0  0  0  0  0
  -24.1430  -27.1699   21.6177 C   0  0  0  0  0  0  0  0  0  0  0  0
  -27.6373  -22.6866   23.8973 C   0  0  0  0  0  0  0  0  0  0  0  0
  -23.2820   -8.9209   22.9568 C   0  0  0  0  0  0  0  0  0  0  0  0
  -23.8493  -10.3196   24.8433 C   0  0  0  0  0  0  0  0  0  0  0  0
  -27.7365  -21.3291   23.5953 C   0  0  0  0  0  0  0  0  0  0  0  0
  -24.8225   -7.3654   26.1684 C   0  0  0  0  0  0  0  0  0  0  0  0
  -25.5693   -7.0414   27.3011 C   0  0  0  0  0  0  0  0  0  0  0  0
  -29.6023  -21.7956   22.1392 C   0  0  0  0  0  0  0  0  0  0  0  0
  -23.7419   -7.7563   28.7105 C   0  0  0  0  0  0  0  0  0  0  0  0
  -24.3489  -11.0586   22.5980 C   0  0  0  0  0  0  0  0  0  0  0  0
  -24.2010  -13.1259   21.1107 C   0  0  0  0  0  0  0  0  0  0  0  0
  -24.7284  -29.3864   20.8228 C   0  0  0  0  0  0  0  0  0  0  0  0
  -28.5144  -23.6117   23.3130 C   0  0  0  0  0  0  0  0  0  0  0  0
  -25.0360  -28.0175   20.9403 C   0  0  0  0  0  0  0  0  0  0  0  0
  -29.5138  -23.1639   22.4374 C   0  0  0  0  0  0  0  0  0  0  0  0
  -23.3045   -9.1408   24.3340 C   0  0  0  0  0  0  0  0  0  0  0  0
  -28.7173  -20.8838   22.7140 C   0  0  0  0  0  0  0  0  0  0  0  0
  -23.5354   -7.8849   26.3068 C   0  0  0  0  0  0  0  0  0  0  0  0
  -25.0290   -7.2368   28.5721 C   0  0  0  0  0  0  0  0  0  0  0  0
  -22.9951   -8.0803   27.5778 C   0  0  0  0  0  0  0  0  0  0  0  0
  -24.8889  -12.0493   21.7019 C   0  0  0  0  0  0  0  0  0  0  0  0
  -25.1508  -13.7652   20.3521 C   0  0  0  0  0  0  0  0  0  0  0  0
  -28.9246  -16.7739   24.5313 C   0  0  0  0  0  0  0  0  0  0  0  0
  -22.8263  -13.5135   21.2362 C   0  0  0  0  0  0  0  0  0  0  0  0
  -28.1744  -26.1199   21.3903 C   0  0  0  0  0  0  0  0  0  0  0  0
  -31.3501  -26.4825   21.9436 C   0  0  0  0  0  0  0  0  0  0  0  0
  -34.3176  -25.0517   22.8342 C   0  0  0  0  0  0  0  0  0  0  0  0
  -31.1205  -14.0694   20.7007 C   0  0  0  0  0  0  0  0  0  0  0  0
  -25.6221  -30.3383   20.0678 C   0  0  0  0  0  0  0  0  0  0  0  0
  -28.4113  -25.0693   23.6697 C   0  0  0  0  0  0  0  0  0  0  0  0
  -30.4929  -24.1140   21.7992 C   0  0  0  0  0  0  0  0  0  0  0  0
  -29.1424  -16.8181   26.0256 C   0  0  0  0  0  0  0  0  0  0  0  0
  -27.0344  -29.8025   19.8474 C   0  0  0  0  0  0  0  0  0  0  0  0
  -30.1117  -17.9801   26.2058 C   0  0  0  0  0  0  0  0  0  0  0  0
  -29.1929  -12.9321   17.9317 C   0  0  0  0  0  0  0  0  0  0  0  0
  -26.9872  -28.3604   19.3525 C   0  0  0  0  0  0  0  0  0  0  0  0
  -27.8092  -12.6740   18.5306 C   0  0  0  0  0  0  0  0  0  0  0  0
  -30.9111  -17.9903   24.9182 C   0  0  0  0  0  0  0  0  0  0  0  0
  -30.3080  -12.5649   18.9083 C   0  0  0  0  0  0  0  0  0  0  0  0
  -28.8178  -12.9398   20.8351 C   0  0  0  0  0  0  0  0  0  0  0  0
  -26.3223  -27.4438   20.3865 C   0  0  1  0  0  0  0  0  0  0  0  0
  -29.0290  -25.9867   22.6190 C   0  0  1  0  0  0  0  0  0  0  0  0
  -27.6599  -13.3474   19.9081 C   0  0  2  0  0  0  0  0  0  0  0  0
  -36.7461  -25.5931   23.1607 C   0  0  0  0  0  0  0  0  0  0  0  0
  -31.7453  -26.5228   18.9183 C   0  0  0  0  0  0  0  0  0  0  0  0
  -34.1843  -26.1076   19.3014 C   0  0  0  0  0  0  0  0  0  0  0  0
  -33.1236  -28.1904   20.1728 C   0  0  0  0  0  0  0  0  0  0  0  0
  -34.2219  -24.2931   25.6933 C   0  0  0  0  0  0  0  0  0  0  0  0
  -31.5941  -17.0210   22.1579 C   0  0  0  0  0  0  0  0  0  0  0  0
  -31.7884  -15.5613   22.5681 C   0  0  0  0  0  0  0  0  0  0  0  0
  -30.1137  -19.0608   22.0955 C   0  0  0  0  0  0  0  0  0  1  0  0
  -32.6137  -25.9796   21.2883 C   0  0  1  0  0  0  0  0  0  0  0  0
  -35.3839  -25.4784   23.8269 C   0  0  2  0  0  0  0  0  0  0  0  0
  -30.2164  -17.5959   22.5249 C   0  0  2  0  0  0  0  0  0  0  0  0
  -32.8972  -26.6822   19.9306 C   0  0  0  0  0  0  0  0  0  0  0  0
  -26.1763  -12.0039   21.3490 N   0  0  0  0  0  0  0  0  0  0  0  0
  -26.3049  -13.0599   20.5278 N   0  0  0  0  0  0  0  0  0  0  0  0
  -29.9736  -17.4795   23.9464 N   0  0  0  0  0  0  0  0  0  0  0  0
  -30.3474  -25.5301   22.1747 N   0  0  0  0  0  0  0  0  0  0  0  0
  -30.1083  -13.2376   20.1942 N   0  0  0  0  0  0  0  0  0  0  0  0
  -25.1031  -14.8562   19.5584 N   0  0  0  0  0  0  0  0  0  0  0  0
  -21.9879  -12.7461   22.0563 N   0  0  0  0  0  0  0  0  0  0  0  0
  -27.2446  -27.1397   21.4595 N   0  0  0  0  0  0  0  0  0  0  0  0
  -33.6760  -26.1369   22.2758 N   0  0  0  0  0  0  0  0  0  0  0  0
  -30.8477  -14.6734   21.9220 N   0  0  0  0  0  0  0  0  0  0  0  0
  -35.4850  -24.4883   24.9361 N   0  3  0  0  0  0  0  0  0  0  0  0
  -28.0118  -16.1786   23.9787 O   0  0  0  0  0  0  0  0  0  0  0  0
  -22.3514  -14.5011   20.6258 O   0  0  0  0  0  0  0  0  0  0  0  0
  -28.3470  -25.3551   20.4485 O   0  0  0  0  0  0  0  0  0  0  0  0
  -31.2589  -27.6749   22.2460 O   0  0  0  0  0  0  0  0  0  0  0  0
  -34.0804  -23.8735   22.5770 O   0  0  0  0  0  0  0  0  0  0  0  0
  -32.1860  -14.2639   20.1059 O   0  0  0  0  0  0  0  0  0  0  0  0
  -22.7949   -8.2054   25.1813 O   0  0  0  0  0  0  0  0  0  0  0  0
  -28.8159  -19.5594   22.4170 O   0  0  0  0  0  0  0  0  0  1  0  0
  -25.7457   -6.9241   29.6597 F   0  0  0  0  0  0  0  0  0  0  0  0
  -21.7586   -8.5780   27.7171 F   0  0  0  0  0  0  0  0  0  0  0  0
  1  2  1  0  0  0  0
  1  5  2  0  0  0  0
  2  6  2  0  0  0  0
  3  8  2  0  0  0  0
  3 15  1  0  0  0  0
  4  9  1  0  0  0  0
  4 15  2  0  0  0  0
  5 17  1  0  0  0  0
  6 19  1  0  0  0  0
  7 10  2  0  0  0  0
  7 18  1  0  0  0  0
  8 21  1  0  0  0  0
  9 21  2  0  0  0  0
 10 22  1  0  0  0  0
 11 12  2  0  0  0  0
 11 23  1  0  0  0  0
 12 24  1  0  0  0  0
 13 20  1  0  0  0  0
 13 22  2  0  0  0  0
 14 24  2  0  0  0  0
 14 25  1  0  0  0  0
 15 26  1  0  0  0  0
 16 26  1  0  0  0  0
 16 27  2  0  0  0  0
 16 29  1  0  0  0  0
 17 19  2  0  0  0  0
 17 34  1  0  0  0  0
 18 20  2  0  0  0  0
 18 35  1  0  0  0  0
 19 46  1  0  0  0  0
 20 36  1  0  0  0  0
 21 78  1  0  0  0  0
 22 79  1  0  0  0  0
 23 25  2  0  0  0  0
 23 78  1  0  0  0  0
 24 80  1  0  0  0  0
 25 81  1  0  0  0  0
 26 61  2  0  0  0  0
 27 62  1  0  0  0  0
 27 66  1  0  0  0  0
 28 37  1  0  0  0  0
 28 63  1  0  0  0  0
 28 72  2  0  0  0  0
 29 67  1  0  0  0  0
 29 73  2  0  0  0  0
 30 47  1  0  0  0  0
 30 68  1  0  0  0  0
 30 74  2  0  0  0  0
 31 57  1  0  0  0  0
 31 64  1  0  0  0  0
 31 75  2  0  0  0  0
 32 58  1  0  0  0  0
 32 69  1  0  0  0  0
 32 76  2  0  0  0  0
 33 65  1  0  0  0  0
 33 70  1  0  0  0  0
 33 77  2  0  0  0  0
 34 38  1  0  0  0  0
 35 47  1  0  0  0  0
 36 64  1  0  0  0  0
 37 39  1  0  0  0  0
 38 41  1  0  0  0  0
 39 43  1  0  0  0  0
 40 42  1  0  0  0  0
 40 44  1  0  0  0  0
 41 46  1  0  0  0  0
 42 48  1  0  0  0  0
 43 63  1  0  0  0  0
 44 65  1  0  0  0  0
 45 48  1  0  0  0  0
 45 65  1  0  0  0  0
 46 68  1  0  0  0  0
 47 64  1  0  0  0  0
 48 62  1  0  0  0  0
 49 58  1  0  0  0  0
 50 60  1  0  0  0  0
 51 60  1  0  0  0  0
 52 60  1  0  0  0  0
 53 71  1  0  0  0  0
 54 55  1  0  0  0  0
 54 59  1  0  0  0  0
 55 70  1  0  0  0  0
 56 59  1  0  0  0  0
 56 79  1  0  0  0  0
 57 60  1  0  0  0  0
 57 69  1  0  0  0  0
 58 71  1  0  0  0  0
 59 63  1  0  0  0  0
 61 62  1  0  0  0  0
M  CHG  1  71   1
M  ISO  4  33 100  56 101  70 100  79 101
M  END
> <Batch ID>
0009

> <Smiles>
CNC(C)C(=O)NC(C(=O)N1Cc2cc([101O:1][101CH2:1]C(CC[100NH:0][100C:0](=O)N3CCCC(n4nc(-c5ccc(Oc6ccc(F)cc6F)cc5)c(C(N)=O)c4N)C3)N3CCCC3=O)ccc2CC1C(=O)NC1CCCc2ccccc21)C(C)(C)C

> <Shape>
0.203

> <Color>
0.135

> <Negative vol penalty>
0.000

$$$$

  -OEChem-04042320373D

 80 88  0     1  0  0  0  0  0999 V2000
  -17.0551  -30.2305   23.4881 C   0  0  0  0  0  0  0  0  0  0  0  0
  -18.3306  -30.7524   23.2975 C   0  0  0  0  0  0  0  0  0  0  0  0
  -24.1944  -18.1207   20.1683 C   0  0  0  0  0  0  0  0  0  0  0  0
  -25.1083  -17.0121   22.1107 C   0  0  0  0  0  0  0  0  0  0  0  0
  -16.8615  -28.8498   23.4918 C   0  0  0  0  0  0  0  0  0  0  0  0
  -19.4134  -29.8937   23.1115 C   0  0  0  0  0  0  0  0  0  0  0  0
  -25.6692  -29.4665   19.6477 C   0  0  0  0  0  0  0  0  0  0  0  0
  -23.3382  -17.0405   19.9546 C   0  0  0  0  0  0  0  0  0  0  0  0
  -24.2520  -15.9319   21.8970 C   0  0  0  0  0  0  0  0  0  0  0  0
  -27.0165  -29.1991   19.8865 C   0  0  0  0  0  0  0  0  0  0  0  0
  -24.1068  -13.2315   19.8679 C   0  0  0  0  0  0  0  0  0  0  0  0
  -24.6449  -11.9484   19.9673 C   0  0  0  0  0  0  0  0  0  0  0  0
  -26.5502  -26.8330   19.8329 C   0  0  0  0  0  0  0  0  0  0  0  0
  -23.0997  -11.4387   21.7532 C   0  0  0  0  0  0  0  0  0  0  0  0
  -25.0795  -18.1065   21.2463 C   0  0  0  0  0  0  0  0  0  0  0  0
  -25.7095  -20.3690   22.2423 C   0  0  0  0  0  0  0  0  0  0  0  0
  -17.9409  -27.9739   23.2962 C   0  0  0  0  0  0  0  0  0  0  0  0
  -24.7489  -28.4175   19.5103 C   0  0  0  0  0  0  0  0  0  0  0  0
  -19.2342  -28.4999   23.1140 C   0  0  0  0  0  0  0  0  0  0  0  0
  -25.1922  -27.0897   19.5899 C   0  0  0  0  0  0  0  0  0  0  0  0
  -23.3670  -15.9462   20.8189 C   0  0  0  0  0  0  0  0  0  0  0  0
  -27.4567  -27.8822   19.9821 C   0  0  0  0  0  0  0  0  0  0  0  0
  -23.0652  -13.6182   20.7113 C   0  0  0  0  0  0  0  0  0  0  0  0
  -24.1413  -11.0520   20.9099 C   0  0  0  0  0  0  0  0  0  0  0  0
  -22.5616  -12.7218   21.6539 C   0  0  0  0  0  0  0  0  0  0  0  0
  -25.9646  -19.2218   21.4673 C   0  0  0  0  0  0  0  0  0  0  0  0
  -26.8548  -21.1191   22.1327 C   0  0  0  0  0  0  0  0  0  0  0  0
  -24.5417  -20.7247   22.9942 C   0  0  0  0  0  0  0  0  0  0  0  0
  -22.1601  -27.4821   21.1000 C   0  0  0  0  0  0  0  0  0  0  0  0
  -30.4568  -25.5319   18.6063 C   0  0  0  0  0  0  0  0  0  0  0  0
  -21.9130  -25.3508   18.6671 C   0  0  0  0  0  0  0  0  0  0  0  0
  -23.4638  -23.5915   16.1879 C   0  0  0  0  0  0  0  0  0  0  0  0
  -30.9565  -22.4757   18.3383 C   0  0  0  0  0  0  0  0  0  0  0  0
  -17.6900  -26.4879   23.3554 C   0  0  0  0  0  0  0  0  0  0  0  0
  -23.3036  -28.7223   19.2264 C   0  0  0  0  0  0  0  0  0  0  0  0
  -24.2479  -25.9274   19.4295 C   0  0  0  0  0  0  0  0  0  0  0  0
  -18.8306  -25.6541   22.7776 C   0  0  0  0  0  0  0  0  0  0  0  0
  -28.3644  -23.8044   16.2122 C   0  0  0  0  0  0  0  0  0  0  0  0
  -31.5449  -20.1890   20.9330 C   0  0  0  0  0  0  0  0  0  0  0  0
  -20.1738  -26.1490   23.3044 C   0  0  0  0  0  0  0  0  0  0  0  0
  -29.0466  -25.1148   16.5841 C   0  0  0  0  0  0  0  0  0  0  0  0
  -30.1480  -19.7944   21.4071 C   0  0  0  0  0  0  0  0  0  0  0  0
  -31.5808  -20.3404   19.4177 C   0  0  0  0  0  0  0  0  0  0  0  0
  -28.6208  -22.9253   17.4250 C   0  0  0  0  0  0  0  0  0  0  0  0
  -29.1849  -20.9661   19.3613 C   0  0  0  0  0  0  0  0  0  0  0  0
  -20.4300  -27.6013   22.8842 C   0  0  1  0  0  0  0  0  0  0  0  0
  -22.3653  -27.5839   19.6150 C   0  0  1  0  0  0  0  0  0  0  0  0
  -30.2615  -24.6746   17.3960 C   0  0  2  0  0  0  0  0  0  0  0  0
  -29.0948  -20.7883   20.8908 C   0  0  1  0  0  0  0  0  0  0  0  0
  -23.0072  -21.9014   14.3900 C   0  0  0  0  0  0  0  0  0  0  0  0
  -21.7688  -23.1502   20.7757 C   0  0  0  0  0  0  0  0  0  0  0  0
  -22.2703  -21.4865   18.9733 C   0  0  0  0  0  0  0  0  0  0  0  0
  -20.1918  -22.8609   18.8564 C   0  0  0  0  0  0  0  0  0  0  0  0
  -24.3278  -25.4540   14.0564 C   0  0  0  0  0  0  0  0  0  0  0  0
  -31.0026  -27.8443   19.3396 C   0  0  0  0  0  0  0  0  0  0  0  0
  -29.7212  -28.5618   19.7244 C   0  0  0  0  0  0  0  0  0  1  0  0
  -22.4276  -23.9547   18.4125 C   0  0  1  0  0  0  0  0  0  0  0  0
  -23.1069  -23.3809   14.7275 C   0  0  2  0  0  0  0  0  0  0  0  0
  -21.6823  -22.8848   19.2595 C   0  0  0  0  0  0  0  0  0  0  0  0
  -27.1768  -19.2374   20.9066 N   0  0  0  0  0  0  0  0  0  0  0  0
  -27.6935  -20.4037   21.3296 N   0  0  0  0  0  0  0  0  0  0  0  0
  -22.8434  -26.2769   19.1595 N   0  0  0  0  0  0  0  0  0  0  0  0
  -30.5600  -21.2779   18.9472 N   0  0  0  0  0  0  0  0  0  0  0  0
  -29.9498  -23.3313   17.8818 N   0  0  0  0  0  0  0  0  0  0  0  0
  -27.2162  -22.3144   22.6457 N   0  0  0  0  0  0  0  0  0  0  0  0
  -23.4550  -19.8395   22.9993 N   0  0  0  0  0  0  0  0  0  0  0  0
  -20.8497  -27.6605   21.5004 N   0  0  0  0  0  0  0  0  0  0  0  0
  -30.7738  -26.8460   18.3197 N   0  0  0  0  0  0  0  0  0  0  0  0
  -22.3396  -23.7436   16.9716 N   0  0  0  0  0  0  0  0  0  0  0  0
  -24.1413  -23.9950   13.8478 N   0  3  0  0  0  0  0  0  0  0  0  0
  -24.4578  -21.8034   23.6290 O   0  0  0  0  0  0  0  0  0  0  0  0
  -23.1194  -27.2568   21.8285 O   0  0  0  0  0  0  0  0  0  0  0  0
  -30.3285  -25.0408   19.7217 O   0  0  0  0  0  0  0  0  0  0  0  0
  -20.7308  -25.6121   18.4308 O   0  0  0  0  0  0  0  0  0  0  0  0
  -24.6238  -23.6147   16.5935 O   0  0  0  0  0  0  0  0  0  0  0  0
  -32.1526  -22.7580   18.1897 O   0  0  0  0  0  0  0  0  0  0  0  0
  -22.5315  -14.8920   20.6108 O   0  0  0  0  0  0  0  0  0  0  0  0
  -28.7804  -27.6166   20.2174 O   0  0  0  0  0  0  0  0  0  1  0  0
  -24.6571   -9.8195   21.0042 F   0  0  0  0  0  0  0  0  0  0  0  0
  -21.5602  -13.0871   22.4660 F   0  0  0  0  0  0  0  0  0  0  0  0
  1  2  1  0  0  0  0
  1  5  2  0  0  0  0
  2  6  2  0  0  0  0
  3  8  2  0  0  0  0
  3 15  1  0  0  0  0
  4  9  1  0  0  0  0
  4 15  2  0  0  0  0
  5 17  1  0  0  0  0
  6 19  1  0  0  0  0
  7 10  2  0  0  0  0
  7 18  1  0  0  0  0
  8 21  1  0  0  0  0
  9 21  2  0  0  0  0
 10 22  1  0  0  0  0
 11 12  2  0  0  0  0
 11 23  1  0  0  0  0
 12 24  1  0  0  0  0
 13 20  1  0  0  0  0
 13 22  2  0  0  0  0
 14 24  2  0  0  0  0
 14 25  1  0  0  0  0
 15 26  1  0  0  0  0
 16 26  1  0  0  0  0
 16 27  2  0  0  0  0
 16 28  1  0  0  0  0
 17 19  2  0  0  0  0
 17 34  1  0  0  0  0
 18 20  2  0  0  0  0
 18 35  1  0  0  0  0
 19 46  1  0  0  0  0
 20 36  1  0  0  0  0
 21 77  1  0  0  0  0
 22 78  1  0  0  0  0
 23 25  2  0  0  0  0
 23 77  1  0  0  0  0
 24 79  1  0  0  0  0
 25 80  1  0  0  0  0
 26 60  2  0  0  0  0
 27 61  1  0  0  0  0
 27 65  1  0  0  0  0
 28 66  1  0  0  0  0
 28 71  2  0  0  0  0
 29 47  1  0  0  0  0
 29 67  1  0  0  0  0
 29 72  2  0  0  0  0
 30 48  1  0  0  0  0
 30 68  1  0  0  0  0
 30 73  2  0  0  0  0
 31 57  1  0  0  0  0
 31 62  1  0  0  0  0
 31 74  2  0  0  0  0
 32 58  1  0  0  0  0
 32 69  1  0  0  0  0
 32 75  2  0  0  0  0
 33 63  1  0  0  0  0
 33 64  1  0  0  0  0
 33 76  2  0  0  0  0
 34 37  1  0  0  0  0
 35 47  1  0  0  0  0
 36 62  1  0  0  0  0
 37 40  1  0  0  0  0
 38 41  1  0  0  0  0
 38 44  1  0  0  0  0
 39 42  1  0  0  0  0
 39 43  1  0  0  0  0
 40 46  1  0  0  0  0
 41 48  1  0  0  0  0
 42 49  1  0  0  0  0
 43 63  1  0  0  0  0
 44 64  1  0  0  0  0
 45 49  1  0  0  0  0
 45 63  1  0  0  0  0
 46 67  1  0  0  0  0
 47 62  1  0  0  0  0
 48 64  1  0  0  0  0
 49 61  1  0  0  0  0
 50 58  1  0  0  0  0
 51 59  1  0  0  0  0
 52 59  1  0  0  0  0
 53 59  1  0  0  0  0
 54 70  1  0  0  0  0
 55 56  1  0  0  0  0
 55 68  1  0  0  0  0
 56 78  1  0  0  0  0
 57 59  1  0  0  0  0
 57 69  1  0  0  0  0
 58 70  1  0  0  0  0
 60 61  1  0  0  0  0
M  CHG  1  70   1
M  ISO  4  33 100  56 101  64 100  78 101
M  END
> <Batch ID>
0009

> <Smiles>
CNC(C)C(=O)NC(C(=O)N1Cc2cc([101O:1][101CH2:1]CNC(=O)C3CCC[100N:0]3[100C:0](=O)N3CCCC(n4nc(-c5ccc(Oc6ccc(F)cc6F)cc5)c(C(N)=O)c4N)C3)ccc2CC1C(=O)NC1CCCc2ccccc21)C(C)(C)C

> <Shape>
0.231

> <Color>
0.085

> <Negative vol penalty>
0.000

$$$$

  -OEChem-04042320373D

 84 93  0     1  0  0  0  0  0999 V2000
  -26.5967  -37.1184   25.0872 C   0  0  0  0  0  0  0  0  0  0  0  0
  -27.5438  -36.2084   24.6285 C   0  0  0  0  0  0  0  0  0  0  0  0
  -22.7981  -10.2818   20.2367 C   0  0  0  0  0  0  0  0  0  0  0  0
  -24.5643   -9.2289   21.5053 C   0  0  0  0  0  0  0  0  0  0  0  0
  -25.4298  -36.6602   25.6974 C   0  0  0  0  0  0  0  0  0  0  0  0
  -27.3251  -34.8397   24.7808 C   0  0  0  0  0  0  0  0  0  0  0  0
  -27.2101  -29.1653   19.4128 C   0  0  0  0  0  0  0  0  0  0  0  0
  -28.0636  -20.2153   19.4312 C   0  0  0  0  0  0  0  0  0  0  0  0
  -28.3683  -18.8710   19.6448 C   0  0  0  0  0  0  0  0  0  0  0  0
  -21.8505   -9.7340   21.1013 C   0  0  0  0  0  0  0  0  0  0  0  0
  -23.6167   -8.6812   22.3699 C   0  0  0  0  0  0  0  0  0  0  0  0
  -27.0088  -28.0993   18.5358 C   0  0  0  0  0  0  0  0  0  0  0  0
  -21.4540   -6.0824   22.3724 C   0  0  0  0  0  0  0  0  0  0  0  0
  -21.5954   -4.7395   22.7221 C   0  0  0  0  0  0  0  0  0  0  0  0
  -25.5513  -27.0358   20.1459 C   0  0  0  0  0  0  0  0  0  0  0  0
  -25.7490  -19.6315   19.0588 C   0  0  0  0  0  0  0  0  0  0  0  0
  -21.7820   -5.3649   25.0483 C   0  0  0  0  0  0  0  0  0  0  0  0
  -24.1550  -10.0292   20.4386 C   0  0  0  0  0  0  0  0  0  0  0  0
  -25.2399  -10.3849   18.1573 C   0  0  0  0  0  0  0  0  0  0  0  0
  -25.1922  -35.2849   25.8485 C   0  0  0  0  0  0  0  0  0  0  0  0
  -26.5698  -29.1780   20.6551 C   0  0  0  0  0  0  0  0  0  0  0  0
  -26.1545  -34.3627   25.3948 C   0  0  0  0  0  0  0  0  0  0  0  0
  -25.7393  -28.1069   21.0236 C   0  0  0  0  0  0  0  0  0  0  0  0
  -26.7539  -20.5956   19.1382 C   0  0  0  0  0  0  0  0  0  0  0  0
  -27.3634  -17.9070   19.5654 C   0  0  0  0  0  0  0  0  0  0  0  0
  -22.2598   -8.9337   22.1679 C   0  0  0  0  0  0  0  0  0  0  0  0
  -26.1816  -27.0371   18.9015 C   0  0  0  0  0  0  0  0  0  0  0  0
  -21.4767   -7.0666   23.3607 C   0  0  0  0  0  0  0  0  0  0  0  0
  -21.7594   -4.3808   24.0600 C   0  0  0  0  0  0  0  0  0  0  0  0
  -26.0537  -18.2872   19.2724 C   0  0  0  0  0  0  0  0  0  0  0  0
  -21.6406   -6.7078   24.6986 C   0  0  0  0  0  0  0  0  0  0  0  0
  -25.1344  -10.5943   19.5455 C   0  0  0  0  0  0  0  0  0  0  0  0
  -26.3240  -11.1381   17.7780 C   0  0  0  0  0  0  0  0  0  0  0  0
  -24.4303   -9.5816   17.2885 C   0  0  0  0  0  0  0  0  0  0  0  0
  -25.9727  -30.9966   23.8819 C   0  0  0  0  0  0  0  0  0  0  0  0
  -23.2806  -29.8056   23.0189 C   0  0  0  0  0  0  0  0  0  0  0  0
  -20.4344  -28.6887   21.5061 C   0  0  0  0  0  0  0  0  0  0  0  0
  -28.9251  -15.9991   20.0825 C   0  0  0  0  0  0  0  0  0  0  0  0
  -23.9378  -34.8385   26.5571 C   0  0  0  0  0  0  0  0  0  0  0  0
  -26.8062  -30.2758   21.6565 C   0  0  0  0  0  0  0  0  0  0  0  0
  -25.0985  -28.1465   22.3840 C   0  0  0  0  0  0  0  0  0  0  0  0
  -23.6096  -33.3631   26.3430 C   0  0  0  0  0  0  0  0  0  0  0  0
  -30.4675  -12.8508   19.4610 C   0  0  0  0  0  0  0  0  0  0  0  0
  -24.8556  -32.5052   26.5386 C   0  0  0  0  0  0  0  0  0  0  0  0
  -29.2845  -11.8969   19.2798 C   0  0  0  0  0  0  0  0  0  0  0  0
  -25.5206  -23.7173   17.4855 C   0  0  0  0  0  0  0  0  0  0  0  0
  -26.9101  -24.3024   19.4790 C   0  0  0  0  0  0  0  0  0  0  0  0
  -30.1870  -13.9056   20.5298 C   0  0  0  0  0  0  0  0  0  0  0  0
  -25.3483  -22.2978   18.0190 C   0  0  0  0  0  0  0  0  0  0  0  0
  -26.7353  -22.8856   20.0170 C   0  0  0  0  0  0  0  0  0  0  0  0
  -27.7589  -13.7080   20.1628 C   0  0  0  0  0  0  0  0  0  0  0  0
  -25.9419  -32.8696   25.5195 C   0  0  1  0  0  0  0  0  0  0  0  0
  -25.5578  -30.6086   22.4931 C   0  0  1  0  0  0  0  0  0  0  0  0
  -27.9694  -12.6674   19.0508 C   0  0  2  0  0  0  0  0  0  0  0  0
  -25.7313  -24.7239   18.6093 C   0  0  0  0  0  0  0  0  0  1  0  0
  -17.9508  -28.5519   21.8381 C   0  0  0  0  0  0  0  0  0  0  0  0
  -23.6757  -27.5267   25.0075 C   0  0  0  0  0  0  0  0  0  0  0  0
  -21.3109  -26.8301   24.5706 C   0  0  0  0  0  0  0  0  0  0  0  0
  -21.7873  -29.0727   25.5537 C   0  0  0  0  0  0  0  0  0  0  0  0
  -19.9051  -30.3124   19.0890 C   0  0  0  0  0  0  0  0  0  0  0  0
  -22.3192  -28.6485   23.1187 C   0  0  1  0  0  0  0  0  0  0  0  0
  -19.0974  -29.3615   21.2528 C   0  0  2  0  0  0  0  0  0  0  0  0
  -22.2919  -28.0215   24.5412 C   0  0  0  0  0  0  0  0  0  0  0  0
  -26.0763  -11.4159   20.0161 N   0  0  0  0  0  0  0  0  0  0  0  0
  -26.7842  -11.7295   18.9176 N   0  0  0  0  0  0  0  0  0  0  0  0
  -26.4480  -21.9456   18.9243 N   0  0  0  0  0  0  0  0  0  0  0  0
  -24.6011  -29.5022   22.6657 N   0  0  0  0  0  0  0  0  0  0  0  0
  -28.9280  -14.5975   20.2450 N   0  0  0  0  0  0  0  0  0  0  0  0
  -26.9190  -11.3456   16.5841 N   0  0  0  0  0  0  0  0  0  0  0  0
  -23.3559   -8.8725   17.8427 N   0  0  0  0  0  0  0  0  0  0  0  0
  -27.6762  -16.5421   19.7826 N   0  0  0  0  0  0  0  0  0  0  0  0
  -25.6376  -32.2917   24.2280 N   0  0  0  0  0  0  0  0  0  0  0  0
  -21.0277  -29.1503   22.6620 N   0  0  0  0  0  0  0  0  0  0  0  0
  -18.8644  -29.5162   19.7890 N   0  3  0  0  0  0  0  0  0  0  0  0
  -24.6631   -9.4821   16.0599 O   0  0  0  0  0  0  0  0  0  0  0  0
  -26.5530  -30.1812   24.5891 O   0  0  0  0  0  0  0  0  0  0  0  0
  -22.8759  -30.9479   23.2528 O   0  0  0  0  0  0  0  0  0  0  0  0
  -20.9037  -27.8360   20.7556 O   0  0  0  0  0  0  0  0  0  0  0  0
  -29.9595  -16.6651   20.1738 O   0  0  0  0  0  0  0  0  0  0  0  0
  -21.3354   -8.3993   23.0120 O   0  0  0  0  0  0  0  0  0  0  0  0
  -25.9858  -26.0018   18.0387 O   0  0  0  0  0  0  0  0  0  1  0  0
  -21.8936   -3.0910   24.3958 F   0  0  0  0  0  0  0  0  0  0  0  0
  -25.0800  -17.3689   19.1932 F   0  0  0  0  0  0  0  0  0  0  0  0
  -21.6620   -7.6487   25.6526 F   0  0  0  0  0  0  0  0  0  0  0  0
  1  2  1  0  0  0  0
  1  5  2  0  0  0  0
  2  6  2  0  0  0  0
  3 10  2  0  0  0  0
  3 18  1  0  0  0  0
  4 11  1  0  0  0  0
  4 18  2  0  0  0  0
  5 20  1  0  0  0  0
  6 22  1  0  0  0  0
  7 12  2  0  0  0  0
  7 21  1  0  0  0  0
  8  9  2  0  0  0  0
  8 24  1  0  0  0  0
  9 25  1  0  0  0  0
 10 26  1  0  0  0  0
 11 26  2  0  0  0  0
 12 27  1  0  0  0  0
 13 14  2  0  0  0  0
 13 28  1  0  0  0  0
 14 29  1  0  0  0  0
 15 23  1  0  0  0  0
 15 27  2  0  0  0  0
 16 24  2  0  0  0  0
 16 30  1  0  0  0  0
 17 29  2  0  0  0  0
 17 31  1  0  0  0  0
 18 32  1  0  0  0  0
 19 32  1  0  0  0  0
 19 33  2  0  0  0  0
 19 34  1  0  0  0  0
 20 22  2  0  0  0  0
 20 39  1  0  0  0  0
 21 23  2  0  0  0  0
 21 40  1  0  0  0  0
 22 52  1  0  0  0  0
 23 41  1  0  0  0  0
 24 66  1  0  0  0  0
 25 30  2  0  0  0  0
 25 71  1  0  0  0  0
 26 80  1  0  0  0  0
 27 81  1  0  0  0  0
 28 31  2  0  0  0  0
 28 80  1  0  0  0  0
 29 82  1  0  0  0  0
 30 83  1  0  0  0  0
 31 84  1  0  0  0  0
 32 64  2  0  0  0  0
 33 65  1  0  0  0  0
 33 69  1  0  0  0  0
 34 70  1  0  0  0  0
 34 75  2  0  0  0  0
 35 53  1  0  0  0  0
 35 72  1  0  0  0  0
 35 76  2  0  0  0  0
 36 61  1  0  0  0  0
 36 67  1  0  0  0  0
 36 77  2  0  0  0  0
 37 62  1  0  0  0  0
 37 73  1  0  0  0  0
 37 78  2  0  0  0  0
 38 68  1  0  0  0  0
 38 71  1  0  0  0  0
 38 79  2  0  0  0  0
 39 42  1  0  0  0  0
 40 53  1  0  0  0  0
 41 67  1  0  0  0  0
 42 44  1  0  0  0  0
 43 45  1  0  0  0  0
 43 48  1  0  0  0  0
 44 52  1  0  0  0  0
 45 54  1  0  0  0  0
 46 49  1  0  0  0  0
 46 55  1  0  0  0  0
 47 50  1  0  0  0  0
 47 55  1  0  0  0  0
 48 68  1  0  0  0  0
 49 66  1  0  0  0  0
 50 66  1  0  0  0  0
 51 54  1  0  0  0  0
 51 68  1  0  0  0  0
 52 72  1  0  0  0  0
 53 67  1  0  0  0  0
 54 65  1  0  0  0  0
 55 81  1  0  0  0  0
 56 62  1  0  0  0  0
 57 63  1  0  0  0  0
 58 63  1  0  0  0  0
 59 63  1  0  0  0  0
 60 74  1  0  0  0  0
 61 63  1  0  0  0  0
 61 73  1  0  0  0  0
 62 74  1  0  0  0  0
 64 65  1  0  0  0  0
M  CHG  1  74   1
M  ISO  4  38 100  55 101  71 100  81 101
M  END
> <Batch ID>
0009

> <Smiles>
CNC(C)C(=O)NC(C(=O)N1Cc2cc([101O:1][101CH:1]3CCN(c4ccc([100NH:0][100C:0](=O)N5CCCC(n6nc(-c7ccc(Oc8ccc(F)cc8F)cc7)c(C(N)=O)c6N)C5)c(F)c4)CC3)ccc2CC1C(=O)NC1CCCc2ccccc21)C(C)(C)C

> <Shape>
0.309

> <Color>
0.105

> <Negative vol penalty>
0.000

$$$$

  -OEChem-04042320373D

 88 97  0     1  0  0  0  0  0999 V2000
  -29.2859  -34.2458   24.1618 C   0  0  0  0  0  0  0  0  0  0  0  0
  -29.1856  -32.8933   23.8518 C   0  0  0  0  0  0  0  0  0  0  0  0
  -24.2052   -9.7266   21.2027 C   0  0  0  0  0  0  0  0  0  0  0  0
  -24.7445  -10.6581   23.3657 C   0  0  0  0  0  0  0  0  0  0  0  0
  -28.1498  -34.9586   24.5429 C   0  0  0  0  0  0  0  0  0  0  0  0
  -27.9492  -32.2525   23.9236 C   0  0  0  0  0  0  0  0  0  0  0  0
  -27.0688  -29.2752   19.9230 C   0  0  0  0  0  0  0  0  0  0  0  0
  -30.9122  -20.5197   21.9823 C   0  0  0  0  0  0  0  0  0  0  0  0
  -30.6565  -19.2719   21.4139 C   0  0  0  0  0  0  0  0  0  0  0  0
  -23.8045   -8.5387   21.8141 C   0  0  0  0  0  0  0  0  0  0  0  0
  -24.3438   -9.4702   23.9771 C   0  0  0  0  0  0  0  0  0  0  0  0
  -27.7029  -28.0337   19.9014 C   0  0  0  0  0  0  0  0  0  0  0  0
  -21.1005   -7.3861   23.4852 C   0  0  0  0  0  0  0  0  0  0  0  0
  -19.9048   -6.8085   23.0583 C   0  0  0  0  0  0  0  0  0  0  0  0
  -25.6668  -26.9873   20.6619 C   0  0  0  0  0  0  0  0  0  0  0  0
  -28.5430  -20.8512   22.3202 C   0  0  0  0  0  0  0  0  0  0  0  0
  -21.1010   -4.8127   22.4079 C   0  0  0  0  0  0  0  0  0  0  0  0
  -24.6752  -10.7864   21.9784 C   0  0  0  0  0  0  0  0  0  0  0  0
  -24.2892  -13.1362   21.0637 C   0  0  0  0  0  0  0  0  0  0  0  0
  -26.8972  -34.3284   24.6101 C   0  0  0  0  0  0  0  0  0  0  0  0
  -25.7298  -29.3836   20.3253 C   0  0  0  0  0  0  0  0  0  0  0  0
  -26.7955  -32.9572   24.3072 C   0  0  0  0  0  0  0  0  0  0  0  0
  -25.0172  -28.2309   20.6853 C   0  0  0  0  0  0  0  0  0  0  0  0
  -29.8554  -21.3094   22.4356 C   0  0  0  0  0  0  0  0  0  0  0  0
  -28.2873  -19.6034   21.7517 C   0  0  0  0  0  0  0  0  0  0  0  0
  -29.3441  -18.8138   21.2985 C   0  0  0  0  0  0  0  0  0  0  0  0
  -23.8738   -8.4105   23.2013 C   0  0  0  0  0  0  0  0  0  0  0  0
  -27.0028  -26.8899   20.2736 C   0  0  0  0  0  0  0  0  0  0  0  0
  -22.2965   -6.6770   23.3734 C   0  0  0  0  0  0  0  0  0  0  0  0
  -19.9050   -5.5218   22.5197 C   0  0  0  0  0  0  0  0  0  0  0  0
  -22.2968   -5.3904   22.8348 C   0  0  0  0  0  0  0  0  0  0  0  0
  -25.0898  -12.0135   21.3473 C   0  0  0  0  0  0  0  0  0  0  0  0
  -25.1470  -14.0276   20.4669 C   0  0  0  0  0  0  0  0  0  0  0  0
  -28.5823  -24.3947   22.0740 C   0  0  0  0  0  0  0  0  0  0  0  0
  -22.8949  -13.3539   21.3171 C   0  0  0  0  0  0  0  0  0  0  0  0
  -24.2115  -30.8691   22.6900 C   0  0  0  0  0  0  0  0  0  0  0  0
  -21.5680  -29.8233   21.1277 C   0  0  0  0  0  0  0  0  0  0  0  0
  -20.1740  -27.5635   18.9837 C   0  0  0  0  0  0  0  0  0  0  0  0
  -30.0535  -16.6487   20.2236 C   0  0  0  0  0  0  0  0  0  0  0  0
  -25.7057  -35.1291   25.0728 C   0  0  0  0  0  0  0  0  0  0  0  0
  -25.0524  -30.7266   20.3175 C   0  0  0  0  0  0  0  0  0  0  0  0
  -23.5722  -28.2909   21.1056 C   0  0  0  0  0  0  0  0  0  0  0  0
  -24.3672  -34.4642   24.7619 C   0  0  0  0  0  0  0  0  0  0  0  0
  -29.8699  -13.4111   18.7533 C   0  0  0  0  0  0  0  0  0  0  0  0
  -24.4008  -32.9894   25.1498 C   0  0  0  0  0  0  0  0  0  0  0  0
  -28.5441  -12.8513   19.2738 C   0  0  0  0  0  0  0  0  0  0  0  0
  -29.9637  -25.0871   20.2583 C   0  0  0  0  0  0  0  0  0  0  0  0
  -30.5817  -14.2563   19.8082 C   0  0  0  0  0  0  0  0  0  0  0  0
  -30.7960  -24.2936   21.2464 C   0  0  0  0  0  0  0  0  0  0  0  0
  -28.4427  -14.7676   20.9183 C   0  0  0  0  0  0  0  0  0  0  0  0
  -25.4677  -32.2326   24.3495 C   0  0  1  0  0  0  0  0  0  0  0  0
  -28.7497  -25.5211   21.0735 C   0  0  1  0  0  0  0  0  0  1  0  0
  -23.8367  -30.7879   21.2372 C   0  0  1  0  0  0  0  0  0  0  0  0
  -27.6579  -13.9629   19.8694 C   0  0  2  0  0  0  0  0  0  0  0  0
  -17.9840  -26.9406   17.9285 C   0  0  0  0  0  0  0  0  0  0  0  0
  -20.6529  -28.5868   23.7627 C   0  0  0  0  0  0  0  0  0  0  0  0
  -19.0086  -27.2136   22.4670 C   0  0  0  0  0  0  0  0  0  0  0  0
  -18.8408  -29.7024   22.4490 C   0  0  0  0  0  0  0  0  0  0  0  0
  -21.2257  -28.0216   16.2555 C   0  0  0  0  0  0  0  0  0  0  0  0
  -30.1306  -22.6535   23.0453 C   0  0  0  0  0  0  0  0  0  0  0  0
  -20.7171  -28.5775   21.1817 C   0  0  1  0  0  0  0  0  0  0  0  0
  -19.2667  -27.7439   17.7800 C   0  0  2  0  0  0  0  0  0  0  0  0
  -26.8713  -19.1393   21.6381 C   0  0  0  0  0  0  0  0  0  0  0  0
  -19.8326  -28.5189   22.4591 C   0  0  0  0  0  0  0  0  0  0  0  0
  -26.3586  -12.1744   20.9622 N   0  0  0  0  0  0  0  0  0  0  0  0
  -26.3618  -13.4086   20.4304 N   0  0  0  0  0  0  0  0  0  0  0  0
  -29.8078  -23.7350   22.1400 N   0  0  0  0  0  0  0  0  0  0  0  0
  -22.9558  -29.6278   21.0877 N   0  0  0  0  0  0  0  0  0  0  0  0
  -29.6827  -15.2910   20.3240 N   0  0  0  0  0  0  0  0  0  0  0  0
  -24.9731  -15.2726   19.9749 N   0  0  0  0  0  0  0  0  0  0  0  0
  -22.1616  -12.3339   21.9384 N   0  0  0  0  0  0  0  0  0  0  0  0
  -29.1051  -17.5434   20.7181 N   0  0  0  0  0  0  0  0  0  0  0  0
  -24.9957  -31.9614   23.0085 N   0  0  0  0  0  0  0  0  0  0  0  0
  -19.9651  -28.5424   19.9321 N   0  0  0  0  0  0  0  0  0  0  0  0
  -19.9593  -27.2982   16.5380 N   0  3  0  0  0  0  0  0  0  0  0  0
  -27.5586  -24.1541   22.6959 O   0  0  0  0  0  0  0  0  0  0  0  0
  -22.3129  -14.4150   20.9871 O   0  0  0  0  0  0  0  0  0  0  0  0
  -23.8170  -30.0056   23.4649 O   0  0  0  0  0  0  0  0  0  0  0  0
  -21.0213  -30.9290   21.1141 O   0  0  0  0  0  0  0  0  0  0  0  0
  -20.9842  -26.6438   19.0753 O   0  0  0  0  0  0  0  0  0  0  0  0
  -31.1210  -16.9936   19.7103 O   0  0  0  0  0  0  0  0  0  0  0  0
  -23.4827   -7.2515   23.7984 O   0  0  0  0  0  0  0  0  0  0  0  0
  -27.6195  -25.6770   20.2541 O   0  0  0  0  0  0  0  0  0  1  0  0
  -18.7565   -4.9667   22.1112 F   0  0  0  0  0  0  0  0  0  0  0  0
  -23.4425   -4.7038   22.7259 F   0  0  0  0  0  0  0  0  0  0  0  0
  -25.9641  -20.0342   22.1267 F   0  0  0  0  0  0  0  0  0  0  0  0
  -26.4800  -18.8970   20.3534 F   0  0  0  0  0  0  0  0  0  0  0  0
  -26.6464  -17.9783   22.3174 F   0  0  0  0  0  0  0  0  0  0  0  0
  1  2  1  0  0  0  0
  1  5  2  0  0  0  0
  2  6  2  0  0  0  0
  3 10  2  0  0  0  0
  3 18  1  0  0  0  0
  4 11  1  0  0  0  0
  4 18  2  0  0  0  0
  5 20  1  0  0  0  0
  6 22  1  0  0  0  0
  7 12  2  0  0  0  0
  7 21  1  0  0  0  0
  8  9  2  0  0  0  0
  8 24  1  0  0  0  0
  9 26  1  0  0  0  0
 10 27  1  0  0  0  0
 11 27  2  0  0  0  0
 12 28  1  0  0  0  0
 13 14  2  0  0  0  0
 13 29  1  0  0  0  0
 14 30  1  0  0  0  0
 15 23  1  0  0  0  0
 15 28  2  0  0  0  0
 16 24  2  0  0  0  0
 16 25  1  0  0  0  0
 17 30  2  0  0  0  0
 17 31  1  0  0  0  0
 18 32  1  0  0  0  0
 19 32  1  0  0  0  0
 19 33  2  0  0  0  0
 19 35  1  0  0  0  0
 20 22  2  0  0  0  0
 20 40  1  0  0  0  0
 21 23  2  0  0  0  0
 21 41  1  0  0  0  0
 22 51  1  0  0  0  0
 23 42  1  0  0  0  0
 24 60  1  0  0  0  0
 25 26  2  0  0  0  0
 25 63  1  0  0  0  0
 26 72  1  0  0  0  0
 27 82  1  0  0  0  0
 28 83  1  0  0  0  0
 29 31  2  0  0  0  0
 29 82  1  0  0  0  0
 30 84  1  0  0  0  0
 31 85  1  0  0  0  0
 32 65  2  0  0  0  0
 33 66  1  0  0  0  0
 33 70  1  0  0  0  0
 34 52  1  0  0  0  0
 34 67  1  0  0  0  0
 34 76  2  0  0  0  0
 35 71  1  0  0  0  0
 35 77  2  0  0  0  0
 36 53  1  0  0  0  0
 36 73  1  0  0  0  0
 36 78  2  0  0  0  0
 37 61  1  0  0  0  0
 37 68  1  0  0  0  0
 37 79  2  0  0  0  0
 38 62  1  0  0  0  0
 38 74  1  0  0  0  0
 38 80  2  0  0  0  0
 39 69  1  0  0  0  0
 39 72  1  0  0  0  0
 39 81  2  0  0  0  0
 40 43  1  0  0  0  0
 41 53  1  0  0  0  0
 42 68  1  0  0  0  0
 43 45  1  0  0  0  0
 44 46  1  0  0  0  0
 44 48  1  0  0  0  0
 45 51  1  0  0  0  0
 46 54  1  0  0  0  0
 47 49  1  0  0  0  0
 47 52  1  0  0  0  0
 48 69  1  0  0  0  0
 49 67  1  0  0  0  0
 50 54  1  0  0  0  0
 50 69  1  0  0  0  0
 51 73  1  0  0  0  0
 52 83  1  0  0  0  0
 53 68  1  0  0  0  0
 54 66  1  0  0  0  0
 55 62  1  0  0  0  0
 56 64  1  0  0  0  0
 57 64  1  0  0  0  0
 58 64  1  0  0  0  0
 59 75  1  0  0  0  0
 60 67  1  0  0  0  0
 61 64  1  0  0  0  0
 61 74  1  0  0  0  0
 62 75  1  0  0  0  0
 63 86  1  0  0  0  0
 63 87  1  0  0  0  0
 63 88  1  0  0  0  0
 65 66  1  0  0  0  0
M  CHG  1  75   1
M  ISO  4  39 100  52 101  72 100  83 101
M  END
> <Batch ID>
0009

> <Smiles>
CNC(C)C(=O)NC(C(=O)N1Cc2cc([101O:1][101CH:1]3CCN(Cc4ccc([100NH:0][100C:0](=O)N5CCCC(n6nc(-c7ccc(Oc8ccc(F)cc8F)cc7)c(C(N)=O)c6N)C5)c(C(F)(F)F)c4)C3=O)ccc2CC1C(=O)NC1CCCc2ccccc21)C(C)(C)C

> <Shape>
0.337

> <Color>
0.143

> <Negative vol penalty>
0.000

$$$$

  -OEChem-04042320373D

 81 89  0     1  0  0  0  0  0999 V2000
  -18.6094  -31.8389   26.2255 C   0  0  0  0  0  0  0  0  0  0  0  0
  -19.9562  -31.5121   26.3471 C   0  0  0  0  0  0  0  0  0  0  0  0
  -24.7318  -10.0331   22.2908 C   0  0  0  0  0  0  0  0  0  0  0  0
  -24.7804  -11.5341   24.1834 C   0  0  0  0  0  0  0  0  0  0  0  0
  -17.8572  -31.3112   25.1769 C   0  0  0  0  0  0  0  0  0  0  0  0
  -20.5513  -30.6564   25.4208 C   0  0  0  0  0  0  0  0  0  0  0  0
  -26.8064  -29.4594   22.1410 C   0  0  0  0  0  0  0  0  0  0  0  0
  -29.5892  -20.3801   20.7541 C   0  0  0  0  0  0  0  0  0  0  0  0
  -29.5462  -21.7518   21.0035 C   0  0  0  0  0  0  0  0  0  0  0  0
  -24.4181   -8.9722   23.1402 C   0  0  0  0  0  0  0  0  0  0  0  0
  -24.4667  -10.4731   25.0328 C   0  0  0  0  0  0  0  0  0  0  0  0
  -27.7172  -28.4316   21.9007 C   0  0  0  0  0  0  0  0  0  0  0  0
  -23.2494   -5.9374   24.7648 C   0  0  0  0  0  0  0  0  0  0  0  0
  -22.2363   -5.0653   24.3663 C   0  0  0  0  0  0  0  0  0  0  0  0
  -26.3390  -27.6429   20.0848 C   0  0  0  0  0  0  0  0  0  0  0  0
  -27.1745  -20.3121   20.7115 C   0  0  0  0  0  0  0  0  0  0  0  0
  -20.6687   -6.9034   24.3289 C   0  0  0  0  0  0  0  0  0  0  0  0
  -24.9131  -11.3141   22.8124 C   0  0  0  0  0  0  0  0  0  0  0  0
  -24.3362  -13.2688   21.2781 C   0  0  0  0  0  0  0  0  0  0  0  0
  -18.4457  -30.4563   24.2317 C   0  0  0  0  0  0  0  0  0  0  0  0
  -25.6476  -29.5804   21.3606 C   0  0  0  0  0  0  0  0  0  0  0  0
  -19.8059  -30.1157   24.3593 C   0  0  0  0  0  0  0  0  0  0  0  0
  -25.4163  -28.6747   20.3155 C   0  0  0  0  0  0  0  0  0  0  0  0
  -27.1315  -21.6839   20.9609 C   0  0  0  0  0  0  0  0  0  0  0  0
  -28.4033  -19.6603   20.6081 C   0  0  0  0  0  0  0  0  0  0  0  0
  -28.3174  -22.4037   21.1069 C   0  0  0  0  0  0  0  0  0  0  0  0
  -24.2855   -9.1922   24.5112 C   0  0  0  0  0  0  0  0  0  0  0  0
  -27.4821  -27.5214   20.8744 C   0  0  0  0  0  0  0  0  0  0  0  0
  -22.9721   -7.2925   24.9454 C   0  0  0  0  0  0  0  0  0  0  0  0
  -20.9460   -5.5483   24.1483 C   0  0  0  0  0  0  0  0  0  0  0  0
  -21.6818   -7.7755   24.7275 C   0  0  0  0  0  0  0  0  0  0  0  0
  -25.2377  -12.4104   21.9355 C   0  0  0  0  0  0  0  0  0  0  0  0
  -25.1375  -14.1333   20.5730 C   0  0  0  0  0  0  0  0  0  0  0  0
  -22.9028  -13.2836   21.3027 C   0  0  0  0  0  0  0  0  0  0  0  0
  -22.5258  -29.4578   21.9465 C   0  0  0  0  0  0  0  0  0  0  0  0
  -22.3020  -30.3231   18.8282 C   0  0  0  0  0  0  0  0  0  0  0  0
  -23.7394  -30.4055   15.7340 C   0  0  0  0  0  0  0  0  0  0  0  0
  -29.5831  -17.4677   20.2247 C   0  0  0  0  0  0  0  0  0  0  0  0
  -17.5807  -29.8729   23.1426 C   0  0  0  0  0  0  0  0  0  0  0  0
  -24.6884  -30.7107   21.6153 C   0  0  0  0  0  0  0  0  0  0  0  0
  -24.1976  -28.7731   19.4360 C   0  0  0  0  0  0  0  0  0  0  0  0
  -18.3779  -29.2715   21.9881 C   0  0  0  0  0  0  0  0  0  0  0  0
  -30.1104  -13.9956   19.6386 C   0  0  0  0  0  0  0  0  0  0  0  0
  -19.5060  -28.3926   22.5191 C   0  0  0  0  0  0  0  0  0  0  0  0
  -28.8155  -13.3442   20.1299 C   0  0  0  0  0  0  0  0  0  0  0  0
  -30.5151  -15.1820   20.5116 C   0  0  0  0  0  0  0  0  0  0  0  0
  -28.1761  -15.5453   21.1944 C   0  0  0  0  0  0  0  0  0  0  0  0
  -20.4933  -29.2106   23.3602 C   0  0  1  0  0  0  0  0  0  0  0  0
  -23.2836  -30.4321   21.0896 C   0  0  1  0  0  0  0  0  0  0  0  0
  -27.6933  -14.3856   20.3081 C   0  0  2  0  0  0  0  0  0  0  0  0
  -25.8017  -22.3567   21.0681 C   0  0  0  0  0  0  0  0  0  0  0  0
  -23.2984  -31.1425   13.3761 C   0  0  0  0  0  0  0  0  0  0  0  0
  -20.4676  -27.9189   18.4224 C   0  0  0  0  0  0  0  0  0  0  0  0
  -20.8309  -28.1460   15.9557 C   0  0  0  0  0  0  0  0  0  0  0  0
  -19.7452  -29.9952   17.2302 C   0  0  0  0  0  0  0  0  0  0  0  0
  -26.0321  -32.2767   15.7671 C   0  0  0  0  0  0  0  0  0  0  0  0
  -29.4820  -24.5721   21.5157 C   0  0  0  0  0  0  0  0  0  0  0  0
  -29.1060  -26.0245   21.7567 C   0  0  0  0  0  0  0  0  0  1  0  0
  -22.2229  -29.5811   17.5159 C   0  0  1  0  0  0  0  0  0  0  0  0
  -23.8902  -31.5278   14.7230 C   0  0  2  0  0  0  0  0  0  0  0  0
  -20.8387  -28.9070   17.2987 C   0  0  0  0  0  0  0  0  0  0  0  0
  -26.5140  -12.7028   21.6714 N   0  0  0  0  0  0  0  0  0  0  0  0
  -26.4202  -13.7546   20.8402 N   0  0  0  0  0  0  0  0  0  0  0  0
  -23.2863  -29.8917   19.7287 N   0  0  0  0  0  0  0  0  0  0  0  0
  -29.4041  -16.1287   20.6320 N   0  0  0  0  0  0  0  0  0  0  0  0
  -24.8629  -15.1728   19.7566 N   0  0  0  0  0  0  0  0  0  0  0  0
  -22.2380  -12.3247   22.0792 N   0  0  0  0  0  0  0  0  0  0  0  0
  -28.4478  -18.2667   20.3554 N   0  0  0  0  0  0  0  0  0  0  0  0
  -28.2935  -23.7662   21.3545 N   0  0  0  0  0  0  0  0  0  0  0  0
  -21.3729  -29.9770   22.5038 N   0  0  0  0  0  0  0  0  0  0  0  0
  -22.5884  -30.5422   16.4809 N   0  0  0  0  0  0  0  0  0  0  0  0
  -25.3301  -31.8580   14.5266 N   0  3  0  0  0  0  0  0  0  0  0  0
  -22.2310  -14.1118   20.6422 O   0  0  0  0  0  0  0  0  0  0  0  0
  -22.9546  -28.3188   22.0900 O   0  0  0  0  0  0  0  0  0  0  0  0
  -21.5240  -31.2558   19.0434 O   0  0  0  0  0  0  0  0  0  0  0  0
  -24.5586  -29.4964   15.8472 O   0  0  0  0  0  0  0  0  0  0  0  0
  -30.6560  -17.8687   19.7664 O   0  0  0  0  0  0  0  0  0  0  0  0
  -23.9791   -8.1572   25.3403 O   0  0  0  0  0  0  0  0  0  0  0  0
  -28.3692  -26.5168   20.6381 O   0  0  0  0  0  0  0  0  0  1  0  0
  -19.9737   -4.7110   23.7641 F   0  0  0  0  0  0  0  0  0  0  0  0
  -21.4096   -9.0765   24.8983 F   0  0  0  0  0  0  0  0  0  0  0  0
  1  2  1  0  0  0  0
  1  5  2  0  0  0  0
  2  6  2  0  0  0  0
  3 10  2  0  0  0  0
  3 18  1  0  0  0  0
  4 11  1  0  0  0  0
  4 18  2  0  0  0  0
  5 20  1  0  0  0  0
  6 22  1  0  0  0  0
  7 12  2  0  0  0  0
  7 21  1  0  0  0  0
  8  9  2  0  0  0  0
  8 25  1  0  0  0  0
  9 26  1  0  0  0  0
 10 27  1  0  0  0  0
 11 27  2  0  0  0  0
 12 28  1  0  0  0  0
 13 14  2  0  0  0  0
 13 29  1  0  0  0  0
 14 30  1  0  0  0  0
 15 23  1  0  0  0  0
 15 28  2  0  0  0  0
 16 24  1  0  0  0  0
 16 25  2  0  0  0  0
 17 30  2  0  0  0  0
 17 31  1  0  0  0  0
 18 32  1  0  0  0  0
 19 32  1  0  0  0  0
 19 33  2  0  0  0  0
 19 34  1  0  0  0  0
 20 22  2  0  0  0  0
 20 39  1  0  0  0  0
 21 23  2  0  0  0  0
 21 40  1  0  0  0  0
 22 48  1  0  0  0  0
 23 41  1  0  0  0  0
 24 26  2  0  0  0  0
 24 51  1  0  0  0  0
 25 68  1  0  0  0  0
 26 69  1  0  0  0  0
 27 78  1  0  0  0  0
 28 79  1  0  0  0  0
 29 31  2  0  0  0  0
 29 78  1  0  0  0  0
 30 80  1  0  0  0  0
 31 81  1  0  0  0  0
 32 62  2  0  0  0  0
 33 63  1  0  0  0  0
 33 66  1  0  0  0  0
 34 67  1  0  0  0  0
 34 73  2  0  0  0  0
 35 49  1  0  0  0  0
 35 70  1  0  0  0  0
 35 74  2  0  0  0  0
 36 59  1  0  0  0  0
 36 64  1  0  0  0  0
 36 75  2  0  0  0  0
 37 60  1  0  0  0  0
 37 71  1  0  0  0  0
 37 76  2  0  0  0  0
 38 65  1  0  0  0  0
 38 68  1  0  0  0  0
 38 77  2  0  0  0  0
 39 42  1  0  0  0  0
 40 49  1  0  0  0  0
 41 64  1  0  0  0  0
 42 44  1  0  0  0  0
 43 45  1  0  0  0  0
 43 46  1  0  0  0  0
 44 48  1  0  0  0  0
 45 50  1  0  0  0  0
 46 65  1  0  0  0  0
 47 50  1  0  0  0  0
 47 65  1  0  0  0  0
 48 70  1  0  0  0  0
 49 64  1  0  0  0  0
 50 63  1  0  0  0  0
 52 60  1  0  0  0  0
 53 61  1  0  0  0  0
 54 61  1  0  0  0  0
 55 61  1  0  0  0  0
 56 72  1  0  0  0  0
 57 58  1  0  0  0  0
 57 69  1  0  0  0  0
 58 79  1  0  0  0  0
 59 61  1  0  0  0  0
 59 71  1  0  0  0  0
 60 72  1  0  0  0  0
 62 63  1  0  0  0  0
M  CHG  1  72   1
M  ISO  4  38 100  58 101  68 100  79 101
M  END
> <Batch ID>
0009

> <Smiles>
CNC(C)C(=O)NC(C(=O)N1Cc2cc([101O:1][101CH2:1]CNc3ccc([100NH:0][100C:0](=O)N4CCCC(n5nc(-c6ccc(Oc7ccc(F)cc7F)cc6)c(C(N)=O)c5N)C4)cc3C)ccc2CC1C(=O)NC1CCCc2ccccc21)C(C)(C)C

> <Shape>
0.285

> <Color>
0.136

> <Negative vol penalty>
0.000

$$$$

  -OEChem-04042320373D

 81 89  0     1  0  0  0  0  0999 V2000
  -31.8150  -33.9272   23.9279 C   0  0  0  0  0  0  0  0  0  0  0  0
  -31.5391  -32.8345   23.1123 C   0  0  0  0  0  0  0  0  0  0  0  0
  -27.0500  -10.8914   21.5132 C   0  0  0  0  0  0  0  0  0  0  0  0
  -25.9071  -11.5920   19.5032 C   0  0  0  0  0  0  0  0  0  0  0  0
  -30.9921  -34.2075   25.0179 C   0  0  0  0  0  0  0  0  0  0  0  0
  -30.4406  -32.0207   23.3869 C   0  0  0  0  0  0  0  0  0  0  0  0
  -26.8579  -29.1749   19.3161 C   0  0  0  0  0  0  0  0  0  0  0  0
  -25.9452  -10.1194   21.8723 C   0  0  0  0  0  0  0  0  0  0  0  0
  -24.8023  -10.8199   19.8623 C   0  0  0  0  0  0  0  0  0  0  0  0
  -26.8369  -27.8651   18.8391 C   0  0  0  0  0  0  0  0  0  0  0  0
  -25.6201  -21.3151   16.3631 C   0  0  0  0  0  0  0  0  0  0  0  0
  -22.1757  -11.0614   21.9774 C   0  0  0  0  0  0  0  0  0  0  0  0
  -25.8037  -20.0113   15.9027 C   0  0  0  0  0  0  0  0  0  0  0  0
  -20.9124  -11.6384   21.8485 C   0  0  0  0  0  0  0  0  0  0  0  0
  -25.1328  -27.3106   20.4540 C   0  0  0  0  0  0  0  0  0  0  0  0
  -27.1565  -20.8903   18.1787 C   0  0  0  0  0  0  0  0  0  0  0  0
  -20.2751   -9.8973   20.2995 C   0  0  0  0  0  0  0  0  0  0  0  0
  -27.0310  -11.6277   20.3286 C   0  0  0  0  0  0  0  0  0  0  0  0
  -29.2781  -12.0208   19.1869 C   0  0  0  0  0  0  0  0  0  0  0  0
  -29.8774  -33.4024   25.3004 C   0  0  0  0  0  0  0  0  0  0  0  0
  -26.0228  -29.5604   20.3747 C   0  0  0  0  0  0  0  0  0  0  0  0
  -29.6027  -32.2897   24.4825 C   0  0  0  0  0  0  0  0  0  0  0  0
  -25.1432  -28.6266   20.9409 C   0  0  0  0  0  0  0  0  0  0  0  0
  -27.3401  -19.5865   17.7182 C   0  0  0  0  0  0  0  0  0  0  0  0
  -24.8214  -10.0836   21.0469 C   0  0  0  0  0  0  0  0  0  0  0  0
  -25.9764  -26.9319   19.4099 C   0  0  0  0  0  0  0  0  0  0  0  0
  -26.2965  -21.7546   17.5011 C   0  0  0  0  0  0  0  0  0  0  0  0
  -22.4888   -9.9023   21.2672 C   0  0  0  0  0  0  0  0  0  0  0  0
  -19.9621  -11.0564   21.0096 C   0  0  0  0  0  0  0  0  0  0  0  0
  -26.6637  -19.1470   16.5802 C   0  0  0  0  0  0  0  0  0  0  0  0
  -21.5385   -9.3203   20.4283 C   0  0  0  0  0  0  0  0  0  0  0  0
  -28.1717  -12.4259   19.9574 C   0  0  0  0  0  0  0  0  0  0  0  0
  -30.0769  -13.1361   19.1204 C   0  0  0  0  0  0  0  0  0  0  0  0
  -29.5586  -10.7501   18.5850 C   0  0  0  0  0  0  0  0  0  0  0  0
  -26.4962  -30.6628   23.3182 C   0  0  0  0  0  0  0  0  0  0  0  0
  -23.2685  -30.9846   23.2975 C   0  0  0  0  0  0  0  0  0  0  0  0
  -20.2671  -30.0009   22.0049 C   0  0  0  0  0  0  0  0  0  0  0  0
  -28.9589  -18.9900   19.5539 C   0  0  0  0  0  0  0  0  0  0  0  0
  -29.0442  -33.7172   26.5175 C   0  0  0  0  0  0  0  0  0  0  0  0
  -26.0382  -30.9840   20.8599 C   0  0  0  0  0  0  0  0  0  0  0  0
  -24.2122  -28.9951   22.0659 C   0  0  0  0  0  0  0  0  0  0  0  0
  -27.6837  -33.0250   26.5200 C   0  0  0  0  0  0  0  0  0  0  0  0
  -31.1945  -17.0937   21.5747 C   0  0  0  0  0  0  0  0  0  0  0  0
  -27.8327  -31.5535   26.1471 C   0  0  0  0  0  0  0  0  0  0  0  0
  -30.7777  -15.6443   21.3145 C   0  0  0  0  0  0  0  0  0  0  0  0
  -29.9906  -18.0337   21.6024 C   0  0  0  0  0  0  0  0  0  0  0  0
  -28.6974  -16.5056   20.1665 C   0  0  0  0  0  0  0  0  0  0  0  0
  -28.4061  -31.3979   24.7334 C   0  0  1  0  0  0  0  0  0  0  0  0
  -25.5136  -31.1354   22.2844 C   0  0  1  0  0  0  0  0  0  0  0  0
  -29.8822  -15.5311   20.0651 C   0  0  2  0  0  0  0  0  0  0  0  0
  -17.8011  -30.4168   22.2134 C   0  0  0  0  0  0  0  0  0  0  0  0
  -23.2152  -29.3597   25.8796 C   0  0  0  0  0  0  0  0  0  0  0  0
  -20.7632  -29.0023   25.5220 C   0  0  0  0  0  0  0  0  0  0  0  0
  -21.6515  -31.3111   25.8425 C   0  0  0  0  0  0  0  0  0  0  0  0
  -20.0647  -30.9076   19.1949 C   0  0  0  0  0  0  0  0  0  0  0  0
  -27.1702  -25.1365   18.4062 C   0  0  0  0  0  0  0  0  0  1  0  0
  -27.2138  -23.6371   18.6283 C   0  0  0  0  0  0  0  0  0  0  0  0
  -22.1035  -30.0997   23.6699 C   0  0  1  0  0  0  0  0  0  0  0  0
  -19.0827  -30.7981   21.4889 C   0  0  2  0  0  0  0  0  0  0  0  0
  -21.9522  -29.9354   25.2086 C   0  0  0  0  0  0  0  0  0  0  0  0
  -28.2566  -13.6990   20.3522 N   0  0  0  0  0  0  0  0  0  0  0  0
  -29.4260  -14.1036   19.8278 N   0  0  0  0  0  0  0  0  0  0  0  0
  -24.2689  -30.3977   22.5097 N   0  0  0  0  0  0  0  0  0  0  0  0
  -29.1912  -17.8742   20.3857 N   0  0  0  0  0  0  0  0  0  0  0  0
  -31.2657  -13.3738   18.5265 N   0  0  0  0  0  0  0  0  0  0  0  0
  -28.6311   -9.7126   18.7516 N   0  0  0  0  0  0  0  0  0  0  0  0
  -28.2136  -18.7104   18.4090 N   0  0  0  0  0  0  0  0  0  0  0  0
  -27.3791  -31.6375   23.7422 N   0  0  0  0  0  0  0  0  0  0  0  0
  -20.9322  -30.6682   23.0116 N   0  0  0  0  0  0  0  0  0  0  0  0
  -18.8892  -30.5537   20.0316 N   0  3  0  0  0  0  0  0  0  0  0  0
  -30.6086  -10.5361   17.9330 O   0  0  0  0  0  0  0  0  0  0  0  0
  -26.4554  -29.5003   23.7037 O   0  0  0  0  0  0  0  0  0  0  0  0
  -23.2866  -32.1555   23.6851 O   0  0  0  0  0  0  0  0  0  0  0  0
  -20.5695  -28.8951   21.5619 O   0  0  0  0  0  0  0  0  0  0  0  0
  -29.4125  -20.1053   19.8226 O   0  0  0  0  0  0  0  0  0  0  0  0
  -23.7432   -9.3302   21.3969 O   0  0  0  0  0  0  0  0  0  0  0  0
  -25.9545  -25.6525   18.9467 O   0  0  0  0  0  0  0  0  0  1  0  0
  -26.1159  -23.0353   17.9532 O   0  0  0  0  0  0  0  0  0  0  0  0
  -18.7484  -11.6098   20.8872 F   0  0  0  0  0  0  0  0  0  0  0  0
  -26.8320  -17.8958   16.1289 F   0  0  0  0  0  0  0  0  0  0  0  0
  -21.8330   -8.2061   19.7445 F   0  0  0  0  0  0  0  0  0  0  0  0
  1  2  1  0  0  0  0
  1  5  2  0  0  0  0
  2  6  2  0  0  0  0
  3  8  2  0  0  0  0
  3 18  1  0  0  0  0
  4  9  1  0  0  0  0
  4 18  2  0  0  0  0
  5 20  1  0  0  0  0
  6 22  1  0  0  0  0
  7 10  2  0  0  0  0
  7 21  1  0  0  0  0
  8 25  1  0  0  0  0
  9 25  2  0  0  0  0
 10 26  1  0  0  0  0
 11 13  2  0  0  0  0
 11 27  1  0  0  0  0
 12 14  2  0  0  0  0
 12 28  1  0  0  0  0
 13 30  1  0  0  0  0
 14 29  1  0  0  0  0
 15 23  1  0  0  0  0
 15 26  2  0  0  0  0
 16 24  1  0  0  0  0
 16 27  2  0  0  0  0
 17 29  2  0  0  0  0
 17 31  1  0  0  0  0
 18 32  1  0  0  0  0
 19 32  1  0  0  0  0
 19 33  2  0  0  0  0
 19 34  1  0  0  0  0
 20 22  2  0  0  0  0
 20 39  1  0  0  0  0
 21 23  2  0  0  0  0
 21 40  1  0  0  0  0
 22 48  1  0  0  0  0
 23 41  1  0  0  0  0
 24 30  2  0  0  0  0
 24 67  1  0  0  0  0
 25 76  1  0  0  0  0
 26 77  1  0  0  0  0
 27 78  1  0  0  0  0
 28 31  2  0  0  0  0
 28 76  1  0  0  0  0
 29 79  1  0  0  0  0
 30 80  1  0  0  0  0
 31 81  1  0  0  0  0
 32 61  2  0  0  0  0
 33 62  1  0  0  0  0
 33 65  1  0  0  0  0
 34 66  1  0  0  0  0
 34 71  2  0  0  0  0
 35 49  1  0  0  0  0
 35 68  1  0  0  0  0
 35 72  2  0  0  0  0
 36 58  1  0  0  0  0
 36 63  1  0  0  0  0
 36 73  2  0  0  0  0
 37 59  1  0  0  0  0
 37 69  1  0  0  0  0
 37 74  2  0  0  0  0
 38 64  1  0  0  0  0
 38 67  1  0  0  0  0
 38 75  2  0  0  0  0
 39 42  1  0  0  0  0
 40 49  1  0  0  0  0
 41 63  1  0  0  0  0
 42 44  1  0  0  0  0
 43 45  1  0  0  0  0
 43 46  1  0  0  0  0
 44 48  1  0  0  0  0
 45 50  1  0  0  0  0
 46 64  1  0  0  0  0
 47 50  1  0  0  0  0
 47 64  1  0  0  0  0
 48 68  1  0  0  0  0
 49 63  1  0  0  0  0
 50 62  1  0  0  0  0
 51 59  1  0  0  0  0
 52 60  1  0  0  0  0
 53 60  1  0  0  0  0
 54 60  1  0  0  0  0
 55 70  1  0  0  0  0
 56 57  1  0  0  0  0
 56 77  1  0  0  0  0
 57 78  1  0  0  0  0
 58 60  1  0  0  0  0
 58 69  1  0  0  0  0
 59 70  1  0  0  0  0
 61 62  1  0  0  0  0
M  CHG  1  70   1
M  ISO  4  38 100  56 101  67 100  77 101
M  END
> <Batch ID>
0009

> <Smiles>
CNC(C)C(=O)NC(C(=O)N1Cc2cc([101O:1][101CH2:1]COc3ccc(F)c([100NH:0][100C:0](=O)N4CCCC(n5nc(-c6ccc(Oc7ccc(F)cc7F)cc6)c(C(N)=O)c5N)C4)c3)ccc2CC1C(=O)NC1CCCc2ccccc21)C(C)(C)C

> <Shape>
0.268

> <Color>
0.087

> <Negative vol penalty>
0.000

$$$$

  -OEChem-04042320373D

 82 90  0     1  0  0  0  0  0999 V2000
  -18.7543  -27.0561   26.0032 C   0  0  0  0  0  0  0  0  0  0  0  0
  -19.9874  -26.5667   25.5846 C   0  0  0  0  0  0  0  0  0  0  0  0
  -27.1802  -20.0208   17.2766 C   0  0  0  0  0  0  0  0  0  0  0  0
  -24.5067   -9.2460   21.1266 C   0  0  0  0  0  0  0  0  0  0  0  0
  -22.5339  -10.5476   20.6255 C   0  0  0  0  0  0  0  0  0  0  0  0
  -17.9992  -27.8606   25.1509 C   0  0  0  0  0  0  0  0  0  0  0  0
  -20.4657  -26.8807   24.3129 C   0  0  0  0  0  0  0  0  0  0  0  0
  -26.3005  -27.8051   22.6986 C   0  0  0  0  0  0  0  0  0  0  0  0
  -28.2504  -20.7922   17.7296 C   0  0  0  0  0  0  0  0  0  0  0  0
  -26.4897  -19.1961   18.1647 C   0  0  0  0  0  0  0  0  0  0  0  0
  -23.7049   -8.1413   21.4139 C   0  0  0  0  0  0  0  0  0  0  0  0
  -21.7321   -9.4429   20.9127 C   0  0  0  0  0  0  0  0  0  0  0  0
  -27.2498  -26.9791   22.0983 C   0  0  0  0  0  0  0  0  0  0  0  0
  -21.7893   -7.0538   23.9774 C   0  0  0  0  0  0  0  0  0  0  0  0
  -22.0833   -6.3221   25.1280 C   0  0  0  0  0  0  0  0  0  0  0  0
  -26.6958  -27.9169   19.9459 C   0  0  0  0  0  0  0  0  0  0  0  0
  -27.9396  -19.9141   19.9589 C   0  0  0  0  0  0  0  0  0  0  0  0
  -22.4520   -4.3510   23.7803 C   0  0  0  0  0  0  0  0  0  0  0  0
  -23.9212  -10.4491   20.7325 C   0  0  0  0  0  0  0  0  0  0  0  0
  -25.2974  -11.9421   19.1882 C   0  0  0  0  0  0  0  0  0  0  0  0
  -18.4727  -28.1926   23.8718 C   0  0  0  0  0  0  0  0  0  0  0  0
  -25.5328  -28.6869   21.9243 C   0  0  0  0  0  0  0  0  0  0  0  0
  -19.7155  -27.6894   23.4422 C   0  0  0  0  0  0  0  0  0  0  0  0
  -25.7392  -28.7548   20.5391 C   0  0  0  0  0  0  0  0  0  0  0  0
  -28.6301  -20.7389   19.0708 C   0  0  0  0  0  0  0  0  0  0  0  0
  -26.8694  -19.1427   19.5058 C   0  0  0  0  0  0  0  0  0  0  0  0
  -22.3177   -8.2398   21.3069 C   0  0  0  0  0  0  0  0  0  0  0  0
  -27.4455  -27.0328   20.7214 C   0  0  0  0  0  0  0  0  0  0  0  0
  -21.8265   -6.4340   22.7283 C   0  0  0  0  0  0  0  0  0  0  0  0
  -22.4147   -4.9708   25.0294 C   0  0  0  0  0  0  0  0  0  0  0  0
  -22.1578   -5.0827   22.6298 C   0  0  0  0  0  0  0  0  0  0  0  0
  -24.7488  -11.5908   20.4362 C   0  0  0  0  0  0  0  0  0  0  0  0
  -25.9969  -13.0983   19.4338 C   0  0  0  0  0  0  0  0  0  0  0  0
  -25.1847  -11.2823   17.9203 C   0  0  0  0  0  0  0  0  0  0  0  0
  -22.4303  -29.0214   21.3189 C   0  0  0  0  0  0  0  0  0  0  0  0
  -23.4182  -31.6967   19.7732 C   0  0  0  0  0  0  0  0  0  0  0  0
  -29.0684  -23.9458   19.7290 C   0  0  0  0  0  0  0  0  0  0  0  0
  -25.9407  -33.3636   18.1904 C   0  0  0  0  0  0  0  0  0  0  0  0
  -26.4146  -18.1354   21.7696 C   0  0  0  0  0  0  0  0  0  0  0  0
  -17.5995  -29.0267   22.9683 C   0  0  0  0  0  0  0  0  0  0  0  0
  -24.5316  -29.5904   22.5905 C   0  0  0  0  0  0  0  0  0  0  0  0
  -24.9551  -29.6988   19.6658 C   0  0  0  0  0  0  0  0  0  0  0  0
  -18.3471  -29.6208   21.7774 C   0  0  0  0  0  0  0  0  0  0  0  0
  -27.2390  -15.3315   23.8032 C   0  0  0  0  0  0  0  0  0  0  0  0
  -19.2170  -28.5602   21.1101 C   0  0  0  0  0  0  0  0  0  0  0  0
  -26.7098  -14.1372   23.0059 C   0  0  0  0  0  0  0  0  0  0  0  0
  -26.3226  -16.5475   23.6788 C   0  0  0  0  0  0  0  0  0  0  0  0
  -25.4781  -15.7546   21.5045 C   0  0  0  0  0  0  0  0  0  0  0  0
  -20.2795  -28.0283   22.0794 C   0  0  1  0  0  0  0  0  0  0  0  0
  -23.4450  -30.0823   21.6393 C   0  0  1  0  0  0  0  0  0  0  0  0
  -26.4013  -14.5260   21.5467 C   0  0  2  0  0  0  0  0  0  0  0  0
  -26.4359  -35.5160   16.9991 C   0  0  0  0  0  0  0  0  0  0  0  0
  -21.9235  -30.6778   17.3160 C   0  0  0  0  0  0  0  0  0  0  0  0
  -23.2105  -32.3238   15.9368 C   0  0  0  0  0  0  0  0  0  0  0  0
  -21.6860  -33.1312   17.7385 C   0  0  0  0  0  0  0  0  0  0  0  0
  -28.0109  -34.1161   20.1670 C   0  0  0  0  0  0  0  0  0  0  0  0
  -29.7820  -21.5695   19.5579 C   0  0  0  0  0  0  0  0  0  0  0  0
  -28.6246  -24.9677   20.7538 C   0  0  0  0  0  0  0  0  0  1  0  0
  -23.8658  -32.0153   18.3671 C   0  0  1  0  0  0  0  0  0  0  0  0
  -26.4532  -34.7854   18.3327 C   0  0  2  0  0  0  0  0  0  0  0  0
  -22.6850  -32.0177   17.3555 C   0  0  0  0  0  0  0  0  0  0  0  0
  -25.0721  -12.4539   21.4029 N   0  0  0  0  0  0  0  0  0  0  0  0
  -25.8315  -13.3589   20.7623 N   0  0  0  0  0  0  0  0  0  0  0  0
  -23.9835  -30.5574   20.3632 N   0  0  0  0  0  0  0  0  0  0  0  0
  -26.0783  -16.8593   22.2689 N   0  0  0  0  0  0  0  0  0  0  0  0
  -26.7312  -13.9073   18.6409 N   0  0  0  0  0  0  0  0  0  0  0  0
  -24.4281  -10.1050   17.8446 N   0  0  0  0  0  0  0  0  0  0  0  0
  -26.1673  -18.3053   20.4078 N   0  0  0  0  0  0  0  0  0  0  0  0
  -21.3692  -28.9726   22.2027 N   0  0  0  0  0  0  0  0  0  0  0  0
  -29.3388  -22.7184   20.3133 N   0  0  0  0  0  0  0  0  0  0  0  0
  -24.5882  -33.2804   18.4454 N   0  0  0  0  0  0  0  0  0  0  0  0
  -27.8512  -34.7828   18.8490 N   0  3  0  0  0  0  0  0  0  0  0  0
  -25.7521  -11.7147   16.8885 O   0  0  0  0  0  0  0  0  0  0  0  0
  -22.5970  -28.3015   20.3414 O   0  0  0  0  0  0  0  0  0  0  0  0
  -22.6026  -32.4357   20.3302 O   0  0  0  0  0  0  0  0  0  0  0  0
  -29.1681  -24.2046   18.5327 O   0  0  0  0  0  0  0  0  0  0  0  0
  -26.6667  -32.4217   17.8801 O   0  0  0  0  0  0  0  0  0  0  0  0
  -26.9125  -19.0038   22.4907 O   0  0  0  0  0  0  0  0  0  0  0  0
  -21.5350   -7.1620   21.5869 O   0  0  0  0  0  0  0  0  0  0  0  0
  -28.3710  -26.2272   20.1328 O   0  0  0  0  0  0  0  0  0  1  0  0
  -22.6986   -4.2687   26.1343 F   0  0  0  0  0  0  0  0  0  0  0  0
  -22.1964   -4.4822   21.4324 F   0  0  0  0  0  0  0  0  0  0  0  0
  1  2  1  0  0  0  0
  1  6  2  0  0  0  0
  2  7  2  0  0  0  0
  3  9  2  0  0  0  0
  3 10  1  0  0  0  0
  4 11  2  0  0  0  0
  4 19  1  0  0  0  0
  5 12  1  0  0  0  0
  5 19  2  0  0  0  0
  6 21  1  0  0  0  0
  7 23  1  0  0  0  0
  8 13  2  0  0  0  0
  8 22  1  0  0  0  0
  9 25  1  0  0  0  0
 10 26  2  0  0  0  0
 11 27  1  0  0  0  0
 12 27  2  0  0  0  0
 13 28  1  0  0  0  0
 14 15  2  0  0  0  0
 14 29  1  0  0  0  0
 15 30  1  0  0  0  0
 16 24  1  0  0  0  0
 16 28  2  0  0  0  0
 17 25  2  0  0  0  0
 17 26  1  0  0  0  0
 18 30  2  0  0  0  0
 18 31  1  0  0  0  0
 19 32  1  0  0  0  0
 20 32  1  0  0  0  0
 20 33  2  0  0  0  0
 20 34  1  0  0  0  0
 21 23  2  0  0  0  0
 21 40  1  0  0  0  0
 22 24  2  0  0  0  0
 22 41  1  0  0  0  0
 23 49  1  0  0  0  0
 24 42  1  0  0  0  0
 25 57  1  0  0  0  0
 26 68  1  0  0  0  0
 27 79  1  0  0  0  0
 28 80  1  0  0  0  0
 29 31  2  0  0  0  0
 29 79  1  0  0  0  0
 30 81  1  0  0  0  0
 31 82  1  0  0  0  0
 32 62  2  0  0  0  0
 33 63  1  0  0  0  0
 33 66  1  0  0  0  0
 34 67  1  0  0  0  0
 34 73  2  0  0  0  0
 35 50  1  0  0  0  0
 35 69  1  0  0  0  0
 35 74  2  0  0  0  0
 36 59  1  0  0  0  0
 36 64  1  0  0  0  0
 36 75  2  0  0  0  0
 37 58  1  0  0  0  0
 37 70  1  0  0  0  0
 37 76  2  0  0  0  0
 38 60  1  0  0  0  0
 38 71  1  0  0  0  0
 38 77  2  0  0  0  0
 39 65  1  0  0  0  0
 39 68  1  0  0  0  0
 39 78  2  0  0  0  0
 40 43  1  0  0  0  0
 41 50  1  0  0  0  0
 42 64  1  0  0  0  0
 43 45  1  0  0  0  0
 44 46  1  0  0  0  0
 44 47  1  0  0  0  0
 45 49  1  0  0  0  0
 46 51  1  0  0  0  0
 47 65  1  0  0  0  0
 48 51  1  0  0  0  0
 48 65  1  0  0  0  0
 49 69  1  0  0  0  0
 50 64  1  0  0  0  0
 51 63  1  0  0  0  0
 52 60  1  0  0  0  0
 53 61  1  0  0  0  0
 54 61  1  0  0  0  0
 55 61  1  0  0  0  0
 56 72  1  0  0  0  0
 57 70  1  0  0  0  0
 58 80  1  0  0  0  0
 59 61  1  0  0  0  0
 59 71  1  0  0  0  0
 60 72  1  0  0  0  0
 62 63  1  0  0  0  0
M  CHG  1  72   1
M  ISO  4  39 100  58 101  68 100  80 101
M  END
> <Batch ID>
0009

> <Smiles>
CNC(C)C(=O)NC(C(=O)N1Cc2cc([101O:1][101CH2:1]C(=O)NCc3cccc([100NH:0][100C:0](=O)N4CCCC(n5nc(-c6ccc(Oc7ccc(F)cc7F)cc6)c(C(N)=O)c5N)C4)c3)ccc2CC1C(=O)NC1CCCc2ccccc21)C(C)(C)C

> <Shape>
0.255

> <Color>
0.132

> <Negative vol penalty>
0.000

$$$$

  -OEChem-04042320373D

 82 90  0     1  0  0  0  0  0999 V2000
  -26.6092  -34.4110   25.1909 C   0  0  0  0  0  0  0  0  0  0  0  0
  -27.0442  -33.1992   24.6641 C   0  0  0  0  0  0  0  0  0  0  0  0
  -23.5198  -13.9680   19.5749 C   0  0  0  0  0  0  0  0  0  0  0  0
  -23.6431  -15.0230   21.7449 C   0  0  0  0  0  0  0  0  0  0  0  0
  -25.2810  -34.5607   25.5879 C   0  0  0  0  0  0  0  0  0  0  0  0
  -26.1515  -32.1358   24.5350 C   0  0  0  0  0  0  0  0  0  0  0  0
  -26.5427  -29.8036   20.0569 C   0  0  0  0  0  0  0  0  0  0  0  0
  -31.5753  -22.0872   21.6904 C   0  0  0  0  0  0  0  0  0  0  0  0
  -22.9338  -12.8431   20.1551 C   0  0  0  0  0  0  0  0  0  0  0  0
  -23.0571  -13.8980   22.3251 C   0  0  0  0  0  0  0  0  0  0  0  0
  -27.6081  -28.9200   19.8901 C   0  0  0  0  0  0  0  0  0  0  0  0
  -31.3588  -23.4548   21.5217 C   0  0  0  0  0  0  0  0  0  0  0  0
  -23.9410  -10.1363   21.9109 C   0  0  0  0  0  0  0  0  0  0  0  0
  -24.4167   -8.8845   21.5206 C   0  0  0  0  0  0  0  0  0  0  0  0
  -26.1264  -27.0635   20.3109 C   0  0  0  0  0  0  0  0  0  0  0  0
  -29.4029  -21.8711   22.7254 C   0  0  0  0  0  0  0  0  0  0  0  0
  -22.2125   -8.2945   20.7265 C   0  0  0  0  0  0  0  0  0  0  0  0
  -23.8745  -15.0580   20.3698 C   0  0  0  0  0  0  0  0  0  0  0  0
  -23.8214  -17.3533   19.2579 C   0  0  0  0  0  0  0  0  0  0  0  0
  -24.3693  -33.5016   25.4546 C   0  0  0  0  0  0  0  0  0  0  0  0
  -25.2612  -29.3237   20.3632 C   0  0  0  0  0  0  0  0  0  0  0  0
  -24.8102  -32.2709   24.9318 C   0  0  0  0  0  0  0  0  0  0  0  0
  -25.0459  -27.9429   20.4785 C   0  0  0  0  0  0  0  0  0  0  0  0
  -30.5973  -21.2953   22.2923 C   0  0  0  0  0  0  0  0  0  0  0  0
  -22.7024  -12.8081   21.5301 C   0  0  0  0  0  0  0  0  0  0  0  0
  -27.4007  -27.5499   20.0199 C   0  0  0  0  0  0  0  0  0  0  0  0
  -22.6010  -10.4671   21.7092 C   0  0  0  0  0  0  0  0  0  0  0  0
  -30.1644  -24.0305   21.9549 C   0  0  0  0  0  0  0  0  0  0  0  0
  -23.5524   -7.9636   20.9283 C   0  0  0  0  0  0  0  0  0  0  0  0
  -29.1865  -23.2387   22.5567 C   0  0  0  0  0  0  0  0  0  0  0  0
  -21.7368   -9.5463   21.1170 C   0  0  0  0  0  0  0  0  0  0  0  0
  -24.4804  -16.2202   19.7711 C   0  0  0  0  0  0  0  0  0  0  0  0
  -24.8339  -18.1645   18.8069 C   0  0  0  0  0  0  0  0  0  0  0  0
  -22.4193  -17.6465   19.1945 C   0  0  0  0  0  0  0  0  0  0  0  0
  -23.2565  -29.6803   22.8040 C   0  0  0  0  0  0  0  0  0  0  0  0
  -21.2439  -28.0041   20.8903 C   0  0  0  0  0  0  0  0  0  0  0  0
  -20.8604  -25.8014   18.3120 C   0  0  0  0  0  0  0  0  0  0  0  0
  -30.6125  -18.6792   20.2881 C   0  0  0  0  0  0  0  0  0  0  0  0
  -22.9550  -33.6957   25.9414 C   0  0  0  0  0  0  0  0  0  0  0  0
  -24.1169  -30.2882   20.5136 C   0  0  0  0  0  0  0  0  0  0  0  0
  -23.6851  -27.3755   20.7864 C   0  0  0  0  0  0  0  0  0  0  0  0
  -21.9823  -32.6394   25.4235 C   0  0  0  0  0  0  0  0  0  0  0  0
  -29.2841  -17.9787   17.0599 C   0  0  0  0  0  0  0  0  0  0  0  0
  -22.5793  -31.2439   25.5751 C   0  0  0  0  0  0  0  0  0  0  0  0
  -27.8429  -17.5508   17.3424 C   0  0  0  0  0  0  0  0  0  0  0  0
  -30.2406  -17.4917   18.1461 C   0  0  0  0  0  0  0  0  0  0  0  0
  -28.4172  -17.4374   19.8033 C   0  0  0  0  0  0  0  0  0  0  0  0
  -23.8659  -31.1020   24.7529 C   0  0  1  0  0  0  0  0  0  0  0  0
  -22.9608  -29.7209   21.3314 C   0  0  1  0  0  0  0  0  0  0  0  0
  -27.4070  -17.9531   18.7641 C   0  0  2  0  0  0  0  0  0  0  0  0
  -19.0958  -24.5919   17.0004 C   0  0  0  0  0  0  0  0  0  0  0  0
  -20.8456  -26.0689   23.2155 C   0  0  0  0  0  0  0  0  0  0  0  0
  -19.8775  -24.4271   21.5920 C   0  0  0  0  0  0  0  0  0  0  0  0
  -18.7596  -26.6275   21.9541 C   0  0  0  0  0  0  0  0  0  0  0  0
  -21.6871  -27.0978   15.7831 C   0  0  0  0  0  0  0  0  0  0  0  0
  -30.8305  -19.8338   22.4741 C   0  0  0  0  0  0  0  0  0  0  0  0
  -29.7390  -27.1589   20.2077 C   0  0  0  0  0  0  0  0  0  1  0  0
  -30.5842  -25.9885   20.6720 C   0  0  0  0  0  0  0  0  0  0  0  0
  -20.9409  -26.5404   20.6788 C   0  0  1  0  0  0  0  0  0  0  0  0
  -19.9693  -25.8339   17.0834 C   0  0  2  0  0  0  0  0  0  0  0  0
  -20.1321  -25.9265   21.8562 C   0  0  0  0  0  0  0  0  0  0  0  0
  -25.8088  -16.3005   19.6571 N   0  0  0  0  0  0  0  0  0  0  0  0
  -25.9926  -17.4938   19.0670 N   0  0  0  0  0  0  0  0  0  0  0  0
  -22.5996  -28.3596   20.9308 N   0  0  0  0  0  0  0  0  0  0  0  0
  -29.7709  -17.9076   19.4699 N   0  0  0  0  0  0  0  0  0  0  0  0
  -24.8371  -19.3788   18.2172 N   0  0  0  0  0  0  0  0  0  0  0  0
  -21.5159  -16.7036   19.7035 N   0  0  0  0  0  0  0  0  0  0  0  0
  -23.5527  -30.9134   23.3526 N   0  0  0  0  0  0  0  0  0  0  0  0
  -20.2769  -26.4441   19.3833 N   0  0  0  0  0  0  0  0  0  0  0  0
  -30.0876  -19.0360   21.5242 N   0  0  0  0  0  0  0  0  0  0  0  0
  -20.7960  -25.9108   15.8458 N   0  3  0  0  0  0  0  0  0  0  0  0
  -21.9799  -18.7058   18.6863 O   0  0  0  0  0  0  0  0  0  0  0  0
  -23.2173  -28.6096   23.3989 O   0  0  0  0  0  0  0  0  0  0  0  0
  -20.3120  -28.8037   21.0080 O   0  0  0  0  0  0  0  0  0  0  0  0
  -21.9622  -25.2569   18.3215 O   0  0  0  0  0  0  0  0  0  0  0  0
  -31.7455  -19.0289   19.9405 O   0  0  0  0  0  0  0  0  0  0  0  0
  -22.1304  -11.7106   22.0966 O   0  0  0  0  0  0  0  0  0  0  0  0
  -28.4390  -26.6853   19.8583 O   0  0  0  0  0  0  0  0  0  1  0  0
  -29.9534  -25.3741   21.7890 O   0  0  0  0  0  0  0  0  0  0  0  0
  -24.0097   -6.7622   20.5521 F   0  0  0  0  0  0  0  0  0  0  0  0
  -28.0371  -23.7861   22.9752 F   0  0  0  0  0  0  0  0  0  0  0  0
  -20.4487   -9.8589   20.9195 F   0  0  0  0  0  0  0  0  0  0  0  0
  1  2  1  0  0  0  0
  1  5  2  0  0  0  0
  2  6  2  0  0  0  0
  3  9  2  0  0  0  0
  3 18  1  0  0  0  0
  4 10  1  0  0  0  0
  4 18  2  0  0  0  0
  5 20  1  0  0  0  0
  6 22  1  0  0  0  0
  7 11  2  0  0  0  0
  7 21  1  0  0  0  0
  8 12  2  0  0  0  0
  8 24  1  0  0  0  0
  9 25  1  0  0  0  0
 10 25  2  0  0  0  0
 11 26  1  0  0  0  0
 12 28  1  0  0  0  0
 13 14  2  0  0  0  0
 13 27  1  0  0  0  0
 14 29  1  0  0  0  0
 15 23  1  0  0  0  0
 15 26  2  0  0  0  0
 16 24  2  0  0  0  0
 16 30  1  0  0  0  0
 17 29  2  0  0  0  0
 17 31  1  0  0  0  0
 18 32  1  0  0  0  0
 19 32  1  0  0  0  0
 19 33  2  0  0  0  0
 19 34  1  0  0  0  0
 20 22  2  0  0  0  0
 20 39  1  0  0  0  0
 21 23  2  0  0  0  0
 21 40  1  0  0  0  0
 22 48  1  0  0  0  0
 23 41  1  0  0  0  0
 24 56  1  0  0  0  0
 25 77  1  0  0  0  0
 26 78  1  0  0  0  0
 27 31  2  0  0  0  0
 27 77  1  0  0  0  0
 28 30  2  0  0  0  0
 28 79  1  0  0  0  0
 29 80  1  0  0  0  0
 30 81  1  0  0  0  0
 31 82  1  0  0  0  0
 32 62  2  0  0  0  0
 33 63  1  0  0  0  0
 33 66  1  0  0  0  0
 34 67  1  0  0  0  0
 34 72  2  0  0  0  0
 35 49  1  0  0  0  0
 35 68  1  0  0  0  0
 35 73  2  0  0  0  0
 36 59  1  0  0  0  0
 36 64  1  0  0  0  0
 36 74  2  0  0  0  0
 37 60  1  0  0  0  0
 37 69  1  0  0  0  0
 37 75  2  0  0  0  0
 38 65  1  0  0  0  0
 38 70  1  0  0  0  0
 38 76  2  0  0  0  0
 39 42  1  0  0  0  0
 40 49  1  0  0  0  0
 41 64  1  0  0  0  0
 42 44  1  0  0  0  0
 43 45  1  0  0  0  0
 43 46  1  0  0  0  0
 44 48  1  0  0  0  0
 45 50  1  0  0  0  0
 46 65  1  0  0  0  0
 47 50  1  0  0  0  0
 47 65  1  0  0  0  0
 48 68  1  0  0  0  0
 49 64  1  0  0  0  0
 50 63  1  0  0  0  0
 51 60  1  0  0  0  0
 52 61  1  0  0  0  0
 53 61  1  0  0  0  0
 54 61  1  0  0  0  0
 55 71  1  0  0  0  0
 56 70  1  0  0  0  0
 57 58  1  0  0  0  0
 57 78  1  0  0  0  0
 58 79  1  0  0  0  0
 59 61  1  0  0  0  0
 59 69  1  0  0  0  0
 60 71  1  0  0  0  0
 62 63  1  0  0  0  0
M  CHG  1  71   1
M  ISO  4  38 100  57 101  70 100  78 101
M  END
> <Batch ID>
0009

> <Smiles>
CNC(C)C(=O)NC(C(=O)N1Cc2cc([101O:1][101CH2:1]COc3ccc(C[100NH:0][100C:0](=O)N4CCCC(n5nc(-c6ccc(Oc7ccc(F)cc7F)cc6)c(C(N)=O)c5N)C4)cc3F)ccc2CC1C(=O)NC1CCCc2ccccc21)C(C)(C)C

> <Shape>
0.254

> <Color>
0.079

> <Negative vol penalty>
0.000

$$$$

  -OEChem-04042320373D

 73 80  0     1  0  0  0  0  0999 V2000
  -28.7807  -11.4027   19.8413 C   0  0  0  0  0  0  0  0  0  0  0  0
  -28.8747  -12.6791   19.2960 C   0  0  0  0  0  0  0  0  0  0  0  0
  -25.9114  -28.9143   20.8188 C   0  0  0  0  0  0  0  0  0  0  0  0
  -25.2447  -26.5922   20.8056 C   0  0  0  0  0  0  0  0  0  0  0  0
  -27.5741  -10.9659   20.3863 C   0  0  0  0  0  0  0  0  0  0  0  0
  -27.7616  -13.5191   19.2943 C   0  0  0  0  0  0  0  0  0  0  0  0
  -28.8908  -18.2435   20.7261 C   0  0  0  0  0  0  0  0  0  0  0  0
  -24.5811  -29.2972   20.6476 C   0  0  0  0  0  0  0  0  0  0  0  0
  -23.9144  -26.9751   20.6344 C   0  0  0  0  0  0  0  0  0  0  0  0
  -29.5037  -19.0657   19.7816 C   0  0  0  0  0  0  0  0  0  0  0  0
  -20.2991  -27.3512   20.5553 C   0  0  0  0  0  0  0  0  0  0  0  0
  -19.3346  -26.7145   21.3363 C   0  0  0  0  0  0  0  0  0  0  0  0
  -27.3782  -20.1087   19.3193 C   0  0  0  0  0  0  0  0  0  0  0  0
  -20.4277  -27.5133   23.3374 C   0  0  0  0  0  0  0  0  0  0  0  0
  -26.2432  -27.5618   20.8978 C   0  0  0  0  0  0  0  0  0  0  0  0
  -28.2943  -26.9641   22.2918 C   0  0  0  0  0  0  0  0  0  0  0  0
  -26.4483  -11.8044   20.4000 C   0  0  0  0  0  0  0  0  0  0  0  0
  -27.5128  -18.3403   20.9669 C   0  0  0  0  0  0  0  0  0  0  0  0
  -26.5384  -13.0925   19.8388 C   0  0  0  0  0  0  0  0  0  0  0  0
  -26.7507  -19.2883   20.2692 C   0  0  0  0  0  0  0  0  0  0  0  0
  -23.5826  -28.3276   20.5554 C   0  0  0  0  0  0  0  0  0  0  0  0
  -28.7469  -19.9965   19.0760 C   0  0  0  0  0  0  0  0  0  0  0  0
  -21.3280  -28.0688   21.1653 C   0  0  0  0  0  0  0  0  0  0  0  0
  -19.3988  -26.7956   22.7274 C   0  0  0  0  0  0  0  0  0  0  0  0
  -21.3923  -28.1499   22.5564 C   0  0  0  0  0  0  0  0  0  0  0  0
  -27.6173  -27.1656   21.0741 C   0  0  0  0  0  0  0  0  0  0  0  0
  -29.5659  -26.6003   21.9215 C   0  0  0  0  0  0  0  0  0  0  0  0
  -27.8165  -27.0941   23.6374 C   0  0  0  0  0  0  0  0  0  0  0  0
  -25.0394  -16.3661   20.6693 C   0  0  0  0  0  0  0  0  0  0  0  0
  -23.4301  -18.7916   22.1009 C   0  0  0  0  0  0  0  0  0  0  0  0
  -23.2352  -22.1273   22.7949 C   0  0  0  0  0  0  0  0  0  0  0  0
  -31.8053  -24.0606   16.9833 C   0  0  0  0  0  0  0  0  0  0  0  0
  -25.1525  -11.2708   20.9575 C   0  0  0  0  0  0  0  0  0  0  0  0
  -26.8716  -17.4645   22.0082 C   0  0  0  0  0  0  0  0  0  0  0  0
  -25.2716  -19.4460   20.5052 C   0  0  0  0  0  0  0  0  0  0  0  0
  -24.1234  -12.3586   21.2544 C   0  0  0  0  0  0  0  0  0  0  0  0
  -32.7528  -27.1859   18.4013 C   0  0  0  0  0  0  0  0  0  0  0  0
  -24.0228  -13.3319   20.0842 C   0  0  0  0  0  0  0  0  0  0  0  0
  -31.6052  -27.5169   19.3570 C   0  0  0  0  0  0  0  0  0  0  0  0
  -32.2517  -26.4924   17.1365 C   0  0  0  0  0  0  0  0  0  0  0  0
  -30.2768  -25.6255   18.3290 C   0  0  0  0  0  0  0  0  0  0  0  0
  -25.3600  -14.0420   19.8407 C   0  0  1  0  0  0  0  0  0  0  0  0
  -25.3693  -17.2948   21.8034 C   0  0  1  0  0  0  0  0  0  0  0  0
  -30.7390  -26.2758   19.6442 C   0  0  2  0  0  0  0  0  0  0  0  0
  -21.7856  -23.8170   23.9528 C   0  0  0  0  0  0  0  0  0  0  0  0
  -21.4554  -18.6861   19.7772 C   0  0  0  0  0  0  0  0  0  0  0  0
  -20.6243  -20.9432   20.4723 C   0  0  0  0  0  0  0  0  0  0  0  0
  -20.4056  -19.0030   22.0249 C   0  0  0  0  0  0  0  0  0  0  0  0
  -25.3980  -22.8660   24.6752 C   0  0  0  0  0  0  0  0  0  0  0  0
  -31.2354  -21.6456   16.9357 C   0  0  0  0  0  0  0  0  0  0  0  0
  -30.7465  -20.6355   17.9583 C   0  0  0  0  0  0  0  0  0  1  0  0
  -22.6870  -20.0136   21.6176 C   0  0  1  0  0  0  0  0  0  0  0  0
  -22.9697  -22.8728   24.0904 C   0  0  2  0  0  0  0  0  0  0  0  0
  -21.3206  -19.6574   20.9669 C   0  0  0  0  0  0  0  0  0  0  0  0
  -28.3944  -26.9480   20.0099 N   0  0  0  0  0  0  0  0  0  0  0  0
  -29.5730  -26.6061   20.5576 N   0  0  0  0  0  0  0  0  0  0  0  0
  -24.6895  -18.5623   21.5289 N   0  0  0  0  0  0  0  0  0  0  0  0
  -31.4385  -25.3228   17.4784 N   0  0  0  0  0  0  0  0  0  0  0  0
  -30.6675  -26.2792   22.6327 N   0  0  0  0  0  0  0  0  0  0  0  0
  -26.4833  -27.4765   23.8389 N   0  0  0  0  0  0  0  0  0  0  0  0
  -25.5584  -15.0937   20.8148 N   0  0  0  0  0  0  0  0  0  0  0  0
  -22.5873  -20.9105   22.7639 N   0  0  0  0  0  0  0  0  0  0  0  0
  -30.9843  -23.0048   17.3602 N   0  0  0  0  0  0  0  0  0  0  0  0
  -24.1650  -23.6719   24.4825 N   0  3  0  0  0  0  0  0  0  0  0  0
  -28.5547  -26.8935   24.6315 O   0  0  0  0  0  0  0  0  0  0  0  0
  -24.3627  -16.7733   19.7323 O   0  0  0  0  0  0  0  0  0  0  0  0
  -22.9152  -18.0710   22.9596 O   0  0  0  0  0  0  0  0  0  0  0  0
  -23.9432  -22.5808   21.8985 O   0  0  0  0  0  0  0  0  0  0  0  0
  -32.7944  -23.8864   16.2633 O   0  0  0  0  0  0  0  0  0  0  0  0
  -22.2844  -28.7009   20.3885 O   0  0  0  0  0  0  0  0  0  0  0  0
  -29.3424  -20.7999   18.1530 O   0  0  0  0  0  0  0  0  0  1  0  0
  -18.4716  -26.1855   23.4772 F   0  0  0  0  0  0  0  0  0  0  0  0
  -22.3777  -28.8388   23.1481 F   0  0  0  0  0  0  0  0  0  0  0  0
  1  2  1  0  0  0  0
  1  5  2  0  0  0  0
  2  6  2  0  0  0  0
  3  8  2  0  0  0  0
  3 15  1  0  0  0  0
  4  9  1  0  0  0  0
  4 15  2  0  0  0  0
  5 17  1  0  0  0  0
  6 19  1  0  0  0  0
  7 10  2  0  0  0  0
  7 18  1  0  0  0  0
  8 21  1  0  0  0  0
  9 21  2  0  0  0  0
 10 22  1  0  0  0  0
 11 12  2  0  0  0  0
 11 23  1  0  0  0  0
 12 24  1  0  0  0  0
 13 20  1  0  0  0  0
 13 22  2  0  0  0  0
 14 24  2  0  0  0  0
 14 25  1  0  0  0  0
 15 26  1  0  0  0  0
 16 26  1  0  0  0  0
 16 27  2  0  0  0  0
 16 28  1  0  0  0  0
 17 19  2  0  0  0  0
 17 33  1  0  0  0  0
 18 20  2  0  0  0  0
 18 34  1  0  0  0  0
 19 42  1  0  0  0  0
 20 35  1  0  0  0  0
 21 70  1  0  0  0  0
 22 71  1  0  0  0  0
 23 25  2  0  0  0  0
 23 70  1  0  0  0  0
 24 72  1  0  0  0  0
 25 73  1  0  0  0  0
 26 55  2  0  0  0  0
 27 56  1  0  0  0  0
 27 59  1  0  0  0  0
 28 60  1  0  0  0  0
 28 65  2  0  0  0  0
 29 43  1  0  0  0  0
 29 61  1  0  0  0  0
 29 66  2  0  0  0  0
 30 52  1  0  0  0  0
 30 57  1  0  0  0  0
 30 67  2  0  0  0  0
 31 53  1  0  0  0  0
 31 62  1  0  0  0  0
 31 68  2  0  0  0  0
 32 58  1  0  0  0  0
 32 63  1  0  0  0  0
 32 69  2  0  0  0  0
 33 36  1  0  0  0  0
 34 43  1  0  0  0  0
 35 57  1  0  0  0  0
 36 38  1  0  0  0  0
 37 39  1  0  0  0  0
 37 40  1  0  0  0  0
 38 42  1  0  0  0  0
 39 44  1  0  0  0  0
 40 58  1  0  0  0  0
 41 44  1  0  0  0  0
 41 58  1  0  0  0  0
 42 61  1  0  0  0  0
 43 57  1  0  0  0  0
 44 56  1  0  0  0  0
 45 53  1  0  0  0  0
 46 54  1  0  0  0  0
 47 54  1  0  0  0  0
 48 54  1  0  0  0  0
 49 64  1  0  0  0  0
 50 51  1  0  0  0  0
 50 63  1  0  0  0  0
 51 71  1  0  0  0  0
 52 54  1  0  0  0  0
 52 62  1  0  0  0  0
 53 64  1  0  0  0  0
 55 56  1  0  0  0  0
M  CHG  1  64   1
M  ISO  4  32 100  51 101  63 100  71 101
M  END
> <Batch ID>
0009

> <Smiles>
CNC(C)C(=O)NC(C(=O)N1Cc2cc([101O:1][101CH2:1]C[100NH:0][100C:0](=O)N3CCCC(n4nc(-c5ccc(Oc6ccc(F)cc6F)cc5)c(C(N)=O)c4N)C3)ccc2CC1C(=O)NC1CCCc2ccccc21)C(C)(C)C

> <Shape>
0.226

> <Color>
0.066

> <Negative vol penalty>
0.000

$$$$

  -OEChem-04042320373D

 81 89  0     1  0  0  0  0  0999 V2000
  -17.7155  -33.3419   18.0836 C   0  0  0  0  0  0  0  0  0  0  0  0
  -18.9138  -32.9824   17.4751 C   0  0  0  0  0  0  0  0  0  0  0  0
  -24.8012  -10.2786   22.6259 C   0  0  0  0  0  0  0  0  0  0  0  0
  -24.4888  -11.7693   24.5013 C   0  0  0  0  0  0  0  0  0  0  0  0
  -17.7254  -33.9232   19.3508 C   0  0  0  0  0  0  0  0  0  0  0  0
  -20.1229  -33.2051   18.1332 C   0  0  0  0  0  0  0  0  0  0  0  0
  -24.6112  -27.7615   19.5870 C   0  0  0  0  0  0  0  0  0  0  0  0
  -29.5131  -20.7821   21.9189 C   0  0  0  0  0  0  0  0  0  0  0  0
  -24.3855   -9.2034   23.4112 C   0  0  0  0  0  0  0  0  0  0  0  0
  -24.0729  -10.6941   25.2866 C   0  0  0  0  0  0  0  0  0  0  0  0
  -25.6185  -26.8047   19.7133 C   0  0  0  0  0  0  0  0  0  0  0  0
  -29.3851  -22.1504   22.1577 C   0  0  0  0  0  0  0  0  0  0  0  0
  -21.4645   -7.9153   24.5255 C   0  0  0  0  0  0  0  0  0  0  0  0
  -20.5567   -7.0164   23.9656 C   0  0  0  0  0  0  0  0  0  0  0  0
  -27.0248  -28.4182   20.8389 C   0  0  0  0  0  0  0  0  0  0  0  0
  -27.1423  -20.6374   21.4769 C   0  0  0  0  0  0  0  0  0  0  0  0
  -22.1505   -5.2245   24.2582 C   0  0  0  0  0  0  0  0  0  0  0  0
  -24.8529  -11.5615   23.1710 C   0  0  0  0  0  0  0  0  0  0  0  0
  -24.4755  -13.5061   21.5635 C   0  0  0  0  0  0  0  0  0  0  0  0
  -18.9346  -34.1443   20.0288 C   0  0  0  0  0  0  0  0  0  0  0  0
  -24.8012  -29.0475   20.1004 C   0  0  0  0  0  0  0  0  0  0  0  0
  -20.1490  -33.7912   19.4101 C   0  0  0  0  0  0  0  0  0  0  0  0
  -26.0146  -29.3772   20.7264 C   0  0  0  0  0  0  0  0  0  0  0  0
  -28.3917  -20.0256   21.5784 C   0  0  0  0  0  0  0  0  0  0  0  0
  -24.0213   -9.4111   24.7416 C   0  0  0  0  0  0  0  0  0  0  0  0
  -26.8224  -27.1323   20.3375 C   0  0  0  0  0  0  0  0  0  0  0  0
  -22.7154   -7.4688   24.9517 C   0  0  0  0  0  0  0  0  0  0  0  0
  -28.1357  -22.7621   22.0562 C   0  0  0  0  0  0  0  0  0  0  0  0
  -20.8997   -5.6710   23.8320 C   0  0  0  0  0  0  0  0  0  0  0  0
  -27.0143  -22.0057   21.7158 C   0  0  0  0  0  0  0  0  0  0  0  0
  -23.0584   -6.1234   24.8181 C   0  0  0  0  0  0  0  0  0  0  0  0
  -25.2829  -12.6725   22.3604 C   0  0  0  0  0  0  0  0  0  0  0  0
  -25.3542  -14.3993   21.0010 C   0  0  0  0  0  0  0  0  0  0  0  0
  -23.0579  -13.4758   21.3509 C   0  0  0  0  0  0  0  0  0  0  0  0
  -23.3724  -32.4735   20.6455 C   0  0  0  0  0  0  0  0  0  0  0  0
  -24.8881  -31.7227   23.2046 C   0  0  0  0  0  0  0  0  0  0  0  0
  -26.3005  -30.3471   25.9886 C   0  0  0  0  0  0  0  0  0  0  0  0
  -29.6878  -17.8733   21.3941 C   0  0  0  0  0  0  0  0  0  0  0  0
  -18.8980  -34.8190   21.3772 C   0  0  0  0  0  0  0  0  0  0  0  0
  -23.7676  -30.1278   19.9324 C   0  0  0  0  0  0  0  0  0  0  0  0
  -26.1880  -30.7830   21.2329 C   0  0  0  0  0  0  0  0  0  0  0  0
  -20.1981  -34.6777   22.1645 C   0  0  0  0  0  0  0  0  0  0  0  0
  -30.4150  -14.4228   20.9013 C   0  0  0  0  0  0  0  0  0  0  0  0
  -21.3979  -34.9814   21.2727 C   0  0  0  0  0  0  0  0  0  0  0  0
  -29.0782  -13.7284   21.1714 C   0  0  0  0  0  0  0  0  0  0  0  0
  -30.6319  -15.6163   21.8299 C   0  0  0  0  0  0  0  0  0  0  0  0
  -28.2019  -15.9022   22.1169 C   0  0  0  0  0  0  0  0  0  0  0  0
  -21.4794  -33.9940   20.1023 C   0  0  1  0  0  0  0  0  0  0  0  0
  -23.7025  -31.0923   21.1301 C   0  0  1  0  0  0  0  0  0  0  0  0
  -27.9093  -14.7331   21.1623 C   0  0  2  0  0  0  0  0  0  0  0  0
  -26.8460  -30.8668   28.3823 C   0  0  0  0  0  0  0  0  0  0  0  0
  -27.2368  -33.4417   22.2923 C   0  0  0  0  0  0  0  0  0  0  0  0
  -28.2509  -33.1347   24.5607 C   0  0  0  0  0  0  0  0  0  0  0  0
  -26.0517  -34.2882   24.3254 C   0  0  0  0  0  0  0  0  0  0  0  0
  -24.5818  -28.1504   26.9783 C   0  0  0  0  0  0  0  0  0  0  0  0
  -28.6649  -26.3010   21.5911 C   0  0  0  0  0  0  0  0  0  1  0  0
  -29.1408  -24.9163   21.9857 C   0  0  0  0  0  0  0  0  0  0  0  0
  -26.1840  -31.7882   23.9726 C   0  0  1  0  0  0  0  0  0  0  0  0
  -25.8232  -30.2708   27.4276 C   0  0  2  0  0  0  0  0  0  0  0  0
  -26.9242  -33.1407   23.7717 C   0  0  0  0  0  0  0  0  0  0  0  0
  -26.5752  -13.0063   22.3111 N   0  0  0  0  0  0  0  0  0  0  0  0
  -26.5866  -14.0595   21.4764 N   0  0  0  0  0  0  0  0  0  0  0  0
  -24.9536  -31.2347   21.8939 N   0  0  0  0  0  0  0  0  0  0  0  0
  -29.4868  -16.5270   21.7655 N   0  0  0  0  0  0  0  0  0  0  0  0
  -25.1853  -15.4344   20.1511 N   0  0  0  0  0  0  0  0  0  0  0  0
  -22.3048  -12.4921   22.0063 N   0  0  0  0  0  0  0  0  0  0  0  0
  -28.5216  -18.6356   21.3358 N   0  0  0  0  0  0  0  0  0  0  0  0
  -22.0175  -32.7263   20.5470 N   0  0  0  0  0  0  0  0  0  0  0  0
  -25.8510  -31.4898   25.3613 N   0  0  0  0  0  0  0  0  0  0  0  0
  -25.5846  -28.8529   27.8197 N   0  3  0  0  0  0  0  0  0  0  0  0
  -22.4784  -14.2864   20.5889 O   0  0  0  0  0  0  0  0  0  0  0  0
  -24.2795  -33.2539   20.3813 O   0  0  0  0  0  0  0  0  0  0  0  0
  -23.8455  -32.0986   23.7477 O   0  0  0  0  0  0  0  0  0  0  0  0
  -27.0049  -29.4816   25.4736 O   0  0  0  0  0  0  0  0  0  0  0  0
  -30.8084  -18.3104   21.1197 O   0  0  0  0  0  0  0  0  0  0  0  0
  -23.6153   -8.3622   25.5081 O   0  0  0  0  0  0  0  0  0  0  0  0
  -27.7998  -26.1921   20.4615 O   0  0  0  0  0  0  0  0  0  1  0  0
  -28.0119  -24.1064   22.2905 O   0  0  0  0  0  0  0  0  0  0  0  0
  -20.0272   -4.8077   23.2957 F   0  0  0  0  0  0  0  0  0  0  0  0
  -25.8115  -22.5881   21.6156 F   0  0  0  0  0  0  0  0  0  0  0  0
  -24.2582   -5.6883   25.2268 F   0  0  0  0  0  0  0  0  0  0  0  0
  1  2  1  0  0  0  0
  1  5  2  0  0  0  0
  2  6  2  0  0  0  0
  3  9  2  0  0  0  0
  3 18  1  0  0  0  0
  4 10  1  0  0  0  0
  4 18  2  0  0  0  0
  5 20  1  0  0  0  0
  6 22  1  0  0  0  0
  7 11  2  0  0  0  0
  7 21  1  0  0  0  0
  8 12  2  0  0  0  0
  8 24  1  0  0  0  0
  9 25  1  0  0  0  0
 10 25  2  0  0  0  0
 11 26  1  0  0  0  0
 12 28  1  0  0  0  0
 13 14  2  0  0  0  0
 13 27  1  0  0  0  0
 14 29  1  0  0  0  0
 15 23  1  0  0  0  0
 15 26  2  0  0  0  0
 16 24  2  0  0  0  0
 16 30  1  0  0  0  0
 17 29  2  0  0  0  0
 17 31  1  0  0  0  0
 18 32  1  0  0  0  0
 19 32  1  0  0  0  0
 19 33  2  0  0  0  0
 19 34  1  0  0  0  0
 20 22  2  0  0  0  0
 20 39  1  0  0  0  0
 21 23  2  0  0  0  0
 21 40  1  0  0  0  0
 22 48  1  0  0  0  0
 23 41  1  0  0  0  0
 24 67  1  0  0  0  0
 25 76  1  0  0  0  0
 26 77  1  0  0  0  0
 27 31  2  0  0  0  0
 27 76  1  0  0  0  0
 28 30  2  0  0  0  0
 28 78  1  0  0  0  0
 29 79  1  0  0  0  0
 30 80  1  0  0  0  0
 31 81  1  0  0  0  0
 32 61  2  0  0  0  0
 33 62  1  0  0  0  0
 33 65  1  0  0  0  0
 34 66  1  0  0  0  0
 34 71  2  0  0  0  0
 35 49  1  0  0  0  0
 35 68  1  0  0  0  0
 35 72  2  0  0  0  0
 36 58  1  0  0  0  0
 36 63  1  0  0  0  0
 36 73  2  0  0  0  0
 37 59  1  0  0  0  0
 37 69  1  0  0  0  0
 37 74  2  0  0  0  0
 38 64  1  0  0  0  0
 38 67  1  0  0  0  0
 38 75  2  0  0  0  0
 39 42  1  0  0  0  0
 40 49  1  0  0  0  0
 41 63  1  0  0  0  0
 42 44  1  0  0  0  0
 43 45  1  0  0  0  0
 43 46  1  0  0  0  0
 44 48  1  0  0  0  0
 45 50  1  0  0  0  0
 46 64  1  0  0  0  0
 47 50  1  0  0  0  0
 47 64  1  0  0  0  0
 48 68  1  0  0  0  0
 49 63  1  0  0  0  0
 50 62  1  0  0  0  0
 51 59  1  0  0  0  0
 52 60  1  0  0  0  0
 53 60  1  0  0  0  0
 54 60  1  0  0  0  0
 55 70  1  0  0  0  0
 56 57  1  0  0  0  0
 56 77  1  0  0  0  0
 57 78  1  0  0  0  0
 58 60  1  0  0  0  0
 58 69  1  0  0  0  0
 59 70  1  0  0  0  0
 61 62  1  0  0  0  0
M  CHG  1  70   1
M  ISO  4  38 100  56 101  67 100  77 101
M  END
> <Batch ID>
0009

> <Smiles>
CNC(C)C(=O)NC(C(=O)N1Cc2cc([101O:1][101CH2:1]COc3ccc([100NH:0][100C:0](=O)N4CCCC(n5nc(-c6ccc(Oc7ccc(F)cc7F)cc6)c(C(N)=O)c5N)C4)cc3F)ccc2CC1C(=O)NC1CCCc2ccccc21)C(C)(C)C

> <Shape>
0.265

> <Color>
0.145

> <Negative vol penalty>
0.000

$$$$

  -OEChem-04042320373D

 85 94  0     1  0  0  0  0  0999 V2000
  -17.3410  -25.4675   25.1517 C   0  0  0  0  0  0  0  0  0  0  0  0
  -18.4840  -24.7833   25.5527 C   0  0  0  0  0  0  0  0  0  0  0  0
  -23.3900   -9.9512   22.0999 C   0  0  0  0  0  0  0  0  0  0  0  0
  -23.9608  -11.3637   23.9750 C   0  0  0  0  0  0  0  0  0  0  0  0
  -17.4158  -26.4032   24.1208 C   0  0  0  0  0  0  0  0  0  0  0  0
  -19.7023  -25.0336   24.9223 C   0  0  0  0  0  0  0  0  0  0  0  0
  -26.7361  -25.2665   26.2593 C   0  0  0  0  0  0  0  0  0  0  0  0
  -31.9518  -19.2709   20.6775 C   0  0  0  0  0  0  0  0  0  0  0  0
  -31.5182  -17.9654   20.4467 C   0  0  0  0  0  0  0  0  0  0  0  0
  -22.7319   -9.0735   22.9614 C   0  0  0  0  0  0  0  0  0  0  0  0
  -23.3026  -10.4861   24.8365 C   0  0  0  0  0  0  0  0  0  0  0  0
  -27.9413  -24.7569   25.7783 C   0  0  0  0  0  0  0  0  0  0  0  0
  -19.7578   -8.9164   24.5623 C   0  0  0  0  0  0  0  0  0  0  0  0
  -18.5029   -8.4468   24.1747 C   0  0  0  0  0  0  0  0  0  0  0  0
  -27.9666  -26.4527   24.0628 C   0  0  0  0  0  0  0  0  0  0  0  0
  -29.2282  -18.7341   20.4004 C   0  0  0  0  0  0  0  0  0  0  0  0
  -19.3336   -6.1788   24.2328 C   0  0  0  0  0  0  0  0  0  0  0  0
  -24.0045  -11.0963   22.6068 C   0  0  0  0  0  0  0  0  0  0  0  0
  -24.1335  -13.1127   21.0495 C   0  0  0  0  0  0  0  0  0  0  0  0
  -18.6375  -26.6722   23.4839 C   0  0  0  0  0  0  0  0  0  0  0  0
  -26.1305  -26.3681   25.6380 C   0  0  0  0  0  0  0  0  0  0  0  0
  -19.7932  -25.9729   23.8810 C   0  0  0  0  0  0  0  0  0  0  0  0
  -26.7550  -26.9759   24.5395 C   0  0  0  0  0  0  0  0  0  0  0  0
  -31.0235  -20.3080   20.7699 C   0  0  0  0  0  0  0  0  0  0  0  0
  -29.6618  -20.0396   20.6313 C   0  0  0  0  0  0  0  0  0  0  0  0
  -30.1565  -17.6970   20.3081 C   0  0  0  0  0  0  0  0  0  0  0  0
  -22.6881   -9.3410   24.3297 C   0  0  0  0  0  0  0  0  0  0  0  0
  -28.5553  -25.3482   24.6780 C   0  0  0  0  0  0  0  0  0  0  0  0
  -20.8007   -8.0172   24.7851 C   0  0  0  0  0  0  0  0  0  0  0  0
  -18.2907   -7.0780   24.0100 C   0  0  0  0  0  0  0  0  0  0  0  0
  -20.5885   -6.6484   24.6203 C   0  0  0  0  0  0  0  0  0  0  0  0
  -24.6851  -12.0030   21.7174 C   0  0  0  0  0  0  0  0  0  0  0  0
  -25.1818  -13.6392   20.3350 C   0  0  0  0  0  0  0  0  0  0  0  0
  -30.1538  -23.3883   22.3188 C   0  0  0  0  0  0  0  0  0  0  0  0
  -22.7936  -13.6222   21.0730 C   0  0  0  0  0  0  0  0  0  0  0  0
  -23.3703  -26.8617   24.1409 C   0  0  0  0  0  0  0  0  0  0  0  0
  -24.3799  -29.9443   24.1201 C   0  0  0  0  0  0  0  0  0  0  0  0
  -26.9905  -32.1389   24.2453 C   0  0  0  0  0  0  0  0  0  0  0  0
  -30.5046  -15.2276   19.9509 C   0  0  0  0  0  0  0  0  0  0  0  0
  -18.6597  -27.6580   22.3427 C   0  0  0  0  0  0  0  0  0  0  0  0
  -24.8439  -26.9224   26.1856 C   0  0  0  0  0  0  0  0  0  0  0  0
  -26.1562  -28.1732   23.8493 C   0  0  0  0  0  0  0  0  0  0  0  0
  -20.0626  -28.1372   21.9789 C   0  0  0  0  0  0  0  0  0  0  0  0
  -29.7975  -11.7810   19.4055 C   0  0  0  0  0  0  0  0  0  0  0  0
  -21.0238  -26.9561   21.8898 C   0  0  0  0  0  0  0  0  0  0  0  0
  -28.3590  -11.6227   19.9034 C   0  0  0  0  0  0  0  0  0  0  0  0
  -30.7834  -22.6975   24.5122 C   0  0  0  0  0  0  0  0  0  0  0  0
  -30.5902  -12.7641   20.2650 C   0  0  0  0  0  0  0  0  0  0  0  0
  -31.1683  -21.6196   23.5179 C   0  0  0  0  0  0  0  0  0  0  0  0
  -28.5232  -13.9209   20.9420 C   0  0  0  0  0  0  0  0  0  0  0  0
  -21.1380  -26.2349   23.2383 C   0  0  1  0  0  0  0  0  0  0  0  0
  -29.7331  -23.5173   23.7693 C   0  0  1  0  0  0  0  0  0  1  0  0
  -24.0558  -27.7292   25.1583 C   0  0  1  0  0  0  0  0  0  0  0  0
  -27.6664  -12.9897   20.0688 C   0  0  2  0  0  0  0  0  0  0  0  0
  -28.6500  -21.1343   20.7243 C   0  0  0  0  0  0  0  0  0  0  0  0
  -27.5058  -34.5936   24.1680 C   0  0  0  0  0  0  0  0  0  0  0  0
  -23.9204  -29.9433   21.1037 C   0  0  0  0  0  0  0  0  0  0  0  0
  -25.3135  -32.0187   20.9610 C   0  0  0  0  0  0  0  0  0  0  0  0
  -23.1897  -32.0317   22.2696 C   0  0  0  0  0  0  0  0  0  0  0  0
  -28.1822  -32.0922   26.9539 C   0  0  0  0  0  0  0  0  0  0  0  0
  -31.5141  -21.7048   21.0196 C   0  0  0  0  0  0  0  0  0  0  0  0
  -25.1985  -30.7949   23.1791 C   0  0  1  0  0  0  0  0  0  0  0  0
  -27.2080  -33.3999   25.0620 C   0  0  2  0  0  0  0  0  0  0  0  0
  -24.4161  -31.1734   21.8899 C   0  0  0  0  0  0  0  0  0  0  0  0
  -25.9828  -11.8334   21.4508 N   0  0  0  0  0  0  0  0  0  0  0  0
  -26.2555  -12.8435   20.6074 N   0  0  0  0  0  0  0  0  0  0  0  0
  -30.9682  -22.2606   22.2388 N   0  0  0  0  0  0  0  0  0  0  0  0
  -24.8941  -28.6744   24.4181 N   0  0  0  0  0  0  0  0  0  0  0  0
  -29.8753  -14.0376   20.3736 N   0  0  0  0  0  0  0  0  0  0  0  0
  -25.2805  -14.7004   19.5064 N   0  0  0  0  0  0  0  0  0  0  0  0
  -21.8410  -12.9609   21.8602 N   0  0  0  0  0  0  0  0  0  0  0  0
  -29.7158  -16.3712   20.0716 N   0  0  0  0  0  0  0  0  0  0  0  0
  -21.9934  -26.9783   24.1383 N   0  0  0  0  0  0  0  0  0  0  0  0
  -25.6566  -31.9402   23.9580 N   0  0  0  0  0  0  0  0  0  0  0  0
  -28.3516  -33.2185   26.0002 N   0  3  0  0  0  0  0  0  0  0  0  0
  -29.8101  -24.1391   21.4184 O   0  0  0  0  0  0  0  0  0  0  0  0
  -22.4472  -14.6242   20.4026 O   0  0  0  0  0  0  0  0  0  0  0  0
  -24.0410  -26.1410   23.4112 O   0  0  0  0  0  0  0  0  0  0  0  0
  -23.3267  -30.3930   24.5797 O   0  0  0  0  0  0  0  0  0  0  0  0
  -27.9121  -31.4055   23.8940 O   0  0  0  0  0  0  0  0  0  0  0  0
  -31.6484  -15.2280   19.4887 O   0  0  0  0  0  0  0  0  0  0  0  0
  -22.0458   -8.4849   25.1706 O   0  0  0  0  0  0  0  0  0  0  0  0
  -29.7315  -24.8524   24.2060 O   0  0  0  0  0  0  0  0  0  1  0  0
  -17.0851   -6.6271   23.6393 F   0  0  0  0  0  0  0  0  0  0  0  0
  -21.5862   -5.7797   24.8341 F   0  0  0  0  0  0  0  0  0  0  0  0
  1  2  1  0  0  0  0
  1  5  2  0  0  0  0
  2  6  2  0  0  0  0
  3 10  2  0  0  0  0
  3 18  1  0  0  0  0
  4 11  1  0  0  0  0
  4 18  2  0  0  0  0
  5 20  1  0  0  0  0
  6 22  1  0  0  0  0
  7 12  2  0  0  0  0
  7 21  1  0  0  0  0
  8  9  2  0  0  0  0
  8 24  1  0  0  0  0
  9 26  1  0  0  0  0
 10 27  1  0  0  0  0
 11 27  2  0  0  0  0
 12 28  1  0  0  0  0
 13 14  2  0  0  0  0
 13 29  1  0  0  0  0
 14 30  1  0  0  0  0
 15 23  1  0  0  0  0
 15 28  2  0  0  0  0
 16 25  1  0  0  0  0
 16 26  2  0  0  0  0
 17 30  2  0  0  0  0
 17 31  1  0  0  0  0
 18 32  1  0  0  0  0
 19 32  1  0  0  0  0
 19 33  2  0  0  0  0
 19 35  1  0  0  0  0
 20 22  2  0  0  0  0
 20 40  1  0  0  0  0
 21 23  2  0  0  0  0
 21 41  1  0  0  0  0
 22 51  1  0  0  0  0
 23 42  1  0  0  0  0
 24 25  2  0  0  0  0
 24 61  1  0  0  0  0
 25 55  1  0  0  0  0
 26 72  1  0  0  0  0
 27 82  1  0  0  0  0
 28 83  1  0  0  0  0
 29 31  2  0  0  0  0
 29 82  1  0  0  0  0
 30 84  1  0  0  0  0
 31 85  1  0  0  0  0
 32 65  2  0  0  0  0
 33 66  1  0  0  0  0
 33 70  1  0  0  0  0
 34 52  1  0  0  0  0
 34 67  1  0  0  0  0
 34 76  2  0  0  0  0
 35 71  1  0  0  0  0
 35 77  2  0  0  0  0
 36 53  1  0  0  0  0
 36 73  1  0  0  0  0
 36 78  2  0  0  0  0
 37 62  1  0  0  0  0
 37 68  1  0  0  0  0
 37 79  2  0  0  0  0
 38 63  1  0  0  0  0
 38 74  1  0  0  0  0
 38 80  2  0  0  0  0
 39 69  1  0  0  0  0
 39 72  1  0  0  0  0
 39 81  2  0  0  0  0
 40 43  1  0  0  0  0
 41 53  1  0  0  0  0
 42 68  1  0  0  0  0
 43 45  1  0  0  0  0
 44 46  1  0  0  0  0
 44 48  1  0  0  0  0
 45 51  1  0  0  0  0
 46 54  1  0  0  0  0
 47 49  1  0  0  0  0
 47 52  1  0  0  0  0
 48 69  1  0  0  0  0
 49 67  1  0  0  0  0
 50 54  1  0  0  0  0
 50 69  1  0  0  0  0
 51 73  1  0  0  0  0
 52 83  1  0  0  0  0
 53 68  1  0  0  0  0
 54 66  1  0  0  0  0
 56 63  1  0  0  0  0
 57 64  1  0  0  0  0
 58 64  1  0  0  0  0
 59 64  1  0  0  0  0
 60 75  1  0  0  0  0
 61 67  1  0  0  0  0
 62 64  1  0  0  0  0
 62 74  1  0  0  0  0
 63 75  1  0  0  0  0
 65 66  1  0  0  0  0
M  CHG  1  75   1
M  ISO  4  39 100  52 101  72 100  83 101
M  END
> <Batch ID>
0009

> <Smiles>
CNC(C)C(=O)NC(C(=O)N1Cc2cc([101O:1][101CH:1]3CCN(Cc4ccc([100NH:0][100C:0](=O)N5CCCC(n6nc(-c7ccc(Oc8ccc(F)cc8F)cc7)c(C(N)=O)c6N)C5)cc4C)C3=O)ccc2CC1C(=O)NC1CCCc2ccccc21)C(C)(C)C

> <Shape>
0.259

> <Color>
0.111

> <Negative vol penalty>
0.000

$$$$

  -OEChem-04042320373D

 80 88  0     1  0  0  0  0  0999 V2000
  -27.6412  -32.3849   26.8409 C   0  0  0  0  0  0  0  0  0  0  0  0
  -27.9634  -31.1167   26.3684 C   0  0  0  0  0  0  0  0  0  0  0  0
  -24.3323  -15.6713   22.2758 C   0  0  0  0  0  0  0  0  0  0  0  0
  -23.3414  -15.6141   20.0731 C   0  0  0  0  0  0  0  0  0  0  0  0
  -26.4111  -32.9562   26.5179 C   0  0  0  0  0  0  0  0  0  0  0  0
  -27.0551  -30.4186   25.5734 C   0  0  0  0  0  0  0  0  0  0  0  0
  -28.3675  -26.6259   20.9475 C   0  0  0  0  0  0  0  0  0  0  0  0
  -23.6766  -16.8738   22.5396 C   0  0  0  0  0  0  0  0  0  0  0  0
  -22.6856  -16.8167   20.3369 C   0  0  0  0  0  0  0  0  0  0  0  0
  -28.4500  -25.2364   20.8684 C   0  0  0  0  0  0  0  0  0  0  0  0
  -21.0348  -20.0544   20.2961 C   0  0  0  0  0  0  0  0  0  0  0  0
  -21.0527  -21.0339   19.3032 C   0  0  0  0  0  0  0  0  0  0  0  0
  -26.1814  -25.1541   20.0525 C   0  0  0  0  0  0  0  0  0  0  0  0
  -23.4660  -21.0904   19.4024 C   0  0  0  0  0  0  0  0  0  0  0  0
  -24.1647  -15.0414   21.0426 C   0  0  0  0  0  0  0  0  0  0  0  0
  -24.3652  -12.4985   21.0174 C   0  0  0  0  0  0  0  0  0  0  0  0
  -25.4912  -32.2688   25.7105 C   0  0  0  0  0  0  0  0  0  0  0  0
  -27.1856  -27.2902   20.5895 C   0  0  0  0  0  0  0  0  0  0  0  0
  -25.8110  -30.9807   25.2403 C   0  0  0  0  0  0  0  0  0  0  0  0
  -26.0873  -26.5522   20.1255 C   0  0  0  0  0  0  0  0  0  0  0  0
  -22.8533  -17.4465   21.5702 C   0  0  0  0  0  0  0  0  0  0  0  0
  -27.3560  -24.5000   20.4236 C   0  0  0  0  0  0  0  0  0  0  0  0
  -22.2325  -19.5929   20.8422 C   0  0  0  0  0  0  0  0  0  0  0  0
  -22.2683  -21.5519   18.8564 C   0  0  0  0  0  0  0  0  0  0  0  0
  -23.4481  -20.1109   20.3953 C   0  0  0  0  0  0  0  0  0  0  0  0
  -24.8422  -13.7995   20.7693 C   0  0  0  0  0  0  0  0  0  0  0  0
  -25.3747  -11.6742   20.5838 C   0  0  0  0  0  0  0  0  0  0  0  0
  -23.1209  -12.0731   21.5888 C   0  0  0  0  0  0  0  0  0  0  0  0
  -25.0982  -29.1360   22.1191 C   0  0  0  0  0  0  0  0  0  0  0  0
  -28.6411  -20.6300   19.6887 C   0  0  0  0  0  0  0  0  0  0  0  0
  -23.8199  -29.4763   19.1573 C   0  0  0  0  0  0  0  0  0  0  0  0
  -23.4225  -28.2157   16.0109 C   0  0  0  0  0  0  0  0  0  0  0  0
  -28.8859  -15.4074   18.2342 C   0  0  0  0  0  0  0  0  0  0  0  0
  -24.1547  -32.9076   25.4270 C   0  0  0  0  0  0  0  0  0  0  0  0
  -27.1216  -28.7915   20.6551 C   0  0  0  0  0  0  0  0  0  0  0  0
  -24.8024  -27.2191   19.7099 C   0  0  0  0  0  0  0  0  0  0  0  0
  -23.4017  -32.2566   24.2697 C   0  0  0  0  0  0  0  0  0  0  0  0
  -29.3555  -13.1286   21.1649 C   0  0  0  0  0  0  0  0  0  0  0  0
  -23.4261  -30.7373   24.4043 C   0  0  0  0  0  0  0  0  0  0  0  0
  -28.7499  -11.8344   20.6256 C   0  0  0  0  0  0  0  0  0  0  0  0
  -29.9182  -13.9786   20.0342 C   0  0  0  0  0  0  0  0  0  0  0  0
  -29.0318  -18.8584   18.0120 C   0  0  0  0  0  0  0  0  0  0  0  0
  -28.0681  -18.2104   20.2040 C   0  0  0  0  0  0  0  0  0  0  0  0
  -29.9441  -17.6400   18.0674 C   0  0  0  0  0  0  0  0  0  0  0  0
  -28.9677  -16.9731   20.2273 C   0  0  0  0  0  0  0  0  0  0  0  0
  -28.2753  -13.0243   18.4412 C   0  0  0  0  0  0  0  0  0  0  0  0
  -24.8623  -30.2022   24.3548 C   0  0  1  0  0  0  0  0  0  0  0  0
  -25.6957  -29.3251   20.7535 C   0  0  1  0  0  0  0  0  0  0  0  0
  -27.7005  -12.0913   19.5259 C   0  0  2  0  0  0  0  0  0  0  0  0
  -22.2927  -28.6996   13.8231 C   0  0  0  0  0  0  0  0  0  0  0  0
  -21.1488  -28.6037   20.3464 C   0  0  0  0  0  0  0  0  0  0  0  0
  -20.3265  -28.1908   18.0180 C   0  0  0  0  0  0  0  0  0  0  0  0
  -20.9967  -30.4910   18.7126 C   0  0  0  0  0  0  0  0  0  0  0  0
  -26.0055  -28.3381   14.5716 C   0  0  0  0  0  0  0  0  0  0  0  0
  -28.2070  -20.9883   21.0878 C   0  0  0  0  0  0  0  0  0  0  0  0
  -28.2941  -22.4876   21.2755 C   0  0  0  0  0  0  0  0  0  1  0  0
  -22.7807  -28.7366   18.3500 C   0  0  1  0  0  0  0  0  0  0  0  0
  -23.5636  -28.8585   14.6430 C   0  0  2  0  0  0  0  0  0  0  0  0
  -21.3366  -28.9925   18.8663 C   0  0  0  0  0  0  0  0  0  0  0  0
  -26.0600  -13.8063   20.2207 N   0  0  0  0  0  0  0  0  0  0  0  0
  -26.3568  -12.4994   20.1206 N   0  0  0  0  0  0  0  0  0  0  0  0
  -24.7869  -28.6887   19.7979 N   0  0  0  0  0  0  0  0  0  0  0  0
  -28.6177  -19.2749   19.3544 N   0  0  0  0  0  0  0  0  0  0  0  0
  -28.9166  -14.2227   18.9898 N   0  0  0  0  0  0  0  0  0  0  0  0
  -29.3421  -16.5744   18.8655 N   0  0  0  0  0  0  0  0  0  0  0  0
  -25.5091  -10.3312   20.5574 N   0  0  0  0  0  0  0  0  0  0  0  0
  -22.1964  -13.0510   21.9801 N   0  0  0  0  0  0  0  0  0  0  0  0
  -25.3463  -30.1788   22.9911 N   0  0  0  0  0  0  0  0  0  0  0  0
  -22.9947  -29.1209   16.9590 N   0  0  0  0  0  0  0  0  0  0  0  0
  -24.6890  -28.2346   13.8911 N   0  3  0  0  0  0  0  0  0  0  0  0
  -22.8441  -10.8620   21.7626 O   0  0  0  0  0  0  0  0  0  0  0  0
  -24.4582  -28.1198   22.3631 O   0  0  0  0  0  0  0  0  0  0  0  0
  -28.9936  -21.5271   18.9187 O   0  0  0  0  0  0  0  0  0  0  0  0
  -23.7796  -30.7080   19.2115 O   0  0  0  0  0  0  0  0  0  0  0  0
  -23.6636  -27.0283   16.2171 O   0  0  0  0  0  0  0  0  0  0  0  0
  -28.4642  -15.4208   17.0711 O   0  0  0  0  0  0  0  0  0  0  0  0
  -22.2132  -18.6198   21.8273 O   0  0  0  0  0  0  0  0  0  0  0  0
  -27.4342  -23.1342   20.3455 O   0  0  0  0  0  0  0  0  0  1  0  0
  -22.2854  -22.4915   17.9018 F   0  0  0  0  0  0  0  0  0  0  0  0
  -24.6021  -19.6706   20.9154 F   0  0  0  0  0  0  0  0  0  0  0  0
  1  2  1  0  0  0  0
  1  5  2  0  0  0  0
  2  6  2  0  0  0  0
  3  8  2  0  0  0  0
  3 15  1  0  0  0  0
  4  9  1  0  0  0  0
  4 15  2  0  0  0  0
  5 17  1  0  0  0  0
  6 19  1  0  0  0  0
  7 10  2  0  0  0  0
  7 18  1  0  0  0  0
  8 21  1  0  0  0  0
  9 21  2  0  0  0  0
 10 22  1  0  0  0  0
 11 12  2  0  0  0  0
 11 23  1  0  0  0  0
 12 24  1  0  0  0  0
 13 20  1  0  0  0  0
 13 22  2  0  0  0  0
 14 24  2  0  0  0  0
 14 25  1  0  0  0  0
 15 26  1  0  0  0  0
 16 26  1  0  0  0  0
 16 27  2  0  0  0  0
 16 28  1  0  0  0  0
 17 19  2  0  0  0  0
 17 34  1  0  0  0  0
 18 20  2  0  0  0  0
 18 35  1  0  0  0  0
 19 47  1  0  0  0  0
 20 36  1  0  0  0  0
 21 77  1  0  0  0  0
 22 78  1  0  0  0  0
 23 25  2  0  0  0  0
 23 77  1  0  0  0  0
 24 79  1  0  0  0  0
 25 80  1  0  0  0  0
 26 60  2  0  0  0  0
 27 61  1  0  0  0  0
 27 66  1  0  0  0  0
 28 67  1  0  0  0  0
 28 71  2  0  0  0  0
 29 48  1  0  0  0  0
 29 68  1  0  0  0  0
 29 72  2  0  0  0  0
 30 55  1  0  0  0  0
 30 63  1  0  0  0  0
 30 73  2  0  0  0  0
 31 57  1  0  0  0  0
 31 62  1  0  0  0  0
 31 74  2  0  0  0  0
 32 58  1  0  0  0  0
 32 69  1  0  0  0  0
 32 75  2  0  0  0  0
 33 64  1  0  0  0  0
 33 65  1  0  0  0  0
 33 76  2  0  0  0  0
 34 37  1  0  0  0  0
 35 48  1  0  0  0  0
 36 62  1  0  0  0  0
 37 39  1  0  0  0  0
 38 40  1  0  0  0  0
 38 41  1  0  0  0  0
 39 47  1  0  0  0  0
 40 49  1  0  0  0  0
 41 64  1  0  0  0  0
 42 44  1  0  0  0  0
 42 63  1  0  0  0  0
 43 45  1  0  0  0  0
 43 63  1  0  0  0  0
 44 65  1  0  0  0  0
 45 65  1  0  0  0  0
 46 49  1  0  0  0  0
 46 64  1  0  0  0  0
 47 68  1  0  0  0  0
 48 62  1  0  0  0  0
 49 61  1  0  0  0  0
 50 58  1  0  0  0  0
 51 59  1  0  0  0  0
 52 59  1  0  0  0  0
 53 59  1  0  0  0  0
 54 70  1  0  0  0  0
 55 56  1  0  0  0  0
 56 78  1  0  0  0  0
 57 59  1  0  0  0  0
 57 69  1  0  0  0  0
 58 70  1  0  0  0  0
 60 61  1  0  0  0  0
M  CHG  1  70   1
M  ISO  4  33 100  56 101  65 100  78 101
M  END
> <Batch ID>
0009

> <Smiles>
CNC(C)C(=O)NC(C(=O)N1Cc2cc([101O:1][101CH2:1]CC(=O)N3CC[100N:0]([100C:0](=O)N4CCCC(n5nc(-c6ccc(Oc7ccc(F)cc7F)cc6)c(C(N)=O)c5N)C4)CC3)ccc2CC1C(=O)NC1CCCc2ccccc21)C(C)(C)C

> <Shape>
0.264

> <Color>
0.083

> <Negative vol penalty>
0.000

$$$$

  -OEChem-04042320373D

 82 90  0     1  0  0  0  0  0999 V2000
  -27.8938  -27.4801   18.2003 C   0  0  0  0  0  0  0  0  0  0  0  0
  -27.8743  -26.5855   19.2656 C   0  0  0  0  0  0  0  0  0  0  0  0
  -23.2885   -9.8001   19.9102 C   0  0  0  0  0  0  0  0  0  0  0  0
  -23.7426   -9.9359   22.2792 C   0  0  0  0  0  0  0  0  0  0  0  0
  -28.5863  -27.1582   17.0338 C   0  0  0  0  0  0  0  0  0  0  0  0
  -28.5464  -25.3679   19.1644 C   0  0  0  0  0  0  0  0  0  0  0  0
  -31.4239  -22.3667   23.6609 C   0  0  0  0  0  0  0  0  0  0  0  0
  -31.1408  -14.2685   26.1242 C   0  0  0  0  0  0  0  0  0  0  0  0
  -32.6924  -15.3634   24.6305 C   0  0  0  0  0  0  0  0  0  0  0  0
  -30.6496  -13.5126   25.0599 C   0  0  0  0  0  0  0  0  0  0  0  0
  -32.2011  -14.6074   23.5662 C   0  0  0  0  0  0  0  0  0  0  0  0
  -22.5640   -8.6261   20.1163 C   0  0  0  0  0  0  0  0  0  0  0  0
  -23.0180   -8.7619   22.4854 C   0  0  0  0  0  0  0  0  0  0  0  0
  -31.0395  -21.3003   24.4726 C   0  0  0  0  0  0  0  0  0  0  0  0
  -19.7725   -7.8461   22.7054 C   0  0  0  0  0  0  0  0  0  0  0  0
  -18.8717   -7.8209   23.7700 C   0  0  0  0  0  0  0  0  0  0  0  0
  -32.1587  -19.7696   22.9815 C   0  0  0  0  0  0  0  0  0  0  0  0
  -20.0813   -5.9730   24.7496 C   0  0  0  0  0  0  0  0  0  0  0  0
  -23.8779  -10.4549   20.9916 C   0  0  0  0  0  0  0  0  0  0  0  0
  -24.1337  -12.9857   20.7984 C   0  0  0  0  0  0  0  0  0  0  0  0
  -29.2753  -25.9402   16.9219 C   0  0  0  0  0  0  0  0  0  0  0  0
  -32.1705  -22.1410   22.4956 C   0  0  0  0  0  0  0  0  0  0  0  0
  -29.2476  -25.0289   17.9948 C   0  0  0  0  0  0  0  0  0  0  0  0
  -32.5535  -20.8351   22.1580 C   0  0  0  0  0  0  0  0  0  0  0  0
  -32.1622  -15.1940   25.9095 C   0  0  0  0  0  0  0  0  0  0  0  0
  -31.1797  -13.6820   23.7809 C   0  0  0  0  0  0  0  0  0  0  0  0
  -22.4287   -8.1071   21.4039 C   0  0  0  0  0  0  0  0  0  0  0  0
  -31.4045  -20.0013   24.1314 C   0  0  0  0  0  0  0  0  0  0  0  0
  -20.8276   -6.9348   22.6627 C   0  0  0  0  0  0  0  0  0  0  0  0
  -19.0261   -6.8843   24.7921 C   0  0  0  0  0  0  0  0  0  0  0  0
  -20.9820   -5.9983   23.6848 C   0  0  0  0  0  0  0  0  0  0  0  0
  -24.6269  -11.6673   20.7793 C   0  0  0  0  0  0  0  0  0  0  0  0
  -25.2337  -13.7676   20.5436 C   0  0  0  0  0  0  0  0  0  0  0  0
  -22.8003  -13.4611   21.0262 C   0  0  0  0  0  0  0  0  0  0  0  0
  -31.6886  -22.6327   19.3924 C   0  0  0  0  0  0  0  0  0  0  0  0
  -34.7753  -21.6637   19.1572 C   0  0  0  0  0  0  0  0  0  0  0  0
  -37.3730  -19.9115   20.5095 C   0  0  0  0  0  0  0  0  0  0  0  0
  -31.0963  -12.9591   21.3691 C   0  0  0  0  0  0  0  0  0  0  0  0
  -29.9704  -25.6160   15.6234 C   0  0  0  0  0  0  0  0  0  0  0  0
  -32.6001  -23.3047   21.6448 C   0  0  0  0  0  0  0  0  0  0  0  0
  -33.3721  -20.5415   20.9283 C   0  0  0  0  0  0  0  0  0  0  0  0
  -30.9690  -24.4670   15.7373 C   0  0  0  0  0  0  0  0  0  0  0  0
  -29.4575  -13.6684   18.2888 C   0  0  0  0  0  0  0  0  0  0  0  0
  -30.3538  -23.2990   16.5016 C   0  0  0  0  0  0  0  0  0  0  0  0
  -27.9870  -13.3615   18.5814 C   0  0  0  0  0  0  0  0  0  0  0  0
  -30.3930  -12.6928   19.0006 C   0  0  0  0  0  0  0  0  0  0  0  0
  -28.7029  -12.2586   20.7397 C   0  0  0  0  0  0  0  0  0  0  0  0
  -29.9852  -23.7089   17.9325 C   0  0  1  0  0  0  0  0  0  0  0  0
  -32.9207  -22.9077   20.2072 C   0  0  1  0  0  0  0  0  0  0  0  0
  -27.7243  -13.2547   20.0964 C   0  0  2  0  0  0  0  0  0  0  0  0
  -39.7589  -19.2713   20.0682 C   0  0  0  0  0  0  0  0  0  0  0  0
  -33.8411  -19.6015   17.1116 C   0  0  0  0  0  0  0  0  0  0  0  0
  -36.0192  -18.4072   17.4243 C   0  0  0  0  0  0  0  0  0  0  0  0
  -35.9932  -20.7389   16.5380 C   0  0  0  0  0  0  0  0  0  0  0  0
  -38.3157  -21.2861   22.9550 C   0  0  0  0  0  0  0  0  0  0  0  0
  -33.5470  -18.2699   27.6431 C   0  0  0  0  0  0  0  0  0  0  0  0
  -32.6905  -16.0070   27.0544 C   0  0  0  0  0  0  0  0  0  0  0  0
  -31.1368  -17.9523   27.1031 C   0  0  0  0  0  0  0  0  0  0  0  0
  -30.8786  -19.2219   26.3159 C   0  0  0  0  0  0  0  0  0  1  0  0
  -35.4678  -20.3344   18.9778 C   0  0  1  0  0  0  0  0  0  0  0  0
  -38.8297  -20.2781   20.7283 C   0  0  2  0  0  0  0  0  0  0  0  0
  -35.3133  -19.7755   17.5352 C   0  0  0  0  0  0  0  0  0  0  0  0
  -25.9382  -11.6110   20.5317 N   0  0  0  0  0  0  0  0  0  0  0  0
  -26.2783  -12.9037   20.3929 N   0  0  0  0  0  0  0  0  0  0  0  0
  -33.7623  -21.7122   20.1253 N   0  0  0  0  0  0  0  0  0  0  0  0
  -30.0883  -12.6472   20.4324 N   0  0  0  0  0  0  0  0  0  0  0  0
  -25.3998  -15.1030   20.4360 N   0  0  0  0  0  0  0  0  0  0  0  0
  -21.7893  -12.5223   21.2731 N   0  0  0  0  0  0  0  0  0  0  0  0
  -30.6811  -12.9140   22.6995 N   0  0  0  0  0  0  0  0  0  0  0  0
  -31.1669  -23.7491   18.7671 N   0  0  0  0  0  0  0  0  0  0  0  0
  -36.8511  -20.5350   19.3959 N   0  0  0  0  0  0  0  0  0  0  0  0
  -39.1403  -20.3194   22.1852 N   0  3  0  0  0  0  0  0  0  0  0  0
  -32.5256  -17.4927   26.8501 N   0  3  1  0  0  0  0  0  0  0  0  0
  -22.5108  -14.6812   20.9951 O   0  0  0  0  0  0  0  0  0  0  0  0
  -31.2449  -21.4919   19.3341 O   0  0  0  0  0  0  0  0  0  0  0  0
  -35.1253  -22.6257   18.4688 O   0  0  0  0  0  0  0  0  0  0  0  0
  -36.7604  -19.1455   21.2502 O   0  0  0  0  0  0  0  0  0  0  0  0
  -32.2363  -13.2717   21.0157 O   0  0  0  0  0  0  0  0  0  0  0  0
  -21.7216   -6.9617   21.6055 O   0  0  0  0  0  0  0  0  0  0  0  0
  -31.0301  -18.9585   24.9217 O   0  0  0  0  0  0  0  0  0  1  0  0
  -18.1619   -6.8612   25.8153 F   0  0  0  0  0  0  0  0  0  0  0  0
  -21.9945   -5.1210   23.6500 F   0  0  0  0  0  0  0  0  0  0  0  0
  1  2  1  0  0  0  0
  1  5  2  0  0  0  0
  2  6  2  0  0  0  0
  3 12  2  0  0  0  0
  3 19  1  0  0  0  0
  4 13  1  0  0  0  0
  4 19  2  0  0  0  0
  5 21  1  0  0  0  0
  6 23  1  0  0  0  0
  7 14  2  0  0  0  0
  7 22  1  0  0  0  0
  8 10  2  0  0  0  0
  8 25  1  0  0  0  0
  9 11  1  0  0  0  0
  9 25  2  0  0  0  0
 10 26  1  0  0  0  0
 11 26  2  0  0  0  0
 12 27  1  0  0  0  0
 13 27  2  0  0  0  0
 14 28  1  0  0  0  0
 15 16  2  0  0  0  0
 15 29  1  0  0  0  0
 16 30  1  0  0  0  0
 17 24  1  0  0  0  0
 17 28  2  0  0  0  0
 18 30  2  0  0  0  0
 18 31  1  0  0  0  0
 19 32  1  0  0  0  0
 20 32  1  0  0  0  0
 20 33  2  0  0  0  0
 20 34  1  0  0  0  0
 21 23  2  0  0  0  0
 21 39  1  0  0  0  0
 22 24  2  0  0  0  0
 22 40  1  0  0  0  0
 23 48  1  0  0  0  0
 24 41  1  0  0  0  0
 25 57  1  0  0  0  0
 26 69  1  0  0  0  0
 27 79  1  0  0  0  0
 28 80  1  0  0  0  0
 29 31  2  0  0  0  0
 29 79  1  0  0  0  0
 30 81  1  0  0  0  0
 31 82  1  0  0  0  0
 32 63  2  0  0  0  0
 33 64  1  0  0  0  0
 33 67  1  0  0  0  0
 34 68  1  0  0  0  0
 34 74  2  0  0  0  0
 35 49  1  0  0  0  0
 35 70  1  0  0  0  0
 35 75  2  0  0  0  0
 36 60  1  0  0  0  0
 36 65  1  0  0  0  0
 36 76  2  0  0  0  0
 37 61  1  0  0  0  0
 37 71  1  0  0  0  0
 37 77  2  0  0  0  0
 38 66  1  0  0  0  0
 38 69  1  0  0  0  0
 38 78  2  0  0  0  0
 39 42  1  0  0  0  0
 40 49  1  0  0  0  0
 41 65  1  0  0  0  0
 42 44  1  0  0  0  0
 43 45  1  0  0  0  0
 43 46  1  0  0  0  0
 44 48  1  0  0  0  0
 45 50  1  0  0  0  0
 46 66  1  0  0  0  0
 47 50  1  0  0  0  0
 47 66  1  0  0  0  0
 48 70  1  0  0  0  0
 49 65  1  0  0  0  0
 50 64  1  0  0  0  0
 51 61  1  0  0  0  0
 52 62  1  0  0  0  0
 53 62  1  0  0  0  0
 54 62  1  0  0  0  0
 55 72  1  0  0  0  0
 56 73  1  0  0  0  0
 57 73  1  0  0  0  0
 58 59  1  0  0  0  0
 58 73  1  0  0  0  0
 59 80  1  0  0  0  0
 60 62  1  0  0  0  0
 60 71  1  0  0  0  0
 61 72  1  0  0  0  0
 63 64  1  0  0  0  0
M  CHG  2  72   1  73   1
M  ISO  4  38 100  59 101  69 100  80 101
M  END
> <Batch ID>
0009

> <Smiles>
CNC(C)C(=O)NC(C(=O)N1Cc2cc([101O:1][101CH2:1]CN(C)Cc3ccc([100NH:0][100C:0](=O)N4CCCC(n5nc(-c6ccc(Oc7ccc(F)cc7F)cc6)c(C(N)=O)c5N)C4)cc3)ccc2CC1C(=O)NC1CCCc2ccccc21)C(C)(C)C

> <Shape>
0.177

> <Color>
0.174

> <Negative vol penalty>
0.000

$$$$

  -OEChem-04042320373D

 83 91  0     1  0  0  0  0  0999 V2000
  -30.8366  -24.7640   18.2704 C   0  0  0  0  0  0  0  0  0  0  0  0
  -29.4550  -24.6631   18.3982 C   0  0  0  0  0  0  0  0  0  0  0  0
  -26.3035  -12.8957   19.7361 C   0  0  0  0  0  0  0  0  0  0  0  0
  -24.1278  -13.5653   20.5454 C   0  0  0  0  0  0  0  0  0  0  0  0
  -31.5751  -25.4593   19.2270 C   0  0  0  0  0  0  0  0  0  0  0  0
  -28.8111  -25.2566   19.4834 C   0  0  0  0  0  0  0  0  0  0  0  0
  -23.2558  -27.8341   19.5084 C   0  0  0  0  0  0  0  0  0  0  0  0
  -26.3592  -11.8991   20.7103 C   0  0  0  0  0  0  0  0  0  0  0  0
  -24.1835  -12.5686   21.5197 C   0  0  0  0  0  0  0  0  0  0  0  0
  -22.0052  -27.3635   19.9065 C   0  0  0  0  0  0  0  0  0  0  0  0
  -27.0269  -11.6832   24.0167 C   0  0  0  0  0  0  0  0  0  0  0  0
  -28.2174  -11.5404   24.7293 C   0  0  0  0  0  0  0  0  0  0  0  0
  -22.3021  -28.4129   22.0582 C   0  0  0  0  0  0  0  0  0  0  0  0
  -23.6339  -23.0176   20.9699 C   0  0  0  0  0  0  0  0  0  0  0  0
  -21.0641  -22.1328   21.5993 C   0  0  0  0  0  0  0  0  0  0  0  0
  -28.4241   -9.2701   23.9292 C   0  0  0  0  0  0  0  0  0  0  0  0
  -25.1878  -13.7289   19.6536 C   0  0  0  0  0  0  0  0  0  0  0  0
  -24.6100  -14.6461   17.3444 C   0  0  0  0  0  0  0  0  0  0  0  0
  -30.9389  -26.0698   20.3194 C   0  0  0  0  0  0  0  0  0  0  0  0
  -24.0449  -28.5896   20.3875 C   0  0  0  0  0  0  0  0  0  0  0  0
  -29.5419  -25.9596   20.4563 C   0  0  0  0  0  0  0  0  0  0  0  0
  -23.5612  -28.8940   21.6679 C   0  0  0  0  0  0  0  0  0  0  0  0
  -23.1560  -21.8232   20.4308 C   0  0  0  0  0  0  0  0  0  0  0  0
  -25.2993  -11.7355   21.6021 C   0  0  0  0  0  0  0  0  0  0  0  0
  -21.5294  -27.6505   21.1825 C   0  0  0  0  0  0  0  0  0  0  0  0
  -26.5349  -10.6194   23.2604 C   0  0  0  0  0  0  0  0  0  0  0  0
  -21.5421  -23.3272   22.1385 C   0  0  0  0  0  0  0  0  0  0  0  0
  -28.9161  -10.3339   24.6856 C   0  0  0  0  0  0  0  0  0  0  0  0
  -22.8269  -23.7696   21.8238 C   0  0  0  0  0  0  0  0  0  0  0  0
  -21.8711  -21.3808   20.7455 C   0  0  0  0  0  0  0  0  0  0  0  0
  -27.2335   -9.4129   23.2166 C   0  0  0  0  0  0  0  0  0  0  0  0
  -25.1299  -14.7589   18.6478 C   0  0  0  0  0  0  0  0  0  0  0  0
  -24.7881  -15.8921   16.7947 C   0  0  0  0  0  0  0  0  0  0  0  0
  -24.0190  -13.5160   16.6892 C   0  0  0  0  0  0  0  0  0  0  0  0
  -26.9010  -28.2084   21.7295 C   0  0  0  0  0  0  0  0  0  0  0  0
  -26.3757  -31.2299   22.7862 C   0  0  0  0  0  0  0  0  0  0  0  0
  -24.1282  -33.6779   23.5628 C   0  0  0  0  0  0  0  0  0  0  0  0
  -25.2761  -21.3616   19.1508 C   0  0  0  0  0  0  0  0  0  0  0  0
  -31.7845  -26.7705   21.3532 C   0  0  0  0  0  0  0  0  0  0  0  0
  -25.3802  -29.1124   19.9334 C   0  0  0  0  0  0  0  0  0  0  0  0
  -24.3607  -29.7184   22.6424 C   0  0  0  0  0  0  0  0  0  0  0  0
  -30.9847  -27.6894   22.2731 C   0  0  0  0  0  0  0  0  0  0  0  0
  -27.6451  -19.7267   17.0552 C   0  0  0  0  0  0  0  0  0  0  0  0
  -29.7283  -26.9831   22.7722 C   0  0  0  0  0  0  0  0  0  0  0  0
  -27.2180  -18.2578   17.1023 C   0  0  0  0  0  0  0  0  0  0  0  0
  -27.4499  -20.4176   18.4036 C   0  0  0  0  0  0  0  0  0  0  0  0
  -25.6762  -18.8241   19.0230 C   0  0  0  0  0  0  0  0  0  0  0  0
  -28.8045  -26.6108   21.6061 C   0  0  1  0  0  0  0  0  0  0  0  0
  -26.3194  -29.4378   21.0908 C   0  0  1  0  0  0  0  0  0  0  0  0
  -25.7935  -18.1031   17.6702 C   0  0  2  0  0  0  0  0  0  0  0  0
  -23.9972  -36.0262   24.4379 C   0  0  0  0  0  0  0  0  0  0  0  0
  -26.9397  -30.2082   25.6054 C   0  0  0  0  0  0  0  0  0  0  0  0
  -25.8862  -32.2967   26.4980 C   0  0  0  0  0  0  0  0  0  0  0  0
  -27.9377  -32.4418   25.0862 C   0  0  0  0  0  0  0  0  0  0  0  0
  -22.8452  -34.6547   21.0811 C   0  0  0  0  0  0  0  0  0  0  0  0
  -19.1023  -25.8159   23.1459 C   0  0  0  0  0  0  0  0  0  0  0  0
  -20.1334  -26.9185   22.9634 C   0  0  0  0  0  0  0  0  0  1  0  0
  -19.5139  -24.5305   22.4455 C   0  0  0  0  0  0  0  0  0  0  0  0
  -25.7316  -31.8382   24.0086 C   0  0  1  0  0  0  0  0  0  0  0  0
  -24.0762  -35.1504   23.1972 C   0  0  2  0  0  0  0  0  0  0  0  0
  -26.6093  -31.6790   25.2821 C   0  0  0  0  0  0  0  0  0  0  0  0
  -25.6028  -15.9801   18.9104 N   0  0  0  0  0  0  0  0  0  0  0  0
  -25.3809  -16.6461   17.7643 N   0  0  0  0  0  0  0  0  0  0  0  0
  -25.6629  -30.2014   22.1539 N   0  0  0  0  0  0  0  0  0  0  0  0
  -26.0765  -20.2323   18.8771 N   0  0  0  0  0  0  0  0  0  0  0  0
  -24.4938  -16.4054   15.5813 N   0  0  0  0  0  0  0  0  0  0  0  0
  -23.9133  -12.3121   17.3989 N   0  0  0  0  0  0  0  0  0  0  0  0
  -23.9782  -21.0621   19.5634 N   0  0  0  0  0  0  0  0  0  0  0  0
  -28.0764  -27.7742   21.1470 N   0  0  0  0  0  0  0  0  0  0  0  0
  -25.4257  -33.2221   23.6629 N   0  0  0  0  0  0  0  0  0  0  0  0
  -22.8848  -35.4312   22.3470 N   0  3  0  0  0  0  0  0  0  0  0  0
  -23.6120  -13.5676   15.5038 O   0  0  0  0  0  0  0  0  0  0  0  0
  -26.3267  -27.6928   22.6814 O   0  0  0  0  0  0  0  0  0  0  0  0
  -27.4675  -31.6567   22.4023 O   0  0  0  0  0  0  0  0  0  0  0  0
  -23.1189  -33.0008   23.7452 O   0  0  0  0  0  0  0  0  0  0  0  0
  -25.7016  -22.5100   19.0022 O   0  0  0  0  0  0  0  0  0  0  0  0
  -25.3532  -10.7629   22.5528 O   0  0  0  0  0  0  0  0  0  0  0  0
  -20.3094  -27.1919   21.5739 O   0  0  0  0  0  0  0  0  0  1  0  0
  -20.7475  -24.0656   22.9764 O   0  0  0  0  0  0  0  0  0  0  0  0
  -30.0601  -10.1975   25.3687 F   0  0  0  0  0  0  0  0  0  0  0  0
  -23.2910  -24.9163   22.3386 F   0  0  0  0  0  0  0  0  0  0  0  0
  -21.4019  -20.2339   20.2334 F   0  0  0  0  0  0  0  0  0  0  0  0
  -26.7665   -8.3877   22.4908 F   0  0  0  0  0  0  0  0  0  0  0  0
  1  2  1  0  0  0  0
  1  5  2  0  0  0  0
  2  6  2  0  0  0  0
  3  8  2  0  0  0  0
  3 17  1  0  0  0  0
  4  9  1  0  0  0  0
  4 17  2  0  0  0  0
  5 19  1  0  0  0  0
  6 21  1  0  0  0  0
  7 10  2  0  0  0  0
  7 20  1  0  0  0  0
  8 24  1  0  0  0  0
  9 24  2  0  0  0  0
 10 25  1  0  0  0  0
 11 12  2  0  0  0  0
 11 26  1  0  0  0  0
 12 28  1  0  0  0  0
 13 22  1  0  0  0  0
 13 25  2  0  0  0  0
 14 23  2  0  0  0  0
 14 29  1  0  0  0  0
 15 27  1  0  0  0  0
 15 30  2  0  0  0  0
 16 28  2  0  0  0  0
 16 31  1  0  0  0  0
 17 32  1  0  0  0  0
 18 32  1  0  0  0  0
 18 33  2  0  0  0  0
 18 34  1  0  0  0  0
 19 21  2  0  0  0  0
 19 39  1  0  0  0  0
 20 22  2  0  0  0  0
 20 40  1  0  0  0  0
 21 48  1  0  0  0  0
 22 41  1  0  0  0  0
 23 30  1  0  0  0  0
 23 68  1  0  0  0  0
 24 77  1  0  0  0  0
 25 78  1  0  0  0  0
 26 31  2  0  0  0  0
 26 77  1  0  0  0  0
 27 29  2  0  0  0  0
 27 79  1  0  0  0  0
 28 80  1  0  0  0  0
 29 81  1  0  0  0  0
 30 82  1  0  0  0  0
 31 83  1  0  0  0  0
 32 62  2  0  0  0  0
 33 63  1  0  0  0  0
 33 66  1  0  0  0  0
 34 67  1  0  0  0  0
 34 72  2  0  0  0  0
 35 49  1  0  0  0  0
 35 69  1  0  0  0  0
 35 73  2  0  0  0  0
 36 59  1  0  0  0  0
 36 64  1  0  0  0  0
 36 74  2  0  0  0  0
 37 60  1  0  0  0  0
 37 70  1  0  0  0  0
 37 75  2  0  0  0  0
 38 65  1  0  0  0  0
 38 68  1  0  0  0  0
 38 76  2  0  0  0  0
 39 42  1  0  0  0  0
 40 49  1  0  0  0  0
 41 64  1  0  0  0  0
 42 44  1  0  0  0  0
 43 45  1  0  0  0  0
 43 46  1  0  0  0  0
 44 48  1  0  0  0  0
 45 50  1  0  0  0  0
 46 65  1  0  0  0  0
 47 50  1  0  0  0  0
 47 65  1  0  0  0  0
 48 69  1  0  0  0  0
 49 64  1  0  0  0  0
 50 63  1  0  0  0  0
 51 60  1  0  0  0  0
 52 61  1  0  0  0  0
 53 61  1  0  0  0  0
 54 61  1  0  0  0  0
 55 71  1  0  0  0  0
 56 57  1  0  0  0  0
 56 58  1  0  0  0  0
 57 78  1  0  0  0  0
 58 79  1  0  0  0  0
 59 61  1  0  0  0  0
 59 70  1  0  0  0  0
 60 71  1  0  0  0  0
 62 63  1  0  0  0  0
M  CHG  1  71   1
M  ISO  4  38 100  57 101  68 100  78 101
M  END
> <Batch ID>
0009

> <Smiles>
CNC(C)C(=O)NC(C(=O)N1Cc2cc([101O:1][101CH2:1]CCOc3cc(F)c([100NH:0][100C:0](=O)N4CCCC(n5nc(-c6ccc(Oc7ccc(F)cc7F)cc6)c(C(N)=O)c5N)C4)cc3F)ccc2CC1C(=O)NC1CCCc2ccccc21)C(C)(C)C

> <Shape>
0.219

> <Color>
0.063

> <Negative vol penalty>
0.000

$$$$

  -OEChem-04042320373D

 84 93  0     1  0  0  0  0  0999 V2000
  -16.9564  -24.7853   23.1113 C   0  0  0  0  0  0  0  0  0  0  0  0
  -17.8591  -24.3037   22.1687 C   0  0  0  0  0  0  0  0  0  0  0  0
  -25.4339  -15.5638   21.6938 C   0  0  0  0  0  0  0  0  0  0  0  0
  -24.9925  -16.1304   19.3871 C   0  0  0  0  0  0  0  0  0  0  0  0
  -17.0453  -26.1063   23.5486 C   0  0  0  0  0  0  0  0  0  0  0  0
  -18.8506  -25.1430   21.6619 C   0  0  0  0  0  0  0  0  0  0  0  0
  -24.5438  -23.5618   20.0518 C   0  0  0  0  0  0  0  0  0  0  0  0
  -24.2377  -14.8483   21.7470 C   0  0  0  0  0  0  0  0  0  0  0  0
  -23.7963  -15.4149   19.4402 C   0  0  0  0  0  0  0  0  0  0  0  0
  -25.1234  -23.2730   18.8172 C   0  0  0  0  0  0  0  0  0  0  0  0
  -21.4757  -12.5719   22.3827 C   0  0  0  0  0  0  0  0  0  0  0  0
  -21.4987  -11.3140   22.9851 C   0  0  0  0  0  0  0  0  0  0  0  0
  -25.9057  -25.5494   18.6587 C   0  0  0  0  0  0  0  0  0  0  0  0
  -32.7354  -22.0605   15.0353 C   0  0  0  0  0  0  0  0  0  0  0  0
  -30.6308  -23.1579   14.6439 C   0  0  0  0  0  0  0  0  0  0  0  0
  -23.1202  -10.5646   21.3584 C   0  0  0  0  0  0  0  0  0  0  0  0
  -25.8113  -16.2049   20.5138 C   0  0  0  0  0  0  0  0  0  0  0  0
  -28.3153  -16.4545   20.0950 C   0  0  0  0  0  0  0  0  0  0  0  0
  -18.0444  -26.9595   23.0541 C   0  0  0  0  0  0  0  0  0  0  0  0
  -24.6316  -24.8516   20.5951 C   0  0  0  0  0  0  0  0  0  0  0  0
  -18.9521  -26.4770   22.0919 C   0  0  0  0  0  0  0  0  0  0  0  0
  -25.3286  -25.8513   19.9016 C   0  0  0  0  0  0  0  0  0  0  0  0
  -32.4566  -21.9816   16.4101 C   0  0  0  0  0  0  0  0  0  0  0  0
  -31.2494  -22.5126   16.9121 C   0  0  0  0  0  0  0  0  0  0  0  0
  -23.4189  -14.7739   20.6202 C   0  0  0  0  0  0  0  0  0  0  0  0
  -25.8020  -24.2676   18.1190 C   0  0  0  0  0  0  0  0  0  0  0  0
  -22.2750  -12.8261   21.2681 C   0  0  0  0  0  0  0  0  0  0  0  0
  -30.3365  -23.0786   16.0067 C   0  0  0  0  0  0  0  0  0  0  0  0
  -22.3209  -10.3104   22.4730 C   0  0  0  0  0  0  0  0  0  0  0  0
  -31.8320  -22.6555   14.1589 C   0  0  0  0  0  0  0  0  0  0  0  0
  -23.0972  -11.8224   20.7560 C   0  0  0  0  0  0  0  0  0  0  0  0
  -27.0466  -16.9446   20.4584 C   0  0  0  0  0  0  0  0  0  0  0  0
  -29.1471  -17.5423   20.2022 C   0  0  0  0  0  0  0  0  0  0  0  0
  -28.7069  -15.1342   19.6962 C   0  0  0  0  0  0  0  0  0  0  0  0
  -22.5281  -27.0955   21.3976 C   0  0  0  0  0  0  0  0  0  0  0  0
  -25.1587  -28.5957   22.5602 C   0  0  0  0  0  0  0  0  0  0  0  0
  -28.5468  -28.9941   22.4637 C   0  0  0  0  0  0  0  0  0  0  0  0
  -29.8598  -23.0381   18.9391 C   0  0  0  0  0  0  0  0  0  0  0  0
  -18.0714  -28.3931   23.5215 C   0  0  0  0  0  0  0  0  0  0  0  0
  -24.0239  -25.1400   21.9404 C   0  0  0  0  0  0  0  0  0  0  0  0
  -33.4472  -21.2699   17.2970 C   0  0  0  0  0  0  0  0  0  0  0  0
  -25.4687  -27.2468   20.4508 C   0  0  0  0  0  0  0  0  0  0  0  0
  -19.3837  -29.1096   23.2135 C   0  0  0  0  0  0  0  0  0  0  0  0
  -33.2093  -21.5465   18.7738 C   0  0  0  0  0  0  0  0  0  0  0  0
  -28.4168  -22.1071   22.2212 C   0  0  0  0  0  0  0  0  0  0  0  0
  -19.8113  -28.8447   21.7735 C   0  0  0  0  0  0  0  0  0  0  0  0
  -27.9585  -20.6683   21.9923 C   0  0  0  0  0  0  0  0  0  0  0  0
  -31.7274  -21.4492   19.0913 C   0  0  0  0  0  0  0  0  0  0  0  0
  -28.3983  -22.9189   20.9298 C   0  0  0  0  0  0  0  0  0  0  0  0
  -28.7404  -20.8565   19.5969 C   0  0  0  0  0  0  0  0  0  0  0  0
  -20.0569  -27.3496   21.5370 C   0  0  1  0  0  0  0  0  0  0  0  0
  -23.7333  -26.6216   22.1595 C   0  0  1  0  0  0  0  0  0  0  0  0
  -28.7845  -20.0078   20.8765 C   0  0  2  0  0  0  0  0  0  0  0  0
  -30.4047  -30.3207   23.5055 C   0  0  0  0  0  0  0  0  0  0  0  0
  -24.3597  -31.0213   20.8906 C   0  0  0  0  0  0  0  0  0  0  0  0
  -26.6759  -31.9166   21.2096 C   0  0  0  0  0  0  0  0  0  0  0  0
  -25.1942  -31.5633   23.1850 C   0  0  0  0  0  0  0  0  0  0  0  0
  -29.8516  -26.5564   23.5193 C   0  0  0  0  0  0  0  0  0  0  0  0
  -26.8235  -22.6529   16.7029 C   0  0  0  0  0  0  0  0  0  1  0  0
  -28.0074  -22.6692   15.7555 C   0  0  0  0  0  0  0  0  0  0  0  0
  -26.1764  -29.5586   21.9980 C   0  0  1  0  0  0  0  0  0  0  0  0
  -29.5875  -29.0397   23.5679 C   0  0  2  0  0  0  0  0  0  0  0  0
  -25.5974  -30.9893   21.8093 C   0  0  0  0  0  0  0  0  0  0  0  0
  -27.0658  -18.2425   20.7730 N   0  0  0  0  0  0  0  0  0  0  0  0
  -28.3569  -18.5773   20.6077 N   0  0  0  0  0  0  0  0  0  0  0  0
  -30.9618  -22.4280   18.3187 N   0  0  0  0  0  0  0  0  0  0  0  0
  -24.8519  -27.4811   21.7669 N   0  0  0  0  0  0  0  0  0  0  0  0
  -29.1354  -22.2509   19.8562 N   0  0  0  0  0  0  0  0  0  0  0  0
  -30.4700  -17.7047   19.9881 N   0  0  0  0  0  0  0  0  0  0  0  0
  -27.7258  -14.1349   19.6393 N   0  0  0  0  0  0  0  0  0  0  0  0
  -21.3373  -26.9550   22.0843 N   0  0  0  0  0  0  0  0  0  0  0  0
  -27.3329  -29.4943   22.8850 N   0  0  0  0  0  0  0  0  0  0  0  0
  -30.5186  -27.8821   23.4502 N   0  3  0  0  0  0  0  0  0  0  0  0
  -29.8947  -14.8451   19.4150 O   0  0  0  0  0  0  0  0  0  0  0  0
  -22.6685  -27.5560   20.2706 O   0  0  0  0  0  0  0  0  0  0  0  0
  -24.6599  -28.8202   23.6658 O   0  0  0  0  0  0  0  0  0  0  0  0
  -28.7877  -28.5617   21.3387 O   0  0  0  0  0  0  0  0  0  0  0  0
  -29.5101  -24.1859   18.6379 O   0  0  0  0  0  0  0  0  0  0  0  0
  -22.2517  -14.0756   20.6717 O   0  0  0  0  0  0  0  0  0  0  0  0
  -26.3720  -23.9866   16.9052 O   0  0  0  0  0  0  0  0  0  1  0  0
  -29.0607  -23.4308   16.3397 O   0  0  0  0  0  0  0  0  0  0  0  0
  -22.3439   -9.1030   23.0525 F   0  0  0  0  0  0  0  0  0  0  0  0
  -32.1076  -22.7197   12.8499 F   0  0  0  0  0  0  0  0  0  0  0  0
  -23.8682  -12.0611   19.6862 F   0  0  0  0  0  0  0  0  0  0  0  0
  1  2  1  0  0  0  0
  1  5  2  0  0  0  0
  2  6  2  0  0  0  0
  3  8  2  0  0  0  0
  3 17  1  0  0  0  0
  4  9  1  0  0  0  0
  4 17  2  0  0  0  0
  5 19  1  0  0  0  0
  6 21  1  0  0  0  0
  7 10  2  0  0  0  0
  7 20  1  0  0  0  0
  8 25  1  0  0  0  0
  9 25  2  0  0  0  0
 10 26  1  0  0  0  0
 11 12  2  0  0  0  0
 11 27  1  0  0  0  0
 12 29  1  0  0  0  0
 13 22  1  0  0  0  0
 13 26  2  0  0  0  0
 14 23  2  0  0  0  0
 14 30  1  0  0  0  0
 15 28  1  0  0  0  0
 15 30  2  0  0  0  0
 16 29  2  0  0  0  0
 16 31  1  0  0  0  0
 17 32  1  0  0  0  0
 18 32  1  0  0  0  0
 18 33  2  0  0  0  0
 18 34  1  0  0  0  0
 19 21  2  0  0  0  0
 19 39  1  0  0  0  0
 20 22  2  0  0  0  0
 20 40  1  0  0  0  0
 21 51  1  0  0  0  0
 22 42  1  0  0  0  0
 23 24  1  0  0  0  0
 23 41  1  0  0  0  0
 24 28  2  0  0  0  0
 24 66  1  0  0  0  0
 25 79  1  0  0  0  0
 26 80  1  0  0  0  0
 27 31  2  0  0  0  0
 27 79  1  0  0  0  0
 28 81  1  0  0  0  0
 29 82  1  0  0  0  0
 30 83  1  0  0  0  0
 31 84  1  0  0  0  0
 32 64  2  0  0  0  0
 33 65  1  0  0  0  0
 33 69  1  0  0  0  0
 34 70  1  0  0  0  0
 34 74  2  0  0  0  0
 35 52  1  0  0  0  0
 35 71  1  0  0  0  0
 35 75  2  0  0  0  0
 36 61  1  0  0  0  0
 36 67  1  0  0  0  0
 36 76  2  0  0  0  0
 37 62  1  0  0  0  0
 37 72  1  0  0  0  0
 37 77  2  0  0  0  0
 38 66  1  0  0  0  0
 38 68  1  0  0  0  0
 38 78  2  0  0  0  0
 39 43  1  0  0  0  0
 40 52  1  0  0  0  0
 41 44  1  0  0  0  0
 42 67  1  0  0  0  0
 43 46  1  0  0  0  0
 44 48  1  0  0  0  0
 45 47  1  0  0  0  0
 45 49  1  0  0  0  0
 46 51  1  0  0  0  0
 47 53  1  0  0  0  0
 48 66  1  0  0  0  0
 49 68  1  0  0  0  0
 50 53  1  0  0  0  0
 50 68  1  0  0  0  0
 51 71  1  0  0  0  0
 52 67  1  0  0  0  0
 53 65  1  0  0  0  0
 54 62  1  0  0  0  0
 55 63  1  0  0  0  0
 56 63  1  0  0  0  0
 57 63  1  0  0  0  0
 58 73  1  0  0  0  0
 59 60  1  0  0  0  0
 59 80  1  0  0  0  0
 60 81  1  0  0  0  0
 61 63  1  0  0  0  0
 61 72  1  0  0  0  0
 62 73  1  0  0  0  0
 64 65  1  0  0  0  0
M  CHG  1  73   1
M  ISO  4  38 100  59 101  66 100  80 101
M  END
> <Batch ID>
0009

> <Smiles>
CNC(C)C(=O)NC(C(=O)N1Cc2cc([101O:1][101CH2:1]COc3cc(F)cc4c3[100N:0]([100C:0](=O)N3CCCC(n5nc(-c6ccc(Oc7ccc(F)cc7F)cc6)c(C(N)=O)c5N)C3)CCC4)ccc2CC1C(=O)NC1CCCc2ccccc21)C(C)(C)C

> <Shape>
0.251

> <Color>
0.059

> <Negative vol penalty>
0.000

$$$$

  -OEChem-04042320373D

 81 89  0     1  0  0  0  0  0999 V2000
  -23.6146  -32.7404   26.6417 C   0  0  0  0  0  0  0  0  0  0  0  0
  -24.8879  -32.2906   26.3072 C   0  0  0  0  0  0  0  0  0  0  0  0
  -24.0433   -9.7225   21.7174 C   0  0  0  0  0  0  0  0  0  0  0  0
  -24.6463  -10.9946   23.6809 C   0  0  0  0  0  0  0  0  0  0  0  0
  -22.4922  -32.0271   26.2230 C   0  0  0  0  0  0  0  0  0  0  0  0
  -25.0395  -31.1265   25.5547 C   0  0  0  0  0  0  0  0  0  0  0  0
  -29.3143  -28.1906   20.6127 C   0  0  0  0  0  0  0  0  0  0  0  0
  -30.7820  -18.9585   20.2106 C   0  0  0  0  0  0  0  0  0  0  0  0
  -23.6164   -8.6717   22.5293 C   0  0  0  0  0  0  0  0  0  0  0  0
  -24.2193   -9.9438   24.4928 C   0  0  0  0  0  0  0  0  0  0  0  0
  -30.0451  -27.0275   20.3746 C   0  0  0  0  0  0  0  0  0  0  0  0
  -31.0681  -20.2797   20.5541 C   0  0  0  0  0  0  0  0  0  0  0  0
  -20.9059   -7.9145   24.4036 C   0  0  0  0  0  0  0  0  0  0  0  0
  -19.6862   -7.3118   24.0959 C   0  0  0  0  0  0  0  0  0  0  0  0
  -28.0319  -25.9204   19.6392 C   0  0  0  0  0  0  0  0  0  0  0  0
  -28.7097  -20.7140   20.8479 C   0  0  0  0  0  0  0  0  0  0  0  0
  -20.8098   -5.1954   23.7874 C   0  0  0  0  0  0  0  0  0  0  0  0
  -24.5583  -10.8839   22.2932 C   0  0  0  0  0  0  0  0  0  0  0  0
  -24.2298  -13.0524   20.9902 C   0  0  0  0  0  0  0  0  0  0  0  0
  -22.6299  -30.8589   25.4568 C   0  0  0  0  0  0  0  0  0  0  0  0
  -27.9326  -28.2242   20.3757 C   0  0  0  0  0  0  0  0  0  0  0  0
  -23.9180  -30.3961   25.1265 C   0  0  0  0  0  0  0  0  0  0  0  0
  -27.2863  -27.0860   19.8726 C   0  0  0  0  0  0  0  0  0  0  0  0
  -29.4598  -18.5150   20.1855 C   0  0  0  0  0  0  0  0  0  0  0  0
  -23.7044   -8.7823   23.9170 C   0  0  0  0  0  0  0  0  0  0  0  0
  -29.4035  -25.8912   19.8905 C   0  0  0  0  0  0  0  0  0  0  0  0
  -30.0320  -21.1575   20.8728 C   0  0  0  0  0  0  0  0  0  0  0  0
  -22.0776   -7.1576   24.4031 C   0  0  0  0  0  0  0  0  0  0  0  0
  -19.6381   -5.9523   23.7878 C   0  0  0  0  0  0  0  0  0  0  0  0
  -28.4236  -19.3928   20.5042 C   0  0  0  0  0  0  0  0  0  0  0  0
  -22.0296   -5.7981   24.0950 C   0  0  0  0  0  0  0  0  0  0  0  0
  -25.0000  -11.9695   21.4550 C   0  0  0  0  0  0  0  0  0  0  0  0
  -25.1046  -13.7986   20.2391 C   0  0  0  0  0  0  0  0  0  0  0  0
  -22.8471  -13.3565   21.2173 C   0  0  0  0  0  0  0  0  0  0  0  0
  -25.3581  -28.6945   22.1797 C   0  0  0  0  0  0  0  0  0  0  0  0
  -23.8210  -28.6090   19.3245 C   0  0  0  0  0  0  0  0  0  0  0  0
  -23.8043  -27.5722   16.0731 C   0  0  0  0  0  0  0  0  0  0  0  0
  -30.0847  -16.1747   19.4935 C   0  0  0  0  0  0  0  0  0  0  0  0
  -21.3887  -30.0957   25.0674 C   0  0  0  0  0  0  0  0  0  0  0  0
  -27.1632  -29.4948   20.6123 C   0  0  0  0  0  0  0  0  0  0  0  0
  -25.8084  -27.0763   19.5826 C   0  0  0  0  0  0  0  0  0  0  0  0
  -21.6240  -29.0770   23.9551 C   0  0  0  0  0  0  0  0  0  0  0  0
  -29.7777  -12.7400   18.6070 C   0  0  0  0  0  0  0  0  0  0  0  0
  -22.8783  -28.2567   24.2391 C   0  0  0  0  0  0  0  0  0  0  0  0
  -28.4440  -12.3225   19.2307 C   0  0  0  0  0  0  0  0  0  0  0  0
  -30.5323  -13.7304   19.4921 C   0  0  0  0  0  0  0  0  0  0  0  0
  -28.4284  -14.4960   20.5202 C   0  0  0  0  0  0  0  0  0  0  0  0
  -24.1226  -29.1513   24.2906 C   0  0  1  0  0  0  0  0  0  0  0  0
  -25.6707  -29.2593   20.8229 C   0  0  1  0  0  0  0  0  0  0  0  0
  -27.6023  -13.5488   19.6347 C   0  0  2  0  0  0  0  0  0  0  0  0
  -22.3954  -27.6215   13.9970 C   0  0  0  0  0  0  0  0  0  0  0  0
  -22.0091  -26.4570   20.5059 C   0  0  0  0  0  0  0  0  0  0  0  0
  -21.2863  -25.8860   18.1779 C   0  0  0  0  0  0  0  0  0  0  0  0
  -20.8302  -28.1578   19.1017 C   0  0  0  0  0  0  0  0  0  0  0  0
  -25.8768  -29.0487   14.5620 C   0  0  0  0  0  0  0  0  0  0  0  0
  -31.2612  -24.5267   20.4758 C   0  0  0  0  0  0  0  0  0  1  0  0
  -31.4737  -23.0327   20.6261 C   0  0  0  0  0  0  0  0  0  0  0  0
  -23.1974  -27.5257   18.4781 C   0  0  1  0  0  0  0  0  0  0  0  0
  -23.5008  -28.3106   14.7819 C   0  0  2  0  0  0  0  0  0  0  0  0
  -21.8583  -27.0059   19.0731 C   0  0  0  0  0  0  0  0  0  0  0  0
  -26.2666  -12.0195   21.0342 N   0  0  0  0  0  0  0  0  0  0  0  0
  -26.2990  -13.1428   20.2971 N   0  0  0  0  0  0  0  0  0  0  0  0
  -25.0986  -28.3411   19.8361 N   0  0  0  0  0  0  0  0  0  0  0  0
  -29.6740  -14.8677   19.8310 N   0  0  0  0  0  0  0  0  0  0  0  0
  -24.9610  -14.9452   19.5412 N   0  0  0  0  0  0  0  0  0  0  0  0
  -22.0930  -12.4837   22.0134 N   0  0  0  0  0  0  0  0  0  0  0  0
  -29.1724  -17.1722   19.8360 N   0  0  0  0  0  0  0  0  0  0  0  0
  -24.5475  -29.5037   22.9528 N   0  0  0  0  0  0  0  0  0  0  0  0
  -23.0794  -28.0763   17.1322 N   0  0  0  0  0  0  0  0  0  0  0  0
  -24.7173  -28.3743   13.9234 N   0  3  0  0  0  0  0  0  0  0  0  0
  -22.2926  -14.3634   20.7151 O   0  0  0  0  0  0  0  0  0  0  0  0
  -25.8170  -27.6046   22.5009 O   0  0  0  0  0  0  0  0  0  0  0  0
  -23.2006  -29.6574   19.5185 O   0  0  0  0  0  0  0  0  0  0  0  0
  -24.6016  -26.6390   16.1351 O   0  0  0  0  0  0  0  0  0  0  0  0
  -31.1537  -16.3905   18.9167 O   0  0  0  0  0  0  0  0  0  0  0  0
  -23.2877   -7.7573   24.7095 O   0  0  0  0  0  0  0  0  0  0  0  0
  -30.1143  -24.7543   19.6579 O   0  0  0  0  0  0  0  0  0  1  0  0
  -30.3131  -22.4549   21.2114 O   0  0  0  0  0  0  0  0  0  0  0  0
  -18.4666   -5.3733   23.4939 F   0  0  0  0  0  0  0  0  0  0  0  0
  -27.1490  -18.9774   20.4830 F   0  0  0  0  0  0  0  0  0  0  0  0
  -23.1517   -5.0655   24.0941 F   0  0  0  0  0  0  0  0  0  0  0  0
  1  2  1  0  0  0  0
  1  5  2  0  0  0  0
  2  6  2  0  0  0  0
  3  9  2  0  0  0  0
  3 18  1  0  0  0  0
  4 10  1  0  0  0  0
  4 18  2  0  0  0  0
  5 20  1  0  0  0  0
  6 22  1  0  0  0  0
  7 11  2  0  0  0  0
  7 21  1  0  0  0  0
  8 12  2  0  0  0  0
  8 24  1  0  0  0  0
  9 25  1  0  0  0  0
 10 25  2  0  0  0  0
 11 26  1  0  0  0  0
 12 27  1  0  0  0  0
 13 14  2  0  0  0  0
 13 28  1  0  0  0  0
 14 29  1  0  0  0  0
 15 23  1  0  0  0  0
 15 26  2  0  0  0  0
 16 27  2  0  0  0  0
 16 30  1  0  0  0  0
 17 29  2  0  0  0  0
 17 31  1  0  0  0  0
 18 32  1  0  0  0  0
 19 32  1  0  0  0  0
 19 33  2  0  0  0  0
 19 34  1  0  0  0  0
 20 22  2  0  0  0  0
 20 39  1  0  0  0  0
 21 23  2  0  0  0  0
 21 40  1  0  0  0  0
 22 48  1  0  0  0  0
 23 41  1  0  0  0  0
 24 30  2  0  0  0  0
 24 67  1  0  0  0  0
 25 76  1  0  0  0  0
 26 77  1  0  0  0  0
 27 78  1  0  0  0  0
 28 31  2  0  0  0  0
 28 76  1  0  0  0  0
 29 79  1  0  0  0  0
 30 80  1  0  0  0  0
 31 81  1  0  0  0  0
 32 61  2  0  0  0  0
 33 62  1  0  0  0  0
 33 65  1  0  0  0  0
 34 66  1  0  0  0  0
 34 71  2  0  0  0  0
 35 49  1  0  0  0  0
 35 68  1  0  0  0  0
 35 72  2  0  0  0  0
 36 58  1  0  0  0  0
 36 63  1  0  0  0  0
 36 73  2  0  0  0  0
 37 59  1  0  0  0  0
 37 69  1  0  0  0  0
 37 74  2  0  0  0  0
 38 64  1  0  0  0  0
 38 67  1  0  0  0  0
 38 75  2  0  0  0  0
 39 42  1  0  0  0  0
 40 49  1  0  0  0  0
 41 63  1  0  0  0  0
 42 44  1  0  0  0  0
 43 45  1  0  0  0  0
 43 46  1  0  0  0  0
 44 48  1  0  0  0  0
 45 50  1  0  0  0  0
 46 64  1  0  0  0  0
 47 50  1  0  0  0  0
 47 64  1  0  0  0  0
 48 68  1  0  0  0  0
 49 63  1  0  0  0  0
 50 62  1  0  0  0  0
 51 59  1  0  0  0  0
 52 60  1  0  0  0  0
 53 60  1  0  0  0  0
 54 60  1  0  0  0  0
 55 70  1  0  0  0  0
 56 57  1  0  0  0  0
 56 77  1  0  0  0  0
 57 78  1  0  0  0  0
 58 60  1  0  0  0  0
 58 69  1  0  0  0  0
 59 70  1  0  0  0  0
 61 62  1  0  0  0  0
M  CHG  1  70   1
M  ISO  4  38 100  56 101  67 100  77 101
M  END
> <Batch ID>
0009

> <Smiles>
CNC(C)C(=O)NC(C(=O)N1Cc2cc([101O:1][101CH2:1]COc3ccc([100NH:0][100C:0](=O)N4CCCC(n5nc(-c6ccc(Oc7ccc(F)cc7F)cc6)c(C(N)=O)c5N)C4)c(F)c3)ccc2CC1C(=O)NC1CCCc2ccccc21)C(C)(C)C

> <Shape>
0.293

> <Color>
0.123

> <Negative vol penalty>
0.000

$$$$

  -OEChem-04042320373D

 83 91  0     1  0  0  0  0  0999 V2000
  -25.5239  -22.2643   25.6222 C   0  0  0  0  0  0  0  0  0  0  0  0
  -25.0416  -23.4122   25.0016 C   0  0  0  0  0  0  0  0  0  0  0  0
  -29.3729  -17.7762   20.3915 C   0  0  0  0  0  0  0  0  0  0  0  0
  -27.1676  -18.3322   19.5764 C   0  0  0  0  0  0  0  0  0  0  0  0
  -25.4510  -21.0359   24.9668 C   0  0  0  0  0  0  0  0  0  0  0  0
  -24.4870  -23.3325   23.7247 C   0  0  0  0  0  0  0  0  0  0  0  0
  -20.1803  -25.9639   23.3093 C   0  0  0  0  0  0  0  0  0  0  0  0
  -25.6964  -29.9180   22.4005 C   0  0  0  0  0  0  0  0  0  0  0  0
  -24.3758  -30.3499   22.2780 C   0  0  0  0  0  0  0  0  0  0  0  0
  -28.9707  -16.4536   20.5778 C   0  0  0  0  0  0  0  0  0  0  0  0
  -26.7653  -17.0096   19.7627 C   0  0  0  0  0  0  0  0  0  0  0  0
  -20.2901  -27.3465   23.1674 C   0  0  0  0  0  0  0  0  0  0  0  0
  -28.4916  -13.7035   18.6699 C   0  0  0  0  0  0  0  0  0  0  0  0
  -29.3534  -12.6965   18.2353 C   0  0  0  0  0  0  0  0  0  0  0  0
  -19.9499  -27.1234   20.7897 C   0  0  0  0  0  0  0  0  0  0  0  0
  -24.5226  -30.1183   19.8776 C   0  0  0  0  0  0  0  0  0  0  0  0
  -29.4927  -11.8423   20.4910 C   0  0  0  0  0  0  0  0  0  0  0  0
  -28.4714  -18.7155   19.8909 C   0  0  0  0  0  0  0  0  0  0  0  0
  -29.4556  -20.6425   18.5398 C   0  0  0  0  0  0  0  0  0  0  0  0
  -24.8864  -20.9394   23.6851 C   0  0  0  0  0  0  0  0  0  0  0  0
  -19.9650  -25.1483   22.1891 C   0  0  0  0  0  0  0  0  0  0  0  0
  -24.4077  -22.1018   23.0510 C   0  0  0  0  0  0  0  0  0  0  0  0
  -19.8352  -25.7310   20.9204 C   0  0  0  0  0  0  0  0  0  0  0  0
  -26.4302  -29.5863   21.2615 C   0  0  0  0  0  0  0  0  0  0  0  0
  -23.7889  -30.4501   21.0166 C   0  0  0  0  0  0  0  0  0  0  0  0
  -27.6669  -16.0703   20.2633 C   0  0  0  0  0  0  0  0  0  0  0  0
  -20.1777  -27.9262   21.9071 C   0  0  0  0  0  0  0  0  0  0  0  0
  -28.1304  -13.7800   20.0150 C   0  0  0  0  0  0  0  0  0  0  0  0
  -29.8539  -11.7659   19.1458 C   0  0  0  0  0  0  0  0  0  0  0  0
  -25.8433  -29.6865   20.0001 C   0  0  0  0  0  0  0  0  0  0  0  0
  -28.6309  -12.8494   20.9255 C   0  0  0  0  0  0  0  0  0  0  0  0
  -28.8861  -20.0819   19.6988 C   0  0  0  0  0  0  0  0  0  0  0  0
  -29.6670  -21.9603   18.8641 C   0  0  0  0  0  0  0  0  0  0  0  0
  -29.7656  -20.0271   17.2825 C   0  0  0  0  0  0  0  0  0  0  0  0
  -21.5842  -22.8074   20.7743 C   0  0  0  0  0  0  0  0  0  0  0  0
  -18.9087  -22.5841   18.9538 C   0  0  0  0  0  0  0  0  0  0  0  0
  -16.1170  -24.1013   17.7084 C   0  0  0  0  0  0  0  0  0  0  0  0
  -27.8971  -26.6751   21.0053 C   0  0  0  0  0  0  0  0  0  0  0  0
  -24.8725  -19.5974   22.9971 C   0  0  0  0  0  0  0  0  0  0  0  0
  -19.8222  -23.6610   22.3625 C   0  0  0  0  0  0  0  0  0  0  0  0
  -19.5835  -24.9015   19.6887 C   0  0  0  0  0  0  0  0  0  0  0  0
  -23.9292  -19.5372   21.7984 C   0  0  0  0  0  0  0  0  0  0  0  0
  -29.4064  -24.3392   23.3211 C   0  0  0  0  0  0  0  0  0  0  0  0
  -24.1127  -20.7654   20.9126 C   0  0  0  0  0  0  0  0  0  0  0  0
  -29.4511  -23.0625   22.4795 C   0  0  0  0  0  0  0  0  0  0  0  0
  -28.1350  -25.1373   23.0477 C   0  0  0  0  0  0  0  0  0  0  0  0
  -27.9653  -24.2088   20.7711 C   0  0  0  0  0  0  0  0  0  0  0  0
  -23.7765  -22.0518   21.6765 C   0  0  1  0  0  0  0  0  0  0  0  0
  -20.1161  -22.8797   21.0856 C   0  0  1  0  0  0  0  0  0  0  0  0
  -29.2375  -23.3687   20.9852 C   0  0  2  0  0  0  0  0  0  0  0  0
  -14.1426  -23.6766   16.2188 C   0  0  0  0  0  0  0  0  0  0  0  0
  -20.7069  -22.8391   16.5019 C   0  0  0  0  0  0  0  0  0  0  0  0
  -18.6674  -23.3611   15.1469 C   0  0  0  0  0  0  0  0  0  0  0  0
  -18.8762  -21.1496   16.2819 C   0  0  0  0  0  0  0  0  0  0  0  0
  -21.8439  -30.9896   19.5722 C   0  0  0  0  0  0  0  0  0  0  0  0
  -14.2024  -24.5929   19.9110 C   0  0  0  0  0  0  0  0  0  0  0  0
  -27.8421  -29.1249   21.3959 C   0  0  0  0  0  0  0  0  0  0  0  0
  -21.6707  -31.2214   22.0551 C   0  0  0  0  0  0  0  0  0  0  0  0
  -21.1164  -29.9623   22.7004 C   0  0  0  0  0  0  0  0  0  1  0  0
  -18.4346  -23.2173   17.6680 C   0  0  1  0  0  0  0  0  0  0  0  0
  -14.6688  -23.6505   17.6454 C   0  0  2  0  0  0  0  0  0  0  0  0
  -19.1779  -22.6575   16.4224 C   0  0  0  0  0  0  0  0  0  0  0  0
  -28.7449  -20.9708   20.6857 N   0  0  0  0  0  0  0  0  0  0  0  0
  -29.2288  -22.1033   20.1477 N   0  0  0  0  0  0  0  0  0  0  0  0
  -19.4578  -23.4512   19.9091 N   0  0  0  0  0  0  0  0  0  0  0  0
  -28.0009  -25.4114   21.6100 N   0  0  0  0  0  0  0  0  0  0  0  0
  -30.1833  -22.9992   18.1737 N   0  0  0  0  0  0  0  0  0  0  0  0
  -29.4835  -18.6641   17.1182 N   0  0  0  0  0  0  0  0  0  0  0  0
  -22.3426  -22.2234   21.7709 N   0  0  0  0  0  0  0  0  0  0  0  0
  -16.9876  -23.0348   17.6324 N   0  0  0  0  0  0  0  0  0  0  0  0
  -27.9322  -27.7619   21.8704 N   0  0  0  0  0  0  0  0  0  0  0  0
  -22.4620  -30.8836   20.8942 N   0  0  3  0  0  0  0  0  0  0  0  0
  -13.8123  -24.5412   18.4785 N   0  3  0  0  0  0  0  0  0  0  0  0
  -30.2927  -20.6631   16.3385 O   0  0  0  0  0  0  0  0  0  0  0  0
  -21.9982  -23.2474   19.7081 O   0  0  0  0  0  0  0  0  0  0  0  0
  -18.7896  -21.3661   19.1079 O   0  0  0  0  0  0  0  0  0  0  0  0
  -16.4433  -25.2818   17.8107 O   0  0  0  0  0  0  0  0  0  0  0  0
  -27.7866  -26.8244   19.7836 O   0  0  0  0  0  0  0  0  0  0  0  0
  -27.2741  -14.7799   20.4447 O   0  0  0  0  0  0  0  0  0  0  0  0
  -20.2851  -29.2754   21.7657 O   0  0  0  0  0  0  0  0  0  1  0  0
  -30.6803  -10.7980   18.7281 F   0  0  0  0  0  0  0  0  0  0  0  0
  -26.5408  -29.3711   18.8998 F   0  0  0  0  0  0  0  0  0  0  0  0
  -28.2866  -12.9170   22.2189 F   0  0  0  0  0  0  0  0  0  0  0  0
  1  2  1  0  0  0  0
  1  5  2  0  0  0  0
  2  6  2  0  0  0  0
  3 10  2  0  0  0  0
  3 18  1  0  0  0  0
  4 11  1  0  0  0  0
  4 18  2  0  0  0  0
  5 20  1  0  0  0  0
  6 22  1  0  0  0  0
  7 12  2  0  0  0  0
  7 21  1  0  0  0  0
  8  9  2  0  0  0  0
  8 24  1  0  0  0  0
  9 25  1  0  0  0  0
 10 26  1  0  0  0  0
 11 26  2  0  0  0  0
 12 27  1  0  0  0  0
 13 14  2  0  0  0  0
 13 28  1  0  0  0  0
 14 29  1  0  0  0  0
 15 23  1  0  0  0  0
 15 27  2  0  0  0  0
 16 25  2  0  0  0  0
 16 30  1  0  0  0  0
 17 29  2  0  0  0  0
 17 31  1  0  0  0  0
 18 32  1  0  0  0  0
 19 32  1  0  0  0  0
 19 33  2  0  0  0  0
 19 34  1  0  0  0  0
 20 22  2  0  0  0  0
 20 39  1  0  0  0  0
 21 23  2  0  0  0  0
 21 40  1  0  0  0  0
 22 48  1  0  0  0  0
 23 41  1  0  0  0  0
 24 30  2  0  0  0  0
 24 57  1  0  0  0  0
 25 72  1  0  0  0  0
 26 79  1  0  0  0  0
 27 80  1  0  0  0  0
 28 31  2  0  0  0  0
 28 79  1  0  0  0  0
 29 81  1  0  0  0  0
 30 82  1  0  0  0  0
 31 83  1  0  0  0  0
 32 63  2  0  0  0  0
 33 64  1  0  0  0  0
 33 67  1  0  0  0  0
 34 68  1  0  0  0  0
 34 74  2  0  0  0  0
 35 49  1  0  0  0  0
 35 69  1  0  0  0  0
 35 75  2  0  0  0  0
 36 60  1  0  0  0  0
 36 65  1  0  0  0  0
 36 76  2  0  0  0  0
 37 61  1  0  0  0  0
 37 70  1  0  0  0  0
 37 77  2  0  0  0  0
 38 66  1  0  0  0  0
 38 71  1  0  0  0  0
 38 78  2  0  0  0  0
 39 42  1  0  0  0  0
 40 49  1  0  0  0  0
 41 65  1  0  0  0  0
 42 44  1  0  0  0  0
 43 45  1  0  0  0  0
 43 46  1  0  0  0  0
 44 48  1  0  0  0  0
 45 50  1  0  0  0  0
 46 66  1  0  0  0  0
 47 50  1  0  0  0  0
 47 66  1  0  0  0  0
 48 69  1  0  0  0  0
 49 65  1  0  0  0  0
 50 64  1  0  0  0  0
 51 61  1  0  0  0  0
 52 62  1  0  0  0  0
 53 62  1  0  0  0  0
 54 62  1  0  0  0  0
 55 72  1  0  0  0  0
 56 73  1  0  0  0  0
 57 71  1  0  0  0  0
 58 59  1  0  0  0  0
 58 72  1  0  0  0  0
 59 80  1  0  0  0  0
 60 62  1  0  0  0  0
 60 70  1  0  0  0  0
 61 73  1  0  0  0  0
 63 64  1  0  0  0  0
M  CHG  1  73   1
M  ISO  4  38 100  59 101  71 100  80 101
M  END
> <Batch ID>
0009

> <Smiles>
CNC(C)C(=O)NC(C(=O)N1Cc2cc([101O:1][101CH2:1]CN(C)c3ccc(C[100NH:0][100C:0](=O)N4CCCC(n5nc(-c6ccc(Oc7ccc(F)cc7F)cc6)c(C(N)=O)c5N)C4)c(F)c3)ccc2CC1C(=O)NC1CCCc2ccccc21)C(C)(C)C

> <Shape>
0.221

> <Color>
0.061

> <Negative vol penalty>
0.000

$$$$

  -OEChem-04042320373D

 83 91  0     1  0  0  0  0  0999 V2000
  -22.5828   -7.4371   24.6427 C   0  0  0  0  0  0  0  0  0  0  0  0
  -23.6889   -8.2307   24.9292 C   0  0  0  0  0  0  0  0  0  0  0  0
  -22.7519  -29.5828   21.2487 C   0  0  0  0  0  0  0  0  0  0  0  0
  -24.0443  -28.9638   23.1938 C   0  0  0  0  0  0  0  0  0  0  0  0
  -29.9622  -22.0116   23.8628 C   0  0  0  0  0  0  0  0  0  0  0  0
  -22.0182   -7.4642   23.3682 C   0  0  0  0  0  0  0  0  0  0  0  0
  -24.2318   -9.0511   23.9410 C   0  0  0  0  0  0  0  0  0  0  0  0
  -26.7801  -14.5647   24.7234 C   0  0  0  0  0  0  0  0  0  0  0  0
  -29.5238  -22.9580   22.9367 C   0  0  0  0  0  0  0  0  0  0  0  0
  -21.6437  -29.8221   22.0612 C   0  0  0  0  0  0  0  0  0  0  0  0
  -22.9361  -29.2031   24.0063 C   0  0  0  0  0  0  0  0  0  0  0  0
  -28.1075  -14.9784   24.8266 C   0  0  0  0  0  0  0  0  0  0  0  0
  -19.2598  -28.0030   23.6208 C   0  0  0  0  0  0  0  0  0  0  0  0
  -18.0273  -27.5059   23.1973 C   0  0  0  0  0  0  0  0  0  0  0  0
  -28.1191  -15.5082   22.4732 C   0  0  0  0  0  0  0  0  0  0  0  0
  -29.1465  -21.2019   21.3208 C   0  0  0  0  0  0  0  0  0  0  0  0
  -17.1352  -29.7509   23.1589 C   0  0  0  0  0  0  0  0  0  0  0  0
  -23.9522  -29.1536   21.8150 C   0  0  0  0  0  0  0  0  0  0  0  0
  -29.9929  -20.6603   23.5179 C   0  0  0  0  0  0  0  0  0  0  0  0
  -26.0955  -29.8268   20.6063 C   0  0  0  0  0  0  0  0  0  0  0  0
  -22.5485   -8.2926   22.3666 C   0  0  0  0  0  0  0  0  0  0  0  0
  -26.1145  -14.6095   23.4900 C   0  0  0  0  0  0  0  0  0  0  0  0
  -23.6745   -9.0883   22.6515 C   0  0  0  0  0  0  0  0  0  0  0  0
  -26.7825  -15.0969   22.3576 C   0  0  0  0  0  0  0  0  0  0  0  0
  -29.1159  -22.5532   21.6657 C   0  0  0  0  0  0  0  0  0  0  0  0
  -21.7358  -29.6323   23.4400 C   0  0  0  0  0  0  0  0  0  0  0  0
  -28.7781  -15.4475   23.7009 C   0  0  0  0  0  0  0  0  0  0  0  0
  -19.4301  -29.3740   23.8134 C   0  0  0  0  0  0  0  0  0  0  0  0
  -16.9650  -28.3799   22.9663 C   0  0  0  0  0  0  0  0  0  0  0  0
  -29.5850  -20.2555   22.2469 C   0  0  0  0  0  0  0  0  0  0  0  0
  -18.3678  -30.2479   23.5825 C   0  0  0  0  0  0  0  0  0  0  0  0
  -25.0972  -28.9057   20.9761 C   0  0  0  0  0  0  0  0  0  0  0  0
  -26.9504  -29.1052   19.8096 C   0  0  0  0  0  0  0  0  0  0  0  0
  -30.4633  -19.6562   24.5067 C   0  0  0  0  0  0  0  0  0  0  0  0
  -26.2373  -31.2110   20.9520 C   0  0  0  0  0  0  0  0  0  0  0  0
  -24.7844  -12.4455   21.5790 C   0  0  0  0  0  0  0  0  0  0  0  0
  -23.8379  -15.0654   19.9169 C   0  0  0  0  0  0  0  0  0  0  0  0
  -24.3567  -18.3573   18.5342 C   0  0  0  0  0  0  0  0  0  0  0  0
  -28.2317  -23.2817   19.4221 C   0  0  0  0  0  0  0  0  0  0  0  0
  -21.9330   -8.2526   20.9903 C   0  0  0  0  0  0  0  0  0  0  0  0
  -24.6744  -14.1847   23.4008 C   0  0  0  0  0  0  0  0  0  0  0  0
  -26.1065  -15.1841   21.0144 C   0  0  0  0  0  0  0  0  0  0  0  0
  -22.3383   -9.4301   20.1074 C   0  0  0  0  0  0  0  0  0  0  0  0
  -27.0201  -25.3739   16.8084 C   0  0  0  0  0  0  0  0  0  0  0  0
  -23.8441   -9.6613   20.1840 C   0  0  0  0  0  0  0  0  0  0  0  0
  -26.4859  -26.6035   17.5464 C   0  0  0  0  0  0  0  0  0  0  0  0
  -26.7600  -24.0866   17.5887 C   0  0  0  0  0  0  0  0  0  0  0  0
  -26.6995  -25.3264   19.7168 C   0  0  0  0  0  0  0  0  0  0  0  0
  -24.2768  -10.0100   21.6132 C   0  0  1  0  0  0  0  0  0  0  0  0
  -24.2540  -13.7904   21.9883 C   0  0  1  0  0  0  0  0  0  0  0  0
  -26.9957  -26.6539   19.0001 C   0  0  2  0  0  0  0  0  0  0  0  0
  -22.7976  -19.8570   17.2623 C   0  0  0  0  0  0  0  0  0  0  0  0
  -25.1012  -13.7992   17.4449 C   0  0  0  0  0  0  0  0  0  0  0  0
  -25.0086  -16.0413   16.3347 C   0  0  0  0  0  0  0  0  0  0  0  0
  -22.8986  -14.9113   17.0373 C   0  0  0  0  0  0  0  0  0  0  0  0
  -24.7566  -20.5844   20.4419 C   0  0  0  0  0  0  0  0  0  0  0  0
  -31.5573  -17.4502   24.8106 C   0  0  0  0  0  0  0  0  0  0  0  0
  -30.4921  -16.3952   25.0500 C   0  0  0  0  0  0  0  0  0  1  0  0
  -24.4252  -15.8915   18.7981 C   0  0  1  0  0  0  0  0  0  0  0  0
  -23.4070  -19.5385   18.6188 C   0  0  2  0  0  0  0  0  0  0  0  0
  -24.3720  -15.1575   17.4285 C   0  0  0  0  0  0  0  0  0  0  0  0
  -25.2980  -27.6916   20.4569 N   0  0  0  0  0  0  0  0  0  0  0  0
  -26.4323  -27.8448   19.7526 N   0  0  0  0  0  0  0  0  0  0  0  0
  -24.6999  -14.7511   20.9770 N   0  0  0  0  0  0  0  0  0  0  0  0
  -27.2737  -24.2062   18.9550 N   0  0  0  0  0  0  0  0  0  0  0  0
  -28.0873  -29.4321   19.1591 N   0  0  0  0  0  0  0  0  0  0  0  0
  -25.2693  -31.7954   21.7802 N   0  0  0  0  0  0  0  0  0  0  0  0
  -28.6706  -23.5147   20.7250 N   0  0  0  0  0  0  0  0  0  0  0  0
  -31.0717  -18.5224   23.9830 N   0  0  0  0  0  0  0  0  0  0  0  0
  -23.9593  -11.3893   21.9151 N   0  0  0  0  0  0  0  0  0  0  0  0
  -23.7196  -17.1682   18.8196 N   0  0  0  0  0  0  0  0  0  0  0  0
  -24.1276  -20.7486   19.1061 N   0  3  0  0  0  0  0  0  0  0  0  0
  -30.2787  -19.8607   25.7036 O   0  0  0  0  0  0  0  0  0  0  0  0
  -27.1852  -31.9132   20.5254 O   0  0  0  0  0  0  0  0  0  0  0  0
  -25.8618  -12.3717   20.9997 O   0  0  0  0  0  0  0  0  0  0  0  0
  -22.6559  -14.7181   19.8559 O   0  0  0  0  0  0  0  0  0  0  0  0
  -25.5441  -18.4770   18.2404 O   0  0  0  0  0  0  0  0  0  0  0  0
  -28.6534  -22.3678   18.7086 O   0  0  0  0  0  0  0  0  0  0  0  0
  -20.6546  -29.8659   24.2331 O   0  0  0  0  0  0  0  0  0  0  0  0
  -30.0740  -15.8513   23.7987 O   0  0  0  0  0  0  0  0  0  1  0  0
  -15.7819  -27.9026   22.5582 F   0  0  0  0  0  0  0  0  0  0  0  0
  -29.6106  -18.9595   21.9043 F   0  0  0  0  0  0  0  0  0  0  0  0
  -18.5256  -31.5661   23.7647 F   0  0  0  0  0  0  0  0  0  0  0  0
  1  2  1  0  0  0  0
  1  6  2  0  0  0  0
  2  7  2  0  0  0  0
  3 10  2  0  0  0  0
  3 18  1  0  0  0  0
  4 11  1  0  0  0  0
  4 18  2  0  0  0  0
  5  9  2  0  0  0  0
  5 19  1  0  0  0  0
  6 21  1  0  0  0  0
  7 23  1  0  0  0  0
  8 12  2  0  0  0  0
  8 22  1  0  0  0  0
  9 25  1  0  0  0  0
 10 26  1  0  0  0  0
 11 26  2  0  0  0  0
 12 27  1  0  0  0  0
 13 14  2  0  0  0  0
 13 28  1  0  0  0  0
 14 29  1  0  0  0  0
 15 24  1  0  0  0  0
 15 27  2  0  0  0  0
 16 25  2  0  0  0  0
 16 30  1  0  0  0  0
 17 29  2  0  0  0  0
 17 31  1  0  0  0  0
 18 32  1  0  0  0  0
 19 30  2  0  0  0  0
 19 34  1  0  0  0  0
 20 32  1  0  0  0  0
 20 33  2  0  0  0  0
 20 35  1  0  0  0  0
 21 23  2  0  0  0  0
 21 40  1  0  0  0  0
 22 24  2  0  0  0  0
 22 41  1  0  0  0  0
 23 49  1  0  0  0  0
 24 42  1  0  0  0  0
 25 68  1  0  0  0  0
 26 79  1  0  0  0  0
 27 80  1  0  0  0  0
 28 31  2  0  0  0  0
 28 79  1  0  0  0  0
 29 81  1  0  0  0  0
 30 82  1  0  0  0  0
 31 83  1  0  0  0  0
 32 62  2  0  0  0  0
 33 63  1  0  0  0  0
 33 66  1  0  0  0  0
 34 69  1  0  0  0  0
 34 73  2  0  0  0  0
 35 67  1  0  0  0  0
 35 74  2  0  0  0  0
 36 50  1  0  0  0  0
 36 70  1  0  0  0  0
 36 75  2  0  0  0  0
 37 59  1  0  0  0  0
 37 64  1  0  0  0  0
 37 76  2  0  0  0  0
 38 60  1  0  0  0  0
 38 71  1  0  0  0  0
 38 77  2  0  0  0  0
 39 65  1  0  0  0  0
 39 68  1  0  0  0  0
 39 78  2  0  0  0  0
 40 43  1  0  0  0  0
 41 50  1  0  0  0  0
 42 64  1  0  0  0  0
 43 45  1  0  0  0  0
 44 46  1  0  0  0  0
 44 47  1  0  0  0  0
 45 49  1  0  0  0  0
 46 51  1  0  0  0  0
 47 65  1  0  0  0  0
 48 51  1  0  0  0  0
 48 65  1  0  0  0  0
 49 70  1  0  0  0  0
 50 64  1  0  0  0  0
 51 63  1  0  0  0  0
 52 60  1  0  0  0  0
 53 61  1  0  0  0  0
 54 61  1  0  0  0  0
 55 61  1  0  0  0  0
 56 72  1  0  0  0  0
 57 58  1  0  0  0  0
 57 69  1  0  0  0  0
 58 80  1  0  0  0  0
 59 61  1  0  0  0  0
 59 71  1  0  0  0  0
 60 72  1  0  0  0  0
 62 63  1  0  0  0  0
M  CHG  1  72   1
M  ISO  4  39 100  58 101  68 100  80 101
M  END
> <Batch ID>
0009

> <Smiles>
CNC(C)C(=O)NC(C(=O)N1Cc2cc([101O:1][101CH2:1]CNC(=O)c3ccc([100NH:0][100C:0](=O)N4CCCC(n5nc(-c6ccc(Oc7ccc(F)cc7F)cc6)c(C(N)=O)c5N)C4)cc3F)ccc2CC1C(=O)NC1CCCc2ccccc21)C(C)(C)C

> <Shape>
0.234

> <Color>
0.078

> <Negative vol penalty>
0.000

$$$$

  -OEChem-04042320373D

 82 91  0     1  0  0  0  0  0999 V2000
  -28.7275  -13.2197   19.5632 C   0  0  0  0  0  0  0  0  0  0  0  0
  -28.7170  -14.6098   19.6159 C   0  0  0  0  0  0  0  0  0  0  0  0
  -29.5217  -25.8567   19.9575 C   0  0  0  0  0  0  0  0  0  0  0  0
  -27.7677  -24.2453   20.3629 C   0  0  0  0  0  0  0  0  0  0  0  0
  -27.5623  -12.5041   19.8356 C   0  0  0  0  0  0  0  0  0  0  0  0
  -27.5410  -15.2853   19.9401 C   0  0  0  0  0  0  0  0  0  0  0  0
  -25.2327  -21.1961   23.2643 C   0  0  0  0  0  0  0  0  0  0  0  0
  -18.8073  -24.3151   22.3510 C   0  0  0  0  0  0  0  0  0  0  0  0
  -18.1197  -25.4993   22.0678 C   0  0  0  0  0  0  0  0  0  0  0  0
  -30.4672  -24.9463   20.4296 C   0  0  0  0  0  0  0  0  0  0  0  0
  -28.7132  -23.3350   20.8350 C   0  0  0  0  0  0  0  0  0  0  0  0
  -24.4102  -22.3011   23.0494 C   0  0  0  0  0  0  0  0  0  0  0  0
  -30.9846  -21.2018   19.5269 C   0  0  0  0  0  0  0  0  0  0  0  0
  -30.8905  -19.8830   19.0825 C   0  0  0  0  0  0  0  0  0  0  0  0
  -20.7452  -25.5674   23.1054 C   0  0  0  0  0  0  0  0  0  0  0  0
  -22.4776  -20.9578   23.5783 C   0  0  0  0  0  0  0  0  0  0  0  0
  -30.6122  -19.1344   21.3627 C   0  0  0  0  0  0  0  0  0  0  0  0
  -28.1719  -25.5062   19.9242 C   0  0  0  0  0  0  0  0  0  0  0  0
  -26.7484  -26.5981   18.1106 C   0  0  0  0  0  0  0  0  0  0  0  0
  -26.3738  -13.1708   20.1727 C   0  0  0  0  0  0  0  0  0  0  0  0
  -24.6820  -19.9588   23.6279 C   0  0  0  0  0  0  0  0  0  0  0  0
  -26.3585  -14.5780   20.2160 C   0  0  0  0  0  0  0  0  0  0  0  0
  -20.0574  -26.7334   22.8077 C   0  0  0  0  0  0  0  0  0  0  0  0
  -23.2956  -19.8393   23.7998 C   0  0  0  0  0  0  0  0  0  0  0  0
  -20.1107  -24.3490   22.8667 C   0  0  0  0  0  0  0  0  0  0  0  0
  -18.7511  -26.7125   22.2973 C   0  0  0  0  0  0  0  0  0  0  0  0
  -30.0630  -23.6855   20.8683 C   0  0  0  0  0  0  0  0  0  0  0  0
  -23.0322  -22.1813   23.2036 C   0  0  0  0  0  0  0  0  0  0  0  0
  -30.8925  -21.4869   20.8893 C   0  0  0  0  0  0  0  0  0  0  0  0
  -30.7043  -18.8493   20.0004 C   0  0  0  0  0  0  0  0  0  0  0  0
  -30.7063  -20.4533   21.8071 C   0  0  0  0  0  0  0  0  0  0  0  0
  -27.1947  -26.4464   19.4371 C   0  0  0  0  0  0  0  0  0  0  0  0
  -25.8273  -27.6151   18.1725 C   0  0  0  0  0  0  0  0  0  0  0  0
  -27.1321  -25.8836   16.9283 C   0  0  0  0  0  0  0  0  0  0  0  0
  -24.6099  -17.0637   22.3175 C   0  0  0  0  0  0  0  0  0  0  0  0
  -23.2055  -16.2534   25.1271 C   0  0  0  0  0  0  0  0  0  0  0  0
  -21.4213  -17.2385   27.8644 C   0  0  0  0  0  0  0  0  0  0  0  0
  -22.3657  -29.7184   22.5822 C   0  0  0  0  0  0  0  0  0  0  0  0
  -25.1275  -12.3561   20.4127 C   0  0  0  0  0  0  0  0  0  0  0  0
  -25.5852  -18.7833   23.8821 C   0  0  0  0  0  0  0  0  0  0  0  0
  -22.6564  -18.5382   24.2086 C   0  0  0  0  0  0  0  0  0  0  0  0
  -24.0172  -13.1339   21.1147 C   0  0  0  0  0  0  0  0  0  0  0  0
  -24.7537  -31.5475   20.6773 C   0  0  0  0  0  0  0  0  0  0  0  0
  -23.8333  -14.5030   20.4678 C   0  0  0  0  0  0  0  0  0  0  0  0
  -25.6098  -30.4613   20.0238 C   0  0  0  0  0  0  0  0  0  0  0  0
  -24.3233  -31.1540   22.0886 C   0  0  0  0  0  0  0  0  0  0  0  0
  -19.3973  -28.9089   22.2017 C   0  0  0  0  0  0  0  0  0  0  0  0
  -24.5059  -28.7594   21.5349 C   0  0  0  0  0  0  0  0  0  0  0  0
  -25.1086  -15.3459   20.5881 C   0  0  1  0  0  0  0  0  0  0  0  0
  -20.4837  -28.1568   23.0044 C   0  0  2  0  0  0  0  0  0  0  0  0
  -24.8717  -17.4415   23.7480 C   0  0  1  0  0  0  0  0  0  0  0  0
  -24.9176  -29.0866   20.0894 C   0  0  2  0  0  0  0  0  0  0  0  0
  -20.3900  -16.3441   29.9700 C   0  0  0  0  0  0  0  0  0  0  0  0
  -20.9244  -15.0507   23.4961 C   0  0  0  0  0  0  0  0  0  0  0  0
  -19.5327  -15.0440   25.5772 C   0  0  0  0  0  0  0  0  0  0  0  0
  -21.6243  -13.6886   25.4733 C   0  0  0  0  0  0  0  0  0  0  0  0
  -17.0917  -28.3012   21.3130 C   0  0  0  0  0  0  0  0  0  0  0  0
  -23.1128  -18.9708   29.5664 C   0  0  0  0  0  0  0  0  0  0  0  0
  -20.8241  -23.0642   23.1695 C   0  0  0  0  0  0  0  0  0  1  0  0
  -21.7858  -16.2063   25.6382 C   0  0  1  0  0  0  0  0  0  0  0  0
  -21.6237  -16.9776   29.3461 C   0  0  2  0  0  0  0  0  0  0  0  0
  -20.9784  -15.0215   25.0366 C   0  0  0  0  0  0  0  0  0  0  0  0
  -26.6057  -27.2988   20.2800 N   0  0  0  0  0  0  0  0  0  0  0  0
  -25.7799  -27.9960   19.4813 N   0  0  0  0  0  0  0  0  0  0  0  0
  -18.2586  -27.9963   22.1018 N   0  0  1  0  0  0  0  0  0  0  0  0
  -23.5812  -17.4161   24.4394 N   0  0  0  0  0  0  0  0  0  0  0  0
  -23.6722  -29.8417   22.0811 N   0  0  0  0  0  0  0  0  0  0  0  0
  -25.0613  -28.2117   17.2345 N   0  0  0  0  0  0  0  0  0  0  0  0
  -28.0919  -24.8688   17.0428 N   0  0  0  0  0  0  0  0  0  0  0  0
  -25.2288  -15.8931   21.9224 N   0  0  0  0  0  0  0  0  0  0  0  0
  -21.8765  -16.1893   27.0942 N   0  0  0  0  0  0  0  0  0  0  0  0
  -21.8204  -28.4414   22.5322 N   0  0  0  0  0  0  0  0  0  0  0  0
  -21.9104  -18.2527   30.0621 N   0  3  0  0  0  0  0  0  0  0  0  0
  -26.6504  -26.1487   15.8008 O   0  0  0  0  0  0  0  0  0  0  0  0
  -23.8978  -17.7804   21.6240 O   0  0  0  0  0  0  0  0  0  0  0  0
  -23.9557  -15.2969   25.3366 O   0  0  0  0  0  0  0  0  0  0  0  0
  -20.9071  -18.2684   27.4335 O   0  0  0  0  0  0  0  0  0  0  0  0
  -21.7303  -30.6765   23.0352 O   0  0  0  0  0  0  0  0  0  0  0  0
  -30.9853  -22.7968   21.3288 O   0  0  0  0  0  0  0  0  0  0  0  0
  -22.2269  -23.2581   22.9938 O   0  0  0  0  0  0  0  0  0  1  0  0
  -30.6124  -17.5831   19.5733 F   0  0  0  0  0  0  0  0  0  0  0  0
  -30.6160  -20.7211   23.1171 F   0  0  0  0  0  0  0  0  0  0  0  0
  1  2  1  0  0  0  0
  1  5  2  0  0  0  0
  2  6  2  0  0  0  0
  3 10  2  0  0  0  0
  3 18  1  0  0  0  0
  4 11  1  0  0  0  0
  4 18  2  0  0  0  0
  5 20  1  0  0  0  0
  6 22  1  0  0  0  0
  7 12  2  0  0  0  0
  7 21  1  0  0  0  0
  8  9  2  0  0  0  0
  8 25  1  0  0  0  0
  9 26  1  0  0  0  0
 10 27  1  0  0  0  0
 11 27  2  0  0  0  0
 12 28  1  0  0  0  0
 13 14  2  0  0  0  0
 13 29  1  0  0  0  0
 14 30  1  0  0  0  0
 15 23  1  0  0  0  0
 15 25  2  0  0  0  0
 16 24  1  0  0  0  0
 16 28  2  0  0  0  0
 17 30  2  0  0  0  0
 17 31  1  0  0  0  0
 18 32  1  0  0  0  0
 19 32  1  0  0  0  0
 19 33  2  0  0  0  0
 19 34  1  0  0  0  0
 20 22  2  0  0  0  0
 20 39  1  0  0  0  0
 21 24  2  0  0  0  0
 21 40  1  0  0  0  0
 22 49  1  0  0  0  0
 23 26  2  0  0  0  0
 23 50  1  0  0  0  0
 24 41  1  0  0  0  0
 25 59  1  0  0  0  0
 26 65  1  0  0  0  0
 27 79  1  0  0  0  0
 28 80  1  0  0  0  0
 29 31  2  0  0  0  0
 29 79  1  0  0  0  0
 30 81  1  0  0  0  0
 31 82  1  0  0  0  0
 32 63  2  0  0  0  0
 33 64  1  0  0  0  0
 33 68  1  0  0  0  0
 34 69  1  0  0  0  0
 34 74  2  0  0  0  0
 35 51  1  0  0  0  0
 35 70  1  0  0  0  0
 35 75  2  0  0  0  0
 36 60  1  0  0  0  0
 36 66  1  0  0  0  0
 36 76  2  0  0  0  0
 37 61  1  0  0  0  0
 37 71  1  0  0  0  0
 37 77  2  0  0  0  0
 38 67  1  0  0  0  0
 38 72  1  0  0  0  0
 38 78  2  0  0  0  0
 39 42  1  0  0  0  0
 40 51  1  0  0  0  0
 41 66  1  0  0  0  0
 42 44  1  0  0  0  0
 43 45  1  0  0  0  0
 43 46  1  0  0  0  0
 44 49  1  0  0  0  0
 45 52  1  0  0  0  0
 46 67  1  0  0  0  0
 47 50  1  0  0  0  0
 47 65  1  0  0  0  0
 48 52  1  0  0  0  0
 48 67  1  0  0  0  0
 49 70  1  0  0  0  0
 50 72  1  0  0  0  0
 51 66  1  0  0  0  0
 52 64  1  0  0  0  0
 53 61  1  0  0  0  0
 54 62  1  0  0  0  0
 55 62  1  0  0  0  0
 56 62  1  0  0  0  0
 57 65  1  0  0  0  0
 58 73  1  0  0  0  0
 59 80  1  0  0  0  0
 60 62  1  0  0  0  0
 60 71  1  0  0  0  0
 61 73  1  0  0  0  0
 63 64  1  0  0  0  0
M  CHG  1  73   1
M  ISO  4  38 100  59 101  72 100  80 101
M  END
> <Batch ID>
0009

> <Smiles>
CNC(C)C(=O)NC(C(=O)N1Cc2cc([101O:1][101CH2:1]c3ccc4c(c3)C([100NH:0][100C:0](=O)N3CCCC(n5nc(-c6ccc(Oc7ccc(F)cc7F)cc6)c(C(N)=O)c5N)C3)CN4C)ccc2CC1C(=O)NC1CCCc2ccccc21)C(C)(C)C

> <Shape>
0.208

> <Color>
0.053

> <Negative vol penalty>
0.000

$$$$

  -OEChem-04042320373D

 88 97  0     1  0  0  0  0  0999 V2000
  -31.6508  -24.6709   18.5333 C   0  0  0  0  0  0  0  0  0  0  0  0
  -30.2681  -24.5199   18.5613 C   0  0  0  0  0  0  0  0  0  0  0  0
  -27.1481  -15.9171   19.6774 C   0  0  0  0  0  0  0  0  0  0  0  0
  -27.4139  -16.5670   21.9891 C   0  0  0  0  0  0  0  0  0  0  0  0
  -32.2936  -25.3842   19.5442 C   0  0  0  0  0  0  0  0  0  0  0  0
  -29.5275  -25.0813   19.6008 C   0  0  0  0  0  0  0  0  0  0  0  0
  -23.8953  -27.4594   19.2419 C   0  0  0  0  0  0  0  0  0  0  0  0
  -28.3081  -16.6178   19.3470 C   0  0  0  0  0  0  0  0  0  0  0  0
  -28.5739  -17.2677   21.6587 C   0  0  0  0  0  0  0  0  0  0  0  0
  -22.6373  -26.9416   19.5467 C   0  0  0  0  0  0  0  0  0  0  0  0
  -29.3764  -20.2408   20.2633 C   0  0  0  0  0  0  0  0  0  0  0  0
  -29.5352  -21.5197   20.7970 C   0  0  0  0  0  0  0  0  0  0  0  0
  -22.7417  -27.9834   21.7199 C   0  0  0  0  0  0  0  0  0  0  0  0
  -18.8487  -20.1231   27.3895 C   0  0  0  0  0  0  0  0  0  0  0  0
  -20.6432  -19.1202   28.6586 C   0  0  0  0  0  0  0  0  0  0  0  0
  -20.2904  -21.5088   28.7455 C   0  0  0  0  0  0  0  0  0  0  0  0
  -31.5647  -20.8082   21.8979 C   0  0  0  0  0  0  0  0  0  0  0  0
  -26.7010  -15.8918   20.9984 C   0  0  0  0  0  0  0  0  0  0  0  0
  -25.2620  -13.7922   21.1687 C   0  0  0  0  0  0  0  0  0  0  0  0
  -31.5594  -25.9629   20.5915 C   0  0  0  0  0  0  0  0  0  0  0  0
  -24.5918  -28.2354   20.1794 C   0  0  0  0  0  0  0  0  0  0  0  0
  -30.1611  -25.8019   20.6274 C   0  0  0  0  0  0  0  0  0  0  0  0
  -24.0073  -28.5121   21.4236 C   0  0  0  0  0  0  0  0  0  0  0  0
  -19.5645  -18.9927   27.7835 C   0  0  0  0  0  0  0  0  0  0  0  0
  -19.2117  -21.3812   27.8704 C   0  0  0  0  0  0  0  0  0  0  0  0
  -29.0210  -17.2930   20.3377 C   0  0  0  0  0  0  0  0  0  0  0  0
  -22.0615  -27.2011   20.7870 C   0  0  0  0  0  0  0  0  0  0  0  0
  -30.3117  -19.2456   20.5469 C   0  0  0  0  0  0  0  0  0  0  0  0
  -30.6294  -21.8034   21.6143 C   0  0  0  0  0  0  0  0  0  0  0  0
  -21.0062  -20.3783   29.1396 C   0  0  0  0  0  0  0  0  0  0  0  0
  -31.4059  -19.5293   21.3642 C   0  0  0  0  0  0  0  0  0  0  0  0
  -25.5025  -15.1687   21.3402 C   0  0  0  0  0  0  0  0  0  0  0  0
  -23.9878  -13.6042   21.6455 C   0  0  0  0  0  0  0  0  0  0  0  0
  -26.1144  -12.7746   20.6268 C   0  0  0  0  0  0  0  0  0  0  0  0
  -27.3567  -27.9451   21.7205 C   0  0  0  0  0  0  0  0  0  0  0  0
  -26.6488  -30.9374   22.7536 C   0  0  0  0  0  0  0  0  0  0  0  0
  -24.2649  -33.2976   23.3806 C   0  0  0  0  0  0  0  0  0  0  0  0
  -20.8237  -16.9033   25.5645 C   0  0  0  0  0  0  0  0  0  0  0  0
  -32.3032  -26.6848   21.6871 C   0  0  0  0  0  0  0  0  0  0  0  0
  -25.9364  -28.8090   19.8251 C   0  0  0  0  0  0  0  0  0  0  0  0
  -24.7050  -29.3564   22.4574 C   0  0  0  0  0  0  0  0  0  0  0  0
  -31.4072  -27.5672   22.5524 C   0  0  0  0  0  0  0  0  0  0  0  0
  -20.5885  -16.9116   21.7273 C   0  0  0  0  0  0  0  0  0  0  0  0
  -30.1446  -26.8126   22.9563 C   0  0  0  0  0  0  0  0  0  0  0  0
  -21.1463  -15.4976   21.5961 C   0  0  0  0  0  0  0  0  0  0  0  0
  -20.0985  -17.1756   23.1478 C   0  0  0  0  0  0  0  0  0  0  0  0
  -20.3506  -24.0947   24.4885 C   0  0  0  0  0  0  0  0  0  0  0  0
  -17.9844  -24.1932   24.0000 C   0  0  0  0  0  0  0  0  0  0  0  0
  -22.3628  -16.2954   23.7143 C   0  0  0  0  0  0  0  0  0  0  0  0
  -20.0709  -23.7504   25.9476 C   0  0  0  0  0  0  0  0  0  0  0  0
  -17.6360  -23.8517   25.4449 C   0  0  0  0  0  0  0  0  0  0  0  0
  -29.3205  -26.4173   21.7251 C   0  0  1  0  0  0  0  0  0  0  0  0
  -26.7783  -29.1582   21.0486 C   0  0  1  0  0  0  0  0  0  0  0  0
  -22.2114  -15.1775   22.6676 C   0  0  2  0  0  0  0  0  0  0  0  0
  -23.9871  -35.6326   24.2571 C   0  0  0  0  0  0  0  0  0  0  0  0
  -27.0464  -29.9136   25.6003 C   0  0  0  0  0  0  0  0  0  0  0  0
  -25.8573  -31.9560   26.4266 C   0  0  0  0  0  0  0  0  0  0  0  0
  -27.9978  -32.1853   25.1663 C   0  0  0  0  0  0  0  0  0  0  0  0
  -23.1279  -34.2482   20.8189 C   0  0  0  0  0  0  0  0  0  0  0  0
  -19.1769  -17.6476   27.2689 C   0  0  0  0  0  0  0  0  0  0  0  0
  -18.4421  -22.5974   27.4465 C   0  0  0  0  0  0  0  0  0  0  0  0
  -19.5674  -25.2634   22.5324 C   0  0  0  0  0  0  0  0  0  0  0  0
  -20.5692  -26.4055   22.4592 C   0  0  0  0  0  0  0  0  0  1  0  0
  -25.8976  -31.5125   23.9300 C   0  0  1  0  0  0  0  0  0  0  0  0
  -24.1860  -34.7702   23.0204 C   0  0  2  0  0  0  0  0  0  0  0  0
  -26.6872  -31.3743   25.2623 C   0  0  0  0  0  0  0  0  0  0  0  0
  -24.4642  -15.8097   21.8834 N   0  0  0  0  0  0  0  0  0  0  0  0
  -23.5590  -14.8317   22.0573 N   0  0  0  0  0  0  0  0  0  0  0  0
  -26.0205  -29.8893   22.0661 N   0  0  0  0  0  0  0  0  0  0  0  0
  -21.0621  -16.7778   24.1820 N   0  0  0  0  0  0  0  0  0  0  0  0
  -19.2665  -24.9052   23.9181 N   0  0  0  0  0  0  0  0  0  0  0  0
  -23.2034  -12.5103   21.7484 N   0  0  0  0  0  0  0  0  0  0  0  0
  -27.3926  -13.1400   20.1831 N   0  0  0  0  0  0  0  0  0  0  0  0
  -28.5856  -27.5577   21.2213 N   0  0  0  0  0  0  0  0  0  0  0  0
  -25.5675  -32.8874   23.5710 N   0  0  0  0  0  0  0  0  0  0  0  0
  -19.5850  -17.4456   25.8973 N   0  0  0  0  0  0  0  0  0  0  0  0
  -18.7502  -23.0286   26.0409 N   0  3  0  0  0  0  0  0  0  0  0  0
  -23.0491  -35.0154   22.0886 N   0  3  0  0  0  0  0  0  0  0  0  0
  -25.7471  -11.5796   20.5236 O   0  0  0  0  0  0  0  0  0  0  0  0
  -26.7349  -27.4017   22.6259 O   0  0  0  0  0  0  0  0  0  0  0  0
  -27.7491  -31.4058   22.4512 O   0  0  0  0  0  0  0  0  0  0  0  0
  -23.2701  -32.5836   23.4865 O   0  0  0  0  0  0  0  0  0  0  0  0
  -21.6428  -16.5648   26.4240 O   0  0  0  0  0  0  0  0  0  0  0  0
  -30.1531  -17.9766   20.0157 O   0  0  0  0  0  0  0  0  0  0  0  0
  -20.8340  -26.6963   21.0874 O   0  0  0  0  0  0  0  0  0  1  0  0
  -30.7826  -23.0320   22.1254 F   0  0  0  0  0  0  0  0  0  0  0  0
  -22.0426  -20.5007   29.9791 F   0  0  0  0  0  0  0  0  0  0  0  0
  -32.3084  -18.5776   21.6393 F   0  0  0  0  0  0  0  0  0  0  0  0
  1  2  1  0  0  0  0
  1  5  2  0  0  0  0
  2  6  2  0  0  0  0
  3  8  2  0  0  0  0
  3 18  1  0  0  0  0
  4  9  1  0  0  0  0
  4 18  2  0  0  0  0
  5 20  1  0  0  0  0
  6 22  1  0  0  0  0
  7 10  2  0  0  0  0
  7 21  1  0  0  0  0
  8 26  1  0  0  0  0
  9 26  2  0  0  0  0
 10 27  1  0  0  0  0
 11 12  2  0  0  0  0
 11 28  1  0  0  0  0
 12 29  1  0  0  0  0
 13 23  1  0  0  0  0
 13 27  2  0  0  0  0
 14 24  1  0  0  0  0
 14 25  2  0  0  0  0
 15 24  2  0  0  0  0
 15 30  1  0  0  0  0
 16 25  1  0  0  0  0
 16 30  2  0  0  0  0
 17 29  2  0  0  0  0
 17 31  1  0  0  0  0
 18 32  1  0  0  0  0
 19 32  1  0  0  0  0
 19 33  2  0  0  0  0
 19 34  1  0  0  0  0
 20 22  2  0  0  0  0
 20 39  1  0  0  0  0
 21 23  2  0  0  0  0
 21 40  1  0  0  0  0
 22 52  1  0  0  0  0
 23 41  1  0  0  0  0
 24 60  1  0  0  0  0
 25 61  1  0  0  0  0
 26 84  1  0  0  0  0
 27 85  1  0  0  0  0
 28 31  2  0  0  0  0
 28 84  1  0  0  0  0
 29 86  1  0  0  0  0
 30 87  1  0  0  0  0
 31 88  1  0  0  0  0
 32 67  2  0  0  0  0
 33 68  1  0  0  0  0
 33 72  1  0  0  0  0
 34 73  1  0  0  0  0
 34 79  2  0  0  0  0
 35 53  1  0  0  0  0
 35 74  1  0  0  0  0
 35 80  2  0  0  0  0
 36 64  1  0  0  0  0
 36 69  1  0  0  0  0
 36 81  2  0  0  0  0
 37 65  1  0  0  0  0
 37 75  1  0  0  0  0
 37 82  2  0  0  0  0
 38 70  1  0  0  0  0
 38 76  1  0  0  0  0
 38 83  2  0  0  0  0
 39 42  1  0  0  0  0
 40 53  1  0  0  0  0
 41 69  1  0  0  0  0
 42 44  1  0  0  0  0
 43 45  1  0  0  0  0
 43 46  1  0  0  0  0
 44 52  1  0  0  0  0
 45 54  1  0  0  0  0
 46 70  1  0  0  0  0
 47 50  1  0  0  0  0
 47 71  1  0  0  0  0
 48 51  1  0  0  0  0
 48 71  1  0  0  0  0
 49 54  1  0  0  0  0
 49 70  1  0  0  0  0
 50 77  1  0  0  0  0
 51 77  1  0  0  0  0
 52 74  1  0  0  0  0
 53 69  1  0  0  0  0
 54 68  1  0  0  0  0
 55 65  1  0  0  0  0
 56 66  1  0  0  0  0
 57 66  1  0  0  0  0
 58 66  1  0  0  0  0
 59 78  1  0  0  0  0
 60 76  1  0  0  0  0
 61 77  1  0  0  0  0
 62 63  1  0  0  0  0
 62 71  1  0  0  0  0
 63 85  1  0  0  0  0
 64 66  1  0  0  0  0
 64 75  1  0  0  0  0
 65 78  1  0  0  0  0
 67 68  1  0  0  0  0
M  CHG  2  77   1  78   1
M  ISO  4  38 100  63 101  76 100  85 101
M  END
> <Batch ID>
0009

> <Smiles>
CNC(C)C(=O)NC(C(=O)N1Cc2cc([101O:1][101CH2:1]CN3CCN(Cc4cc(F)cc(C[100NH:0][100C:0](=O)N5CCCC(n6nc(-c7ccc(Oc8ccc(F)cc8F)cc7)c(C(N)=O)c6N)C5)c4)CC3)ccc2CC1C(=O)NC1CCCc2ccccc21)C(C)(C)C

> <Shape>
0.249

> <Color>
0.079

> <Negative vol penalty>
0.000

$$$$

  -OEChem-04042320373D

 84 93  0     1  0  0  0  0  0999 V2000
  -26.5743  -37.1247   25.0759 C   0  0  0  0  0  0  0  0  0  0  0  0
  -27.5232  -36.2168   24.6169 C   0  0  0  0  0  0  0  0  0  0  0  0
  -22.7974  -10.2909   20.2395 C   0  0  0  0  0  0  0  0  0  0  0  0
  -24.5630   -9.2333   21.5049 C   0  0  0  0  0  0  0  0  0  0  0  0
  -25.4094  -36.6642   25.6881 C   0  0  0  0  0  0  0  0  0  0  0  0
  -27.3082  -34.8476   24.7710 C   0  0  0  0  0  0  0  0  0  0  0  0
  -27.2009  -29.1670   19.4095 C   0  0  0  0  0  0  0  0  0  0  0  0
  -25.7618  -19.6314   19.0667 C   0  0  0  0  0  0  0  0  0  0  0  0
  -26.0674  -18.2871   19.2787 C   0  0  0  0  0  0  0  0  0  0  0  0
  -21.8498   -9.7444   21.1048 C   0  0  0  0  0  0  0  0  0  0  0  0
  -23.6153   -8.6867   22.3703 C   0  0  0  0  0  0  0  0  0  0  0  0
  -27.0012  -28.0996   18.5339 C   0  0  0  0  0  0  0  0  0  0  0  0
  -21.4472   -6.0924   22.3732 C   0  0  0  0  0  0  0  0  0  0  0  0
  -21.5863   -4.7490   22.7215 C   0  0  0  0  0  0  0  0  0  0  0  0
  -25.5485  -27.0341   20.1471 C   0  0  0  0  0  0  0  0  0  0  0  0
  -28.3825  -18.8716   19.6475 C   0  0  0  0  0  0  0  0  0  0  0  0
  -21.7771   -5.3719   25.0481 C   0  0  0  0  0  0  0  0  0  0  0  0
  -24.1540  -10.0353   20.4395 C   0  0  0  0  0  0  0  0  0  0  0  0
  -25.2367  -10.3908   18.1571 C   0  0  0  0  0  0  0  0  0  0  0  0
  -25.1755  -35.2885   25.8411 C   0  0  0  0  0  0  0  0  0  0  0  0
  -26.5622  -29.1794   20.6526 C   0  0  0  0  0  0  0  0  0  0  0  0
  -26.1397  -34.3683   25.3871 C   0  0  0  0  0  0  0  0  0  0  0  0
  -25.7349  -28.1066   21.0233 C   0  0  0  0  0  0  0  0  0  0  0  0
  -26.7665  -20.5958   19.1449 C   0  0  0  0  0  0  0  0  0  0  0  0
  -27.3777  -17.9072   19.5692 C   0  0  0  0  0  0  0  0  0  0  0  0
  -22.2587   -8.9423   22.1702 C   0  0  0  0  0  0  0  0  0  0  0  0
  -26.1772  -27.0356   18.9019 C   0  0  0  0  0  0  0  0  0  0  0  0
  -21.4732   -7.0757   23.3623 C   0  0  0  0  0  0  0  0  0  0  0  0
  -21.7511   -4.3887   24.0589 C   0  0  0  0  0  0  0  0  0  0  0  0
  -28.0768  -20.2159   19.4354 C   0  0  0  0  0  0  0  0  0  0  0  0
  -21.6381   -6.7154   24.6997 C   0  0  0  0  0  0  0  0  0  0  0  0
  -25.1334  -10.5992   19.5456 C   0  0  0  0  0  0  0  0  0  0  0  0
  -26.3219  -11.1421   17.7771 C   0  0  0  0  0  0  0  0  0  0  0  0
  -24.4244   -9.5899   17.2886 C   0  0  0  0  0  0  0  0  0  0  0  0
  -25.9646  -31.0000   23.8782 C   0  0  0  0  0  0  0  0  0  0  0  0
  -23.2745  -29.8012   23.0200 C   0  0  0  0  0  0  0  0  0  0  0  0
  -20.4292  -28.6752   21.5121 C   0  0  0  0  0  0  0  0  0  0  0  0
  -28.9361  -15.9956   20.0826 C   0  0  0  0  0  0  0  0  0  0  0  0
  -23.9233  -34.8397   26.5517 C   0  0  0  0  0  0  0  0  0  0  0  0
  -26.7970  -30.2790   21.6524 C   0  0  0  0  0  0  0  0  0  0  0  0
  -25.0958  -28.1461   22.3846 C   0  0  0  0  0  0  0  0  0  0  0  0
  -23.5986  -33.3632   26.3397 C   0  0  0  0  0  0  0  0  0  0  0  0
  -30.4711  -12.8446   19.4564 C   0  0  0  0  0  0  0  0  0  0  0  0
  -24.8471  -32.5087   26.5347 C   0  0  0  0  0  0  0  0  0  0  0  0
  -29.2859  -11.8934   19.2758 C   0  0  0  0  0  0  0  0  0  0  0  0
  -25.5230  -23.7126   17.4904 C   0  0  0  0  0  0  0  0  0  0  0  0
  -26.9135  -24.3034   19.4814 C   0  0  0  0  0  0  0  0  0  0  0  0
  -30.1941  -13.8991   20.5264 C   0  0  0  0  0  0  0  0  0  0  0  0
  -25.3550  -22.2932   18.0257 C   0  0  0  0  0  0  0  0  0  0  0  0
  -26.7431  -22.8868   20.0212 C   0  0  0  0  0  0  0  0  0  0  0  0
  -27.7652  -13.7068   20.1624 C   0  0  0  0  0  0  0  0  0  0  0  0
  -25.9311  -32.8748   25.5137 C   0  0  1  0  0  0  0  0  0  0  0  0
  -25.5488  -30.6094   22.4904 C   0  0  1  0  0  0  0  0  0  0  0  0
  -27.9721  -12.6668   19.0492 C   0  0  2  0  0  0  0  0  0  0  0  0
  -25.7325  -24.7209   18.6128 C   0  0  0  0  0  0  0  0  0  1  0  0
  -17.9463  -28.5323   21.8475 C   0  0  0  0  0  0  0  0  0  0  0  0
  -23.6780  -27.5255   25.0106 C   0  0  0  0  0  0  0  0  0  0  0  0
  -21.3145  -26.8223   24.5775 C   0  0  0  0  0  0  0  0  0  0  0  0
  -21.7864  -29.0672   25.5575 C   0  0  0  0  0  0  0  0  0  0  0  0
  -19.8925  -30.2948   19.0939 C   0  0  0  0  0  0  0  0  0  0  0  0
  -22.3161  -28.6416   23.1223 C   0  0  1  0  0  0  0  0  0  0  0  0
  -19.0901  -29.3443   21.2599 C   0  0  2  0  0  0  0  0  0  0  0  0
  -22.2924  -28.0162   24.5456 C   0  0  0  0  0  0  0  0  0  0  0  0
  -26.0777  -11.4184   20.0157 N   0  0  0  0  0  0  0  0  0  0  0  0
  -26.7848  -11.7315   18.9166 N   0  0  0  0  0  0  0  0  0  0  0  0
  -26.4568  -21.9449   18.9299 N   0  0  0  0  0  0  0  0  0  0  0  0
  -24.5953  -29.5008   22.6654 N   0  0  0  0  0  0  0  0  0  0  0  0
  -28.9363  -14.5939   20.2438 N   0  0  0  0  0  0  0  0  0  0  0  0
  -26.9159  -11.3494   16.5826 N   0  0  0  0  0  0  0  0  0  0  0  0
  -23.3492   -8.8826   17.8436 N   0  0  0  0  0  0  0  0  0  0  0  0
  -27.6879  -16.5415   19.7847 N   0  0  0  0  0  0  0  0  0  0  0  0
  -25.6265  -32.2947   24.2233 N   0  0  0  0  0  0  0  0  0  0  0  0
  -21.0227  -29.1396   22.6668 N   0  0  0  0  0  0  0  0  0  0  0  0
  -18.8548  -29.4968   19.7962 N   0  3  0  0  0  0  0  0  0  0  0  0
  -24.6553   -9.4910   16.0597 O   0  0  0  0  0  0  0  0  0  0  0  0
  -26.5479  -30.1870   24.5855 O   0  0  0  0  0  0  0  0  0  0  0  0
  -22.8671  -30.9427   23.2532 O   0  0  0  0  0  0  0  0  0  0  0  0
  -20.8997  -27.8229   20.7620 O   0  0  0  0  0  0  0  0  0  0  0  0
  -29.9720  -16.6593   20.1731 O   0  0  0  0  0  0  0  0  0  0  0  0
  -21.3343   -8.4090   23.0150 O   0  0  0  0  0  0  0  0  0  0  0  0
  -25.9830  -25.9989   18.0404 O   0  0  0  0  0  0  0  0  0  1  0  0
  -21.8831   -3.0984   24.3934 F   0  0  0  0  0  0  0  0  0  0  0  0
  -29.0502  -21.1347   19.5115 F   0  0  0  0  0  0  0  0  0  0  0  0
  -21.6626   -7.6554   25.6545 F   0  0  0  0  0  0  0  0  0  0  0  0
  1  2  1  0  0  0  0
  1  5  2  0  0  0  0
  2  6  2  0  0  0  0
  3 10  2  0  0  0  0
  3 18  1  0  0  0  0
  4 11  1  0  0  0  0
  4 18  2  0  0  0  0
  5 20  1  0  0  0  0
  6 22  1  0  0  0  0
  7 12  2  0  0  0  0
  7 21  1  0  0  0  0
  8  9  2  0  0  0  0
  8 24  1  0  0  0  0
  9 25  1  0  0  0  0
 10 26  1  0  0  0  0
 11 26  2  0  0  0  0
 12 27  1  0  0  0  0
 13 14  2  0  0  0  0
 13 28  1  0  0  0  0
 14 29  1  0  0  0  0
 15 23  1  0  0  0  0
 15 27  2  0  0  0  0
 16 25  2  0  0  0  0
 16 30  1  0  0  0  0
 17 29  2  0  0  0  0
 17 31  1  0  0  0  0
 18 32  1  0  0  0  0
 19 32  1  0  0  0  0
 19 33  2  0  0  0  0
 19 34  1  0  0  0  0
 20 22  2  0  0  0  0
 20 39  1  0  0  0  0
 21 23  2  0  0  0  0
 21 40  1  0  0  0  0
 22 52  1  0  0  0  0
 23 41  1  0  0  0  0
 24 30  2  0  0  0  0
 24 66  1  0  0  0  0
 25 71  1  0  0  0  0
 26 80  1  0  0  0  0
 27 81  1  0  0  0  0
 28 31  2  0  0  0  0
 28 80  1  0  0  0  0
 29 82  1  0  0  0  0
 30 83  1  0  0  0  0
 31 84  1  0  0  0  0
 32 64  2  0  0  0  0
 33 65  1  0  0  0  0
 33 69  1  0  0  0  0
 34 70  1  0  0  0  0
 34 75  2  0  0  0  0
 35 53  1  0  0  0  0
 35 72  1  0  0  0  0
 35 76  2  0  0  0  0
 36 61  1  0  0  0  0
 36 67  1  0  0  0  0
 36 77  2  0  0  0  0
 37 62  1  0  0  0  0
 37 73  1  0  0  0  0
 37 78  2  0  0  0  0
 38 68  1  0  0  0  0
 38 71  1  0  0  0  0
 38 79  2  0  0  0  0
 39 42  1  0  0  0  0
 40 53  1  0  0  0  0
 41 67  1  0  0  0  0
 42 44  1  0  0  0  0
 43 45  1  0  0  0  0
 43 48  1  0  0  0  0
 44 52  1  0  0  0  0
 45 54  1  0  0  0  0
 46 49  1  0  0  0  0
 46 55  1  0  0  0  0
 47 50  1  0  0  0  0
 47 55  1  0  0  0  0
 48 68  1  0  0  0  0
 49 66  1  0  0  0  0
 50 66  1  0  0  0  0
 51 54  1  0  0  0  0
 51 68  1  0  0  0  0
 52 72  1  0  0  0  0
 53 67  1  0  0  0  0
 54 65  1  0  0  0  0
 55 81  1  0  0  0  0
 56 62  1  0  0  0  0
 57 63  1  0  0  0  0
 58 63  1  0  0  0  0
 59 63  1  0  0  0  0
 60 74  1  0  0  0  0
 61 63  1  0  0  0  0
 61 73  1  0  0  0  0
 62 74  1  0  0  0  0
 64 65  1  0  0  0  0
M  CHG  1  74   1
M  ISO  4  38 100  55 101  71 100  81 101
M  END
> <Batch ID>
0009

> <Smiles>
CNC(C)C(=O)NC(C(=O)N1Cc2cc([101O:1][101CH:1]3CCN(c4ccc([100NH:0][100C:0](=O)N5CCCC(n6nc(-c7ccc(Oc8ccc(F)cc8F)cc7)c(C(N)=O)c6N)C5)cc4F)CC3)ccc2CC1C(=O)NC1CCCc2ccccc21)C(C)(C)C

> <Shape>
0.316

> <Color>
0.105

> <Negative vol penalty>
0.000

$$$$

  -OEChem-04042320373D

 79 87  0     1  0  0  0  0  0999 V2000
  -29.4295  -29.4094   22.7153 C   0  0  0  0  0  0  0  0  0  0  0  0
  -29.7578  -28.3316   23.5314 C   0  0  0  0  0  0  0  0  0  0  0  0
  -23.3458   -9.8317   19.8456 C   0  0  0  0  0  0  0  0  0  0  0  0
  -23.5805   -9.9578   22.2469 C   0  0  0  0  0  0  0  0  0  0  0  0
  -28.6062  -29.2173   21.6066 C   0  0  0  0  0  0  0  0  0  0  0  0
  -29.2622  -27.0613   23.2399 C   0  0  0  0  0  0  0  0  0  0  0  0
  -32.1062  -21.7090   24.1174 C   0  0  0  0  0  0  0  0  0  0  0  0
  -32.3155  -15.5403   24.5624 C   0  0  0  0  0  0  0  0  0  0  0  0
  -22.6224   -8.6465   19.9785 C   0  0  0  0  0  0  0  0  0  0  0  0
  -22.8570   -8.7726   22.3798 C   0  0  0  0  0  0  0  0  0  0  0  0
  -32.0196  -20.7560   25.1314 C   0  0  0  0  0  0  0  0  0  0  0  0
  -32.2674  -16.8842   24.9329 C   0  0  0  0  0  0  0  0  0  0  0  0
  -23.4255   -5.4563   22.0485 C   0  0  0  0  0  0  0  0  0  0  0  0
  -23.9171   -4.4923   22.9286 C   0  0  0  0  0  0  0  0  0  0  0  0
  -30.4477  -19.4959   23.8045 C   0  0  0  0  0  0  0  0  0  0  0  0
  -30.1247  -15.1975   25.5214 C   0  0  0  0  0  0  0  0  0  0  0  0
  -21.8750   -4.6239   24.2132 C   0  0  0  0  0  0  0  0  0  0  0  0
  -23.8249  -10.4873   20.9798 C   0  0  0  0  0  0  0  0  0  0  0  0
  -24.0610  -13.0226   20.8244 C   0  0  0  0  0  0  0  0  0  0  0  0
  -28.1080  -27.9423   21.2958 C   0  0  0  0  0  0  0  0  0  0  0  0
  -31.3546  -21.5680   22.9420 C   0  0  0  0  0  0  0  0  0  0  0  0
  -28.4303  -26.8523   22.1267 C   0  0  0  0  0  0  0  0  0  0  0  0
  -30.5285  -20.4472   22.7761 C   0  0  0  0  0  0  0  0  0  0  0  0
  -31.2441  -14.6970   24.8567 C   0  0  0  0  0  0  0  0  0  0  0  0
  -22.3780   -8.1170   21.2456 C   0  0  0  0  0  0  0  0  0  0  0  0
  -31.1881  -19.6507   24.9762 C   0  0  0  0  0  0  0  0  0  0  0  0
  -31.1479  -17.3848   25.5977 C   0  0  0  0  0  0  0  0  0  1  0  0
  -22.1588   -6.0042   22.2508 C   0  0  0  0  0  0  0  0  0  0  0  0
  -23.1418   -4.0760   24.0109 C   0  0  0  0  0  0  0  0  0  0  0  0
  -30.0765  -16.5414   25.8919 C   0  0  0  0  0  0  0  0  0  0  0  0
  -21.3835   -5.5880   23.3330 C   0  0  0  0  0  0  0  0  0  0  0  0
  -24.5727  -11.7113   20.8431 C   0  0  0  0  0  0  0  0  0  0  0  0
  -25.1684  -13.8213   20.6751 C   0  0  0  0  0  0  0  0  0  0  0  0
  -22.7058  -13.4781   20.9325 C   0  0  0  0  0  0  0  0  0  0  0  0
  -29.0716  -23.2639   21.5223 C   0  0  0  0  0  0  0  0  0  0  0  0
  -29.4564  -21.0756   19.1589 C   0  0  0  0  0  0  0  0  0  0  0  0
  -30.4643  -17.9461   18.2442 C   0  0  0  0  0  0  0  0  0  0  0  0
  -30.9550  -13.0596   22.0112 C   0  0  0  0  0  0  0  0  0  0  0  0
  -27.1832  -27.7925   20.1139 C   0  0  0  0  0  0  0  0  0  0  0  0
  -31.4796  -22.5911   21.8465 C   0  0  0  0  0  0  0  0  0  0  0  0
  -29.7164  -20.2389   21.5248 C   0  0  0  0  0  0  0  0  0  0  0  0
  -27.0041  -26.3460   19.6601 C   0  0  0  0  0  0  0  0  0  0  0  0
  -29.5758  -13.8015   18.8137 C   0  0  0  0  0  0  0  0  0  0  0  0
  -26.7452  -25.4387   20.8587 C   0  0  0  0  0  0  0  0  0  0  0  0
  -28.0910  -13.4683   18.9696 C   0  0  0  0  0  0  0  0  0  0  0  0
  -30.4573  -12.8300   19.5954 C   0  0  0  0  0  0  0  0  0  0  0  0
  -28.6283  -12.3596   21.1788 C   0  0  0  0  0  0  0  0  0  0  0  0
  -27.9324  -25.4545   21.8292 C   0  0  1  0  0  0  0  0  0  0  0  0
  -30.2773  -22.6110   20.9076 C   0  0  1  0  0  0  0  0  0  0  0  0
  -27.6966  -13.3457   20.4537 C   0  0  2  0  0  0  0  0  0  0  0  0
  -30.6214  -16.4315   16.2495 C   0  0  0  0  0  0  0  0  0  0  0  0
  -26.4515  -20.5681   19.3108 C   0  0  0  0  0  0  0  0  0  0  0  0
  -26.8153  -18.4480   18.0297 C   0  0  0  0  0  0  0  0  0  0  0  0
  -27.3807  -20.6440   16.9901 C   0  0  0  0  0  0  0  0  0  0  0  0
  -33.4090  -17.7578   18.4735 C   0  0  0  0  0  0  0  0  0  0  0  0
  -31.2957  -13.2601   24.4613 C   0  0  0  0  0  0  0  0  0  0  0  0
  -28.8478  -19.7323   18.8363 C   0  0  1  0  0  0  0  0  0  0  0  0
  -31.3416  -17.4637   17.1030 C   0  0  2  0  0  0  0  0  0  0  0  0
  -27.3875  -19.8527   18.3162 C   0  0  0  0  0  0  0  0  0  0  0  0
  -25.9018  -11.6746   20.7157 N   0  0  0  0  0  0  0  0  0  0  0  0
  -26.2345  -12.9728   20.6154 N   0  0  0  0  0  0  0  0  0  0  0  0
  -29.8679  -21.2701   20.4850 N   0  0  0  0  0  0  0  0  0  0  0  0
  -30.0318  -12.7612   20.9955 N   0  0  0  0  0  0  0  0  0  0  0  0
  -25.3244  -15.1595   20.5903 N   0  0  0  0  0  0  0  0  0  0  0  0
  -21.6901  -12.5238   21.0811 N   0  0  0  0  0  0  0  0  0  0  0  0
  -29.0092  -24.6300   21.3240 N   0  0  0  0  0  0  0  0  0  0  0  0
  -29.7626  -19.0831   17.9036 N   0  0  0  0  0  0  0  0  0  0  0  0
  -30.4682  -12.9764   23.3100 N   0  0  0  0  0  0  0  0  0  0  0  0
  -32.5895  -16.8461   17.6344 N   0  3  0  0  0  0  0  0  0  0  0  0
  -22.4028  -14.6943   20.8818 O   0  0  0  0  0  0  0  0  0  0  0  0
  -28.2575  -22.5788   22.1301 O   0  0  0  0  0  0  0  0  0  0  0  0
  -29.5692  -21.9186   18.2655 O   0  0  0  0  0  0  0  0  0  0  0  0
  -30.4045  -17.3696   19.3280 O   0  0  0  0  0  0  0  0  0  0  0  0
  -32.1250  -13.3817   21.7777 O   0  0  0  0  0  0  0  0  0  0  0  0
  -21.6719   -6.9607   21.3757 O   0  0  0  0  0  0  0  0  0  0  0  0
  -31.1012  -18.7194   25.9646 O   0  0  0  0  0  0  0  0  0  1  0  0
  -23.6133   -3.1491   24.8551 F   0  0  0  0  0  0  0  0  0  0  0  0
  -28.9980  -17.0163   26.5300 F   0  0  0  0  0  0  0  0  0  0  0  0
  -20.1654   -6.1098   23.5318 F   0  0  0  0  0  0  0  0  0  0  0  0
  1  2  1  0  0  0  0
  1  5  2  0  0  0  0
  2  6  2  0  0  0  0
  3  9  2  0  0  0  0
  3 18  1  0  0  0  0
  4 10  1  0  0  0  0
  4 18  2  0  0  0  0
  5 20  1  0  0  0  0
  6 22  1  0  0  0  0
  7 11  2  0  0  0  0
  7 21  1  0  0  0  0
  8 12  2  0  0  0  0
  8 24  1  0  0  0  0
  9 25  1  0  0  0  0
 10 25  2  0  0  0  0
 11 26  1  0  0  0  0
 12 27  1  0  0  0  0
 13 14  2  0  0  0  0
 13 28  1  0  0  0  0
 14 29  1  0  0  0  0
 15 23  1  0  0  0  0
 15 26  2  0  0  0  0
 16 24  2  0  0  0  0
 16 30  1  0  0  0  0
 17 29  2  0  0  0  0
 17 31  1  0  0  0  0
 18 32  1  0  0  0  0
 19 32  1  0  0  0  0
 19 33  2  0  0  0  0
 19 34  1  0  0  0  0
 20 22  2  0  0  0  0
 20 39  1  0  0  0  0
 21 23  2  0  0  0  0
 21 40  1  0  0  0  0
 22 48  1  0  0  0  0
 23 41  1  0  0  0  0
 24 56  1  0  0  0  0
 25 75  1  0  0  0  0
 26 76  1  0  0  0  0
 27 30  2  0  0  0  0
 27 76  1  0  0  0  0
 28 31  2  0  0  0  0
 28 75  1  0  0  0  0
 29 77  1  0  0  0  0
 30 78  1  0  0  0  0
 31 79  1  0  0  0  0
 32 60  2  0  0  0  0
 33 61  1  0  0  0  0
 33 64  1  0  0  0  0
 34 65  1  0  0  0  0
 34 70  2  0  0  0  0
 35 49  1  0  0  0  0
 35 66  1  0  0  0  0
 35 71  2  0  0  0  0
 36 57  1  0  0  0  0
 36 62  1  0  0  0  0
 36 72  2  0  0  0  0
 37 58  1  0  0  0  0
 37 67  1  0  0  0  0
 37 73  2  0  0  0  0
 38 63  1  0  0  0  0
 38 68  1  0  0  0  0
 38 74  2  0  0  0  0
 39 42  1  0  0  0  0
 40 49  1  0  0  0  0
 41 62  1  0  0  0  0
 42 44  1  0  0  0  0
 43 45  1  0  0  0  0
 43 46  1  0  0  0  0
 44 48  1  0  0  0  0
 45 50  1  0  0  0  0
 46 63  1  0  0  0  0
 47 50  1  0  0  0  0
 47 63  1  0  0  0  0
 48 66  1  0  0  0  0
 49 62  1  0  0  0  0
 50 61  1  0  0  0  0
 51 58  1  0  0  0  0
 52 59  1  0  0  0  0
 53 59  1  0  0  0  0
 54 59  1  0  0  0  0
 55 69  1  0  0  0  0
 56 68  1  0  0  0  0
 57 59  1  0  0  0  0
 57 67  1  0  0  0  0
 58 69  1  0  0  0  0
 60 61  1  0  0  0  0
M  CHG  1  69   1
M  ISO  4  27 101  38 100  68 100  76 101
M  END
> <Batch ID>
0009

> <Smiles>
CNC(C)C(=O)NC(C(=O)N1Cc2cc([101O:1][101c:1]3ccc(C[100NH:0][100C:0](=O)N4CCCC(n5nc(-c6ccc(Oc7ccc(F)cc7F)cc6)c(C(N)=O)c5N)C4)cc3F)ccc2CC1C(=O)NC1CCCc2ccccc21)C(C)(C)C

> <Shape>
0.229

> <Color>
0.199

> <Negative vol penalty>
0.000

$$$$

  -OEChem-04042320373D

 81 89  0     1  0  0  0  0  0999 V2000
  -28.6561  -32.5991   25.5568 C   0  0  0  0  0  0  0  0  0  0  0  0
  -28.8112  -31.2640   25.1979 C   0  0  0  0  0  0  0  0  0  0  0  0
  -23.9419  -10.0095   22.3373 C   0  0  0  0  0  0  0  0  0  0  0  0
  -24.5902  -11.6421   23.9960 C   0  0  0  0  0  0  0  0  0  0  0  0
  -27.4059  -33.2073   25.4517 C   0  0  0  0  0  0  0  0  0  0  0  0
  -27.7158  -30.5359   24.7348 C   0  0  0  0  0  0  0  0  0  0  0  0
  -28.8204  -27.7502   20.6525 C   0  0  0  0  0  0  0  0  0  0  0  0
  -30.7419  -18.6706   18.9070 C   0  0  0  0  0  0  0  0  0  0  0  0
  -23.5187   -9.1487   23.3499 C   0  0  0  0  0  0  0  0  0  0  0  0
  -24.1670  -10.7813   25.0087 C   0  0  0  0  0  0  0  0  0  0  0  0
  -29.5139  -26.5592   20.8631 C   0  0  0  0  0  0  0  0  0  0  0  0
  -31.0436  -20.0307   18.9742 C   0  0  0  0  0  0  0  0  0  0  0  0
  -24.9321   -7.0100   25.5528 C   0  0  0  0  0  0  0  0  0  0  0  0
  -25.3008   -5.6682   25.4579 C   0  0  0  0  0  0  0  0  0  0  0  0
  -27.4456  -25.3304   20.6849 C   0  0  0  0  0  0  0  0  0  0  0  0
  -28.3919  -19.1803   19.1417 C   0  0  0  0  0  0  0  0  0  0  0  0
  -22.9708   -5.0306   25.4181 C   0  0  0  0  0  0  0  0  0  0  0  0
  -24.4777  -11.2563   22.6603 C   0  0  0  0  0  0  0  0  0  0  0  0
  -24.1480  -13.1230   20.9532 C   0  0  0  0  0  0  0  0  0  0  0  0
  -26.2968  -32.4890   24.9779 C   0  0  0  0  0  0  0  0  0  0  0  0
  -27.4305  -27.7413   20.4671 C   0  0  0  0  0  0  0  0  0  0  0  0
  -26.4493  -31.1347   24.6245 C   0  0  0  0  0  0  0  0  0  0  0  0
  -26.7372  -26.5225   20.4696 C   0  0  0  0  0  0  0  0  0  0  0  0
  -28.6937  -20.5405   19.2089 C   0  0  0  0  0  0  0  0  0  0  0  0
  -29.4160  -18.2453   18.9908 C   0  0  0  0  0  0  0  0  0  0  0  0
  -23.6312   -9.5346   24.6856 C   0  0  0  0  0  0  0  0  0  0  0  0
  -28.8261  -25.3493   20.8821 C   0  0  0  0  0  0  0  0  0  0  0  0
  -30.0196  -20.9657   19.1251 C   0  0  0  0  0  0  0  0  0  0  0  0
  -23.5826   -7.3622   25.5805 C   0  0  0  0  0  0  0  0  0  0  0  0
  -24.3202   -4.6785   25.3905 C   0  0  0  0  0  0  0  0  0  0  0  0
  -22.6020   -6.3725   25.5131 C   0  0  0  0  0  0  0  0  0  0  0  0
  -24.9156  -12.1457   21.6147 C   0  0  0  0  0  0  0  0  0  0  0  0
  -25.0172  -13.6920   20.0547 C   0  0  0  0  0  0  0  0  0  0  0  0
  -22.7725  -13.4842   21.1347 C   0  0  0  0  0  0  0  0  0  0  0  0
  -24.9512  -28.9735   22.0288 C   0  0  0  0  0  0  0  0  0  0  0  0
  -23.2851  -27.8427   19.4856 C   0  0  0  0  0  0  0  0  0  0  0  0
  -23.0984  -25.6245   16.8988 C   0  0  0  0  0  0  0  0  0  0  0  0
  -30.0066  -15.8060   18.7740 C   0  0  0  0  0  0  0  0  0  0  0  0
  -24.9551  -33.1760   24.9264 C   0  0  0  0  0  0  0  0  0  0  0  0
  -26.7008  -29.0321   20.2146 C   0  0  0  0  0  0  0  0  0  0  0  0
  -25.2478  -26.4568   20.2554 C   0  0  0  0  0  0  0  0  0  0  0  0
  -23.9263  -32.4399   24.0721 C   0  0  0  0  0  0  0  0  0  0  0  0
  -29.6516  -12.2675   18.6003 C   0  0  0  0  0  0  0  0  0  0  0  0
  -23.9271  -30.9503   24.4006 C   0  0  0  0  0  0  0  0  0  0  0  0
  -28.3247  -12.0007   19.3146 C   0  0  0  0  0  0  0  0  0  0  0  0
  -30.4306  -13.4056   19.2572 C   0  0  0  0  0  0  0  0  0  0  0  0
  -28.3518  -14.3889   20.1412 C   0  0  0  0  0  0  0  0  0  0  0  0
  -25.2904  -30.3186   24.0943 C   0  0  1  0  0  0  0  0  0  0  0  0
  -25.2146  -28.9538   20.5496 C   0  0  1  0  0  0  0  0  0  0  0  0
  -27.5018  -13.2939   19.4763 C   0  0  2  0  0  0  0  0  0  0  0  0
  -27.5850  -21.5275   19.3706 C   0  0  0  0  0  0  0  0  0  0  0  0
  -21.5985  -24.9159   15.0159 C   0  0  0  0  0  0  0  0  0  0  0  0
  -21.4815  -26.3899   21.4722 C   0  0  0  0  0  0  0  0  0  0  0  0
  -20.6416  -24.9864   19.5767 C   0  0  0  0  0  0  0  0  0  0  0  0
  -20.2780  -27.4542   19.5556 C   0  0  0  0  0  0  0  0  0  0  0  0
  -25.1325  -26.3173   14.8638 C   0  0  0  0  0  0  0  0  0  0  0  0
  -30.8539  -24.1307   20.6389 C   0  0  0  0  0  0  0  0  0  1  0  0
  -31.1894  -22.7038   20.2505 C   0  0  0  0  0  0  0  0  0  0  0  0
  -22.6000  -26.5400   19.1501 C   0  0  1  0  0  0  0  0  0  0  0  0
  -22.7531  -25.8135   15.4327 C   0  0  2  0  0  0  0  0  0  0  0  0
  -21.2781  -26.3437   19.9446 C   0  0  0  0  0  0  0  0  0  0  0  0
  -26.1754  -12.0940   21.1740 N   0  0  0  0  0  0  0  0  0  0  0  0
  -26.2061  -13.0458   20.2258 N   0  0  0  0  0  0  0  0  0  0  0  0
  -24.5783  -27.7465   20.0187 N   0  0  0  0  0  0  0  0  0  0  0  0
  -29.5892  -14.5987   19.3732 N   0  0  0  0  0  0  0  0  0  0  0  0
  -24.8728  -14.6769   19.1428 N   0  0  0  0  0  0  0  0  0  0  0  0
  -22.0236  -12.7988   22.1009 N   0  0  0  0  0  0  0  0  0  0  0  0
  -29.1099  -16.8635   18.9224 N   0  0  0  0  0  0  0  0  0  0  0  0
  -25.4363  -30.0963   22.6717 N   0  0  0  0  0  0  0  0  0  0  0  0
  -22.4335  -26.5279   17.7007 N   0  0  0  0  0  0  0  0  0  0  0  0
  -23.9307  -25.4922   14.5777 N   0  3  0  0  0  0  0  0  0  0  0  0
  -22.2192  -14.3768   20.4486 O   0  0  0  0  0  0  0  0  0  0  0  0
  -24.3510  -28.0398   22.5481 O   0  0  0  0  0  0  0  0  0  0  0  0
  -22.6973  -28.9066   19.2757 O   0  0  0  0  0  0  0  0  0  0  0  0
  -23.8770  -24.7593   17.2936 O   0  0  0  0  0  0  0  0  0  0  0  0
  -31.0677  -15.8878   18.1501 O   0  0  0  0  0  0  0  0  0  0  0  0
  -23.2181   -8.6949   25.6740 O   0  0  0  0  0  0  0  0  0  0  0  0
  -29.5005  -24.1854   21.0881 O   0  0  0  0  0  0  0  0  0  1  0  0
  -30.3337  -22.2977   19.1892 O   0  0  0  0  0  0  0  0  0  0  0  0
  -24.6745   -3.3901   25.2978 F   0  0  0  0  0  0  0  0  0  0  0  0
  -21.3040   -6.7048   25.5381 F   0  0  0  0  0  0  0  0  0  0  0  0
  1  2  1  0  0  0  0
  1  5  2  0  0  0  0
  2  6  2  0  0  0  0
  3  9  2  0  0  0  0
  3 18  1  0  0  0  0
  4 10  1  0  0  0  0
  4 18  2  0  0  0  0
  5 20  1  0  0  0  0
  6 22  1  0  0  0  0
  7 11  2  0  0  0  0
  7 21  1  0  0  0  0
  8 12  2  0  0  0  0
  8 25  1  0  0  0  0
  9 26  1  0  0  0  0
 10 26  2  0  0  0  0
 11 27  1  0  0  0  0
 12 28  1  0  0  0  0
 13 14  2  0  0  0  0
 13 29  1  0  0  0  0
 14 30  1  0  0  0  0
 15 23  1  0  0  0  0
 15 27  2  0  0  0  0
 16 24  1  0  0  0  0
 16 25  2  0  0  0  0
 17 30  2  0  0  0  0
 17 31  1  0  0  0  0
 18 32  1  0  0  0  0
 19 32  1  0  0  0  0
 19 33  2  0  0  0  0
 19 34  1  0  0  0  0
 20 22  2  0  0  0  0
 20 39  1  0  0  0  0
 21 23  2  0  0  0  0
 21 40  1  0  0  0  0
 22 48  1  0  0  0  0
 23 41  1  0  0  0  0
 24 28  2  0  0  0  0
 24 51  1  0  0  0  0
 25 68  1  0  0  0  0
 26 77  1  0  0  0  0
 27 78  1  0  0  0  0
 28 79  1  0  0  0  0
 29 31  2  0  0  0  0
 29 77  1  0  0  0  0
 30 80  1  0  0  0  0
 31 81  1  0  0  0  0
 32 62  2  0  0  0  0
 33 63  1  0  0  0  0
 33 66  1  0  0  0  0
 34 67  1  0  0  0  0
 34 72  2  0  0  0  0
 35 49  1  0  0  0  0
 35 69  1  0  0  0  0
 35 73  2  0  0  0  0
 36 59  1  0  0  0  0
 36 64  1  0  0  0  0
 36 74  2  0  0  0  0
 37 60  1  0  0  0  0
 37 70  1  0  0  0  0
 37 75  2  0  0  0  0
 38 65  1  0  0  0  0
 38 68  1  0  0  0  0
 38 76  2  0  0  0  0
 39 42  1  0  0  0  0
 40 49  1  0  0  0  0
 41 64  1  0  0  0  0
 42 44  1  0  0  0  0
 43 45  1  0  0  0  0
 43 46  1  0  0  0  0
 44 48  1  0  0  0  0
 45 50  1  0  0  0  0
 46 65  1  0  0  0  0
 47 50  1  0  0  0  0
 47 65  1  0  0  0  0
 48 69  1  0  0  0  0
 49 64  1  0  0  0  0
 50 63  1  0  0  0  0
 52 60  1  0  0  0  0
 53 61  1  0  0  0  0
 54 61  1  0  0  0  0
 55 61  1  0  0  0  0
 56 71  1  0  0  0  0
 57 58  1  0  0  0  0
 57 78  1  0  0  0  0
 58 79  1  0  0  0  0
 59 61  1  0  0  0  0
 59 70  1  0  0  0  0
 60 71  1  0  0  0  0
 62 63  1  0  0  0  0
M  CHG  1  71   1
M  ISO  4  38 100  57 101  68 100  78 101
M  END
> <Batch ID>
0009

> <Smiles>
CNC(C)C(=O)NC(C(=O)N1Cc2cc([101O:1][101CH2:1]COc3ccc([100NH:0][100C:0](=O)N4CCCC(n5nc(-c6ccc(Oc7ccc(F)cc7F)cc6)c(C(N)=O)c5N)C4)cc3C)ccc2CC1C(=O)NC1CCCc2ccccc21)C(C)(C)C

> <Shape>
0.282

> <Color>
0.106

> <Negative vol penalty>
0.000

$$$$

  -OEChem-04042320373D

 89 99  0     1  0  0  0  0  0999 V2000
  -26.9140  -30.9241   24.6900 C   0  0  0  0  0  0  0  0  0  0  0  0
  -25.9358  -31.9159   24.6194 C   0  0  0  0  0  0  0  0  0  0  0  0
  -26.7620  -29.7416   23.9657 C   0  0  0  0  0  0  0  0  0  0  0  0
  -28.7216  -13.2454   18.4054 C   0  0  0  0  0  0  0  0  0  0  0  0
  -28.1344  -14.4961   18.2428 C   0  0  0  0  0  0  0  0  0  0  0  0
  -28.7791  -23.7504   21.3438 C   0  0  0  0  0  0  0  0  0  0  0  0
  -29.9750  -23.8866   19.2490 C   0  0  0  0  0  0  0  0  0  0  0  0
  -24.8054  -31.7253   23.8246 C   0  0  0  0  0  0  0  0  0  0  0  0
  -25.6316  -29.5511   23.1709 C   0  0  0  0  0  0  0  0  0  0  0  0
  -28.0520  -12.2491   19.1144 C   0  0  0  0  0  0  0  0  0  0  0  0
  -26.8767  -14.7508   18.7884 C   0  0  0  0  0  0  0  0  0  0  0  0
  -24.8810  -20.0489   21.1236 C   0  0  0  0  0  0  0  0  0  0  0  0
  -22.7954  -26.4961   19.1772 C   0  0  0  0  0  0  0  0  0  0  0  0
  -23.2656  -27.7849   19.4201 C   0  0  0  0  0  0  0  0  0  0  0  0
  -28.7942  -22.3581   21.2619 C   0  0  0  0  0  0  0  0  0  0  0  0
  -29.9901  -22.4943   19.1671 C   0  0  0  0  0  0  0  0  0  0  0  0
  -24.0961  -21.0716   20.5926 C   0  0  0  0  0  0  0  0  0  0  0  0
  -27.8484  -20.0262   18.2997 C   0  0  0  0  0  0  0  0  0  0  0  0
  -27.5272  -19.4457   17.0727 C   0  0  0  0  0  0  0  0  0  0  0  0
  -22.1419  -20.0942   21.6149 C   0  0  0  0  0  0  0  0  0  0  0  0
  -22.1413  -26.3207   21.4847 C   0  0  0  0  0  0  0  0  0  0  0  0
  -29.7050  -18.4022   16.9964 C   0  0  0  0  0  0  0  0  0  0  0  0
  -29.3694  -24.5147   20.3373 C   0  0  0  0  0  0  0  0  0  0  0  0
  -30.3191  -26.7801   21.0257 C   0  0  0  0  0  0  0  0  0  0  0  0
  -24.6533  -30.5429   23.1004 C   0  0  0  0  0  0  0  0  0  0  0  0
  -26.7896  -12.4947   19.6773 C   0  0  0  0  0  0  0  0  0  0  0  0
  -24.2996  -19.0336   21.8965 C   0  0  0  0  0  0  0  0  0  0  0  0
  -26.1890  -13.7564   19.5046 C   0  0  0  0  0  0  0  0  0  0  0  0
  -22.9220  -19.0613   22.1567 C   0  0  0  0  0  0  0  0  0  0  0  0
  -22.2486  -25.7571   20.2135 C   0  0  0  0  0  0  0  0  0  0  0  0
  -23.2104  -28.3522   20.7082 C   0  0  0  0  0  0  0  0  0  0  0  0
  -22.5837  -27.6322   21.7559 C   0  0  0  0  0  0  0  0  0  0  0  0
  -29.3997  -21.7300   20.1736 C   0  0  0  0  0  0  0  0  0  0  0  0
  -22.7259  -21.0927   20.8358 C   0  0  0  0  0  0  0  0  0  0  0  0
  -29.0979  -19.7949   18.8750 C   0  0  0  0  0  0  0  0  0  0  0  0
  -28.4555  -18.6336   16.4211 C   0  0  0  0  0  0  0  0  0  0  0  0
  -30.0261  -18.9829   18.2234 C   0  0  0  0  0  0  0  0  0  0  0  0
  -29.3536  -25.9531   20.4210 C   0  0  0  0  0  0  0  0  0  0  0  0
  -29.8454  -28.0554   20.8373 C   0  0  0  0  0  0  0  0  0  0  0  0
  -31.5355  -26.4270   21.6977 C   0  0  0  0  0  0  0  0  0  0  0  0
  -24.0225  -15.8796   21.6144 C   0  0  0  0  0  0  0  0  0  0  0  0
  -22.7552  -16.1160   24.5910 C   0  0  0  0  0  0  0  0  0  0  0  0
  -21.1831  -18.0459   26.9257 C   0  0  0  0  0  0  0  0  0  0  0  0
  -24.4843  -30.4056   20.0122 C   0  0  0  0  0  0  0  0  0  0  0  0
  -26.0838  -11.3716   20.3949 C   0  0  0  0  0  0  0  0  0  0  0  0
  -25.1642  -17.9522   22.4843 C   0  0  0  0  0  0  0  0  0  0  0  0
  -22.2523  -18.0059   22.9970 C   0  0  0  0  0  0  0  0  0  0  0  0
  -24.9180  -11.8404   21.2619 C   0  0  0  0  0  0  0  0  0  0  0  0
  -27.2114  -30.6743   17.8525 C   0  0  0  0  0  0  0  0  0  0  0  0
  -24.0436  -12.8260   20.4933 C   0  0  0  0  0  0  0  0  0  0  0  0
  -28.1586  -29.5692   18.3200 C   0  0  0  0  0  0  0  0  0  0  0  0
  -25.7596  -30.2104   17.8954 C   0  0  0  0  0  0  0  0  0  0  0  0
  -22.2738  -29.6675   23.0010 C   0  0  0  0  0  0  0  0  0  0  0  0
  -26.2613  -28.5996   19.7003 C   0  0  0  0  0  0  0  0  0  0  0  0
  -23.4163  -30.3335   22.2305 C   0  0  2  0  0  0  0  0  0  0  0  0
  -24.8368  -14.0789   20.1027 C   0  0  1  0  0  0  0  0  0  0  0  0
  -24.3860  -16.6861   22.8289 C   0  0  1  0  0  0  0  0  0  0  0  0
  -27.7423  -29.0293   19.6993 C   0  0  1  0  0  0  0  0  0  0  0  0
  -20.2419  -17.9509   29.2500 C   0  0  0  0  0  0  0  0  0  0  0  0
  -20.3300  -14.5888   23.5439 C   0  0  0  0  0  0  0  0  0  0  0  0
  -19.0667  -15.3454   25.5687 C   0  0  0  0  0  0  0  0  0  0  0  0
  -21.0871  -13.9053   25.8273 C   0  0  0  0  0  0  0  0  0  0  0  0
  -21.8726  -27.4824   24.1405 C   0  0  0  0  0  0  0  0  0  0  0  0
  -23.0477  -20.1318   27.8909 C   0  0  0  0  0  0  0  0  0  0  0  0
  -21.7544  -24.3723   19.9651 C   0  0  0  0  0  0  0  0  0  0  0  0
  -21.3680  -16.3245   25.1489 C   0  0  1  0  0  0  0  0  0  0  0  0
  -21.4625  -18.2701   28.4009 C   0  0  2  0  0  0  0  0  0  0  0  0
  -20.4750  -15.0600   25.0047 C   0  0  0  0  0  0  0  0  0  0  0  0
  -28.3428  -26.6449   19.8884 N   0  0  0  0  0  0  0  0  0  0  0  0
  -28.6705  -27.9201   20.1579 N   0  0  0  0  0  0  0  0  0  0  0  0
  -23.7641  -29.6586   20.9667 N   0  0  0  0  0  0  0  0  0  0  0  0
  -22.4131  -28.2192   23.0098 N   0  0  1  0  0  0  0  0  0  0  0  0
  -23.1393  -16.9661   23.5443 N   0  0  0  0  0  0  0  0  0  0  0  0
  -25.4117  -29.7022   19.2228 N   0  0  0  0  0  0  0  0  0  0  0  0
  -30.3233  -29.2682   21.1881 N   0  0  0  0  0  0  0  0  0  0  0  0
  -31.8715  -25.0704   21.8021 N   0  0  0  0  0  0  0  0  0  0  0  0
  -24.9838  -14.9595   21.2417 N   0  0  0  0  0  0  0  0  0  0  0  0
  -21.5451  -16.7774   26.5244 N   0  0  0  0  0  0  0  0  0  0  0  0
  -22.4162  -23.3829   20.8176 N   0  0  0  0  0  0  0  0  0  1  0  0
  -21.8471  -19.6890   28.6454 N   0  3  0  0  0  0  0  0  0  0  0  0
  -32.2934  -27.2881   22.2052 O   0  0  0  0  0  0  0  0  0  0  0  0
  -22.9488  -16.0764   21.0575 O   0  0  0  0  0  0  0  0  0  0  0  0
  -23.4741  -15.2361   25.0712 O   0  0  0  0  0  0  0  0  0  0  0  0
  -20.6895  -18.9085   26.2026 O   0  0  0  0  0  0  0  0  0  0  0  0
  -24.3538  -31.6334   19.9298 O   0  0  0  0  0  0  0  0  0  0  0  0
  -29.4149  -20.3713   20.0935 O   0  0  0  0  0  0  0  0  0  0  0  0
  -21.9497  -22.0994   20.3130 O   0  0  0  0  0  0  0  0  0  1  0  0
  -28.1463  -18.0749   15.2436 F   0  0  0  0  0  0  0  0  0  0  0  0
  -31.2276  -18.7560   18.7717 F   0  0  0  0  0  0  0  0  0  0  0  0
  1  2  1  0  0  0  0
  1  3  2  0  0  0  0
  2  8  2  0  0  0  0
  3  9  1  0  0  0  0
  4  5  1  0  0  0  0
  4 10  2  0  0  0  0
  5 11  2  0  0  0  0
  6 15  2  0  0  0  0
  6 23  1  0  0  0  0
  7 16  1  0  0  0  0
  7 23  2  0  0  0  0
  8 25  1  0  0  0  0
  9 25  2  0  0  0  0
 10 26  1  0  0  0  0
 11 28  1  0  0  0  0
 12 17  2  0  0  0  0
 12 27  1  0  0  0  0
 13 14  2  0  0  0  0
 13 30  1  0  0  0  0
 14 31  1  0  0  0  0
 15 33  1  0  0  0  0
 16 33  2  0  0  0  0
 17 34  1  0  0  0  0
 18 19  2  0  0  0  0
 18 35  1  0  0  0  0
 19 36  1  0  0  0  0
 20 29  1  0  0  0  0
 20 34  2  0  0  0  0
 21 30  2  0  0  0  0
 21 32  1  0  0  0  0
 22 36  2  0  0  0  0
 22 37  1  0  0  0  0
 23 38  1  0  0  0  0
 24 38  1  0  0  0  0
 24 39  2  0  0  0  0
 24 40  1  0  0  0  0
 25 55  1  0  0  0  0
 26 28  2  0  0  0  0
 26 45  1  0  0  0  0
 27 29  2  0  0  0  0
 27 46  1  0  0  0  0
 28 56  1  0  0  0  0
 29 47  1  0  0  0  0
 30 65  1  0  0  0  0
 31 32  2  0  0  0  0
 31 71  1  0  0  0  0
 32 72  1  0  0  0  0
 33 86  1  0  0  0  0
 34 87  1  0  0  0  0
 35 37  2  0  0  0  0
 35 86  1  0  0  0  0
 36 88  1  0  0  0  0
 37 89  1  0  0  0  0
 38 69  2  0  0  0  0
 39 70  1  0  0  0  0
 39 75  1  0  0  0  0
 40 76  1  0  0  0  0
 40 81  2  0  0  0  0
 41 57  1  0  0  0  0
 41 77  1  0  0  0  0
 41 82  2  0  0  0  0
 42 66  1  0  0  0  0
 42 73  1  0  0  0  0
 42 83  2  0  0  0  0
 43 67  1  0  0  0  0
 43 78  1  0  0  0  0
 43 84  2  0  0  0  0
 44 71  1  0  0  0  0
 44 74  1  0  0  0  0
 44 85  2  0  0  0  0
 45 48  1  0  0  0  0
 46 57  1  0  0  0  0
 47 73  1  0  0  0  0
 48 50  1  0  0  0  0
 49 51  1  0  0  0  0
 49 52  1  0  0  0  0
 50 56  1  0  0  0  0
 51 58  1  0  0  0  0
 52 74  1  0  0  0  0
 53 55  1  0  0  0  0
 53 72  1  0  0  0  0
 54 58  1  0  0  0  0
 54 74  1  0  0  0  0
 55 71  1  0  0  0  0
 56 77  1  0  0  0  0
 57 73  1  0  0  0  0
 58 70  1  0  0  0  0
 59 67  1  0  0  0  0
 60 68  1  0  0  0  0
 61 68  1  0  0  0  0
 62 68  1  0  0  0  0
 63 72  1  0  0  0  0
 64 80  1  0  0  0  0
 65 79  1  0  0  0  0
 66 68  1  0  0  0  0
 66 78  1  0  0  0  0
 67 80  1  0  0  0  0
 69 70  1  0  0  0  0
 79 87  1  0  0  0  0
M  CHG  1  80   1
M  ISO  4  44 100  71 100  79 101  87 101
M  END
> <Batch ID>
0009

> <Smiles>
CNC(C)C(=O)NC(C(=O)N1Cc2cc([101O:1][101NH:1]Cc3ccc4c(c3)N(C)CC(c3ccccc3)[100N:0]4[100C:0](=O)N3CCCC(n4nc(-c5ccc(Oc6ccc(F)cc6F)cc5)c(C(N)=O)c4N)C3)ccc2CC1C(=O)NC1CCCc2ccccc21)C(C)(C)C

> <Shape>
0.233

> <Color>
0.064

> <Negative vol penalty>
0.000

$$$$

  -OEChem-04042320373D

 78 86  0     1  0  0  0  0  0999 V2000
  -25.3366  -23.3816   20.1259 C   0  0  0  0  0  0  0  0  0  0  0  0
  -25.3140  -24.2232   21.2335 C   0  0  0  0  0  0  0  0  0  0  0  0
  -26.8607  -13.6713   21.7701 C   0  0  0  0  0  0  0  0  0  0  0  0
  -25.3091  -13.7928   19.9222 C   0  0  0  0  0  0  0  0  0  0  0  0
  -26.2690  -23.5920   19.1109 C   0  0  0  0  0  0  0  0  0  0  0  0
  -26.2246  -25.2750   21.3271 C   0  0  0  0  0  0  0  0  0  0  0  0
  -22.9720  -28.3753   19.2500 C   0  0  0  0  0  0  0  0  0  0  0  0
  -26.6400  -12.2973   21.8651 C   0  0  0  0  0  0  0  0  0  0  0  0
  -25.0883  -12.4188   20.0172 C   0  0  0  0  0  0  0  0  0  0  0  0
  -21.7637  -27.8296   19.6814 C   0  0  0  0  0  0  0  0  0  0  0  0
  -23.3002  -10.3116   21.9648 C   0  0  0  0  0  0  0  0  0  0  0  0
  -21.9816   -9.8612   21.9022 C   0  0  0  0  0  0  0  0  0  0  0  0
  -22.2022  -28.6370   21.9118 C   0  0  0  0  0  0  0  0  0  0  0  0
  -22.5214   -8.5531   19.9439 C   0  0  0  0  0  0  0  0  0  0  0  0
  -26.1952  -14.4191   20.7987 C   0  0  0  0  0  0  0  0  0  0  0  0
  -27.3981  -16.4915   19.9237 C   0  0  0  0  0  0  0  0  0  0  0  0
  -27.1852  -24.6529   19.1876 C   0  0  0  0  0  0  0  0  0  0  0  0
  -23.8109  -29.0476   20.1503 C   0  0  0  0  0  0  0  0  0  0  0  0
  -27.1711  -25.4990   20.3128 C   0  0  0  0  0  0  0  0  0  0  0  0
  -23.4193  -29.1925   21.4889 C   0  0  0  0  0  0  0  0  0  0  0  0
  -25.7538  -11.6711   20.9887 C   0  0  0  0  0  0  0  0  0  0  0  0
  -21.3800  -27.9578   21.0130 C   0  0  0  0  0  0  0  0  0  0  0  0
  -24.2295   -9.8828   21.0169 C   0  0  0  0  0  0  0  0  0  0  0  0
  -21.5922   -8.9819   20.8917 C   0  0  0  0  0  0  0  0  0  0  0  0
  -23.8401   -9.0036   20.0065 C   0  0  0  0  0  0  0  0  0  0  0  0
  -26.4224  -15.8385   20.7004 C   0  0  0  0  0  0  0  0  0  0  0  0
  -27.2007  -17.8271   20.1762 C   0  0  0  0  0  0  0  0  0  0  0  0
  -28.3939  -15.9401   19.0518 C   0  0  0  0  0  0  0  0  0  0  0  0
  -26.7663  -28.5938   21.2290 C   0  0  0  0  0  0  0  0  0  0  0  0
  -26.2667  -31.4617   22.6601 C   0  0  0  0  0  0  0  0  0  0  0  0
  -24.0396  -33.7454   23.8730 C   0  0  0  0  0  0  0  0  0  0  0  0
  -22.4143  -20.8467   21.8577 C   0  0  0  0  0  0  0  0  0  0  0  0
  -28.2053  -24.8120   18.0882 C   0  0  0  0  0  0  0  0  0  0  0  0
  -25.0985  -29.6538   19.6634 C   0  0  0  0  0  0  0  0  0  0  0  0
  -24.2747  -29.9227   22.4907 C   0  0  0  0  0  0  0  0  0  0  0  0
  -28.8905  -26.1761   18.0858 C   0  0  0  0  0  0  0  0  0  0  0  0
  -25.6027  -20.8005   23.5692 C   0  0  0  0  0  0  0  0  0  0  0  0
  -29.3308  -26.5548   19.4963 C   0  0  0  0  0  0  0  0  0  0  0  0
  -26.2663  -19.5726   22.9430 C   0  0  0  0  0  0  0  0  0  0  0  0
  -19.5034  -22.3469   22.4711 C   0  0  0  0  0  0  0  0  0  0  0  0
  -24.1066  -20.5783   23.7700 C   0  0  0  0  0  0  0  0  0  0  0  0
  -24.0306  -18.9684   21.9055 C   0  0  0  0  0  0  0  0  0  0  0  0
  -18.6048  -23.5264   22.1339 C   0  0  0  0  0  0  0  0  0  0  0  0
  -20.9372  -24.2294   22.3555 C   0  0  0  0  0  0  0  0  0  0  0  0
  -28.1264  -26.6659   20.4389 C   0  0  1  0  0  0  0  0  0  0  0  0
  -26.1159  -29.8715   20.7792 C   0  0  1  0  0  0  0  0  0  0  0  0
  -25.5402  -19.1385   21.6560 C   0  0  2  0  0  0  0  0  0  0  0  0
  -20.8666  -22.7700   21.9513 C   0  0  1  0  0  0  0  0  0  0  0  0
  -23.9317  -35.9756   25.0185 C   0  0  0  0  0  0  0  0  0  0  0  0
  -27.0596  -30.1437   25.2954 C   0  0  0  0  0  0  0  0  0  0  0  0
  -26.0381  -32.0892   26.4953 C   0  0  0  0  0  0  0  0  0  0  0  0
  -27.9747  -32.4475   24.9643 C   0  0  0  0  0  0  0  0  0  0  0  0
  -22.5560  -34.9614   21.6193 C   0  0  0  0  0  0  0  0  0  0  0  0
  -19.1158  -25.8780   22.9231 C   0  0  0  0  0  0  0  0  0  0  0  0
  -20.1354  -26.9925   22.7949 C   0  0  0  0  0  0  0  0  0  1  0  0
  -25.7054  -31.9106   23.9877 C   0  0  1  0  0  0  0  0  0  0  0  0
  -23.9333  -35.2478   23.6832 C   0  0  2  0  0  0  0  0  0  0  0  0
  -26.6790  -31.6323   25.1675 C   0  0  0  0  0  0  0  0  0  0  0  0
  -25.6617  -16.6892   21.3944 N   0  0  0  0  0  0  0  0  0  0  0  0
  -26.1595  -17.8904   21.0548 N   0  0  0  0  0  0  0  0  0  0  0  0
  -25.5274  -30.4924   21.9676 N   0  0  0  0  0  0  0  0  0  0  0  0
  -23.4721  -20.1856   22.5038 N   0  0  0  0  0  0  0  0  0  0  0  0
  -27.8180  -18.9417   19.7302 N   0  0  0  0  0  0  0  0  0  0  0  0
  -28.4582  -14.5475   18.9073 N   0  0  0  0  0  0  0  0  0  0  0  0
  -27.4300  -27.9162   20.2241 N   0  0  0  0  0  0  0  0  0  0  0  0
  -25.3491  -33.3161   23.8258 N   0  0  0  0  0  0  0  0  0  0  0  0
  -21.9384  -21.9870   22.4932 N   0  0  0  0  0  0  0  0  0  0  0  0
  -19.5348  -24.7252   22.0685 N   0  3  2  0  0  0  0  0  0  0  0  0
  -22.6765  -35.5908   22.9595 N   0  3  0  0  0  0  0  0  0  0  0  0
  -29.2133  -16.6601   18.4325 O   0  0  0  0  0  0  0  0  0  0  0  0
  -26.6742  -28.2491   22.4013 O   0  0  0  0  0  0  0  0  0  0  0  0
  -27.3186  -31.9581   22.2494 O   0  0  0  0  0  0  0  0  0  0  0  0
  -23.0594  -33.0253   24.0495 O   0  0  0  0  0  0  0  0  0  0  0  0
  -21.9327  -20.4528   20.7900 O   0  0  0  0  0  0  0  0  0  0  0  0
  -25.5384  -10.3303   21.0809 O   0  0  0  0  0  0  0  0  0  0  0  0
  -20.2014  -27.4256   21.4368 O   0  0  0  0  0  0  0  0  0  1  0  0
  -20.3262   -8.5483   20.8326 F   0  0  0  0  0  0  0  0  0  0  0  0
  -24.7286   -8.5873   19.0938 F   0  0  0  0  0  0  0  0  0  0  0  0
  1  2  1  0  0  0  0
  1  5  2  0  0  0  0
  2  6  2  0  0  0  0
  3  8  2  0  0  0  0
  3 15  1  0  0  0  0
  4  9  1  0  0  0  0
  4 15  2  0  0  0  0
  5 17  1  0  0  0  0
  6 19  1  0  0  0  0
  7 10  2  0  0  0  0
  7 18  1  0  0  0  0
  8 21  1  0  0  0  0
  9 21  2  0  0  0  0
 10 22  1  0  0  0  0
 11 12  2  0  0  0  0
 11 23  1  0  0  0  0
 12 24  1  0  0  0  0
 13 20  1  0  0  0  0
 13 22  2  0  0  0  0
 14 24  2  0  0  0  0
 14 25  1  0  0  0  0
 15 26  1  0  0  0  0
 16 26  1  0  0  0  0
 16 27  2  0  0  0  0
 16 28  1  0  0  0  0
 17 19  2  0  0  0  0
 17 33  1  0  0  0  0
 18 20  2  0  0  0  0
 18 34  1  0  0  0  0
 19 45  1  0  0  0  0
 20 35  1  0  0  0  0
 21 75  1  0  0  0  0
 22 76  1  0  0  0  0
 23 25  2  0  0  0  0
 23 75  1  0  0  0  0
 24 77  1  0  0  0  0
 25 78  1  0  0  0  0
 26 59  2  0  0  0  0
 27 60  1  0  0  0  0
 27 63  1  0  0  0  0
 28 64  1  0  0  0  0
 28 70  2  0  0  0  0
 29 46  1  0  0  0  0
 29 65  1  0  0  0  0
 29 71  2  0  0  0  0
 30 56  1  0  0  0  0
 30 61  1  0  0  0  0
 30 72  2  0  0  0  0
 31 57  1  0  0  0  0
 31 66  1  0  0  0  0
 31 73  2  0  0  0  0
 32 62  1  0  0  0  0
 32 67  1  0  0  0  0
 32 74  2  0  0  0  0
 33 36  1  0  0  0  0
 34 46  1  0  0  0  0
 35 61  1  0  0  0  0
 36 38  1  0  0  0  0
 37 39  1  0  0  0  0
 37 41  1  0  0  0  0
 38 45  1  0  0  0  0
 39 47  1  0  0  0  0
 40 43  1  0  0  0  0
 40 48  1  0  0  0  0
 41 62  1  0  0  0  0
 42 47  1  0  0  0  0
 42 62  1  0  0  0  0
 43 68  1  0  0  0  0
 44 48  1  0  0  0  0
 44 68  1  0  0  0  0
 45 65  1  0  0  0  0
 46 61  1  0  0  0  0
 47 60  1  0  0  0  0
 48 67  1  0  0  0  0
 49 57  1  0  0  0  0
 50 58  1  0  0  0  0
 51 58  1  0  0  0  0
 52 58  1  0  0  0  0
 53 69  1  0  0  0  0
 54 55  1  0  0  0  0
 54 68  1  0  0  0  0
 55 76  1  0  0  0  0
 56 58  1  0  0  0  0
 56 66  1  0  0  0  0
 57 69  1  0  0  0  0
 59 60  1  0  0  0  0
M  CHG  2  68   1  69   1
M  ISO  4  32 100  55 101  67 100  76 101
M  END
> <Batch ID>
0009

> <Smiles>
CNC(C)C(=O)NC(C(=O)N1Cc2cc([101O:1][101CH2:1]CN3CCC([100NH:0][100C:0](=O)N4CCCC(n5nc(-c6ccc(Oc7ccc(F)cc7F)cc6)c(C(N)=O)c5N)C4)C3)ccc2CC1C(=O)NC1CCCc2ccccc21)C(C)(C)C

> <Shape>
0.258

> <Color>
0.080

> <Negative vol penalty>
0.000

$$$$

  -OEChem-04042320373D

 78 86  0     1  0  0  0  0  0999 V2000
  -25.3366  -23.3816   20.1259 C   0  0  0  0  0  0  0  0  0  0  0  0
  -25.3140  -24.2232   21.2335 C   0  0  0  0  0  0  0  0  0  0  0  0
  -26.8607  -13.6713   21.7701 C   0  0  0  0  0  0  0  0  0  0  0  0
  -25.3091  -13.7928   19.9222 C   0  0  0  0  0  0  0  0  0  0  0  0
  -26.2690  -23.5920   19.1109 C   0  0  0  0  0  0  0  0  0  0  0  0
  -26.2246  -25.2750   21.3271 C   0  0  0  0  0  0  0  0  0  0  0  0
  -22.9720  -28.3753   19.2500 C   0  0  0  0  0  0  0  0  0  0  0  0
  -26.6400  -12.2973   21.8651 C   0  0  0  0  0  0  0  0  0  0  0  0
  -25.0883  -12.4188   20.0172 C   0  0  0  0  0  0  0  0  0  0  0  0
  -21.7637  -27.8296   19.6814 C   0  0  0  0  0  0  0  0  0  0  0  0
  -23.3002  -10.3116   21.9648 C   0  0  0  0  0  0  0  0  0  0  0  0
  -21.9816   -9.8612   21.9022 C   0  0  0  0  0  0  0  0  0  0  0  0
  -22.2022  -28.6370   21.9118 C   0  0  0  0  0  0  0  0  0  0  0  0
  -22.5214   -8.5531   19.9439 C   0  0  0  0  0  0  0  0  0  0  0  0
  -26.1952  -14.4191   20.7987 C   0  0  0  0  0  0  0  0  0  0  0  0
  -27.3981  -16.4915   19.9237 C   0  0  0  0  0  0  0  0  0  0  0  0
  -27.1852  -24.6529   19.1876 C   0  0  0  0  0  0  0  0  0  0  0  0
  -23.8109  -29.0476   20.1503 C   0  0  0  0  0  0  0  0  0  0  0  0
  -27.1711  -25.4990   20.3128 C   0  0  0  0  0  0  0  0  0  0  0  0
  -23.4193  -29.1925   21.4889 C   0  0  0  0  0  0  0  0  0  0  0  0
  -25.7538  -11.6711   20.9887 C   0  0  0  0  0  0  0  0  0  0  0  0
  -21.3800  -27.9578   21.0130 C   0  0  0  0  0  0  0  0  0  0  0  0
  -24.2295   -9.8828   21.0169 C   0  0  0  0  0  0  0  0  0  0  0  0
  -21.5922   -8.9819   20.8917 C   0  0  0  0  0  0  0  0  0  0  0  0
  -23.8401   -9.0036   20.0065 C   0  0  0  0  0  0  0  0  0  0  0  0
  -26.4224  -15.8385   20.7004 C   0  0  0  0  0  0  0  0  0  0  0  0
  -27.2007  -17.8271   20.1762 C   0  0  0  0  0  0  0  0  0  0  0  0
  -28.3939  -15.9401   19.0518 C   0  0  0  0  0  0  0  0  0  0  0  0
  -26.7663  -28.5938   21.2290 C   0  0  0  0  0  0  0  0  0  0  0  0
  -26.2667  -31.4617   22.6601 C   0  0  0  0  0  0  0  0  0  0  0  0
  -24.0396  -33.7454   23.8730 C   0  0  0  0  0  0  0  0  0  0  0  0
  -22.4143  -20.8467   21.8577 C   0  0  0  0  0  0  0  0  0  0  0  0
  -28.2053  -24.8120   18.0882 C   0  0  0  0  0  0  0  0  0  0  0  0
  -25.0985  -29.6538   19.6634 C   0  0  0  0  0  0  0  0  0  0  0  0
  -24.2747  -29.9227   22.4907 C   0  0  0  0  0  0  0  0  0  0  0  0
  -28.8905  -26.1761   18.0858 C   0  0  0  0  0  0  0  0  0  0  0  0
  -25.6027  -20.8005   23.5692 C   0  0  0  0  0  0  0  0  0  0  0  0
  -29.3308  -26.5548   19.4963 C   0  0  0  0  0  0  0  0  0  0  0  0
  -26.2663  -19.5726   22.9430 C   0  0  0  0  0  0  0  0  0  0  0  0
  -19.5034  -22.3469   22.4711 C   0  0  0  0  0  0  0  0  0  0  0  0
  -24.1066  -20.5783   23.7700 C   0  0  0  0  0  0  0  0  0  0  0  0
  -24.0306  -18.9684   21.9055 C   0  0  0  0  0  0  0  0  0  0  0  0
  -18.6048  -23.5264   22.1339 C   0  0  0  0  0  0  0  0  0  0  0  0
  -20.9372  -24.2294   22.3555 C   0  0  0  0  0  0  0  0  0  0  0  0
  -28.1264  -26.6659   20.4389 C   0  0  1  0  0  0  0  0  0  0  0  0
  -26.1159  -29.8715   20.7792 C   0  0  1  0  0  0  0  0  0  0  0  0
  -25.5402  -19.1385   21.6560 C   0  0  2  0  0  0  0  0  0  0  0  0
  -20.8666  -22.7700   21.9513 C   0  0  1  0  0  0  0  0  0  0  0  0
  -23.9317  -35.9756   25.0185 C   0  0  0  0  0  0  0  0  0  0  0  0
  -27.0596  -30.1437   25.2954 C   0  0  0  0  0  0  0  0  0  0  0  0
  -26.0381  -32.0892   26.4953 C   0  0  0  0  0  0  0  0  0  0  0  0
  -27.9747  -32.4475   24.9643 C   0  0  0  0  0  0  0  0  0  0  0  0
  -22.5560  -34.9614   21.6193 C   0  0  0  0  0  0  0  0  0  0  0  0
  -19.1158  -25.8780   22.9231 C   0  0  0  0  0  0  0  0  0  0  0  0
  -20.1354  -26.9925   22.7949 C   0  0  0  0  0  0  0  0  0  1  0  0
  -25.7054  -31.9106   23.9877 C   0  0  1  0  0  0  0  0  0  0  0  0
  -23.9333  -35.2478   23.6832 C   0  0  2  0  0  0  0  0  0  0  0  0
  -26.6790  -31.6323   25.1675 C   0  0  0  0  0  0  0  0  0  0  0  0
  -25.6617  -16.6892   21.3944 N   0  0  0  0  0  0  0  0  0  0  0  0
  -26.1595  -17.8904   21.0548 N   0  0  0  0  0  0  0  0  0  0  0  0
  -25.5274  -30.4924   21.9676 N   0  0  0  0  0  0  0  0  0  0  0  0
  -23.4721  -20.1856   22.5038 N   0  0  0  0  0  0  0  0  0  0  0  0
  -27.8180  -18.9417   19.7302 N   0  0  0  0  0  0  0  0  0  0  0  0
  -28.4582  -14.5475   18.9073 N   0  0  0  0  0  0  0  0  0  0  0  0
  -27.4300  -27.9162   20.2241 N   0  0  0  0  0  0  0  0  0  0  0  0
  -25.3491  -33.3161   23.8258 N   0  0  0  0  0  0  0  0  0  0  0  0
  -21.9384  -21.9870   22.4932 N   0  0  0  0  0  0  0  0  0  0  0  0
  -19.5348  -24.7252   22.0685 N   0  3  2  0  0  0  0  0  0  0  0  0
  -22.6765  -35.5908   22.9595 N   0  3  0  0  0  0  0  0  0  0  0  0
  -29.2133  -16.6601   18.4325 O   0  0  0  0  0  0  0  0  0  0  0  0
  -26.6742  -28.2491   22.4013 O   0  0  0  0  0  0  0  0  0  0  0  0
  -27.3186  -31.9581   22.2494 O   0  0  0  0  0  0  0  0  0  0  0  0
  -23.0594  -33.0253   24.0495 O   0  0  0  0  0  0  0  0  0  0  0  0
  -21.9327  -20.4528   20.7900 O   0  0  0  0  0  0  0  0  0  0  0  0
  -25.5384  -10.3303   21.0809 O   0  0  0  0  0  0  0  0  0  0  0  0
  -20.2014  -27.4256   21.4368 O   0  0  0  0  0  0  0  0  0  1  0  0
  -20.3262   -8.5483   20.8326 F   0  0  0  0  0  0  0  0  0  0  0  0
  -24.7286   -8.5873   19.0938 F   0  0  0  0  0  0  0  0  0  0  0  0
  1  2  1  0  0  0  0
  1  5  2  0  0  0  0
  2  6  2  0  0  0  0
  3  8  2  0  0  0  0
  3 15  1  0  0  0  0
  4  9  1  0  0  0  0
  4 15  2  0  0  0  0
  5 17  1  0  0  0  0
  6 19  1  0  0  0  0
  7 10  2  0  0  0  0
  7 18  1  0  0  0  0
  8 21  1  0  0  0  0
  9 21  2  0  0  0  0
 10 22  1  0  0  0  0
 11 12  2  0  0  0  0
 11 23  1  0  0  0  0
 12 24  1  0  0  0  0
 13 20  1  0  0  0  0
 13 22  2  0  0  0  0
 14 24  2  0  0  0  0
 14 25  1  0  0  0  0
 15 26  1  0  0  0  0
 16 26  1  0  0  0  0
 16 27  2  0  0  0  0
 16 28  1  0  0  0  0
 17 19  2  0  0  0  0
 17 33  1  0  0  0  0
 18 20  2  0  0  0  0
 18 34  1  0  0  0  0
 19 45  1  0  0  0  0
 20 35  1  0  0  0  0
 21 75  1  0  0  0  0
 22 76  1  0  0  0  0
 23 25  2  0  0  0  0
 23 75  1  0  0  0  0
 24 77  1  0  0  0  0
 25 78  1  0  0  0  0
 26 59  2  0  0  0  0
 27 60  1  0  0  0  0
 27 63  1  0  0  0  0
 28 64  1  0  0  0  0
 28 70  2  0  0  0  0
 29 46  1  0  0  0  0
 29 65  1  0  0  0  0
 29 71  2  0  0  0  0
 30 56  1  0  0  0  0
 30 61  1  0  0  0  0
 30 72  2  0  0  0  0
 31 57  1  0  0  0  0
 31 66  1  0  0  0  0
 31 73  2  0  0  0  0
 32 62  1  0  0  0  0
 32 67  1  0  0  0  0
 32 74  2  0  0  0  0
 33 36  1  0  0  0  0
 34 46  1  0  0  0  0
 35 61  1  0  0  0  0
 36 38  1  0  0  0  0
 37 39  1  0  0  0  0
 37 41  1  0  0  0  0
 38 45  1  0  0  0  0
 39 47  1  0  0  0  0
 40 43  1  0  0  0  0
 40 48  1  0  0  0  0
 41 62  1  0  0  0  0
 42 47  1  0  0  0  0
 42 62  1  0  0  0  0
 43 68  1  0  0  0  0
 44 48  1  0  0  0  0
 44 68  1  0  0  0  0
 45 65  1  0  0  0  0
 46 61  1  0  0  0  0
 47 60  1  0  0  0  0
 48 67  1  0  0  0  0
 49 57  1  0  0  0  0
 50 58  1  0  0  0  0
 51 58  1  0  0  0  0
 52 58  1  0  0  0  0
 53 69  1  0  0  0  0
 54 55  1  0  0  0  0
 54 68  1  0  0  0  0
 55 76  1  0  0  0  0
 56 58  1  0  0  0  0
 56 66  1  0  0  0  0
 57 69  1  0  0  0  0
 59 60  1  0  0  0  0
M  CHG  2  68   1  69   1
M  ISO  4  32 100  55 101  67 100  76 101
M  END
> <Batch ID>
0009

> <Smiles>
CNC(C)C(=O)NC(C(=O)N1Cc2cc([101O:1][101CH2:1]CN3CCC([100NH:0][100C:0](=O)N4CCCC(n5nc(-c6ccc(Oc7ccc(F)cc7F)cc6)c(C(N)=O)c5N)C4)C3)ccc2CC1C(=O)NC1CCCc2ccccc21)C(C)(C)C

> <Shape>
0.258

> <Color>
0.080

> <Negative vol penalty>
0.000

$$$$

  -OEChem-04042320373D

 84 93  0     1  0  0  0  0  0999 V2000
  -22.6955  -33.6752   27.1104 C   0  0  0  0  0  0  0  0  0  0  0  0
  -23.2016  -32.4276   27.4610 C   0  0  0  0  0  0  0  0  0  0  0  0
  -23.1239   -9.8438   19.9900 C   0  0  0  0  0  0  0  0  0  0  0  0
  -23.8087   -9.9785   22.3030 C   0  0  0  0  0  0  0  0  0  0  0  0
  -22.1528  -33.8746   25.8417 C   0  0  0  0  0  0  0  0  0  0  0  0
  -23.1642  -31.3784   26.5433 C   0  0  0  0  0  0  0  0  0  0  0  0
  -27.3159  -26.9269   25.8697 C   0  0  0  0  0  0  0  0  0  0  0  0
  -29.1896  -19.0834   21.9927 C   0  0  0  0  0  0  0  0  0  0  0  0
  -28.3414  -19.9224   22.7152 C   0  0  0  0  0  0  0  0  0  0  0  0
  -22.3900   -8.6923   20.2743 C   0  0  0  0  0  0  0  0  0  0  0  0
  -23.0747   -8.8270   22.5874 C   0  0  0  0  0  0  0  0  0  0  0  0
  -27.3631  -25.6111   26.3283 C   0  0  0  0  0  0  0  0  0  0  0  0
  -19.4086   -7.9199   21.6700 C   0  0  0  0  0  0  0  0  0  0  0  0
  -18.1190   -7.8274   21.1466 C   0  0  0  0  0  0  0  0  0  0  0  0
  -26.4727  -24.8505   24.2193 C   0  0  0  0  0  0  0  0  0  0  0  0
  -28.6685  -18.5587   24.6826 C   0  0  0  0  0  0  0  0  0  0  0  0
  -18.7509   -5.8302   19.9428 C   0  0  0  0  0  0  0  0  0  0  0  0
  -23.8334  -10.4869   21.0043 C   0  0  0  0  0  0  0  0  0  0  0  0
  -24.1404  -13.0083   20.7675 C   0  0  0  0  0  0  0  0  0  0  0  0
  -22.1175  -32.8300   24.9047 C   0  0  0  0  0  0  0  0  0  0  0  0
  -26.8357  -27.2159   24.5843 C   0  0  0  0  0  0  0  0  0  0  0  0
  -22.6193  -31.5637   25.2613 C   0  0  0  0  0  0  0  0  0  0  0  0
  -26.4228  -26.1706   23.7459 C   0  0  0  0  0  0  0  0  0  0  0  0
  -29.7773  -17.9820   22.6150 C   0  0  0  0  0  0  0  0  0  0  0  0
  -28.0808  -19.6601   24.0602 C   0  0  0  0  0  0  0  0  0  0  0  0
  -22.3653   -8.1839   21.5730 C   0  0  0  0  0  0  0  0  0  0  0  0
  -26.9388  -24.5730   25.5041 C   0  0  0  0  0  0  0  0  0  0  0  0
  -20.3694   -6.9676   21.3298 C   0  0  0  0  0  0  0  0  0  0  0  0
  -17.7901   -6.7826   20.2830 C   0  0  0  0  0  0  0  0  0  0  0  0
  -29.5167  -17.7197   23.9600 C   0  0  0  0  0  0  0  0  0  0  0  0
  -20.0405   -5.9227   20.4662 C   0  0  0  0  0  0  0  0  0  0  0  0
  -24.5922  -11.6762   20.7111 C   0  0  0  0  0  0  0  0  0  0  0  0
  -25.2323  -13.7569   20.4015 C   0  0  0  0  0  0  0  0  0  0  0  0
  -22.8493  -13.5230   21.1193 C   0  0  0  0  0  0  0  0  0  0  0  0
  -24.3994  -28.8966   23.4253 C   0  0  0  0  0  0  0  0  0  0  0  0
  -25.7914  -28.2150   20.5757 C   0  0  0  0  0  0  0  0  0  0  0  0
  -27.8266  -26.1608   18.7632 C   0  0  0  0  0  0  0  0  0  0  0  0
  -30.6909  -14.8763   20.7116 C   0  0  0  0  0  0  0  0  0  0  0  0
  -21.4780  -33.0805   23.5620 C   0  0  0  0  0  0  0  0  0  0  0  0
  -26.8162  -28.6380   24.0948 C   0  0  0  0  0  0  0  0  0  0  0  0
  -25.9178  -26.4259   22.3501 C   0  0  0  0  0  0  0  0  0  0  0  0
  -21.8169  -32.0191   22.5184 C   0  0  0  0  0  0  0  0  0  0  0  0
  -29.6678  -12.3564   18.4138 C   0  0  0  0  0  0  0  0  0  0  0  0
  -21.6594  -30.6212   23.1081 C   0  0  0  0  0  0  0  0  0  0  0  0
  -28.2217  -12.0605   18.8153 C   0  0  0  0  0  0  0  0  0  0  0  0
  -25.7501  -21.2654   26.4247 C   0  0  0  0  0  0  0  0  0  0  0  0
  -30.5420  -12.6525   19.6304 C   0  0  0  0  0  0  0  0  0  0  0  0
  -26.9093  -20.2988   26.1826 C   0  0  0  0  0  0  0  0  0  0  0  0
  -28.5853  -13.4200   20.9173 C   0  0  0  0  0  0  0  0  0  0  0  0
  -26.5852  -21.6707   24.2120 C   0  0  0  0  0  0  0  0  0  0  0  0
  -22.6192  -30.4075   24.2849 C   0  0  1  0  0  0  0  0  0  0  0  0
  -25.8265  -28.8645   22.9561 C   0  0  1  0  0  0  0  0  0  0  0  0
  -27.6527  -13.1702   19.7197 C   0  0  2  0  0  0  0  0  0  0  0  0
  -26.0092  -22.3889   25.4316 C   0  0  2  0  0  0  0  0  0  1  0  0
  -28.7435  -25.8379   16.4497 C   0  0  0  0  0  0  0  0  0  0  0  0
  -23.0947  -27.1177   19.6628 C   0  0  0  0  0  0  0  0  0  0  0  0
  -24.2769  -25.9772   17.7734 C   0  0  0  0  0  0  0  0  0  0  0  0
  -24.3091  -28.4659   17.9417 C   0  0  0  0  0  0  0  0  0  0  0  0
  -30.6168  -26.4684   19.7007 C   0  0  0  0  0  0  0  0  0  0  0  0
  -30.6838  -17.0869   21.8395 C   0  0  0  0  0  0  0  0  0  0  0  0
  -25.6747  -27.0957   19.5695 C   0  0  1  0  0  0  0  0  0  0  0  0
  -28.9758  -26.4603   17.8177 C   0  0  2  0  0  0  0  0  0  0  0  0
  -24.3465  -27.1592   18.7638 C   0  0  0  0  0  0  0  0  0  0  0  0
  -25.8713  -11.5808   20.3385 N   0  0  0  0  0  0  0  0  0  0  0  0
  -26.2326  -12.8625   20.1573 N   0  0  0  0  0  0  0  0  0  0  0  0
  -27.2423  -20.4902   24.7742 N   0  0  3  0  0  0  0  0  0  0  0  0
  -25.9120  -27.8338   21.9195 N   0  0  0  0  0  0  0  0  0  0  0  0
  -29.9473  -13.7147   20.4453 N   0  0  0  0  0  0  0  0  0  0  0  0
  -25.4246  -15.0864   20.2679 N   0  0  0  0  0  0  0  0  0  0  0  0
  -21.8409  -12.6149   21.4700 N   0  0  0  0  0  0  0  0  0  0  0  0
  -23.9597  -30.1508   23.8036 N   0  0  0  0  0  0  0  0  0  0  0  0
  -26.8770  -27.1605   18.7456 N   0  0  0  0  0  0  0  0  0  0  0  0
  -30.0506  -15.8359   21.4862 N   0  0  0  0  0  0  0  0  0  0  0  0
  -30.2525  -25.9231   18.3677 N   0  3  0  0  0  0  0  0  0  0  0  0
  -22.5926  -14.7508   21.1068 O   0  0  0  0  0  0  0  0  0  0  0  0
  -23.7452  -27.8606   23.4414 O   0  0  0  0  0  0  0  0  0  0  0  0
  -25.7832  -29.3844   20.1831 O   0  0  0  0  0  0  0  0  0  0  0  0
  -27.7744  -25.1403   19.4461 O   0  0  0  0  0  0  0  0  0  0  0  0
  -31.8381  -15.0479   20.2859 O   0  0  0  0  0  0  0  0  0  0  0  0
  -21.6490   -7.0603   21.8509 O   0  0  0  0  0  0  0  0  0  0  0  0
  -26.9832  -23.2878   25.9494 O   0  0  0  0  0  0  0  0  0  1  0  0
  -16.5513   -6.6930   19.7816 F   0  0  0  0  0  0  0  0  0  0  0  0
  -30.0759  -16.6631   24.5663 F   0  0  0  0  0  0  0  0  0  0  0  0
  -20.9589   -5.0042   20.1366 F   0  0  0  0  0  0  0  0  0  0  0  0
  1  2  1  0  0  0  0
  1  5  2  0  0  0  0
  2  6  2  0  0  0  0
  3 10  2  0  0  0  0
  3 18  1  0  0  0  0
  4 11  1  0  0  0  0
  4 18  2  0  0  0  0
  5 20  1  0  0  0  0
  6 22  1  0  0  0  0
  7 12  2  0  0  0  0
  7 21  1  0  0  0  0
  8  9  2  0  0  0  0
  8 24  1  0  0  0  0
  9 25  1  0  0  0  0
 10 26  1  0  0  0  0
 11 26  2  0  0  0  0
 12 27  1  0  0  0  0
 13 14  2  0  0  0  0
 13 28  1  0  0  0  0
 14 29  1  0  0  0  0
 15 23  1  0  0  0  0
 15 27  2  0  0  0  0
 16 25  2  0  0  0  0
 16 30  1  0  0  0  0
 17 29  2  0  0  0  0
 17 31  1  0  0  0  0
 18 32  1  0  0  0  0
 19 32  1  0  0  0  0
 19 33  2  0  0  0  0
 19 34  1  0  0  0  0
 20 22  2  0  0  0  0
 20 39  1  0  0  0  0
 21 23  2  0  0  0  0
 21 40  1  0  0  0  0
 22 51  1  0  0  0  0
 23 41  1  0  0  0  0
 24 30  2  0  0  0  0
 24 60  1  0  0  0  0
 25 66  1  0  0  0  0
 26 80  1  0  0  0  0
 27 81  1  0  0  0  0
 28 31  2  0  0  0  0
 28 80  1  0  0  0  0
 29 82  1  0  0  0  0
 30 83  1  0  0  0  0
 31 84  1  0  0  0  0
 32 64  2  0  0  0  0
 33 65  1  0  0  0  0
 33 69  1  0  0  0  0
 34 70  1  0  0  0  0
 34 75  2  0  0  0  0
 35 52  1  0  0  0  0
 35 71  1  0  0  0  0
 35 76  2  0  0  0  0
 36 61  1  0  0  0  0
 36 67  1  0  0  0  0
 36 77  2  0  0  0  0
 37 62  1  0  0  0  0
 37 72  1  0  0  0  0
 37 78  2  0  0  0  0
 38 68  1  0  0  0  0
 38 73  1  0  0  0  0
 38 79  2  0  0  0  0
 39 42  1  0  0  0  0
 40 52  1  0  0  0  0
 41 67  1  0  0  0  0
 42 44  1  0  0  0  0
 43 45  1  0  0  0  0
 43 47  1  0  0  0  0
 44 51  1  0  0  0  0
 45 53  1  0  0  0  0
 46 48  1  0  0  0  0
 46 54  1  0  0  0  0
 47 68  1  0  0  0  0
 48 66  1  0  0  0  0
 49 53  1  0  0  0  0
 49 68  1  0  0  0  0
 50 54  1  0  0  0  0
 50 66  1  0  0  0  0
 51 71  1  0  0  0  0
 52 67  1  0  0  0  0
 53 65  1  0  0  0  0
 54 81  1  0  0  0  0
 55 62  1  0  0  0  0
 56 63  1  0  0  0  0
 57 63  1  0  0  0  0
 58 63  1  0  0  0  0
 59 74  1  0  0  0  0
 60 73  1  0  0  0  0
 61 63  1  0  0  0  0
 61 72  1  0  0  0  0
 62 74  1  0  0  0  0
 64 65  1  0  0  0  0
M  CHG  1  74   1
M  ISO  4  38 100  54 101  73 100  81 101
M  END
> <Batch ID>
0009

> <Smiles>
CNC(C)C(=O)NC(C(=O)N1Cc2cc([101O:1][101CH:1]3CCN(c4ccc(C[100NH:0][100C:0](=O)N5CCCC(n6nc(-c7ccc(Oc8ccc(F)cc8F)cc7)c(C(N)=O)c6N)C5)c(F)c4)C3)ccc2CC1C(=O)NC1CCCc2ccccc21)C(C)(C)C

> <Shape>
0.237

> <Color>
0.203

> <Negative vol penalty>
0.000

$$$$

  -OEChem-04042320373D

 84 93  0     1  0  0  0  0  0999 V2000
  -18.1839  -26.3980   25.9954 C   0  0  0  0  0  0  0  0  0  0  0  0
  -19.1992  -25.5174   25.6358 C   0  0  0  0  0  0  0  0  0  0  0  0
  -23.2745   -9.6142   20.0103 C   0  0  0  0  0  0  0  0  0  0  0  0
  -23.8544   -9.8936   22.3390 C   0  0  0  0  0  0  0  0  0  0  0  0
  -17.8734  -27.4770   25.1688 C   0  0  0  0  0  0  0  0  0  0  0  0
  -19.9039  -25.7148   24.4489 C   0  0  0  0  0  0  0  0  0  0  0  0
  -24.9019  -25.1539   25.0406 C   0  0  0  0  0  0  0  0  0  0  0  0
  -31.9848  -18.2589   23.4111 C   0  0  0  0  0  0  0  0  0  0  0  0
  -31.5324  -17.2514   22.5592 C   0  0  0  0  0  0  0  0  0  0  0  0
  -22.5978   -8.4346   20.3203 C   0  0  0  0  0  0  0  0  0  0  0  0
  -23.1776   -8.7140   22.6490 C   0  0  0  0  0  0  0  0  0  0  0  0
  -25.3930  -23.8507   25.1069 C   0  0  0  0  0  0  0  0  0  0  0  0
  -19.9780   -7.7253   23.1021 C   0  0  0  0  0  0  0  0  0  0  0  0
  -19.1385   -7.7352   24.2159 C   0  0  0  0  0  0  0  0  0  0  0  0
  -26.0559  -23.9891   22.7916 C   0  0  0  0  0  0  0  0  0  0  0  0
  -29.2549  -17.9776   22.9097 C   0  0  0  0  0  0  0  0  0  0  0  0
  -20.4549   -5.9776   25.2236 C   0  0  0  0  0  0  0  0  0  0  0  0
  -23.9028  -10.3437   21.0196 C   0  0  0  0  0  0  0  0  0  0  0  0
  -24.0719  -12.8658   20.6758 C   0  0  0  0  0  0  0  0  0  0  0  0
  -18.5811  -27.6933   23.9759 C   0  0  0  0  0  0  0  0  0  0  0  0
  -24.9745  -25.8818   23.8442 C   0  0  0  0  0  0  0  0  0  0  0  0
  -19.6017  -26.7970   23.6049 C   0  0  0  0  0  0  0  0  0  0  0  0
  -25.5674  -25.3023   22.7134 C   0  0  0  0  0  0  0  0  0  0  0  0
  -31.0723  -19.1258   24.0124 C   0  0  0  0  0  0  0  0  0  0  0  0
  -29.7074  -18.9851   23.7617 C   0  0  0  0  0  0  0  0  0  0  0  0
  -30.1675  -17.1107   22.3085 C   0  0  0  0  0  0  0  0  0  0  0  0
  -22.5493   -7.9845   21.6397 C   0  0  0  0  0  0  0  0  0  0  0  0
  -25.9674  -23.2671   23.9815 C   0  0  0  0  0  0  0  0  0  0  0  0
  -21.0559   -6.8416   23.0488 C   0  0  0  0  0  0  0  0  0  0  0  0
  -19.3770   -6.8614   25.2767 C   0  0  0  0  0  0  0  0  0  0  0  0
  -21.2944   -5.9678   24.1096 C   0  0  0  0  0  0  0  0  0  0  0  0
  -24.6025  -11.5621   20.6999 C   0  0  0  0  0  0  0  0  0  0  0  0
  -25.1325  -13.6615   20.3171 C   0  0  0  0  0  0  0  0  0  0  0  0
  -28.6985  -21.2610   24.2218 C   0  0  0  0  0  0  0  0  0  0  0  0
  -22.7396  -13.3172   20.9530 C   0  0  0  0  0  0  0  0  0  0  0  0
  -22.8426  -27.1712   21.8703 C   0  0  0  0  0  0  0  0  0  0  0  0
  -25.4874  -28.3577   20.4142 C   0  0  0  0  0  0  0  0  0  0  0  0
  -28.8351  -28.0784   19.8129 C   0  0  0  0  0  0  0  0  0  0  0  0
  -30.4808  -15.1435   20.7663 C   0  0  0  0  0  0  0  0  0  0  0  0
  -18.1779  -28.8464   23.0915 C   0  0  0  0  0  0  0  0  0  0  0  0
  -24.4644  -27.2960   23.7965 C   0  0  0  0  0  0  0  0  0  0  0  0
  -25.6877  -26.0485   21.4107 C   0  0  0  0  0  0  0  0  0  0  0  0
  -19.2231  -29.1993   22.0364 C   0  0  0  0  0  0  0  0  0  0  0  0
  -29.7256  -12.4404   18.5754 C   0  0  0  0  0  0  0  0  0  0  0  0
  -19.7261  -27.9385   21.3406 C   0  0  0  0  0  0  0  0  0  0  0  0
  -28.2818  -12.0782   18.9308 C   0  0  0  0  0  0  0  0  0  0  0  0
  -27.1324  -20.5875   25.9021 C   0  0  0  0  0  0  0  0  0  0  0  0
  -30.5275  -12.8507   19.8092 C   0  0  0  0  0  0  0  0  0  0  0  0
  -27.6544  -19.3663   25.1679 C   0  0  0  0  0  0  0  0  0  0  0  0
  -28.4738  -13.5488   20.9771 C   0  0  0  0  0  0  0  0  0  0  0  0
  -20.4054  -26.9919   22.3375 C   0  0  1  0  0  0  0  0  0  0  0  0
  -27.4773  -21.7406   24.9766 C   0  0  2  0  0  0  0  0  0  1  0  0
  -24.1254  -27.7616   22.3838 C   0  0  1  0  0  0  0  0  0  0  0  0
  -27.6087  -13.1913   19.7575 C   0  0  2  0  0  0  0  0  0  0  0  0
  -31.5853  -20.1958   24.9205 C   0  0  0  0  0  0  0  0  0  0  0  0
  -30.7086  -29.1750   18.5541 C   0  0  0  0  0  0  0  0  0  0  0  0
  -24.4475  -27.1446   17.8147 C   0  0  0  0  0  0  0  0  0  0  0  0
  -26.7389  -27.4292   16.8468 C   0  0  0  0  0  0  0  0  0  0  0  0
  -25.4382  -29.4286   17.5771 C   0  0  0  0  0  0  0  0  0  0  0  0
  -30.3298  -28.6479   22.3030 C   0  0  0  0  0  0  0  0  0  0  0  0
  -26.4118  -27.8785   19.3211 C   0  0  1  0  0  0  0  0  0  0  0  0
  -29.9580  -29.0981   19.8745 C   0  0  2  0  0  0  0  0  0  0  0  0
  -25.7552  -27.9552   17.9138 C   0  0  0  0  0  0  0  0  0  0  0  0
  -25.8992  -11.5271   20.3817 N   0  0  0  0  0  0  0  0  0  0  0  0
  -26.1924  -12.8188   20.1542 N   0  0  0  0  0  0  0  0  0  0  0  0
  -28.7581  -19.8621   24.3675 N   0  0  0  0  0  0  0  0  0  0  0  0
  -25.1687  -27.4262   21.4125 N   0  0  0  0  0  0  0  0  0  0  0  0
  -29.8311  -13.9116   20.5402 N   0  0  0  0  0  0  0  0  0  0  0  0
  -25.2524  -14.9928   20.1283 N   0  0  0  0  0  0  0  0  0  0  0  0
  -21.7723  -12.3669   21.3071 N   0  0  0  0  0  0  0  0  0  0  0  0
  -29.7085  -16.0870   21.4430 N   0  0  0  0  0  0  0  0  0  0  0  0
  -21.7389  -27.4593   22.6502 N   0  0  0  0  0  0  0  0  0  0  0  0
  -27.6375  -28.6588   19.4519 N   0  0  0  0  0  0  0  0  0  0  0  0
  -30.9283  -28.7360   20.9462 N   0  3  0  0  0  0  0  0  0  0  0  0
  -29.4107  -22.0157   23.5750 O   0  0  0  0  0  0  0  0  0  0  0  0
  -22.4126  -14.5256   20.8725 O   0  0  0  0  0  0  0  0  0  0  0  0
  -22.8532  -26.5051   20.8418 O   0  0  0  0  0  0  0  0  0  0  0  0
  -25.0693  -29.5179   20.3872 O   0  0  0  0  0  0  0  0  0  0  0  0
  -29.0042  -26.8858   20.0568 O   0  0  0  0  0  0  0  0  0  0  0  0
  -31.6274  -15.3560   20.3637 O   0  0  0  0  0  0  0  0  0  0  0  0
  -21.8889   -6.8336   21.9426 O   0  0  0  0  0  0  0  0  0  0  0  0
  -26.4469  -21.9950   24.0433 O   0  0  0  0  0  0  0  0  0  1  0  0
  -18.5717   -6.8720   26.3470 F   0  0  0  0  0  0  0  0  0  0  0  0
  -22.3290   -5.1173   24.0647 F   0  0  0  0  0  0  0  0  0  0  0  0
  1  2  1  0  0  0  0
  1  5  2  0  0  0  0
  2  6  2  0  0  0  0
  3 10  2  0  0  0  0
  3 18  1  0  0  0  0
  4 11  1  0  0  0  0
  4 18  2  0  0  0  0
  5 20  1  0  0  0  0
  6 22  1  0  0  0  0
  7 12  2  0  0  0  0
  7 21  1  0  0  0  0
  8  9  2  0  0  0  0
  8 24  1  0  0  0  0
  9 26  1  0  0  0  0
 10 27  1  0  0  0  0
 11 27  2  0  0  0  0
 12 28  1  0  0  0  0
 13 14  2  0  0  0  0
 13 29  1  0  0  0  0
 14 30  1  0  0  0  0
 15 23  1  0  0  0  0
 15 28  2  0  0  0  0
 16 25  1  0  0  0  0
 16 26  2  0  0  0  0
 17 30  2  0  0  0  0
 17 31  1  0  0  0  0
 18 32  1  0  0  0  0
 19 32  1  0  0  0  0
 19 33  2  0  0  0  0
 19 35  1  0  0  0  0
 20 22  2  0  0  0  0
 20 40  1  0  0  0  0
 21 23  2  0  0  0  0
 21 41  1  0  0  0  0
 22 51  1  0  0  0  0
 23 42  1  0  0  0  0
 24 25  2  0  0  0  0
 24 55  1  0  0  0  0
 25 66  1  0  0  0  0
 26 71  1  0  0  0  0
 27 81  1  0  0  0  0
 28 82  1  0  0  0  0
 29 31  2  0  0  0  0
 29 81  1  0  0  0  0
 30 83  1  0  0  0  0
 31 84  1  0  0  0  0
 32 64  2  0  0  0  0
 33 65  1  0  0  0  0
 33 69  1  0  0  0  0
 34 52  1  0  0  0  0
 34 66  1  0  0  0  0
 34 75  2  0  0  0  0
 35 70  1  0  0  0  0
 35 76  2  0  0  0  0
 36 53  1  0  0  0  0
 36 72  1  0  0  0  0
 36 77  2  0  0  0  0
 37 61  1  0  0  0  0
 37 67  1  0  0  0  0
 37 78  2  0  0  0  0
 38 62  1  0  0  0  0
 38 73  1  0  0  0  0
 38 79  2  0  0  0  0
 39 68  1  0  0  0  0
 39 71  1  0  0  0  0
 39 80  2  0  0  0  0
 40 43  1  0  0  0  0
 41 53  1  0  0  0  0
 42 67  1  0  0  0  0
 43 45  1  0  0  0  0
 44 46  1  0  0  0  0
 44 48  1  0  0  0  0
 45 51  1  0  0  0  0
 46 54  1  0  0  0  0
 47 49  1  0  0  0  0
 47 52  1  0  0  0  0
 48 68  1  0  0  0  0
 49 66  1  0  0  0  0
 50 54  1  0  0  0  0
 50 68  1  0  0  0  0
 51 72  1  0  0  0  0
 52 82  1  0  0  0  0
 53 67  1  0  0  0  0
 54 65  1  0  0  0  0
 56 62  1  0  0  0  0
 57 63  1  0  0  0  0
 58 63  1  0  0  0  0
 59 63  1  0  0  0  0
 60 74  1  0  0  0  0
 61 63  1  0  0  0  0
 61 73  1  0  0  0  0
 62 74  1  0  0  0  0
 64 65  1  0  0  0  0
M  CHG  1  74   1
M  ISO  4  39 100  52 101  71 100  82 101
M  END
> <Batch ID>
0009

> <Smiles>
CNC(C)C(=O)NC(C(=O)N1Cc2cc([101O:1][101CH:1]3CCN(c4cc([100NH:0][100C:0](=O)N5CCCC(n6nc(-c7ccc(Oc8ccc(F)cc8F)cc7)c(C(N)=O)c6N)C5)ccc4C)C3=O)ccc2CC1C(=O)NC1CCCc2ccccc21)C(C)(C)C

> <Shape>
0.266

> <Color>
0.213

> <Negative vol penalty>
0.000

$$$$

  -OEChem-04042320373D

 82 89  0     1  0  0  0  0  0999 V2000
  -30.2971  -28.9261   29.7897 C   0  0  0  0  0  0  0  0  0  0  0  0
  -29.7454  -28.0305   28.8791 C   0  0  0  0  0  0  0  0  0  0  0  0
  -24.5838   -9.7630   21.7885 C   0  0  0  0  0  0  0  0  0  0  0  0
  -24.6973  -11.0545   23.8271 C   0  0  0  0  0  0  0  0  0  0  0  0
  -29.5626  -30.0352   30.2071 C   0  0  0  0  0  0  0  0  0  0  0  0
  -28.4584  -28.2431   28.3863 C   0  0  0  0  0  0  0  0  0  0  0  0
  -28.1543  -27.5399   23.3805 C   0  0  0  0  0  0  0  0  0  0  0  0
  -24.2544   -8.6264   22.5268 C   0  0  0  0  0  0  0  0  0  0  0  0
  -24.3678   -9.9179   24.5655 C   0  0  0  0  0  0  0  0  0  0  0  0
  -28.1037  -26.2234   22.9244 C   0  0  0  0  0  0  0  0  0  0  0  0
  -21.5109   -7.3388   24.0262 C   0  0  0  0  0  0  0  0  0  0  0  0
  -20.4677   -6.5407   23.5568 C   0  0  0  0  0  0  0  0  0  0  0  0
  -25.7120  -26.4095   22.6708 C   0  0  0  0  0  0  0  0  0  0  0  0
  -21.9831   -4.6680   23.3733 C   0  0  0  0  0  0  0  0  0  0  0  0
  -24.8054  -10.9771   22.4386 C   0  0  0  0  0  0  0  0  0  0  0  0
  -24.2584  -13.0960   21.1277 C   0  0  0  0  0  0  0  0  0  0  0  0
  -28.2697  -30.2668   29.7117 C   0  0  0  0  0  0  0  0  0  0  0  0
  -26.9808  -28.2988   23.4957 C   0  0  0  0  0  0  0  0  0  0  0  0
  -27.7054  -29.3557   28.7985 C   0  0  0  0  0  0  0  0  0  0  0  0
  -25.7507  -27.7363   23.1262 C   0  0  0  0  0  0  0  0  0  0  0  0
  -24.1463   -8.7039   23.9154 C   0  0  0  0  0  0  0  0  0  0  0  0
  -26.8821  -25.6571   22.5722 C   0  0  0  0  0  0  0  0  0  0  0  0
  -22.7902   -6.8016   24.1692 C   0  0  0  0  0  0  0  0  0  0  0  0
  -20.7038   -5.2053   23.2303 C   0  0  0  0  0  0  0  0  0  0  0  0
  -23.0263   -5.4661   23.8428 C   0  0  0  0  0  0  0  0  0  0  0  0
  -25.1463  -12.1514   21.6765 C   0  0  0  0  0  0  0  0  0  0  0  0
  -25.0721  -14.0102   20.5043 C   0  0  0  0  0  0  0  0  0  0  0  0
  -22.8263  -13.1430   21.1772 C   0  0  0  0  0  0  0  0  0  0  0  0
  -25.4401  -29.6963   25.8993 C   0  0  0  0  0  0  0  0  0  0  0  0
  -23.5720  -30.8557   23.5143 C   0  0  0  0  0  0  0  0  0  0  0  0
  -28.1895  -19.8519   19.0843 C   0  0  0  0  0  0  0  0  0  0  0  0
  -22.3886  -30.5089   20.3322 C   0  0  0  0  0  0  0  0  0  0  0  0
  -29.6193  -17.2455   20.4609 C   0  0  0  0  0  0  0  0  0  0  0  0
  -27.4962  -31.4540   30.2283 C   0  0  0  0  0  0  0  0  0  0  0  0
  -27.0556  -29.7263   23.9640 C   0  0  0  0  0  0  0  0  0  0  0  0
  -24.4646  -28.5153   23.2123 C   0  0  0  0  0  0  0  0  0  0  0  0
  -26.2831  -31.8097   29.3727 C   0  0  0  0  0  0  0  0  0  0  0  0
  -30.0216  -13.8485   19.4734 C   0  0  0  0  0  0  0  0  0  0  0  0
  -25.4812  -30.5565   29.0363 C   0  0  0  0  0  0  0  0  0  0  0  0
  -28.7191  -13.1814   19.9188 C   0  0  0  0  0  0  0  0  0  0  0  0
  -30.4737  -14.9203   20.4628 C   0  0  0  0  0  0  0  0  0  0  0  0
  -28.1555  -15.2762   21.2198 C   0  0  0  0  0  0  0  0  0  0  0  0
  -26.3219  -29.5655   28.2223 C   0  0  1  0  0  0  0  0  0  0  0  0
  -25.7350  -30.2395   24.5298 C   0  0  1  0  0  0  0  0  0  0  0  0
  -27.6299  -14.2268   20.2254 C   0  0  2  0  0  0  0  0  0  0  0  0
  -20.8473  -31.5926   18.6747 C   0  0  0  0  0  0  0  0  0  0  0  0
  -29.6609  -20.2901   16.2385 C   0  0  0  0  0  0  0  0  0  0  0  0
  -28.6766  -22.2760   15.0502 C   0  0  0  0  0  0  0  0  0  0  0  0
  -21.1670  -29.7423   25.0264 C   0  0  0  0  0  0  0  0  0  0  0  0
  -19.8203  -29.9958   22.9311 C   0  0  0  0  0  0  0  0  0  0  0  0
  -20.8126  -32.0063   24.0248 C   0  0  0  0  0  0  0  0  0  0  0  0
  -24.5915  -30.9707   18.4106 C   0  0  0  0  0  0  0  0  0  0  0  0
  -28.6171  -19.5155   20.5019 C   0  0  0  0  0  0  0  0  0  0  0  0
  -27.5231  -22.8127   20.4402 C   0  0  0  0  0  0  0  0  0  0  0  0
  -28.6744  -22.2323   19.6302 C   0  0  0  0  0  0  0  0  0  0  0  0
  -27.8523  -21.6716   17.3754 C   0  0  0  0  0  0  0  0  0  0  0  0
  -27.9738  -23.8785   21.4318 C   0  0  0  0  0  0  0  0  0  1  0  0
  -22.3234  -30.3841   22.8090 C   0  0  1  0  0  0  0  0  0  0  0  0
  -22.2764  -31.4978   19.1859 C   0  0  2  0  0  0  0  0  0  0  0  0
  -29.0434  -21.6788   16.4095 C   0  0  0  0  0  0  0  0  0  0  0  0
  -21.0546  -30.5165   23.6979 C   0  0  0  0  0  0  0  0  0  0  0  0
  -26.4259  -12.4389   21.4238 N   0  0  0  0  0  0  0  0  0  0  0  0
  -26.3481  -13.5744   20.7092 N   0  0  0  0  0  0  0  0  0  0  0  0
  -24.5889  -29.9051   23.6819 N   0  0  0  0  0  0  0  0  0  0  0  0
  -29.3957  -15.8811   20.7091 N   0  0  0  0  0  0  0  0  0  0  0  0
  -24.8134  -15.1363   19.8061 N   0  0  0  0  0  0  0  0  0  0  0  0
  -22.1476  -12.1242   21.8595 N   0  0  0  0  0  0  0  0  0  0  0  0
  -26.4074  -29.9902   26.8414 N   0  0  0  0  0  0  0  0  0  0  0  0
  -22.2559  -31.1291   21.5565 N   0  0  0  0  0  0  0  0  0  0  0  0
  -28.5433  -18.0872   20.7147 N   0  0  0  0  0  0  0  0  0  0  0  0
  -28.2403  -21.2119   18.7166 N   0  0  0  0  0  0  0  0  0  0  0  0
  -23.1534  -31.0816   18.0551 N   0  3  0  0  0  0  0  0  0  0  0  0
  -22.1672  -14.0524   20.6184 O   0  0  0  0  0  0  0  0  0  0  0  0
  -24.4105  -29.0590   26.0877 O   0  0  0  0  0  0  0  0  0  0  0  0
  -23.6453  -32.0264   23.8960 O   0  0  0  0  0  0  0  0  0  0  0  0
  -27.8187  -18.9660   18.3097 O   0  0  0  0  0  0  0  0  0  0  0  0
  -22.5716  -29.3060   20.1587 O   0  0  0  0  0  0  0  0  0  0  0  0
  -30.6962  -17.6805   20.0391 O   0  0  0  0  0  0  0  0  0  0  0  0
  -23.8246   -7.5950   24.6361 O   0  0  0  0  0  0  0  0  0  0  0  0
  -26.8298  -24.3721   22.1273 O   0  0  0  0  0  0  0  0  0  1  0  0
  -19.7017   -4.4385   22.7810 F   0  0  0  0  0  0  0  0  0  0  0  0
  -24.2530   -4.9441   23.9791 F   0  0  0  0  0  0  0  0  0  0  0  0
  1  2  1  0  0  0  0
  1  5  2  0  0  0  0
  2  6  2  0  0  0  0
  3  8  2  0  0  0  0
  3 15  1  0  0  0  0
  4  9  1  0  0  0  0
  4 15  2  0  0  0  0
  5 17  1  0  0  0  0
  6 19  1  0  0  0  0
  7 10  2  0  0  0  0
  7 18  1  0  0  0  0
  8 21  1  0  0  0  0
  9 21  2  0  0  0  0
 10 22  1  0  0  0  0
 11 12  2  0  0  0  0
 11 23  1  0  0  0  0
 12 24  1  0  0  0  0
 13 20  1  0  0  0  0
 13 22  2  0  0  0  0
 14 24  2  0  0  0  0
 14 25  1  0  0  0  0
 15 26  1  0  0  0  0
 16 26  1  0  0  0  0
 16 27  2  0  0  0  0
 16 28  1  0  0  0  0
 17 19  2  0  0  0  0
 17 34  1  0  0  0  0
 18 20  2  0  0  0  0
 18 35  1  0  0  0  0
 19 43  1  0  0  0  0
 20 36  1  0  0  0  0
 21 79  1  0  0  0  0
 22 80  1  0  0  0  0
 23 25  2  0  0  0  0
 23 79  1  0  0  0  0
 24 81  1  0  0  0  0
 25 82  1  0  0  0  0
 26 62  2  0  0  0  0
 27 63  1  0  0  0  0
 27 66  1  0  0  0  0
 28 67  1  0  0  0  0
 28 73  2  0  0  0  0
 29 44  1  0  0  0  0
 29 68  1  0  0  0  0
 29 74  2  0  0  0  0
 30 58  1  0  0  0  0
 30 64  1  0  0  0  0
 30 75  2  0  0  0  0
 31 53  1  0  0  0  0
 31 71  1  0  0  0  0
 31 76  2  0  0  0  0
 32 59  1  0  0  0  0
 32 69  1  0  0  0  0
 32 77  2  0  0  0  0
 33 65  1  0  0  0  0
 33 70  1  0  0  0  0
 33 78  2  0  0  0  0
 34 37  1  0  0  0  0
 35 44  1  0  0  0  0
 36 64  1  0  0  0  0
 37 39  1  0  0  0  0
 38 40  1  0  0  0  0
 38 41  1  0  0  0  0
 39 43  1  0  0  0  0
 40 45  1  0  0  0  0
 41 65  1  0  0  0  0
 42 45  1  0  0  0  0
 42 65  1  0  0  0  0
 43 68  1  0  0  0  0
 44 64  1  0  0  0  0
 45 63  1  0  0  0  0
 46 59  1  0  0  0  0
 47 60  1  0  0  0  0
 48 60  1  0  0  0  0
 49 61  1  0  0  0  0
 50 61  1  0  0  0  0
 51 61  1  0  0  0  0
 52 72  1  0  0  0  0
 53 70  1  0  0  0  0
 54 55  1  0  0  0  0
 54 57  1  0  0  0  0
 55 71  1  0  0  0  0
 56 60  1  0  0  0  0
 56 71  1  0  0  0  0
 57 80  1  0  0  0  0
 58 61  1  0  0  0  0
 58 69  1  0  0  0  0
 59 72  1  0  0  0  0
 62 63  1  0  0  0  0
M  CHG  1  72   1
M  ISO  4  33 100  57 101  70 100  80 101
M  END
> <Batch ID>
0009

> <Smiles>
CNC(C)C(=O)NC(C(=O)N1Cc2cc([101O:1][101CH2:1]CCN(CC(C)C)C(=O)C[100NH:0][100C:0](=O)N3CCCC(n4nc(-c5ccc(Oc6ccc(F)cc6F)cc5)c(C(N)=O)c4N)C3)ccc2CC1C(=O)NC1CCCc2ccccc21)C(C)(C)C

> <Shape>
0.237

> <Color>
0.113

> <Negative vol penalty>
0.000

$$$$

  -OEChem-04042320373D

 80 89  0     1  0  0  0  0  0999 V2000
  -23.7721  -30.5172   13.7887 C   0  0  0  0  0  0  0  0  0  0  0  0
  -23.3085  -29.3811   14.4443 C   0  0  0  0  0  0  0  0  0  0  0  0
  -23.1865   -9.8170   19.9313 C   0  0  0  0  0  0  0  0  0  0  0  0
  -23.5506   -9.9968   22.3130 C   0  0  0  0  0  0  0  0  0  0  0  0
  -25.1400  -30.6934   13.5845 C   0  0  0  0  0  0  0  0  0  0  0  0
  -24.2126  -28.4199   14.8949 C   0  0  0  0  0  0  0  0  0  0  0  0
  -25.1491  -23.6828   20.1864 C   0  0  0  0  0  0  0  0  0  0  0  0
  -22.4145   -8.6735   20.1356 C   0  0  0  0  0  0  0  0  0  0  0  0
  -22.7785   -8.8532   22.5173 C   0  0  0  0  0  0  0  0  0  0  0  0
  -25.4326  -22.3323   20.3854 C   0  0  0  0  0  0  0  0  0  0  0  0
  -23.1682   -5.5049   22.2568 C   0  0  0  0  0  0  0  0  0  0  0  0
  -23.6573   -4.5419   23.1394 C   0  0  0  0  0  0  0  0  0  0  0  0
  -27.7784  -22.7810   20.0467 C   0  0  0  0  0  0  0  0  0  0  0  0
  -21.6930   -4.8100   24.5204 C   0  0  0  0  0  0  0  0  0  0  0  0
  -23.7547  -10.4787   21.0200 C   0  0  0  0  0  0  0  0  0  0  0  0
  -24.1047  -12.9939   20.7776 C   0  0  0  0  0  0  0  0  0  0  0  0
  -26.0620  -29.7385   14.0414 C   0  0  0  0  0  0  0  0  0  0  0  0
  -26.1787  -24.5923   19.9049 C   0  0  0  0  0  0  0  0  0  0  0  0
  -25.5941  -28.5828   14.6954 C   0  0  0  0  0  0  0  0  0  0  0  0
  -27.5057  -24.1430   19.8471 C   0  0  0  0  0  0  0  0  0  0  0  0
  -22.2105   -8.1915   21.4286 C   0  0  0  0  0  0  0  0  0  0  0  0
  -26.7470  -21.8807   20.3127 C   0  0  0  0  0  0  0  0  0  0  0  0
  -21.9415   -6.1205   22.5060 C   0  0  0  0  0  0  0  0  0  0  0  0
  -22.9197   -4.1944   24.2712 C   0  0  0  0  0  0  0  0  0  0  0  0
  -21.2040   -5.7730   23.6377 C   0  0  0  0  0  0  0  0  0  0  0  0
  -24.5528  -11.6597   20.8096 C   0  0  0  0  0  0  0  0  0  0  0  0
  -25.2402  -13.7320   20.5492 C   0  0  0  0  0  0  0  0  0  0  0  0
  -22.7805  -13.5190   20.9399 C   0  0  0  0  0  0  0  0  0  0  0  0
  -26.8832  -26.4961   17.4589 C   0  0  0  0  0  0  0  0  0  0  0  0
  -29.2259  -27.5355   19.4472 C   0  0  0  0  0  0  0  0  0  0  0  0
  -31.2561  -26.8976   22.1152 C   0  0  0  0  0  0  0  0  0  0  0  0
  -29.9335  -14.3791   17.5204 C   0  0  0  0  0  0  0  0  0  0  0  0
  -27.5277  -29.9497   13.7555 C   0  0  0  0  0  0  0  0  0  0  0  0
  -25.8594  -26.0503   19.7192 C   0  0  0  0  0  0  0  0  0  0  0  0
  -28.6495  -25.0823   19.5678 C   0  0  0  0  0  0  0  0  0  0  0  0
  -28.4457  -29.0653   14.5954 C   0  0  0  0  0  0  0  0  0  0  0  0
  -30.1257  -12.4192   20.6147 C   0  0  0  0  0  0  0  0  0  0  0  0
  -27.9433  -27.6250   14.5981 C   0  0  0  0  0  0  0  0  0  0  0  0
  -28.6563  -12.1132   20.9121 C   0  0  0  0  0  0  0  0  0  0  0  0
  -27.7094  -18.0481   16.1358 C   0  0  0  0  0  0  0  0  0  0  0  0
  -30.3922  -12.5510   19.1162 C   0  0  0  0  0  0  0  0  0  0  0  0
  -29.8189  -16.6293   16.4795 C   0  0  0  0  0  0  0  0  0  0  0  0
  -28.0463  -13.1875   18.7160 C   0  0  0  0  0  0  0  0  0  0  0  0
  -28.4492  -16.2645   18.4278 C   0  0  0  0  0  0  0  0  0  0  0  0
  -26.8315  -18.7724   17.1478 C   0  0  0  0  0  0  0  0  0  0  0  0
  -26.5453  -27.5296   15.2209 C   0  0  1  0  0  0  0  0  0  0  0  0
  -26.9279  -26.8002   18.9297 C   0  0  1  0  0  0  0  0  0  0  0  0
  -29.0733  -17.9150   16.8070 C   0  0  2  0  0  0  0  0  0  0  0  0
  -27.7268  -13.1251   20.2155 C   0  0  1  0  0  0  0  0  0  0  0  0
  -28.7363  -17.7548   18.2817 C   0  0  1  0  0  0  0  0  0  0  0  0
  -33.0938  -27.9235   23.4819 C   0  0  0  0  0  0  0  0  0  0  0  0
  -31.2129  -26.9575   17.2050 C   0  0  0  0  0  0  0  0  0  0  0  0
  -33.0531  -27.0822   18.8980 C   0  0  0  0  0  0  0  0  0  0  0  0
  -31.6349  -29.0849   18.4501 C   0  0  0  0  0  0  0  0  0  0  0  0
  -29.6291  -26.8038   24.5856 C   0  0  0  0  0  0  0  0  0  0  0  0
  -26.6686  -18.3420   19.6465 C   0  0  0  0  0  0  0  0  0  0  0  0
  -26.0208  -19.6232   20.1333 C   0  0  0  0  0  0  0  0  0  1  0  0
  -30.6545  -27.1308   19.7198 C   0  0  1  0  0  0  0  0  0  0  0  0
  -31.5927  -27.7220   23.3447 C   0  0  2  0  0  0  0  0  0  0  0  0
  -31.6173  -27.5455   18.5716 C   0  0  0  0  0  0  0  0  0  0  0  0
  -25.8701  -11.5534   20.6167 N   0  0  0  0  0  0  0  0  0  0  0  0
  -26.2597  -12.8302   20.4613 N   0  0  0  0  0  0  0  0  0  0  0  0
  -28.2855  -26.4973   19.3872 N   0  0  0  0  0  0  0  0  0  0  0  0
  -29.4633  -13.4992   18.5013 N   0  0  0  0  0  0  0  0  0  0  0  0
  -29.3402  -15.6388   17.4450 N   0  0  0  0  0  0  0  0  0  0  0  0
  -25.4562  -15.0580   20.4168 N   0  0  0  0  0  0  0  0  0  0  0  0
  -21.7289  -12.6210   21.1677 N   0  0  0  0  0  0  0  0  0  0  0  0
  -26.6291  -27.5976   16.6641 N   0  0  0  0  0  0  0  0  0  0  0  0
  -30.9976  -27.6952   21.0206 N   0  0  0  0  0  0  0  0  0  0  0  0
  -27.5491  -18.6475   18.4775 N   0  3  2  0  0  0  0  0  0  0  0  0
  -31.0950  -27.0440   24.5750 N   0  3  0  0  0  0  0  0  0  0  0  0
  -22.5345  -14.7470   20.8683 O   0  0  0  0  0  0  0  0  0  0  0  0
  -27.0671  -25.3474   17.0735 O   0  0  0  0  0  0  0  0  0  0  0  0
  -28.9532  -28.7296   19.3003 O   0  0  0  0  0  0  0  0  0  0  0  0
  -31.2291  -25.6689   22.1240 O   0  0  0  0  0  0  0  0  0  0  0  0
  -30.8739  -14.0710   16.7764 O   0  0  0  0  0  0  0  0  0  0  0  0
  -21.4569   -7.0758   21.6283 O   0  0  0  0  0  0  0  0  0  0  0  0
  -27.0284  -20.5535   20.5072 O   0  0  0  0  0  0  0  0  0  1  0  0
  -23.3888   -3.2686   25.1179 F   0  0  0  0  0  0  0  0  0  0  0  0
  -20.0243   -6.3602   23.8818 F   0  0  0  0  0  0  0  0  0  0  0  0
  1  2  1  0  0  0  0
  1  5  2  0  0  0  0
  2  6  2  0  0  0  0
  3  8  2  0  0  0  0
  3 15  1  0  0  0  0
  4  9  1  0  0  0  0
  4 15  2  0  0  0  0
  5 17  1  0  0  0  0
  6 19  1  0  0  0  0
  7 10  2  0  0  0  0
  7 18  1  0  0  0  0
  8 21  1  0  0  0  0
  9 21  2  0  0  0  0
 10 22  1  0  0  0  0
 11 12  2  0  0  0  0
 11 23  1  0  0  0  0
 12 24  1  0  0  0  0
 13 20  1  0  0  0  0
 13 22  2  0  0  0  0
 14 24  2  0  0  0  0
 14 25  1  0  0  0  0
 15 26  1  0  0  0  0
 16 26  1  0  0  0  0
 16 27  2  0  0  0  0
 16 28  1  0  0  0  0
 17 19  2  0  0  0  0
 17 33  1  0  0  0  0
 18 20  2  0  0  0  0
 18 34  1  0  0  0  0
 19 46  1  0  0  0  0
 20 35  1  0  0  0  0
 21 77  1  0  0  0  0
 22 78  1  0  0  0  0
 23 25  2  0  0  0  0
 23 77  1  0  0  0  0
 24 79  1  0  0  0  0
 25 80  1  0  0  0  0
 26 61  2  0  0  0  0
 27 62  1  0  0  0  0
 27 66  1  0  0  0  0
 28 67  1  0  0  0  0
 28 72  2  0  0  0  0
 29 47  1  0  0  0  0
 29 68  1  0  0  0  0
 29 73  2  0  0  0  0
 30 58  1  0  0  0  0
 30 63  1  0  0  0  0
 30 74  2  0  0  0  0
 31 59  1  0  0  0  0
 31 69  1  0  0  0  0
 31 75  2  0  0  0  0
 32 64  1  0  0  0  0
 32 65  1  0  0  0  0
 32 76  2  0  0  0  0
 33 36  1  0  0  0  0
 34 47  1  0  0  0  0
 35 63  1  0  0  0  0
 36 38  1  0  0  0  0
 37 39  1  0  0  0  0
 37 41  1  0  0  0  0
 38 46  1  0  0  0  0
 39 49  1  0  0  0  0
 40 45  1  0  0  0  0
 40 48  1  0  0  0  0
 41 64  1  0  0  0  0
 42 48  1  0  0  0  0
 42 65  1  0  0  0  0
 43 49  1  0  0  0  0
 43 64  1  0  0  0  0
 44 50  1  0  0  0  0
 44 65  1  0  0  0  0
 45 70  1  0  0  0  0
 46 68  1  0  0  0  0
 47 63  1  0  0  0  0
 48 50  1  0  0  0  0
 49 62  1  0  0  0  0
 50 70  1  0  0  0  0
 51 59  1  0  0  0  0
 52 60  1  0  0  0  0
 53 60  1  0  0  0  0
 54 60  1  0  0  0  0
 55 71  1  0  0  0  0
 56 57  1  0  0  0  0
 56 70  1  0  0  0  0
 57 78  1  0  0  0  0
 58 60  1  0  0  0  0
 58 69  1  0  0  0  0
 59 71  1  0  0  0  0
 61 62  1  0  0  0  0
M  CHG  2  70   1  71   1
M  ISO  4  32 100  57 101  65 100  78 101
M  END
> <Batch ID>
0009

> <Smiles>
CNC(C)C(=O)NC(C(=O)N1Cc2cc([101O:1][101CH2:1]CN3CCC4C[100N:0]([100C:0](=O)N5CCCC(n6nc(-c7ccc(Oc8ccc(F)cc8F)cc7)c(C(N)=O)c6N)C5)CC43)ccc2CC1C(=O)NC1CCCc2ccccc21)C(C)(C)C

> <Shape>
0.222

> <Color>
0.182

> <Negative vol penalty>
0.000

$$$$

  -OEChem-04042320373D

 83 91  0     1  0  0  0  0  0999 V2000
  -18.9540  -24.2677   22.7461 C   0  0  0  0  0  0  0  0  0  0  0  0
  -18.8118  -22.9127   22.4644 C   0  0  0  0  0  0  0  0  0  0  0  0
  -29.3389  -12.1580   18.0171 C   0  0  0  0  0  0  0  0  0  0  0  0
  -26.5071  -25.9320   17.6606 C   0  0  0  0  0  0  0  0  0  0  0  0
  -26.3233  -25.6009   20.0468 C   0  0  0  0  0  0  0  0  0  0  0  0
  -20.2174  -24.8564   22.7137 C   0  0  0  0  0  0  0  0  0  0  0  0
  -19.9330  -22.1459   22.1491 C   0  0  0  0  0  0  0  0  0  0  0  0
  -22.5405  -15.5122   22.8638 C   0  0  0  0  0  0  0  0  0  0  0  0
  -29.7125  -13.4414   18.4155 C   0  0  0  0  0  0  0  0  0  0  0  0
  -28.7403  -11.2906   18.9309 C   0  0  0  0  0  0  0  0  0  0  0  0
  -25.6044  -26.9925   17.7382 C   0  0  0  0  0  0  0  0  0  0  0  0
  -25.4206  -26.6615   20.1244 C   0  0  0  0  0  0  0  0  0  0  0  0
  -23.0875  -14.4819   22.1003 C   0  0  0  0  0  0  0  0  0  0  0  0
  -23.3442  -29.5132   21.0046 C   0  0  0  0  0  0  0  0  0  0  0  0
  -23.5192  -30.4408   22.0314 C   0  0  0  0  0  0  0  0  0  0  0  0
  -25.2301  -15.5890   22.1521 C   0  0  0  0  0  0  0  0  0  0  0  0
  -28.8889  -12.9901   20.6415 C   0  0  0  0  0  0  0  0  0  0  0  0
  -25.7178  -30.9685   21.1802 C   0  0  0  0  0  0  0  0  0  0  0  0
  -26.8664  -25.2361   18.8149 C   0  0  0  0  0  0  0  0  0  0  0  0
  -29.1997  -24.2055   18.8526 C   0  0  0  0  0  0  0  0  0  0  0  0
  -21.3559  -24.0944   22.4073 C   0  0  0  0  0  0  0  0  0  0  0  0
  -23.3329  -16.5960   23.2687 C   0  0  0  0  0  0  0  0  0  0  0  0
  -21.2127  -22.7253   22.1113 C   0  0  0  0  0  0  0  0  0  0  0  0
  -24.6914  -16.6306   22.9229 C   0  0  0  0  0  0  0  0  0  0  0  0
  -29.4875  -13.8575   19.7277 C   0  0  0  0  0  0  0  0  0  0  0  0
  -28.5153  -11.7066   20.2431 C   0  0  0  0  0  0  0  0  0  0  0  0
  -25.0612  -27.3573   18.9701 C   0  0  0  0  0  0  0  0  0  0  0  0
  -24.4318  -14.5216   21.7419 C   0  0  0  0  0  0  0  0  0  0  0  0
  -24.3561  -29.3131   20.0655 C   0  0  0  0  0  0  0  0  0  0  0  0
  -24.7060  -31.1685   22.1193 C   0  0  0  0  0  0  0  0  0  0  0  0
  -25.5429  -30.0408   20.1533 C   0  0  0  0  0  0  0  0  0  0  0  0
  -27.7984  -24.1401   18.7354 C   0  0  0  0  0  0  0  0  0  0  0  0
  -29.6177  -22.9055   18.7053 C   0  0  0  0  0  0  0  0  0  0  0  0
  -30.0478  -25.3400   19.0748 C   0  0  0  0  0  0  0  0  0  0  0  0
  -23.2824  -19.7308   22.7454 C   0  0  0  0  0  0  0  0  0  0  0  0
  -25.6945  -19.7381   24.9143 C   0  0  0  0  0  0  0  0  0  0  0  0
  -28.2110  -18.0229   26.4544 C   0  0  0  0  0  0  0  0  0  0  0  0
  -29.1590  -17.5931   19.9361 C   0  0  0  0  0  0  0  0  0  0  0  0
  -22.6948  -24.7852   22.3382 C   0  0  0  0  0  0  0  0  0  0  0  0
  -22.7342  -17.6861   24.1146 C   0  0  0  0  0  0  0  0  0  0  0  0
  -25.5897  -17.7617   23.3496 C   0  0  0  0  0  0  0  0  0  0  0  0
  -23.8790  -23.8221   22.3621 C   0  0  0  0  0  0  0  0  0  0  0  0
  -27.0949  -18.7828   17.2118 C   0  0  0  0  0  0  0  0  0  0  0  0
  -23.6472  -22.6669   21.3933 C   0  0  0  0  0  0  0  0  0  0  0  0
  -27.2135  -20.2987   17.3799 C   0  0  0  0  0  0  0  0  0  0  0  0
  -27.0434  -18.0790   18.5646 C   0  0  0  0  0  0  0  0  0  0  0  0
  -28.3111  -19.9022   19.6333 C   0  0  0  0  0  0  0  0  0  0  0  0
  -22.4081  -21.8550   21.7892 C   0  0  1  0  0  0  0  0  0  0  0  0
  -23.5104  -18.9972   24.0367 C   0  0  1  0  0  0  0  0  0  0  0  0
  -28.3906  -20.6699   18.3013 C   0  0  2  0  0  0  0  0  0  0  0  0
  -30.0345  -18.3059   28.1550 C   0  0  0  0  0  0  0  0  0  0  0  0
  -27.3621  -21.2684   22.8680 C   0  0  0  0  0  0  0  0  0  0  0  0
  -29.4009  -20.6923   24.2022 C   0  0  0  0  0  0  0  0  0  0  0  0
  -27.5964  -22.0804   25.2218 C   0  0  0  0  0  0  0  0  0  0  0  0
  -27.0490  -15.9481   28.2161 C   0  0  0  0  0  0  0  0  0  0  0  0
  -26.2808  -10.7077   23.1402 C   0  0  0  0  0  0  0  0  0  0  0  0
  -29.8859  -15.2305   20.1525 C   0  0  0  0  0  0  0  0  0  0  0  0
  -27.8721  -10.7733   21.2260 C   0  0  0  0  0  0  0  0  0  0  0  0
  -25.4436  -11.1655   20.8399 C   0  0  0  0  0  0  0  0  0  0  0  0
  -24.3980  -12.2185   21.1500 C   0  0  0  0  0  0  0  0  0  1  0  0
  -27.1972  -19.6129   24.8424 C   0  0  1  0  0  0  0  0  0  0  0  0
  -28.5909  -17.8904   27.9181 C   0  0  2  0  0  0  0  0  0  0  0  0
  -27.8720  -20.8930   24.2738 C   0  0  0  0  0  0  0  0  0  0  0  0
  -27.3557  -22.8969   18.5293 N   0  0  0  0  0  0  0  0  0  0  0  0
  -28.4854  -22.1691   18.5158 N   0  0  0  0  0  0  0  0  0  0  0  0
  -24.9561  -18.8070   24.1702 N   0  0  0  0  0  0  0  0  0  0  0  0
  -28.2010  -18.4608   19.3857 N   0  0  0  0  0  0  0  0  0  0  0  0
  -30.8396  -22.3319   18.7205 N   0  0  0  0  0  0  0  0  0  0  0  0
  -29.4540  -26.6030   19.2036 N   0  0  0  0  0  0  0  0  0  0  0  0
  -22.7115  -20.9795   22.9010 N   0  0  0  0  0  0  0  0  0  0  0  0
  -27.6411  -19.2489   26.1836 N   0  0  0  0  0  0  0  0  0  0  0  0
  -28.9787  -16.2432   19.6602 N   0  0  0  0  0  0  0  0  0  0  0  0
  -28.4277  -16.4796   28.3699 N   0  3  0  0  0  0  0  0  0  0  0  0
  -26.5775  -11.3069   21.7878 N   0  3  1  0  0  0  0  0  0  0  0  0
  -31.2964  -25.2391   19.1405 O   0  0  0  0  0  0  0  0  0  0  0  0
  -23.6022  -19.2036   21.6864 O   0  0  0  0  0  0  0  0  0  0  0  0
  -25.1942  -20.6248   25.6108 O   0  0  0  0  0  0  0  0  0  0  0  0
  -28.4042  -17.1297   25.6325 O   0  0  0  0  0  0  0  0  0  0  0  0
  -30.1084  -17.9924   20.6188 O   0  0  0  0  0  0  0  0  0  0  0  0
  -24.1806  -28.3924   19.0462 O   0  0  0  0  0  0  0  0  0  0  0  0
  -24.9681  -13.5175   20.9961 O   0  0  0  0  0  0  0  0  0  1  0  0
  -24.8732  -32.0604   23.1045 F   0  0  0  0  0  0  0  0  0  0  0  0
  -26.5181  -29.8538   19.2535 F   0  0  0  0  0  0  0  0  0  0  0  0
  1  2  1  0  0  0  0
  1  6  2  0  0  0  0
  2  7  2  0  0  0  0
  3  9  1  0  0  0  0
  3 10  2  0  0  0  0
  4 11  2  0  0  0  0
  4 19  1  0  0  0  0
  5 12  1  0  0  0  0
  5 19  2  0  0  0  0
  6 21  1  0  0  0  0
  7 23  1  0  0  0  0
  8 13  2  0  0  0  0
  8 22  1  0  0  0  0
  9 25  2  0  0  0  0
 10 26  1  0  0  0  0
 11 27  1  0  0  0  0
 12 27  2  0  0  0  0
 13 28  1  0  0  0  0
 14 15  2  0  0  0  0
 14 29  1  0  0  0  0
 15 30  1  0  0  0  0
 16 24  1  0  0  0  0
 16 28  2  0  0  0  0
 17 25  1  0  0  0  0
 17 26  2  0  0  0  0
 18 30  2  0  0  0  0
 18 31  1  0  0  0  0
 19 32  1  0  0  0  0
 20 32  1  0  0  0  0
 20 33  2  0  0  0  0
 20 34  1  0  0  0  0
 21 23  2  0  0  0  0
 21 39  1  0  0  0  0
 22 24  2  0  0  0  0
 22 40  1  0  0  0  0
 23 48  1  0  0  0  0
 24 41  1  0  0  0  0
 25 57  1  0  0  0  0
 26 58  1  0  0  0  0
 27 80  1  0  0  0  0
 28 81  1  0  0  0  0
 29 31  2  0  0  0  0
 29 80  1  0  0  0  0
 30 82  1  0  0  0  0
 31 83  1  0  0  0  0
 32 64  2  0  0  0  0
 33 65  1  0  0  0  0
 33 68  1  0  0  0  0
 34 69  1  0  0  0  0
 34 75  2  0  0  0  0
 35 49  1  0  0  0  0
 35 70  1  0  0  0  0
 35 76  2  0  0  0  0
 36 61  1  0  0  0  0
 36 66  1  0  0  0  0
 36 77  2  0  0  0  0
 37 62  1  0  0  0  0
 37 71  1  0  0  0  0
 37 78  2  0  0  0  0
 38 67  1  0  0  0  0
 38 72  1  0  0  0  0
 38 79  2  0  0  0  0
 39 42  1  0  0  0  0
 40 49  1  0  0  0  0
 41 66  1  0  0  0  0
 42 44  1  0  0  0  0
 43 45  1  0  0  0  0
 43 46  1  0  0  0  0
 44 48  1  0  0  0  0
 45 50  1  0  0  0  0
 46 67  1  0  0  0  0
 47 50  1  0  0  0  0
 47 67  1  0  0  0  0
 48 70  1  0  0  0  0
 49 66  1  0  0  0  0
 50 65  1  0  0  0  0
 51 62  1  0  0  0  0
 52 63  1  0  0  0  0
 53 63  1  0  0  0  0
 54 63  1  0  0  0  0
 55 73  1  0  0  0  0
 56 74  1  0  0  0  0
 57 72  1  0  0  0  0
 58 74  1  0  0  0  0
 59 60  1  0  0  0  0
 59 74  1  0  0  0  0
 60 81  1  0  0  0  0
 61 63  1  0  0  0  0
 61 71  1  0  0  0  0
 62 73  1  0  0  0  0
 64 65  1  0  0  0  0
M  CHG  2  73   1  74   1
M  ISO  4  38 100  60 101  72 100  81 101
M  END
> <Batch ID>
0009

> <Smiles>
CNC(C)C(=O)NC(C(=O)N1Cc2cc([101O:1][101CH2:1]CN(C)Cc3cccc(C[100NH:0][100C:0](=O)N4CCCC(n5nc(-c6ccc(Oc7ccc(F)cc7F)cc6)c(C(N)=O)c5N)C4)c3)ccc2CC1C(=O)NC1CCCc2ccccc21)C(C)(C)C

> <Shape>
0.209

> <Color>
0.061

> <Negative vol penalty>
0.000

$$$$

  -OEChem-04042320373D

 79 87  0     1  0  0  0  0  0999 V2000
  -23.3441   -6.3416   24.2992 C   0  0  0  0  0  0  0  0  0  0  0  0
  -24.5661   -7.0065   24.3070 C   0  0  0  0  0  0  0  0  0  0  0  0
  -26.1003  -30.7071   20.8867 C   0  0  0  0  0  0  0  0  0  0  0  0
  -23.9565  -29.6755   20.4660 C   0  0  0  0  0  0  0  0  0  0  0  0
  -22.4219   -6.5924   23.2841 C   0  0  0  0  0  0  0  0  0  0  0  0
  -24.8671   -7.9217   23.2989 C   0  0  0  0  0  0  0  0  0  0  0  0
  -28.4368  -14.0326   22.1904 C   0  0  0  0  0  0  0  0  0  0  0  0
  -25.5635  -31.3733   21.9884 C   0  0  0  0  0  0  0  0  0  0  0  0
  -23.4197  -30.3416   21.5677 C   0  0  0  0  0  0  0  0  0  0  0  0
  -29.3998  -14.5790   21.3430 C   0  0  0  0  0  0  0  0  0  0  0  0
  -23.6394  -34.0928   22.5597 C   0  0  0  0  0  0  0  0  0  0  0  0
  -23.9427  -35.4460   22.7088 C   0  0  0  0  0  0  0  0  0  0  0  0
  -27.6975  -14.9908   19.6840 C   0  0  0  0  0  0  0  0  0  0  0  0
  -24.9681  -34.9807   24.8464 C   0  0  0  0  0  0  0  0  0  0  0  0
  -25.2967  -29.8583   20.1254 C   0  0  0  0  0  0  0  0  0  0  0  0
  -26.4278  -29.7503   17.8414 C   0  0  0  0  0  0  0  0  0  0  0  0
  -22.7077   -7.5183   22.2684 C   0  0  0  0  0  0  0  0  0  0  0  0
  -27.0966  -13.9512   21.7859 C   0  0  0  0  0  0  0  0  0  0  0  0
  -23.9484   -8.1840   22.2685 C   0  0  0  0  0  0  0  0  0  0  0  0
  -26.7191  -14.4453   20.5292 C   0  0  0  0  0  0  0  0  0  0  0  0
  -24.2233  -31.1905   22.3289 C   0  0  0  0  0  0  0  0  0  0  0  0
  -29.0307  -15.0555   20.0885 C   0  0  0  0  0  0  0  0  0  0  0  0
  -24.0004  -33.1834   23.5540 C   0  0  0  0  0  0  0  0  0  0  0  0
  -24.6070  -35.8900   23.8521 C   0  0  0  0  0  0  0  0  0  0  0  0
  -24.6647  -33.6274   24.6973 C   0  0  0  0  0  0  0  0  0  0  0  0
  -25.8505  -29.1704   18.9869 C   0  0  0  0  0  0  0  0  0  0  0  0
  -26.7967  -28.6802   17.0635 C   0  0  0  0  0  0  0  0  0  0  0  0
  -26.6141  -31.1328   17.5102 C   0  0  0  0  0  0  0  0  0  0  0  0
  -25.0427  -11.5758   21.2932 C   0  0  0  0  0  0  0  0  0  0  0  0
  -22.9352  -14.0053   20.8708 C   0  0  0  0  0  0  0  0  0  0  0  0
  -22.9226  -17.2285   19.2497 C   0  0  0  0  0  0  0  0  0  0  0  0
  -28.1883  -23.1105   18.4410 C   0  0  0  0  0  0  0  0  0  0  0  0
  -21.6987   -7.7210   21.1659 C   0  0  0  0  0  0  0  0  0  0  0  0
  -26.0655  -13.3835   22.7223 C   0  0  0  0  0  0  0  0  0  0  0  0
  -25.2901  -14.3996   20.0557 C   0  0  0  0  0  0  0  0  0  0  0  0
  -21.9420   -8.9830   20.3421 C   0  0  0  0  0  0  0  0  0  0  0  0
  -25.6013  -24.1408   16.1295 C   0  0  0  0  0  0  0  0  0  0  0  0
  -23.4144   -9.0954   19.9598 C   0  0  0  0  0  0  0  0  0  0  0  0
  -25.4315  -25.6151   16.5005 C   0  0  0  0  0  0  0  0  0  0  0  0
  -29.2525  -20.2273   19.5815 C   0  0  0  0  0  0  0  0  0  0  0  0
  -29.5976  -19.9654   17.0972 C   0  0  0  0  0  0  0  0  0  0  0  0
  -25.8631  -23.2862   17.3661 C   0  0  0  0  0  0  0  0  0  0  0  0
  -26.8605  -25.2000   18.5561 C   0  0  0  0  0  0  0  0  0  0  0  0
  -30.4258  -19.2903   19.8368 C   0  0  0  0  0  0  0  0  0  0  0  0
  -30.7683  -19.0287   17.3651 C   0  0  0  0  0  0  0  0  0  0  0  0
  -24.3014   -9.2023   21.2061 C   0  0  1  0  0  0  0  0  0  0  0  0
  -24.8175  -12.8808   22.0031 C   0  0  1  0  0  0  0  0  0  0  0  0
  -26.6155  -26.1201   17.3463 C   0  0  2  0  0  0  0  0  0  0  0  0
  -29.3957  -20.9553   18.2445 C   0  0  0  0  0  0  0  0  0  0  0  0
  -21.5812  -19.2932   19.7343 C   0  0  0  0  0  0  0  0  0  0  0  0
  -21.0233  -12.9074   18.7614 C   0  0  0  0  0  0  0  0  0  0  0  0
  -20.6754  -15.2526   17.9567 C   0  0  0  0  0  0  0  0  0  0  0  0
  -20.0252  -14.6242   20.2816 C   0  0  0  0  0  0  0  0  0  0  0  0
  -25.3579  -18.8899   19.5108 C   0  0  0  0  0  0  0  0  0  0  0  0
  -31.6287  -17.2991   18.9408 C   0  0  0  0  0  0  0  0  0  0  0  0
  -31.0861  -16.2319   19.8707 C   0  0  0  0  0  0  0  0  0  1  0  0
  -22.4753  -14.8288   19.6922 C   0  0  1  0  0  0  0  0  0  0  0  0
  -22.9139  -18.5867   19.9277 C   0  0  2  0  0  0  0  0  0  0  0  0
  -21.0759  -14.3920   19.1740 C   0  0  0  0  0  0  0  0  0  0  0  0
  -25.8502  -27.8354   18.9445 N   0  0  0  0  0  0  0  0  0  0  0  0
  -26.4318  -27.5676   17.7629 N   0  0  0  0  0  0  0  0  0  0  0  0
  -24.3197  -13.8295   21.0049 N   0  0  0  0  0  0  0  0  0  0  0  0
  -27.0136  -23.8091   18.1165 N   0  0  0  0  0  0  0  0  0  0  0  0
  -27.3944  -28.5917   15.8563 N   0  0  0  0  0  0  0  0  0  0  0  0
  -25.5972  -31.7946   16.8084 N   0  0  0  0  0  0  0  0  0  0  0  0
  -24.2482  -10.5420   21.7509 N   0  0  0  0  0  0  0  0  0  0  0  0
  -22.5473  -16.2231   20.1154 N   0  0  0  0  0  0  0  0  0  0  0  0
  -28.2511  -21.7965   17.9937 N   0  0  0  0  0  0  0  0  0  0  0  0
  -30.5588  -18.3245   18.6840 N   0  3  0  0  0  0  0  0  0  0  0  0
  -23.9903  -19.4521   19.3677 N   0  3  0  0  0  0  0  0  0  0  0  0
  -27.6585  -31.7583   17.8127 O   0  0  0  0  0  0  0  0  0  0  0  0
  -25.8746  -11.5119   20.3957 O   0  0  0  0  0  0  0  0  0  0  0  0
  -22.0973  -13.5412   21.6481 O   0  0  0  0  0  0  0  0  0  0  0  0
  -23.2280  -17.0753   18.0691 O   0  0  0  0  0  0  0  0  0  0  0  0
  -29.1156  -23.6217   19.0781 O   0  0  0  0  0  0  0  0  0  0  0  0
  -23.6993  -31.8401   23.4041 O   0  0  0  0  0  0  0  0  0  0  0  0
  -29.9687  -15.5887   19.2591 O   0  0  0  0  0  0  0  0  0  1  0  0
  -24.8996  -37.1894   23.9945 F   0  0  0  0  0  0  0  0  0  0  0  0
  -25.0151  -32.7583   25.6553 F   0  0  0  0  0  0  0  0  0  0  0  0
  1  2  1  0  0  0  0
  1  5  2  0  0  0  0
  2  6  2  0  0  0  0
  3  8  2  0  0  0  0
  3 15  1  0  0  0  0
  4  9  1  0  0  0  0
  4 15  2  0  0  0  0
  5 17  1  0  0  0  0
  6 19  1  0  0  0  0
  7 10  2  0  0  0  0
  7 18  1  0  0  0  0
  8 21  1  0  0  0  0
  9 21  2  0  0  0  0
 10 22  1  0  0  0  0
 11 12  2  0  0  0  0
 11 23  1  0  0  0  0
 12 24  1  0  0  0  0
 13 20  1  0  0  0  0
 13 22  2  0  0  0  0
 14 24  2  0  0  0  0
 14 25  1  0  0  0  0
 15 26  1  0  0  0  0
 16 26  1  0  0  0  0
 16 27  2  0  0  0  0
 16 28  1  0  0  0  0
 17 19  2  0  0  0  0
 17 33  1  0  0  0  0
 18 20  2  0  0  0  0
 18 34  1  0  0  0  0
 19 46  1  0  0  0  0
 20 35  1  0  0  0  0
 21 76  1  0  0  0  0
 22 77  1  0  0  0  0
 23 25  2  0  0  0  0
 23 76  1  0  0  0  0
 24 78  1  0  0  0  0
 25 79  1  0  0  0  0
 26 60  2  0  0  0  0
 27 61  1  0  0  0  0
 27 64  1  0  0  0  0
 28 65  1  0  0  0  0
 28 71  2  0  0  0  0
 29 47  1  0  0  0  0
 29 66  1  0  0  0  0
 29 72  2  0  0  0  0
 30 57  1  0  0  0  0
 30 62  1  0  0  0  0
 30 73  2  0  0  0  0
 31 58  1  0  0  0  0
 31 67  1  0  0  0  0
 31 74  2  0  0  0  0
 32 63  1  0  0  0  0
 32 68  1  0  0  0  0
 32 75  2  0  0  0  0
 33 36  1  0  0  0  0
 34 47  1  0  0  0  0
 35 62  1  0  0  0  0
 36 38  1  0  0  0  0
 37 39  1  0  0  0  0
 37 42  1  0  0  0  0
 38 46  1  0  0  0  0
 39 48  1  0  0  0  0
 40 44  1  0  0  0  0
 40 49  1  0  0  0  0
 41 45  1  0  0  0  0
 41 49  1  0  0  0  0
 42 63  1  0  0  0  0
 43 48  1  0  0  0  0
 43 63  1  0  0  0  0
 44 69  1  0  0  0  0
 45 69  1  0  0  0  0
 46 66  1  0  0  0  0
 47 62  1  0  0  0  0
 48 61  1  0  0  0  0
 49 68  1  0  0  0  0
 50 58  1  0  0  0  0
 51 59  1  0  0  0  0
 52 59  1  0  0  0  0
 53 59  1  0  0  0  0
 54 70  1  0  0  0  0
 55 56  1  0  0  0  0
 55 69  1  0  0  0  0
 56 77  1  0  0  0  0
 57 59  1  0  0  0  0
 57 67  1  0  0  0  0
 58 70  1  0  0  0  0
 60 61  1  0  0  0  0
M  CHG  2  69   1  70   1
M  ISO  4  32 100  56 101  68 100  77 101
M  END
> <Batch ID>
0009

> <Smiles>
CNC(C)C(=O)NC(C(=O)N1Cc2cc([101O:1][101CH2:1]CN3CCC([100NH:0][100C:0](=O)N4CCCC(n5nc(-c6ccc(Oc7ccc(F)cc7F)cc6)c(C(N)=O)c5N)C4)CC3)ccc2CC1C(=O)NC1CCCc2ccccc21)C(C)(C)C

> <Shape>
0.238

> <Color>
0.076

> <Negative vol penalty>
0.000

$$$$

  -OEChem-04042320373D

 84 93  0     1  0  0  0  0  0999 V2000
  -24.3628  -32.5646   22.8969 C   0  0  0  0  0  0  0  0  0  0  0  0
  -25.7000  -32.1814   22.8700 C   0  0  0  0  0  0  0  0  0  0  0  0
  -23.0764   -9.8674   19.9440 C   0  0  0  0  0  0  0  0  0  0  0  0
  -23.8336   -9.8799   22.2382 C   0  0  0  0  0  0  0  0  0  0  0  0
  -23.4038  -31.7070   23.4341 C   0  0  0  0  0  0  0  0  0  0  0  0
  -26.0789  -30.9407   23.3813 C   0  0  0  0  0  0  0  0  0  0  0  0
  -30.8503  -25.6982   22.3485 C   0  0  0  0  0  0  0  0  0  0  0  0
  -32.6845  -17.4588   23.4171 C   0  0  0  0  0  0  0  0  0  0  0  0
  -32.0662  -16.5860   22.5218 C   0  0  0  0  0  0  0  0  0  0  0  0
  -22.3317   -8.7152   20.1960 C   0  0  0  0  0  0  0  0  0  0  0  0
  -23.0889   -8.7278   22.4903 C   0  0  0  0  0  0  0  0  0  0  0  0
  -31.7968  -24.9502   23.0474 C   0  0  0  0  0  0  0  0  0  0  0  0
  -21.1011   -5.9951   23.8317 C   0  0  0  0  0  0  0  0  0  0  0  0
  -20.3434   -5.9549   25.0021 C   0  0  0  0  0  0  0  0  0  0  0  0
  -30.0425  -23.5181   23.8785 C   0  0  0  0  0  0  0  0  0  0  0  0
  -30.5262  -18.3471   24.0415 C   0  0  0  0  0  0  0  0  0  0  0  0
  -19.1006   -7.8909   24.2640 C   0  0  0  0  0  0  0  0  0  0  0  0
  -23.8274  -10.4497   20.9650 C   0  0  0  0  0  0  0  0  0  0  0  0
  -24.1706  -12.9744   20.8389 C   0  0  0  0  0  0  0  0  0  0  0  0
  -23.7699  -30.4511   23.9434 C   0  0  0  0  0  0  0  0  0  0  0  0
  -29.4893  -25.3678   22.4183 C   0  0  0  0  0  0  0  0  0  0  0  0
  -25.1241  -30.0660   23.9270 C   0  0  0  0  0  0  0  0  0  0  0  0
  -29.0810  -24.2619   23.1776 C   0  0  0  0  0  0  0  0  0  0  0  0
  -31.9145  -18.3393   24.1770 C   0  0  0  0  0  0  0  0  0  0  0  0
  -30.6780  -16.5938   22.3862 C   0  0  0  0  0  0  0  0  0  0  0  0
  -22.3379   -8.1454   21.4692 C   0  0  0  0  0  0  0  0  0  0  0  0
  -31.3926  -23.8617   23.8149 C   0  0  0  0  0  0  0  0  0  0  0  0
  -20.8586   -6.9832   22.8774 C   0  0  0  0  0  0  0  0  0  0  0  0
  -19.3432   -6.9027   25.2183 C   0  0  0  0  0  0  0  0  0  0  0  0
  -19.8584   -7.9311   23.0936 C   0  0  0  0  0  0  0  0  0  0  0  0
  -29.9080  -17.4744   23.1461 C   0  0  0  0  0  0  0  0  0  0  0  0
  -24.5974  -11.6396   20.7051 C   0  0  0  0  0  0  0  0  0  0  0  0
  -25.2635  -13.7224   20.4750 C   0  0  0  0  0  0  0  0  0  0  0  0
  -22.8998  -13.4919   21.2550 C   0  0  0  0  0  0  0  0  0  0  0  0
  -26.8725  -26.8454   23.4541 C   0  0  0  0  0  0  0  0  0  0  0  0
  -25.3829  -24.2502   22.2016 C   0  0  0  0  0  0  0  0  0  0  0  0
  -25.0990  -20.7161   21.5335 C   0  0  0  0  0  0  0  0  0  0  0  0
  -30.7300  -14.7659   20.6534 C   0  0  0  0  0  0  0  0  0  0  0  0
  -22.7042  -29.5779   24.5571 C   0  0  0  0  0  0  0  0  0  0  0  0
  -28.4837  -26.1684   21.6370 C   0  0  0  0  0  0  0  0  0  0  0  0
  -27.6342  -23.8534   23.2691 C   0  0  0  0  0  0  0  0  0  0  0  0
  -23.1364  -28.1249   24.7372 C   0  0  0  0  0  0  0  0  0  0  0  0
  -29.6172  -12.3465   18.2901 C   0  0  0  0  0  0  0  0  0  0  0  0
  -24.5282  -28.0550   25.3576 C   0  0  0  0  0  0  0  0  0  0  0  0
  -28.1770  -12.0567   18.7187 C   0  0  0  0  0  0  0  0  0  0  0  0
  -34.5834  -22.3406   24.5898 C   0  0  0  0  0  0  0  0  0  0  0  0
  -30.5310  -12.5780   19.4922 C   0  0  0  0  0  0  0  0  0  0  0  0
  -28.6228  -13.3069   20.8693 C   0  0  0  0  0  0  0  0  0  0  0  0
  -34.2622  -21.1273   25.4391 C   0  0  0  0  0  0  0  0  0  0  0  0
  -32.9272  -21.0753   23.3861 C   0  0  0  0  0  0  0  0  0  0  0  0
  -25.5710  -28.7179   24.4494 C   0  0  1  0  0  0  0  0  0  0  0  0
  -27.0673  -26.0536   22.1920 C   0  0  1  0  0  0  0  0  0  0  0  0
  -27.6513  -13.1311   19.6908 C   0  0  2  0  0  0  0  0  0  0  0  0
  -33.3390  -22.4975   23.7330 C   0  0  1  0  0  0  0  0  0  1  0  0
  -23.3788  -19.4350   20.2308 C   0  0  0  0  0  0  0  0  0  0  0  0
  -24.0325  -23.8733   24.9116 C   0  0  0  0  0  0  0  0  0  0  0  0
  -23.4370  -21.5441   24.2127 C   0  0  0  0  0  0  0  0  0  0  0  0
  -22.5405  -23.4937   22.9408 C   0  0  0  0  0  0  0  0  0  0  0  0
  -27.1580  -19.4925   19.7950 C   0  0  0  0  0  0  0  0  0  0  0  0
  -32.5802  -19.2780   25.1396 C   0  0  0  0  0  0  0  0  0  0  0  0
  -24.9859  -22.8902   22.7229 C   0  0  1  0  0  0  0  0  0  0  0  0
  -24.7618  -20.0669   20.2033 C   0  0  2  0  0  0  0  0  0  0  0  0
  -23.7761  -22.9589   23.6970 C   0  0  0  0  0  0  0  0  0  0  0  0
  -25.8627  -11.5421   20.2886 N   0  0  0  0  0  0  0  0  0  0  0  0
  -26.2403  -12.8251   20.1574 N   0  0  0  0  0  0  0  0  0  0  0  0
  -26.6883  -24.6715   22.4923 N   0  0  0  0  0  0  0  0  0  0  0  0
  -29.9715  -13.6114   20.3663 N   0  0  0  0  0  0  0  0  0  0  0  0
  -25.4746  -15.0536   20.3987 N   0  0  0  0  0  0  0  0  0  0  0  0
  -21.8871  -12.5841   21.5934 N   0  0  0  0  0  0  0  0  0  0  0  0
  -30.0821  -15.6934   21.4687 N   0  0  0  0  0  0  0  0  0  0  0  0
  -25.9178  -27.8393   23.3530 N   0  0  0  0  0  0  0  0  0  0  0  0
  -24.7615  -22.0529   21.5495 N   0  0  0  0  0  0  0  0  0  0  0  0
  -33.5423  -20.2111   24.4773 N   0  3  2  0  0  0  0  0  0  0  0  0
  -25.7567  -19.0063   19.8775 N   0  3  0  0  0  0  0  0  0  0  0  0
  -22.6641  -14.7228   21.3088 O   0  0  0  0  0  0  0  0  0  0  0  0
  -27.5379  -26.5737   24.4466 O   0  0  0  0  0  0  0  0  0  0  0  0
  -24.5673  -24.9114   21.5541 O   0  0  0  0  0  0  0  0  0  0  0  0
  -25.6073  -20.0982   22.4664 O   0  0  0  0  0  0  0  0  0  0  0  0
  -31.8597  -14.9329   20.1867 O   0  0  0  0  0  0  0  0  0  0  0  0
  -21.6112   -7.0213   21.7156 O   0  0  0  0  0  0  0  0  0  0  0  0
  -32.3143  -23.1304   24.4986 O   0  0  0  0  0  0  0  0  0  1  0  0
  -18.6146   -6.8631   26.3416 F   0  0  0  0  0  0  0  0  0  0  0  0
  -19.6200   -8.8820   22.1800 F   0  0  0  0  0  0  0  0  0  0  0  0
  -28.1862  -17.5173   23.0092 Cl  0  0  0  0  0  0  0  0  0  0  0  0
  1  2  1  0  0  0  0
  1  5  2  0  0  0  0
  2  6  2  0  0  0  0
  3 10  2  0  0  0  0
  3 18  1  0  0  0  0
  4 11  1  0  0  0  0
  4 18  2  0  0  0  0
  5 20  1  0  0  0  0
  6 22  1  0  0  0  0
  7 12  2  0  0  0  0
  7 21  1  0  0  0  0
  8  9  2  0  0  0  0
  8 24  1  0  0  0  0
  9 25  1  0  0  0  0
 10 26  1  0  0  0  0
 11 26  2  0  0  0  0
 12 27  1  0  0  0  0
 13 14  2  0  0  0  0
 13 28  1  0  0  0  0
 14 29  1  0  0  0  0
 15 23  1  0  0  0  0
 15 27  2  0  0  0  0
 16 24  2  0  0  0  0
 16 31  1  0  0  0  0
 17 29  2  0  0  0  0
 17 30  1  0  0  0  0
 18 32  1  0  0  0  0
 19 32  1  0  0  0  0
 19 33  2  0  0  0  0
 19 34  1  0  0  0  0
 20 22  2  0  0  0  0
 20 39  1  0  0  0  0
 21 23  2  0  0  0  0
 21 40  1  0  0  0  0
 22 51  1  0  0  0  0
 23 41  1  0  0  0  0
 24 60  1  0  0  0  0
 25 31  2  0  0  0  0
 25 70  1  0  0  0  0
 26 80  1  0  0  0  0
 27 81  1  0  0  0  0
 28 30  2  0  0  0  0
 28 80  1  0  0  0  0
 29 82  1  0  0  0  0
 30 83  1  0  0  0  0
 31 84  1  0  0  0  0
 32 64  2  0  0  0  0
 33 65  1  0  0  0  0
 33 68  1  0  0  0  0
 34 69  1  0  0  0  0
 34 75  2  0  0  0  0
 35 52  1  0  0  0  0
 35 71  1  0  0  0  0
 35 76  2  0  0  0  0
 36 61  1  0  0  0  0
 36 66  1  0  0  0  0
 36 77  2  0  0  0  0
 37 62  1  0  0  0  0
 37 72  1  0  0  0  0
 37 78  2  0  0  0  0
 38 67  1  0  0  0  0
 38 70  1  0  0  0  0
 38 79  2  0  0  0  0
 39 42  1  0  0  0  0
 40 52  1  0  0  0  0
 41 66  1  0  0  0  0
 42 44  1  0  0  0  0
 43 45  1  0  0  0  0
 43 47  1  0  0  0  0
 44 51  1  0  0  0  0
 45 53  1  0  0  0  0
 46 49  1  0  0  0  0
 46 54  1  0  0  0  0
 47 67  1  0  0  0  0
 48 53  1  0  0  0  0
 48 67  1  0  0  0  0
 49 73  1  0  0  0  0
 50 54  1  0  0  0  0
 50 73  1  0  0  0  0
 51 71  1  0  0  0  0
 52 66  1  0  0  0  0
 53 65  1  0  0  0  0
 54 81  1  0  0  0  0
 55 62  1  0  0  0  0
 56 63  1  0  0  0  0
 57 63  1  0  0  0  0
 58 63  1  0  0  0  0
 59 74  1  0  0  0  0
 60 73  1  0  0  0  0
 61 63  1  0  0  0  0
 61 72  1  0  0  0  0
 62 74  1  0  0  0  0
 64 65  1  0  0  0  0
M  CHG  2  73   1  74   1
M  ISO  4  38 100  54 101  70 100  81 101
M  END
> <Batch ID>
0009

> <Smiles>
CNC(C)C(=O)NC(C(=O)N1Cc2cc([101O:1][101CH:1]3CCN(Cc4ccc([100NH:0][100C:0](=O)N5CCCC(n6nc(-c7ccc(Oc8ccc(F)cc8F)cc7)c(C(N)=O)c6N)C5)c(Cl)c4)C3)ccc2CC1C(=O)NC1CCCc2ccccc21)C(C)(C)C

> <Shape>
0.213

> <Color>
0.188

> <Negative vol penalty>
0.000

$$$$

  -OEChem-04042320373D

 83 92  0     1  0  0  0  0  0999 V2000
  -18.9849  -24.7079   21.7388 C   0  0  0  0  0  0  0  0  0  0  0  0
  -20.0771  -25.0733   20.9584 C   0  0  0  0  0  0  0  0  0  0  0  0
  -26.3576  -14.6396   21.0856 C   0  0  0  0  0  0  0  0  0  0  0  0
  -26.7760  -14.2090   18.7454 C   0  0  0  0  0  0  0  0  0  0  0  0
  -18.2718  -25.6814   22.4372 C   0  0  0  0  0  0  0  0  0  0  0  0
  -20.4561  -26.4127   20.8750 C   0  0  0  0  0  0  0  0  0  0  0  0
  -25.4612  -27.0462   21.3136 C   0  0  0  0  0  0  0  0  0  0  0  0
  -25.3680  -25.4963   16.0322 C   0  0  0  0  0  0  0  0  0  0  0  0
  -26.3234  -13.2672   21.3321 C   0  0  0  0  0  0  0  0  0  0  0  0
  -26.7419  -12.8365   18.9919 C   0  0  0  0  0  0  0  0  0  0  0  0
  -26.2395  -26.7636   20.1919 C   0  0  0  0  0  0  0  0  0  0  0  0
  -25.7895  -26.5377   16.8588 C   0  0  0  0  0  0  0  0  0  0  0  0
  -28.5476  -10.7517   21.7301 C   0  0  0  0  0  0  0  0  0  0  0  0
  -29.2420  -10.2753   22.8420 C   0  0  0  0  0  0  0  0  0  0  0  0
  -26.3582  -29.1197   19.6882 C   0  0  0  0  0  0  0  0  0  0  0  0
  -27.4568  -24.3451   16.4175 C   0  0  0  0  0  0  0  0  0  0  0  0
  -27.1823   -9.4019   23.7542 C   0  0  0  0  0  0  0  0  0  0  0  0
  -26.5838  -15.1106   19.7923 C   0  0  0  0  0  0  0  0  0  0  0  0
  -27.7440  -17.3728   19.5826 C   0  0  0  0  0  0  0  0  0  0  0  0
  -18.6482  -27.0321   22.3700 C   0  0  0  0  0  0  0  0  0  0  0  0
  -25.1159  -28.3690   21.6255 C   0  0  0  0  0  0  0  0  0  0  0  0
  -19.7465  -27.4053   21.5721 C   0  0  0  0  0  0  0  0  0  0  0  0
  -25.5776  -29.4166   20.8159 C   0  0  0  0  0  0  0  0  0  0  0  0
  -26.2016  -24.3999   15.8115 C   0  0  0  0  0  0  0  0  0  0  0  0
  -27.8783  -25.3865   17.2441 C   0  0  0  0  0  0  0  0  0  0  0  0
  -26.5156  -12.3656   20.2852 C   0  0  0  0  0  0  0  0  0  0  0  0
  -26.6857  -27.8002   19.3774 C   0  0  0  0  0  0  0  0  0  0  0  0
  -27.0447  -26.4829   17.4648 C   0  0  0  0  0  0  0  0  0  1  0  0
  -27.1705  -10.5533   21.6303 C   0  0  0  0  0  0  0  0  0  0  0  0
  -28.5594   -9.6004   23.8540 C   0  0  0  0  0  0  0  0  0  0  0  0
  -26.4879   -9.8784   22.6423 C   0  0  0  0  0  0  0  0  0  0  0  0
  -26.6187  -16.5282   19.5370 C   0  0  0  0  0  0  0  0  0  0  0  0
  -27.2535  -18.6158   19.2653 C   0  0  0  0  0  0  0  0  0  0  0  0
  -29.1106  -17.0615   19.8847 C   0  0  0  0  0  0  0  0  0  0  0  0
  -22.3842  -29.9753   21.8734 C   0  0  0  0  0  0  0  0  0  0  0  0
  -24.3271  -32.3480   22.9306 C   0  0  0  0  0  0  0  0  0  0  0  0
  -27.4506  -33.7213   22.9975 C   0  0  0  0  0  0  0  0  0  0  0  0
  -24.0477  -21.9240   16.1150 C   0  0  0  0  0  0  0  0  0  0  0  0
  -17.8179  -28.0544   23.1050 C   0  0  0  0  0  0  0  0  0  0  0  0
  -24.2980  -28.6593   22.8540 C   0  0  0  0  0  0  0  0  0  0  0  0
  -25.2515  -30.8556   21.1185 C   0  0  0  0  0  0  0  0  0  0  0  0
  -18.5127  -29.4046   23.2618 C   0  0  0  0  0  0  0  0  0  0  0  0
  -30.9957  -24.5339   19.1062 C   0  0  0  0  0  0  0  0  0  0  0  0
  -31.3479  -25.8856   18.5188 C   0  0  0  0  0  0  0  0  0  0  0  0
  -22.4907  -20.2697   18.8565 C   0  0  0  0  0  0  0  0  0  0  0  0
  -19.1346  -29.8417   21.9393 C   0  0  0  0  0  0  0  0  0  0  0  0
  -23.5157  -19.2150   19.2772 C   0  0  0  0  0  0  0  0  0  0  0  0
  -29.8351  -24.0780   18.2292 C   0  0  0  0  0  0  0  0  0  0  0  0
  -29.9814  -26.4770   18.1924 C   0  0  0  0  0  0  0  0  0  0  0  0
  -22.4683  -20.4622   17.3418 C   0  0  0  0  0  0  0  0  0  0  0  0
  -24.8051  -19.7017   17.1561 C   0  0  0  0  0  0  0  0  0  0  0  0
  -20.2036  -28.8447   21.4761 C   0  0  1  0  0  0  0  0  0  0  0  0
  -23.5762  -30.0017   22.7878 C   0  0  1  0  0  0  0  0  0  0  0  0
  -24.9040  -19.5125   18.6795 C   0  0  2  0  0  0  0  0  0  0  0  0
  -28.7214  -35.6817   23.9137 C   0  0  0  0  0  0  0  0  0  0  0  0
  -23.0756  -34.1479   20.8083 C   0  0  0  0  0  0  0  0  0  0  0  0
  -24.9895  -35.7312   21.1222 C   0  0  0  0  0  0  0  0  0  0  0  0
  -23.4474  -35.2490   23.0228 C   0  0  0  0  0  0  0  0  0  0  0  0
  -29.2591  -31.9699   24.5535 C   0  0  0  0  0  0  0  0  0  0  0  0
  -25.7498  -23.2860   14.9289 C   0  0  0  0  0  0  0  0  0  0  0  0
  -25.0890  -33.4763   22.2783 C   0  0  1  0  0  0  0  0  0  0  0  0
  -28.2989  -34.2392   24.1450 C   0  0  2  0  0  0  0  0  0  0  0  0
  -24.1551  -34.6239   21.8008 C   0  0  0  0  0  0  0  0  0  0  0  0
  -25.4977  -17.1797   19.2161 N   0  0  0  0  0  0  0  0  0  0  0  0
  -25.9162  -18.4469   19.0573 N   0  0  0  0  0  0  0  0  0  0  0  0
  -29.1480  -25.3183   17.8488 N   0  0  0  0  0  0  0  0  0  0  0  0
  -24.4437  -31.0878   22.3272 N   0  0  0  0  0  0  0  0  0  0  0  0
  -23.8151  -20.7427   16.8385 N   0  0  0  0  0  0  0  0  0  0  0  0
  -27.8399  -19.8260   19.1468 N   0  0  0  0  0  0  0  0  0  0  0  0
  -29.4420  -15.7341   20.1890 N   0  0  0  0  0  0  0  0  0  0  0  0
  -21.4303  -29.0373   22.2195 N   0  0  0  0  0  0  0  0  0  0  0  0
  -26.1041  -33.8928   23.2398 N   0  0  0  0  0  0  0  0  0  0  0  0
  -25.3533  -22.1157   15.6798 N   0  0  0  0  0  0  0  0  0  0  0  0
  -29.5268  -33.4086   24.2975 N   0  3  0  0  0  0  0  0  0  0  0  0
  -30.0083  -17.9375   19.9009 O   0  0  0  0  0  0  0  0  0  0  0  0
  -22.3329  -30.7496   20.9250 O   0  0  0  0  0  0  0  0  0  0  0  0
  -23.6590  -32.5750   23.9424 O   0  0  0  0  0  0  0  0  0  0  0  0
  -27.9343  -33.2185   21.9857 O   0  0  0  0  0  0  0  0  0  0  0  0
  -23.1589  -22.7496   15.8794 O   0  0  0  0  0  0  0  0  0  0  0  0
  -26.4826  -11.0263   20.5254 O   0  0  0  0  0  0  0  0  0  0  0  0
  -27.4450  -27.5271   18.2816 O   0  0  0  0  0  0  0  0  0  1  0  0
  -29.2267   -9.1415   24.9210 F   0  0  0  0  0  0  0  0  0  0  0  0
  -25.1651   -9.6838   22.5514 F   0  0  0  0  0  0  0  0  0  0  0  0
  1  2  1  0  0  0  0
  1  5  2  0  0  0  0
  2  6  2  0  0  0  0
  3  9  2  0  0  0  0
  3 18  1  0  0  0  0
  4 10  1  0  0  0  0
  4 18  2  0  0  0  0
  5 20  1  0  0  0  0
  6 22  1  0  0  0  0
  7 11  2  0  0  0  0
  7 21  1  0  0  0  0
  8 12  2  0  0  0  0
  8 24  1  0  0  0  0
  9 26  1  0  0  0  0
 10 26  2  0  0  0  0
 11 27  1  0  0  0  0
 12 28  1  0  0  0  0
 13 14  2  0  0  0  0
 13 29  1  0  0  0  0
 14 30  1  0  0  0  0
 15 23  1  0  0  0  0
 15 27  2  0  0  0  0
 16 24  2  0  0  0  0
 16 25  1  0  0  0  0
 17 30  2  0  0  0  0
 17 31  1  0  0  0  0
 18 32  1  0  0  0  0
 19 32  1  0  0  0  0
 19 33  2  0  0  0  0
 19 34  1  0  0  0  0
 20 22  2  0  0  0  0
 20 39  1  0  0  0  0
 21 23  2  0  0  0  0
 21 40  1  0  0  0  0
 22 52  1  0  0  0  0
 23 41  1  0  0  0  0
 24 60  1  0  0  0  0
 25 28  2  0  0  0  0
 25 66  1  0  0  0  0
 26 80  1  0  0  0  0
 27 81  1  0  0  0  0
 28 81  1  0  0  0  0
 29 31  2  0  0  0  0
 29 80  1  0  0  0  0
 30 82  1  0  0  0  0
 31 83  1  0  0  0  0
 32 64  2  0  0  0  0
 33 65  1  0  0  0  0
 33 69  1  0  0  0  0
 34 70  1  0  0  0  0
 34 75  2  0  0  0  0
 35 53  1  0  0  0  0
 35 71  1  0  0  0  0
 35 76  2  0  0  0  0
 36 61  1  0  0  0  0
 36 67  1  0  0  0  0
 36 77  2  0  0  0  0
 37 62  1  0  0  0  0
 37 72  1  0  0  0  0
 37 78  2  0  0  0  0
 38 68  1  0  0  0  0
 38 73  1  0  0  0  0
 38 79  2  0  0  0  0
 39 42  1  0  0  0  0
 40 53  1  0  0  0  0
 41 67  1  0  0  0  0
 42 46  1  0  0  0  0
 43 44  1  0  0  0  0
 43 48  1  0  0  0  0
 44 49  1  0  0  0  0
 45 47  1  0  0  0  0
 45 50  1  0  0  0  0
 46 52  1  0  0  0  0
 47 54  1  0  0  0  0
 48 66  1  0  0  0  0
 49 66  1  0  0  0  0
 50 68  1  0  0  0  0
 51 54  1  0  0  0  0
 51 68  1  0  0  0  0
 52 71  1  0  0  0  0
 53 67  1  0  0  0  0
 54 65  1  0  0  0  0
 55 62  1  0  0  0  0
 56 63  1  0  0  0  0
 57 63  1  0  0  0  0
 58 63  1  0  0  0  0
 59 74  1  0  0  0  0
 60 73  1  0  0  0  0
 61 63  1  0  0  0  0
 61 72  1  0  0  0  0
 62 74  1  0  0  0  0
 64 65  1  0  0  0  0
M  CHG  1  74   1
M  ISO  4  28 101  38 100  73 100  81 101
M  END
> <Batch ID>
0009

> <Smiles>
CNC(C)C(=O)NC(C(=O)N1Cc2cc([101O:1][101c:1]3ccc(C[100NH:0][100C:0](=O)N4CCCC(n5nc(-c6ccc(Oc7ccc(F)cc7F)cc6)c(C(N)=O)c5N)C4)cc3N3CCCC3)ccc2CC1C(=O)NC1CCCc2ccccc21)C(C)(C)C

> <Shape>
0.244

> <Color>
0.102

> <Negative vol penalty>
0.000

$$$$

  -OEChem-04042320373D

 84 93  0     1  0  0  0  0  0999 V2000
  -26.5743  -37.1247   25.0759 C   0  0  0  0  0  0  0  0  0  0  0  0
  -27.5232  -36.2168   24.6169 C   0  0  0  0  0  0  0  0  0  0  0  0
  -22.7974  -10.2909   20.2395 C   0  0  0  0  0  0  0  0  0  0  0  0
  -24.5630   -9.2333   21.5049 C   0  0  0  0  0  0  0  0  0  0  0  0
  -25.4094  -36.6642   25.6881 C   0  0  0  0  0  0  0  0  0  0  0  0
  -27.3082  -34.8476   24.7710 C   0  0  0  0  0  0  0  0  0  0  0  0
  -27.2009  -29.1670   19.4095 C   0  0  0  0  0  0  0  0  0  0  0  0
  -25.7618  -19.6314   19.0667 C   0  0  0  0  0  0  0  0  0  0  0  0
  -26.0674  -18.2871   19.2787 C   0  0  0  0  0  0  0  0  0  0  0  0
  -21.8498   -9.7444   21.1048 C   0  0  0  0  0  0  0  0  0  0  0  0
  -23.6153   -8.6867   22.3703 C   0  0  0  0  0  0  0  0  0  0  0  0
  -27.0012  -28.0996   18.5339 C   0  0  0  0  0  0  0  0  0  0  0  0
  -21.4472   -6.0924   22.3732 C   0  0  0  0  0  0  0  0  0  0  0  0
  -21.5863   -4.7490   22.7215 C   0  0  0  0  0  0  0  0  0  0  0  0
  -25.5485  -27.0341   20.1471 C   0  0  0  0  0  0  0  0  0  0  0  0
  -28.3825  -18.8716   19.6475 C   0  0  0  0  0  0  0  0  0  0  0  0
  -21.7771   -5.3719   25.0481 C   0  0  0  0  0  0  0  0  0  0  0  0
  -24.1540  -10.0353   20.4395 C   0  0  0  0  0  0  0  0  0  0  0  0
  -25.2367  -10.3908   18.1571 C   0  0  0  0  0  0  0  0  0  0  0  0
  -25.1755  -35.2885   25.8411 C   0  0  0  0  0  0  0  0  0  0  0  0
  -26.5622  -29.1794   20.6526 C   0  0  0  0  0  0  0  0  0  0  0  0
  -26.1397  -34.3683   25.3871 C   0  0  0  0  0  0  0  0  0  0  0  0
  -25.7349  -28.1066   21.0233 C   0  0  0  0  0  0  0  0  0  0  0  0
  -26.7665  -20.5958   19.1449 C   0  0  0  0  0  0  0  0  0  0  0  0
  -27.3777  -17.9072   19.5692 C   0  0  0  0  0  0  0  0  0  0  0  0
  -22.2587   -8.9423   22.1702 C   0  0  0  0  0  0  0  0  0  0  0  0
  -26.1772  -27.0356   18.9019 C   0  0  0  0  0  0  0  0  0  0  0  0
  -21.4732   -7.0757   23.3623 C   0  0  0  0  0  0  0  0  0  0  0  0
  -21.7511   -4.3887   24.0589 C   0  0  0  0  0  0  0  0  0  0  0  0
  -28.0768  -20.2159   19.4354 C   0  0  0  0  0  0  0  0  0  0  0  0
  -21.6381   -6.7154   24.6997 C   0  0  0  0  0  0  0  0  0  0  0  0
  -25.1334  -10.5992   19.5456 C   0  0  0  0  0  0  0  0  0  0  0  0
  -26.3219  -11.1421   17.7771 C   0  0  0  0  0  0  0  0  0  0  0  0
  -24.4244   -9.5899   17.2886 C   0  0  0  0  0  0  0  0  0  0  0  0
  -25.9646  -31.0000   23.8782 C   0  0  0  0  0  0  0  0  0  0  0  0
  -23.2745  -29.8012   23.0200 C   0  0  0  0  0  0  0  0  0  0  0  0
  -20.4292  -28.6752   21.5121 C   0  0  0  0  0  0  0  0  0  0  0  0
  -28.9361  -15.9956   20.0826 C   0  0  0  0  0  0  0  0  0  0  0  0
  -23.9233  -34.8397   26.5517 C   0  0  0  0  0  0  0  0  0  0  0  0
  -26.7970  -30.2790   21.6524 C   0  0  0  0  0  0  0  0  0  0  0  0
  -25.0958  -28.1461   22.3846 C   0  0  0  0  0  0  0  0  0  0  0  0
  -23.5986  -33.3632   26.3397 C   0  0  0  0  0  0  0  0  0  0  0  0
  -30.4711  -12.8446   19.4564 C   0  0  0  0  0  0  0  0  0  0  0  0
  -24.8471  -32.5087   26.5347 C   0  0  0  0  0  0  0  0  0  0  0  0
  -29.2859  -11.8934   19.2758 C   0  0  0  0  0  0  0  0  0  0  0  0
  -25.5230  -23.7126   17.4904 C   0  0  0  0  0  0  0  0  0  0  0  0
  -26.9135  -24.3034   19.4814 C   0  0  0  0  0  0  0  0  0  0  0  0
  -30.1941  -13.8991   20.5264 C   0  0  0  0  0  0  0  0  0  0  0  0
  -25.3550  -22.2932   18.0257 C   0  0  0  0  0  0  0  0  0  0  0  0
  -26.7431  -22.8868   20.0212 C   0  0  0  0  0  0  0  0  0  0  0  0
  -27.7652  -13.7068   20.1624 C   0  0  0  0  0  0  0  0  0  0  0  0
  -25.9311  -32.8748   25.5137 C   0  0  1  0  0  0  0  0  0  0  0  0
  -25.5488  -30.6094   22.4904 C   0  0  1  0  0  0  0  0  0  0  0  0
  -27.9721  -12.6668   19.0492 C   0  0  2  0  0  0  0  0  0  0  0  0
  -25.7325  -24.7209   18.6128 C   0  0  0  0  0  0  0  0  0  1  0  0
  -17.9463  -28.5323   21.8475 C   0  0  0  0  0  0  0  0  0  0  0  0
  -23.6780  -27.5255   25.0106 C   0  0  0  0  0  0  0  0  0  0  0  0
  -21.3145  -26.8223   24.5775 C   0  0  0  0  0  0  0  0  0  0  0  0
  -21.7864  -29.0672   25.5575 C   0  0  0  0  0  0  0  0  0  0  0  0
  -19.8925  -30.2948   19.0939 C   0  0  0  0  0  0  0  0  0  0  0  0
  -22.3161  -28.6416   23.1223 C   0  0  1  0  0  0  0  0  0  0  0  0
  -19.0901  -29.3443   21.2599 C   0  0  2  0  0  0  0  0  0  0  0  0
  -22.2924  -28.0162   24.5456 C   0  0  0  0  0  0  0  0  0  0  0  0
  -26.0777  -11.4184   20.0157 N   0  0  0  0  0  0  0  0  0  0  0  0
  -26.7848  -11.7315   18.9166 N   0  0  0  0  0  0  0  0  0  0  0  0
  -26.4568  -21.9449   18.9299 N   0  0  0  0  0  0  0  0  0  0  0  0
  -24.5953  -29.5008   22.6654 N   0  0  0  0  0  0  0  0  0  0  0  0
  -28.9363  -14.5939   20.2438 N   0  0  0  0  0  0  0  0  0  0  0  0
  -26.9159  -11.3494   16.5826 N   0  0  0  0  0  0  0  0  0  0  0  0
  -23.3492   -8.8826   17.8436 N   0  0  0  0  0  0  0  0  0  0  0  0
  -27.6879  -16.5415   19.7847 N   0  0  0  0  0  0  0  0  0  0  0  0
  -25.6265  -32.2947   24.2233 N   0  0  0  0  0  0  0  0  0  0  0  0
  -21.0227  -29.1396   22.6668 N   0  0  0  0  0  0  0  0  0  0  0  0
  -18.8548  -29.4968   19.7962 N   0  3  0  0  0  0  0  0  0  0  0  0
  -24.6553   -9.4910   16.0597 O   0  0  0  0  0  0  0  0  0  0  0  0
  -26.5479  -30.1870   24.5855 O   0  0  0  0  0  0  0  0  0  0  0  0
  -22.8671  -30.9427   23.2532 O   0  0  0  0  0  0  0  0  0  0  0  0
  -20.8997  -27.8229   20.7620 O   0  0  0  0  0  0  0  0  0  0  0  0
  -29.9720  -16.6593   20.1731 O   0  0  0  0  0  0  0  0  0  0  0  0
  -21.3343   -8.4090   23.0150 O   0  0  0  0  0  0  0  0  0  0  0  0
  -25.9830  -25.9989   18.0404 O   0  0  0  0  0  0  0  0  0  1  0  0
  -21.8831   -3.0984   24.3934 F   0  0  0  0  0  0  0  0  0  0  0  0
  -29.0502  -21.1347   19.5115 F   0  0  0  0  0  0  0  0  0  0  0  0
  -21.6626   -7.6554   25.6545 F   0  0  0  0  0  0  0  0  0  0  0  0
  1  2  1  0  0  0  0
  1  5  2  0  0  0  0
  2  6  2  0  0  0  0
  3 10  2  0  0  0  0
  3 18  1  0  0  0  0
  4 11  1  0  0  0  0
  4 18  2  0  0  0  0
  5 20  1  0  0  0  0
  6 22  1  0  0  0  0
  7 12  2  0  0  0  0
  7 21  1  0  0  0  0
  8  9  2  0  0  0  0
  8 24  1  0  0  0  0
  9 25  1  0  0  0  0
 10 26  1  0  0  0  0
 11 26  2  0  0  0  0
 12 27  1  0  0  0  0
 13 14  2  0  0  0  0
 13 28  1  0  0  0  0
 14 29  1  0  0  0  0
 15 23  1  0  0  0  0
 15 27  2  0  0  0  0
 16 25  2  0  0  0  0
 16 30  1  0  0  0  0
 17 29  2  0  0  0  0
 17 31  1  0  0  0  0
 18 32  1  0  0  0  0
 19 32  1  0  0  0  0
 19 33  2  0  0  0  0
 19 34  1  0  0  0  0
 20 22  2  0  0  0  0
 20 39  1  0  0  0  0
 21 23  2  0  0  0  0
 21 40  1  0  0  0  0
 22 52  1  0  0  0  0
 23 41  1  0  0  0  0
 24 30  2  0  0  0  0
 24 66  1  0  0  0  0
 25 71  1  0  0  0  0
 26 80  1  0  0  0  0
 27 81  1  0  0  0  0
 28 31  2  0  0  0  0
 28 80  1  0  0  0  0
 29 82  1  0  0  0  0
 30 83  1  0  0  0  0
 31 84  1  0  0  0  0
 32 64  2  0  0  0  0
 33 65  1  0  0  0  0
 33 69  1  0  0  0  0
 34 70  1  0  0  0  0
 34 75  2  0  0  0  0
 35 53  1  0  0  0  0
 35 72  1  0  0  0  0
 35 76  2  0  0  0  0
 36 61  1  0  0  0  0
 36 67  1  0  0  0  0
 36 77  2  0  0  0  0
 37 62  1  0  0  0  0
 37 73  1  0  0  0  0
 37 78  2  0  0  0  0
 38 68  1  0  0  0  0
 38 71  1  0  0  0  0
 38 79  2  0  0  0  0
 39 42  1  0  0  0  0
 40 53  1  0  0  0  0
 41 67  1  0  0  0  0
 42 44  1  0  0  0  0
 43 45  1  0  0  0  0
 43 48  1  0  0  0  0
 44 52  1  0  0  0  0
 45 54  1  0  0  0  0
 46 49  1  0  0  0  0
 46 55  1  0  0  0  0
 47 50  1  0  0  0  0
 47 55  1  0  0  0  0
 48 68  1  0  0  0  0
 49 66  1  0  0  0  0
 50 66  1  0  0  0  0
 51 54  1  0  0  0  0
 51 68  1  0  0  0  0
 52 72  1  0  0  0  0
 53 67  1  0  0  0  0
 54 65  1  0  0  0  0
 55 81  1  0  0  0  0
 56 62  1  0  0  0  0
 57 63  1  0  0  0  0
 58 63  1  0  0  0  0
 59 63  1  0  0  0  0
 60 74  1  0  0  0  0
 61 63  1  0  0  0  0
 61 73  1  0  0  0  0
 62 74  1  0  0  0  0
 64 65  1  0  0  0  0
M  CHG  1  74   1
M  ISO  4  38 100  55 101  71 100  81 101
M  END
> <Batch ID>
0009

> <Smiles>
CNC(C)C(=O)NC(C(=O)N1Cc2cc([101O:1][101CH:1]3CCN(c4ccc([100NH:0][100C:0](=O)N5CCCC(n6nc(-c7ccc(Oc8ccc(F)cc8F)cc7)c(C(N)=O)c6N)C5)cc4F)CC3)ccc2CC1C(=O)NC1CCCc2ccccc21)C(C)(C)C

> <Shape>
0.316

> <Color>
0.105

> <Negative vol penalty>
0.000

$$$$

  -OEChem-04042320373D

 80 88  0     1  0  0  0  0  0999 V2000
  -26.1915  -18.6058   24.2197 C   0  0  0  0  0  0  0  0  0  0  0  0
  -26.5622  -19.9269   23.9955 C   0  0  0  0  0  0  0  0  0  0  0  0
  -26.6444  -12.4995   21.6201 C   0  0  0  0  0  0  0  0  0  0  0  0
  -25.7487  -13.9882   19.9413 C   0  0  0  0  0  0  0  0  0  0  0  0
  -24.9050  -18.1819   23.8938 C   0  0  0  0  0  0  0  0  0  0  0  0
  -25.6428  -20.8274   23.4563 C   0  0  0  0  0  0  0  0  0  0  0  0
  -27.0029  -25.5504   23.2413 C   0  0  0  0  0  0  0  0  0  0  0  0
  -25.3923  -11.9003   21.7569 C   0  0  0  0  0  0  0  0  0  0  0  0
  -24.4965  -13.3890   20.0781 C   0  0  0  0  0  0  0  0  0  0  0  0
  -27.9590  -26.0192   22.3413 C   0  0  0  0  0  0  0  0  0  0  0  0
  -22.5186   -9.7383   22.2887 C   0  0  0  0  0  0  0  0  0  0  0  0
  -22.4681   -8.3453   22.3386 C   0  0  0  0  0  0  0  0  0  0  0  0
  -26.2046  -26.9473   20.9703 C   0  0  0  0  0  0  0  0  0  0  0  0
  -23.4733   -8.2304   20.1446 C   0  0  0  0  0  0  0  0  0  0  0  0
  -26.8226  -13.5434   20.7123 C   0  0  0  0  0  0  0  0  0  0  0  0
  -29.3186  -13.5417   20.1851 C   0  0  0  0  0  0  0  0  0  0  0  0
  -23.9739  -19.0753   23.3388 C   0  0  0  0  0  0  0  0  0  0  0  0
  -25.6376  -25.7675   23.0065 C   0  0  0  0  0  0  0  0  0  0  0  0
  -24.3320  -20.4246   23.1429 C   0  0  0  0  0  0  0  0  0  0  0  0
  -25.2333  -26.4825   21.8701 C   0  0  0  0  0  0  0  0  0  0  0  0
  -24.3183  -12.3451   20.9859 C   0  0  0  0  0  0  0  0  0  0  0  0
  -27.5597  -26.7153   21.2041 C   0  0  0  0  0  0  0  0  0  0  0  0
  -23.0463  -10.3774   21.1667 C   0  0  0  0  0  0  0  0  0  0  0  0
  -22.9455   -7.5913   21.2665 C   0  0  0  0  0  0  0  0  0  0  0  0
  -23.5237   -9.6235   20.0947 C   0  0  0  0  0  0  0  0  0  0  0  0
  -28.1157  -14.1631   20.5709 C   0  0  0  0  0  0  0  0  0  0  0  0
  -30.2484  -14.5525   20.2032 C   0  0  0  0  0  0  0  0  0  0  0  0
  -29.5727  -12.1732   19.8411 C   0  0  0  0  0  0  0  0  0  0  0  0
  -23.1177  -23.8901   22.5273 C   0  0  0  0  0  0  0  0  0  0  0  0
  -21.4944  -26.6959   22.6467 C   0  0  0  0  0  0  0  0  0  0  0  0
  -21.9419  -30.0522   21.4008 C   0  0  0  0  0  0  0  0  0  0  0  0
  -29.7214  -20.3942   19.5312 C   0  0  0  0  0  0  0  0  0  0  0  0
  -22.5926  -18.5651   23.0119 C   0  0  0  0  0  0  0  0  0  0  0  0
  -24.6202  -25.2785   24.0007 C   0  0  0  0  0  0  0  0  0  0  0  0
  -23.7811  -26.7595   21.5826 C   0  0  0  0  0  0  0  0  0  0  0  0
  -21.8388  -19.4694   22.0422 C   0  0  0  0  0  0  0  0  0  0  0  0
  -31.2170  -18.7114   22.3647 C   0  0  0  0  0  0  0  0  0  0  0  0
  -32.0297  -24.3785   17.8633 C   0  0  0  0  0  0  0  0  0  0  0  0
  -21.9087  -20.9132   22.5168 C   0  0  0  0  0  0  0  0  0  0  0  0
  -30.6969  -17.2847   22.1804 C   0  0  0  0  0  0  0  0  0  0  0  0
  -31.6555  -23.4973   19.0539 C   0  0  0  0  0  0  0  0  0  0  0  0
  -29.0878  -23.4752   18.7476 C   0  0  0  0  0  0  0  0  0  0  0  0
  -30.1595  -19.7400   21.9752 C   0  0  0  0  0  0  0  0  0  0  0  0
  -29.1072  -18.1580   20.4056 C   0  0  0  0  0  0  0  0  0  0  0  0
  -31.3679  -25.7497   17.8118 C   0  0  0  0  0  0  0  0  0  0  0  0
  -29.0772  -24.6484   17.7731 C   0  0  0  0  0  0  0  0  0  0  0  0
  -23.3584  -21.4144   22.5290 C   0  0  1  0  0  0  0  0  0  0  0  0
  -23.2290  -25.1097   23.3979 C   0  0  1  0  0  0  0  0  0  0  0  0
  -30.1378  -17.0710   20.7613 C   0  0  2  0  0  0  0  0  0  0  0  0
  -30.3898  -22.6711   18.7983 C   0  0  2  0  0  0  0  0  0  0  0  0
  -21.0900  -32.2445   22.2757 C   0  0  0  0  0  0  0  0  0  0  0  0
  -19.1921  -26.2500   20.6945 C   0  0  0  0  0  0  0  0  0  0  0  0
  -19.2271  -28.7043   20.2011 C   0  0  0  0  0  0  0  0  0  0  0  0
  -18.7163  -27.9049   22.5082 C   0  0  0  0  0  0  0  0  0  0  0  0
  -24.6692  -31.1949   21.5248 C   0  0  0  0  0  0  0  0  0  0  0  0
  -29.3193  -27.1183   18.0670 C   0  0  0  0  0  0  0  0  0  0  0  0
  -28.0995  -27.2670   18.9547 C   0  0  0  0  0  0  0  0  0  1  0  0
  -21.0825  -27.7367   21.6337 C   0  0  1  0  0  0  0  0  0  0  0  0
  -22.2713  -31.2885   22.2178 C   0  0  2  0  0  0  0  0  0  0  0  0
  -19.5779  -27.6332   21.2558 C   0  0  0  0  0  0  0  0  0  0  0  0
  -28.2648  -15.4676   20.8162 N   0  0  0  0  0  0  0  0  0  0  0  0
  -29.5723  -15.6741   20.5842 N   0  0  0  0  0  0  0  0  0  0  0  0
  -22.8239  -26.2556   22.5813 N   0  0  0  0  0  0  0  0  0  0  0  0
  -29.6824  -19.4920   20.6073 N   0  0  0  0  0  0  0  0  0  0  0  0
  -31.5701  -14.5823   19.9304 N   0  0  0  0  0  0  0  0  0  0  0  0
  -29.4420  -11.7859   18.5005 N   0  0  0  0  0  0  0  0  0  0  0  0
  -23.4060  -22.7059   23.1785 N   0  0  0  0  0  0  0  0  0  0  0  0
  -21.4707  -29.0269   22.1932 N   0  0  0  0  0  0  0  0  0  0  0  0
  -30.2753  -21.6383   19.8075 N   0  0  0  0  0  0  0  0  0  0  0  0
  -29.9458  -25.7654   18.3035 N   0  3  2  0  0  0  0  0  0  0  0  0
  -23.4309  -32.0099   21.6212 N   0  3  0  0  0  0  0  0  0  0  0  0
  -29.8898  -11.3155   20.6998 O   0  0  0  0  0  0  0  0  0  0  0  0
  -22.7929  -24.0142   21.3523 O   0  0  0  0  0  0  0  0  0  0  0  0
  -20.6688  -26.2938   23.4703 O   0  0  0  0  0  0  0  0  0  0  0  0
  -22.0847  -30.0024   20.1810 O   0  0  0  0  0  0  0  0  0  0  0  0
  -29.2986  -20.1102   18.4053 O   0  0  0  0  0  0  0  0  0  0  0  0
  -23.0964  -11.7605   21.1190 O   0  0  0  0  0  0  0  0  0  0  0  0
  -28.4908  -27.1734   20.3238 O   0  0  0  0  0  0  0  0  0  1  0  0
  -22.8985   -6.2536   21.3152 F   0  0  0  0  0  0  0  0  0  0  0  0
  -24.0329  -10.2318   19.0146 F   0  0  0  0  0  0  0  0  0  0  0  0
  1  2  1  0  0  0  0
  1  5  2  0  0  0  0
  2  6  2  0  0  0  0
  3  8  2  0  0  0  0
  3 15  1  0  0  0  0
  4  9  1  0  0  0  0
  4 15  2  0  0  0  0
  5 17  1  0  0  0  0
  6 19  1  0  0  0  0
  7 10  2  0  0  0  0
  7 18  1  0  0  0  0
  8 21  1  0  0  0  0
  9 21  2  0  0  0  0
 10 22  1  0  0  0  0
 11 12  2  0  0  0  0
 11 23  1  0  0  0  0
 12 24  1  0  0  0  0
 13 20  1  0  0  0  0
 13 22  2  0  0  0  0
 14 24  2  0  0  0  0
 14 25  1  0  0  0  0
 15 26  1  0  0  0  0
 16 26  1  0  0  0  0
 16 27  2  0  0  0  0
 16 28  1  0  0  0  0
 17 19  2  0  0  0  0
 17 33  1  0  0  0  0
 18 20  2  0  0  0  0
 18 34  1  0  0  0  0
 19 47  1  0  0  0  0
 20 35  1  0  0  0  0
 21 77  1  0  0  0  0
 22 78  1  0  0  0  0
 23 25  2  0  0  0  0
 23 77  1  0  0  0  0
 24 79  1  0  0  0  0
 25 80  1  0  0  0  0
 26 61  2  0  0  0  0
 27 62  1  0  0  0  0
 27 65  1  0  0  0  0
 28 66  1  0  0  0  0
 28 72  2  0  0  0  0
 29 48  1  0  0  0  0
 29 67  1  0  0  0  0
 29 73  2  0  0  0  0
 30 58  1  0  0  0  0
 30 63  1  0  0  0  0
 30 74  2  0  0  0  0
 31 59  1  0  0  0  0
 31 68  1  0  0  0  0
 31 75  2  0  0  0  0
 32 64  1  0  0  0  0
 32 69  1  0  0  0  0
 32 76  2  0  0  0  0
 33 36  1  0  0  0  0
 34 48  1  0  0  0  0
 35 63  1  0  0  0  0
 36 39  1  0  0  0  0
 37 40  1  0  0  0  0
 37 43  1  0  0  0  0
 38 41  1  0  0  0  0
 38 45  1  0  0  0  0
 39 47  1  0  0  0  0
 40 49  1  0  0  0  0
 41 50  1  0  0  0  0
 42 46  1  0  0  0  0
 42 50  1  0  0  0  0
 43 64  1  0  0  0  0
 44 49  1  0  0  0  0
 44 64  1  0  0  0  0
 45 70  1  0  0  0  0
 46 70  1  0  0  0  0
 47 67  1  0  0  0  0
 48 63  1  0  0  0  0
 49 62  1  0  0  0  0
 50 69  1  0  0  0  0
 51 59  1  0  0  0  0
 52 60  1  0  0  0  0
 53 60  1  0  0  0  0
 54 60  1  0  0  0  0
 55 71  1  0  0  0  0
 56 57  1  0  0  0  0
 56 70  1  0  0  0  0
 57 78  1  0  0  0  0
 58 60  1  0  0  0  0
 58 68  1  0  0  0  0
 59 71  1  0  0  0  0
 61 62  1  0  0  0  0
M  CHG  2  70   1  71   1
M  ISO  4  32 100  57 101  69 100  78 101
M  END
> <Batch ID>
0009

> <Smiles>
CNC(C)C(=O)NC(C(=O)N1Cc2cc([101O:1][101CH2:1]CN3CCCC([100NH:0][100C:0](=O)N4CCCC(n5nc(-c6ccc(Oc7ccc(F)cc7F)cc6)c(C(N)=O)c5N)C4)CC3)ccc2CC1C(=O)NC1CCCc2ccccc21)C(C)(C)C

> <Shape>
0.278

> <Color>
0.084

> <Negative vol penalty>
0.000

$$$$

  -OEChem-04042320373D

 84 93  0     1  0  0  0  0  0999 V2000
  -23.5731  -29.8593   20.6292 C   0  0  0  0  0  0  0  0  0  0  0  0
  -24.1904  -28.6210   20.7744 C   0  0  0  0  0  0  0  0  0  0  0  0
  -22.9737   -9.9261   20.0213 C   0  0  0  0  0  0  0  0  0  0  0  0
  -24.2529   -9.5486   22.0358 C   0  0  0  0  0  0  0  0  0  0  0  0
  -24.2571  -31.0231   20.9781 C   0  0  0  0  0  0  0  0  0  0  0  0
  -25.4925  -28.5459   21.2676 C   0  0  0  0  0  0  0  0  0  0  0  0
  -26.0465  -24.9046   24.7430 C   0  0  0  0  0  0  0  0  0  0  0  0
  -26.9330  -18.2316   19.1115 C   0  0  0  0  0  0  0  0  0  0  0  0
  -28.8550  -17.6818   20.4682 C   0  0  0  0  0  0  0  0  0  0  0  0
  -27.4046  -17.3915   18.1029 C   0  0  0  0  0  0  0  0  0  0  0  0
  -29.3266  -16.8416   19.4596 C   0  0  0  0  0  0  0  0  0  0  0  0
  -22.3084   -8.7158   20.2169 C   0  0  0  0  0  0  0  0  0  0  0  0
  -23.5876   -8.3383   22.2314 C   0  0  0  0  0  0  0  0  0  0  0  0
  -26.1539  -23.5938   24.2803 C   0  0  0  0  0  0  0  0  0  0  0  0
  -20.5916   -7.3062   23.4059 C   0  0  0  0  0  0  0  0  0  0  0  0
  -20.1320   -7.0215   24.6917 C   0  0  0  0  0  0  0  0  0  0  0  0
  -28.5488  -23.7016   24.5484 C   0  0  0  0  0  0  0  0  0  0  0  0
  -21.5099   -5.0376   24.7449 C   0  0  0  0  0  0  0  0  0  0  0  0
  -23.9460  -10.3425   20.9307 C   0  0  0  0  0  0  0  0  0  0  0  0
  -24.0613  -12.8765   20.6606 C   0  0  0  0  0  0  0  0  0  0  0  0
  -25.5648  -30.9615   21.4849 C   0  0  0  0  0  0  0  0  0  0  0  0
  -27.1924  -25.6287   25.1022 C   0  0  0  0  0  0  0  0  0  0  0  0
  -26.1952  -29.7101   21.6223 C   0  0  0  0  0  0  0  0  0  0  0  0
  -28.4531  -25.0206   25.0178 C   0  0  0  0  0  0  0  0  0  0  0  0
  -27.6583  -18.3769   20.2942 C   0  0  0  0  0  0  0  0  0  0  0  0
  -28.6013  -16.6964   18.2770 C   0  0  0  0  0  0  0  0  0  0  0  0
  -22.6154   -7.9219   21.3219 C   0  0  0  0  0  0  0  0  0  0  0  0
  -27.4054  -22.9931   24.1802 C   0  0  0  0  0  0  0  0  0  0  0  0
  -21.5103   -6.4566   22.7895 C   0  0  0  0  0  0  0  0  0  0  0  0
  -20.5912   -5.8873   25.3612 C   0  0  0  0  0  0  0  0  0  0  0  0
  -21.9694   -5.3223   23.4591 C   0  0  0  0  0  0  0  0  0  0  0  0
  -24.6339  -11.5923   20.7289 C   0  0  0  0  0  0  0  0  0  0  0  0
  -25.1281  -13.7179   20.4593 C   0  0  0  0  0  0  0  0  0  0  0  0
  -22.6878  -13.2734   20.7694 C   0  0  0  0  0  0  0  0  0  0  0  0
  -28.5819  -28.2908   24.0599 C   0  0  0  0  0  0  0  0  0  0  0  0
  -30.5261  -27.8116   26.6120 C   0  0  0  0  0  0  0  0  0  0  0  0
  -32.3654  -26.6077   29.2224 C   0  0  0  0  0  0  0  0  0  0  0  0
  -29.8651  -14.6799   17.4846 C   0  0  0  0  0  0  0  0  0  0  0  0
  -26.2811  -32.2498   21.8039 C   0  0  0  0  0  0  0  0  0  0  0  0
  -27.0574  -27.0326   25.6248 C   0  0  0  0  0  0  0  0  0  0  0  0
  -29.7123  -25.7480   25.4101 C   0  0  0  0  0  0  0  0  0  0  0  0
  -27.5223  -32.0579   22.6716 C   0  0  0  0  0  0  0  0  0  0  0  0
  -30.1022  -12.9091   20.7252 C   0  0  0  0  0  0  0  0  0  0  0  0
  -28.3727  -30.9085   22.1400 C   0  0  0  0  0  0  0  0  0  0  0  0
  -28.6671  -12.4429   20.9628 C   0  0  0  0  0  0  0  0  0  0  0  0
  -25.9832  -21.2919   21.9032 C   0  0  0  0  0  0  0  0  0  0  0  0
  -26.4657  -19.5549   23.6424 C   0  0  0  0  0  0  0  0  0  0  0  0
  -30.4210  -13.0252   19.2377 C   0  0  0  0  0  0  0  0  0  0  0  0
  -27.0085  -20.6418   20.9733 C   0  0  0  0  0  0  0  0  0  0  0  0
  -27.4855  -18.9027   22.7062 C   0  0  0  0  0  0  0  0  0  0  0  0
  -28.0306  -13.4358   18.7289 C   0  0  0  0  0  0  0  0  0  0  0  0
  -27.5976  -29.5858   22.1772 C   0  0  1  0  0  0  0  0  0  0  0  0
  -28.3360  -27.8513   25.4756 C   0  0  1  0  0  0  0  0  0  0  0  0
  -27.6721  -13.3497   20.2200 C   0  0  1  0  0  0  0  0  0  0  0  0
  -26.3044  -21.0472   23.3746 C   0  0  0  0  0  0  0  0  0  1  0  0
  -34.4061  -27.1129   30.5928 C   0  0  0  0  0  0  0  0  0  0  0  0
  -32.2990  -26.8595   24.3185 C   0  0  0  0  0  0  0  0  0  0  0  0
  -34.1289  -26.4774   25.9840 C   0  0  0  0  0  0  0  0  0  0  0  0
  -33.2281  -28.7764   25.6289 C   0  0  0  0  0  0  0  0  0  0  0  0
  -28.9945  -16.2959   15.8530 C   0  0  0  0  0  0  0  0  0  0  0  0
  -30.7829  -26.8133   31.7148 C   0  0  0  0  0  0  0  0  0  0  0  0
  -31.8183  -27.0672   26.8467 C   0  0  1  0  0  0  0  0  0  0  0  0
  -32.8993  -27.2812   30.4737 C   0  0  2  0  0  0  0  0  0  0  0  0
  -32.8433  -27.2824   25.6976 C   0  0  0  0  0  0  0  0  0  0  0  0
  -25.9614  -11.6112   20.5827 N   0  0  0  0  0  0  0  0  0  0  0  0
  -26.2318  -12.9176   20.4204 N   0  0  0  0  0  0  0  0  0  0  0  0
  -27.1858  -19.2220   21.3064 N   0  0  0  0  0  0  0  0  0  0  0  0
  -29.5287  -27.1208   25.9092 N   0  0  0  0  0  0  0  0  0  0  0  0
  -29.4318  -13.8420   18.5327 N   0  0  0  0  0  0  0  0  0  0  0  0
  -25.2203  -15.0568   20.3134 N   0  0  0  0  0  0  0  0  0  0  0  0
  -22.1802  -13.5822   22.0388 N   0  0  0  0  0  0  0  0  0  0  0  0
  -27.5646  -29.0570   23.5239 N   0  0  0  0  0  0  0  0  0  0  0  0
  -32.2968  -27.4843   28.1603 N   0  0  0  0  0  0  0  0  0  0  0  0
  -29.0890  -15.8275   17.2339 N   0  0  0  0  0  0  0  0  0  0  0  0
  -32.2636  -26.6964   31.6881 N   0  3  0  0  0  0  0  0  0  0  0  0
  -21.9287  -13.3360   19.7728 O   0  0  0  0  0  0  0  0  0  0  0  0
  -29.6186  -27.9604   23.4962 O   0  0  0  0  0  0  0  0  0  0  0  0
  -30.4035  -28.9610   27.0428 O   0  0  0  0  0  0  0  0  0  0  0  0
  -32.0451  -25.4216   29.1894 O   0  0  0  0  0  0  0  0  0  0  0  0
  -30.8441  -14.3972   16.7830 O   0  0  0  0  0  0  0  0  0  0  0  0
  -21.9662   -6.7410   21.5133 O   0  0  0  0  0  0  0  0  0  0  0  0
  -27.5130  -21.7140   23.7283 O   0  0  0  0  0  0  0  0  0  1  0  0
  -20.1509   -5.6148   26.5966 F   0  0  0  0  0  0  0  0  0  0  0  0
  -22.8529   -4.5030   22.8726 F   0  0  0  0  0  0  0  0  0  0  0  0
  1  2  1  0  0  0  0
  1  5  2  0  0  0  0
  2  6  2  0  0  0  0
  3 12  2  0  0  0  0
  3 19  1  0  0  0  0
  4 13  1  0  0  0  0
  4 19  2  0  0  0  0
  5 21  1  0  0  0  0
  6 23  1  0  0  0  0
  7 14  2  0  0  0  0
  7 22  1  0  0  0  0
  8 10  2  0  0  0  0
  8 25  1  0  0  0  0
  9 11  1  0  0  0  0
  9 25  2  0  0  0  0
 10 26  1  0  0  0  0
 11 26  2  0  0  0  0
 12 27  1  0  0  0  0
 13 27  2  0  0  0  0
 14 28  1  0  0  0  0
 15 16  2  0  0  0  0
 15 29  1  0  0  0  0
 16 30  1  0  0  0  0
 17 24  1  0  0  0  0
 17 28  2  0  0  0  0
 18 30  2  0  0  0  0
 18 31  1  0  0  0  0
 19 32  1  0  0  0  0
 20 32  1  0  0  0  0
 20 33  2  0  0  0  0
 20 34  1  0  0  0  0
 21 23  2  0  0  0  0
 21 39  1  0  0  0  0
 22 24  2  0  0  0  0
 22 40  1  0  0  0  0
 23 52  1  0  0  0  0
 24 41  1  0  0  0  0
 25 67  1  0  0  0  0
 26 74  1  0  0  0  0
 27 81  1  0  0  0  0
 28 82  1  0  0  0  0
 29 31  2  0  0  0  0
 29 81  1  0  0  0  0
 30 83  1  0  0  0  0
 31 84  1  0  0  0  0
 32 65  2  0  0  0  0
 33 66  1  0  0  0  0
 33 70  1  0  0  0  0
 34 71  1  0  0  0  0
 34 76  2  0  0  0  0
 35 53  1  0  0  0  0
 35 72  1  0  0  0  0
 35 77  2  0  0  0  0
 36 62  1  0  0  0  0
 36 68  1  0  0  0  0
 36 78  2  0  0  0  0
 37 63  1  0  0  0  0
 37 73  1  0  0  0  0
 37 79  2  0  0  0  0
 38 69  1  0  0  0  0
 38 74  1  0  0  0  0
 38 80  2  0  0  0  0
 39 42  1  0  0  0  0
 40 53  1  0  0  0  0
 41 68  1  0  0  0  0
 42 44  1  0  0  0  0
 43 45  1  0  0  0  0
 43 48  1  0  0  0  0
 44 52  1  0  0  0  0
 45 54  1  0  0  0  0
 46 49  1  0  0  0  0
 46 55  1  0  0  0  0
 47 50  1  0  0  0  0
 47 55  1  0  0  0  0
 48 69  1  0  0  0  0
 49 67  1  0  0  0  0
 50 67  1  0  0  0  0
 51 54  1  0  0  0  0
 51 69  1  0  0  0  0
 52 72  1  0  0  0  0
 53 68  1  0  0  0  0
 54 66  1  0  0  0  0
 55 82  1  0  0  0  0
 56 63  1  0  0  0  0
 57 64  1  0  0  0  0
 58 64  1  0  0  0  0
 59 64  1  0  0  0  0
 60 74  1  0  0  0  0
 61 75  1  0  0  0  0
 62 64  1  0  0  0  0
 62 73  1  0  0  0  0
 63 75  1  0  0  0  0
 65 66  1  0  0  0  0
M  CHG  1  75   1
M  ISO  4  38 100  55 101  74 100  82 101
M  END
> <Batch ID>
0009

> <Smiles>
CNC(C)C(=O)NC(C(=O)N1Cc2cc([101O:1][101CH:1]3CCN(c4ccc([100N:0](C)[100C:0](=O)N5CCCC(n6nc(-c7ccc(Oc8ccc(F)cc8F)cc7)c(C(N)=O)c6N)C5)cc4)CC3)ccc2CC1C(=O)NC1CCCc2ccccc21)C(C)(C)C

> <Shape>
0.234

> <Color>
0.180

> <Negative vol penalty>
0.000

$$$$

  -OEChem-04042320373D

 87 96  0     1  0  0  0  0  0999 V2000
  -16.6950  -29.5091   23.1191 C   0  0  0  0  0  0  0  0  0  0  0  0
  -17.6638  -29.6413   22.1295 C   0  0  0  0  0  0  0  0  0  0  0  0
  -26.5940  -12.6704   21.9831 C   0  0  0  0  0  0  0  0  0  0  0  0
  -25.7679  -14.3423   20.4471 C   0  0  0  0  0  0  0  0  0  0  0  0
  -17.0721  -29.2005   24.4255 C   0  0  0  0  0  0  0  0  0  0  0  0
  -19.0105  -29.4659   22.4459 C   0  0  0  0  0  0  0  0  0  0  0  0
  -25.1420  -27.0671   19.6234 C   0  0  0  0  0  0  0  0  0  0  0  0
  -30.6479  -22.6440   21.9609 C   0  0  0  0  0  0  0  0  0  0  0  0
  -25.3510  -12.0378   21.9632 C   0  0  0  0  0  0  0  0  0  0  0  0
  -24.5249  -13.7097   20.4271 C   0  0  0  0  0  0  0  0  0  0  0  0
  -26.4625  -27.4654   19.4199 C   0  0  0  0  0  0  0  0  0  0  0  0
  -30.9394  -23.7171   21.1189 C   0  0  0  0  0  0  0  0  0  0  0  0
  -22.5043   -9.7782   22.0353 C   0  0  0  0  0  0  0  0  0  0  0  0
  -22.4855   -8.3892   21.9088 C   0  0  0  0  0  0  0  0  0  0  0  0
  -26.9903  -26.8564   21.6936 C   0  0  0  0  0  0  0  0  0  0  0  0
  -28.7994  -22.0258   20.5334 C   0  0  0  0  0  0  0  0  0  0  0  0
  -23.6278   -8.5669   19.7874 C   0  0  0  0  0  0  0  0  0  0  0  0
  -26.8025  -13.8227   21.2251 C   0  0  0  0  0  0  0  0  0  0  0  0
  -29.1785  -14.2327   20.3921 C   0  0  0  0  0  0  0  0  0  0  0  0
  -18.4233  -29.0117   24.7560 C   0  0  0  0  0  0  0  0  0  0  0  0
  -24.7325  -26.5698   20.8690 C   0  0  0  0  0  0  0  0  0  0  0  0
  -19.4062  -29.1558   23.7582 C   0  0  0  0  0  0  0  0  0  0  0  0
  -25.6646  -26.4501   21.9096 C   0  0  0  0  0  0  0  0  0  0  0  0
  -29.0908  -23.0989   19.6913 C   0  0  0  0  0  0  0  0  0  0  0  0
  -29.5780  -21.7983   21.6682 C   0  0  0  0  0  0  0  0  0  0  0  0
  -24.3165  -12.5575   21.1852 C   0  0  0  0  0  0  0  0  0  0  0  0
  -27.3862  -27.3628   20.4559 C   0  0  0  0  0  0  0  0  0  0  0  0
  -30.1608  -23.9446   19.9841 C   0  0  0  0  0  0  0  0  0  0  0  0
  -23.0849  -10.5615   21.0378 C   0  0  0  0  0  0  0  0  0  0  0  0
  -23.0472   -7.7836   20.7849 C   0  0  0  0  0  0  0  0  0  0  0  0
  -23.6466   -9.9559   19.9139 C   0  0  0  0  0  0  0  0  0  0  0  0
  -28.0861  -14.4769   21.2458 C   0  0  0  0  0  0  0  0  0  0  0  0
  -30.1495  -15.1055   20.8187 C   0  0  0  0  0  0  0  0  0  0  0  0
  -29.3043  -13.3003   19.3102 C   0  0  0  0  0  0  0  0  0  0  0  0
  -22.6304  -27.4876   23.0696 C   0  0  0  0  0  0  0  0  0  0  0  0
  -23.4342  -24.6659   24.4533 C   0  0  0  0  0  0  0  0  0  0  0  0
  -25.7337  -22.1715   24.8228 C   0  0  0  0  0  0  0  0  0  0  0  0
  -29.9551  -20.3425   23.6893 C   0  0  0  0  0  0  0  0  0  0  0  0
  -18.7864  -28.7259   26.1917 C   0  0  0  0  0  0  0  0  0  0  0  0
  -23.3107  -26.1194   21.0643 C   0  0  0  0  0  0  0  0  0  0  0  0
  -25.2803  -25.9037   23.2595 C   0  0  0  0  0  0  0  0  0  0  0  0
  -20.2039  -28.1869   26.3658 C   0  0  0  0  0  0  0  0  0  0  0  0
  -31.6611  -17.3997   24.7411 C   0  0  0  0  0  0  0  0  0  0  0  0
  -28.8788  -22.7548   14.8880 C   0  0  0  0  0  0  0  0  0  0  0  0
  -29.2659  -21.4798   15.6098 C   0  0  0  0  0  0  0  0  0  0  0  0
  -21.1941  -29.0173   25.5554 C   0  0  0  0  0  0  0  0  0  0  0  0
  -31.0417  -16.2949   23.8821 C   0  0  0  0  0  0  0  0  0  0  0  0
  -30.6272  -18.4475   25.1495 C   0  0  0  0  0  0  0  0  0  0  0  0
  -29.2415  -17.9243   23.1810 C   0  0  0  0  0  0  0  0  0  0  0  0
  -28.1829  -23.5493   15.9722 C   0  0  0  0  0  0  0  0  0  0  0  0
  -29.7456  -21.9568   16.9694 C   0  0  0  0  0  0  0  0  0  0  0  0
  -20.8752  -28.9487   24.0570 C   0  0  1  0  0  0  0  0  0  0  0  0
  -22.8832  -26.1087   22.5287 C   0  0  1  0  0  0  0  0  0  0  0  0
  -30.2578  -16.8800   22.6910 C   0  0  2  0  0  0  0  0  0  0  0  0
  -26.6902  -19.9806   25.5861 C   0  0  0  0  0  0  0  0  0  0  0  0
  -24.0350  -26.2307   27.0029 C   0  0  0  0  0  0  0  0  0  0  0  0
  -25.2896  -24.2359   27.8484 C   0  0  0  0  0  0  0  0  0  0  0  0
  -22.8484  -24.0595   27.3666 C   0  0  0  0  0  0  0  0  0  0  0  0
  -24.6506  -20.7452   22.4666 C   0  0  0  0  0  0  0  0  0  0  0  0
  -28.2470  -23.3276   18.4809 C   0  0  0  0  0  0  0  0  0  0  0  0
  -30.7005  -27.3938   18.9978 C   0  0  0  0  0  0  0  0  0  0  0  0
  -29.1986  -27.6248   18.9386 C   0  0  0  0  0  0  0  0  0  1  0  0
  -31.0527  -26.1400   19.7827 C   0  0  0  0  0  0  0  0  0  0  0  0
  -24.4827  -24.2216   25.4443 C   0  0  1  0  0  0  0  0  0  0  0  0
  -25.5968  -20.6603   24.7766 C   0  0  2  0  0  0  0  0  0  0  0  0
  -24.1710  -24.6990   26.8908 C   0  0  0  0  0  0  0  0  0  0  0  0
  -28.3387  -15.4300   22.1467 N   0  0  0  0  0  0  0  0  0  0  0  0
  -29.6011  -15.7924   21.8615 N   0  0  0  0  0  0  0  0  0  0  0  0
  -23.8769  -25.4826   23.4031 N   0  0  0  0  0  0  0  0  0  0  0  0
  -29.9273  -18.9600   23.9695 N   0  0  0  0  0  0  0  0  0  0  0  0
  -31.4103  -15.3446   20.3997 N   0  0  0  0  0  0  0  0  0  0  0  0
  -28.2104  -12.4788   19.0055 N   0  0  0  0  0  0  0  0  0  0  0  0
  -29.2824  -20.7082   22.5238 N   0  0  0  0  0  0  0  0  0  0  0  0
  -21.3336  -27.6943   23.4996 N   0  0  0  0  0  0  0  0  0  0  0  0
  -24.5901  -22.7735   25.3032 N   0  0  0  0  0  0  0  0  0  0  0  0
  -29.0186  -23.2687   17.2018 N   0  3  0  0  0  0  0  0  0  0  0  0
  -25.6829  -20.1751   23.3701 N   0  3  0  0  0  0  0  0  0  0  0  0
  -30.3613  -13.1872   18.6442 O   0  0  0  0  0  0  0  0  0  0  0  0
  -23.5447  -28.3031   23.0963 O   0  0  0  0  0  0  0  0  0  0  0  0
  -22.2667  -24.2961   24.6014 O   0  0  0  0  0  0  0  0  0  0  0  0
  -26.7546  -22.7589   24.4715 O   0  0  0  0  0  0  0  0  0  0  0  0
  -30.5560  -21.1397   24.4142 O   0  0  0  0  0  0  0  0  0  0  0  0
  -23.1035  -11.9403   21.1652 O   0  0  0  0  0  0  0  0  0  0  0  0
  -28.6756  -27.7515   20.2602 O   0  0  0  0  0  0  0  0  0  1  0  0
  -30.4611  -25.0036   19.1674 O   0  0  0  0  0  0  0  0  0  0  0  0
  -23.0304   -6.4496   20.6643 F   0  0  0  0  0  0  0  0  0  0  0  0
  -24.2068  -10.7032   18.9529 F   0  0  0  0  0  0  0  0  0  0  0  0
  1  2  1  0  0  0  0
  1  5  2  0  0  0  0
  2  6  2  0  0  0  0
  3  9  2  0  0  0  0
  3 18  1  0  0  0  0
  4 10  1  0  0  0  0
  4 18  2  0  0  0  0
  5 20  1  0  0  0  0
  6 22  1  0  0  0  0
  7 11  2  0  0  0  0
  7 21  1  0  0  0  0
  8 12  2  0  0  0  0
  8 25  1  0  0  0  0
  9 26  1  0  0  0  0
 10 26  2  0  0  0  0
 11 27  1  0  0  0  0
 12 28  1  0  0  0  0
 13 14  2  0  0  0  0
 13 29  1  0  0  0  0
 14 30  1  0  0  0  0
 15 23  1  0  0  0  0
 15 27  2  0  0  0  0
 16 24  1  0  0  0  0
 16 25  2  0  0  0  0
 17 30  2  0  0  0  0
 17 31  1  0  0  0  0
 18 32  1  0  0  0  0
 19 32  1  0  0  0  0
 19 33  2  0  0  0  0
 19 34  1  0  0  0  0
 20 22  2  0  0  0  0
 20 39  1  0  0  0  0
 21 23  2  0  0  0  0
 21 40  1  0  0  0  0
 22 52  1  0  0  0  0
 23 41  1  0  0  0  0
 24 28  2  0  0  0  0
 24 60  1  0  0  0  0
 25 73  1  0  0  0  0
 26 83  1  0  0  0  0
 27 84  1  0  0  0  0
 28 85  1  0  0  0  0
 29 31  2  0  0  0  0
 29 83  1  0  0  0  0
 30 86  1  0  0  0  0
 31 87  1  0  0  0  0
 32 67  2  0  0  0  0
 33 68  1  0  0  0  0
 33 71  1  0  0  0  0
 34 72  1  0  0  0  0
 34 78  2  0  0  0  0
 35 53  1  0  0  0  0
 35 74  1  0  0  0  0
 35 79  2  0  0  0  0
 36 64  1  0  0  0  0
 36 69  1  0  0  0  0
 36 80  2  0  0  0  0
 37 65  1  0  0  0  0
 37 75  1  0  0  0  0
 37 81  2  0  0  0  0
 38 70  1  0  0  0  0
 38 73  1  0  0  0  0
 38 82  2  0  0  0  0
 39 42  1  0  0  0  0
 40 53  1  0  0  0  0
 41 69  1  0  0  0  0
 42 46  1  0  0  0  0
 43 47  1  0  0  0  0
 43 48  1  0  0  0  0
 44 45  1  0  0  0  0
 44 50  1  0  0  0  0
 45 51  1  0  0  0  0
 46 52  1  0  0  0  0
 47 54  1  0  0  0  0
 48 70  1  0  0  0  0
 49 54  1  0  0  0  0
 49 70  1  0  0  0  0
 50 76  1  0  0  0  0
 51 76  1  0  0  0  0
 52 74  1  0  0  0  0
 53 69  1  0  0  0  0
 54 68  1  0  0  0  0
 55 65  1  0  0  0  0
 56 66  1  0  0  0  0
 57 66  1  0  0  0  0
 58 66  1  0  0  0  0
 59 77  1  0  0  0  0
 60 76  1  0  0  0  0
 61 62  1  0  0  0  0
 61 63  1  0  0  0  0
 62 84  1  0  0  0  0
 63 85  1  0  0  0  0
 64 66  1  0  0  0  0
 64 75  1  0  0  0  0
 65 77  1  0  0  0  0
 67 68  1  0  0  0  0
M  CHG  2  76   1  77   1
M  ISO  4  38 100  62 101  73 100  84 101
M  END
> <Batch ID>
0009

> <Smiles>
CNC(C)C(=O)NC(C(=O)N1Cc2cc([101O:1][101CH2:1]CCOc3ccc([100NH:0][100C:0](=O)N4CCCC(n5nc(-c6ccc(Oc7ccc(F)cc7F)cc6)c(C(N)=O)c5N)C4)cc3CN3CCCC3)ccc2CC1C(=O)NC1CCCc2ccccc21)C(C)(C)C

> <Shape>
0.247

> <Color>
0.091

> <Negative vol penalty>
0.000

$$$$

  -OEChem-04042320373D

 87 96  0     1  0  0  0  0  0999 V2000
  -16.4793  -30.5023   22.0826 C   0  0  0  0  0  0  0  0  0  0  0  0
  -17.4477  -31.1007   21.2829 C   0  0  0  0  0  0  0  0  0  0  0  0
  -26.2691  -11.2408   20.2732 C   0  0  0  0  0  0  0  0  0  0  0  0
  -25.6288  -13.5444   20.6203 C   0  0  0  0  0  0  0  0  0  0  0  0
  -16.7728  -30.1790   23.4067 C   0  0  0  0  0  0  0  0  0  0  0  0
  -18.7099  -31.3772   21.8072 C   0  0  0  0  0  0  0  0  0  0  0  0
  -24.6505  -28.5819   18.8430 C   0  0  0  0  0  0  0  0  0  0  0  0
  -31.8049  -22.0924   21.9635 C   0  0  0  0  0  0  0  0  0  0  0  0
  -31.8008  -20.7160   22.1893 C   0  0  0  0  0  0  0  0  0  0  0  0
  -24.9675  -10.8347   20.5672 C   0  0  0  0  0  0  0  0  0  0  0  0
  -24.3272  -13.1383   20.9143 C   0  0  0  0  0  0  0  0  0  0  0  0
  -25.8483  -28.2561   18.2063 C   0  0  0  0  0  0  0  0  0  0  0  0
  -21.9798  -10.7121   18.9885 C   0  0  0  0  0  0  0  0  0  0  0  0
  -21.3936   -9.7606   18.1540 C   0  0  0  0  0  0  0  0  0  0  0  0
  -27.0952  -29.3183   19.9853 C   0  0  0  0  0  0  0  0  0  0  0  0
  -29.8703  -21.8638   20.5344 C   0  0  0  0  0  0  0  0  0  0  0  0
  -21.1367   -8.2680   20.0363 C   0  0  0  0  0  0  0  0  0  0  0  0
  -26.5998  -12.5957   20.2998 C   0  0  0  0  0  0  0  0  0  0  0  0
  -28.6510  -12.8046   18.7977 C   0  0  0  0  0  0  0  0  0  0  0  0
  -18.0423  -30.4429   23.9447 C   0  0  0  0  0  0  0  0  0  0  0  0
  -24.6710  -29.2645   20.0624 C   0  0  0  0  0  0  0  0  0  0  0  0
  -19.0202  -31.0584   23.1401 C   0  0  0  0  0  0  0  0  0  0  0  0
  -25.8990  -29.6364   20.6339 C   0  0  0  0  0  0  0  0  0  0  0  0
  -30.8396  -22.6663   21.1361 C   0  0  0  0  0  0  0  0  0  0  0  0
  -30.8315  -19.9134   21.5876 C   0  0  0  0  0  0  0  0  0  0  0  0
  -23.9965  -11.7835   20.8877 C   0  0  0  0  0  0  0  0  0  0  0  0
  -27.0676  -28.6237   18.7760 C   0  0  0  0  0  0  0  0  0  0  0  0
  -22.1447  -10.4416   20.3470 C   0  0  0  0  0  0  0  0  0  0  0  0
  -20.9720   -8.5386   18.6779 C   0  0  0  0  0  0  0  0  0  0  0  0
  -29.8663  -20.4873   20.7601 C   0  0  0  0  0  0  0  0  0  0  0  0
  -21.7231   -9.2195   20.8709 C   0  0  0  0  0  0  0  0  0  0  0  0
  -27.9444  -13.0157   19.9968 C   0  0  0  0  0  0  0  0  0  0  0  0
  -29.8745  -13.3907   19.0124 C   0  0  0  0  0  0  0  0  0  0  0  0
  -28.2384  -12.1384   17.5970 C   0  0  0  0  0  0  0  0  0  0  0  0
  -22.6936  -30.7567   22.8801 C   0  0  0  0  0  0  0  0  0  0  0  0
  -25.1289  -29.3757   24.1341 C   0  0  0  0  0  0  0  0  0  0  0  0
  -27.7061  -27.3835   25.1475 C   0  0  0  0  0  0  0  0  0  0  0  0
  -31.7181  -17.7895   22.6120 C   0  0  0  0  0  0  0  0  0  0  0  0
  -18.2977  -30.1187   25.3953 C   0  0  0  0  0  0  0  0  0  0  0  0
  -23.4038  -29.6901   20.7530 C   0  0  0  0  0  0  0  0  0  0  0  0
  -25.8717  -30.4001   21.9297 C   0  0  0  0  0  0  0  0  0  0  0  0
  -19.7789  -30.1030   25.7643 C   0  0  0  0  0  0  0  0  0  0  0  0
  -32.9540  -14.4516   22.5232 C   0  0  0  0  0  0  0  0  0  0  0  0
  -20.4835  -31.3311   25.1969 C   0  0  0  0  0  0  0  0  0  0  0  0
  -31.8768  -13.6866   21.7508 C   0  0  0  0  0  0  0  0  0  0  0  0
  -32.0860  -26.1321   20.2252 C   0  0  0  0  0  0  0  0  0  0  0  0
  -32.3499  -15.5275   23.4239 C   0  0  0  0  0  0  0  0  0  0  0  0
  -32.1100  -24.7816   20.9432 C   0  0  0  0  0  0  0  0  0  0  0  0
  -29.5905  -24.7784   20.7241 C   0  0  0  0  0  0  0  0  0  0  0  0
  -30.3630  -15.6976   21.9773 C   0  0  0  0  0  0  0  0  0  0  0  0
  -31.5926  -26.0609   18.7837 C   0  0  0  0  0  0  0  0  0  0  0  0
  -29.3154  -25.0024   19.2430 C   0  0  0  0  0  0  0  0  0  0  0  0
  -20.4088  -31.3515   23.6653 C   0  0  1  0  0  0  0  0  0  0  0  0
  -23.5084  -29.6445   22.2879 C   0  0  1  0  0  0  0  0  0  0  0  0
  -30.9274  -14.6466   21.0075 C   0  0  2  0  0  0  0  0  0  0  0  0
  -28.8842  -26.5862   27.2148 C   0  0  0  0  0  0  0  0  0  0  0  0
  -26.5070  -32.0849   24.3891 C   0  0  0  0  0  0  0  0  0  0  0  0
  -28.2764  -30.9753   25.7697 C   0  0  0  0  0  0  0  0  0  0  0  0
  -25.9127  -31.0073   26.5663 C   0  0  0  0  0  0  0  0  0  0  0  0
  -27.0459  -24.5562   24.5736 C   0  0  0  0  0  0  0  0  0  0  0  0
  -29.6398  -26.5355   17.3170 C   0  0  0  0  0  0  0  0  0  0  0  0
  -28.2370  -27.1084   17.3639 C   0  0  0  0  0  0  0  0  0  1  0  0
  -26.5471  -29.5143   24.6270 C   0  0  1  0  0  0  0  0  0  0  0  0
  -27.7842  -26.2974   26.2051 C   0  0  2  0  0  0  0  0  0  0  0  0
  -26.8050  -30.8862   25.3118 C   0  0  0  0  0  0  0  0  0  0  0  0
  -28.6594  -13.6836   20.9060 N   0  0  0  0  0  0  0  0  0  0  0  0
  -29.8282  -13.8972   20.2779 N   0  0  0  0  0  0  0  0  0  0  0  0
  -30.8434  -24.0473   20.9102 N   0  0  3  0  0  0  0  0  0  0  0  0
  -24.8652  -29.8209   22.8330 N   0  0  0  0  0  0  0  0  0  0  0  0
  -31.4655  -16.4019   22.6506 N   0  0  0  0  0  0  0  0  0  0  0  0
  -30.9747  -13.5170   18.2404 N   0  0  0  0  0  0  0  0  0  0  0  0
  -26.9484  -11.5930   17.5451 N   0  0  0  0  0  0  0  0  0  0  0  0
  -30.8304  -18.5154   21.8185 N   0  0  0  0  0  0  0  0  0  0  0  0
  -21.3695  -30.4285   23.1001 N   0  0  0  0  0  0  0  0  0  0  0  0
  -26.7951  -28.3616   25.4862 N   0  0  0  0  0  0  0  0  0  0  0  0
  -30.0859  -26.1942   18.7188 N   0  3  2  0  0  0  0  0  0  0  0  0
  -28.0621  -24.9771   25.5722 N   0  3  0  0  0  0  0  0  0  0  0  0
  -28.9972  -12.0156   16.6057 O   0  0  0  0  0  0  0  0  0  0  0  0
  -23.2263  -31.8335   23.1215 O   0  0  0  0  0  0  0  0  0  0  0  0
  -24.2750  -28.8914   24.8821 O   0  0  0  0  0  0  0  0  0  0  0  0
  -28.3878  -27.3679   24.1250 O   0  0  0  0  0  0  0  0  0  0  0  0
  -32.6695  -18.2929   23.2149 O   0  0  0  0  0  0  0  0  0  0  0  0
  -22.7262  -11.3876   21.1744 O   0  0  0  0  0  0  0  0  0  0  0  0
  -28.2333  -28.2985   18.1513 O   0  0  0  0  0  0  0  0  0  1  0  0
  -20.4076   -7.6255   17.8767 F   0  0  0  0  0  0  0  0  0  0  0  0
  -28.9303  -19.7253   20.1763 F   0  0  0  0  0  0  0  0  0  0  0  0
  -21.8777   -8.9543   22.1753 F   0  0  0  0  0  0  0  0  0  0  0  0
  1  2  1  0  0  0  0
  1  5  2  0  0  0  0
  2  6  2  0  0  0  0
  3 10  2  0  0  0  0
  3 18  1  0  0  0  0
  4 11  1  0  0  0  0
  4 18  2  0  0  0  0
  5 20  1  0  0  0  0
  6 22  1  0  0  0  0
  7 12  2  0  0  0  0
  7 21  1  0  0  0  0
  8  9  2  0  0  0  0
  8 24  1  0  0  0  0
  9 25  1  0  0  0  0
 10 26  1  0  0  0  0
 11 26  2  0  0  0  0
 12 27  1  0  0  0  0
 13 14  2  0  0  0  0
 13 28  1  0  0  0  0
 14 29  1  0  0  0  0
 15 23  1  0  0  0  0
 15 27  2  0  0  0  0
 16 24  2  0  0  0  0
 16 30  1  0  0  0  0
 17 29  2  0  0  0  0
 17 31  1  0  0  0  0
 18 32  1  0  0  0  0
 19 32  1  0  0  0  0
 19 33  2  0  0  0  0
 19 34  1  0  0  0  0
 20 22  2  0  0  0  0
 20 39  1  0  0  0  0
 21 23  2  0  0  0  0
 21 40  1  0  0  0  0
 22 53  1  0  0  0  0
 23 41  1  0  0  0  0
 24 68  1  0  0  0  0
 25 30  2  0  0  0  0
 25 73  1  0  0  0  0
 26 83  1  0  0  0  0
 27 84  1  0  0  0  0
 28 31  2  0  0  0  0
 28 83  1  0  0  0  0
 29 85  1  0  0  0  0
 30 86  1  0  0  0  0
 31 87  1  0  0  0  0
 32 66  2  0  0  0  0
 33 67  1  0  0  0  0
 33 71  1  0  0  0  0
 34 72  1  0  0  0  0
 34 78  2  0  0  0  0
 35 54  1  0  0  0  0
 35 74  1  0  0  0  0
 35 79  2  0  0  0  0
 36 63  1  0  0  0  0
 36 69  1  0  0  0  0
 36 80  2  0  0  0  0
 37 64  1  0  0  0  0
 37 75  1  0  0  0  0
 37 81  2  0  0  0  0
 38 70  1  0  0  0  0
 38 73  1  0  0  0  0
 38 82  2  0  0  0  0
 39 42  1  0  0  0  0
 40 54  1  0  0  0  0
 41 69  1  0  0  0  0
 42 44  1  0  0  0  0
 43 45  1  0  0  0  0
 43 47  1  0  0  0  0
 44 53  1  0  0  0  0
 45 55  1  0  0  0  0
 46 48  1  0  0  0  0
 46 51  1  0  0  0  0
 47 70  1  0  0  0  0
 48 68  1  0  0  0  0
 49 52  1  0  0  0  0
 49 68  1  0  0  0  0
 50 55  1  0  0  0  0
 50 70  1  0  0  0  0
 51 76  1  0  0  0  0
 52 76  1  0  0  0  0
 53 74  1  0  0  0  0
 54 69  1  0  0  0  0
 55 67  1  0  0  0  0
 56 64  1  0  0  0  0
 57 65  1  0  0  0  0
 58 65  1  0  0  0  0
 59 65  1  0  0  0  0
 60 77  1  0  0  0  0
 61 62  1  0  0  0  0
 61 76  1  0  0  0  0
 62 84  1  0  0  0  0
 63 65  1  0  0  0  0
 63 75  1  0  0  0  0
 64 77  1  0  0  0  0
 66 67  1  0  0  0  0
M  CHG  2  76   1  77   1
M  ISO  4  38 100  62 101  73 100  84 101
M  END
> <Batch ID>
0009

> <Smiles>
CNC(C)C(=O)NC(C(=O)N1Cc2cc([101O:1][101CH2:1]CN3CCCN(c4ccc([100NH:0][100C:0](=O)N5CCCC(n6nc(-c7ccc(Oc8ccc(F)cc8F)cc7)c(C(N)=O)c6N)C5)c(F)c4)CC3)ccc2CC1C(=O)NC1CCCc2ccccc21)C(C)(C)C

> <Shape>
0.319

> <Color>
0.082

> <Negative vol penalty>
0.000

$$$$

  -OEChem-04042320373D

 89 99  0     1  0  0  0  0  0999 V2000
  -28.5169  -40.0052   22.5403 C   0  0  0  0  0  0  0  0  0  0  0  0
  -29.3891  -38.9283   22.6621 C   0  0  0  0  0  0  0  0  0  0  0  0
  -24.7372   -6.2206   22.6190 C   0  0  0  0  0  0  0  0  0  0  0  0
  -26.3001   -6.4678   20.7933 C   0  0  0  0  0  0  0  0  0  0  0  0
  -27.2612  -39.9556   23.1443 C   0  0  0  0  0  0  0  0  0  0  0  0
  -29.0065  -37.8015   23.3889 C   0  0  0  0  0  0  0  0  0  0  0  0
  -28.7983  -31.2944   20.3058 C   0  0  0  0  0  0  0  0  0  0  0  0
  -24.3916  -21.1625   20.9275 C   0  0  0  0  0  0  0  0  0  0  0  0
  -24.9078  -22.4550   20.8350 C   0  0  0  0  0  0  0  0  0  0  0  0
  -25.4251   -5.0881   23.0546 C   0  0  0  0  0  0  0  0  0  0  0  0
  -26.9881   -5.3353   21.2289 C   0  0  0  0  0  0  0  0  0  0  0  0
  -28.9359  -29.9849   19.8448 C   0  0  0  0  0  0  0  0  0  0  0  0
  -25.6389   -1.8237   22.2045 C   0  0  0  0  0  0  0  0  0  0  0  0
  -24.8849   -0.7063   22.5629 C   0  0  0  0  0  0  0  0  0  0  0  0
  -28.0863  -29.1443   21.9471 C   0  0  0  0  0  0  0  0  0  0  0  0
  -26.6343  -20.2781   21.0866 C   0  0  0  0  0  0  0  0  0  0  0  0
  -25.8030   -0.8030   24.7956 C   0  0  0  0  0  0  0  0  0  0  0  0
  -25.1747   -6.9105   21.4883 C   0  0  0  0  0  0  0  0  0  0  0  0
  -23.1169   -8.1540   20.6359 C   0  0  0  0  0  0  0  0  0  0  0  0
  -26.8594  -38.8237   23.8708 C   0  0  0  0  0  0  0  0  0  0  0  0
  -28.2891  -31.5345   21.5850 C   0  0  0  0  0  0  0  0  0  0  0  0
  -27.7449  -37.7372   24.0044 C   0  0  0  0  0  0  0  0  0  0  0  0
  -27.9345  -30.4542   22.4096 C   0  0  0  0  0  0  0  0  0  0  0  0
  -25.2548  -20.0740   21.0533 C   0  0  0  0  0  0  0  0  0  0  0  0
  -26.2872  -22.6591   20.8683 C   0  0  0  0  0  0  0  0  0  0  0  0
  -26.5506   -4.6455   22.3595 C   0  0  0  0  0  0  0  0  0  0  0  0
  -28.5810  -28.9125   20.6636 C   0  0  0  0  0  0  0  0  0  0  0  0
  -26.4750   -2.4308   23.1416 C   0  0  0  0  0  0  0  0  0  0  0  0
  -24.9670   -0.1959   23.8585 C   0  0  0  0  0  0  0  0  0  0  0  0
  -27.1505  -21.5706   20.9941 C   0  0  0  0  0  0  0  0  0  0  0  0
  -26.5570   -1.9204   24.4372 C   0  0  0  0  0  0  0  0  0  0  0  0
  -24.4641   -8.0801   21.0375 C   0  0  0  0  0  0  0  0  0  0  0  0
  -22.9296   -9.4735   20.3035 C   0  0  0  0  0  0  0  0  0  0  0  0
  -22.1235   -7.1223   20.5693 C   0  0  0  0  0  0  0  0  0  0  0  0
  -27.3063  -34.0720   24.1679 C   0  0  0  0  0  0  0  0  0  0  0  0
  -25.1776  -31.8641   24.2327 C   0  0  0  0  0  0  0  0  0  0  0  0
  -22.8318  -29.4459   23.6974 C   0  0  0  0  0  0  0  0  0  0  0  0
  -23.4578  -14.7456   21.1806 C   0  0  0  0  0  0  0  0  0  0  0  0
  -25.5107  -38.8354   24.5458 C   0  0  0  0  0  0  0  0  0  0  0  0
  -28.1815  -32.9265   22.1458 C   0  0  0  0  0  0  0  0  0  0  0  0
  -27.4237  -30.7591   23.7913 C   0  0  0  0  0  0  0  0  0  0  0  0
  -25.0367  -37.4521   24.9839 C   0  0  0  0  0  0  0  0  0  0  0  0
  -26.2518  -13.2281   19.6872 C   0  0  0  0  0  0  0  0  0  0  0  0
  -26.1590  -36.7042   25.6966 C   0  0  0  0  0  0  0  0  0  0  0  0
  -25.9285  -11.7460   19.8739 C   0  0  0  0  0  0  0  0  0  0  0  0
  -26.9921  -26.0920   19.5585 C   0  0  0  0  0  0  0  0  0  0  0  0
  -28.5649  -25.5545   21.4251 C   0  0  0  0  0  0  0  0  0  0  0  0
  -25.8816  -14.0550   20.9196 C   0  0  0  0  0  0  0  0  0  0  0  0
  -26.0619  -24.9719   20.0161 C   0  0  0  0  0  0  0  0  0  0  0  0
  -27.6346  -24.4374   21.8876 C   0  0  0  0  0  0  0  0  0  0  0  0
  -23.9166  -18.2481   20.0517 C   0  0  0  0  0  0  0  0  0  0  0  0
  -25.4927  -17.7949   21.9376 C   0  0  0  0  0  0  0  0  0  0  0  0
  -23.0455  -17.0874   20.5250 C   0  0  0  0  0  0  0  0  0  0  0  0
  -24.5881  -16.6517   22.3843 C   0  0  0  0  0  0  0  0  0  0  0  0
  -24.1566  -12.3976   21.5482 C   0  0  0  0  0  0  0  0  0  0  0  0
  -27.3566  -36.4872   24.7639 C   0  0  1  0  0  0  0  0  0  0  0  0
  -26.9617  -33.1139   23.0658 C   0  0  1  0  0  0  0  0  0  0  0  0
  -24.4637  -11.5501   20.3038 C   0  0  2  0  0  0  0  0  0  0  0  0
  -27.8007  -26.6659   20.7149 C   0  0  0  0  0  0  0  0  0  1  0  0
  -20.5995  -28.6500   24.5224 C   0  0  0  0  0  0  0  0  0  0  0  0
  -26.5181  -30.6738   26.7005 C   0  0  0  0  0  0  0  0  0  0  0  0
  -24.5443  -29.1544   26.9526 C   0  0  0  0  0  0  0  0  0  0  0  0
  -24.2414  -31.6257   27.1065 C   0  0  0  0  0  0  0  0  0  0  0  0
  -21.5741  -29.8664   21.0516 C   0  0  0  0  0  0  0  0  0  0  0  0
  -24.7134  -30.5725   24.8570 C   0  0  1  0  0  0  0  0  0  0  0  0
  -21.3270  -29.5250   23.5135 C   0  0  2  0  0  0  0  0  0  0  0  0
  -25.0194  -30.5069   26.3800 C   0  0  0  0  0  0  0  0  0  0  0  0
  -25.0886   -9.2587   20.9672 N   0  0  0  0  0  0  0  0  0  0  0  0
  -24.1294  -10.0857   20.5175 N   0  0  0  0  0  0  0  0  0  0  0  0
  -24.7364  -18.7762   21.1476 N   0  0  0  0  0  0  0  0  0  0  0  0
  -26.8033  -23.9578   20.7744 N   0  0  0  0  0  0  0  0  0  0  0  0
  -26.4886  -31.8940   23.7420 N   0  0  0  0  0  0  0  0  0  0  0  0
  -24.4893  -13.8046   21.3157 N   0  0  0  0  0  0  0  0  0  0  0  0
  -23.8187  -16.0994   21.2676 N   0  0  0  0  0  0  0  0  0  0  0  0
  -21.8574  -10.1581   19.8518 N   0  0  0  0  0  0  0  0  0  0  0  0
  -21.9930   -6.3963   19.3776 N   0  0  0  0  0  0  0  0  0  0  0  0
  -27.0925  -35.3990   23.8471 N   0  0  0  0  0  0  0  0  0  0  0  0
  -23.2983  -30.4445   24.5258 N   0  0  0  0  0  0  0  0  0  0  0  0
  -20.9483  -29.0771   22.1435 N   0  3  0  0  0  0  0  0  0  0  0  0
  -21.3626   -6.8634   21.5324 O   0  0  0  0  0  0  0  0  0  0  0  0
  -27.7335  -33.6403   25.2323 O   0  0  0  0  0  0  0  0  0  0  0  0
  -24.4029  -32.8237   24.1852 O   0  0  0  0  0  0  0  0  0  0  0  0
  -23.5237  -28.5821   23.1628 O   0  0  0  0  0  0  0  0  0  0  0  0
  -22.2851  -14.3998   20.9905 O   0  0  0  0  0  0  0  0  0  0  0  0
  -27.2223   -3.5406   22.7845 O   0  0  0  0  0  0  0  0  0  0  0  0
  -28.7145  -27.6281   20.2025 O   0  0  0  0  0  0  0  0  0  1  0  0
  -24.2417    0.8762   24.2030 F   0  0  0  0  0  0  0  0  0  0  0  0
  -28.4780  -21.7551   21.0280 F   0  0  0  0  0  0  0  0  0  0  0  0
  -27.3576   -2.5000   25.3421 F   0  0  0  0  0  0  0  0  0  0  0  0
  1  2  1  0  0  0  0
  1  5  2  0  0  0  0
  2  6  2  0  0  0  0
  3 10  2  0  0  0  0
  3 18  1  0  0  0  0
  4 11  1  0  0  0  0
  4 18  2  0  0  0  0
  5 20  1  0  0  0  0
  6 22  1  0  0  0  0
  7 12  2  0  0  0  0
  7 21  1  0  0  0  0
  8  9  2  0  0  0  0
  8 24  1  0  0  0  0
  9 25  1  0  0  0  0
 10 26  1  0  0  0  0
 11 26  2  0  0  0  0
 12 27  1  0  0  0  0
 13 14  2  0  0  0  0
 13 28  1  0  0  0  0
 14 29  1  0  0  0  0
 15 23  1  0  0  0  0
 15 27  2  0  0  0  0
 16 24  2  0  0  0  0
 16 30  1  0  0  0  0
 17 29  2  0  0  0  0
 17 31  1  0  0  0  0
 18 32  1  0  0  0  0
 19 32  1  0  0  0  0
 19 33  2  0  0  0  0
 19 34  1  0  0  0  0
 20 22  2  0  0  0  0
 20 39  1  0  0  0  0
 21 23  2  0  0  0  0
 21 40  1  0  0  0  0
 22 56  1  0  0  0  0
 23 41  1  0  0  0  0
 24 70  1  0  0  0  0
 25 30  2  0  0  0  0
 25 71  1  0  0  0  0
 26 85  1  0  0  0  0
 27 86  1  0  0  0  0
 28 31  2  0  0  0  0
 28 85  1  0  0  0  0
 29 87  1  0  0  0  0
 30 88  1  0  0  0  0
 31 89  1  0  0  0  0
 32 68  2  0  0  0  0
 33 69  1  0  0  0  0
 33 75  1  0  0  0  0
 34 76  1  0  0  0  0
 34 80  2  0  0  0  0
 35 57  1  0  0  0  0
 35 77  1  0  0  0  0
 35 81  2  0  0  0  0
 36 65  1  0  0  0  0
 36 72  1  0  0  0  0
 36 82  2  0  0  0  0
 37 66  1  0  0  0  0
 37 78  1  0  0  0  0
 37 83  2  0  0  0  0
 38 73  1  0  0  0  0
 38 74  1  0  0  0  0
 38 84  2  0  0  0  0
 39 42  1  0  0  0  0
 40 57  1  0  0  0  0
 41 72  1  0  0  0  0
 42 44  1  0  0  0  0
 43 45  1  0  0  0  0
 43 48  1  0  0  0  0
 44 56  1  0  0  0  0
 45 58  1  0  0  0  0
 46 49  1  0  0  0  0
 46 59  1  0  0  0  0
 47 50  1  0  0  0  0
 47 59  1  0  0  0  0
 48 73  1  0  0  0  0
 49 71  1  0  0  0  0
 50 71  1  0  0  0  0
 51 53  1  0  0  0  0
 51 70  1  0  0  0  0
 52 54  1  0  0  0  0
 52 70  1  0  0  0  0
 53 74  1  0  0  0  0
 54 74  1  0  0  0  0
 55 58  1  0  0  0  0
 55 73  1  0  0  0  0
 56 77  1  0  0  0  0
 57 72  1  0  0  0  0
 58 69  1  0  0  0  0
 59 86  1  0  0  0  0
 60 66  1  0  0  0  0
 61 67  1  0  0  0  0
 62 67  1  0  0  0  0
 63 67  1  0  0  0  0
 64 79  1  0  0  0  0
 65 67  1  0  0  0  0
 65 78  1  0  0  0  0
 66 79  1  0  0  0  0
 68 69  1  0  0  0  0
M  CHG  1  79   1
M  ISO  4  38 100  59 101  74 100  86 101
M  END
> <Batch ID>
0009

> <Smiles>
CNC(C)C(=O)NC(C(=O)N1Cc2cc([101O:1][101CH:1]3CCN(c4ccc(N5CC[100N:0]([100C:0](=O)N6CCCC(n7nc(-c8ccc(Oc9ccc(F)cc9F)cc8)c(C(N)=O)c7N)C6)CC5)cc4F)CC3)ccc2CC1C(=O)NC1CCCc2ccccc21)C(C)(C)C

> <Shape>
0.232

> <Color>
0.110

> <Negative vol penalty>
0.000

$$$$

  -OEChem-04042320373D

 83 92  0     1  0  0  0  0  0999 V2000
  -16.1875  -31.1302   20.7517 C   0  0  0  0  0  0  0  0  0  0  0  0
  -17.4267  -31.7406   20.5861 C   0  0  0  0  0  0  0  0  0  0  0  0
  -30.7167  -23.1904   13.2308 C   0  0  0  0  0  0  0  0  0  0  0  0
  -30.5122  -21.8186   13.3791 C   0  0  0  0  0  0  0  0  0  0  0  0
  -25.3836  -13.7072   21.5537 C   0  0  0  0  0  0  0  0  0  0  0  0
  -26.0169  -13.7632   19.2228 C   0  0  0  0  0  0  0  0  0  0  0  0
  -16.0227  -30.1415   21.7209 C   0  0  0  0  0  0  0  0  0  0  0  0
  -18.5015  -31.3634   21.3904 C   0  0  0  0  0  0  0  0  0  0  0  0
  -25.5834  -28.7539   19.3743 C   0  0  0  0  0  0  0  0  0  0  0  0
  -30.3995  -24.0597   14.2746 C   0  0  0  0  0  0  0  0  0  0  0  0
  -29.9904  -21.3162   14.5711 C   0  0  0  0  0  0  0  0  0  0  0  0
  -24.4261  -12.7334   21.2702 C   0  0  0  0  0  0  0  0  0  0  0  0
  -25.0594  -12.7893   18.9393 C   0  0  0  0  0  0  0  0  0  0  0  0
  -26.8117  -28.1338   19.1447 C   0  0  0  0  0  0  0  0  0  0  0  0
  -24.3543   -9.4003   20.7062 C   0  0  0  0  0  0  0  0  0  0  0  0
  -24.2741   -8.3015   21.5617 C   0  0  0  0  0  0  0  0  0  0  0  0
  -26.6945  -27.0742   21.3153 C   0  0  0  0  0  0  0  0  0  0  0  0
  -21.9833   -8.8700   22.0772 C   0  0  0  0  0  0  0  0  0  0  0  0
  -26.1790  -14.2222   20.5300 C   0  0  0  0  0  0  0  0  0  0  0  0
  -28.2637  -15.1145   21.6985 C   0  0  0  0  0  0  0  0  0  0  0  0
  -17.0985  -29.7452   22.5309 C   0  0  0  0  0  0  0  0  0  0  0  0
  -24.8978  -28.5242   20.5704 C   0  0  0  0  0  0  0  0  0  0  0  0
  -18.3505  -30.3694   22.3723 C   0  0  0  0  0  0  0  0  0  0  0  0
  -25.4579  -27.6828   21.5457 C   0  0  0  0  0  0  0  0  0  0  0  0
  -29.8777  -23.5572   15.4666 C   0  0  0  0  0  0  0  0  0  0  0  0
  -29.6731  -22.1854   15.6149 C   0  0  0  0  0  0  0  0  0  0  0  0
  -24.2640  -12.2744   19.9630 C   0  0  0  0  0  0  0  0  0  0  0  0
  -27.3660  -27.2962   20.1130 C   0  0  0  0  0  0  0  0  0  0  0  0
  -23.2490  -10.2340   20.5363 C   0  0  0  0  0  0  0  0  0  0  0  0
  -23.0886   -8.0364   22.2472 C   0  0  0  0  0  0  0  0  0  0  0  0
  -22.0634   -9.9688   21.2218 C   0  0  0  0  0  0  0  0  0  0  0  0
  -27.1679  -15.2285   20.8222 C   0  0  0  0  0  0  0  0  0  0  0  0
  -28.8919  -16.3335   21.6233 C   0  0  0  0  0  0  0  0  0  0  0  0
  -28.6769  -14.0056   22.5081 C   0  0  0  0  0  0  0  0  0  0  0  0
  -21.8494  -29.2135   22.6459 C   0  0  0  0  0  0  0  0  0  0  0  0
  -22.4978  -26.2335   22.9772 C   0  0  0  0  0  0  0  0  0  0  0  0
  -23.3001  -22.9262   22.7423 C   0  0  0  0  0  0  0  0  0  0  0  0
  -28.8823  -20.3120   17.1146 C   0  0  0  0  0  0  0  0  0  0  0  0
  -16.8599  -28.7054   23.5971 C   0  0  0  0  0  0  0  0  0  0  0  0
  -23.6014  -29.2194   20.8860 C   0  0  0  0  0  0  0  0  0  0  0  0
  -24.7012  -27.4921   22.8318 C   0  0  0  0  0  0  0  0  0  0  0  0
  -18.1449  -28.0989   24.1548 C   0  0  0  0  0  0  0  0  0  0  0  0
  -27.2094  -20.7396   20.5414 C   0  0  0  0  0  0  0  0  0  0  0  0
  -19.1579  -29.1942   24.4729 C   0  0  0  0  0  0  0  0  0  0  0  0
  -27.7926  -19.5260   21.2614 C   0  0  0  0  0  0  0  0  0  0  0  0
  -30.2603  -25.7389   18.4818 C   0  0  0  0  0  0  0  0  0  0  0  0
  -27.8364  -25.4405   17.9501 C   0  0  0  0  0  0  0  0  0  0  0  0
  -28.0740  -21.1862   19.3691 C   0  0  0  0  0  0  0  0  0  0  0  0
  -30.6282  -25.2853   17.0718 C   0  0  0  0  0  0  0  0  0  0  0  0
  -28.2012  -24.9915   16.5385 C   0  0  0  0  0  0  0  0  0  0  0  0
  -28.0178  -18.7423   18.8395 C   0  0  0  0  0  0  0  0  0  0  0  0
  -19.5468  -29.9700   23.2086 C   0  0  1  0  0  0  0  0  0  0  0  0
  -22.6321  -28.3469   21.7037 C   0  0  1  0  0  0  0  0  0  0  0  0
  -28.4295  -18.5027   20.3004 C   0  0  2  0  0  0  0  0  0  0  0  0
  -28.8825  -26.3869   18.5278 C   0  0  0  0  0  0  0  0  0  1  0  0
  -22.6048  -20.6661   23.5825 C   0  0  0  0  0  0  0  0  0  0  0  0
  -23.7991  -26.8379   25.6689 C   0  0  0  0  0  0  0  0  0  0  0  0
  -23.9342  -24.3715   26.0773 C   0  0  0  0  0  0  0  0  0  0  0  0
  -21.7107  -25.4686   25.8034 C   0  0  0  0  0  0  0  0  0  0  0  0
  -22.7066  -21.9637   20.0073 C   0  0  0  0  0  0  0  0  0  0  0  0
  -23.2050  -25.1751   23.7853 C   0  0  1  0  0  0  0  0  0  0  0  0
  -22.4470  -21.6988   22.4774 C   0  0  2  0  0  0  0  0  0  0  0  0
  -23.1742  -25.4748   25.3106 C   0  0  0  0  0  0  0  0  0  0  0  0
  -27.1008  -16.4257   20.2336 N   0  0  0  0  0  0  0  0  0  0  0  0
  -28.1624  -17.0750   20.7411 N   0  0  0  0  0  0  0  0  0  0  0  0
  -29.5664  -24.4486   16.5013 N   0  0  0  0  0  0  0  0  0  0  0  0
  -23.2670  -27.3228   22.5505 N   0  0  0  0  0  0  0  0  0  0  0  0
  -28.3503  -20.1059   18.4110 N   0  0  0  0  0  0  0  0  0  0  0  0
  -29.9916  -16.8329   22.2264 N   0  0  0  0  0  0  0  0  0  0  0  0
  -29.5669  -13.0724   21.9590 N   0  0  0  0  0  0  0  0  0  0  0  0
  -29.1433  -21.6520   16.8164 N   0  0  0  0  0  0  0  0  0  0  0  0
  -20.4868  -29.2065   22.4162 N   0  0  0  0  0  0  0  0  0  0  0  0
  -22.5954  -23.9027   23.4139 N   0  0  0  0  0  0  0  0  0  0  0  0
  -22.8356  -21.0671   21.1848 N   0  3  0  0  0  0  0  0  0  0  0  0
  -28.2562  -13.8381   23.6779 O   0  0  0  0  0  0  0  0  0  0  0  0
  -22.4371  -29.8416   23.5187 O   0  0  0  0  0  0  0  0  0  0  0  0
  -21.2947  -26.1034   22.7344 O   0  0  0  0  0  0  0  0  0  0  0  0
  -24.4753  -23.0088   22.3920 O   0  0  0  0  0  0  0  0  0  0  0  0
  -29.0972  -19.3726   16.3457 O   0  0  0  0  0  0  0  0  0  0  0  0
  -23.3299  -11.3240   19.6860 O   0  0  0  0  0  0  0  0  0  0  0  0
  -28.5634  -26.6904   19.8805 O   0  0  0  0  0  0  0  0  0  1  0  0
  -23.0113   -6.9803   23.0675 F   0  0  0  0  0  0  0  0  0  0  0  0
  -20.9978  -10.7655   21.0616 F   0  0  0  0  0  0  0  0  0  0  0  0
  1  2  1  0  0  0  0
  1  7  2  0  0  0  0
  2  8  2  0  0  0  0
  3  4  1  0  0  0  0
  3 10  2  0  0  0  0
  4 11  2  0  0  0  0
  5 12  2  0  0  0  0
  5 19  1  0  0  0  0
  6 13  1  0  0  0  0
  6 19  2  0  0  0  0
  7 21  1  0  0  0  0
  8 23  1  0  0  0  0
  9 14  2  0  0  0  0
  9 22  1  0  0  0  0
 10 25  1  0  0  0  0
 11 26  1  0  0  0  0
 12 27  1  0  0  0  0
 13 27  2  0  0  0  0
 14 28  1  0  0  0  0
 15 16  2  0  0  0  0
 15 29  1  0  0  0  0
 16 30  1  0  0  0  0
 17 24  1  0  0  0  0
 17 28  2  0  0  0  0
 18 30  2  0  0  0  0
 18 31  1  0  0  0  0
 19 32  1  0  0  0  0
 20 32  1  0  0  0  0
 20 33  2  0  0  0  0
 20 34  1  0  0  0  0
 21 23  2  0  0  0  0
 21 39  1  0  0  0  0
 22 24  2  0  0  0  0
 22 40  1  0  0  0  0
 23 52  1  0  0  0  0
 24 41  1  0  0  0  0
 25 26  2  0  0  0  0
 25 66  1  0  0  0  0
 26 71  1  0  0  0  0
 27 80  1  0  0  0  0
 28 81  1  0  0  0  0
 29 31  2  0  0  0  0
 29 80  1  0  0  0  0
 30 82  1  0  0  0  0
 31 83  1  0  0  0  0
 32 64  2  0  0  0  0
 33 65  1  0  0  0  0
 33 69  1  0  0  0  0
 34 70  1  0  0  0  0
 34 75  2  0  0  0  0
 35 53  1  0  0  0  0
 35 72  1  0  0  0  0
 35 76  2  0  0  0  0
 36 61  1  0  0  0  0
 36 67  1  0  0  0  0
 36 77  2  0  0  0  0
 37 62  1  0  0  0  0
 37 73  1  0  0  0  0
 37 78  2  0  0  0  0
 38 68  1  0  0  0  0
 38 71  1  0  0  0  0
 38 79  2  0  0  0  0
 39 42  1  0  0  0  0
 40 53  1  0  0  0  0
 41 67  1  0  0  0  0
 42 44  1  0  0  0  0
 43 45  1  0  0  0  0
 43 48  1  0  0  0  0
 44 52  1  0  0  0  0
 45 54  1  0  0  0  0
 46 49  1  0  0  0  0
 46 55  1  0  0  0  0
 47 50  1  0  0  0  0
 47 55  1  0  0  0  0
 48 68  1  0  0  0  0
 49 66  1  0  0  0  0
 50 66  1  0  0  0  0
 51 54  1  0  0  0  0
 51 68  1  0  0  0  0
 52 72  1  0  0  0  0
 53 67  1  0  0  0  0
 54 65  1  0  0  0  0
 55 81  1  0  0  0  0
 56 62  1  0  0  0  0
 57 63  1  0  0  0  0
 58 63  1  0  0  0  0
 59 63  1  0  0  0  0
 60 74  1  0  0  0  0
 61 63  1  0  0  0  0
 61 73  1  0  0  0  0
 62 74  1  0  0  0  0
 64 65  1  0  0  0  0
M  CHG  1  74   1
M  ISO  4  38 100  55 101  71 100  81 101
M  END
> <Batch ID>
0009

> <Smiles>
CNC(C)C(=O)NC(C(=O)N1Cc2cc([101O:1][101CH:1]3CCN(c4ccccc4[100NH:0][100C:0](=O)N4CCCC(n5nc(-c6ccc(Oc7ccc(F)cc7F)cc6)c(C(N)=O)c5N)C4)CC3)ccc2CC1C(=O)NC1CCCc2ccccc21)C(C)(C)C

> <Shape>
0.235

> <Color>
0.095

> <Negative vol penalty>
0.000

$$$$

  -OEChem-04042320373D

 79 87  0     1  0  0  0  0  0999 V2000
  -23.3441   -6.3416   24.2992 C   0  0  0  0  0  0  0  0  0  0  0  0
  -24.5661   -7.0065   24.3070 C   0  0  0  0  0  0  0  0  0  0  0  0
  -26.1003  -30.7071   20.8867 C   0  0  0  0  0  0  0  0  0  0  0  0
  -23.9565  -29.6755   20.4660 C   0  0  0  0  0  0  0  0  0  0  0  0
  -22.4219   -6.5924   23.2841 C   0  0  0  0  0  0  0  0  0  0  0  0
  -24.8671   -7.9217   23.2989 C   0  0  0  0  0  0  0  0  0  0  0  0
  -28.4368  -14.0326   22.1904 C   0  0  0  0  0  0  0  0  0  0  0  0
  -25.5635  -31.3733   21.9884 C   0  0  0  0  0  0  0  0  0  0  0  0
  -23.4197  -30.3416   21.5677 C   0  0  0  0  0  0  0  0  0  0  0  0
  -29.3998  -14.5790   21.3430 C   0  0  0  0  0  0  0  0  0  0  0  0
  -23.6394  -34.0928   22.5597 C   0  0  0  0  0  0  0  0  0  0  0  0
  -23.9427  -35.4460   22.7088 C   0  0  0  0  0  0  0  0  0  0  0  0
  -27.6975  -14.9908   19.6840 C   0  0  0  0  0  0  0  0  0  0  0  0
  -24.9681  -34.9807   24.8464 C   0  0  0  0  0  0  0  0  0  0  0  0
  -25.2967  -29.8583   20.1254 C   0  0  0  0  0  0  0  0  0  0  0  0
  -26.4278  -29.7503   17.8414 C   0  0  0  0  0  0  0  0  0  0  0  0
  -22.7077   -7.5183   22.2684 C   0  0  0  0  0  0  0  0  0  0  0  0
  -27.0966  -13.9512   21.7859 C   0  0  0  0  0  0  0  0  0  0  0  0
  -23.9484   -8.1840   22.2685 C   0  0  0  0  0  0  0  0  0  0  0  0
  -26.7191  -14.4453   20.5292 C   0  0  0  0  0  0  0  0  0  0  0  0
  -24.2233  -31.1905   22.3289 C   0  0  0  0  0  0  0  0  0  0  0  0
  -29.0307  -15.0555   20.0885 C   0  0  0  0  0  0  0  0  0  0  0  0
  -24.0004  -33.1834   23.5540 C   0  0  0  0  0  0  0  0  0  0  0  0
  -24.6070  -35.8900   23.8521 C   0  0  0  0  0  0  0  0  0  0  0  0
  -24.6647  -33.6274   24.6973 C   0  0  0  0  0  0  0  0  0  0  0  0
  -25.8505  -29.1704   18.9869 C   0  0  0  0  0  0  0  0  0  0  0  0
  -26.7967  -28.6802   17.0635 C   0  0  0  0  0  0  0  0  0  0  0  0
  -26.6141  -31.1328   17.5102 C   0  0  0  0  0  0  0  0  0  0  0  0
  -25.0427  -11.5758   21.2932 C   0  0  0  0  0  0  0  0  0  0  0  0
  -22.9352  -14.0053   20.8708 C   0  0  0  0  0  0  0  0  0  0  0  0
  -22.9226  -17.2285   19.2497 C   0  0  0  0  0  0  0  0  0  0  0  0
  -28.1883  -23.1105   18.4410 C   0  0  0  0  0  0  0  0  0  0  0  0
  -21.6987   -7.7210   21.1659 C   0  0  0  0  0  0  0  0  0  0  0  0
  -26.0655  -13.3835   22.7223 C   0  0  0  0  0  0  0  0  0  0  0  0
  -25.2901  -14.3996   20.0557 C   0  0  0  0  0  0  0  0  0  0  0  0
  -21.9420   -8.9830   20.3421 C   0  0  0  0  0  0  0  0  0  0  0  0
  -25.6013  -24.1408   16.1295 C   0  0  0  0  0  0  0  0  0  0  0  0
  -23.4144   -9.0954   19.9598 C   0  0  0  0  0  0  0  0  0  0  0  0
  -25.4315  -25.6151   16.5005 C   0  0  0  0  0  0  0  0  0  0  0  0
  -29.2525  -20.2273   19.5815 C   0  0  0  0  0  0  0  0  0  0  0  0
  -29.5976  -19.9654   17.0972 C   0  0  0  0  0  0  0  0  0  0  0  0
  -25.8631  -23.2862   17.3661 C   0  0  0  0  0  0  0  0  0  0  0  0
  -26.8605  -25.2000   18.5561 C   0  0  0  0  0  0  0  0  0  0  0  0
  -30.4258  -19.2903   19.8368 C   0  0  0  0  0  0  0  0  0  0  0  0
  -30.7683  -19.0287   17.3651 C   0  0  0  0  0  0  0  0  0  0  0  0
  -24.3014   -9.2023   21.2061 C   0  0  1  0  0  0  0  0  0  0  0  0
  -24.8175  -12.8808   22.0031 C   0  0  1  0  0  0  0  0  0  0  0  0
  -26.6155  -26.1201   17.3463 C   0  0  2  0  0  0  0  0  0  0  0  0
  -29.3957  -20.9553   18.2445 C   0  0  0  0  0  0  0  0  0  0  0  0
  -21.5812  -19.2932   19.7343 C   0  0  0  0  0  0  0  0  0  0  0  0
  -21.0233  -12.9074   18.7614 C   0  0  0  0  0  0  0  0  0  0  0  0
  -20.6754  -15.2526   17.9567 C   0  0  0  0  0  0  0  0  0  0  0  0
  -20.0252  -14.6242   20.2816 C   0  0  0  0  0  0  0  0  0  0  0  0
  -25.3579  -18.8899   19.5108 C   0  0  0  0  0  0  0  0  0  0  0  0
  -31.6287  -17.2991   18.9408 C   0  0  0  0  0  0  0  0  0  0  0  0
  -31.0861  -16.2319   19.8707 C   0  0  0  0  0  0  0  0  0  1  0  0
  -22.4753  -14.8288   19.6922 C   0  0  1  0  0  0  0  0  0  0  0  0
  -22.9139  -18.5867   19.9277 C   0  0  2  0  0  0  0  0  0  0  0  0
  -21.0759  -14.3920   19.1740 C   0  0  0  0  0  0  0  0  0  0  0  0
  -25.8502  -27.8354   18.9445 N   0  0  0  0  0  0  0  0  0  0  0  0
  -26.4318  -27.5676   17.7629 N   0  0  0  0  0  0  0  0  0  0  0  0
  -24.3197  -13.8295   21.0049 N   0  0  0  0  0  0  0  0  0  0  0  0
  -27.0136  -23.8091   18.1165 N   0  0  0  0  0  0  0  0  0  0  0  0
  -27.3944  -28.5917   15.8563 N   0  0  0  0  0  0  0  0  0  0  0  0
  -25.5972  -31.7946   16.8084 N   0  0  0  0  0  0  0  0  0  0  0  0
  -24.2482  -10.5420   21.7509 N   0  0  0  0  0  0  0  0  0  0  0  0
  -22.5473  -16.2231   20.1154 N   0  0  0  0  0  0  0  0  0  0  0  0
  -28.2511  -21.7965   17.9937 N   0  0  0  0  0  0  0  0  0  0  0  0
  -30.5588  -18.3245   18.6840 N   0  3  0  0  0  0  0  0  0  0  0  0
  -23.9903  -19.4521   19.3677 N   0  3  0  0  0  0  0  0  0  0  0  0
  -27.6585  -31.7583   17.8127 O   0  0  0  0  0  0  0  0  0  0  0  0
  -25.8746  -11.5119   20.3957 O   0  0  0  0  0  0  0  0  0  0  0  0
  -22.0973  -13.5412   21.6481 O   0  0  0  0  0  0  0  0  0  0  0  0
  -23.2280  -17.0753   18.0691 O   0  0  0  0  0  0  0  0  0  0  0  0
  -29.1156  -23.6217   19.0781 O   0  0  0  0  0  0  0  0  0  0  0  0
  -23.6993  -31.8401   23.4041 O   0  0  0  0  0  0  0  0  0  0  0  0
  -29.9687  -15.5887   19.2591 O   0  0  0  0  0  0  0  0  0  1  0  0
  -24.8996  -37.1894   23.9945 F   0  0  0  0  0  0  0  0  0  0  0  0
  -25.0151  -32.7583   25.6553 F   0  0  0  0  0  0  0  0  0  0  0  0
  1  2  1  0  0  0  0
  1  5  2  0  0  0  0
  2  6  2  0  0  0  0
  3  8  2  0  0  0  0
  3 15  1  0  0  0  0
  4  9  1  0  0  0  0
  4 15  2  0  0  0  0
  5 17  1  0  0  0  0
  6 19  1  0  0  0  0
  7 10  2  0  0  0  0
  7 18  1  0  0  0  0
  8 21  1  0  0  0  0
  9 21  2  0  0  0  0
 10 22  1  0  0  0  0
 11 12  2  0  0  0  0
 11 23  1  0  0  0  0
 12 24  1  0  0  0  0
 13 20  1  0  0  0  0
 13 22  2  0  0  0  0
 14 24  2  0  0  0  0
 14 25  1  0  0  0  0
 15 26  1  0  0  0  0
 16 26  1  0  0  0  0
 16 27  2  0  0  0  0
 16 28  1  0  0  0  0
 17 19  2  0  0  0  0
 17 33  1  0  0  0  0
 18 20  2  0  0  0  0
 18 34  1  0  0  0  0
 19 46  1  0  0  0  0
 20 35  1  0  0  0  0
 21 76  1  0  0  0  0
 22 77  1  0  0  0  0
 23 25  2  0  0  0  0
 23 76  1  0  0  0  0
 24 78  1  0  0  0  0
 25 79  1  0  0  0  0
 26 60  2  0  0  0  0
 27 61  1  0  0  0  0
 27 64  1  0  0  0  0
 28 65  1  0  0  0  0
 28 71  2  0  0  0  0
 29 47  1  0  0  0  0
 29 66  1  0  0  0  0
 29 72  2  0  0  0  0
 30 57  1  0  0  0  0
 30 62  1  0  0  0  0
 30 73  2  0  0  0  0
 31 58  1  0  0  0  0
 31 67  1  0  0  0  0
 31 74  2  0  0  0  0
 32 63  1  0  0  0  0
 32 68  1  0  0  0  0
 32 75  2  0  0  0  0
 33 36  1  0  0  0  0
 34 47  1  0  0  0  0
 35 62  1  0  0  0  0
 36 38  1  0  0  0  0
 37 39  1  0  0  0  0
 37 42  1  0  0  0  0
 38 46  1  0  0  0  0
 39 48  1  0  0  0  0
 40 44  1  0  0  0  0
 40 49  1  0  0  0  0
 41 45  1  0  0  0  0
 41 49  1  0  0  0  0
 42 63  1  0  0  0  0
 43 48  1  0  0  0  0
 43 63  1  0  0  0  0
 44 69  1  0  0  0  0
 45 69  1  0  0  0  0
 46 66  1  0  0  0  0
 47 62  1  0  0  0  0
 48 61  1  0  0  0  0
 49 68  1  0  0  0  0
 50 58  1  0  0  0  0
 51 59  1  0  0  0  0
 52 59  1  0  0  0  0
 53 59  1  0  0  0  0
 54 70  1  0  0  0  0
 55 56  1  0  0  0  0
 55 69  1  0  0  0  0
 56 77  1  0  0  0  0
 57 59  1  0  0  0  0
 57 67  1  0  0  0  0
 58 70  1  0  0  0  0
 60 61  1  0  0  0  0
M  CHG  2  69   1  70   1
M  ISO  4  32 100  56 101  68 100  77 101
M  END
> <Batch ID>
0009

> <Smiles>
CNC(C)C(=O)NC(C(=O)N1Cc2cc([101O:1][101CH2:1]CN3CCC([100NH:0][100C:0](=O)N4CCCC(n5nc(-c6ccc(Oc7ccc(F)cc7F)cc6)c(C(N)=O)c5N)C4)CC3)ccc2CC1C(=O)NC1CCCc2ccccc21)C(C)(C)C

> <Shape>
0.238

> <Color>
0.076

> <Negative vol penalty>
0.000

$$$$

  -OEChem-04042320373D

 81 90  0     1  0  0  0  0  0999 V2000
  -17.2046  -25.7261   22.0130 C   0  0  0  0  0  0  0  0  0  0  0  0
  -18.5400  -25.3364   22.0028 C   0  0  0  0  0  0  0  0  0  0  0  0
  -25.2243  -14.1539   20.2376 C   0  0  0  0  0  0  0  0  0  0  0  0
  -27.3833  -13.5762   21.1552 C   0  0  0  0  0  0  0  0  0  0  0  0
  -16.8648  -27.0529   21.7519 C   0  0  0  0  0  0  0  0  0  0  0  0
  -19.5364  -26.2730   21.7304 C   0  0  0  0  0  0  0  0  0  0  0  0
  -23.4650  -25.9094   24.9052 C   0  0  0  0  0  0  0  0  0  0  0  0
  -29.0469  -22.2686   20.1269 C   0  0  0  0  0  0  0  0  0  0  0  0
  -27.9084  -22.9116   20.6174 C   0  0  0  0  0  0  0  0  0  0  0  0
  -24.9071  -12.7998   20.1313 C   0  0  0  0  0  0  0  0  0  0  0  0
  -27.0661  -12.2220   21.0490 C   0  0  0  0  0  0  0  0  0  0  0  0
  -24.3779  -24.8815   24.6734 C   0  0  0  0  0  0  0  0  0  0  0  0
  -23.8734  -10.3155   22.1788 C   0  0  0  0  0  0  0  0  0  0  0  0
  -22.6084   -9.9107   22.6048 C   0  0  0  0  0  0  0  0  0  0  0  0
  -28.9557  -23.1196   22.7731 C   0  0  0  0  0  0  0  0  0  0  0  0
  -25.8639  -26.4510   23.6020 C   0  0  0  0  0  0  0  0  0  0  0  0
  -22.1208   -9.0961   20.3831 C   0  0  0  0  0  0  0  0  0  0  0  0
  -26.4625  -14.5421   20.7495 C   0  0  0  0  0  0  0  0  0  0  0  0
  -26.5506  -16.7870   21.9581 C   0  0  0  0  0  0  0  0  0  0  0  0
  -17.8582  -28.0083   21.4857 C   0  0  0  0  0  0  0  0  0  0  0  0
  -23.7403  -27.2160   24.4767 C   0  0  0  0  0  0  0  0  0  0  0  0
  -19.2095  -27.6136   21.4641 C   0  0  0  0  0  0  0  0  0  0  0  0
  -30.1042  -22.4662   22.2956 C   0  0  0  0  0  0  0  0  0  0  0  0
  -24.9539  -27.4942   23.8319 C   0  0  0  0  0  0  0  0  0  0  0  0
  -30.1499  -22.0156   20.9591 C   0  0  0  0  0  0  0  0  0  0  0  0
  -27.8596  -23.3311   21.9412 C   0  0  0  0  0  0  0  0  0  0  0  0
  -25.8279  -11.8339   20.5370 C   0  0  0  0  0  0  0  0  0  0  0  0
  -25.5763  -25.1517   24.0192 C   0  0  0  0  0  0  0  0  0  0  0  0
  -24.2621  -10.1107   20.8549 C   0  0  0  0  0  0  0  0  0  0  0  0
  -21.7321   -9.3010   21.7070 C   0  0  0  0  0  0  0  0  0  0  0  0
  -23.3859   -9.5010   19.9571 C   0  0  0  0  0  0  0  0  0  0  0  0
  -26.7910  -15.9408   20.8590 C   0  0  0  0  0  0  0  0  0  0  0  0
  -27.0445  -18.0072   21.5664 C   0  0  0  0  0  0  0  0  0  0  0  0
  -25.9357  -16.4960   23.2202 C   0  0  0  0  0  0  0  0  0  0  0  0
  -22.3772  -29.2442   22.4440 C   0  0  0  0  0  0  0  0  0  0  0  0
  -24.6054  -31.2962   23.6044 C   0  0  0  0  0  0  0  0  0  0  0  0
  -27.6355  -31.7330   25.1124 C   0  0  0  0  0  0  0  0  0  0  0  0
  -31.4278  -20.7495   19.2043 C   0  0  0  0  0  0  0  0  0  0  0  0
  -17.4391  -29.4206   21.1626 C   0  0  0  0  0  0  0  0  0  0  0  0
  -22.7569  -28.3188   24.7582 C   0  0  0  0  0  0  0  0  0  0  0  0
  -31.2807  -22.3236   23.2284 C   0  0  0  0  0  0  0  0  0  0  0  0
  -25.3062  -28.8839   23.3701 C   0  0  0  0  0  0  0  0  0  0  0  0
  -18.5805  -30.4303   21.2524 C   0  0  0  0  0  0  0  0  0  0  0  0
  -32.3057  -21.3199   22.7223 C   0  0  0  0  0  0  0  0  0  0  0  0
  -28.5960  -19.6826   17.0681 C   0  0  0  0  0  0  0  0  0  0  0  0
  -19.8209  -29.8985   20.5415 C   0  0  0  0  0  0  0  0  0  0  0  0
  -27.9088  -18.6209   17.9242 C   0  0  0  0  0  0  0  0  0  0  0  0
  -32.5575  -21.5334   21.2399 C   0  0  0  0  0  0  0  0  0  0  0  0
  -30.0885  -19.7732   17.3698 C   0  0  0  0  0  0  0  0  0  0  0  0
  -29.6999  -18.9506   19.6761 C   0  0  0  0  0  0  0  0  0  0  0  0
  -20.3208  -28.6056   21.1973 C   0  0  1  0  0  0  0  0  0  0  0  0
  -22.9138  -29.5127   23.8215 C   0  0  1  0  0  0  0  0  0  0  0  0
  -28.1884  -18.8639   19.4163 C   0  0  2  0  0  0  0  0  0  0  0  0
  -29.2054  -33.5270   25.8964 C   0  0  0  0  0  0  0  0  0  0  0  0
  -25.4451  -31.8195   20.7180 C   0  0  0  0  0  0  0  0  0  0  0  0
  -27.5622  -32.8316   21.5908 C   0  0  0  0  0  0  0  0  0  0  0  0
  -25.3621  -33.8568   22.1660 C   0  0  0  0  0  0  0  0  0  0  0  0
  -27.4772  -30.8067   27.9188 C   0  0  0  0  0  0  0  0  0  0  0  0
  -26.0218  -31.6601   23.2296 C   0  0  1  0  0  0  0  0  0  0  0  0
  -28.0626  -32.6007   26.2825 C   0  0  2  0  0  0  0  0  0  0  0  0
  -26.0906  -32.5154   21.9330 C   0  0  0  0  0  0  0  0  0  0  0  0
  -27.3909  -16.5702   19.8452 N   0  0  0  0  0  0  0  0  0  0  0  0
  -27.5315  -17.8250   20.3056 N   0  0  0  0  0  0  0  0  0  0  0  0
  -31.3274  -21.3510   20.4689 N   0  0  0  0  0  0  0  0  0  0  0  0
  -24.3093  -29.9270   23.6628 N   0  0  0  0  0  0  0  0  0  0  0  0
  -30.3455  -19.9426   18.8006 N   0  0  0  0  0  0  0  0  0  0  0  0
  -27.1054  -19.2077   22.1810 N   0  0  0  0  0  0  0  0  0  0  0  0
  -25.4844  -15.1906   23.4584 N   0  0  0  0  0  0  0  0  0  0  0  0
  -26.7115  -23.9826   22.4355 N   0  0  0  0  0  0  0  0  0  1  0  0
  -21.0384  -28.9029   22.4184 N   0  0  0  0  0  0  0  0  0  0  0  0
  -26.6013  -32.3056   24.4026 N   0  0  0  0  0  0  0  0  0  0  0  0
  -28.5110  -31.7505   27.4214 N   0  3  0  0  0  0  0  0  0  0  0  0
  -25.7761  -17.3716   24.1041 O   0  0  0  0  0  0  0  0  0  0  0  0
  -23.1222  -29.3409   21.4758 O   0  0  0  0  0  0  0  0  0  0  0  0
  -23.7935  -32.1936   23.8436 O   0  0  0  0  0  0  0  0  0  0  0  0
  -28.1687  -30.6568   24.8517 O   0  0  0  0  0  0  0  0  0  0  0  0
  -32.4486  -20.8728   18.5162 O   0  0  0  0  0  0  0  0  0  0  0  0
  -25.5186  -10.5124   20.4337 O   0  0  0  0  0  0  0  0  0  0  0  0
  -26.4790  -24.1387   23.7885 O   0  0  0  0  0  0  0  0  0  1  0  0
  -20.5180   -8.9109   22.1167 F   0  0  0  0  0  0  0  0  0  0  0  0
  -23.7541   -9.3005   18.6843 F   0  0  0  0  0  0  0  0  0  0  0  0
  1  2  1  0  0  0  0
  1  5  2  0  0  0  0
  2  6  2  0  0  0  0
  3 10  2  0  0  0  0
  3 18  1  0  0  0  0
  4 11  1  0  0  0  0
  4 18  2  0  0  0  0
  5 20  1  0  0  0  0
  6 22  1  0  0  0  0
  7 12  2  0  0  0  0
  7 21  1  0  0  0  0
  8  9  2  0  0  0  0
  8 25  1  0  0  0  0
  9 26  1  0  0  0  0
 10 27  1  0  0  0  0
 11 27  2  0  0  0  0
 12 28  1  0  0  0  0
 13 14  2  0  0  0  0
 13 29  1  0  0  0  0
 14 30  1  0  0  0  0
 15 23  1  0  0  0  0
 15 26  2  0  0  0  0
 16 24  1  0  0  0  0
 16 28  2  0  0  0  0
 17 30  2  0  0  0  0
 17 31  1  0  0  0  0
 18 32  1  0  0  0  0
 19 32  1  0  0  0  0
 19 33  2  0  0  0  0
 19 34  1  0  0  0  0
 20 22  2  0  0  0  0
 20 39  1  0  0  0  0
 21 24  2  0  0  0  0
 21 40  1  0  0  0  0
 22 51  1  0  0  0  0
 23 25  2  0  0  0  0
 23 41  1  0  0  0  0
 24 42  1  0  0  0  0
 25 64  1  0  0  0  0
 26 69  1  0  0  0  0
 27 78  1  0  0  0  0
 28 79  1  0  0  0  0
 29 31  2  0  0  0  0
 29 78  1  0  0  0  0
 30 80  1  0  0  0  0
 31 81  1  0  0  0  0
 32 62  2  0  0  0  0
 33 63  1  0  0  0  0
 33 67  1  0  0  0  0
 34 68  1  0  0  0  0
 34 73  2  0  0  0  0
 35 52  1  0  0  0  0
 35 70  1  0  0  0  0
 35 74  2  0  0  0  0
 36 59  1  0  0  0  0
 36 65  1  0  0  0  0
 36 75  2  0  0  0  0
 37 60  1  0  0  0  0
 37 71  1  0  0  0  0
 37 76  2  0  0  0  0
 38 64  1  0  0  0  0
 38 66  1  0  0  0  0
 38 77  2  0  0  0  0
 39 43  1  0  0  0  0
 40 52  1  0  0  0  0
 41 44  1  0  0  0  0
 42 65  1  0  0  0  0
 43 46  1  0  0  0  0
 44 48  1  0  0  0  0
 45 47  1  0  0  0  0
 45 49  1  0  0  0  0
 46 51  1  0  0  0  0
 47 53  1  0  0  0  0
 48 64  1  0  0  0  0
 49 66  1  0  0  0  0
 50 53  1  0  0  0  0
 50 66  1  0  0  0  0
 51 70  1  0  0  0  0
 52 65  1  0  0  0  0
 53 63  1  0  0  0  0
 54 60  1  0  0  0  0
 55 61  1  0  0  0  0
 56 61  1  0  0  0  0
 57 61  1  0  0  0  0
 58 72  1  0  0  0  0
 59 61  1  0  0  0  0
 59 71  1  0  0  0  0
 60 72  1  0  0  0  0
 62 63  1  0  0  0  0
 69 79  1  0  0  0  0
M  CHG  1  72   1
M  ISO  4  38 100  64 100  69 101  79 101
M  END
> <Batch ID>
0009

> <Smiles>
CNC(C)C(=O)NC(C(=O)N1Cc2cc([101O:1][101NH:1]c3ccc4c(c3)CCC[100N:0]4[100C:0](=O)N3CCCC(n4nc(-c5ccc(Oc6ccc(F)cc6F)cc5)c(C(N)=O)c4N)C3)ccc2CC1C(=O)NC1CCCc2ccccc21)C(C)(C)C

> <Shape>
0.243

> <Color>
0.061

> <Negative vol penalty>
0.000

$$$$

  -OEChem-04042320373D

 85 94  0     1  0  0  0  0  0999 V2000
  -18.4662  -24.5053   23.8618 C   0  0  0  0  0  0  0  0  0  0  0  0
  -19.8449  -24.4570   23.6819 C   0  0  0  0  0  0  0  0  0  0  0  0
  -24.6208   -9.6400   21.8495 C   0  0  0  0  0  0  0  0  0  0  0  0
  -24.6326  -11.0127   23.8376 C   0  0  0  0  0  0  0  0  0  0  0  0
  -17.7630  -25.6662   23.5429 C   0  0  0  0  0  0  0  0  0  0  0  0
  -20.5210  -25.5693   23.1819 C   0  0  0  0  0  0  0  0  0  0  0  0
  -24.7746  -26.5697   25.7415 C   0  0  0  0  0  0  0  0  0  0  0  0
  -29.5633  -21.3654   21.4503 C   0  0  0  0  0  0  0  0  0  0  0  0
  -29.5843  -20.0128   21.1103 C   0  0  0  0  0  0  0  0  0  0  0  0
  -24.2806   -8.5278   22.6194 C   0  0  0  0  0  0  0  0  0  0  0  0
  -24.2923   -9.9005   24.6076 C   0  0  0  0  0  0  0  0  0  0  0  0
  -25.8870  -25.7771   25.4624 C   0  0  0  0  0  0  0  0  0  0  0  0
  -23.0554   -5.4014   24.0122 C   0  0  0  0  0  0  0  0  0  0  0  0
  -22.0472   -4.5650   23.5332 C   0  0  0  0  0  0  0  0  0  0  0  0
  -26.7671  -27.5211   24.0471 C   0  0  0  0  0  0  0  0  0  0  0  0
  -27.1491  -21.3516   21.3557 C   0  0  0  0  0  0  0  0  0  0  0  0
  -20.4917   -6.4131   23.5801 C   0  0  0  0  0  0  0  0  0  0  0  0
  -24.7969  -10.8825   22.4586 C   0  0  0  0  0  0  0  0  0  0  0  0
  -24.2686  -12.9382   21.0434 C   0  0  0  0  0  0  0  0  0  0  0  0
  -18.4321  -26.7965   23.0478 C   0  0  0  0  0  0  0  0  0  0  0  0
  -24.6445  -27.8418   25.1659 C   0  0  0  0  0  0  0  0  0  0  0  0
  -19.8259  -26.7459   22.8548 C   0  0  0  0  0  0  0  0  0  0  0  0
  -25.6533  -28.3290   24.3225 C   0  0  0  0  0  0  0  0  0  0  0  0
  -27.1702  -19.9990   21.0155 C   0  0  0  0  0  0  0  0  0  0  0  0
  -28.3456  -22.0348   21.5731 C   0  0  0  0  0  0  0  0  0  0  0  0
  -28.3878  -19.3296   20.8928 C   0  0  0  0  0  0  0  0  0  0  0  0
  -24.1163   -8.6581   23.9985 C   0  0  0  0  0  0  0  0  0  0  0  0
  -26.8821  -26.2515   24.6128 C   0  0  0  0  0  0  0  0  0  0  0  0
  -22.7817   -6.7437   24.2753 C   0  0  0  0  0  0  0  0  0  0  0  0
  -20.7653   -5.0708   23.3171 C   0  0  0  0  0  0  0  0  0  0  0  0
  -21.4999   -7.2495   24.0592 C   0  0  0  0  0  0  0  0  0  0  0  0
  -25.1490  -12.0316   21.6639 C   0  0  0  0  0  0  0  0  0  0  0  0
  -25.0916  -13.8412   20.4160 C   0  0  0  0  0  0  0  0  0  0  0  0
  -22.8351  -12.9618   21.0350 C   0  0  0  0  0  0  0  0  0  0  0  0
  -22.5571  -29.2108   23.1981 C   0  0  0  0  0  0  0  0  0  0  0  0
  -24.3019  -31.8724   23.8261 C   0  0  0  0  0  0  0  0  0  0  0  0
  -27.2782  -33.2195   24.8126 C   0  0  0  0  0  0  0  0  0  0  0  0
  -29.5637  -17.1583   20.3937 C   0  0  0  0  0  0  0  0  0  0  0  0
  -17.6229  -28.0127   22.6725 C   0  0  0  0  0  0  0  0  0  0  0  0
  -23.4514  -28.6953   25.4982 C   0  0  0  0  0  0  0  0  0  0  0  0
  -25.5711  -29.6958   23.6953 C   0  0  0  0  0  0  0  0  0  0  0  0
  -18.4642  -29.2749   22.5009 C   0  0  0  0  0  0  0  0  0  0  0  0
  -30.0847  -13.7285   19.5925 C   0  0  0  0  0  0  0  0  0  0  0  0
  -19.7011  -28.9814   21.6577 C   0  0  0  0  0  0  0  0  0  0  0  0
  -28.7747  -13.0558   20.0089 C   0  0  0  0  0  0  0  0  0  0  0  0
  -30.4752  -14.8519   20.5512 C   0  0  0  0  0  0  0  0  0  0  0  0
  -28.1225  -15.1868   21.2009 C   0  0  0  0  0  0  0  0  0  0  0  0
  -29.2744  -24.0779   22.7105 C   0  0  0  0  0  0  0  0  0  0  0  0
  -27.2019  -24.1363   22.3513 C   0  0  0  0  0  0  0  0  0  0  0  0
  -20.5982  -27.9404   22.3381 C   0  0  1  0  0  0  0  0  0  0  0  0
  -23.1736  -29.7682   24.4499 C   0  0  1  0  0  0  0  0  0  0  0  0
  -27.6545  -14.0914   20.2289 C   0  0  2  0  0  0  0  0  0  0  0  0
  -28.1909  -25.1337   22.9716 C   0  0  0  0  0  0  0  0  0  1  0  0
  -28.4126  -35.4255   25.1923 C   0  0  0  0  0  0  0  0  0  0  0  0
  -24.6080  -32.2310   20.8115 C   0  0  0  0  0  0  0  0  0  0  0  0
  -26.4810  -33.8301   21.2622 C   0  0  0  0  0  0  0  0  0  0  0  0
  -24.1798  -34.3460   22.0755 C   0  0  0  0  0  0  0  0  0  0  0  0
  -27.7192  -32.6309   27.6793 C   0  0  0  0  0  0  0  0  0  0  0  0
  -25.5162  -32.5245   23.2105 C   0  0  1  0  0  0  0  0  0  0  0  0
  -27.6079  -34.3011   25.8255 C   0  0  2  0  0  0  0  0  0  0  0  0
  -25.8732  -19.2919   20.7899 C   0  0  0  0  0  0  0  0  0  0  0  0
  -25.1972  -33.2063   21.8501 C   0  0  0  0  0  0  0  0  0  0  0  0
  -26.4329  -12.3314   21.4500 N   0  0  0  0  0  0  0  0  0  0  0  0
  -26.3653  -13.4363   20.6880 N   0  0  0  0  0  0  0  0  0  0  0  0
  -28.3248  -23.3830   21.9127 N   0  0  0  0  0  0  0  0  0  0  0  0
  -24.3820  -30.4899   24.0459 N   0  0  0  0  0  0  0  0  0  0  0  0
  -29.3672  -15.7968   20.7074 N   0  0  0  0  0  0  0  0  0  0  0  0
  -24.8428  -14.9342   19.6637 N   0  0  0  0  0  0  0  0  0  0  0  0
  -22.1462  -11.9589   21.7306 N   0  0  0  0  0  0  0  0  0  0  0  0
  -28.4302  -17.9554   20.5499 N   0  0  0  0  0  0  0  0  0  0  0  0
  -21.3609  -28.5509   23.4058 N   0  0  0  0  0  0  0  0  0  0  0  0
  -26.0502  -33.4301   24.2220 N   0  0  0  0  0  0  0  0  0  0  0  0
  -28.4011  -33.7319   26.9514 N   0  3  0  0  0  0  0  0  0  0  0  0
  -22.1842  -13.8367   20.4149 O   0  0  0  0  0  0  0  0  0  0  0  0
  -23.1239  -29.3691   22.1232 O   0  0  0  0  0  0  0  0  0  0  0  0
  -23.3211  -32.5652   24.1083 O   0  0  0  0  0  0  0  0  0  0  0  0
  -28.0361  -32.2836   24.5670 O   0  0  0  0  0  0  0  0  0  0  0  0
  -30.6497  -17.5807   19.9884 O   0  0  0  0  0  0  0  0  0  0  0  0
  -23.7840   -7.5730   24.7500 O   0  0  0  0  0  0  0  0  0  0  0  0
  -27.9686  -25.4796   24.3381 O   0  0  0  0  0  0  0  0  0  1  0  0
  -19.7976   -4.2678   22.8557 F   0  0  0  0  0  0  0  0  0  0  0  0
  -21.2313   -8.5384   24.3089 F   0  0  0  0  0  0  0  0  0  0  0  0
  -24.7806  -20.0935   20.9519 F   0  0  0  0  0  0  0  0  0  0  0  0
  -25.7506  -18.7677   19.5358 F   0  0  0  0  0  0  0  0  0  0  0  0
  -25.6930  -18.2457   21.6460 F   0  0  0  0  0  0  0  0  0  0  0  0
  1  2  1  0  0  0  0
  1  5  2  0  0  0  0
  2  6  2  0  0  0  0
  3 10  2  0  0  0  0
  3 18  1  0  0  0  0
  4 11  1  0  0  0  0
  4 18  2  0  0  0  0
  5 20  1  0  0  0  0
  6 22  1  0  0  0  0
  7 12  2  0  0  0  0
  7 21  1  0  0  0  0
  8  9  2  0  0  0  0
  8 25  1  0  0  0  0
  9 26  1  0  0  0  0
 10 27  1  0  0  0  0
 11 27  2  0  0  0  0
 12 28  1  0  0  0  0
 13 14  2  0  0  0  0
 13 29  1  0  0  0  0
 14 30  1  0  0  0  0
 15 23  1  0  0  0  0
 15 28  2  0  0  0  0
 16 24  1  0  0  0  0
 16 25  2  0  0  0  0
 17 30  2  0  0  0  0
 17 31  1  0  0  0  0
 18 32  1  0  0  0  0
 19 32  1  0  0  0  0
 19 33  2  0  0  0  0
 19 34  1  0  0  0  0
 20 22  2  0  0  0  0
 20 39  1  0  0  0  0
 21 23  2  0  0  0  0
 21 40  1  0  0  0  0
 22 50  1  0  0  0  0
 23 41  1  0  0  0  0
 24 26  2  0  0  0  0
 24 61  1  0  0  0  0
 25 65  1  0  0  0  0
 26 70  1  0  0  0  0
 27 79  1  0  0  0  0
 28 80  1  0  0  0  0
 29 31  2  0  0  0  0
 29 79  1  0  0  0  0
 30 81  1  0  0  0  0
 31 82  1  0  0  0  0
 32 63  2  0  0  0  0
 33 64  1  0  0  0  0
 33 68  1  0  0  0  0
 34 69  1  0  0  0  0
 34 74  2  0  0  0  0
 35 51  1  0  0  0  0
 35 71  1  0  0  0  0
 35 75  2  0  0  0  0
 36 59  1  0  0  0  0
 36 66  1  0  0  0  0
 36 76  2  0  0  0  0
 37 60  1  0  0  0  0
 37 72  1  0  0  0  0
 37 77  2  0  0  0  0
 38 67  1  0  0  0  0
 38 70  1  0  0  0  0
 38 78  2  0  0  0  0
 39 42  1  0  0  0  0
 40 51  1  0  0  0  0
 41 66  1  0  0  0  0
 42 44  1  0  0  0  0
 43 45  1  0  0  0  0
 43 46  1  0  0  0  0
 44 50  1  0  0  0  0
 45 52  1  0  0  0  0
 46 67  1  0  0  0  0
 47 52  1  0  0  0  0
 47 67  1  0  0  0  0
 48 53  1  0  0  0  0
 48 65  1  0  0  0  0
 49 53  1  0  0  0  0
 49 65  1  0  0  0  0
 50 71  1  0  0  0  0
 51 66  1  0  0  0  0
 52 64  1  0  0  0  0
 53 80  1  0  0  0  0
 54 60  1  0  0  0  0
 55 62  1  0  0  0  0
 56 62  1  0  0  0  0
 57 62  1  0  0  0  0
 58 73  1  0  0  0  0
 59 62  1  0  0  0  0
 59 72  1  0  0  0  0
 60 73  1  0  0  0  0
 61 83  1  0  0  0  0
 61 84  1  0  0  0  0
 61 85  1  0  0  0  0
 63 64  1  0  0  0  0
M  CHG  1  73   1
M  ISO  4  38 100  53 101  70 100  80 101
M  END
> <Batch ID>
0009

> <Smiles>
CNC(C)C(=O)NC(C(=O)N1Cc2cc([101O:1][101CH:1]3CN(c4ccc([100NH:0][100C:0](=O)N5CCCC(n6nc(-c7ccc(Oc8ccc(F)cc8F)cc7)c(C(N)=O)c6N)C5)c(C(F)(F)F)c4)C3)ccc2CC1C(=O)NC1CCCc2ccccc21)C(C)(C)C

> <Shape>
0.291

> <Color>
0.142

> <Negative vol penalty>
0.000

$$$$

  -OEChem-04042320373D

 81 89  0     1  0  0  0  0  0999 V2000
  -28.8483  -36.7651   23.2335 C   0  0  0  0  0  0  0  0  0  0  0  0
  -29.1659  -35.4565   22.8839 C   0  0  0  0  0  0  0  0  0  0  0  0
  -24.3257   -9.7629   22.0480 C   0  0  0  0  0  0  0  0  0  0  0  0
  -24.8477  -11.3497   23.7934 C   0  0  0  0  0  0  0  0  0  0  0  0
  -30.0279  -20.7730   19.1454 C   0  0  0  0  0  0  0  0  0  0  0  0
  -27.6321  -37.0436   23.8556 C   0  0  0  0  0  0  0  0  0  0  0  0
  -28.2678  -34.4255   23.1572 C   0  0  0  0  0  0  0  0  0  0  0  0
  -27.2713  -29.4179   19.7753 C   0  0  0  0  0  0  0  0  0  0  0  0
  -29.8855  -19.3937   18.9943 C   0  0  0  0  0  0  0  0  0  0  0  0
  -24.0536   -8.7921   23.0119 C   0  0  0  0  0  0  0  0  0  0  0  0
  -24.5756  -10.3790   24.7574 C   0  0  0  0  0  0  0  0  0  0  0  0
  -27.7391  -28.1086   19.8777 C   0  0  0  0  0  0  0  0  0  0  0  0
  -21.5195   -8.0034   25.1069 C   0  0  0  0  0  0  0  0  0  0  0  0
  -20.3678   -7.2336   24.9445 C   0  0  0  0  0  0  0  0  0  0  0  0
  -27.6470  -20.9800   19.5000 C   0  0  0  0  0  0  0  0  0  0  0  0
  -25.7289  -27.4893   21.0588 C   0  0  0  0  0  0  0  0  0  0  0  0
  -21.7179   -5.2318   24.8592 C   0  0  0  0  0  0  0  0  0  0  0  0
  -24.7228  -11.0417   22.4387 C   0  0  0  0  0  0  0  0  0  0  0  0
  -28.9086  -21.5662   19.3983 C   0  0  0  0  0  0  0  0  0  0  0  0
  -24.0972  -12.9625   20.8808 C   0  0  0  0  0  0  0  0  0  0  0  0
  -26.7144  -36.0167   24.1280 C   0  0  0  0  0  0  0  0  0  0  0  0
  -26.0317  -29.7759   20.3244 C   0  0  0  0  0  0  0  0  0  0  0  0
  -27.0387  -34.6903   23.7848 C   0  0  0  0  0  0  0  0  0  0  0  0
  -25.2466  -28.8033   20.9598 C   0  0  0  0  0  0  0  0  0  0  0  0
  -28.6239  -18.8075   19.0961 C   0  0  0  0  0  0  0  0  0  0  0  0
  -24.1785   -9.1001   24.3666 C   0  0  0  0  0  0  0  0  0  0  0  0
  -26.9692  -27.1446   20.5221 C   0  0  0  0  0  0  0  0  0  0  0  0
  -22.7705   -7.3875   25.1454 C   0  0  0  0  0  0  0  0  0  0  0  0
  -20.4669   -5.8478   24.8207 C   0  0  0  0  0  0  0  0  0  0  0  0
  -27.5046  -19.6006   19.3489 C   0  0  0  0  0  0  0  0  0  0  0  0
  -22.8696   -6.0017   25.0216 C   0  0  0  0  0  0  0  0  0  0  0  0
  -25.0045  -12.0448   21.4435 C   0  0  0  0  0  0  0  0  0  0  0  0
  -24.8515  -13.6912   19.9940 C   0  0  0  0  0  0  0  0  0  0  0  0
  -29.0586  -23.0224   19.5569 C   0  0  0  0  0  0  0  0  0  0  0  0
  -28.0711  -23.9214   19.4233 C   0  0  0  0  0  0  0  0  0  0  0  0
  -22.6978  -13.1404   21.1370 C   0  0  0  0  0  0  0  0  0  0  0  0
  -25.0796  -31.7955   22.5868 C   0  0  0  0  0  0  0  0  0  0  0  0
  -22.1233  -30.9232   21.5759 C   0  0  0  0  0  0  0  0  0  0  0  0
  -20.1573  -28.5976   20.0355 C   0  0  0  0  0  0  0  0  0  0  0  0
  -29.4911  -16.4780   18.6862 C   0  0  0  0  0  0  0  0  0  0  0  0
  -25.4326  -36.3600   24.8448 C   0  0  0  0  0  0  0  0  0  0  0  0
  -25.5294  -31.1865   20.1820 C   0  0  0  0  0  0  0  0  0  0  0  0
  -23.8996  -29.1318   21.5483 C   0  0  0  0  0  0  0  0  0  0  0  0
  -24.3750  -35.2623   24.7608 C   0  0  0  0  0  0  0  0  0  0  0  0
  -29.5535  -12.9418   18.2759 C   0  0  0  0  0  0  0  0  0  0  0  0
  -24.9930  -33.9013   25.0648 C   0  0  0  0  0  0  0  0  0  0  0  0
  -28.3009  -12.4687   19.0171 C   0  0  0  0  0  0  0  0  0  0  0  0
  -30.2195  -14.1208   18.9830 C   0  0  0  0  0  0  0  0  0  0  0  0
  -28.0797  -14.7827   20.0088 C   0  0  0  0  0  0  0  0  0  0  0  0
  -26.0799  -33.5481   24.0423 C   0  0  1  0  0  0  0  0  0  0  0  0
  -24.4829  -31.5566   21.2286 C   0  0  1  0  0  0  0  0  0  0  0  0
  -27.3376  -13.6383   19.2994 C   0  0  2  0  0  0  0  0  0  0  0  0
  -17.7738  -28.1484   19.3914 C   0  0  0  0  0  0  0  0  0  0  0  0
  -21.4726  -30.2319   24.4757 C   0  0  0  0  0  0  0  0  0  0  0  0
  -19.4969  -28.9345   23.6499 C   0  0  0  0  0  0  0  0  0  0  0  0
  -19.6324  -31.3916   23.2415 C   0  0  0  0  0  0  0  0  0  0  0  0
  -20.8332  -28.4939   17.1561 C   0  0  0  0  0  0  0  0  0  0  0  0
  -28.2751  -25.3942   19.5805 C   0  0  0  0  0  0  0  0  0  1  0  0
  -21.1451  -29.8345   21.9457 C   0  0  1  0  0  0  0  0  0  0  0  0
  -19.1076  -28.7280   18.9467 C   0  0  2  0  0  0  0  0  0  0  0  0
  -20.4629  -30.0921   23.3189 C   0  0  0  0  0  0  0  0  0  0  0  0
  -26.2406  -12.1764   20.9549 N   0  0  0  0  0  0  0  0  0  0  0  0
  -26.1154  -13.1852   20.0758 N   0  0  0  0  0  0  0  0  0  0  0  0
  -23.4550  -30.5262   21.3891 N   0  0  0  0  0  0  0  0  0  0  0  0
  -29.2478  -15.1921   19.2134 N   0  0  0  0  0  0  0  0  0  0  0  0
  -24.5502  -14.7089   19.1598 N   0  0  0  0  0  0  0  0  0  0  0  0
  -22.0797  -12.3066   22.0789 N   0  0  0  0  0  0  0  0  0  0  0  0
  -28.4821  -17.4062   18.9414 N   0  0  0  0  0  0  0  0  0  0  0  0
  -25.4816  -33.0997   22.8032 N   0  0  0  0  0  0  0  0  0  0  0  0
  -20.2145  -29.7249   20.8274 N   0  0  0  0  0  0  0  0  0  0  0  0
  -19.5454  -28.0097   17.7165 N   0  3  0  0  0  0  0  0  0  0  0  0
  -22.0120  -14.0019   20.5362 O   0  0  0  0  0  0  0  0  0  0  0  0
  -25.1673  -30.8657   23.3802 O   0  0  0  0  0  0  0  0  0  0  0  0
  -21.7195  -32.0820   21.4503 O   0  0  0  0  0  0  0  0  0  0  0  0
  -20.8540  -27.5944   20.1724 O   0  0  0  0  0  0  0  0  0  0  0  0
  -30.5061  -16.7297   18.0317 O   0  0  0  0  0  0  0  0  0  0  0  0
  -23.9129   -8.1531   25.3074 O   0  0  0  0  0  0  0  0  0  0  0  0
  -27.4236  -25.8660   20.6240 O   0  0  0  0  0  0  0  0  0  1  0  0
  -19.3607   -5.1085   24.6663 F   0  0  0  0  0  0  0  0  0  0  0  0
  -26.2871  -19.0480   19.4476 F   0  0  0  0  0  0  0  0  0  0  0  0
  -24.0685   -5.4042   25.0590 F   0  0  0  0  0  0  0  0  0  0  0  0
  1  2  1  0  0  0  0
  1  6  2  0  0  0  0
  2  7  2  0  0  0  0
  3 10  2  0  0  0  0
  3 18  1  0  0  0  0
  4 11  1  0  0  0  0
  4 18  2  0  0  0  0
  5  9  2  0  0  0  0
  5 19  1  0  0  0  0
  6 21  1  0  0  0  0
  7 23  1  0  0  0  0
  8 12  2  0  0  0  0
  8 22  1  0  0  0  0
  9 25  1  0  0  0  0
 10 26  1  0  0  0  0
 11 26  2  0  0  0  0
 12 27  1  0  0  0  0
 13 14  2  0  0  0  0
 13 28  1  0  0  0  0
 14 29  1  0  0  0  0
 15 19  2  0  0  0  0
 15 30  1  0  0  0  0
 16 24  1  0  0  0  0
 16 27  2  0  0  0  0
 17 29  2  0  0  0  0
 17 31  1  0  0  0  0
 18 32  1  0  0  0  0
 19 34  1  0  0  0  0
 20 32  1  0  0  0  0
 20 33  2  0  0  0  0
 20 36  1  0  0  0  0
 21 23  2  0  0  0  0
 21 41  1  0  0  0  0
 22 24  2  0  0  0  0
 22 42  1  0  0  0  0
 23 50  1  0  0  0  0
 24 43  1  0  0  0  0
 25 30  2  0  0  0  0
 25 68  1  0  0  0  0
 26 77  1  0  0  0  0
 27 78  1  0  0  0  0
 28 31  2  0  0  0  0
 28 77  1  0  0  0  0
 29 79  1  0  0  0  0
 30 80  1  0  0  0  0
 31 81  1  0  0  0  0
 32 62  2  0  0  0  0
 33 63  1  0  0  0  0
 33 66  1  0  0  0  0
 34 35  2  0  0  0  0
 35 58  1  0  0  0  0
 36 67  1  0  0  0  0
 36 72  2  0  0  0  0
 37 51  1  0  0  0  0
 37 69  1  0  0  0  0
 37 73  2  0  0  0  0
 38 59  1  0  0  0  0
 38 64  1  0  0  0  0
 38 74  2  0  0  0  0
 39 60  1  0  0  0  0
 39 70  1  0  0  0  0
 39 75  2  0  0  0  0
 40 65  1  0  0  0  0
 40 68  1  0  0  0  0
 40 76  2  0  0  0  0
 41 44  1  0  0  0  0
 42 51  1  0  0  0  0
 43 64  1  0  0  0  0
 44 46  1  0  0  0  0
 45 47  1  0  0  0  0
 45 48  1  0  0  0  0
 46 50  1  0  0  0  0
 47 52  1  0  0  0  0
 48 65  1  0  0  0  0
 49 52  1  0  0  0  0
 49 65  1  0  0  0  0
 50 69  1  0  0  0  0
 51 64  1  0  0  0  0
 52 63  1  0  0  0  0
 53 60  1  0  0  0  0
 54 61  1  0  0  0  0
 55 61  1  0  0  0  0
 56 61  1  0  0  0  0
 57 71  1  0  0  0  0
 58 78  1  0  0  0  0
 59 61  1  0  0  0  0
 59 70  1  0  0  0  0
 60 71  1  0  0  0  0
 62 63  1  0  0  0  0
M  CHG  1  71   1
M  ISO  4  40 100  58 101  68 100  78 101
M  END
> <Batch ID>
0009

> <Smiles>
CNC(C)C(=O)NC(C(=O)N1Cc2cc([101O:1][101CH2:1]C=Cc3ccc([100NH:0][100C:0](=O)N4CCCC(n5nc(-c6ccc(Oc7ccc(F)cc7F)cc6)c(C(N)=O)c5N)C4)c(F)c3)ccc2CC1C(=O)NC1CCCc2ccccc21)C(C)(C)C

> <Shape>
0.323

> <Color>
0.110

> <Negative vol penalty>
0.000

$$$$

  -OEChem-04042320373D

 81 90  0     1  0  0  0  0  0999 V2000
  -27.7200  -35.6990   22.4960 C   0  0  0  0  0  0  0  0  0  0  0  0
  -28.4788  -34.7766   21.7825 C   0  0  0  0  0  0  0  0  0  0  0  0
  -23.0185  -10.2494   20.2078 C   0  0  0  0  0  0  0  0  0  0  0  0
  -24.0979   -9.3360   22.1668 C   0  0  0  0  0  0  0  0  0  0  0  0
  -26.7270  -35.2565   23.3690 C   0  0  0  0  0  0  0  0  0  0  0  0
  -28.2457  -33.4112   21.9426 C   0  0  0  0  0  0  0  0  0  0  0  0
  -28.4150  -27.2526   18.2874 C   0  0  0  0  0  0  0  0  0  0  0  0
  -22.1732   -9.1411   20.1568 C   0  0  0  0  0  0  0  0  0  0  0  0
  -23.2525   -8.2276   22.1158 C   0  0  0  0  0  0  0  0  0  0  0  0
  -28.9483  -25.9669   18.3675 C   0  0  0  0  0  0  0  0  0  0  0  0
  -20.0695   -7.4833   22.9729 C   0  0  0  0  0  0  0  0  0  0  0  0
  -19.4922   -7.0548   24.1682 C   0  0  0  0  0  0  0  0  0  0  0  0
  -27.1532  -25.3208   19.8438 C   0  0  0  0  0  0  0  0  0  0  0  0
  -20.5607   -4.9030   23.9130 C   0  0  0  0  0  0  0  0  0  0  0  0
  -23.9809  -10.3468   21.2128 C   0  0  0  0  0  0  0  0  0  0  0  0
  -24.6321  -12.6999   21.9522 C   0  0  0  0  0  0  0  0  0  0  0  0
  -26.4751  -33.8853   23.5325 C   0  0  0  0  0  0  0  0  0  0  0  0
  -27.2509  -27.5857   18.9948 C   0  0  0  0  0  0  0  0  0  0  0  0
  -27.2493  -32.9499   22.8196 C   0  0  0  0  0  0  0  0  0  0  0  0
  -26.6057  -26.6107   19.7690 C   0  0  0  0  0  0  0  0  0  0  0  0
  -22.2902   -8.1302   21.1108 C   0  0  0  0  0  0  0  0  0  0  0  0
  -28.3190  -25.0016   19.1481 C   0  0  0  0  0  0  0  0  0  0  0  0
  -20.8923   -6.6215   22.2475 C   0  0  0  0  0  0  0  0  0  0  0  0
  -19.7379   -5.7647   24.6383 C   0  0  0  0  0  0  0  0  0  0  0  0
  -21.1379   -5.3314   22.7176 C   0  0  0  0  0  0  0  0  0  0  0  0
  -24.8548  -11.4912   21.2657 C   0  0  0  0  0  0  0  0  0  0  0  0
  -25.7491  -13.4547   21.6897 C   0  0  0  0  0  0  0  0  0  0  0  0
  -23.5153  -13.1041   22.7555 C   0  0  0  0  0  0  0  0  0  0  0  0
  -26.5415  -29.6579   21.2984 C   0  0  0  0  0  0  0  0  0  0  0  0
  -23.5124  -28.6350   20.7499 C   0  0  0  0  0  0  0  0  0  0  0  0
  -21.4505  -26.1767   19.5869 C   0  0  0  0  0  0  0  0  0  0  0  0
  -29.3225  -15.2674   17.6533 C   0  0  0  0  0  0  0  0  0  0  0  0
  -25.4231  -33.4535   24.5233 C   0  0  0  0  0  0  0  0  0  0  0  0
  -26.6735  -28.9695   18.8767 C   0  0  0  0  0  0  0  0  0  0  0  0
  -25.3424  -26.9119   20.5316 C   0  0  0  0  0  0  0  0  0  0  0  0
  -24.9866  -32.0006   24.3539 C   0  0  0  0  0  0  0  0  0  0  0  0
  -30.1637  -12.2149   19.5797 C   0  0  0  0  0  0  0  0  0  0  0  0
  -26.2025  -31.0926   24.1981 C   0  0  0  0  0  0  0  0  0  0  0  0
  -28.8151  -11.8204   20.1790 C   0  0  0  0  0  0  0  0  0  0  0  0
  -29.9678  -17.7290   20.0685 C   0  0  0  0  0  0  0  0  0  0  0  0
  -29.9379  -18.6766   17.7224 C   0  0  0  0  0  0  0  0  0  0  0  0
  -29.9999  -12.9745   18.2669 C   0  0  0  0  0  0  0  0  0  0  0  0
  -28.8682  -16.7458   19.6620 C   0  0  0  0  0  0  0  0  0  0  0  0
  -28.8367  -17.6799   17.3713 C   0  0  0  0  0  0  0  0  0  0  0  0
  -27.7669  -13.7757   18.9705 C   0  0  0  0  0  0  0  0  0  0  0  0
  -28.7859  -20.0157   19.6505 C   0  0  0  0  0  0  0  0  0  0  0  0
  -30.8805  -20.1092   19.6600 C   0  0  0  0  0  0  0  0  0  0  0  0
  -27.0097  -31.4612   22.9475 C   0  0  1  0  0  0  0  0  0  0  0  0
  -25.7701  -29.3420   20.0482 C   0  0  1  0  0  0  0  0  0  0  0  0
  -27.8975  -13.0474   20.3168 C   0  0  1  0  0  0  0  0  0  0  0  0
  -29.8846  -19.0024   19.2228 C   0  0  0  0  0  0  0  0  0  0  0  0
  -19.0216  -25.6127   19.3050 C   0  0  0  0  0  0  0  0  0  0  0  0
  -23.3072  -28.0374   23.7350 C   0  0  0  0  0  0  0  0  0  0  0  0
  -21.2924  -26.6345   23.2447 C   0  0  0  0  0  0  0  0  0  0  0  0
  -21.2634  -29.0764   22.7361 C   0  0  0  0  0  0  0  0  0  0  0  0
  -21.7176  -25.9822   16.6459 C   0  0  0  0  0  0  0  0  0  0  0  0
  -29.7405  -22.0320   20.6593 C   0  0  0  0  0  0  0  0  0  0  0  0
  -28.6187  -23.0280   20.4407 C   0  0  0  0  0  0  0  0  0  1  0  0
  -22.6437  -27.5261   21.2928 C   0  0  1  0  0  0  0  0  0  0  0  0
  -20.2532  -26.2236   18.6549 C   0  0  2  0  0  0  0  0  0  0  0  0
  -22.1515  -27.8132   22.7394 C   0  0  0  0  0  0  0  0  0  0  0  0
  -26.0215  -11.4748   20.6158 N   0  0  0  0  0  0  0  0  0  0  0  0
  -26.5420  -12.6825   20.8927 N   0  0  0  0  0  0  0  0  0  0  0  0
  -24.8203  -28.2810   20.3891 N   0  0  0  0  0  0  0  0  0  0  0  0
  -29.0862  -14.1081   18.4109 N   0  0  0  0  0  0  0  0  0  0  0  0
  -28.9156  -16.4867   18.2155 N   0  0  0  0  0  0  0  0  0  0  0  0
  -26.1206  -14.6971   22.0652 N   0  0  0  0  0  0  0  0  0  0  0  0
  -22.4521  -12.2062   22.9218 N   0  0  0  0  0  0  0  0  0  0  0  0
  -26.3625  -30.9483   21.7590 N   0  0  0  0  0  0  0  0  0  0  0  0
  -21.5704  -27.3365   20.3230 N   0  0  0  0  0  0  0  0  0  0  0  0
  -29.7879  -21.0917   19.5181 N   0  3  0  0  0  0  0  0  0  0  0  0
  -20.5436  -25.4731   17.4005 N   0  3  0  0  0  0  0  0  0  0  0  0
  -23.4545  -14.2345   23.2959 O   0  0  0  0  0  0  0  0  0  0  0  0
  -27.2457  -28.7942   21.8082 O   0  0  0  0  0  0  0  0  0  0  0  0
  -23.0455  -29.7717   20.6430 O   0  0  0  0  0  0  0  0  0  0  0  0
  -22.2020  -25.2068   19.6578 O   0  0  0  0  0  0  0  0  0  0  0  0
  -29.8661  -15.2149   16.5429 O   0  0  0  0  0  0  0  0  0  0  0  0
  -21.4653   -7.0486   21.0614 O   0  0  0  0  0  0  0  0  0  0  0  0
  -28.8415  -23.7371   19.2291 O   0  0  0  0  0  0  0  0  0  1  0  0
  -19.1847   -5.3540   25.7870 F   0  0  0  0  0  0  0  0  0  0  0  0
  -21.9285   -4.4995   22.0257 F   0  0  0  0  0  0  0  0  0  0  0  0
  1  2  1  0  0  0  0
  1  5  2  0  0  0  0
  2  6  2  0  0  0  0
  3  8  2  0  0  0  0
  3 15  1  0  0  0  0
  4  9  1  0  0  0  0
  4 15  2  0  0  0  0
  5 17  1  0  0  0  0
  6 19  1  0  0  0  0
  7 10  2  0  0  0  0
  7 18  1  0  0  0  0
  8 21  1  0  0  0  0
  9 21  2  0  0  0  0
 10 22  1  0  0  0  0
 11 12  2  0  0  0  0
 11 23  1  0  0  0  0
 12 24  1  0  0  0  0
 13 20  1  0  0  0  0
 13 22  2  0  0  0  0
 14 24  2  0  0  0  0
 14 25  1  0  0  0  0
 15 26  1  0  0  0  0
 16 26  1  0  0  0  0
 16 27  2  0  0  0  0
 16 28  1  0  0  0  0
 17 19  2  0  0  0  0
 17 33  1  0  0  0  0
 18 20  2  0  0  0  0
 18 34  1  0  0  0  0
 19 48  1  0  0  0  0
 20 35  1  0  0  0  0
 21 78  1  0  0  0  0
 22 79  1  0  0  0  0
 23 25  2  0  0  0  0
 23 78  1  0  0  0  0
 24 80  1  0  0  0  0
 25 81  1  0  0  0  0
 26 62  2  0  0  0  0
 27 63  1  0  0  0  0
 27 67  1  0  0  0  0
 28 68  1  0  0  0  0
 28 73  2  0  0  0  0
 29 49  1  0  0  0  0
 29 69  1  0  0  0  0
 29 74  2  0  0  0  0
 30 59  1  0  0  0  0
 30 64  1  0  0  0  0
 30 75  2  0  0  0  0
 31 60  1  0  0  0  0
 31 70  1  0  0  0  0
 31 76  2  0  0  0  0
 32 65  1  0  0  0  0
 32 66  1  0  0  0  0
 32 77  2  0  0  0  0
 33 36  1  0  0  0  0
 34 49  1  0  0  0  0
 35 64  1  0  0  0  0
 36 38  1  0  0  0  0
 37 39  1  0  0  0  0
 37 42  1  0  0  0  0
 38 48  1  0  0  0  0
 39 50  1  0  0  0  0
 40 43  1  0  0  0  0
 40 51  1  0  0  0  0
 41 44  1  0  0  0  0
 41 51  1  0  0  0  0
 42 65  1  0  0  0  0
 43 66  1  0  0  0  0
 44 66  1  0  0  0  0
 45 50  1  0  0  0  0
 45 65  1  0  0  0  0
 46 51  1  0  0  0  0
 46 71  1  0  0  0  0
 47 51  1  0  0  0  0
 47 71  1  0  0  0  0
 48 69  1  0  0  0  0
 49 64  1  0  0  0  0
 50 63  1  0  0  0  0
 52 60  1  0  0  0  0
 53 61  1  0  0  0  0
 54 61  1  0  0  0  0
 55 61  1  0  0  0  0
 56 72  1  0  0  0  0
 57 58  1  0  0  0  0
 57 71  1  0  0  0  0
 58 79  1  0  0  0  0
 59 61  1  0  0  0  0
 59 70  1  0  0  0  0
 60 72  1  0  0  0  0
 62 63  1  0  0  0  0
M  CHG  2  71   1  72   1
M  ISO  4  32 100  58 101  66 100  79 101
M  END
> <Batch ID>
0009

> <Smiles>
CNC(C)C(=O)NC(C(=O)N1Cc2cc([101O:1][101CH2:1]CN3CC4(CC[100N:0]([100C:0](=O)N5CCCC(n6nc(-c7ccc(Oc8ccc(F)cc8F)cc7)c(C(N)=O)c6N)C5)CC4)C3)ccc2CC1C(=O)NC1CCCc2ccccc21)C(C)(C)C

> <Shape>
0.341

> <Color>
0.117

> <Negative vol penalty>
0.000

$$$$

  -OEChem-04042320373D

 81 89  0     1  0  0  0  0  0999 V2000
  -32.0875  -29.4161   27.8250 C   0  0  0  0  0  0  0  0  0  0  0  0
  -32.1214  -28.4010   26.8743 C   0  0  0  0  0  0  0  0  0  0  0  0
  -23.4167   -9.8670   22.0414 C   0  0  0  0  0  0  0  0  0  0  0  0
  -24.2964  -11.2059   23.8499 C   0  0  0  0  0  0  0  0  0  0  0  0
  -30.8933  -30.0875   28.0839 C   0  0  0  0  0  0  0  0  0  0  0  0
  -30.9607  -28.0560   26.1827 C   0  0  0  0  0  0  0  0  0  0  0  0
  -30.5608  -26.1822   20.3659 C   0  0  0  0  0  0  0  0  0  0  0  0
  -31.7089  -17.4669   19.4918 C   0  0  0  0  0  0  0  0  0  0  0  0
  -22.8238   -9.0074   22.9662 C   0  0  0  0  0  0  0  0  0  0  0  0
  -23.7034  -10.3463   24.7747 C   0  0  0  0  0  0  0  0  0  0  0  0
  -30.4529  -24.9154   19.7939 C   0  0  0  0  0  0  0  0  0  0  0  0
  -20.0700   -8.9753   24.9279 C   0  0  0  0  0  0  0  0  0  0  0  0
  -18.7521   -8.5823   24.6953 C   0  0  0  0  0  0  0  0  0  0  0  0
  -32.2413  -18.7409   19.6891 C   0  0  0  0  0  0  0  0  0  0  0  0
  -28.0571  -25.1757   19.6841 C   0  0  0  0  0  0  0  0  0  0  0  0
  -29.4786  -18.3588   19.7511 C   0  0  0  0  0  0  0  0  0  0  0  0
  -19.4553   -6.2723   24.6143 C   0  0  0  0  0  0  0  0  0  0  0  0
  -24.1530  -10.9663   22.4833 C   0  0  0  0  0  0  0  0  0  0  0  0
  -24.1982  -13.0062   20.9522 C   0  0  0  0  0  0  0  0  0  0  0  0
  -29.7196  -29.7571   27.3883 C   0  0  0  0  0  0  0  0  0  0  0  0
  -29.4148  -26.9521   20.6118 C   0  0  0  0  0  0  0  0  0  0  0  0
  -29.7494  -28.7227   26.4335 C   0  0  0  0  0  0  0  0  0  0  0  0
  -28.1534  -26.4530   20.2570 C   0  0  0  0  0  0  0  0  0  0  0  0
  -30.3275  -17.2758   19.5227 C   0  0  0  0  0  0  0  0  0  0  0  0
  -22.9671   -9.2471   24.3328 C   0  0  0  0  0  0  0  0  0  0  0  0
  -29.2007  -24.4107   19.4555 C   0  0  0  0  0  0  0  0  0  0  0  0
  -21.0806   -8.0169   25.0036 C   0  0  0  0  0  0  0  0  0  0  0  0
  -30.0110  -19.6329   19.9484 C   0  0  0  0  0  0  0  0  0  0  0  0
  -18.4447   -7.2308   24.5385 C   0  0  0  0  0  0  0  0  0  0  0  0
  -20.7733   -6.6654   24.8469 C   0  0  0  0  0  0  0  0  0  0  0  0
  -31.3924  -19.8239   19.9174 C   0  0  0  0  0  0  0  0  0  0  0  0
  -24.7662  -11.8542   21.5285 C   0  0  0  0  0  0  0  0  0  0  0  0
  -25.1763  -13.4911   20.1187 C   0  0  0  0  0  0  0  0  0  0  0  0
  -22.9024  -13.5862   21.1525 C   0  0  0  0  0  0  0  0  0  0  0  0
  -28.0338  -28.1521   23.2111 C   0  0  0  0  0  0  0  0  0  0  0  0
  -26.0795  -29.5687   21.0441 C   0  0  0  0  0  0  0  0  0  0  0  0
  -24.7293  -29.5456   17.9098 C   0  0  0  0  0  0  0  0  0  0  0  0
  -30.4893  -14.7997   19.0880 C   0  0  0  0  0  0  0  0  0  0  0  0
  -28.4419  -30.4789   27.7363 C   0  0  0  0  0  0  0  0  0  0  0  0
  -29.5504  -28.3277   21.2049 C   0  0  0  0  0  0  0  0  0  0  0  0
  -26.8941  -27.2481   20.4816 C   0  0  0  0  0  0  0  0  0  0  0  0
  -27.3414  -30.3067   26.6925 C   0  0  0  0  0  0  0  0  0  0  0  0
  -29.5277  -11.4086   18.5855 C   0  0  0  0  0  0  0  0  0  0  0  0
  -27.2178  -28.8423   26.2836 C   0  0  0  0  0  0  0  0  0  0  0  0
  -28.1565  -11.3170   19.2590 C   0  0  0  0  0  0  0  0  0  0  0  0
  -30.4758  -12.3289   19.3522 C   0  0  0  0  0  0  0  0  0  0  0  0
  -28.5780  -13.5799   20.3022 C   0  0  0  0  0  0  0  0  0  0  0  0
  -28.5169  -28.3364   25.6449 C   0  0  1  0  0  0  0  0  0  0  0  0
  -28.2738  -28.8142   21.8838 C   0  0  1  0  0  0  0  0  0  0  0  0
  -27.5676  -12.7152   19.5309 C   0  0  2  0  0  0  0  0  0  0  0  0
  -23.1358  -30.8120   16.4420 C   0  0  0  0  0  0  0  0  0  0  0  0
  -23.7249  -28.3710   22.5711 C   0  0  0  0  0  0  0  0  0  0  0  0
  -22.2820  -28.8477   20.5814 C   0  0  0  0  0  0  0  0  0  0  0  0
  -23.3803  -30.7256   21.8019 C   0  0  0  0  0  0  0  0  0  0  0  0
  -26.8446  -30.1372   15.9262 C   0  0  0  0  0  0  0  0  0  0  0  0
  -27.8947  -22.4449   19.1620 C   0  0  0  0  0  0  0  0  0  1  0  0
  -28.2061  -20.9609   19.1519 C   0  0  0  0  0  0  0  0  0  0  0  0
  -24.7851  -29.1918   20.3646 C   0  0  1  0  0  0  0  0  0  0  0  0
  -24.5858  -30.6392   16.8668 C   0  0  2  0  0  0  0  0  0  0  0  0
  -23.5665  -29.2680   21.3272 C   0  0  0  0  0  0  0  0  0  0  0  0
  -26.0088  -11.6211   21.0975 N   0  0  0  0  0  0  0  0  0  0  0  0
  -26.2295  -12.6332   20.2414 N   0  0  0  0  0  0  0  0  0  0  0  0
  -27.0782  -28.5850   21.0700 N   0  0  0  0  0  0  0  0  0  0  0  0
  -29.8525  -13.6363   19.5692 N   0  0  0  0  0  0  0  0  0  0  0  0
  -25.2295  -14.5632   19.3000 N   0  0  0  0  0  0  0  0  0  0  0  0
  -22.0207  -12.9600   22.0440 N   0  0  0  0  0  0  0  0  0  0  0  0
  -29.7871  -15.9811   19.3243 N   0  0  0  0  0  0  0  0  0  0  0  0
  -28.6232  -28.8019   24.2788 N   0  0  0  0  0  0  0  0  0  0  0  0
  -24.6745  -30.0517   19.1913 N   0  0  0  0  0  0  0  0  0  0  0  0
  -25.3938  -30.3116   15.6582 N   0  3  0  0  0  0  0  0  0  0  0  0
  -22.5312  -14.6197   20.5462 O   0  0  0  0  0  0  0  0  0  0  0  0
  -27.3623  -27.1283   23.2630 O   0  0  0  0  0  0  0  0  0  0  0  0
  -26.2025  -30.6969   21.5275 O   0  0  0  0  0  0  0  0  0  0  0  0
  -24.8718  -28.3605   17.6171 O   0  0  0  0  0  0  0  0  0  0  0  0
  -31.5643  -14.7488   18.4849 O   0  0  0  0  0  0  0  0  0  0  0  0
  -22.3885   -8.4087   25.2354 O   0  0  0  0  0  0  0  0  0  0  0  0
  -29.0925  -23.1742   18.8976 O   0  0  0  0  0  0  0  0  0  1  0  0
  -29.1543  -20.6780   20.1737 O   0  0  0  0  0  0  0  0  0  0  0  0
  -17.1788   -6.8533   24.3166 F   0  0  0  0  0  0  0  0  0  0  0  0
  -21.7397   -5.7399   24.9198 F   0  0  0  0  0  0  0  0  0  0  0  0
  -32.0778  -21.3882   20.1597 Cl  0  0  0  0  0  0  0  0  0  0  0  0
  1  2  1  0  0  0  0
  1  5  2  0  0  0  0
  2  6  2  0  0  0  0
  3  9  2  0  0  0  0
  3 18  1  0  0  0  0
  4 10  1  0  0  0  0
  4 18  2  0  0  0  0
  5 20  1  0  0  0  0
  6 22  1  0  0  0  0
  7 11  2  0  0  0  0
  7 21  1  0  0  0  0
  8 14  2  0  0  0  0
  8 24  1  0  0  0  0
  9 25  1  0  0  0  0
 10 25  2  0  0  0  0
 11 26  1  0  0  0  0
 12 13  2  0  0  0  0
 12 27  1  0  0  0  0
 13 29  1  0  0  0  0
 14 31  1  0  0  0  0
 15 23  1  0  0  0  0
 15 26  2  0  0  0  0
 16 24  2  0  0  0  0
 16 28  1  0  0  0  0
 17 29  2  0  0  0  0
 17 30  1  0  0  0  0
 18 32  1  0  0  0  0
 19 32  1  0  0  0  0
 19 33  2  0  0  0  0
 19 34  1  0  0  0  0
 20 22  2  0  0  0  0
 20 39  1  0  0  0  0
 21 23  2  0  0  0  0
 21 40  1  0  0  0  0
 22 48  1  0  0  0  0
 23 41  1  0  0  0  0
 24 67  1  0  0  0  0
 25 76  1  0  0  0  0
 26 77  1  0  0  0  0
 27 30  2  0  0  0  0
 27 76  1  0  0  0  0
 28 31  2  0  0  0  0
 28 78  1  0  0  0  0
 29 79  1  0  0  0  0
 30 80  1  0  0  0  0
 31 81  1  0  0  0  0
 32 61  2  0  0  0  0
 33 62  1  0  0  0  0
 33 65  1  0  0  0  0
 34 66  1  0  0  0  0
 34 71  2  0  0  0  0
 35 49  1  0  0  0  0
 35 68  1  0  0  0  0
 35 72  2  0  0  0  0
 36 58  1  0  0  0  0
 36 63  1  0  0  0  0
 36 73  2  0  0  0  0
 37 59  1  0  0  0  0
 37 69  1  0  0  0  0
 37 74  2  0  0  0  0
 38 64  1  0  0  0  0
 38 67  1  0  0  0  0
 38 75  2  0  0  0  0
 39 42  1  0  0  0  0
 40 49  1  0  0  0  0
 41 63  1  0  0  0  0
 42 44  1  0  0  0  0
 43 45  1  0  0  0  0
 43 46  1  0  0  0  0
 44 48  1  0  0  0  0
 45 50  1  0  0  0  0
 46 64  1  0  0  0  0
 47 50  1  0  0  0  0
 47 64  1  0  0  0  0
 48 68  1  0  0  0  0
 49 63  1  0  0  0  0
 50 62  1  0  0  0  0
 51 59  1  0  0  0  0
 52 60  1  0  0  0  0
 53 60  1  0  0  0  0
 54 60  1  0  0  0  0
 55 70  1  0  0  0  0
 56 57  1  0  0  0  0
 56 77  1  0  0  0  0
 57 78  1  0  0  0  0
 58 60  1  0  0  0  0
 58 69  1  0  0  0  0
 59 70  1  0  0  0  0
 61 62  1  0  0  0  0
M  CHG  1  70   1
M  ISO  4  38 100  56 101  67 100  77 101
M  END
> <Batch ID>
0009

> <Smiles>
CNC(C)C(=O)NC(C(=O)N1Cc2cc([101O:1][101CH2:1]COc3cc([100NH:0][100C:0](=O)N4CCCC(n5nc(-c6ccc(Oc7ccc(F)cc7F)cc6)c(C(N)=O)c5N)C4)ccc3Cl)ccc2CC1C(=O)NC1CCCc2ccccc21)C(C)(C)C

> <Shape>
0.263

> <Color>
0.142

> <Negative vol penalty>
0.000

$$$$

  -OEChem-04042320373D

 81 89  0     1  0  0  0  0  0999 V2000
  -17.7155  -33.3419   18.0836 C   0  0  0  0  0  0  0  0  0  0  0  0
  -18.9138  -32.9824   17.4751 C   0  0  0  0  0  0  0  0  0  0  0  0
  -24.8012  -10.2786   22.6259 C   0  0  0  0  0  0  0  0  0  0  0  0
  -24.4888  -11.7693   24.5013 C   0  0  0  0  0  0  0  0  0  0  0  0
  -17.7254  -33.9232   19.3508 C   0  0  0  0  0  0  0  0  0  0  0  0
  -20.1229  -33.2051   18.1332 C   0  0  0  0  0  0  0  0  0  0  0  0
  -24.6112  -27.7615   19.5870 C   0  0  0  0  0  0  0  0  0  0  0  0
  -29.5131  -20.7821   21.9189 C   0  0  0  0  0  0  0  0  0  0  0  0
  -24.3855   -9.2034   23.4112 C   0  0  0  0  0  0  0  0  0  0  0  0
  -24.0729  -10.6941   25.2866 C   0  0  0  0  0  0  0  0  0  0  0  0
  -25.6185  -26.8047   19.7133 C   0  0  0  0  0  0  0  0  0  0  0  0
  -29.3851  -22.1504   22.1577 C   0  0  0  0  0  0  0  0  0  0  0  0
  -21.4645   -7.9153   24.5255 C   0  0  0  0  0  0  0  0  0  0  0  0
  -20.5567   -7.0164   23.9656 C   0  0  0  0  0  0  0  0  0  0  0  0
  -27.0248  -28.4182   20.8389 C   0  0  0  0  0  0  0  0  0  0  0  0
  -27.1423  -20.6374   21.4769 C   0  0  0  0  0  0  0  0  0  0  0  0
  -22.1505   -5.2245   24.2582 C   0  0  0  0  0  0  0  0  0  0  0  0
  -24.8529  -11.5615   23.1710 C   0  0  0  0  0  0  0  0  0  0  0  0
  -24.4755  -13.5061   21.5635 C   0  0  0  0  0  0  0  0  0  0  0  0
  -18.9346  -34.1443   20.0288 C   0  0  0  0  0  0  0  0  0  0  0  0
  -24.8012  -29.0475   20.1004 C   0  0  0  0  0  0  0  0  0  0  0  0
  -20.1490  -33.7912   19.4101 C   0  0  0  0  0  0  0  0  0  0  0  0
  -26.0146  -29.3772   20.7264 C   0  0  0  0  0  0  0  0  0  0  0  0
  -28.3917  -20.0256   21.5784 C   0  0  0  0  0  0  0  0  0  0  0  0
  -24.0213   -9.4111   24.7416 C   0  0  0  0  0  0  0  0  0  0  0  0
  -26.8224  -27.1323   20.3375 C   0  0  0  0  0  0  0  0  0  0  0  0
  -22.7154   -7.4688   24.9517 C   0  0  0  0  0  0  0  0  0  0  0  0
  -28.1357  -22.7621   22.0562 C   0  0  0  0  0  0  0  0  0  0  0  0
  -20.8997   -5.6710   23.8320 C   0  0  0  0  0  0  0  0  0  0  0  0
  -27.0143  -22.0057   21.7158 C   0  0  0  0  0  0  0  0  0  0  0  0
  -23.0584   -6.1234   24.8181 C   0  0  0  0  0  0  0  0  0  0  0  0
  -25.2829  -12.6725   22.3604 C   0  0  0  0  0  0  0  0  0  0  0  0
  -25.3542  -14.3993   21.0010 C   0  0  0  0  0  0  0  0  0  0  0  0
  -23.0579  -13.4758   21.3509 C   0  0  0  0  0  0  0  0  0  0  0  0
  -23.3724  -32.4735   20.6455 C   0  0  0  0  0  0  0  0  0  0  0  0
  -24.8881  -31.7227   23.2046 C   0  0  0  0  0  0  0  0  0  0  0  0
  -26.3005  -30.3471   25.9886 C   0  0  0  0  0  0  0  0  0  0  0  0
  -29.6878  -17.8733   21.3941 C   0  0  0  0  0  0  0  0  0  0  0  0
  -18.8980  -34.8190   21.3772 C   0  0  0  0  0  0  0  0  0  0  0  0
  -23.7676  -30.1278   19.9324 C   0  0  0  0  0  0  0  0  0  0  0  0
  -26.1880  -30.7830   21.2329 C   0  0  0  0  0  0  0  0  0  0  0  0
  -20.1981  -34.6777   22.1645 C   0  0  0  0  0  0  0  0  0  0  0  0
  -30.4150  -14.4228   20.9013 C   0  0  0  0  0  0  0  0  0  0  0  0
  -21.3979  -34.9814   21.2727 C   0  0  0  0  0  0  0  0  0  0  0  0
  -29.0782  -13.7284   21.1714 C   0  0  0  0  0  0  0  0  0  0  0  0
  -30.6319  -15.6163   21.8299 C   0  0  0  0  0  0  0  0  0  0  0  0
  -28.2019  -15.9022   22.1169 C   0  0  0  0  0  0  0  0  0  0  0  0
  -21.4794  -33.9940   20.1023 C   0  0  1  0  0  0  0  0  0  0  0  0
  -23.7025  -31.0923   21.1301 C   0  0  1  0  0  0  0  0  0  0  0  0
  -27.9093  -14.7331   21.1623 C   0  0  2  0  0  0  0  0  0  0  0  0
  -26.8460  -30.8668   28.3823 C   0  0  0  0  0  0  0  0  0  0  0  0
  -27.2368  -33.4417   22.2923 C   0  0  0  0  0  0  0  0  0  0  0  0
  -28.2509  -33.1347   24.5607 C   0  0  0  0  0  0  0  0  0  0  0  0
  -26.0517  -34.2882   24.3254 C   0  0  0  0  0  0  0  0  0  0  0  0
  -24.5818  -28.1504   26.9783 C   0  0  0  0  0  0  0  0  0  0  0  0
  -28.6649  -26.3010   21.5911 C   0  0  0  0  0  0  0  0  0  1  0  0
  -29.1408  -24.9163   21.9857 C   0  0  0  0  0  0  0  0  0  0  0  0
  -26.1840  -31.7882   23.9726 C   0  0  1  0  0  0  0  0  0  0  0  0
  -25.8232  -30.2708   27.4276 C   0  0  2  0  0  0  0  0  0  0  0  0
  -26.9242  -33.1407   23.7717 C   0  0  0  0  0  0  0  0  0  0  0  0
  -26.5752  -13.0063   22.3111 N   0  0  0  0  0  0  0  0  0  0  0  0
  -26.5866  -14.0595   21.4764 N   0  0  0  0  0  0  0  0  0  0  0  0
  -24.9536  -31.2347   21.8939 N   0  0  0  0  0  0  0  0  0  0  0  0
  -29.4868  -16.5270   21.7655 N   0  0  0  0  0  0  0  0  0  0  0  0
  -25.1853  -15.4344   20.1511 N   0  0  0  0  0  0  0  0  0  0  0  0
  -22.3048  -12.4921   22.0063 N   0  0  0  0  0  0  0  0  0  0  0  0
  -28.5216  -18.6356   21.3358 N   0  0  0  0  0  0  0  0  0  0  0  0
  -22.0175  -32.7263   20.5470 N   0  0  0  0  0  0  0  0  0  0  0  0
  -25.8510  -31.4898   25.3613 N   0  0  0  0  0  0  0  0  0  0  0  0
  -25.5846  -28.8529   27.8197 N   0  3  0  0  0  0  0  0  0  0  0  0
  -22.4784  -14.2864   20.5889 O   0  0  0  0  0  0  0  0  0  0  0  0
  -24.2795  -33.2539   20.3813 O   0  0  0  0  0  0  0  0  0  0  0  0
  -23.8455  -32.0986   23.7477 O   0  0  0  0  0  0  0  0  0  0  0  0
  -27.0049  -29.4816   25.4736 O   0  0  0  0  0  0  0  0  0  0  0  0
  -30.8084  -18.3104   21.1197 O   0  0  0  0  0  0  0  0  0  0  0  0
  -23.6153   -8.3622   25.5081 O   0  0  0  0  0  0  0  0  0  0  0  0
  -27.7998  -26.1921   20.4615 O   0  0  0  0  0  0  0  0  0  1  0  0
  -28.0119  -24.1064   22.2905 O   0  0  0  0  0  0  0  0  0  0  0  0
  -20.0272   -4.8077   23.2957 F   0  0  0  0  0  0  0  0  0  0  0  0
  -25.8115  -22.5881   21.6156 F   0  0  0  0  0  0  0  0  0  0  0  0
  -24.2582   -5.6883   25.2268 F   0  0  0  0  0  0  0  0  0  0  0  0
  1  2  1  0  0  0  0
  1  5  2  0  0  0  0
  2  6  2  0  0  0  0
  3  9  2  0  0  0  0
  3 18  1  0  0  0  0
  4 10  1  0  0  0  0
  4 18  2  0  0  0  0
  5 20  1  0  0  0  0
  6 22  1  0  0  0  0
  7 11  2  0  0  0  0
  7 21  1  0  0  0  0
  8 12  2  0  0  0  0
  8 24  1  0  0  0  0
  9 25  1  0  0  0  0
 10 25  2  0  0  0  0
 11 26  1  0  0  0  0
 12 28  1  0  0  0  0
 13 14  2  0  0  0  0
 13 27  1  0  0  0  0
 14 29  1  0  0  0  0
 15 23  1  0  0  0  0
 15 26  2  0  0  0  0
 16 24  2  0  0  0  0
 16 30  1  0  0  0  0
 17 29  2  0  0  0  0
 17 31  1  0  0  0  0
 18 32  1  0  0  0  0
 19 32  1  0  0  0  0
 19 33  2  0  0  0  0
 19 34  1  0  0  0  0
 20 22  2  0  0  0  0
 20 39  1  0  0  0  0
 21 23  2  0  0  0  0
 21 40  1  0  0  0  0
 22 48  1  0  0  0  0
 23 41  1  0  0  0  0
 24 67  1  0  0  0  0
 25 76  1  0  0  0  0
 26 77  1  0  0  0  0
 27 31  2  0  0  0  0
 27 76  1  0  0  0  0
 28 30  2  0  0  0  0
 28 78  1  0  0  0  0
 29 79  1  0  0  0  0
 30 80  1  0  0  0  0
 31 81  1  0  0  0  0
 32 61  2  0  0  0  0
 33 62  1  0  0  0  0
 33 65  1  0  0  0  0
 34 66  1  0  0  0  0
 34 71  2  0  0  0  0
 35 49  1  0  0  0  0
 35 68  1  0  0  0  0
 35 72  2  0  0  0  0
 36 58  1  0  0  0  0
 36 63  1  0  0  0  0
 36 73  2  0  0  0  0
 37 59  1  0  0  0  0
 37 69  1  0  0  0  0
 37 74  2  0  0  0  0
 38 64  1  0  0  0  0
 38 67  1  0  0  0  0
 38 75  2  0  0  0  0
 39 42  1  0  0  0  0
 40 49  1  0  0  0  0
 41 63  1  0  0  0  0
 42 44  1  0  0  0  0
 43 45  1  0  0  0  0
 43 46  1  0  0  0  0
 44 48  1  0  0  0  0
 45 50  1  0  0  0  0
 46 64  1  0  0  0  0
 47 50  1  0  0  0  0
 47 64  1  0  0  0  0
 48 68  1  0  0  0  0
 49 63  1  0  0  0  0
 50 62  1  0  0  0  0
 51 59  1  0  0  0  0
 52 60  1  0  0  0  0
 53 60  1  0  0  0  0
 54 60  1  0  0  0  0
 55 70  1  0  0  0  0
 56 57  1  0  0  0  0
 56 77  1  0  0  0  0
 57 78  1  0  0  0  0
 58 60  1  0  0  0  0
 58 69  1  0  0  0  0
 59 70  1  0  0  0  0
 61 62  1  0  0  0  0
M  CHG  1  70   1
M  ISO  4  38 100  56 101  67 100  77 101
M  END
> <Batch ID>
0009

> <Smiles>
CNC(C)C(=O)NC(C(=O)N1Cc2cc([101O:1][101CH2:1]COc3ccc([100NH:0][100C:0](=O)N4CCCC(n5nc(-c6ccc(Oc7ccc(F)cc7F)cc6)c(C(N)=O)c5N)C4)cc3F)ccc2CC1C(=O)NC1CCCc2ccccc21)C(C)(C)C

> <Shape>
0.265

> <Color>
0.145

> <Negative vol penalty>
0.000

$$$$

  -OEChem-04042320373D

 86 95  0     1  0  0  0  0  0999 V2000
  -21.7476  -18.3817   22.2703 C   0  0  0  0  0  0  0  0  0  0  0  0
  -22.8207  -19.2670   22.2552 C   0  0  0  0  0  0  0  0  0  0  0  0
  -23.0539   -9.7911   19.9683 C   0  0  0  0  0  0  0  0  0  0  0  0
  -23.7252   -9.9115   22.2860 C   0  0  0  0  0  0  0  0  0  0  0  0
  -20.5128  -18.7761   21.7568 C   0  0  0  0  0  0  0  0  0  0  0  0
  -22.6598  -20.5468   21.7254 C   0  0  0  0  0  0  0  0  0  0  0  0
  -29.5846  -19.3026   22.1877 C   0  0  0  0  0  0  0  0  0  0  0  0
  -24.7354  -24.1306   24.6398 C   0  0  0  0  0  0  0  0  0  0  0  0
  -29.4157  -17.9192   22.2436 C   0  0  0  0  0  0  0  0  0  0  0  0
  -22.2987   -8.6518   20.2462 C   0  0  0  0  0  0  0  0  0  0  0  0
  -22.9700   -8.7722   22.5639 C   0  0  0  0  0  0  0  0  0  0  0  0
  -26.1194  -24.2841   24.5717 C   0  0  0  0  0  0  0  0  0  0  0  0
  -23.2754   -5.4266   22.1831 C   0  0  0  0  0  0  0  0  0  0  0  0
  -23.8608   -4.4381   22.9740 C   0  0  0  0  0  0  0  0  0  0  0  0
  -25.8314  -26.1711   23.0967 C   0  0  0  0  0  0  0  0  0  0  0  0
  -31.1119  -17.6434   20.5454 C   0  0  0  0  0  0  0  0  0  0  0  0
  -22.0955   -4.6961   24.6032 C   0  0  0  0  0  0  0  0  0  0  0  0
  -23.7672  -10.4209   20.9882 C   0  0  0  0  0  0  0  0  0  0  0  0
  -24.1185  -12.9370   20.7567 C   0  0  0  0  0  0  0  0  0  0  0  0
  -20.3341  -20.0647   21.2293 C   0  0  0  0  0  0  0  0  0  0  0  0
  -23.8879  -24.9908   23.9270 C   0  0  0  0  0  0  0  0  0  0  0  0
  -21.4218  -20.9583   21.2032 C   0  0  0  0  0  0  0  0  0  0  0  0
  -30.5171  -19.8565   21.3105 C   0  0  0  0  0  0  0  0  0  0  0  0
  -24.4369  -26.0279   23.1595 C   0  0  0  0  0  0  0  0  0  0  0  0
  -30.1793  -17.0896   21.4225 C   0  0  0  0  0  0  0  0  0  0  0  0
  -22.2567   -8.1423   21.5440 C   0  0  0  0  0  0  0  0  0  0  0  0
  -26.6677  -25.3027   23.7977 C   0  0  0  0  0  0  0  0  0  0  0  0
  -22.1001   -6.0500   22.6023 C   0  0  0  0  0  0  0  0  0  0  0  0
  -23.2709   -4.0727   24.1840 C   0  0  0  0  0  0  0  0  0  0  0  0
  -31.2807  -19.0269   20.4894 C   0  0  0  0  0  0  0  0  0  0  0  0
  -21.5101   -5.6847   23.8123 C   0  0  0  0  0  0  0  0  0  0  0  0
  -24.5480  -11.5975   20.7016 C   0  0  0  0  0  0  0  0  0  0  0  0
  -25.2253  -13.6675   20.3990 C   0  0  0  0  0  0  0  0  0  0  0  0
  -22.8339  -13.4730   21.1004 C   0  0  0  0  0  0  0  0  0  0  0  0
  -21.7500  -24.6167   21.6046 C   0  0  0  0  0  0  0  0  0  0  0  0
  -21.1795  -27.7622   22.1545 C   0  0  0  0  0  0  0  0  0  0  0  0
  -22.3276  -30.7522   23.3331 C   0  0  0  0  0  0  0  0  0  0  0  0
  -30.6828  -14.7199   20.7317 C   0  0  0  0  0  0  0  0  0  0  0  0
  -18.9935  -20.4294   20.6425 C   0  0  0  0  0  0  0  0  0  0  0  0
  -22.3962  -24.8285   24.0323 C   0  0  0  0  0  0  0  0  0  0  0  0
  -23.5699  -26.9906   22.3914 C   0  0  0  0  0  0  0  0  0  0  0  0
  -18.8050  -21.9308   20.4409 C   0  0  0  0  0  0  0  0  0  0  0  0
  -29.6553  -12.1919   18.4446 C   0  0  0  0  0  0  0  0  0  0  0  0
  -20.0371  -22.5394   19.7790 C   0  0  0  0  0  0  0  0  0  0  0  0
  -28.1996  -11.9221   18.8325 C   0  0  0  0  0  0  0  0  0  0  0  0
  -29.3849  -22.0181   20.8277 C   0  0  0  0  0  0  0  0  0  0  0  0
  -31.1591  -21.8706   22.6213 C   0  0  0  0  0  0  0  0  0  0  0  0
  -30.5241  -12.4798   19.6678 C   0  0  0  0  0  0  0  0  0  0  0  0
  -28.5670  -13.2719   20.9372 C   0  0  0  0  0  0  0  0  0  0  0  0
  -29.5108  -23.5361   20.8415 C   0  0  0  0  0  0  0  0  0  0  0  0
  -31.2717  -23.3898   22.6211 C   0  0  0  0  0  0  0  0  0  0  0  0
  -30.6963  -21.3394   21.2551 C   0  0  0  0  0  0  0  0  0  0  0  0
  -21.2801  -22.3635   20.6596 C   0  0  1  0  0  0  0  0  0  0  0  0
  -21.6439  -25.4422   22.8556 C   0  0  1  0  0  0  0  0  0  0  0  0
  -27.6397  -13.0407   19.7329 C   0  0  2  0  0  0  0  0  0  0  0  0
  -21.6471  -33.1512   23.6141 C   0  0  0  0  0  0  0  0  0  0  0  0
  -21.6289  -28.2363   19.1740 C   0  0  0  0  0  0  0  0  0  0  0  0
  -21.8812  -30.6770   19.6713 C   0  0  0  0  0  0  0  0  0  0  0  0
  -19.7242  -29.5229   20.1595 C   0  0  0  0  0  0  0  0  0  0  0  0
  -22.6021  -30.6062   26.2763 C   0  0  0  0  0  0  0  0  0  0  0  0
  -29.9659  -25.4918   22.3189 C   0  0  0  0  0  0  0  0  0  0  0  0
  -28.5504  -25.9957   22.5206 C   0  0  0  0  0  0  0  0  0  1  0  0
  -21.7360  -29.0593   21.6189 C   0  0  1  0  0  0  0  0  0  0  0  0
  -21.7010  -31.7764   24.2620 C   0  0  2  0  0  0  0  0  0  0  0  0
  -21.2592  -29.3547   20.1687 C   0  0  0  0  0  0  0  0  0  0  0  0
  -25.8278  -11.4809   20.3375 N   0  0  0  0  0  0  0  0  0  0  0  0
  -26.2119  -12.7566   20.1604 N   0  0  0  0  0  0  0  0  0  0  0  0
  -22.1176  -26.7869   22.5213 N   0  0  0  0  0  0  0  0  0  0  0  0
  -29.9339  -13.5528   20.4710 N   0  0  0  0  0  0  0  0  0  0  0  0
  -25.4410  -14.9937   20.2684 N   0  0  0  0  0  0  0  0  0  0  0  0
  -21.8080  -12.5818   21.4431 N   0  0  0  0  0  0  0  0  0  0  0  0
  -30.0064  -15.6843   21.4779 N   0  0  0  0  0  0  0  0  0  0  0  0
  -21.2745  -23.3264   21.7400 N   0  0  0  0  0  0  0  0  0  0  0  0
  -21.3759  -30.0890   22.5876 N   0  0  0  0  0  0  0  0  0  0  0  0
  -29.9487  -24.0109   22.2142 N   0  3  0  0  0  0  0  0  0  0  0  0
  -22.4878  -31.8817   25.5232 N   0  3  0  0  0  0  0  0  0  0  0  0
  -22.5981  -14.7050   21.0877 O   0  0  0  0  0  0  0  0  0  0  0  0
  -22.2267  -25.1140   20.5911 O   0  0  0  0  0  0  0  0  0  0  0  0
  -19.9577  -27.6224   22.2509 O   0  0  0  0  0  0  0  0  0  0  0  0
  -23.5403  -30.5622   23.2720 O   0  0  0  0  0  0  0  0  0  0  0  0
  -31.8294  -14.8651   20.3001 O   0  0  0  0  0  0  0  0  0  0  0  0
  -21.5196   -7.0308   21.8156 O   0  0  0  0  0  0  0  0  0  0  0  0
  -28.0183  -25.4544   23.7290 O   0  0  0  0  0  0  0  0  0  1  0  0
  -23.8324   -3.1223   24.9427 F   0  0  0  0  0  0  0  0  0  0  0  0
  -32.1793  -19.5498   19.6434 F   0  0  0  0  0  0  0  0  0  0  0  0
  -20.3803   -6.2792   24.2197 F   0  0  0  0  0  0  0  0  0  0  0  0
  1  2  1  0  0  0  0
  1  5  2  0  0  0  0
  2  6  2  0  0  0  0
  3 10  2  0  0  0  0
  3 18  1  0  0  0  0
  4 11  1  0  0  0  0
  4 18  2  0  0  0  0
  5 20  1  0  0  0  0
  6 22  1  0  0  0  0
  7  9  2  0  0  0  0
  7 23  1  0  0  0  0
  8 12  2  0  0  0  0
  8 21  1  0  0  0  0
  9 25  1  0  0  0  0
 10 26  1  0  0  0  0
 11 26  2  0  0  0  0
 12 27  1  0  0  0  0
 13 14  2  0  0  0  0
 13 28  1  0  0  0  0
 14 29  1  0  0  0  0
 15 24  1  0  0  0  0
 15 27  2  0  0  0  0
 16 25  2  0  0  0  0
 16 30  1  0  0  0  0
 17 29  2  0  0  0  0
 17 31  1  0  0  0  0
 18 32  1  0  0  0  0
 19 32  1  0  0  0  0
 19 33  2  0  0  0  0
 19 34  1  0  0  0  0
 20 22  2  0  0  0  0
 20 39  1  0  0  0  0
 21 24  2  0  0  0  0
 21 40  1  0  0  0  0
 22 53  1  0  0  0  0
 23 30  2  0  0  0  0
 23 52  1  0  0  0  0
 24 41  1  0  0  0  0
 25 72  1  0  0  0  0
 26 82  1  0  0  0  0
 27 83  1  0  0  0  0
 28 31  2  0  0  0  0
 28 82  1  0  0  0  0
 29 84  1  0  0  0  0
 30 85  1  0  0  0  0
 31 86  1  0  0  0  0
 32 66  2  0  0  0  0
 33 67  1  0  0  0  0
 33 70  1  0  0  0  0
 34 71  1  0  0  0  0
 34 77  2  0  0  0  0
 35 54  1  0  0  0  0
 35 73  1  0  0  0  0
 35 78  2  0  0  0  0
 36 63  1  0  0  0  0
 36 68  1  0  0  0  0
 36 79  2  0  0  0  0
 37 64  1  0  0  0  0
 37 74  1  0  0  0  0
 37 80  2  0  0  0  0
 38 69  1  0  0  0  0
 38 72  1  0  0  0  0
 38 81  2  0  0  0  0
 39 42  1  0  0  0  0
 40 54  1  0  0  0  0
 41 68  1  0  0  0  0
 42 44  1  0  0  0  0
 43 45  1  0  0  0  0
 43 48  1  0  0  0  0
 44 53  1  0  0  0  0
 45 55  1  0  0  0  0
 46 50  1  0  0  0  0
 46 52  1  0  0  0  0
 47 51  1  0  0  0  0
 47 52  1  0  0  0  0
 48 69  1  0  0  0  0
 49 55  1  0  0  0  0
 49 69  1  0  0  0  0
 50 75  1  0  0  0  0
 51 75  1  0  0  0  0
 53 73  1  0  0  0  0
 54 68  1  0  0  0  0
 55 67  1  0  0  0  0
 56 64  1  0  0  0  0
 57 65  1  0  0  0  0
 58 65  1  0  0  0  0
 59 65  1  0  0  0  0
 60 76  1  0  0  0  0
 61 62  1  0  0  0  0
 61 75  1  0  0  0  0
 62 83  1  0  0  0  0
 63 65  1  0  0  0  0
 63 74  1  0  0  0  0
 64 76  1  0  0  0  0
 66 67  1  0  0  0  0
M  CHG  2  75   1  76   1
M  ISO  4  38 100  62 101  72 100  83 101
M  END
> <Batch ID>
0009

> <Smiles>
CNC(C)C(=O)NC(C(=O)N1Cc2cc([101O:1][101CH2:1]CN3CCC(c4ccc([100NH:0][100C:0](=O)N5CCCC(n6nc(-c7ccc(Oc8ccc(F)cc8F)cc7)c(C(N)=O)c6N)C5)cc4F)CC3)ccc2CC1C(=O)NC1CCCc2ccccc21)C(C)(C)C

> <Shape>
0.258

> <Color>
0.208

> <Negative vol penalty>
0.000

$$$$

  -OEChem-04042320373D

 84 93  0     1  0  0  0  0  0999 V2000
  -25.9947  -35.2420   24.7680 C   0  0  0  0  0  0  0  0  0  0  0  0
  -27.0376  -34.4309   24.3323 C   0  0  0  0  0  0  0  0  0  0  0  0
  -23.7602   -9.7205   22.1753 C   0  0  0  0  0  0  0  0  0  0  0  0
  -23.2354  -12.0270   22.6670 C   0  0  0  0  0  0  0  0  0  0  0  0
  -24.7237  -34.7005   24.9558 C   0  0  0  0  0  0  0  0  0  0  0  0
  -26.8103  -33.0775   24.0852 C   0  0  0  0  0  0  0  0  0  0  0  0
  -28.9462  -27.7492   19.8000 C   0  0  0  0  0  0  0  0  0  0  0  0
  -28.9248  -19.1799   22.1399 C   0  0  0  0  0  0  0  0  0  0  0  0
  -31.2596  -18.5764   22.2859 C   0  0  0  0  0  0  0  0  0  0  0  0
  -28.6547  -17.9773   21.4870 C   0  0  0  0  0  0  0  0  0  0  0  0
  -30.9895  -17.3737   21.6330 C   0  0  0  0  0  0  0  0  0  0  0  0
  -23.0228   -9.3155   23.2879 C   0  0  0  0  0  0  0  0  0  0  0  0
  -22.4980  -11.6220   23.7796 C   0  0  0  0  0  0  0  0  0  0  0  0
  -29.4267  -26.4420   19.8643 C   0  0  0  0  0  0  0  0  0  0  0  0
  -19.7688   -8.8729   24.0930 C   0  0  0  0  0  0  0  0  0  0  0  0
  -18.8976   -7.7950   23.9359 C   0  0  0  0  0  0  0  0  0  0  0  0
  -27.1716  -25.6334   20.1473 C   0  0  0  0  0  0  0  0  0  0  0  0
  -20.1052   -6.5715   25.6336 C   0  0  0  0  0  0  0  0  0  0  0  0
  -23.8665  -11.0763   21.8649 C   0  0  0  0  0  0  0  0  0  0  0  0
  -24.1576  -11.6688   19.4008 C   0  0  0  0  0  0  0  0  0  0  0  0
  -24.4785  -33.3419   24.7017 C   0  0  0  0  0  0  0  0  0  0  0  0
  -27.5736  -28.0097   19.9199 C   0  0  0  0  0  0  0  0  0  0  0  0
  -25.5352  -32.5170   24.2711 C   0  0  0  0  0  0  0  0  0  0  0  0
  -26.6760  -26.9446   20.0816 C   0  0  0  0  0  0  0  0  0  0  0  0
  -30.2273  -19.4795   22.5393 C   0  0  0  0  0  0  0  0  0  0  0  0
  -29.6870  -17.0741   21.2336 C   0  0  0  0  0  0  0  0  0  0  0  0
  -22.3917  -10.2662   24.0900 C   0  0  0  0  0  0  0  0  0  0  0  0
  -28.5397  -25.3841   20.0409 C   0  0  0  0  0  0  0  0  0  0  0  0
  -20.8083   -8.8001   25.0203 C   0  0  0  0  0  0  0  0  0  0  0  0
  -19.0657   -6.6443   24.7062 C   0  0  0  0  0  0  0  0  0  0  0  0
  -20.9764   -7.6495   25.7906 C   0  0  0  0  0  0  0  0  0  0  0  0
  -24.6286  -11.4953   20.7160 C   0  0  0  0  0  0  0  0  0  0  0  0
  -25.2621  -12.0722   18.6910 C   0  0  0  0  0  0  0  0  0  0  0  0
  -29.4144  -22.6977   22.0361 C   0  0  0  0  0  0  0  0  0  0  0  0
  -22.8396  -11.4820   18.8682 C   0  0  0  0  0  0  0  0  0  0  0  0
  -25.7696  -29.6340   21.9720 C   0  0  0  0  0  0  0  0  0  0  0  0
  -23.4127  -28.9268   19.8584 C   0  0  0  0  0  0  0  0  0  0  0  0
  -22.2546  -26.8742   17.3901 C   0  0  0  0  0  0  0  0  0  0  0  0
  -30.3218  -14.8468   20.2424 C   0  0  0  0  0  0  0  0  0  0  0  0
  -23.0990  -32.7916   24.9645 C   0  0  0  0  0  0  0  0  0  0  0  0
  -27.0686  -29.4231   19.8216 C   0  0  0  0  0  0  0  0  0  0  0  0
  -25.1911  -27.1692   20.1954 C   0  0  0  0  0  0  0  0  0  0  0  0
  -22.8540  -31.4292   24.3210 C   0  0  0  0  0  0  0  0  0  0  0  0
  -30.0346  -11.6770   18.6464 C   0  0  0  0  0  0  0  0  0  0  0  0
  -24.0313  -30.4955   24.5832 C   0  0  0  0  0  0  0  0  0  0  0  0
  -28.5713  -11.2893   18.8711 C   0  0  0  0  0  0  0  0  0  0  0  0
  -31.2155  -23.2451   20.5728 C   0  0  0  0  0  0  0  0  0  0  0  0
  -30.6185  -12.4106   19.8525 C   0  0  0  0  0  0  0  0  0  0  0  0
  -31.7267  -22.3467   21.6818 C   0  0  0  0  0  0  0  0  0  0  0  0
  -28.3805  -13.1845   20.5320 C   0  0  0  0  0  0  0  0  0  0  0  0
  -25.3224  -31.0496   23.9687 C   0  0  1  0  0  0  0  0  0  0  0  0
  -29.9140  -23.8090   21.1343 C   0  0  1  0  0  0  0  0  0  1  0  0
  -25.7017  -29.6158   20.4711 C   0  0  1  0  0  0  0  0  0  0  0  0
  -27.7297  -12.5004   19.3187 C   0  0  2  0  0  0  0  0  0  0  0  0
  -20.2792  -26.5272   15.8819 C   0  0  0  0  0  0  0  0  0  0  0  0
  -21.8311  -27.7739   22.1992 C   0  0  0  0  0  0  0  0  0  0  0  0
  -20.3517  -26.6205   20.5410 C   0  0  0  0  0  0  0  0  0  0  0  0
  -20.4729  -29.1118   20.5806 C   0  0  0  0  0  0  0  0  0  0  0  0
  -23.9007  -27.2394   14.9578 C   0  0  0  0  0  0  0  0  0  0  0  0
  -30.5179  -20.7741   23.2420 C   0  0  0  0  0  0  0  0  0  0  0  0
  -22.4346  -27.7894   19.6889 C   0  0  1  0  0  0  0  0  0  0  0  0
  -21.6467  -27.1754   16.0321 C   0  0  2  0  0  0  0  0  0  0  0  0
  -21.3007  -27.8195   20.7523 C   0  0  0  0  0  0  0  0  0  0  0  0
  -25.9308  -11.7662   20.8374 N   0  0  0  0  0  0  0  0  0  0  0  0
  -26.2876  -12.1139   19.5892 N   0  0  0  0  0  0  0  0  0  0  0  0
  -30.5164  -21.8973   22.3301 N   0  0  0  0  0  0  0  0  0  0  0  0
  -24.7469  -28.5696   20.0996 N   0  0  0  0  0  0  0  0  0  0  0  0
  -29.7709  -13.5481   20.2166 N   0  0  0  0  0  0  0  0  0  0  0  0
  -25.4465  -12.3918   17.3924 N   0  0  0  0  0  0  0  0  0  0  0  0
  -21.8213  -11.0645   19.7360 N   0  0  0  0  0  0  0  0  0  0  0  0
  -29.4129  -15.8522   20.5706 N   0  0  0  0  0  0  0  0  0  0  0  0
  -25.3418  -30.8188   22.5402 N   0  0  0  0  0  0  0  0  0  0  0  0
  -21.9628  -27.8589   18.3101 N   0  0  0  0  0  0  0  0  0  0  0  0
  -22.5299  -26.6668   14.9449 N   0  3  0  0  0  0  0  0  0  0  0  0
  -28.2625  -22.5716   22.4231 O   0  0  0  0  0  0  0  0  0  0  0  0
  -22.5764  -11.6636   17.6552 O   0  0  0  0  0  0  0  0  0  0  0  0
  -26.1783  -28.6458   22.5704 O   0  0  0  0  0  0  0  0  0  0  0  0
  -23.0091  -30.0893   19.7727 O   0  0  0  0  0  0  0  0  0  0  0  0
  -22.9186  -25.8643   17.6135 O   0  0  0  0  0  0  0  0  0  0  0  0
  -31.5058  -15.0551   19.9653 O   0  0  0  0  0  0  0  0  0  0  0  0
  -21.6719   -9.8714   25.1756 O   0  0  0  0  0  0  0  0  0  0  0  0
  -29.0061  -24.1073   20.1048 O   0  0  0  0  0  0  0  0  0  1  0  0
  -18.2281   -5.6099   24.5564 F   0  0  0  0  0  0  0  0  0  0  0  0
  -21.9725   -7.5742   26.6839 F   0  0  0  0  0  0  0  0  0  0  0  0
  1  2  1  0  0  0  0
  1  5  2  0  0  0  0
  2  6  2  0  0  0  0
  3 12  2  0  0  0  0
  3 19  1  0  0  0  0
  4 13  1  0  0  0  0
  4 19  2  0  0  0  0
  5 21  1  0  0  0  0
  6 23  1  0  0  0  0
  7 14  2  0  0  0  0
  7 22  1  0  0  0  0
  8 10  2  0  0  0  0
  8 25  1  0  0  0  0
  9 11  1  0  0  0  0
  9 25  2  0  0  0  0
 10 26  1  0  0  0  0
 11 26  2  0  0  0  0
 12 27  1  0  0  0  0
 13 27  2  0  0  0  0
 14 28  1  0  0  0  0
 15 16  2  0  0  0  0
 15 29  1  0  0  0  0
 16 30  1  0  0  0  0
 17 24  1  0  0  0  0
 17 28  2  0  0  0  0
 18 30  2  0  0  0  0
 18 31  1  0  0  0  0
 19 32  1  0  0  0  0
 20 32  1  0  0  0  0
 20 33  2  0  0  0  0
 20 35  1  0  0  0  0
 21 23  2  0  0  0  0
 21 40  1  0  0  0  0
 22 24  2  0  0  0  0
 22 41  1  0  0  0  0
 23 51  1  0  0  0  0
 24 42  1  0  0  0  0
 25 60  1  0  0  0  0
 26 71  1  0  0  0  0
 27 81  1  0  0  0  0
 28 82  1  0  0  0  0
 29 31  2  0  0  0  0
 29 81  1  0  0  0  0
 30 83  1  0  0  0  0
 31 84  1  0  0  0  0
 32 64  2  0  0  0  0
 33 65  1  0  0  0  0
 33 69  1  0  0  0  0
 34 52  1  0  0  0  0
 34 66  1  0  0  0  0
 34 75  2  0  0  0  0
 35 70  1  0  0  0  0
 35 76  2  0  0  0  0
 36 53  1  0  0  0  0
 36 72  1  0  0  0  0
 36 77  2  0  0  0  0
 37 61  1  0  0  0  0
 37 67  1  0  0  0  0
 37 78  2  0  0  0  0
 38 62  1  0  0  0  0
 38 73  1  0  0  0  0
 38 79  2  0  0  0  0
 39 68  1  0  0  0  0
 39 71  1  0  0  0  0
 39 80  2  0  0  0  0
 40 43  1  0  0  0  0
 41 53  1  0  0  0  0
 42 67  1  0  0  0  0
 43 45  1  0  0  0  0
 44 46  1  0  0  0  0
 44 48  1  0  0  0  0
 45 51  1  0  0  0  0
 46 54  1  0  0  0  0
 47 49  1  0  0  0  0
 47 52  1  0  0  0  0
 48 68  1  0  0  0  0
 49 66  1  0  0  0  0
 50 54  1  0  0  0  0
 50 68  1  0  0  0  0
 51 72  1  0  0  0  0
 52 82  1  0  0  0  0
 53 67  1  0  0  0  0
 54 65  1  0  0  0  0
 55 62  1  0  0  0  0
 56 63  1  0  0  0  0
 57 63  1  0  0  0  0
 58 63  1  0  0  0  0
 59 74  1  0  0  0  0
 60 66  1  0  0  0  0
 61 63  1  0  0  0  0
 61 73  1  0  0  0  0
 62 74  1  0  0  0  0
 64 65  1  0  0  0  0
M  CHG  1  74   1
M  ISO  4  39 100  52 101  71 100  82 101
M  END
> <Batch ID>
0009

> <Smiles>
CNC(C)C(=O)NC(C(=O)N1Cc2cc([101O:1][101CH:1]3CCN(Cc4ccc([100NH:0][100C:0](=O)N5CCCC(n6nc(-c7ccc(Oc8ccc(F)cc8F)cc7)c(C(N)=O)c6N)C5)cc4)C3=O)ccc2CC1C(=O)NC1CCCc2ccccc21)C(C)(C)C

> <Shape>
0.282

> <Color>
0.075

> <Negative vol penalty>
0.000

$$$$

  -OEChem-04042320373D

 80 89  0     1  0  0  0  0  0999 V2000
  -20.0036  -26.3833   26.4209 C   0  0  0  0  0  0  0  0  0  0  0  0
  -21.2924  -26.2194   25.9232 C   0  0  0  0  0  0  0  0  0  0  0  0
  -25.9316  -13.9202   22.0835 C   0  0  0  0  0  0  0  0  0  0  0  0
  -24.5530  -15.4485   20.8182 C   0  0  0  0  0  0  0  0  0  0  0  0
  -18.9718  -26.7705   25.5669 C   0  0  0  0  0  0  0  0  0  0  0  0
  -21.5498  -26.4416   24.5708 C   0  0  0  0  0  0  0  0  0  0  0  0
  -26.6604  -28.7725   22.1306 C   0  0  0  0  0  0  0  0  0  0  0  0
  -24.8725  -13.0146   22.1438 C   0  0  0  0  0  0  0  0  0  0  0  0
  -23.4938  -14.5428   20.8785 C   0  0  0  0  0  0  0  0  0  0  0  0
  -27.7721  -28.1772   21.5361 C   0  0  0  0  0  0  0  0  0  0  0  0
  -22.6458  -10.1466   22.3209 C   0  0  0  0  0  0  0  0  0  0  0  0
  -22.9249   -8.8042   22.0648 C   0  0  0  0  0  0  0  0  0  0  0  0
  -26.7899  -28.5295   19.3611 C   0  0  0  0  0  0  0  0  0  0  0  0
  -23.7064   -9.3883   19.8546 C   0  0  0  0  0  0  0  0  0  0  0  0
  -25.7719  -15.1372   21.4207 C   0  0  0  0  0  0  0  0  0  0  0  0
  -27.8619  -16.1519   20.3673 C   0  0  0  0  0  0  0  0  0  0  0  0
  -19.2187  -27.0070   24.2053 C   0  0  0  0  0  0  0  0  0  0  0  0
  -25.5984  -29.2418   21.3442 C   0  0  0  0  0  0  0  0  0  0  0  0
  -20.5201  -26.8310   23.6975 C   0  0  0  0  0  0  0  0  0  0  0  0
  -25.6671  -29.1327   19.9480 C   0  0  0  0  0  0  0  0  0  0  0  0
  -23.6536  -13.3259   21.5413 C   0  0  0  0  0  0  0  0  0  0  0  0
  -27.8357  -28.0530   20.1513 C   0  0  0  0  0  0  0  0  0  0  0  0
  -22.8968  -11.1099   21.3437 C   0  0  0  0  0  0  0  0  0  0  0  0
  -23.4553   -8.4250   20.8317 C   0  0  0  0  0  0  0  0  0  0  0  0
  -23.4272  -10.7308   20.1106 C   0  0  0  0  0  0  0  0  0  0  0  0
  -26.8654  -16.0733   21.3586 C   0  0  0  0  0  0  0  0  0  0  0  0
  -28.6580  -17.1989   20.7629 C   0  0  0  0  0  0  0  0  0  0  0  0
  -28.0510  -15.3501   19.1938 C   0  0  0  0  0  0  0  0  0  0  0  0
  -29.1414  -22.4193   22.7131 C   0  0  0  0  0  0  0  0  0  0  0  0
  -22.5107  -28.5310   21.0898 C   0  0  0  0  0  0  0  0  0  0  0  0
  -22.4899  -31.0771   19.0800 C   0  0  0  0  0  0  0  0  0  0  0  0
  -24.2348  -33.1259   16.9813 C   0  0  0  0  0  0  0  0  0  0  0  0
  -18.0619  -27.3781   23.3116 C   0  0  0  0  0  0  0  0  0  0  0  0
  -24.4184  -29.9057   21.9993 C   0  0  0  0  0  0  0  0  0  0  0  0
  -24.5626  -29.6387   19.0577 C   0  0  0  0  0  0  0  0  0  0  0  0
  -18.4928  -27.9572   21.9665 C   0  0  0  0  0  0  0  0  0  0  0  0
  -28.8102  -19.7726   25.1058 C   0  0  0  0  0  0  0  0  0  0  0  0
  -19.5977  -27.1064   21.3483 C   0  0  0  0  0  0  0  0  0  0  0  0
  -28.3276  -18.5893   24.2678 C   0  0  0  0  0  0  0  0  0  0  0  0
  -30.6381  -22.7264   18.4949 C   0  0  0  0  0  0  0  0  0  0  0  0
  -29.1311  -22.6362   18.2288 C   0  0  0  0  0  0  0  0  0  0  0  0
  -30.6889  -23.3033   20.9804 C   0  0  0  0  0  0  0  0  0  0  0  0
  -28.1683  -23.1524   20.5349 C   0  0  0  0  0  0  0  0  0  0  0  0
  -28.2383  -21.0904   24.5927 C   0  0  0  0  0  0  0  0  0  0  0  0
  -28.0302  -20.1673   22.3066 C   0  0  0  0  0  0  0  0  0  0  0  0
  -20.8439  -27.0867   22.2416 C   0  0  1  0  0  0  0  0  0  0  0  0
  -29.3877  -22.5217   21.2289 C   0  0  0  0  0  0  0  0  0  0  0  0
  -23.1632  -29.8838   21.1324 C   0  0  1  0  0  0  0  0  0  0  0  0
  -28.6092  -18.8197   22.7725 C   0  0  2  0  0  0  0  0  0  0  0  0
  -30.8067  -23.8291   19.5415 C   0  0  2  0  0  0  0  0  0  0  0  0
  -28.4891  -23.6906   19.1322 C   0  0  1  0  0  0  0  0  0  0  0  0
  -23.9384  -35.0941   15.4531 C   0  0  0  0  0  0  0  0  0  0  0  0
  -21.2072  -29.2594   16.9918 C   0  0  0  0  0  0  0  0  0  0  0  0
  -21.8047  -30.9556   15.2498 C   0  0  0  0  0  0  0  0  0  0  0  0
  -20.2457  -31.5656   17.0993 C   0  0  0  0  0  0  0  0  0  0  0  0
  -26.1091  -34.7831   18.5623 C   0  0  0  0  0  0  0  0  0  0  0  0
  -29.7370  -25.6872   18.1793 C   0  0  0  0  0  0  0  0  0  0  0  0
  -28.7039  -26.7855   18.3359 C   0  0  0  0  0  0  0  0  0  1  0  0
  -22.7067  -31.2717   17.5988 C   0  0  1  0  0  0  0  0  0  0  0  0
  -24.2853  -34.6384   16.8619 C   0  0  2  0  0  0  0  0  0  0  0  0
  -21.5112  -30.7517   16.7515 C   0  0  0  0  0  0  0  0  0  0  0  0
  -27.0129  -16.9968   22.3123 N   0  0  0  0  0  0  0  0  0  0  0  0
  -28.1114  -17.6654   21.9221 N   0  0  0  0  0  0  0  0  0  0  0  0
  -28.5072  -21.2614   23.1638 N   0  0  0  0  0  0  0  0  0  0  0  0
  -23.4269  -30.2745   19.7460 N   0  0  0  0  0  0  0  0  0  0  0  0
  -29.7653  -17.7567   20.2288 N   0  0  0  0  0  0  0  0  0  0  0  0
  -27.1408  -14.3156   18.9376 N   0  0  0  0  0  0  0  0  0  0  0  0
  -21.5889  -28.3190   22.0971 N   0  0  0  0  0  0  0  0  0  0  0  0
  -23.0000  -32.6885   17.4118 N   0  0  0  0  0  0  0  0  0  0  0  0
  -29.5974  -24.7202   19.2972 N   0  3  0  0  0  0  0  0  0  0  0  0
  -25.6487  -35.1391   17.1954 N   0  3  0  0  0  0  0  0  0  0  0  0
  -29.0086  -15.5348   18.4047 O   0  0  0  0  0  0  0  0  0  0  0  0
  -29.5052  -23.3406   23.4487 O   0  0  0  0  0  0  0  0  0  0  0  0
  -22.8197  -27.7387   20.2074 O   0  0  0  0  0  0  0  0  0  0  0  0
  -21.5287  -31.6231   19.6274 O   0  0  0  0  0  0  0  0  0  0  0  0
  -25.1935  -32.4043   16.7155 O   0  0  0  0  0  0  0  0  0  0  0  0
  -22.6199  -12.4424   21.5998 O   0  0  0  0  0  0  0  0  0  0  0  0
  -28.9193  -27.4717   19.5684 O   0  0  0  0  0  0  0  0  0  1  0  0
  -23.7247   -7.1361   20.5865 F   0  0  0  0  0  0  0  0  0  0  0  0
  -23.6717  -11.6518   19.1684 F   0  0  0  0  0  0  0  0  0  0  0  0
  1  2  1  0  0  0  0
  1  5  2  0  0  0  0
  2  6  2  0  0  0  0
  3  8  2  0  0  0  0
  3 15  1  0  0  0  0
  4  9  1  0  0  0  0
  4 15  2  0  0  0  0
  5 17  1  0  0  0  0
  6 19  1  0  0  0  0
  7 10  2  0  0  0  0
  7 18  1  0  0  0  0
  8 21  1  0  0  0  0
  9 21  2  0  0  0  0
 10 22  1  0  0  0  0
 11 12  2  0  0  0  0
 11 23  1  0  0  0  0
 12 24  1  0  0  0  0
 13 20  1  0  0  0  0
 13 22  2  0  0  0  0
 14 24  2  0  0  0  0
 14 25  1  0  0  0  0
 15 26  1  0  0  0  0
 16 26  1  0  0  0  0
 16 27  2  0  0  0  0
 16 28  1  0  0  0  0
 17 19  2  0  0  0  0
 17 33  1  0  0  0  0
 18 20  2  0  0  0  0
 18 34  1  0  0  0  0
 19 46  1  0  0  0  0
 20 35  1  0  0  0  0
 21 77  1  0  0  0  0
 22 78  1  0  0  0  0
 23 25  2  0  0  0  0
 23 77  1  0  0  0  0
 24 79  1  0  0  0  0
 25 80  1  0  0  0  0
 26 62  2  0  0  0  0
 27 63  1  0  0  0  0
 27 66  1  0  0  0  0
 28 67  1  0  0  0  0
 28 72  2  0  0  0  0
 29 47  1  0  0  0  0
 29 64  1  0  0  0  0
 29 73  2  0  0  0  0
 30 48  1  0  0  0  0
 30 68  1  0  0  0  0
 30 74  2  0  0  0  0
 31 59  1  0  0  0  0
 31 65  1  0  0  0  0
 31 75  2  0  0  0  0
 32 60  1  0  0  0  0
 32 69  1  0  0  0  0
 32 76  2  0  0  0  0
 33 36  1  0  0  0  0
 34 48  1  0  0  0  0
 35 65  1  0  0  0  0
 36 38  1  0  0  0  0
 37 39  1  0  0  0  0
 37 44  1  0  0  0  0
 38 46  1  0  0  0  0
 39 49  1  0  0  0  0
 40 41  1  0  0  0  0
 40 50  1  0  0  0  0
 41 51  1  0  0  0  0
 42 47  1  0  0  0  0
 42 50  1  0  0  0  0
 43 47  1  0  0  0  0
 43 51  1  0  0  0  0
 44 64  1  0  0  0  0
 45 49  1  0  0  0  0
 45 64  1  0  0  0  0
 46 68  1  0  0  0  0
 48 65  1  0  0  0  0
 49 63  1  0  0  0  0
 50 70  1  0  0  0  0
 51 70  1  0  0  0  0
 52 60  1  0  0  0  0
 53 61  1  0  0  0  0
 54 61  1  0  0  0  0
 55 61  1  0  0  0  0
 56 71  1  0  0  0  0
 57 58  1  0  0  0  0
 57 70  1  0  0  0  0
 58 78  1  0  0  0  0
 59 61  1  0  0  0  0
 59 69  1  0  0  0  0
 60 71  1  0  0  0  0
 62 63  1  0  0  0  0
M  CHG  2  70   1  71   1
M  ISO  4  29 100  47 100  58 101  78 101
M  END
> <Batch ID>
0009

> <Smiles>
CNC(C)C(=O)NC(C(=O)N1Cc2cc([101O:1][101CH2:1]CN3C4CCC3C[100CH:0]([100C:0](=O)N3CCCC(n5nc(-c6ccc(Oc7ccc(F)cc7F)cc6)c(C(N)=O)c5N)C3)C4)ccc2CC1C(=O)NC1CCCc2ccccc21)C(C)(C)C

> <Shape>
0.245

> <Color>
0.070

> <Negative vol penalty>
0.000

$$$$

  -OEChem-04042320373D

 84 93  0     1  0  0  0  0  0999 V2000
  -27.9049  -11.9697   17.7173 C   0  0  0  0  0  0  0  0  0  0  0  0
  -27.3472  -13.1672   17.2808 C   0  0  0  0  0  0  0  0  0  0  0  0
  -18.3863  -28.5828   23.9729 C   0  0  0  0  0  0  0  0  0  0  0  0
  -29.1700  -25.7850   20.7211 C   0  0  0  0  0  0  0  0  0  0  0  0
  -27.1995  -24.4127   20.4553 C   0  0  0  0  0  0  0  0  0  0  0  0
  -27.4549  -11.3824   18.8990 C   0  0  0  0  0  0  0  0  0  0  0  0
  -26.3383  -13.7774   18.0252 C   0  0  0  0  0  0  0  0  0  0  0  0
  -23.8090  -20.2551   19.7450 C   0  0  0  0  0  0  0  0  0  0  0  0
  -17.8873  -27.4020   23.4231 C   0  0  0  0  0  0  0  0  0  0  0  0
  -19.5636  -29.1411   23.4750 C   0  0  0  0  0  0  0  0  0  0  0  0
  -29.8689  -24.6853   21.2188 C   0  0  0  0  0  0  0  0  0  0  0  0
  -27.8984  -23.3128   20.9529 C   0  0  0  0  0  0  0  0  0  0  0  0
  -22.6190  -20.9815   19.7452 C   0  0  0  0  0  0  0  0  0  0  0  0
  -30.1578  -21.0746   19.8103 C   0  0  0  0  0  0  0  0  0  0  0  0
  -30.0226  -19.8624   19.1336 C   0  0  0  0  0  0  0  0  0  0  0  0
  -21.9763  -19.9162   21.8120 C   0  0  0  0  0  0  0  0  0  0  0  0
  -19.7432  -27.3375   21.8776 C   0  0  0  0  0  0  0  0  0  0  0  0
  -29.1330  -18.8439   21.1356 C   0  0  0  0  0  0  0  0  0  0  0  0
  -27.8353  -25.6488   20.3394 C   0  0  0  0  0  0  0  0  0  0  0  0
  -27.0111  -27.1905   18.4816 C   0  0  0  0  0  0  0  0  0  0  0  0
  -26.4467  -11.9906   19.6633 C   0  0  0  0  0  0  0  0  0  0  0  0
  -24.0872  -19.3443   20.7742 C   0  0  0  0  0  0  0  0  0  0  0  0
  -25.8734  -13.1969   19.2175 C   0  0  0  0  0  0  0  0  0  0  0  0
  -23.1717  -19.1814   21.8238 C   0  0  0  0  0  0  0  0  0  0  0  0
  -18.5658  -26.7793   22.3755 C   0  0  0  0  0  0  0  0  0  0  0  0
  -20.2421  -28.5184   22.4273 C   0  0  0  0  0  0  0  0  0  0  0  0
  -29.2331  -23.4492   21.3347 C   0  0  0  0  0  0  0  0  0  0  0  0
  -21.7011  -20.8100   20.7773 C   0  0  0  0  0  0  0  0  0  0  0  0
  -29.7807  -21.1714   21.1498 C   0  0  0  0  0  0  0  0  0  0  0  0
  -29.5102  -18.7471   19.7962 C   0  0  0  0  0  0  0  0  0  0  0  0
  -29.2682  -20.0561   21.8124 C   0  0  0  0  0  0  0  0  0  0  0  0
  -27.1127  -26.7846   19.8257 C   0  0  0  0  0  0  0  0  0  0  0  0
  -26.2222  -28.3141   18.5209 C   0  0  0  0  0  0  0  0  0  0  0  0
  -19.5455  -23.7296   20.8316 C   0  0  0  0  0  0  0  0  0  0  0  0
  -27.5790  -26.6042   17.3028 C   0  0  0  0  0  0  0  0  0  0  0  0
  -24.5737  -16.2066   20.9221 C   0  0  0  0  0  0  0  0  0  0  0  0
  -25.2576  -16.8522   24.0265 C   0  0  0  0  0  0  0  0  0  0  0  0
  -24.8728  -18.9298   26.7065 C   0  0  0  0  0  0  0  0  0  0  0  0
  -22.0676  -30.2528   22.3531 C   0  0  0  0  0  0  0  0  0  0  0  0
  -25.9600  -11.2938   20.9092 C   0  0  0  0  0  0  0  0  0  0  0  0
  -25.3874  -18.5881   20.7734 C   0  0  0  0  0  0  0  0  0  0  0  0
  -23.4320  -18.2310   22.9628 C   0  0  0  0  0  0  0  0  0  0  0  0
  -25.1486  -12.1968   21.8347 C   0  0  0  0  0  0  0  0  0  0  0  0
  -25.0398  -31.9609   21.3910 C   0  0  0  0  0  0  0  0  0  0  0  0
  -24.1161  -12.9880   21.0380 C   0  0  0  0  0  0  0  0  0  0  0  0
  -25.8969  -30.8655   20.7526 C   0  0  0  0  0  0  0  0  0  0  0  0
  -20.0906  -22.6325   22.8771 C   0  0  0  0  0  0  0  0  0  0  0  0
  -24.2416  -31.4344   22.5824 C   0  0  0  0  0  0  0  0  0  0  0  0
  -19.4730  -23.9830   23.1824 C   0  0  0  0  0  0  0  0  0  0  0  0
  -24.2867  -29.1468   21.6691 C   0  0  0  0  0  0  0  0  0  0  0  0
  -24.7944  -13.9020   20.0104 C   0  0  1  0  0  0  0  0  0  0  0  0
  -20.5494  -22.7632   21.4282 C   0  0  1  0  0  0  0  0  0  1  0  0
  -25.3351  -17.3087   21.6027 C   0  0  1  0  0  0  0  0  0  0  0  0
  -25.0594  -29.6138   20.4248 C   0  0  2  0  0  0  0  0  0  0  0  0
  -25.2317  -19.8405   29.0171 C   0  0  0  0  0  0  0  0  0  0  0  0
  -23.2060  -14.7268   24.7903 C   0  0  0  0  0  0  0  0  0  0  0  0
  -23.2000  -15.6661   27.1110 C   0  0  0  0  0  0  0  0  0  0  0  0
  -25.2959  -14.7005   26.1636 C   0  0  0  0  0  0  0  0  0  0  0  0
  -27.1604  -20.5870   25.8236 C   0  0  0  0  0  0  0  0  0  0  0  0
  -18.0284  -25.5083   21.7841 C   0  0  0  0  0  0  0  0  0  0  0  0
  -24.4575  -16.9257   25.3046 C   0  0  1  0  0  0  0  0  0  0  0  0
  -25.8797  -19.5145   27.6805 C   0  0  2  0  0  0  0  0  0  0  0  0
  -24.0338  -15.5213   25.8201 C   0  0  0  0  0  0  0  0  0  0  0  0
  -26.4421  -27.5853   20.6583 N   0  0  0  0  0  0  0  0  0  0  0  0
  -25.9116  -28.5057   19.8351 N   0  0  0  0  0  0  0  0  0  0  0  0
  -18.9709  -24.4167   21.8990 N   0  0  0  0  0  0  0  0  0  0  0  0
  -24.7146  -17.5099   22.9137 N   0  0  0  0  0  0  0  0  0  0  0  0
  -23.4698  -30.2513   22.1960 N   0  0  0  0  0  0  0  0  0  0  0  0
  -25.7709  -29.1471   17.5593 N   0  0  0  0  0  0  0  0  0  0  0  0
  -28.3640  -25.4515   17.4417 N   0  0  0  0  0  0  0  0  0  0  0  0
  -21.4377  -29.0861   21.9213 N   0  0  0  0  0  0  0  0  0  0  0  0
  -25.3297  -15.0805   20.6577 N   0  0  0  0  0  0  0  0  0  0  0  0
  -25.2656  -17.6899   26.2487 N   0  0  0  0  0  0  0  0  0  0  0  0
  -26.4698  -20.7659   27.1266 N   0  3  0  0  0  0  0  0  0  0  0  0
  -19.3233  -23.8636   19.6378 O   0  0  0  0  0  0  0  0  0  0  0  0
  -27.4092  -27.0976   16.1621 O   0  0  0  0  0  0  0  0  0  0  0  0
  -23.3877  -16.3655   20.6577 O   0  0  0  0  0  0  0  0  0  0  0  0
  -26.3285  -16.2401   24.0178 O   0  0  0  0  0  0  0  0  0  0  0  0
  -23.8392  -19.5130   26.3868 O   0  0  0  0  0  0  0  0  0  0  0  0
  -21.4669  -31.2288   22.8100 O   0  0  0  0  0  0  0  0  0  0  0  0
  -29.9148  -22.3757   21.8200 O   0  0  0  0  0  0  0  0  0  0  0  0
  -20.5385  -21.5172   20.7797 O   0  0  0  0  0  0  0  0  0  1  0  0
  -29.3790  -17.5835   19.1458 F   0  0  0  0  0  0  0  0  0  0  0  0
  -28.9031  -20.1433   23.0988 F   0  0  0  0  0  0  0  0  0  0  0  0
  1  2  1  0  0  0  0
  1  6  2  0  0  0  0
  2  7  2  0  0  0  0
  3  9  2  0  0  0  0
  3 10  1  0  0  0  0
  4 11  2  0  0  0  0
  4 19  1  0  0  0  0
  5 12  1  0  0  0  0
  5 19  2  0  0  0  0
  6 21  1  0  0  0  0
  7 23  1  0  0  0  0
  8 13  2  0  0  0  0
  8 22  1  0  0  0  0
  9 25  1  0  0  0  0
 10 26  2  0  0  0  0
 11 27  1  0  0  0  0
 12 27  2  0  0  0  0
 13 28  1  0  0  0  0
 14 15  2  0  0  0  0
 14 29  1  0  0  0  0
 15 30  1  0  0  0  0
 16 24  1  0  0  0  0
 16 28  2  0  0  0  0
 17 25  2  0  0  0  0
 17 26  1  0  0  0  0
 18 30  2  0  0  0  0
 18 31  1  0  0  0  0
 19 32  1  0  0  0  0
 20 32  1  0  0  0  0
 20 33  2  0  0  0  0
 20 35  1  0  0  0  0
 21 23  2  0  0  0  0
 21 40  1  0  0  0  0
 22 24  2  0  0  0  0
 22 41  1  0  0  0  0
 23 51  1  0  0  0  0
 24 42  1  0  0  0  0
 25 60  1  0  0  0  0
 26 71  1  0  0  0  0
 27 81  1  0  0  0  0
 28 82  1  0  0  0  0
 29 31  2  0  0  0  0
 29 81  1  0  0  0  0
 30 83  1  0  0  0  0
 31 84  1  0  0  0  0
 32 64  2  0  0  0  0
 33 65  1  0  0  0  0
 33 69  1  0  0  0  0
 34 52  1  0  0  0  0
 34 66  1  0  0  0  0
 34 75  2  0  0  0  0
 35 70  1  0  0  0  0
 35 76  2  0  0  0  0
 36 53  1  0  0  0  0
 36 72  1  0  0  0  0
 36 77  2  0  0  0  0
 37 61  1  0  0  0  0
 37 67  1  0  0  0  0
 37 78  2  0  0  0  0
 38 62  1  0  0  0  0
 38 73  1  0  0  0  0
 38 79  2  0  0  0  0
 39 68  1  0  0  0  0
 39 71  1  0  0  0  0
 39 80  2  0  0  0  0
 40 43  1  0  0  0  0
 41 53  1  0  0  0  0
 42 67  1  0  0  0  0
 43 45  1  0  0  0  0
 44 46  1  0  0  0  0
 44 48  1  0  0  0  0
 45 51  1  0  0  0  0
 46 54  1  0  0  0  0
 47 49  1  0  0  0  0
 47 52  1  0  0  0  0
 48 68  1  0  0  0  0
 49 66  1  0  0  0  0
 50 54  1  0  0  0  0
 50 68  1  0  0  0  0
 51 72  1  0  0  0  0
 52 82  1  0  0  0  0
 53 67  1  0  0  0  0
 54 65  1  0  0  0  0
 55 62  1  0  0  0  0
 56 63  1  0  0  0  0
 57 63  1  0  0  0  0
 58 63  1  0  0  0  0
 59 74  1  0  0  0  0
 60 66  1  0  0  0  0
 61 63  1  0  0  0  0
 61 73  1  0  0  0  0
 62 74  1  0  0  0  0
 64 65  1  0  0  0  0
M  CHG  1  74   1
M  ISO  4  39 100  52 101  71 100  82 101
M  END
> <Batch ID>
0009

> <Smiles>
CNC(C)C(=O)NC(C(=O)N1Cc2cc([101O:1][101CH:1]3CCN(Cc4cccc([100NH:0][100C:0](=O)N5CCCC(n6nc(-c7ccc(Oc8ccc(F)cc8F)cc7)c(C(N)=O)c6N)C5)c4)C3=O)ccc2CC1C(=O)NC1CCCc2ccccc21)C(C)(C)C

> <Shape>
0.218

> <Color>
0.086

> <Negative vol penalty>
0.000

$$$$

  -OEChem-04042320373D

 84 93  0     1  0  0  0  0  0999 V2000
  -25.9947  -35.2420   24.7680 C   0  0  0  0  0  0  0  0  0  0  0  0
  -27.0376  -34.4309   24.3323 C   0  0  0  0  0  0  0  0  0  0  0  0
  -23.7602   -9.7205   22.1753 C   0  0  0  0  0  0  0  0  0  0  0  0
  -23.2354  -12.0270   22.6670 C   0  0  0  0  0  0  0  0  0  0  0  0
  -24.7237  -34.7005   24.9558 C   0  0  0  0  0  0  0  0  0  0  0  0
  -26.8103  -33.0775   24.0852 C   0  0  0  0  0  0  0  0  0  0  0  0
  -28.9462  -27.7492   19.8000 C   0  0  0  0  0  0  0  0  0  0  0  0
  -28.9248  -19.1799   22.1399 C   0  0  0  0  0  0  0  0  0  0  0  0
  -31.2596  -18.5764   22.2859 C   0  0  0  0  0  0  0  0  0  0  0  0
  -28.6547  -17.9773   21.4870 C   0  0  0  0  0  0  0  0  0  0  0  0
  -30.9895  -17.3737   21.6330 C   0  0  0  0  0  0  0  0  0  0  0  0
  -23.0228   -9.3155   23.2879 C   0  0  0  0  0  0  0  0  0  0  0  0
  -22.4980  -11.6220   23.7796 C   0  0  0  0  0  0  0  0  0  0  0  0
  -29.4267  -26.4420   19.8643 C   0  0  0  0  0  0  0  0  0  0  0  0
  -19.7688   -8.8729   24.0930 C   0  0  0  0  0  0  0  0  0  0  0  0
  -18.8976   -7.7950   23.9359 C   0  0  0  0  0  0  0  0  0  0  0  0
  -27.1716  -25.6334   20.1473 C   0  0  0  0  0  0  0  0  0  0  0  0
  -20.1052   -6.5715   25.6336 C   0  0  0  0  0  0  0  0  0  0  0  0
  -23.8665  -11.0763   21.8649 C   0  0  0  0  0  0  0  0  0  0  0  0
  -24.1576  -11.6688   19.4008 C   0  0  0  0  0  0  0  0  0  0  0  0
  -24.4785  -33.3419   24.7017 C   0  0  0  0  0  0  0  0  0  0  0  0
  -27.5736  -28.0097   19.9199 C   0  0  0  0  0  0  0  0  0  0  0  0
  -25.5352  -32.5170   24.2711 C   0  0  0  0  0  0  0  0  0  0  0  0
  -26.6760  -26.9446   20.0816 C   0  0  0  0  0  0  0  0  0  0  0  0
  -30.2273  -19.4795   22.5393 C   0  0  0  0  0  0  0  0  0  0  0  0
  -29.6870  -17.0741   21.2336 C   0  0  0  0  0  0  0  0  0  0  0  0
  -22.3917  -10.2662   24.0900 C   0  0  0  0  0  0  0  0  0  0  0  0
  -28.5397  -25.3841   20.0409 C   0  0  0  0  0  0  0  0  0  0  0  0
  -20.8083   -8.8001   25.0203 C   0  0  0  0  0  0  0  0  0  0  0  0
  -19.0657   -6.6443   24.7062 C   0  0  0  0  0  0  0  0  0  0  0  0
  -20.9764   -7.6495   25.7906 C   0  0  0  0  0  0  0  0  0  0  0  0
  -24.6286  -11.4953   20.7160 C   0  0  0  0  0  0  0  0  0  0  0  0
  -25.2621  -12.0722   18.6910 C   0  0  0  0  0  0  0  0  0  0  0  0
  -29.4144  -22.6977   22.0361 C   0  0  0  0  0  0  0  0  0  0  0  0
  -22.8396  -11.4820   18.8682 C   0  0  0  0  0  0  0  0  0  0  0  0
  -25.7696  -29.6340   21.9720 C   0  0  0  0  0  0  0  0  0  0  0  0
  -23.4127  -28.9268   19.8584 C   0  0  0  0  0  0  0  0  0  0  0  0
  -22.2546  -26.8742   17.3901 C   0  0  0  0  0  0  0  0  0  0  0  0
  -30.3218  -14.8468   20.2424 C   0  0  0  0  0  0  0  0  0  0  0  0
  -23.0990  -32.7916   24.9645 C   0  0  0  0  0  0  0  0  0  0  0  0
  -27.0686  -29.4231   19.8216 C   0  0  0  0  0  0  0  0  0  0  0  0
  -25.1911  -27.1692   20.1954 C   0  0  0  0  0  0  0  0  0  0  0  0
  -22.8540  -31.4292   24.3210 C   0  0  0  0  0  0  0  0  0  0  0  0
  -30.0346  -11.6770   18.6464 C   0  0  0  0  0  0  0  0  0  0  0  0
  -24.0313  -30.4955   24.5832 C   0  0  0  0  0  0  0  0  0  0  0  0
  -28.5713  -11.2893   18.8711 C   0  0  0  0  0  0  0  0  0  0  0  0
  -31.2155  -23.2451   20.5728 C   0  0  0  0  0  0  0  0  0  0  0  0
  -30.6185  -12.4106   19.8525 C   0  0  0  0  0  0  0  0  0  0  0  0
  -31.7267  -22.3467   21.6818 C   0  0  0  0  0  0  0  0  0  0  0  0
  -28.3805  -13.1845   20.5320 C   0  0  0  0  0  0  0  0  0  0  0  0
  -25.3224  -31.0496   23.9687 C   0  0  1  0  0  0  0  0  0  0  0  0
  -29.9140  -23.8090   21.1343 C   0  0  1  0  0  0  0  0  0  1  0  0
  -25.7017  -29.6158   20.4711 C   0  0  1  0  0  0  0  0  0  0  0  0
  -27.7297  -12.5004   19.3187 C   0  0  2  0  0  0  0  0  0  0  0  0
  -20.2792  -26.5272   15.8819 C   0  0  0  0  0  0  0  0  0  0  0  0
  -21.8311  -27.7739   22.1992 C   0  0  0  0  0  0  0  0  0  0  0  0
  -20.3517  -26.6205   20.5410 C   0  0  0  0  0  0  0  0  0  0  0  0
  -20.4729  -29.1118   20.5806 C   0  0  0  0  0  0  0  0  0  0  0  0
  -23.9007  -27.2394   14.9578 C   0  0  0  0  0  0  0  0  0  0  0  0
  -30.5179  -20.7741   23.2420 C   0  0  0  0  0  0  0  0  0  0  0  0
  -22.4346  -27.7894   19.6889 C   0  0  1  0  0  0  0  0  0  0  0  0
  -21.6467  -27.1754   16.0321 C   0  0  2  0  0  0  0  0  0  0  0  0
  -21.3007  -27.8195   20.7523 C   0  0  0  0  0  0  0  0  0  0  0  0
  -25.9308  -11.7662   20.8374 N   0  0  0  0  0  0  0  0  0  0  0  0
  -26.2876  -12.1139   19.5892 N   0  0  0  0  0  0  0  0  0  0  0  0
  -30.5164  -21.8973   22.3301 N   0  0  0  0  0  0  0  0  0  0  0  0
  -24.7469  -28.5696   20.0996 N   0  0  0  0  0  0  0  0  0  0  0  0
  -29.7709  -13.5481   20.2166 N   0  0  0  0  0  0  0  0  0  0  0  0
  -25.4465  -12.3918   17.3924 N   0  0  0  0  0  0  0  0  0  0  0  0
  -21.8213  -11.0645   19.7360 N   0  0  0  0  0  0  0  0  0  0  0  0
  -29.4129  -15.8522   20.5706 N   0  0  0  0  0  0  0  0  0  0  0  0
  -25.3418  -30.8188   22.5402 N   0  0  0  0  0  0  0  0  0  0  0  0
  -21.9628  -27.8589   18.3101 N   0  0  0  0  0  0  0  0  0  0  0  0
  -22.5299  -26.6668   14.9449 N   0  3  0  0  0  0  0  0  0  0  0  0
  -28.2625  -22.5716   22.4231 O   0  0  0  0  0  0  0  0  0  0  0  0
  -22.5764  -11.6636   17.6552 O   0  0  0  0  0  0  0  0  0  0  0  0
  -26.1783  -28.6458   22.5704 O   0  0  0  0  0  0  0  0  0  0  0  0
  -23.0091  -30.0893   19.7727 O   0  0  0  0  0  0  0  0  0  0  0  0
  -22.9186  -25.8643   17.6135 O   0  0  0  0  0  0  0  0  0  0  0  0
  -31.5058  -15.0551   19.9653 O   0  0  0  0  0  0  0  0  0  0  0  0
  -21.6719   -9.8714   25.1756 O   0  0  0  0  0  0  0  0  0  0  0  0
  -29.0061  -24.1073   20.1048 O   0  0  0  0  0  0  0  0  0  1  0  0
  -18.2281   -5.6099   24.5564 F   0  0  0  0  0  0  0  0  0  0  0  0
  -21.9725   -7.5742   26.6839 F   0  0  0  0  0  0  0  0  0  0  0  0
  1  2  1  0  0  0  0
  1  5  2  0  0  0  0
  2  6  2  0  0  0  0
  3 12  2  0  0  0  0
  3 19  1  0  0  0  0
  4 13  1  0  0  0  0
  4 19  2  0  0  0  0
  5 21  1  0  0  0  0
  6 23  1  0  0  0  0
  7 14  2  0  0  0  0
  7 22  1  0  0  0  0
  8 10  2  0  0  0  0
  8 25  1  0  0  0  0
  9 11  1  0  0  0  0
  9 25  2  0  0  0  0
 10 26  1  0  0  0  0
 11 26  2  0  0  0  0
 12 27  1  0  0  0  0
 13 27  2  0  0  0  0
 14 28  1  0  0  0  0
 15 16  2  0  0  0  0
 15 29  1  0  0  0  0
 16 30  1  0  0  0  0
 17 24  1  0  0  0  0
 17 28  2  0  0  0  0
 18 30  2  0  0  0  0
 18 31  1  0  0  0  0
 19 32  1  0  0  0  0
 20 32  1  0  0  0  0
 20 33  2  0  0  0  0
 20 35  1  0  0  0  0
 21 23  2  0  0  0  0
 21 40  1  0  0  0  0
 22 24  2  0  0  0  0
 22 41  1  0  0  0  0
 23 51  1  0  0  0  0
 24 42  1  0  0  0  0
 25 60  1  0  0  0  0
 26 71  1  0  0  0  0
 27 81  1  0  0  0  0
 28 82  1  0  0  0  0
 29 31  2  0  0  0  0
 29 81  1  0  0  0  0
 30 83  1  0  0  0  0
 31 84  1  0  0  0  0
 32 64  2  0  0  0  0
 33 65  1  0  0  0  0
 33 69  1  0  0  0  0
 34 52  1  0  0  0  0
 34 66  1  0  0  0  0
 34 75  2  0  0  0  0
 35 70  1  0  0  0  0
 35 76  2  0  0  0  0
 36 53  1  0  0  0  0
 36 72  1  0  0  0  0
 36 77  2  0  0  0  0
 37 61  1  0  0  0  0
 37 67  1  0  0  0  0
 37 78  2  0  0  0  0
 38 62  1  0  0  0  0
 38 73  1  0  0  0  0
 38 79  2  0  0  0  0
 39 68  1  0  0  0  0
 39 71  1  0  0  0  0
 39 80  2  0  0  0  0
 40 43  1  0  0  0  0
 41 53  1  0  0  0  0
 42 67  1  0  0  0  0
 43 45  1  0  0  0  0
 44 46  1  0  0  0  0
 44 48  1  0  0  0  0
 45 51  1  0  0  0  0
 46 54  1  0  0  0  0
 47 49  1  0  0  0  0
 47 52  1  0  0  0  0
 48 68  1  0  0  0  0
 49 66  1  0  0  0  0
 50 54  1  0  0  0  0
 50 68  1  0  0  0  0
 51 72  1  0  0  0  0
 52 82  1  0  0  0  0
 53 67  1  0  0  0  0
 54 65  1  0  0  0  0
 55 62  1  0  0  0  0
 56 63  1  0  0  0  0
 57 63  1  0  0  0  0
 58 63  1  0  0  0  0
 59 74  1  0  0  0  0
 60 66  1  0  0  0  0
 61 63  1  0  0  0  0
 61 73  1  0  0  0  0
 62 74  1  0  0  0  0
 64 65  1  0  0  0  0
M  CHG  1  74   1
M  ISO  4  39 100  52 101  71 100  82 101
M  END
> <Batch ID>
0009

> <Smiles>
CNC(C)C(=O)NC(C(=O)N1Cc2cc([101O:1][101CH:1]3CCN(Cc4ccc([100NH:0][100C:0](=O)N5CCCC(n6nc(-c7ccc(Oc8ccc(F)cc8F)cc7)c(C(N)=O)c6N)C5)cc4)C3=O)ccc2CC1C(=O)NC1CCCc2ccccc21)C(C)(C)C

> <Shape>
0.282

> <Color>
0.075

> <Negative vol penalty>
0.000

$$$$

  -OEChem-04042320373D

 81 89  0     1  0  0  0  0  0999 V2000
  -17.7155  -33.3419   18.0836 C   0  0  0  0  0  0  0  0  0  0  0  0
  -18.9138  -32.9824   17.4751 C   0  0  0  0  0  0  0  0  0  0  0  0
  -24.8012  -10.2786   22.6259 C   0  0  0  0  0  0  0  0  0  0  0  0
  -24.4888  -11.7693   24.5013 C   0  0  0  0  0  0  0  0  0  0  0  0
  -17.7254  -33.9232   19.3508 C   0  0  0  0  0  0  0  0  0  0  0  0
  -20.1229  -33.2051   18.1332 C   0  0  0  0  0  0  0  0  0  0  0  0
  -24.6112  -27.7615   19.5870 C   0  0  0  0  0  0  0  0  0  0  0  0
  -29.5131  -20.7821   21.9189 C   0  0  0  0  0  0  0  0  0  0  0  0
  -24.3855   -9.2034   23.4112 C   0  0  0  0  0  0  0  0  0  0  0  0
  -24.0729  -10.6941   25.2866 C   0  0  0  0  0  0  0  0  0  0  0  0
  -25.6185  -26.8047   19.7133 C   0  0  0  0  0  0  0  0  0  0  0  0
  -29.3851  -22.1504   22.1577 C   0  0  0  0  0  0  0  0  0  0  0  0
  -21.4645   -7.9153   24.5255 C   0  0  0  0  0  0  0  0  0  0  0  0
  -20.5567   -7.0164   23.9656 C   0  0  0  0  0  0  0  0  0  0  0  0
  -27.0248  -28.4182   20.8389 C   0  0  0  0  0  0  0  0  0  0  0  0
  -27.1423  -20.6374   21.4769 C   0  0  0  0  0  0  0  0  0  0  0  0
  -22.1505   -5.2245   24.2582 C   0  0  0  0  0  0  0  0  0  0  0  0
  -24.8529  -11.5615   23.1710 C   0  0  0  0  0  0  0  0  0  0  0  0
  -24.4755  -13.5061   21.5635 C   0  0  0  0  0  0  0  0  0  0  0  0
  -18.9346  -34.1443   20.0288 C   0  0  0  0  0  0  0  0  0  0  0  0
  -24.8012  -29.0475   20.1004 C   0  0  0  0  0  0  0  0  0  0  0  0
  -20.1490  -33.7912   19.4101 C   0  0  0  0  0  0  0  0  0  0  0  0
  -26.0146  -29.3772   20.7264 C   0  0  0  0  0  0  0  0  0  0  0  0
  -28.3917  -20.0256   21.5784 C   0  0  0  0  0  0  0  0  0  0  0  0
  -24.0213   -9.4111   24.7416 C   0  0  0  0  0  0  0  0  0  0  0  0
  -26.8224  -27.1323   20.3375 C   0  0  0  0  0  0  0  0  0  0  0  0
  -22.7154   -7.4688   24.9517 C   0  0  0  0  0  0  0  0  0  0  0  0
  -28.1357  -22.7621   22.0562 C   0  0  0  0  0  0  0  0  0  0  0  0
  -20.8997   -5.6710   23.8320 C   0  0  0  0  0  0  0  0  0  0  0  0
  -27.0143  -22.0057   21.7158 C   0  0  0  0  0  0  0  0  0  0  0  0
  -23.0584   -6.1234   24.8181 C   0  0  0  0  0  0  0  0  0  0  0  0
  -25.2829  -12.6725   22.3604 C   0  0  0  0  0  0  0  0  0  0  0  0
  -25.3542  -14.3993   21.0010 C   0  0  0  0  0  0  0  0  0  0  0  0
  -23.0579  -13.4758   21.3509 C   0  0  0  0  0  0  0  0  0  0  0  0
  -23.3724  -32.4735   20.6455 C   0  0  0  0  0  0  0  0  0  0  0  0
  -24.8881  -31.7227   23.2046 C   0  0  0  0  0  0  0  0  0  0  0  0
  -26.3005  -30.3471   25.9886 C   0  0  0  0  0  0  0  0  0  0  0  0
  -29.6878  -17.8733   21.3941 C   0  0  0  0  0  0  0  0  0  0  0  0
  -18.8980  -34.8190   21.3772 C   0  0  0  0  0  0  0  0  0  0  0  0
  -23.7676  -30.1278   19.9324 C   0  0  0  0  0  0  0  0  0  0  0  0
  -26.1880  -30.7830   21.2329 C   0  0  0  0  0  0  0  0  0  0  0  0
  -20.1981  -34.6777   22.1645 C   0  0  0  0  0  0  0  0  0  0  0  0
  -30.4150  -14.4228   20.9013 C   0  0  0  0  0  0  0  0  0  0  0  0
  -21.3979  -34.9814   21.2727 C   0  0  0  0  0  0  0  0  0  0  0  0
  -29.0782  -13.7284   21.1714 C   0  0  0  0  0  0  0  0  0  0  0  0
  -30.6319  -15.6163   21.8299 C   0  0  0  0  0  0  0  0  0  0  0  0
  -28.2019  -15.9022   22.1169 C   0  0  0  0  0  0  0  0  0  0  0  0
  -21.4794  -33.9940   20.1023 C   0  0  1  0  0  0  0  0  0  0  0  0
  -23.7025  -31.0923   21.1301 C   0  0  1  0  0  0  0  0  0  0  0  0
  -27.9093  -14.7331   21.1623 C   0  0  2  0  0  0  0  0  0  0  0  0
  -26.8460  -30.8668   28.3823 C   0  0  0  0  0  0  0  0  0  0  0  0
  -27.2368  -33.4417   22.2923 C   0  0  0  0  0  0  0  0  0  0  0  0
  -28.2509  -33.1347   24.5607 C   0  0  0  0  0  0  0  0  0  0  0  0
  -26.0517  -34.2882   24.3254 C   0  0  0  0  0  0  0  0  0  0  0  0
  -24.5818  -28.1504   26.9783 C   0  0  0  0  0  0  0  0  0  0  0  0
  -28.6649  -26.3010   21.5911 C   0  0  0  0  0  0  0  0  0  1  0  0
  -29.1408  -24.9163   21.9857 C   0  0  0  0  0  0  0  0  0  0  0  0
  -26.1840  -31.7882   23.9726 C   0  0  1  0  0  0  0  0  0  0  0  0
  -25.8232  -30.2708   27.4276 C   0  0  2  0  0  0  0  0  0  0  0  0
  -26.9242  -33.1407   23.7717 C   0  0  0  0  0  0  0  0  0  0  0  0
  -26.5752  -13.0063   22.3111 N   0  0  0  0  0  0  0  0  0  0  0  0
  -26.5866  -14.0595   21.4764 N   0  0  0  0  0  0  0  0  0  0  0  0
  -24.9536  -31.2347   21.8939 N   0  0  0  0  0  0  0  0  0  0  0  0
  -29.4868  -16.5270   21.7655 N   0  0  0  0  0  0  0  0  0  0  0  0
  -25.1853  -15.4344   20.1511 N   0  0  0  0  0  0  0  0  0  0  0  0
  -22.3048  -12.4921   22.0063 N   0  0  0  0  0  0  0  0  0  0  0  0
  -28.5216  -18.6356   21.3358 N   0  0  0  0  0  0  0  0  0  0  0  0
  -22.0175  -32.7263   20.5470 N   0  0  0  0  0  0  0  0  0  0  0  0
  -25.8510  -31.4898   25.3613 N   0  0  0  0  0  0  0  0  0  0  0  0
  -25.5846  -28.8529   27.8197 N   0  3  0  0  0  0  0  0  0  0  0  0
  -22.4784  -14.2864   20.5889 O   0  0  0  0  0  0  0  0  0  0  0  0
  -24.2795  -33.2539   20.3813 O   0  0  0  0  0  0  0  0  0  0  0  0
  -23.8455  -32.0986   23.7477 O   0  0  0  0  0  0  0  0  0  0  0  0
  -27.0049  -29.4816   25.4736 O   0  0  0  0  0  0  0  0  0  0  0  0
  -30.8084  -18.3104   21.1197 O   0  0  0  0  0  0  0  0  0  0  0  0
  -23.6153   -8.3622   25.5081 O   0  0  0  0  0  0  0  0  0  0  0  0
  -27.7998  -26.1921   20.4615 O   0  0  0  0  0  0  0  0  0  1  0  0
  -28.0119  -24.1064   22.2905 O   0  0  0  0  0  0  0  0  0  0  0  0
  -20.0272   -4.8077   23.2957 F   0  0  0  0  0  0  0  0  0  0  0  0
  -25.8115  -22.5881   21.6156 F   0  0  0  0  0  0  0  0  0  0  0  0
  -24.2582   -5.6883   25.2268 F   0  0  0  0  0  0  0  0  0  0  0  0
  1  2  1  0  0  0  0
  1  5  2  0  0  0  0
  2  6  2  0  0  0  0
  3  9  2  0  0  0  0
  3 18  1  0  0  0  0
  4 10  1  0  0  0  0
  4 18  2  0  0  0  0
  5 20  1  0  0  0  0
  6 22  1  0  0  0  0
  7 11  2  0  0  0  0
  7 21  1  0  0  0  0
  8 12  2  0  0  0  0
  8 24  1  0  0  0  0
  9 25  1  0  0  0  0
 10 25  2  0  0  0  0
 11 26  1  0  0  0  0
 12 28  1  0  0  0  0
 13 14  2  0  0  0  0
 13 27  1  0  0  0  0
 14 29  1  0  0  0  0
 15 23  1  0  0  0  0
 15 26  2  0  0  0  0
 16 24  2  0  0  0  0
 16 30  1  0  0  0  0
 17 29  2  0  0  0  0
 17 31  1  0  0  0  0
 18 32  1  0  0  0  0
 19 32  1  0  0  0  0
 19 33  2  0  0  0  0
 19 34  1  0  0  0  0
 20 22  2  0  0  0  0
 20 39  1  0  0  0  0
 21 23  2  0  0  0  0
 21 40  1  0  0  0  0
 22 48  1  0  0  0  0
 23 41  1  0  0  0  0
 24 67  1  0  0  0  0
 25 76  1  0  0  0  0
 26 77  1  0  0  0  0
 27 31  2  0  0  0  0
 27 76  1  0  0  0  0
 28 30  2  0  0  0  0
 28 78  1  0  0  0  0
 29 79  1  0  0  0  0
 30 80  1  0  0  0  0
 31 81  1  0  0  0  0
 32 61  2  0  0  0  0
 33 62  1  0  0  0  0
 33 65  1  0  0  0  0
 34 66  1  0  0  0  0
 34 71  2  0  0  0  0
 35 49  1  0  0  0  0
 35 68  1  0  0  0  0
 35 72  2  0  0  0  0
 36 58  1  0  0  0  0
 36 63  1  0  0  0  0
 36 73  2  0  0  0  0
 37 59  1  0  0  0  0
 37 69  1  0  0  0  0
 37 74  2  0  0  0  0
 38 64  1  0  0  0  0
 38 67  1  0  0  0  0
 38 75  2  0  0  0  0
 39 42  1  0  0  0  0
 40 49  1  0  0  0  0
 41 63  1  0  0  0  0
 42 44  1  0  0  0  0
 43 45  1  0  0  0  0
 43 46  1  0  0  0  0
 44 48  1  0  0  0  0
 45 50  1  0  0  0  0
 46 64  1  0  0  0  0
 47 50  1  0  0  0  0
 47 64  1  0  0  0  0
 48 68  1  0  0  0  0
 49 63  1  0  0  0  0
 50 62  1  0  0  0  0
 51 59  1  0  0  0  0
 52 60  1  0  0  0  0
 53 60  1  0  0  0  0
 54 60  1  0  0  0  0
 55 70  1  0  0  0  0
 56 57  1  0  0  0  0
 56 77  1  0  0  0  0
 57 78  1  0  0  0  0
 58 60  1  0  0  0  0
 58 69  1  0  0  0  0
 59 70  1  0  0  0  0
 61 62  1  0  0  0  0
M  CHG  1  70   1
M  ISO  4  38 100  56 101  67 100  77 101
M  END
> <Batch ID>
0009

> <Smiles>
CNC(C)C(=O)NC(C(=O)N1Cc2cc([101O:1][101CH2:1]COc3ccc([100NH:0][100C:0](=O)N4CCCC(n5nc(-c6ccc(Oc7ccc(F)cc7F)cc6)c(C(N)=O)c5N)C4)cc3F)ccc2CC1C(=O)NC1CCCc2ccccc21)C(C)(C)C

> <Shape>
0.265

> <Color>
0.145

> <Negative vol penalty>
0.000

$$$$

  -OEChem-04042320373D

 83 92  0     1  0  0  0  0  0999 V2000
  -27.5490  -34.3165   25.5178 C   0  0  0  0  0  0  0  0  0  0  0  0
  -28.0726  -33.0487   25.2858 C   0  0  0  0  0  0  0  0  0  0  0  0
  -23.1626   -9.7560   19.9100 C   0  0  0  0  0  0  0  0  0  0  0  0
  -23.9124   -9.7760   22.2066 C   0  0  0  0  0  0  0  0  0  0  0  0
  -26.2331  -34.6028   25.1569 C   0  0  0  0  0  0  0  0  0  0  0  0
  -27.2802  -32.0660   24.6937 C   0  0  0  0  0  0  0  0  0  0  0  0
  -29.1225  -27.6817   20.8350 C   0  0  0  0  0  0  0  0  0  0  0  0
  -30.9477  -19.3500   20.7005 C   0  0  0  0  0  0  0  0  0  0  0  0
  -30.8454  -17.9591   20.6808 C   0  0  0  0  0  0  0  0  0  0  0  0
  -22.4747   -8.5656   20.1449 C   0  0  0  0  0  0  0  0  0  0  0  0
  -23.2244   -8.5855   22.4416 C   0  0  0  0  0  0  0  0  0  0  0  0
  -29.4390  -26.3372   21.0250 C   0  0  0  0  0  0  0  0  0  0  0  0
  -20.0366   -7.6256   23.0218 C   0  0  0  0  0  0  0  0  0  0  0  0
  -19.2780   -7.5367   24.1889 C   0  0  0  0  0  0  0  0  0  0  0  0
  -27.2010  -25.7236   20.3661 C   0  0  0  0  0  0  0  0  0  0  0  0
  -29.3027  -19.4461   22.4673 C   0  0  0  0  0  0  0  0  0  0  0  0
  -20.6093   -5.6543   24.9109 C   0  0  0  0  0  0  0  0  0  0  0  0
  -23.8815  -10.3613   20.9409 C   0  0  0  0  0  0  0  0  0  0  0  0
  -24.1006  -12.9011   20.8482 C   0  0  0  0  0  0  0  0  0  0  0  0
  -25.4271  -33.6259   24.5512 C   0  0  0  0  0  0  0  0  0  0  0  0
  -27.8375  -28.0585   20.4190 C   0  0  0  0  0  0  0  0  0  0  0  0
  -25.9518  -32.3390   24.3255 C   0  0  0  0  0  0  0  0  0  0  0  0
  -26.8715  -27.0733   20.1692 C   0  0  0  0  0  0  0  0  0  0  0  0
  -30.1764  -20.0935   21.5938 C   0  0  0  0  0  0  0  0  0  0  0  0
  -29.9717  -17.3116   21.5544 C   0  0  0  0  0  0  0  0  0  0  0  0
  -22.5056   -7.9803   21.4107 C   0  0  0  0  0  0  0  0  0  0  0  0
  -28.4773  -25.3581   20.7933 C   0  0  0  0  0  0  0  0  0  0  0  0
  -21.0815   -6.7288   22.7992 C   0  0  0  0  0  0  0  0  0  0  0  0
  -19.5643   -6.5511   25.1335 C   0  0  0  0  0  0  0  0  0  0  0  0
  -29.2004  -18.0551   22.4476 C   0  0  0  0  0  0  0  0  0  0  0  0
  -21.3679   -5.7432   23.7437 C   0  0  0  0  0  0  0  0  0  0  0  0
  -24.5927  -11.5907   20.6987 C   0  0  0  0  0  0  0  0  0  0  0  0
  -25.1564  -13.7065   20.4974 C   0  0  0  0  0  0  0  0  0  0  0  0
  -22.8049  -13.3502   21.2668 C   0  0  0  0  0  0  0  0  0  0  0  0
  -25.4986  -29.8105   21.6695 C   0  0  0  0  0  0  0  0  0  0  0  0
  -24.1193  -29.3325   18.7727 C   0  0  0  0  0  0  0  0  0  0  0  0
  -23.8767  -27.4143   15.9605 C   0  0  0  0  0  0  0  0  0  0  0  0
  -30.5646  -15.0146   20.7066 C   0  0  0  0  0  0  0  0  0  0  0  0
  -23.9957  -33.9680   24.2217 C   0  0  0  0  0  0  0  0  0  0  0  0
  -27.5200  -29.5113   20.1929 C   0  0  0  0  0  0  0  0  0  0  0  0
  -25.4834  -27.4242   19.7019 C   0  0  0  0  0  0  0  0  0  0  0  0
  -23.3405  -32.9828   23.2571 C   0  0  0  0  0  0  0  0  0  0  0  0
  -29.5780  -12.5743   18.3089 C   0  0  0  0  0  0  0  0  0  0  0  0
  -23.6263  -31.5468   23.6849 C   0  0  0  0  0  0  0  0  0  0  0  0
  -28.1526  -12.2087   18.7292 C   0  0  0  0  0  0  0  0  0  0  0  0
  -31.1393  -23.6438   21.3325 C   0  0  0  0  0  0  0  0  0  0  0  0
  -30.4762  -12.8348   19.5168 C   0  0  0  0  0  0  0  0  0  0  0  0
  -31.1624  -22.2347   20.7404 C   0  0  0  0  0  0  0  0  0  0  0  0
  -28.5310  -13.4513   20.8971 C   0  0  0  0  0  0  0  0  0  0  0  0
  -29.5082  -22.3341   22.5080 C   0  0  0  0  0  0  0  0  0  0  0  0
  -25.1313  -31.2538   23.6627 C   0  0  1  0  0  0  0  0  0  0  0  0
  -26.0265  -29.8144   20.2627 C   0  0  1  0  0  0  0  0  0  0  0  0
  -27.5723  -13.2433   19.7133 C   0  0  2  0  0  0  0  0  0  0  0  0
  -29.7600  -23.7412   21.9679 C   0  0  2  0  0  0  0  0  0  1  0  0
  -22.6355  -27.2556   13.7853 C   0  0  0  0  0  0  0  0  0  0  0  0
  -21.6615  -28.2954   20.2537 C   0  0  0  0  0  0  0  0  0  0  0  0
  -20.8730  -27.2921   18.0997 C   0  0  0  0  0  0  0  0  0  0  0  0
  -21.1558  -29.7630   18.2929 C   0  0  0  0  0  0  0  0  0  0  0  0
  -26.3705  -27.6620   14.3860 C   0  0  0  0  0  0  0  0  0  0  0  0
  -23.2046  -28.2858   18.1838 C   0  0  1  0  0  0  0  0  0  0  0  0
  -23.8776  -27.7815   14.4875 C   0  0  2  0  0  0  0  0  0  0  0  0
  -21.7492  -28.4023   18.7182 C   0  0  0  0  0  0  0  0  0  0  0  0
  -25.8624  -11.5608   20.2850 N   0  0  0  0  0  0  0  0  0  0  0  0
  -26.1769  -12.8624   20.1714 N   0  0  0  0  0  0  0  0  0  0  0  0
  -30.2780  -21.4687   21.6135 N   0  0  3  0  0  0  0  0  0  0  0  0
  -25.2196  -28.8587   19.5013 N   0  0  0  0  0  0  0  0  0  0  0  0
  -29.8644  -13.8280   20.4023 N   0  0  0  0  0  0  0  0  0  0  0  0
  -25.3021  -15.0473   20.4389 N   0  0  0  0  0  0  0  0  0  0  0  0
  -21.8371  -12.3895   21.5904 N   0  0  0  0  0  0  0  0  0  0  0  0
  -29.8698  -15.8985   21.5316 N   0  0  0  0  0  0  0  0  0  0  0  0
  -25.5836  -31.0343   22.3056 N   0  0  0  0  0  0  0  0  0  0  0  0
  -23.3210  -28.4106   16.7349 N   0  0  0  0  0  0  0  0  0  0  0  0
  -25.0769  -27.2102   13.8120 N   0  3  0  0  0  0  0  0  0  0  0  0
  -22.5089  -14.5673   21.3357 O   0  0  0  0  0  0  0  0  0  0  0  0
  -25.0463  -28.7744   22.1423 O   0  0  0  0  0  0  0  0  0  0  0  0
  -23.8709  -30.5263   18.5869 O   0  0  0  0  0  0  0  0  0  0  0  0
  -24.3210  -26.3485   16.3815 O   0  0  0  0  0  0  0  0  0  0  0  0
  -31.6859  -15.2428   20.2457 O   0  0  0  0  0  0  0  0  0  0  0  0
  -21.8343   -6.8188   21.6403 O   0  0  0  0  0  0  0  0  0  0  0  0
  -28.7834  -24.0452   20.9786 O   0  0  0  0  0  0  0  0  0  1  0  0
  -18.8367   -6.4668   26.2549 F   0  0  0  0  0  0  0  0  0  0  0  0
  -28.3571  -17.4432   23.2914 F   0  0  0  0  0  0  0  0  0  0  0  0
  -22.3713   -4.8795   23.5360 F   0  0  0  0  0  0  0  0  0  0  0  0
  1  2  1  0  0  0  0
  1  5  2  0  0  0  0
  2  6  2  0  0  0  0
  3 10  2  0  0  0  0
  3 18  1  0  0  0  0
  4 11  1  0  0  0  0
  4 18  2  0  0  0  0
  5 20  1  0  0  0  0
  6 22  1  0  0  0  0
  7 12  2  0  0  0  0
  7 21  1  0  0  0  0
  8  9  2  0  0  0  0
  8 24  1  0  0  0  0
  9 25  1  0  0  0  0
 10 26  1  0  0  0  0
 11 26  2  0  0  0  0
 12 27  1  0  0  0  0
 13 14  2  0  0  0  0
 13 28  1  0  0  0  0
 14 29  1  0  0  0  0
 15 23  1  0  0  0  0
 15 27  2  0  0  0  0
 16 24  2  0  0  0  0
 16 30  1  0  0  0  0
 17 29  2  0  0  0  0
 17 31  1  0  0  0  0
 18 32  1  0  0  0  0
 19 32  1  0  0  0  0
 19 33  2  0  0  0  0
 19 34  1  0  0  0  0
 20 22  2  0  0  0  0
 20 39  1  0  0  0  0
 21 23  2  0  0  0  0
 21 40  1  0  0  0  0
 22 51  1  0  0  0  0
 23 41  1  0  0  0  0
 24 65  1  0  0  0  0
 25 30  2  0  0  0  0
 25 70  1  0  0  0  0
 26 79  1  0  0  0  0
 27 80  1  0  0  0  0
 28 31  2  0  0  0  0
 28 79  1  0  0  0  0
 29 81  1  0  0  0  0
 30 82  1  0  0  0  0
 31 83  1  0  0  0  0
 32 63  2  0  0  0  0
 33 64  1  0  0  0  0
 33 68  1  0  0  0  0
 34 69  1  0  0  0  0
 34 74  2  0  0  0  0
 35 52  1  0  0  0  0
 35 71  1  0  0  0  0
 35 75  2  0  0  0  0
 36 60  1  0  0  0  0
 36 66  1  0  0  0  0
 36 76  2  0  0  0  0
 37 61  1  0  0  0  0
 37 72  1  0  0  0  0
 37 77  2  0  0  0  0
 38 67  1  0  0  0  0
 38 70  1  0  0  0  0
 38 78  2  0  0  0  0
 39 42  1  0  0  0  0
 40 52  1  0  0  0  0
 41 66  1  0  0  0  0
 42 44  1  0  0  0  0
 43 45  1  0  0  0  0
 43 47  1  0  0  0  0
 44 51  1  0  0  0  0
 45 53  1  0  0  0  0
 46 48  1  0  0  0  0
 46 54  1  0  0  0  0
 47 67  1  0  0  0  0
 48 65  1  0  0  0  0
 49 53  1  0  0  0  0
 49 67  1  0  0  0  0
 50 54  1  0  0  0  0
 50 65  1  0  0  0  0
 51 71  1  0  0  0  0
 52 66  1  0  0  0  0
 53 64  1  0  0  0  0
 54 80  1  0  0  0  0
 55 61  1  0  0  0  0
 56 62  1  0  0  0  0
 57 62  1  0  0  0  0
 58 62  1  0  0  0  0
 59 73  1  0  0  0  0
 60 62  1  0  0  0  0
 60 72  1  0  0  0  0
 61 73  1  0  0  0  0
 63 64  1  0  0  0  0
M  CHG  1  73   1
M  ISO  4  38 100  54 101  70 100  80 101
M  END
> <Batch ID>
0009

> <Smiles>
CNC(C)C(=O)NC(C(=O)N1Cc2cc([101O:1][101CH:1]3CCN(c4ccc([100NH:0][100C:0](=O)N5CCCC(n6nc(-c7ccc(Oc8ccc(F)cc8F)cc7)c(C(N)=O)c6N)C5)c(F)c4)C3)ccc2CC1C(=O)NC1CCCc2ccccc21)C(C)(C)C

> <Shape>
0.353

> <Color>
0.208

> <Negative vol penalty>
0.000

$$$$

  -OEChem-04042320373D

 82 90  0     1  0  0  0  0  0999 V2000
  -32.3647  -14.6853   20.6314 C   0  0  0  0  0  0  0  0  0  0  0  0
  -31.4985  -15.6914   21.0473 C   0  0  0  0  0  0  0  0  0  0  0  0
  -28.7236  -24.3626   21.8931 C   0  0  0  0  0  0  0  0  0  0  0  0
  -28.3911  -24.3961   19.5003 C   0  0  0  0  0  0  0  0  0  0  0  0
  -31.8735  -13.5983   19.9097 C   0  0  0  0  0  0  0  0  0  0  0  0
  -30.1406  -15.6115   20.7406 C   0  0  0  0  0  0  0  0  0  0  0  0
  -25.4658  -17.5302   24.2006 C   0  0  0  0  0  0  0  0  0  0  0  0
  -22.3985  -28.0385   23.7305 C   0  0  0  0  0  0  0  0  0  0  0  0
  -24.1190  -27.3104   25.2624 C   0  0  0  0  0  0  0  0  0  0  0  0
  -28.8235  -22.9718   21.8598 C   0  0  0  0  0  0  0  0  0  0  0  0
  -28.4910  -23.0052   19.4669 C   0  0  0  0  0  0  0  0  0  0  0  0
  -24.6972  -18.6931   24.1774 C   0  0  0  0  0  0  0  0  0  0  0  0
  -21.8566  -26.7532   23.7283 C   0  0  0  0  0  0  0  0  0  0  0  0
  -23.5771  -26.0251   25.2602 C   0  0  0  0  0  0  0  0  0  0  0  0
  -26.5167  -20.3484   20.1556 C   0  0  0  0  0  0  0  0  0  0  0  0
  -25.5791  -19.6493   19.3955 C   0  0  0  0  0  0  0  0  0  0  0  0
  -23.0226  -17.5530   22.8678 C   0  0  0  0  0  0  0  0  0  0  0  0
  -27.3586  -18.7369   18.0397 C   0  0  0  0  0  0  0  0  0  0  0  0
  -28.5073  -25.0748   20.7133 C   0  0  0  0  0  0  0  0  0  0  0  0
  -29.4506  -27.4429   20.6145 C   0  0  0  0  0  0  0  0  0  0  0  0
  -30.5073  -13.5002   19.6023 C   0  0  0  0  0  0  0  0  0  0  0  0
  -25.0230  -16.3711   23.5472 C   0  0  0  0  0  0  0  0  0  0  0  0
  -29.6308  -14.5228   20.0129 C   0  0  0  0  0  0  0  0  0  0  0  0
  -23.7863  -16.3759   22.8863 C   0  0  0  0  0  0  0  0  0  0  0  0
  -23.5298  -28.3171   24.4976 C   0  0  0  0  0  0  0  0  0  0  0  0
  -28.7072  -22.2930   20.6467 C   0  0  0  0  0  0  0  0  0  0  0  0
  -22.4458  -25.7465   24.4931 C   0  0  0  0  0  0  0  0  0  0  0  0
  -23.4767  -18.7055   23.5085 C   0  0  0  0  0  0  0  0  0  0  0  0
  -27.8753  -20.2418   19.8577 C   0  0  0  0  0  0  0  0  0  0  0  0
  -26.0000  -18.8435   18.3376 C   0  0  0  0  0  0  0  0  0  0  0  0
  -28.2962  -19.4360   18.7998 C   0  0  0  0  0  0  0  0  0  0  0  0
  -28.4034  -26.5115   20.7471 C   0  0  0  0  0  0  0  0  0  0  0  0
  -28.8363  -28.6671   20.7161 C   0  0  0  0  0  0  0  0  0  0  0  0
  -30.8533  -27.2213   20.4169 C   0  0  0  0  0  0  0  0  0  0  0  0
  -26.1168  -14.5888   21.1533 C   0  0  0  0  0  0  0  0  0  0  0  0
  -23.6326  -12.6671   21.9645 C   0  0  0  0  0  0  0  0  0  0  0  0
  -20.5643  -12.3603   23.4268 C   0  0  0  0  0  0  0  0  0  0  0  0
  -23.9839  -30.4891   23.3718 C   0  0  0  0  0  0  0  0  0  0  0  0
  -30.0306  -12.3299   18.7791 C   0  0  0  0  0  0  0  0  0  0  0  0
  -25.8514  -15.1170   23.6042 C   0  0  0  0  0  0  0  0  0  0  0  0
  -23.2565  -15.1520   22.1865 C   0  0  0  0  0  0  0  0  0  0  0  0
  -28.5173  -12.1335   18.8186 C   0  0  0  0  0  0  0  0  0  0  0  0
  -24.6677  -30.8527   19.9014 C   0  0  0  0  0  0  0  0  0  0  0  0
  -27.8007  -13.4635   18.6077 C   0  0  0  0  0  0  0  0  0  0  0  0
  -25.8084  -29.8537   19.7106 C   0  0  0  0  0  0  0  0  0  0  0  0
  -23.5991  -30.3253   20.8595 C   0  0  0  0  0  0  0  0  0  0  0  0
  -25.2722  -28.8863   21.9795 C   0  0  0  0  0  0  0  0  0  0  0  0
  -28.1472  -14.4595   19.7210 C   0  0  1  0  0  0  0  0  0  0  0  0
  -25.5431  -14.1452   22.4693 C   0  0  1  0  0  0  0  0  0  0  0  0
  -26.3896  -29.4137   21.0658 C   0  0  1  0  0  0  0  0  0  0  0  0
  -18.7685  -10.6732   23.9021 C   0  0  0  0  0  0  0  0  0  0  0  0
  -22.7447  -12.7942   19.0481 C   0  0  0  0  0  0  0  0  0  0  0  0
  -20.5089  -11.9240   19.7635 C   0  0  0  0  0  0  0  0  0  0  0  0
  -22.5523  -10.5333   20.0996 C   0  0  0  0  0  0  0  0  0  0  0  0
  -24.5618  -30.2062   25.7720 C   0  0  0  0  0  0  0  0  0  0  0  0
  -20.8301  -12.7293   26.3513 C   0  0  0  0  0  0  0  0  0  0  0  0
  -22.3037  -22.1602   23.9922 C   0  0  0  0  0  0  0  0  0  0  0  0
  -22.8174  -23.4063   24.6961 C   0  0  0  0  0  0  0  0  0  0  0  0
  -23.2470  -20.9800   24.1641 C   0  0  0  0  0  0  0  0  0  1  0  0
  -22.1824  -12.5654   21.5576 C   0  0  1  0  0  0  0  0  0  0  0  0
  -20.0214  -11.3564   24.4278 C   0  0  2  0  0  0  0  0  0  0  0  0
  -22.0077  -11.9780   20.1286 C   0  0  0  0  0  0  0  0  0  0  0  0
  -27.2140  -27.0941   20.9201 N   0  0  0  0  0  0  0  0  0  0  0  0
  -27.5101  -28.4048   20.8968 N   0  0  0  0  0  0  0  0  0  0  0  0
  -24.1060  -13.9521   22.2652 N   0  0  0  0  0  0  0  0  0  0  0  0
  -24.2053  -29.8800   22.1221 N   0  0  0  0  0  0  0  0  0  0  0  0
  -29.3065  -29.9316   20.6677 N   0  0  0  0  0  0  0  0  0  0  0  0
  -31.3161  -25.9009   20.3349 N   0  0  0  0  0  0  0  0  0  0  0  0
  -27.4068  -14.1492   20.9252 N   0  0  0  0  0  0  0  0  0  0  0  0
  -21.5175  -11.7974   22.6047 N   0  0  0  0  0  0  0  0  0  0  0  0
  -24.0910  -29.6476   24.5000 N   0  0  0  0  0  0  0  0  0  0  0  0
  -19.6835  -12.0351   25.7108 N   0  3  0  0  0  0  0  0  0  0  0  0
  -31.6743  -28.1659   20.3325 O   0  0  0  0  0  0  0  0  0  0  0  0
  -25.4388  -15.2776   20.4001 O   0  0  0  0  0  0  0  0  0  0  0  0
  -24.3182  -11.6431   22.0207 O   0  0  0  0  0  0  0  0  0  0  0  0
  -20.1786  -13.5262   23.3767 O   0  0  0  0  0  0  0  0  0  0  0  0
  -23.7358  -31.6965   23.4739 O   0  0  0  0  0  0  0  0  0  0  0  0
  -28.8050  -20.9359   20.6138 O   0  0  0  0  0  0  0  0  0  0  0  0
  -21.9134  -24.4836   24.4909 O   0  0  0  0  0  0  0  0  0  0  0  0
  -22.7248  -19.8394   23.4838 O   0  0  0  0  0  0  0  0  0  1  0  0
  -25.0997  -18.1710   17.6087 F   0  0  0  0  0  0  0  0  0  0  0  0
  -29.6001  -19.3287   18.5096 F   0  0  0  0  0  0  0  0  0  0  0  0
  1  2  1  0  0  0  0
  1  5  2  0  0  0  0
  2  6  2  0  0  0  0
  3 10  2  0  0  0  0
  3 19  1  0  0  0  0
  4 11  1  0  0  0  0
  4 19  2  0  0  0  0
  5 21  1  0  0  0  0
  6 23  1  0  0  0  0
  7 12  2  0  0  0  0
  7 22  1  0  0  0  0
  8 13  2  0  0  0  0
  8 25  1  0  0  0  0
  9 14  1  0  0  0  0
  9 25  2  0  0  0  0
 10 26  1  0  0  0  0
 11 26  2  0  0  0  0
 12 28  1  0  0  0  0
 13 27  1  0  0  0  0
 14 27  2  0  0  0  0
 15 16  2  0  0  0  0
 15 29  1  0  0  0  0
 16 30  1  0  0  0  0
 17 24  1  0  0  0  0
 17 28  2  0  0  0  0
 18 30  2  0  0  0  0
 18 31  1  0  0  0  0
 19 32  1  0  0  0  0
 20 32  1  0  0  0  0
 20 33  2  0  0  0  0
 20 34  1  0  0  0  0
 21 23  2  0  0  0  0
 21 39  1  0  0  0  0
 22 24  2  0  0  0  0
 22 40  1  0  0  0  0
 23 48  1  0  0  0  0
 24 41  1  0  0  0  0
 25 71  1  0  0  0  0
 26 78  1  0  0  0  0
 27 79  1  0  0  0  0
 28 80  1  0  0  0  0
 29 31  2  0  0  0  0
 29 78  1  0  0  0  0
 30 81  1  0  0  0  0
 31 82  1  0  0  0  0
 32 63  2  0  0  0  0
 33 64  1  0  0  0  0
 33 67  1  0  0  0  0
 34 68  1  0  0  0  0
 34 73  2  0  0  0  0
 35 49  1  0  0  0  0
 35 69  1  0  0  0  0
 35 74  2  0  0  0  0
 36 60  1  0  0  0  0
 36 65  1  0  0  0  0
 36 75  2  0  0  0  0
 37 61  1  0  0  0  0
 37 70  1  0  0  0  0
 37 76  2  0  0  0  0
 38 66  1  0  0  0  0
 38 71  1  0  0  0  0
 38 77  2  0  0  0  0
 39 42  1  0  0  0  0
 40 49  1  0  0  0  0
 41 65  1  0  0  0  0
 42 44  1  0  0  0  0
 43 45  1  0  0  0  0
 43 46  1  0  0  0  0
 44 48  1  0  0  0  0
 45 50  1  0  0  0  0
 46 66  1  0  0  0  0
 47 50  1  0  0  0  0
 47 66  1  0  0  0  0
 48 69  1  0  0  0  0
 49 65  1  0  0  0  0
 50 64  1  0  0  0  0
 51 61  1  0  0  0  0
 52 62  1  0  0  0  0
 53 62  1  0  0  0  0
 54 62  1  0  0  0  0
 55 71  1  0  0  0  0
 56 72  1  0  0  0  0
 57 58  1  0  0  0  0
 57 59  1  0  0  0  0
 58 79  1  0  0  0  0
 59 80  1  0  0  0  0
 60 62  1  0  0  0  0
 60 70  1  0  0  0  0
 61 72  1  0  0  0  0
 63 64  1  0  0  0  0
M  CHG  1  72   1
M  ISO  4  38 100  59 101  71 100  80 101
M  END
> <Batch ID>
0009

> <Smiles>
CNC(C)C(=O)NC(C(=O)N1Cc2cc([101O:1][101CH2:1]CCOc3ccc([100N:0](C)[100C:0](=O)N4CCCC(n5nc(-c6ccc(Oc7ccc(F)cc7F)cc6)c(C(N)=O)c5N)C4)cc3)ccc2CC1C(=O)NC1CCCc2ccccc21)C(C)(C)C

> <Shape>
0.249

> <Color>
0.077

> <Negative vol penalty>
0.000

$$$$

  -OEChem-04042320373D

 81 89  0     1  0  0  0  0  0999 V2000
  -23.6146  -32.7404   26.6417 C   0  0  0  0  0  0  0  0  0  0  0  0
  -24.8879  -32.2906   26.3072 C   0  0  0  0  0  0  0  0  0  0  0  0
  -24.0433   -9.7225   21.7174 C   0  0  0  0  0  0  0  0  0  0  0  0
  -24.6463  -10.9946   23.6809 C   0  0  0  0  0  0  0  0  0  0  0  0
  -22.4922  -32.0271   26.2230 C   0  0  0  0  0  0  0  0  0  0  0  0
  -25.0395  -31.1265   25.5547 C   0  0  0  0  0  0  0  0  0  0  0  0
  -29.3143  -28.1906   20.6127 C   0  0  0  0  0  0  0  0  0  0  0  0
  -30.7820  -18.9585   20.2106 C   0  0  0  0  0  0  0  0  0  0  0  0
  -23.6164   -8.6717   22.5293 C   0  0  0  0  0  0  0  0  0  0  0  0
  -24.2193   -9.9438   24.4928 C   0  0  0  0  0  0  0  0  0  0  0  0
  -30.0451  -27.0275   20.3746 C   0  0  0  0  0  0  0  0  0  0  0  0
  -31.0681  -20.2797   20.5541 C   0  0  0  0  0  0  0  0  0  0  0  0
  -20.9059   -7.9145   24.4036 C   0  0  0  0  0  0  0  0  0  0  0  0
  -19.6862   -7.3118   24.0959 C   0  0  0  0  0  0  0  0  0  0  0  0
  -28.0319  -25.9204   19.6392 C   0  0  0  0  0  0  0  0  0  0  0  0
  -28.7097  -20.7140   20.8479 C   0  0  0  0  0  0  0  0  0  0  0  0
  -20.8098   -5.1954   23.7874 C   0  0  0  0  0  0  0  0  0  0  0  0
  -24.5583  -10.8839   22.2932 C   0  0  0  0  0  0  0  0  0  0  0  0
  -24.2298  -13.0524   20.9902 C   0  0  0  0  0  0  0  0  0  0  0  0
  -22.6299  -30.8589   25.4568 C   0  0  0  0  0  0  0  0  0  0  0  0
  -27.9326  -28.2242   20.3757 C   0  0  0  0  0  0  0  0  0  0  0  0
  -23.9180  -30.3961   25.1265 C   0  0  0  0  0  0  0  0  0  0  0  0
  -27.2863  -27.0860   19.8726 C   0  0  0  0  0  0  0  0  0  0  0  0
  -29.4598  -18.5150   20.1855 C   0  0  0  0  0  0  0  0  0  0  0  0
  -23.7044   -8.7823   23.9170 C   0  0  0  0  0  0  0  0  0  0  0  0
  -29.4035  -25.8912   19.8905 C   0  0  0  0  0  0  0  0  0  0  0  0
  -30.0320  -21.1575   20.8728 C   0  0  0  0  0  0  0  0  0  0  0  0
  -22.0776   -7.1576   24.4031 C   0  0  0  0  0  0  0  0  0  0  0  0
  -19.6381   -5.9523   23.7878 C   0  0  0  0  0  0  0  0  0  0  0  0
  -28.4236  -19.3928   20.5042 C   0  0  0  0  0  0  0  0  0  0  0  0
  -22.0296   -5.7981   24.0950 C   0  0  0  0  0  0  0  0  0  0  0  0
  -25.0000  -11.9695   21.4550 C   0  0  0  0  0  0  0  0  0  0  0  0
  -25.1046  -13.7986   20.2391 C   0  0  0  0  0  0  0  0  0  0  0  0
  -22.8471  -13.3565   21.2173 C   0  0  0  0  0  0  0  0  0  0  0  0
  -25.3581  -28.6945   22.1797 C   0  0  0  0  0  0  0  0  0  0  0  0
  -23.8210  -28.6090   19.3245 C   0  0  0  0  0  0  0  0  0  0  0  0
  -23.8043  -27.5722   16.0731 C   0  0  0  0  0  0  0  0  0  0  0  0
  -30.0847  -16.1747   19.4935 C   0  0  0  0  0  0  0  0  0  0  0  0
  -21.3887  -30.0957   25.0674 C   0  0  0  0  0  0  0  0  0  0  0  0
  -27.1632  -29.4948   20.6123 C   0  0  0  0  0  0  0  0  0  0  0  0
  -25.8084  -27.0763   19.5826 C   0  0  0  0  0  0  0  0  0  0  0  0
  -21.6240  -29.0770   23.9551 C   0  0  0  0  0  0  0  0  0  0  0  0
  -29.7777  -12.7400   18.6070 C   0  0  0  0  0  0  0  0  0  0  0  0
  -22.8783  -28.2567   24.2391 C   0  0  0  0  0  0  0  0  0  0  0  0
  -28.4440  -12.3225   19.2307 C   0  0  0  0  0  0  0  0  0  0  0  0
  -30.5323  -13.7304   19.4921 C   0  0  0  0  0  0  0  0  0  0  0  0
  -28.4284  -14.4960   20.5202 C   0  0  0  0  0  0  0  0  0  0  0  0
  -24.1226  -29.1513   24.2906 C   0  0  1  0  0  0  0  0  0  0  0  0
  -25.6707  -29.2593   20.8229 C   0  0  1  0  0  0  0  0  0  0  0  0
  -27.6023  -13.5488   19.6347 C   0  0  2  0  0  0  0  0  0  0  0  0
  -22.3954  -27.6215   13.9970 C   0  0  0  0  0  0  0  0  0  0  0  0
  -22.0091  -26.4570   20.5059 C   0  0  0  0  0  0  0  0  0  0  0  0
  -21.2863  -25.8860   18.1779 C   0  0  0  0  0  0  0  0  0  0  0  0
  -20.8302  -28.1578   19.1017 C   0  0  0  0  0  0  0  0  0  0  0  0
  -25.8768  -29.0487   14.5620 C   0  0  0  0  0  0  0  0  0  0  0  0
  -31.2612  -24.5267   20.4758 C   0  0  0  0  0  0  0  0  0  1  0  0
  -31.4737  -23.0327   20.6261 C   0  0  0  0  0  0  0  0  0  0  0  0
  -23.1974  -27.5257   18.4781 C   0  0  1  0  0  0  0  0  0  0  0  0
  -23.5008  -28.3106   14.7819 C   0  0  2  0  0  0  0  0  0  0  0  0
  -21.8583  -27.0059   19.0731 C   0  0  0  0  0  0  0  0  0  0  0  0
  -26.2666  -12.0195   21.0342 N   0  0  0  0  0  0  0  0  0  0  0  0
  -26.2990  -13.1428   20.2971 N   0  0  0  0  0  0  0  0  0  0  0  0
  -25.0986  -28.3411   19.8361 N   0  0  0  0  0  0  0  0  0  0  0  0
  -29.6740  -14.8677   19.8310 N   0  0  0  0  0  0  0  0  0  0  0  0
  -24.9610  -14.9452   19.5412 N   0  0  0  0  0  0  0  0  0  0  0  0
  -22.0930  -12.4837   22.0134 N   0  0  0  0  0  0  0  0  0  0  0  0
  -29.1724  -17.1722   19.8360 N   0  0  0  0  0  0  0  0  0  0  0  0
  -24.5475  -29.5037   22.9528 N   0  0  0  0  0  0  0  0  0  0  0  0
  -23.0794  -28.0763   17.1322 N   0  0  0  0  0  0  0  0  0  0  0  0
  -24.7173  -28.3743   13.9234 N   0  3  0  0  0  0  0  0  0  0  0  0
  -22.2926  -14.3634   20.7151 O   0  0  0  0  0  0  0  0  0  0  0  0
  -25.8170  -27.6046   22.5009 O   0  0  0  0  0  0  0  0  0  0  0  0
  -23.2006  -29.6574   19.5185 O   0  0  0  0  0  0  0  0  0  0  0  0
  -24.6016  -26.6390   16.1351 O   0  0  0  0  0  0  0  0  0  0  0  0
  -31.1537  -16.3905   18.9167 O   0  0  0  0  0  0  0  0  0  0  0  0
  -23.2877   -7.7573   24.7095 O   0  0  0  0  0  0  0  0  0  0  0  0
  -30.1143  -24.7543   19.6579 O   0  0  0  0  0  0  0  0  0  1  0  0
  -30.3131  -22.4549   21.2114 O   0  0  0  0  0  0  0  0  0  0  0  0
  -18.4666   -5.3733   23.4939 F   0  0  0  0  0  0  0  0  0  0  0  0
  -27.1490  -18.9774   20.4830 F   0  0  0  0  0  0  0  0  0  0  0  0
  -23.1517   -5.0655   24.0941 F   0  0  0  0  0  0  0  0  0  0  0  0
  1  2  1  0  0  0  0
  1  5  2  0  0  0  0
  2  6  2  0  0  0  0
  3  9  2  0  0  0  0
  3 18  1  0  0  0  0
  4 10  1  0  0  0  0
  4 18  2  0  0  0  0
  5 20  1  0  0  0  0
  6 22  1  0  0  0  0
  7 11  2  0  0  0  0
  7 21  1  0  0  0  0
  8 12  2  0  0  0  0
  8 24  1  0  0  0  0
  9 25  1  0  0  0  0
 10 25  2  0  0  0  0
 11 26  1  0  0  0  0
 12 27  1  0  0  0  0
 13 14  2  0  0  0  0
 13 28  1  0  0  0  0
 14 29  1  0  0  0  0
 15 23  1  0  0  0  0
 15 26  2  0  0  0  0
 16 27  2  0  0  0  0
 16 30  1  0  0  0  0
 17 29  2  0  0  0  0
 17 31  1  0  0  0  0
 18 32  1  0  0  0  0
 19 32  1  0  0  0  0
 19 33  2  0  0  0  0
 19 34  1  0  0  0  0
 20 22  2  0  0  0  0
 20 39  1  0  0  0  0
 21 23  2  0  0  0  0
 21 40  1  0  0  0  0
 22 48  1  0  0  0  0
 23 41  1  0  0  0  0
 24 30  2  0  0  0  0
 24 67  1  0  0  0  0
 25 76  1  0  0  0  0
 26 77  1  0  0  0  0
 27 78  1  0  0  0  0
 28 31  2  0  0  0  0
 28 76  1  0  0  0  0
 29 79  1  0  0  0  0
 30 80  1  0  0  0  0
 31 81  1  0  0  0  0
 32 61  2  0  0  0  0
 33 62  1  0  0  0  0
 33 65  1  0  0  0  0
 34 66  1  0  0  0  0
 34 71  2  0  0  0  0
 35 49  1  0  0  0  0
 35 68  1  0  0  0  0
 35 72  2  0  0  0  0
 36 58  1  0  0  0  0
 36 63  1  0  0  0  0
 36 73  2  0  0  0  0
 37 59  1  0  0  0  0
 37 69  1  0  0  0  0
 37 74  2  0  0  0  0
 38 64  1  0  0  0  0
 38 67  1  0  0  0  0
 38 75  2  0  0  0  0
 39 42  1  0  0  0  0
 40 49  1  0  0  0  0
 41 63  1  0  0  0  0
 42 44  1  0  0  0  0
 43 45  1  0  0  0  0
 43 46  1  0  0  0  0
 44 48  1  0  0  0  0
 45 50  1  0  0  0  0
 46 64  1  0  0  0  0
 47 50  1  0  0  0  0
 47 64  1  0  0  0  0
 48 68  1  0  0  0  0
 49 63  1  0  0  0  0
 50 62  1  0  0  0  0
 51 59  1  0  0  0  0
 52 60  1  0  0  0  0
 53 60  1  0  0  0  0
 54 60  1  0  0  0  0
 55 70  1  0  0  0  0
 56 57  1  0  0  0  0
 56 77  1  0  0  0  0
 57 78  1  0  0  0  0
 58 60  1  0  0  0  0
 58 69  1  0  0  0  0
 59 70  1  0  0  0  0
 61 62  1  0  0  0  0
M  CHG  1  70   1
M  ISO  4  38 100  56 101  67 100  77 101
M  END
> <Batch ID>
0009

> <Smiles>
CNC(C)C(=O)NC(C(=O)N1Cc2cc([101O:1][101CH2:1]COc3ccc([100NH:0][100C:0](=O)N4CCCC(n5nc(-c6ccc(Oc7ccc(F)cc7F)cc6)c(C(N)=O)c5N)C4)c(F)c3)ccc2CC1C(=O)NC1CCCc2ccccc21)C(C)(C)C

> <Shape>
0.293

> <Color>
0.123

> <Negative vol penalty>
0.000

$$$$

  -OEChem-04042320373D

 83 91  0     1  0  0  0  0  0999 V2000
  -26.7213  -34.4473   25.1654 C   0  0  0  0  0  0  0  0  0  0  0  0
  -27.1370  -33.2261   24.6445 C   0  0  0  0  0  0  0  0  0  0  0  0
  -23.3925  -13.8903   19.6841 C   0  0  0  0  0  0  0  0  0  0  0  0
  -23.5623  -14.8974   21.8736 C   0  0  0  0  0  0  0  0  0  0  0  0
  -25.3957  -34.6200   25.5613 C   0  0  0  0  0  0  0  0  0  0  0  0
  -26.2275  -32.1765   24.5202 C   0  0  0  0  0  0  0  0  0  0  0  0
  -26.5824  -29.8170   20.0534 C   0  0  0  0  0  0  0  0  0  0  0  0
  -22.8379  -12.7444   20.2541 C   0  0  0  0  0  0  0  0  0  0  0  0
  -23.0077  -13.7515   22.4436 C   0  0  0  0  0  0  0  0  0  0  0  0
  -27.6336  -28.9157   19.8912 C   0  0  0  0  0  0  0  0  0  0  0  0
  -23.9294  -10.0127   21.9186 C   0  0  0  0  0  0  0  0  0  0  0  0
  -24.4106   -8.7769   21.4865 C   0  0  0  0  0  0  0  0  0  0  0  0
  -26.1224  -27.0851   20.3204 C   0  0  0  0  0  0  0  0  0  0  0  0
  -29.3137  -21.8520   22.7577 C   0  0  0  0  0  0  0  0  0  0  0  0
  -31.2962  -23.3992   21.5500 C   0  0  0  0  0  0  0  0  0  0  0  0
  -22.1931   -8.1745   20.7401 C   0  0  0  0  0  0  0  0  0  0  0  0
  -23.7548  -14.9668   20.4938 C   0  0  0  0  0  0  0  0  0  0  0  0
  -23.6403  -17.2858   19.4370 C   0  0  0  0  0  0  0  0  0  0  0  0
  -24.4671  -33.5750   25.4327 C   0  0  0  0  0  0  0  0  0  0  0  0
  -25.2933  -29.3590   20.3617 C   0  0  0  0  0  0  0  0  0  0  0  0
  -24.8885  -32.3349   24.9160 C   0  0  0  0  0  0  0  0  0  0  0  0
  -25.0560  -27.9825   20.4835 C   0  0  0  0  0  0  0  0  0  0  0  0
  -30.4988  -21.2552   22.3276 C   0  0  0  0  0  0  0  0  0  0  0  0
  -22.6454  -12.6750   21.6339 C   0  0  0  0  0  0  0  0  0  0  0  0
  -27.4043  -27.5497   20.0275 C   0  0  0  0  0  0  0  0  0  0  0  0
  -22.5801  -10.3294   21.7616 C   0  0  0  0  0  0  0  0  0  0  0  0
  -30.1111  -23.9959   21.9801 C   0  0  0  0  0  0  0  0  0  0  0  0
  -23.5425   -7.8578   20.8972 C   0  0  0  0  0  0  0  0  0  0  0  0
  -29.1198  -23.2224   22.5839 C   0  0  0  0  0  0  0  0  0  0  0  0
  -31.4901  -22.0288   21.7238 C   0  0  0  0  0  0  0  0  0  0  0  0
  -21.7119   -9.4103   21.1723 C   0  0  0  0  0  0  0  0  0  0  0  0
  -24.3283  -16.1505   19.9056 C   0  0  0  0  0  0  0  0  0  0  0  0
  -24.6289  -18.1209   18.9772 C   0  0  0  0  0  0  0  0  0  0  0  0
  -22.2332  -17.5608   19.4191 C   0  0  0  0  0  0  0  0  0  0  0  0
  -23.2940  -29.7593   22.8002 C   0  0  0  0  0  0  0  0  0  0  0  0
  -21.2554  -28.1063   20.8939 C   0  0  0  0  0  0  0  0  0  0  0  0
  -20.8374  -25.8977   18.3260 C   0  0  0  0  0  0  0  0  0  0  0  0
  -30.4393  -18.6820   20.3100 C   0  0  0  0  0  0  0  0  0  0  0  0
  -23.0560  -33.7940   25.9182 C   0  0  0  0  0  0  0  0  0  0  0  0
  -24.1646  -30.3425   20.5071 C   0  0  0  0  0  0  0  0  0  0  0  0
  -23.6862  -27.4383   20.7937 C   0  0  0  0  0  0  0  0  0  0  0  0
  -22.0667  -32.7508   25.4051 C   0  0  0  0  0  0  0  0  0  0  0  0
  -29.0308  -18.0366   17.1043 C   0  0  0  0  0  0  0  0  0  0  0  0
  -22.6413  -31.3467   25.5635 C   0  0  0  0  0  0  0  0  0  0  0  0
  -27.6038  -17.5825   17.4165 C   0  0  0  0  0  0  0  0  0  0  0  0
  -30.0236  -17.5384   18.1523 C   0  0  0  0  0  0  0  0  0  0  0  0
  -28.2480  -17.4212   19.8573 C   0  0  0  0  0  0  0  0  0  0  0  0
  -23.9257  -31.1804   24.7424 C   0  0  1  0  0  0  0  0  0  0  0  0
  -22.9993  -29.7976   21.3273 C   0  0  1  0  0  0  0  0  0  0  0  0
  -27.2024  -17.9463   18.8586 C   0  0  2  0  0  0  0  0  0  0  0  0
  -19.0539  -24.7102   17.0196 C   0  0  0  0  0  0  0  0  0  0  0  0
  -20.8257  -26.1889   23.2281 C   0  0  0  0  0  0  0  0  0  0  0  0
  -19.8319  -24.5550   21.6123 C   0  0  0  0  0  0  0  0  0  0  0  0
  -18.7492  -26.7747   21.9634 C   0  0  0  0  0  0  0  0  0  0  0  0
  -21.6852  -27.1686   15.7912 C   0  0  0  0  0  0  0  0  0  0  0  0
  -30.7028  -19.7898   22.5151 C   0  0  0  0  0  0  0  0  0  0  0  0
  -29.7361  -27.1223   20.2179 C   0  0  0  0  0  0  0  0  0  1  0  0
  -30.5624  -25.9408   20.6880 C   0  0  0  0  0  0  0  0  0  0  0  0
  -20.9291  -26.6467   20.6893 C   0  0  1  0  0  0  0  0  0  0  0  0
  -19.9472  -25.9386   17.0970 C   0  0  2  0  0  0  0  0  0  0  0  0
  -20.1103  -26.0513   21.8693 C   0  0  0  0  0  0  0  0  0  0  0  0
  -25.6518  -16.2518   19.7569 N   0  0  0  0  0  0  0  0  0  0  0  0
  -25.8033  -17.4607   19.1896 N   0  0  0  0  0  0  0  0  0  0  0  0
  -22.6165  -28.4403   20.9330 N   0  0  0  0  0  0  0  0  0  0  0  0
  -29.5855  -17.9176   19.4977 N   0  0  0  0  0  0  0  0  0  0  0  0
  -24.5996  -19.3482   18.4157 N   0  0  0  0  0  0  0  0  0  0  0  0
  -21.3569  -16.5941   19.9309 N   0  0  0  0  0  0  0  0  0  0  0  0
  -23.6098  -30.9902   23.3429 N   0  0  0  0  0  0  0  0  0  0  0  0
  -20.2640  -26.5547   19.3941 N   0  0  0  0  0  0  0  0  0  0  0  0
  -29.9443  -19.0034   21.5679 N   0  0  0  0  0  0  0  0  0  0  0  0
  -20.7752  -25.9963   15.8593 N   0  3  0  0  0  0  0  0  0  0  0  0
  -21.7658  -18.6252   18.9478 O   0  0  0  0  0  0  0  0  0  0  0  0
  -23.2376  -28.6922   23.4001 O   0  0  0  0  0  0  0  0  0  0  0  0
  -20.3363  -28.9213   21.0074 O   0  0  0  0  0  0  0  0  0  0  0  0
  -21.9303  -25.3357   18.3384 O   0  0  0  0  0  0  0  0  0  0  0  0
  -31.5574  -19.0553   19.9394 O   0  0  0  0  0  0  0  0  0  0  0  0
  -22.1040  -11.5571   22.1904 O   0  0  0  0  0  0  0  0  0  0  0  0
  -28.4288  -26.6678   19.8703 O   0  0  0  0  0  0  0  0  0  1  0  0
  -29.9216  -25.3419   21.8078 O   0  0  0  0  0  0  0  0  0  0  0  0
  -24.0050   -6.6716   20.4809 F   0  0  0  0  0  0  0  0  0  0  0  0
  -27.9788  -23.7899   22.9986 F   0  0  0  0  0  0  0  0  0  0  0  0
  -32.6325  -21.4644   21.3081 F   0  0  0  0  0  0  0  0  0  0  0  0
  -20.4148   -9.7094   21.0177 F   0  0  0  0  0  0  0  0  0  0  0  0
  1  2  1  0  0  0  0
  1  5  2  0  0  0  0
  2  6  2  0  0  0  0
  3  8  2  0  0  0  0
  3 17  1  0  0  0  0
  4  9  1  0  0  0  0
  4 17  2  0  0  0  0
  5 19  1  0  0  0  0
  6 21  1  0  0  0  0
  7 10  2  0  0  0  0
  7 20  1  0  0  0  0
  8 24  1  0  0  0  0
  9 24  2  0  0  0  0
 10 25  1  0  0  0  0
 11 12  2  0  0  0  0
 11 26  1  0  0  0  0
 12 28  1  0  0  0  0
 13 22  1  0  0  0  0
 13 25  2  0  0  0  0
 14 23  2  0  0  0  0
 14 29  1  0  0  0  0
 15 27  1  0  0  0  0
 15 30  2  0  0  0  0
 16 28  2  0  0  0  0
 16 31  1  0  0  0  0
 17 32  1  0  0  0  0
 18 32  1  0  0  0  0
 18 33  2  0  0  0  0
 18 34  1  0  0  0  0
 19 21  2  0  0  0  0
 19 39  1  0  0  0  0
 20 22  2  0  0  0  0
 20 40  1  0  0  0  0
 21 48  1  0  0  0  0
 22 41  1  0  0  0  0
 23 30  1  0  0  0  0
 23 56  1  0  0  0  0
 24 77  1  0  0  0  0
 25 78  1  0  0  0  0
 26 31  2  0  0  0  0
 26 77  1  0  0  0  0
 27 29  2  0  0  0  0
 27 79  1  0  0  0  0
 28 80  1  0  0  0  0
 29 81  1  0  0  0  0
 30 82  1  0  0  0  0
 31 83  1  0  0  0  0
 32 62  2  0  0  0  0
 33 63  1  0  0  0  0
 33 66  1  0  0  0  0
 34 67  1  0  0  0  0
 34 72  2  0  0  0  0
 35 49  1  0  0  0  0
 35 68  1  0  0  0  0
 35 73  2  0  0  0  0
 36 59  1  0  0  0  0
 36 64  1  0  0  0  0
 36 74  2  0  0  0  0
 37 60  1  0  0  0  0
 37 69  1  0  0  0  0
 37 75  2  0  0  0  0
 38 65  1  0  0  0  0
 38 70  1  0  0  0  0
 38 76  2  0  0  0  0
 39 42  1  0  0  0  0
 40 49  1  0  0  0  0
 41 64  1  0  0  0  0
 42 44  1  0  0  0  0
 43 45  1  0  0  0  0
 43 46  1  0  0  0  0
 44 48  1  0  0  0  0
 45 50  1  0  0  0  0
 46 65  1  0  0  0  0
 47 50  1  0  0  0  0
 47 65  1  0  0  0  0
 48 68  1  0  0  0  0
 49 64  1  0  0  0  0
 50 63  1  0  0  0  0
 51 60  1  0  0  0  0
 52 61  1  0  0  0  0
 53 61  1  0  0  0  0
 54 61  1  0  0  0  0
 55 71  1  0  0  0  0
 56 70  1  0  0  0  0
 57 58  1  0  0  0  0
 57 78  1  0  0  0  0
 58 79  1  0  0  0  0
 59 61  1  0  0  0  0
 59 69  1  0  0  0  0
 60 71  1  0  0  0  0
 62 63  1  0  0  0  0
M  CHG  1  71   1
M  ISO  4  38 100  57 101  70 100  78 101
M  END
> <Batch ID>
0009

> <Smiles>
CNC(C)C(=O)NC(C(=O)N1Cc2cc([101O:1][101CH2:1]COc3cc(F)c(C[100NH:0][100C:0](=O)N4CCCC(n5nc(-c6ccc(Oc7ccc(F)cc7F)cc6)c(C(N)=O)c5N)C4)cc3F)ccc2CC1C(=O)NC1CCCc2ccccc21)C(C)(C)C

> <Shape>
0.256

> <Color>
0.081

> <Negative vol penalty>
0.000

$$$$

  -OEChem-04042320373D

 83 92  0     1  0  0  0  0  0999 V2000
  -27.5490  -34.3165   25.5178 C   0  0  0  0  0  0  0  0  0  0  0  0
  -28.0726  -33.0487   25.2858 C   0  0  0  0  0  0  0  0  0  0  0  0
  -23.1626   -9.7560   19.9100 C   0  0  0  0  0  0  0  0  0  0  0  0
  -23.9124   -9.7760   22.2066 C   0  0  0  0  0  0  0  0  0  0  0  0
  -26.2331  -34.6028   25.1569 C   0  0  0  0  0  0  0  0  0  0  0  0
  -27.2802  -32.0660   24.6937 C   0  0  0  0  0  0  0  0  0  0  0  0
  -29.1225  -27.6817   20.8350 C   0  0  0  0  0  0  0  0  0  0  0  0
  -30.9477  -19.3500   20.7005 C   0  0  0  0  0  0  0  0  0  0  0  0
  -30.8454  -17.9591   20.6808 C   0  0  0  0  0  0  0  0  0  0  0  0
  -22.4747   -8.5656   20.1449 C   0  0  0  0  0  0  0  0  0  0  0  0
  -23.2244   -8.5855   22.4416 C   0  0  0  0  0  0  0  0  0  0  0  0
  -29.4390  -26.3372   21.0250 C   0  0  0  0  0  0  0  0  0  0  0  0
  -20.0366   -7.6256   23.0218 C   0  0  0  0  0  0  0  0  0  0  0  0
  -19.2780   -7.5367   24.1889 C   0  0  0  0  0  0  0  0  0  0  0  0
  -27.2010  -25.7236   20.3661 C   0  0  0  0  0  0  0  0  0  0  0  0
  -29.3027  -19.4461   22.4673 C   0  0  0  0  0  0  0  0  0  0  0  0
  -20.6093   -5.6543   24.9109 C   0  0  0  0  0  0  0  0  0  0  0  0
  -23.8815  -10.3613   20.9409 C   0  0  0  0  0  0  0  0  0  0  0  0
  -24.1006  -12.9011   20.8482 C   0  0  0  0  0  0  0  0  0  0  0  0
  -25.4271  -33.6259   24.5512 C   0  0  0  0  0  0  0  0  0  0  0  0
  -27.8375  -28.0585   20.4190 C   0  0  0  0  0  0  0  0  0  0  0  0
  -25.9518  -32.3390   24.3255 C   0  0  0  0  0  0  0  0  0  0  0  0
  -26.8715  -27.0733   20.1692 C   0  0  0  0  0  0  0  0  0  0  0  0
  -30.1764  -20.0935   21.5938 C   0  0  0  0  0  0  0  0  0  0  0  0
  -29.9717  -17.3116   21.5544 C   0  0  0  0  0  0  0  0  0  0  0  0
  -22.5056   -7.9803   21.4107 C   0  0  0  0  0  0  0  0  0  0  0  0
  -28.4773  -25.3581   20.7933 C   0  0  0  0  0  0  0  0  0  0  0  0
  -21.0815   -6.7288   22.7992 C   0  0  0  0  0  0  0  0  0  0  0  0
  -19.5643   -6.5511   25.1335 C   0  0  0  0  0  0  0  0  0  0  0  0
  -29.2004  -18.0551   22.4476 C   0  0  0  0  0  0  0  0  0  0  0  0
  -21.3679   -5.7432   23.7437 C   0  0  0  0  0  0  0  0  0  0  0  0
  -24.5927  -11.5907   20.6987 C   0  0  0  0  0  0  0  0  0  0  0  0
  -25.1564  -13.7065   20.4974 C   0  0  0  0  0  0  0  0  0  0  0  0
  -22.8049  -13.3502   21.2668 C   0  0  0  0  0  0  0  0  0  0  0  0
  -25.4986  -29.8105   21.6695 C   0  0  0  0  0  0  0  0  0  0  0  0
  -24.1193  -29.3325   18.7727 C   0  0  0  0  0  0  0  0  0  0  0  0
  -23.8767  -27.4143   15.9605 C   0  0  0  0  0  0  0  0  0  0  0  0
  -30.5646  -15.0146   20.7066 C   0  0  0  0  0  0  0  0  0  0  0  0
  -23.9957  -33.9680   24.2217 C   0  0  0  0  0  0  0  0  0  0  0  0
  -27.5200  -29.5113   20.1929 C   0  0  0  0  0  0  0  0  0  0  0  0
  -25.4834  -27.4242   19.7019 C   0  0  0  0  0  0  0  0  0  0  0  0
  -23.3405  -32.9828   23.2571 C   0  0  0  0  0  0  0  0  0  0  0  0
  -29.5780  -12.5743   18.3089 C   0  0  0  0  0  0  0  0  0  0  0  0
  -23.6263  -31.5468   23.6849 C   0  0  0  0  0  0  0  0  0  0  0  0
  -28.1526  -12.2087   18.7292 C   0  0  0  0  0  0  0  0  0  0  0  0
  -31.1393  -23.6438   21.3325 C   0  0  0  0  0  0  0  0  0  0  0  0
  -30.4762  -12.8348   19.5168 C   0  0  0  0  0  0  0  0  0  0  0  0
  -31.1624  -22.2347   20.7404 C   0  0  0  0  0  0  0  0  0  0  0  0
  -28.5310  -13.4513   20.8971 C   0  0  0  0  0  0  0  0  0  0  0  0
  -29.5082  -22.3341   22.5080 C   0  0  0  0  0  0  0  0  0  0  0  0
  -25.1313  -31.2538   23.6627 C   0  0  1  0  0  0  0  0  0  0  0  0
  -26.0265  -29.8144   20.2627 C   0  0  1  0  0  0  0  0  0  0  0  0
  -27.5723  -13.2433   19.7133 C   0  0  2  0  0  0  0  0  0  0  0  0
  -29.7600  -23.7412   21.9679 C   0  0  2  0  0  0  0  0  0  1  0  0
  -22.6355  -27.2556   13.7853 C   0  0  0  0  0  0  0  0  0  0  0  0
  -21.6615  -28.2954   20.2537 C   0  0  0  0  0  0  0  0  0  0  0  0
  -20.8730  -27.2921   18.0997 C   0  0  0  0  0  0  0  0  0  0  0  0
  -21.1558  -29.7630   18.2929 C   0  0  0  0  0  0  0  0  0  0  0  0
  -26.3705  -27.6620   14.3860 C   0  0  0  0  0  0  0  0  0  0  0  0
  -23.2046  -28.2858   18.1838 C   0  0  1  0  0  0  0  0  0  0  0  0
  -23.8776  -27.7815   14.4875 C   0  0  2  0  0  0  0  0  0  0  0  0
  -21.7492  -28.4023   18.7182 C   0  0  0  0  0  0  0  0  0  0  0  0
  -25.8624  -11.5608   20.2850 N   0  0  0  0  0  0  0  0  0  0  0  0
  -26.1769  -12.8624   20.1714 N   0  0  0  0  0  0  0  0  0  0  0  0
  -30.2780  -21.4687   21.6135 N   0  0  3  0  0  0  0  0  0  0  0  0
  -25.2196  -28.8587   19.5013 N   0  0  0  0  0  0  0  0  0  0  0  0
  -29.8644  -13.8280   20.4023 N   0  0  0  0  0  0  0  0  0  0  0  0
  -25.3021  -15.0473   20.4389 N   0  0  0  0  0  0  0  0  0  0  0  0
  -21.8371  -12.3895   21.5904 N   0  0  0  0  0  0  0  0  0  0  0  0
  -29.8698  -15.8985   21.5316 N   0  0  0  0  0  0  0  0  0  0  0  0
  -25.5836  -31.0343   22.3056 N   0  0  0  0  0  0  0  0  0  0  0  0
  -23.3210  -28.4106   16.7349 N   0  0  0  0  0  0  0  0  0  0  0  0
  -25.0769  -27.2102   13.8120 N   0  3  0  0  0  0  0  0  0  0  0  0
  -22.5089  -14.5673   21.3357 O   0  0  0  0  0  0  0  0  0  0  0  0
  -25.0463  -28.7744   22.1423 O   0  0  0  0  0  0  0  0  0  0  0  0
  -23.8709  -30.5263   18.5869 O   0  0  0  0  0  0  0  0  0  0  0  0
  -24.3210  -26.3485   16.3815 O   0  0  0  0  0  0  0  0  0  0  0  0
  -31.6859  -15.2428   20.2457 O   0  0  0  0  0  0  0  0  0  0  0  0
  -21.8343   -6.8188   21.6403 O   0  0  0  0  0  0  0  0  0  0  0  0
  -28.7834  -24.0452   20.9786 O   0  0  0  0  0  0  0  0  0  1  0  0
  -18.8367   -6.4668   26.2549 F   0  0  0  0  0  0  0  0  0  0  0  0
  -28.3571  -17.4432   23.2914 F   0  0  0  0  0  0  0  0  0  0  0  0
  -22.3713   -4.8795   23.5360 F   0  0  0  0  0  0  0  0  0  0  0  0
  1  2  1  0  0  0  0
  1  5  2  0  0  0  0
  2  6  2  0  0  0  0
  3 10  2  0  0  0  0
  3 18  1  0  0  0  0
  4 11  1  0  0  0  0
  4 18  2  0  0  0  0
  5 20  1  0  0  0  0
  6 22  1  0  0  0  0
  7 12  2  0  0  0  0
  7 21  1  0  0  0  0
  8  9  2  0  0  0  0
  8 24  1  0  0  0  0
  9 25  1  0  0  0  0
 10 26  1  0  0  0  0
 11 26  2  0  0  0  0
 12 27  1  0  0  0  0
 13 14  2  0  0  0  0
 13 28  1  0  0  0  0
 14 29  1  0  0  0  0
 15 23  1  0  0  0  0
 15 27  2  0  0  0  0
 16 24  2  0  0  0  0
 16 30  1  0  0  0  0
 17 29  2  0  0  0  0
 17 31  1  0  0  0  0
 18 32  1  0  0  0  0
 19 32  1  0  0  0  0
 19 33  2  0  0  0  0
 19 34  1  0  0  0  0
 20 22  2  0  0  0  0
 20 39  1  0  0  0  0
 21 23  2  0  0  0  0
 21 40  1  0  0  0  0
 22 51  1  0  0  0  0
 23 41  1  0  0  0  0
 24 65  1  0  0  0  0
 25 30  2  0  0  0  0
 25 70  1  0  0  0  0
 26 79  1  0  0  0  0
 27 80  1  0  0  0  0
 28 31  2  0  0  0  0
 28 79  1  0  0  0  0
 29 81  1  0  0  0  0
 30 82  1  0  0  0  0
 31 83  1  0  0  0  0
 32 63  2  0  0  0  0
 33 64  1  0  0  0  0
 33 68  1  0  0  0  0
 34 69  1  0  0  0  0
 34 74  2  0  0  0  0
 35 52  1  0  0  0  0
 35 71  1  0  0  0  0
 35 75  2  0  0  0  0
 36 60  1  0  0  0  0
 36 66  1  0  0  0  0
 36 76  2  0  0  0  0
 37 61  1  0  0  0  0
 37 72  1  0  0  0  0
 37 77  2  0  0  0  0
 38 67  1  0  0  0  0
 38 70  1  0  0  0  0
 38 78  2  0  0  0  0
 39 42  1  0  0  0  0
 40 52  1  0  0  0  0
 41 66  1  0  0  0  0
 42 44  1  0  0  0  0
 43 45  1  0  0  0  0
 43 47  1  0  0  0  0
 44 51  1  0  0  0  0
 45 53  1  0  0  0  0
 46 48  1  0  0  0  0
 46 54  1  0  0  0  0
 47 67  1  0  0  0  0
 48 65  1  0  0  0  0
 49 53  1  0  0  0  0
 49 67  1  0  0  0  0
 50 54  1  0  0  0  0
 50 65  1  0  0  0  0
 51 71  1  0  0  0  0
 52 66  1  0  0  0  0
 53 64  1  0  0  0  0
 54 80  1  0  0  0  0
 55 61  1  0  0  0  0
 56 62  1  0  0  0  0
 57 62  1  0  0  0  0
 58 62  1  0  0  0  0
 59 73  1  0  0  0  0
 60 62  1  0  0  0  0
 60 72  1  0  0  0  0
 61 73  1  0  0  0  0
 63 64  1  0  0  0  0
M  CHG  1  73   1
M  ISO  4  38 100  54 101  70 100  80 101
M  END
> <Batch ID>
0009

> <Smiles>
CNC(C)C(=O)NC(C(=O)N1Cc2cc([101O:1][101CH:1]3CCN(c4ccc([100NH:0][100C:0](=O)N5CCCC(n6nc(-c7ccc(Oc8ccc(F)cc8F)cc7)c(C(N)=O)c6N)C5)c(F)c4)C3)ccc2CC1C(=O)NC1CCCc2ccccc21)C(C)(C)C

> <Shape>
0.353

> <Color>
0.208

> <Negative vol penalty>
0.000

$$$$

  -OEChem-04042320373D

 83 92  0     1  0  0  0  0  0999 V2000
  -27.4998  -34.2986   25.5374 C   0  0  0  0  0  0  0  0  0  0  0  0
  -28.0279  -33.0329   25.3038 C   0  0  0  0  0  0  0  0  0  0  0  0
  -23.1615   -9.7574   19.9114 C   0  0  0  0  0  0  0  0  0  0  0  0
  -23.9101   -9.7793   22.2084 C   0  0  0  0  0  0  0  0  0  0  0  0
  -26.1832  -34.5810   25.1756 C   0  0  0  0  0  0  0  0  0  0  0  0
  -27.2394  -32.0485   24.7093 C   0  0  0  0  0  0  0  0  0  0  0  0
  -29.1005  -27.6768   20.8453 C   0  0  0  0  0  0  0  0  0  0  0  0
  -29.3054  -19.4421   22.4652 C   0  0  0  0  0  0  0  0  0  0  0  0
  -29.2040  -18.0512   22.4442 C   0  0  0  0  0  0  0  0  0  0  0  0
  -22.4725   -8.5678   20.1473 C   0  0  0  0  0  0  0  0  0  0  0  0
  -23.2211   -8.5897   22.4443 C   0  0  0  0  0  0  0  0  0  0  0  0
  -29.4213  -26.3331   21.0334 C   0  0  0  0  0  0  0  0  0  0  0  0
  -20.0321   -7.6332   23.0240 C   0  0  0  0  0  0  0  0  0  0  0  0
  -19.2728   -7.5462   24.1908 C   0  0  0  0  0  0  0  0  0  0  0  0
  -27.1860  -25.7130   20.3713 C   0  0  0  0  0  0  0  0  0  0  0  0
  -30.8500  -17.9578   20.6781 C   0  0  0  0  0  0  0  0  0  0  0  0
  -20.6021   -5.6635   24.9156 C   0  0  0  0  0  0  0  0  0  0  0  0
  -23.8804  -10.3632   20.9419 C   0  0  0  0  0  0  0  0  0  0  0  0
  -24.1017  -12.9028   20.8465 C   0  0  0  0  0  0  0  0  0  0  0  0
  -25.3812  -33.6024   24.5675 C   0  0  0  0  0  0  0  0  0  0  0  0
  -27.8146  -28.0500   20.4286 C   0  0  0  0  0  0  0  0  0  0  0  0
  -25.9104  -32.3177   24.3402 C   0  0  0  0  0  0  0  0  0  0  0  0
  -26.8522  -27.0619   20.1761 C   0  0  0  0  0  0  0  0  0  0  0  0
  -30.1791  -20.0910   21.5927 C   0  0  0  0  0  0  0  0  0  0  0  0
  -29.9763  -17.3090   21.5507 C   0  0  0  0  0  0  0  0  0  0  0  0
  -22.5022   -7.9840   21.4137 C   0  0  0  0  0  0  0  0  0  0  0  0
  -28.4631  -25.3512   20.7992 C   0  0  0  0  0  0  0  0  0  0  0  0
  -21.0764   -6.7352   22.8029 C   0  0  0  0  0  0  0  0  0  0  0  0
  -19.5578   -6.5614   25.1366 C   0  0  0  0  0  0  0  0  0  0  0  0
  -30.9514  -19.3489   20.6992 C   0  0  0  0  0  0  0  0  0  0  0  0
  -21.3614   -5.7504   23.7487 C   0  0  0  0  0  0  0  0  0  0  0  0
  -24.5928  -11.5918   20.6987 C   0  0  0  0  0  0  0  0  0  0  0  0
  -25.1584  -13.7069   20.4953 C   0  0  0  0  0  0  0  0  0  0  0  0
  -22.8062  -13.3534   21.2640 C   0  0  0  0  0  0  0  0  0  0  0  0
  -25.4685  -29.7920   21.6796 C   0  0  0  0  0  0  0  0  0  0  0  0
  -24.0938  -29.3141   18.7806 C   0  0  0  0  0  0  0  0  0  0  0  0
  -23.8606  -27.3997   15.9650 C   0  0  0  0  0  0  0  0  0  0  0  0
  -30.5675  -15.0105   20.7058 C   0  0  0  0  0  0  0  0  0  0  0  0
  -23.9489  -33.9403   24.2370 C   0  0  0  0  0  0  0  0  0  0  0  0
  -27.4924  -29.5020   20.2045 C   0  0  0  0  0  0  0  0  0  0  0  0
  -25.4633  -27.4089   19.7080 C   0  0  0  0  0  0  0  0  0  0  0  0
  -23.2981  -32.9544   23.2702 C   0  0  0  0  0  0  0  0  0  0  0  0
  -29.5801  -12.5684   18.3104 C   0  0  0  0  0  0  0  0  0  0  0  0
  -23.5883  -31.5187   23.6959 C   0  0  0  0  0  0  0  0  0  0  0  0
  -28.1542  -12.2044   18.7304 C   0  0  0  0  0  0  0  0  0  0  0  0
  -31.1304  -23.6449   21.3382 C   0  0  0  0  0  0  0  0  0  0  0  0
  -30.4780  -12.8294   19.5185 C   0  0  0  0  0  0  0  0  0  0  0  0
  -31.1588  -22.2369   20.7438 C   0  0  0  0  0  0  0  0  0  0  0  0
  -28.5326  -13.4492   20.8970 C   0  0  0  0  0  0  0  0  0  0  0  0
  -29.5024  -22.3278   22.5099 C   0  0  0  0  0  0  0  0  0  0  0  0
  -25.0943  -31.2307   23.6748 C   0  0  1  0  0  0  0  0  0  0  0  0
  -25.9978  -29.8000   20.2733 C   0  0  1  0  0  0  0  0  0  0  0  0
  -27.5743  -13.2406   19.7130 C   0  0  2  0  0  0  0  0  0  0  0  0
  -29.7501  -23.7366   21.9724 C   0  0  2  0  0  0  0  0  0  1  0  0
  -22.6221  -27.2404   13.7883 C   0  0  0  0  0  0  0  0  0  0  0  0
  -21.6380  -28.2663   20.2574 C   0  0  0  0  0  0  0  0  0  0  0  0
  -20.8550  -27.2639   18.1009 C   0  0  0  0  0  0  0  0  0  0  0  0
  -21.1293  -29.7355   18.2985 C   0  0  0  0  0  0  0  0  0  0  0  0
  -26.3550  -27.6584   14.3935 C   0  0  0  0  0  0  0  0  0  0  0  0
  -23.1832  -28.2653   18.1890 C   0  0  1  0  0  0  0  0  0  0  0  0
  -23.8617  -27.7694   14.4926 C   0  0  2  0  0  0  0  0  0  0  0  0
  -21.7269  -28.3760   18.7221 C   0  0  0  0  0  0  0  0  0  0  0  0
  -25.8626  -11.5603   20.2857 N   0  0  0  0  0  0  0  0  0  0  0  0
  -26.1783  -12.8615   20.1708 N   0  0  0  0  0  0  0  0  0  0  0  0
  -30.2761  -21.4665   21.6148 N   0  0  3  0  0  0  0  0  0  0  0  0
  -25.1949  -28.8428   19.5095 N   0  0  0  0  0  0  0  0  0  0  0  0
  -29.8665  -13.8242   20.4025 N   0  0  0  0  0  0  0  0  0  0  0  0
  -25.3052  -15.0475   20.4354 N   0  0  0  0  0  0  0  0  0  0  0  0
  -21.8374  -12.3939   21.5881 N   0  0  0  0  0  0  0  0  0  0  0  0
  -29.8731  -15.8960   21.5295 N   0  0  0  0  0  0  0  0  0  0  0  0
  -25.5487  -31.0150   22.3178 N   0  0  0  0  0  0  0  0  0  0  0  0
  -23.3006  -28.3929   16.7405 N   0  0  0  0  0  0  0  0  0  0  0  0
  -25.0636  -27.2032   13.8174 N   0  3  0  0  0  0  0  0  0  0  0  0
  -22.5112  -14.5708   21.3313 O   0  0  0  0  0  0  0  0  0  0  0  0
  -25.0192  -28.7536   22.1502 O   0  0  0  0  0  0  0  0  0  0  0  0
  -23.8415  -30.5074   18.5965 O   0  0  0  0  0  0  0  0  0  0  0  0
  -24.3080  -26.3348   16.3847 O   0  0  0  0  0  0  0  0  0  0  0  0
  -31.6893  -15.2373   20.2452 O   0  0  0  0  0  0  0  0  0  0  0  0
  -21.8298   -6.8233   21.6443 O   0  0  0  0  0  0  0  0  0  0  0  0
  -28.7734  -24.0389   20.9826 O   0  0  0  0  0  0  0  0  0  1  0  0
  -18.8296   -6.4791   26.2578 F   0  0  0  0  0  0  0  0  0  0  0  0
  -31.7932  -19.9627   19.8554 F   0  0  0  0  0  0  0  0  0  0  0  0
  -22.3641   -4.8857   23.5424 F   0  0  0  0  0  0  0  0  0  0  0  0
  1  2  1  0  0  0  0
  1  5  2  0  0  0  0
  2  6  2  0  0  0  0
  3 10  2  0  0  0  0
  3 18  1  0  0  0  0
  4 11  1  0  0  0  0
  4 18  2  0  0  0  0
  5 20  1  0  0  0  0
  6 22  1  0  0  0  0
  7 12  2  0  0  0  0
  7 21  1  0  0  0  0
  8  9  2  0  0  0  0
  8 24  1  0  0  0  0
  9 25  1  0  0  0  0
 10 26  1  0  0  0  0
 11 26  2  0  0  0  0
 12 27  1  0  0  0  0
 13 14  2  0  0  0  0
 13 28  1  0  0  0  0
 14 29  1  0  0  0  0
 15 23  1  0  0  0  0
 15 27  2  0  0  0  0
 16 25  2  0  0  0  0
 16 30  1  0  0  0  0
 17 29  2  0  0  0  0
 17 31  1  0  0  0  0
 18 32  1  0  0  0  0
 19 32  1  0  0  0  0
 19 33  2  0  0  0  0
 19 34  1  0  0  0  0
 20 22  2  0  0  0  0
 20 39  1  0  0  0  0
 21 23  2  0  0  0  0
 21 40  1  0  0  0  0
 22 51  1  0  0  0  0
 23 41  1  0  0  0  0
 24 30  2  0  0  0  0
 24 65  1  0  0  0  0
 25 70  1  0  0  0  0
 26 79  1  0  0  0  0
 27 80  1  0  0  0  0
 28 31  2  0  0  0  0
 28 79  1  0  0  0  0
 29 81  1  0  0  0  0
 30 82  1  0  0  0  0
 31 83  1  0  0  0  0
 32 63  2  0  0  0  0
 33 64  1  0  0  0  0
 33 68  1  0  0  0  0
 34 69  1  0  0  0  0
 34 74  2  0  0  0  0
 35 52  1  0  0  0  0
 35 71  1  0  0  0  0
 35 75  2  0  0  0  0
 36 60  1  0  0  0  0
 36 66  1  0  0  0  0
 36 76  2  0  0  0  0
 37 61  1  0  0  0  0
 37 72  1  0  0  0  0
 37 77  2  0  0  0  0
 38 67  1  0  0  0  0
 38 70  1  0  0  0  0
 38 78  2  0  0  0  0
 39 42  1  0  0  0  0
 40 52  1  0  0  0  0
 41 66  1  0  0  0  0
 42 44  1  0  0  0  0
 43 45  1  0  0  0  0
 43 47  1  0  0  0  0
 44 51  1  0  0  0  0
 45 53  1  0  0  0  0
 46 48  1  0  0  0  0
 46 54  1  0  0  0  0
 47 67  1  0  0  0  0
 48 65  1  0  0  0  0
 49 53  1  0  0  0  0
 49 67  1  0  0  0  0
 50 54  1  0  0  0  0
 50 65  1  0  0  0  0
 51 71  1  0  0  0  0
 52 66  1  0  0  0  0
 53 64  1  0  0  0  0
 54 80  1  0  0  0  0
 55 61  1  0  0  0  0
 56 62  1  0  0  0  0
 57 62  1  0  0  0  0
 58 62  1  0  0  0  0
 59 73  1  0  0  0  0
 60 62  1  0  0  0  0
 60 72  1  0  0  0  0
 61 73  1  0  0  0  0
 63 64  1  0  0  0  0
M  CHG  1  73   1
M  ISO  4  38 100  54 101  70 100  80 101
M  END
> <Batch ID>
0009

> <Smiles>
CNC(C)C(=O)NC(C(=O)N1Cc2cc([101O:1][101CH:1]3CCN(c4ccc([100NH:0][100C:0](=O)N5CCCC(n6nc(-c7ccc(Oc8ccc(F)cc8F)cc7)c(C(N)=O)c6N)C5)cc4F)C3)ccc2CC1C(=O)NC1CCCc2ccccc21)C(C)(C)C

> <Shape>
0.352

> <Color>
0.209

> <Negative vol penalty>
0.000

$$$$

  -OEChem-04042320373D

 82 90  0     1  0  0  0  0  0999 V2000
  -19.2271  -28.9481   22.1330 C   0  0  0  0  0  0  0  0  0  0  0  0
  -20.4878  -28.4243   22.4006 C   0  0  0  0  0  0  0  0  0  0  0  0
  -23.9852  -14.2504   24.3842 C   0  0  0  0  0  0  0  0  0  0  0  0
  -24.6080  -14.4807   25.6108 C   0  0  0  0  0  0  0  0  0  0  0  0
  -29.4874  -23.5777   18.6064 C   0  0  0  0  0  0  0  0  0  0  0  0
  -28.6681  -23.5481   20.8791 C   0  0  0  0  0  0  0  0  0  0  0  0
  -18.0990  -28.1356   22.2395 C   0  0  0  0  0  0  0  0  0  0  0  0
  -20.6212  -27.0880   22.7758 C   0  0  0  0  0  0  0  0  0  0  0  0
  -25.1202  -21.5451   22.1828 C   0  0  0  0  0  0  0  0  0  0  0  0
  -24.5551  -14.7415   23.2095 C   0  0  0  0  0  0  0  0  0  0  0  0
  -25.8007  -15.2021   25.6629 C   0  0  0  0  0  0  0  0  0  0  0  0
  -29.2882  -24.9572   18.5525 C   0  0  0  0  0  0  0  0  0  0  0  0
  -28.4688  -24.9277   20.8252 C   0  0  0  0  0  0  0  0  0  0  0  0
  -25.7771  -20.6019   22.9719 C   0  0  0  0  0  0  0  0  0  0  0  0
  -27.4061  -28.3867   21.1649 C   0  0  0  0  0  0  0  0  0  0  0  0
  -26.2062  -28.8886   21.6687 C   0  0  0  0  0  0  0  0  0  0  0  0
  -23.7659  -19.2720   23.0462 C   0  0  0  0  0  0  0  0  0  0  0  0
  -24.9787  -27.5696   20.0591 C   0  0  0  0  0  0  0  0  0  0  0  0
  -29.1774  -22.8732   19.7697 C   0  0  0  0  0  0  0  0  0  0  0  0
  -30.5470  -20.7724   20.2371 C   0  0  0  0  0  0  0  0  0  0  0  0
  -18.2196  -26.7861   22.6068 C   0  0  0  0  0  0  0  0  0  0  0  0
  -23.7757  -21.3638   21.8280 C   0  0  0  0  0  0  0  0  0  0  0  0
  -19.4936  -26.2570   22.8886 C   0  0  0  0  0  0  0  0  0  0  0  0
  -23.0949  -20.2131   22.2505 C   0  0  0  0  0  0  0  0  0  0  0  0
  -25.7478  -15.4629   23.2616 C   0  0  0  0  0  0  0  0  0  0  0  0
  -26.3706  -15.6932   24.4883 C   0  0  0  0  0  0  0  0  0  0  0  0
  -28.7789  -25.6322   19.6619 C   0  0  0  0  0  0  0  0  0  0  0  0
  -25.0992  -19.4666   23.4062 C   0  0  0  0  0  0  0  0  0  0  0  0
  -27.3924  -27.4763   20.1082 C   0  0  0  0  0  0  0  0  0  0  0  0
  -24.9925  -28.4800   21.1158 C   0  0  0  0  0  0  0  0  0  0  0  0
  -26.1787  -27.0677   19.5553 C   0  0  0  0  0  0  0  0  0  0  0  0
  -29.3824  -21.4481   19.8258 C   0  0  0  0  0  0  0  0  0  0  0  0
  -30.2350  -19.4410   20.1082 C   0  0  0  0  0  0  0  0  0  0  0  0
  -31.7987  -21.3009   20.6948 C   0  0  0  0  0  0  0  0  0  0  0  0
  -21.0802  -22.9620   22.3605 C   0  0  0  0  0  0  0  0  0  0  0  0
  -19.8317  -20.7601   20.3320 C   0  0  0  0  0  0  0  0  0  0  0  0
  -20.0556  -17.6566   18.9301 C   0  0  0  0  0  0  0  0  0  0  0  0
  -25.8003  -15.7994   20.7655 C   0  0  0  0  0  0  0  0  0  0  0  0
  -16.9669  -25.9593   22.7546 C   0  0  0  0  0  0  0  0  0  0  0  0
  -23.0891  -22.3773   20.9540 C   0  0  0  0  0  0  0  0  0  0  0  0
  -21.6569  -19.9615   21.8801 C   0  0  0  0  0  0  0  0  0  0  0  0
  -17.2303  -24.4561   22.7939 C   0  0  0  0  0  0  0  0  0  0  0  0
  -26.8621  -16.8843   17.5449 C   0  0  0  0  0  0  0  0  0  0  0  0
  -18.3818  -24.1406   23.7432 C   0  0  0  0  0  0  0  0  0  0  0  0
  -27.7345  -18.1058   17.8432 C   0  0  0  0  0  0  0  0  0  0  0  0
  -25.6674  -16.7954   18.4928 C   0  0  0  0  0  0  0  0  0  0  0  0
  -26.8754  -18.0713   20.2197 C   0  0  0  0  0  0  0  0  0  0  0  0
  -19.6815  -24.8058   23.2743 C   0  0  1  0  0  0  0  0  0  0  0  0
  -21.5692  -22.3441   21.0812 C   0  0  1  0  0  0  0  0  0  0  0  0
  -28.1272  -18.1678   19.3323 C   0  0  2  0  0  0  0  0  0  0  0  0
  -29.5641  -15.0281   24.7268 C   0  0  0  0  0  0  0  0  0  0  0  0
  -19.4885  -15.7414   17.4109 C   0  0  0  0  0  0  0  0  0  0  0  0
  -17.7479  -20.1502   22.4758 C   0  0  0  0  0  0  0  0  0  0  0  0
  -17.2165  -18.0288   21.2571 C   0  0  0  0  0  0  0  0  0  0  0  0
  -16.8514  -20.2304   20.1425 C   0  0  0  0  0  0  0  0  0  0  0  0
  -21.8086  -18.6905   16.7814 C   0  0  0  0  0  0  0  0  0  0  0  0
  -28.7599  -15.9385   23.8625 C   0  0  0  0  0  0  0  0  0  0  0  0
  -27.6577  -17.6471   25.3166 C   0  0  0  0  0  0  0  0  0  0  0  0
  -27.1026  -18.8043   24.5032 C   0  0  0  0  0  0  0  0  0  1  0  0
  -19.2116  -19.3926   20.4885 C   0  0  1  0  0  0  0  0  0  0  0  0
  -19.9406  -17.1913   17.4897 C   0  0  2  0  0  0  0  0  0  0  0  0
  -17.7834  -19.4559   21.0998 C   0  0  0  0  0  0  0  0  0  0  0  0
  -28.4038  -20.6148   19.4627 N   0  0  0  0  0  0  0  0  0  0  0  0
  -28.9527  -19.4017   19.6452 N   0  0  0  0  0  0  0  0  0  0  0  0
  -21.0272  -20.9848   21.0291 N   0  0  0  0  0  0  0  0  0  0  0  0
  -26.1163  -16.8561   19.8856 N   0  0  0  0  0  0  0  0  0  0  0  0
  -30.9353  -18.3118   20.3467 N   0  0  0  0  0  0  0  0  0  0  0  0
  -31.9502  -22.6924   20.7667 N   0  0  0  0  0  0  0  0  0  0  0  0
  -26.3079  -15.9518   22.0554 N   0  0  0  0  0  0  0  0  0  0  0  0
  -20.2632  -24.0614   22.1780 N   0  0  0  0  0  0  0  0  0  0  0  0
  -19.2713  -18.7644   19.1731 N   0  0  0  0  0  0  0  0  0  0  0  0
  -27.5683  -16.4166   24.5643 N   0  0  3  0  0  0  0  0  0  0  0  0
  -21.2561  -17.3116   16.7999 N   0  3  0  0  0  0  0  0  0  0  0  0
  -32.7602  -20.5614   21.0144 O   0  0  0  0  0  0  0  0  0  0  0  0
  -21.4178  -22.4764   23.4338 O   0  0  0  0  0  0  0  0  0  0  0  0
  -19.2795  -21.5956   19.6119 O   0  0  0  0  0  0  0  0  0  0  0  0
  -20.7669  -17.0915   19.7578 O   0  0  0  0  0  0  0  0  0  0  0  0
  -25.1519  -14.8176   20.3944 O   0  0  0  0  0  0  0  0  0  0  0  0
  -28.5845  -26.9783   19.6097 O   0  0  0  0  0  0  0  0  0  0  0  0
  -25.7379  -18.5448   24.1770 O   0  0  0  0  0  0  0  0  0  1  0  0
  -23.8402  -28.9609   21.6007 F   0  0  0  0  0  0  0  0  0  0  0  0
  -26.1592  -26.1924   18.5408 F   0  0  0  0  0  0  0  0  0  0  0  0
  1  2  1  0  0  0  0
  1  7  2  0  0  0  0
  2  8  2  0  0  0  0
  3  4  1  0  0  0  0
  3 10  2  0  0  0  0
  4 11  2  0  0  0  0
  5 12  2  0  0  0  0
  5 19  1  0  0  0  0
  6 13  1  0  0  0  0
  6 19  2  0  0  0  0
  7 21  1  0  0  0  0
  8 23  1  0  0  0  0
  9 14  2  0  0  0  0
  9 22  1  0  0  0  0
 10 25  1  0  0  0  0
 11 26  1  0  0  0  0
 12 27  1  0  0  0  0
 13 27  2  0  0  0  0
 14 28  1  0  0  0  0
 15 16  2  0  0  0  0
 15 29  1  0  0  0  0
 16 30  1  0  0  0  0
 17 24  1  0  0  0  0
 17 28  2  0  0  0  0
 18 30  2  0  0  0  0
 18 31  1  0  0  0  0
 19 32  1  0  0  0  0
 20 32  1  0  0  0  0
 20 33  2  0  0  0  0
 20 34  1  0  0  0  0
 21 23  2  0  0  0  0
 21 39  1  0  0  0  0
 22 24  2  0  0  0  0
 22 40  1  0  0  0  0
 23 48  1  0  0  0  0
 24 41  1  0  0  0  0
 25 26  2  0  0  0  0
 25 69  1  0  0  0  0
 26 72  1  0  0  0  0
 27 79  1  0  0  0  0
 28 80  1  0  0  0  0
 29 31  2  0  0  0  0
 29 79  1  0  0  0  0
 30 81  1  0  0  0  0
 31 82  1  0  0  0  0
 32 63  2  0  0  0  0
 33 64  1  0  0  0  0
 33 67  1  0  0  0  0
 34 68  1  0  0  0  0
 34 74  2  0  0  0  0
 35 49  1  0  0  0  0
 35 70  1  0  0  0  0
 35 75  2  0  0  0  0
 36 60  1  0  0  0  0
 36 65  1  0  0  0  0
 36 76  2  0  0  0  0
 37 61  1  0  0  0  0
 37 71  1  0  0  0  0
 37 77  2  0  0  0  0
 38 66  1  0  0  0  0
 38 69  1  0  0  0  0
 38 78  2  0  0  0  0
 39 42  1  0  0  0  0
 40 49  1  0  0  0  0
 41 65  1  0  0  0  0
 42 44  1  0  0  0  0
 43 45  1  0  0  0  0
 43 46  1  0  0  0  0
 44 48  1  0  0  0  0
 45 50  1  0  0  0  0
 46 66  1  0  0  0  0
 47 50  1  0  0  0  0
 47 66  1  0  0  0  0
 48 70  1  0  0  0  0
 49 65  1  0  0  0  0
 50 64  1  0  0  0  0
 51 57  1  0  0  0  0
 52 61  1  0  0  0  0
 53 62  1  0  0  0  0
 54 62  1  0  0  0  0
 55 62  1  0  0  0  0
 56 73  1  0  0  0  0
 57 72  1  0  0  0  0
 58 59  1  0  0  0  0
 58 72  1  0  0  0  0
 59 80  1  0  0  0  0
 60 62  1  0  0  0  0
 60 71  1  0  0  0  0
 61 73  1  0  0  0  0
 63 64  1  0  0  0  0
M  CHG  1  73   1
M  ISO  4  38 100  59 101  69 100  80 101
M  END
> <Batch ID>
0009

> <Smiles>
CCN(C[101CH2:1][101O:1]c1ccc2c(c1)CN(C(=O)C(NC(=O)C(C)NC)C(C)(C)C)C(C(=O)NC1CCCc3ccccc31)C2)c1ccccc1[100NH:0][100C:0](=O)N1CCCC(n2nc(-c3ccc(Oc4ccc(F)cc4F)cc3)c(C(N)=O)c2N)C1

> <Shape>
0.162

> <Color>
0.081

> <Negative vol penalty>
0.000

$$$$

  -OEChem-04042320373D

 82 90  0     1  0  0  0  0  0999 V2000
  -17.7884  -32.9572   22.0745 C   0  0  0  0  0  0  0  0  0  0  0  0
  -19.0679  -33.0660   21.5393 C   0  0  0  0  0  0  0  0  0  0  0  0
  -23.0494  -13.0811   20.9633 C   0  0  0  0  0  0  0  0  0  0  0  0
  -23.3095  -14.7257   22.7139 C   0  0  0  0  0  0  0  0  0  0  0  0
  -17.5254  -32.0090   23.0622 C   0  0  0  0  0  0  0  0  0  0  0  0
  -20.0855  -32.2273   21.9923 C   0  0  0  0  0  0  0  0  0  0  0  0
  -25.9928  -28.8798   19.7086 C   0  0  0  0  0  0  0  0  0  0  0  0
  -30.7187  -21.5213   19.2402 C   0  0  0  0  0  0  0  0  0  0  0  0
  -22.3650  -12.2476   21.8479 C   0  0  0  0  0  0  0  0  0  0  0  0
  -22.6251  -13.8922   23.5986 C   0  0  0  0  0  0  0  0  0  0  0  0
  -27.3401  -28.7304   20.0343 C   0  0  0  0  0  0  0  0  0  0  0  0
  -31.0304  -22.8750   19.3659 C   0  0  0  0  0  0  0  0  0  0  0  0
  -19.2524  -12.0144   23.1479 C   0  0  0  0  0  0  0  0  0  0  0  0
  -18.0840  -11.4044   22.6914 C   0  0  0  0  0  0  0  0  0  0  0  0
  -26.7506  -27.0760   21.6880 C   0  0  0  0  0  0  0  0  0  0  0  0
  -28.3985  -22.0891   18.8780 C   0  0  0  0  0  0  0  0  0  0  0  0
  -19.0627   -9.2317   23.0901 C   0  0  0  0  0  0  0  0  0  0  0  0
  -23.5217  -14.3201   21.3963 C   0  0  0  0  0  0  0  0  0  0  0  0
  -23.6765  -16.1650   19.6413 C   0  0  0  0  0  0  0  0  0  0  0  0
  -18.5381  -31.1516   23.5207 C   0  0  0  0  0  0  0  0  0  0  0  0
  -25.0116  -28.1352   20.3788 C   0  0  0  0  0  0  0  0  0  0  0  0
  -19.8362  -31.2675   22.9881 C   0  0  0  0  0  0  0  0  0  0  0  0
  -25.3917  -27.2160   21.3671 C   0  0  0  0  0  0  0  0  0  0  0  0
  -29.4028  -21.1283   18.9962 C   0  0  0  0  0  0  0  0  0  0  0  0
  -22.1529  -12.6532   23.1656 C   0  0  0  0  0  0  0  0  0  0  0  0
  -27.7190  -27.8305   21.0261 C   0  0  0  0  0  0  0  0  0  0  0  0
  -20.3259  -11.2331   23.5754 C   0  0  0  0  0  0  0  0  0  0  0  0
  -30.0261  -23.8358   19.2478 C   0  0  0  0  0  0  0  0  0  0  0  0
  -17.9891  -10.0130   22.6625 C   0  0  0  0  0  0  0  0  0  0  0  0
  -28.7101  -23.4429   19.0038 C   0  0  0  0  0  0  0  0  0  0  0  0
  -20.2311   -9.8418   23.5465 C   0  0  0  0  0  0  0  0  0  0  0  0
  -24.2292  -15.1813   20.4831 C   0  0  0  0  0  0  0  0  0  0  0  0
  -24.7565  -16.6982   18.9811 C   0  0  0  0  0  0  0  0  0  0  0  0
  -22.3091  -16.5615   19.4714 C   0  0  0  0  0  0  0  0  0  0  0  0
  -22.5237  -28.8496   22.2236 C   0  0  0  0  0  0  0  0  0  0  0  0
  -21.9611  -25.6608   22.0310 C   0  0  0  0  0  0  0  0  0  0  0  0
  -23.2027  -22.5268   21.4987 C   0  0  0  0  0  0  0  0  0  0  0  0
  -29.9627  -18.6724   18.9586 C   0  0  0  0  0  0  0  0  0  0  0  0
  -18.2175  -30.1742   24.6236 C   0  0  0  0  0  0  0  0  0  0  0  0
  -23.5648  -28.2885   19.9972 C   0  0  0  0  0  0  0  0  0  0  0  0
  -24.3790  -26.3779   22.1023 C   0  0  0  0  0  0  0  0  0  0  0  0
  -19.2605  -29.0708   24.7819 C   0  0  0  0  0  0  0  0  0  0  0  0
  -29.5667  -15.1408   18.7393 C   0  0  0  0  0  0  0  0  0  0  0  0
  -20.6673  -29.6603   24.7690 C   0  0  0  0  0  0  0  0  0  0  0  0
  -28.0973  -14.9174   19.1042 C   0  0  0  0  0  0  0  0  0  0  0  0
  -30.1886  -16.2712   19.5572 C   0  0  0  0  0  0  0  0  0  0  0  0
  -27.9828  -17.3179   19.8864 C   0  0  0  0  0  0  0  0  0  0  0  0
  -20.9606  -30.3590   23.4358 C   0  0  1  0  0  0  0  0  0  0  0  0
  -22.6063  -27.8538   21.1015 C   0  0  1  0  0  0  0  0  0  0  0  0
  -27.2952  -16.2321   19.0426 C   0  0  2  0  0  0  0  0  0  0  0  0
  -22.5085  -20.1158   21.4447 C   0  0  0  0  0  0  0  0  0  0  0  0
  -21.8853  -25.6167   25.0810 C   0  0  0  0  0  0  0  0  0  0  0  0
  -22.1454  -23.1286   24.9821 C   0  0  0  0  0  0  0  0  0  0  0  0
  -20.1375  -24.2120   23.9736 C   0  0  0  0  0  0  0  0  0  0  0  0
  -23.9756  -22.2477   18.6556 C   0  0  0  0  0  0  0  0  0  0  0  0
  -31.2263  -27.0652   20.5521 C   0  0  0  0  0  0  0  0  0  0  0  0
  -29.9844  -27.9077   20.3065 C   0  0  0  0  0  0  0  0  0  1  0  0
  -30.9048  -25.5799   20.6049 C   0  0  0  0  0  0  0  0  0  0  0  0
  -22.3801  -24.4510   22.8310 C   0  0  1  0  0  0  0  0  0  0  0  0
  -22.7121  -21.3832   20.6292 C   0  0  2  0  0  0  0  0  0  0  0  0
  -21.6562  -24.3691   24.2046 C   0  0  0  0  0  0  0  0  0  0  0  0
  -25.5571  -15.0925   20.3698 N   0  0  0  0  0  0  0  0  0  0  0  0
  -25.8478  -16.0273   19.4491 N   0  0  0  0  0  0  0  0  0  0  0  0
  -22.9764  -26.5685   21.6976 N   0  0  0  0  0  0  0  0  0  0  0  0
  -29.3772  -17.4856   19.4479 N   0  0  0  0  0  0  0  0  0  0  0  0
  -24.8695  -17.6707   18.0517 N   0  0  0  0  0  0  0  0  0  0  0  0
  -21.3257  -15.9102   20.2283 N   0  0  0  0  0  0  0  0  0  0  0  0
  -29.0861  -19.7531   18.8684 N   0  0  0  0  0  0  0  0  0  0  0  0
  -21.2630  -29.3839   22.4100 N   0  0  0  0  0  0  0  0  0  0  0  0
  -22.1587  -23.2950   21.9691 N   0  0  0  0  0  0  0  0  0  0  0  0
  -23.6976  -21.0940   19.5493 N   0  3  0  0  0  0  0  0  0  0  0  0
  -21.9678  -17.4552   18.6600 O   0  0  0  0  0  0  0  0  0  0  0  0
  -23.5289  -29.1126   22.8733 O   0  0  0  0  0  0  0  0  0  0  0  0
  -20.7780  -25.7917   21.7075 O   0  0  0  0  0  0  0  0  0  0  0  0
  -24.3927  -22.7171   21.7399 O   0  0  0  0  0  0  0  0  0  0  0  0
  -31.1473  -18.7188   18.6172 O   0  0  0  0  0  0  0  0  0  0  0  0
  -21.4849  -11.8402   24.0290 O   0  0  0  0  0  0  0  0  0  0  0  0
  -29.0334  -27.6831   21.3464 O   0  0  0  0  0  0  0  0  0  1  0  0
  -30.3344  -25.1657   19.3709 O   0  0  0  0  0  0  0  0  0  0  0  0
  -16.8665   -9.4274   22.2256 F   0  0  0  0  0  0  0  0  0  0  0  0
  -27.7413  -24.3614   18.8881 F   0  0  0  0  0  0  0  0  0  0  0  0
  -21.2587   -9.0859   23.9571 F   0  0  0  0  0  0  0  0  0  0  0  0
  1  2  1  0  0  0  0
  1  5  2  0  0  0  0
  2  6  2  0  0  0  0
  3  9  2  0  0  0  0
  3 18  1  0  0  0  0
  4 10  1  0  0  0  0
  4 18  2  0  0  0  0
  5 20  1  0  0  0  0
  6 22  1  0  0  0  0
  7 11  2  0  0  0  0
  7 21  1  0  0  0  0
  8 12  2  0  0  0  0
  8 24  1  0  0  0  0
  9 25  1  0  0  0  0
 10 25  2  0  0  0  0
 11 26  1  0  0  0  0
 12 28  1  0  0  0  0
 13 14  2  0  0  0  0
 13 27  1  0  0  0  0
 14 29  1  0  0  0  0
 15 23  1  0  0  0  0
 15 26  2  0  0  0  0
 16 24  2  0  0  0  0
 16 30  1  0  0  0  0
 17 29  2  0  0  0  0
 17 31  1  0  0  0  0
 18 32  1  0  0  0  0
 19 32  1  0  0  0  0
 19 33  2  0  0  0  0
 19 34  1  0  0  0  0
 20 22  2  0  0  0  0
 20 39  1  0  0  0  0
 21 23  2  0  0  0  0
 21 40  1  0  0  0  0
 22 48  1  0  0  0  0
 23 41  1  0  0  0  0
 24 68  1  0  0  0  0
 25 77  1  0  0  0  0
 26 78  1  0  0  0  0
 27 31  2  0  0  0  0
 27 77  1  0  0  0  0
 28 30  2  0  0  0  0
 28 79  1  0  0  0  0
 29 80  1  0  0  0  0
 30 81  1  0  0  0  0
 31 82  1  0  0  0  0
 32 62  2  0  0  0  0
 33 63  1  0  0  0  0
 33 66  1  0  0  0  0
 34 67  1  0  0  0  0
 34 72  2  0  0  0  0
 35 49  1  0  0  0  0
 35 69  1  0  0  0  0
 35 73  2  0  0  0  0
 36 59  1  0  0  0  0
 36 64  1  0  0  0  0
 36 74  2  0  0  0  0
 37 60  1  0  0  0  0
 37 70  1  0  0  0  0
 37 75  2  0  0  0  0
 38 65  1  0  0  0  0
 38 68  1  0  0  0  0
 38 76  2  0  0  0  0
 39 42  1  0  0  0  0
 40 49  1  0  0  0  0
 41 64  1  0  0  0  0
 42 44  1  0  0  0  0
 43 45  1  0  0  0  0
 43 46  1  0  0  0  0
 44 48  1  0  0  0  0
 45 50  1  0  0  0  0
 46 65  1  0  0  0  0
 47 50  1  0  0  0  0
 47 65  1  0  0  0  0
 48 69  1  0  0  0  0
 49 64  1  0  0  0  0
 50 63  1  0  0  0  0
 51 60  1  0  0  0  0
 52 61  1  0  0  0  0
 53 61  1  0  0  0  0
 54 61  1  0  0  0  0
 55 71  1  0  0  0  0
 56 57  1  0  0  0  0
 56 58  1  0  0  0  0
 57 78  1  0  0  0  0
 58 79  1  0  0  0  0
 59 61  1  0  0  0  0
 59 70  1  0  0  0  0
 60 71  1  0  0  0  0
 62 63  1  0  0  0  0
M  CHG  1  71   1
M  ISO  4  38 100  57 101  68 100  78 101
M  END
> <Batch ID>
0009

> <Smiles>
CNC(C)C(=O)NC(C(=O)N1Cc2cc([101O:1][101CH2:1]CCOc3ccc([100NH:0][100C:0](=O)N4CCCC(n5nc(-c6ccc(Oc7ccc(F)cc7F)cc6)c(C(N)=O)c5N)C4)cc3F)ccc2CC1C(=O)NC1CCCc2ccccc21)C(C)(C)C

> <Shape>
0.201

> <Color>
0.083

> <Negative vol penalty>
0.000

$$$$

  -OEChem-04042320373D

 86 95  0     1  0  0  0  0  0999 V2000
  -17.0865  -25.5470   23.7202 C   0  0  0  0  0  0  0  0  0  0  0  0
  -18.1078  -25.4468   22.7809 C   0  0  0  0  0  0  0  0  0  0  0  0
  -26.4230  -11.4230   20.5219 C   0  0  0  0  0  0  0  0  0  0  0  0
  -26.2242  -12.1960   18.2416 C   0  0  0  0  0  0  0  0  0  0  0  0
  -16.7256  -26.7954   24.2254 C   0  0  0  0  0  0  0  0  0  0  0  0
  -18.7682  -26.5952   22.3454 C   0  0  0  0  0  0  0  0  0  0  0  0
  -23.7940  -25.9985   22.1721 C   0  0  0  0  0  0  0  0  0  0  0  0
  -27.8081  -20.7021   15.1728 C   0  0  0  0  0  0  0  0  0  0  0  0
  -27.4878  -21.9996   15.5719 C   0  0  0  0  0  0  0  0  0  0  0  0
  -25.2498  -10.6832   20.3734 C   0  0  0  0  0  0  0  0  0  0  0  0
  -25.0510  -11.4562   18.0930 C   0  0  0  0  0  0  0  0  0  0  0  0
  -24.3147  -25.2960   21.0862 C   0  0  0  0  0  0  0  0  0  0  0  0
  -21.9203  -11.2649   20.3877 C   0  0  0  0  0  0  0  0  0  0  0  0
  -20.9802  -11.3288   21.4161 C   0  0  0  0  0  0  0  0  0  0  0  0
  -24.8970  -27.3819   20.0237 C   0  0  0  0  0  0  0  0  0  0  0  0
  -28.1371  -21.4634   17.8365 C   0  0  0  0  0  0  0  0  0  0  0  0
  -21.1704   -8.9419   21.7382 C   0  0  0  0  0  0  0  0  0  0  0  0
  -26.9101  -12.1794   19.4560 C   0  0  0  0  0  0  0  0  0  0  0  0
  -29.4367  -12.5147   19.3485 C   0  0  0  0  0  0  0  0  0  0  0  0
  -17.3884  -27.9586   23.8031 C   0  0  0  0  0  0  0  0  0  0  0  0
  -23.8110  -27.4006   22.1871 C   0  0  0  0  0  0  0  0  0  0  0  0
  -18.4149  -27.8604   22.8445 C   0  0  0  0  0  0  0  0  0  0  0  0
  -24.3782  -28.0998   21.1121 C   0  0  0  0  0  0  0  0  0  0  0  0
  -28.2929  -19.7851   16.1056 C   0  0  0  0  0  0  0  0  0  0  0  0
  -27.6524  -22.3803   16.9037 C   0  0  0  0  0  0  0  0  0  0  0  0
  -28.4574  -20.1658   17.4373 C   0  0  0  0  0  0  0  0  0  0  0  0
  -24.5638  -10.6998   19.1590 C   0  0  0  0  0  0  0  0  0  0  0  0
  -24.8637  -25.9877   20.0105 C   0  0  0  0  0  0  0  0  0  0  0  0
  -22.4854  -10.0395   20.0344 C   0  0  0  0  0  0  0  0  0  0  0  0
  -20.6053  -10.1673   22.0914 C   0  0  0  0  0  0  0  0  0  0  0  0
  -22.1105   -8.8780   20.7097 C   0  0  0  0  0  0  0  0  0  0  0  0
  -28.1217  -12.9442   19.6090 C   0  0  0  0  0  0  0  0  0  0  0  0
  -30.2192  -13.6030   19.6484 C   0  0  0  0  0  0  0  0  0  0  0  0
  -29.9089  -11.2454   18.8776 C   0  0  0  0  0  0  0  0  0  0  0  0
  -21.5875  -29.6699   22.2847 C   0  0  0  0  0  0  0  0  0  0  0  0
  -24.1562  -31.6309   22.5648 C   0  0  0  0  0  0  0  0  0  0  0  0
  -27.4873  -32.1375   22.0222 C   0  0  0  0  0  0  0  0  0  0  0  0
  -29.1640  -19.4834   19.7571 C   0  0  0  0  0  0  0  0  0  0  0  0
  -16.9313  -29.2909   24.3423 C   0  0  0  0  0  0  0  0  0  0  0  0
  -23.2695  -28.1430   23.3779 C   0  0  0  0  0  0  0  0  0  0  0  0
  -24.4390  -29.6045   21.0886 C   0  0  0  0  0  0  0  0  0  0  0  0
  -17.9330  -30.4188   24.1084 C   0  0  0  0  0  0  0  0  0  0  0  0
  -30.3252  -17.4780   22.4603 C   0  0  0  0  0  0  0  0  0  0  0  0
  -18.4393  -30.3931   22.6697 C   0  0  0  0  0  0  0  0  0  0  0  0
  -30.0171  -16.0483   22.0095 C   0  0  0  0  0  0  0  0  0  0  0  0
  -26.9122  -25.9797   17.2145 C   0  0  0  0  0  0  0  0  0  0  0  0
  -29.2395  -18.4581   22.0194 C   0  0  0  0  0  0  0  0  0  0  0  0
  -26.8228  -24.6912   16.3969 C   0  0  0  0  0  0  0  0  0  0  0  0
  -28.6138  -16.9995   20.1352 C   0  0  0  0  0  0  0  0  0  0  0  0
  -27.4678  -24.1547   18.6700 C   0  0  0  0  0  0  0  0  0  0  0  0
  -19.1715  -29.0805   22.3658 C   0  0  1  0  0  0  0  0  0  0  0  0
  -22.8737  -29.5808   23.0563 C   0  0  1  0  0  0  0  0  0  0  0  0
  -29.7116  -15.9869   20.5000 C   0  0  2  0  0  0  0  0  0  0  0  0
  -26.7491  -25.5031   18.6504 C   0  0  2  0  0  0  0  0  0  1  0  0
  -29.2939  -33.8527   22.3247 C   0  0  0  0  0  0  0  0  0  0  0  0
  -23.0565  -33.2041   20.1929 C   0  0  0  0  0  0  0  0  0  0  0  0
  -25.3077  -34.2715   19.9464 C   0  0  0  0  0  0  0  0  0  0  0  0
  -23.9896  -34.6128   22.0366 C   0  0  0  0  0  0  0  0  0  0  0  0
  -29.0516  -30.3479   23.7855 C   0  0  0  0  0  0  0  0  0  0  0  0
  -25.0537  -32.3621   21.5959 C   0  0  1  0  0  0  0  0  0  0  0  0
  -28.5896  -32.6493   22.9318 C   0  0  2  0  0  0  0  0  0  0  0  0
  -28.6276  -18.4020   15.6497 C   0  0  0  0  0  0  0  0  0  0  0  0
  -24.3491  -33.5843   20.9422 C   0  0  0  0  0  0  0  0  0  0  0  0
  -28.0677  -14.2069   20.0412 N   0  0  0  0  0  0  0  0  0  0  0  0
  -29.3587  -14.5801   20.0547 N   0  0  0  0  0  0  0  0  0  0  0  0
  -27.3355  -23.6634   17.2979 N   0  0  3  0  0  0  0  0  0  0  0  0
  -23.8910  -30.2854   22.2734 N   0  0  0  0  0  0  0  0  0  0  0  0
  -29.0070  -18.3465   20.5778 N   0  0  0  0  0  0  0  0  0  0  0  0
  -31.5524  -13.8099   19.6015 N   0  0  0  0  0  0  0  0  0  0  0  0
  -28.9700  -10.2376   18.6185 N   0  0  0  0  0  0  0  0  0  0  0  0
  -28.9484  -19.2488   18.3995 N   0  0  0  0  0  0  0  0  0  0  0  0
  -20.5044  -29.1032   22.9291 N   0  0  0  0  0  0  0  0  0  0  0  0
  -26.2662  -32.6963   22.3352 N   0  0  0  0  0  0  0  0  0  0  0  0
  -29.6025  -31.5823   23.1692 N   0  3  0  0  0  0  0  0  0  0  0  0
  -31.1285  -11.0066   18.7076 O   0  0  0  0  0  0  0  0  0  0  0  0
  -21.5780  -30.2140   21.1868 O   0  0  0  0  0  0  0  0  0  0  0  0
  -23.7128  -32.2295   23.5480 O   0  0  0  0  0  0  0  0  0  0  0  0
  -27.6899  -31.3261   21.1216 O   0  0  0  0  0  0  0  0  0  0  0  0
  -29.4940  -20.5780   20.2209 O   0  0  0  0  0  0  0  0  0  0  0  0
  -23.4192   -9.9779   19.0137 O   0  0  0  0  0  0  0  0  0  0  0  0
  -25.3720  -25.3045   18.9491 O   0  0  0  0  0  0  0  0  0  1  0  0
  -19.7036  -10.2290   23.0801 F   0  0  0  0  0  0  0  0  0  0  0  0
  -22.6508   -7.6981   20.3756 F   0  0  0  0  0  0  0  0  0  0  0  0
  -28.4076  -18.1993   14.3180 F   0  0  0  0  0  0  0  0  0  0  0  0
  -29.9341  -18.0637   15.8527 F   0  0  0  0  0  0  0  0  0  0  0  0
  -27.8955  -17.4484   16.2935 F   0  0  0  0  0  0  0  0  0  0  0  0
  1  2  1  0  0  0  0
  1  5  2  0  0  0  0
  2  6  2  0  0  0  0
  3 10  2  0  0  0  0
  3 18  1  0  0  0  0
  4 11  1  0  0  0  0
  4 18  2  0  0  0  0
  5 20  1  0  0  0  0
  6 22  1  0  0  0  0
  7 12  2  0  0  0  0
  7 21  1  0  0  0  0
  8  9  2  0  0  0  0
  8 24  1  0  0  0  0
  9 25  1  0  0  0  0
 10 27  1  0  0  0  0
 11 27  2  0  0  0  0
 12 28  1  0  0  0  0
 13 14  2  0  0  0  0
 13 29  1  0  0  0  0
 14 30  1  0  0  0  0
 15 23  1  0  0  0  0
 15 28  2  0  0  0  0
 16 25  2  0  0  0  0
 16 26  1  0  0  0  0
 17 30  2  0  0  0  0
 17 31  1  0  0  0  0
 18 32  1  0  0  0  0
 19 32  1  0  0  0  0
 19 33  2  0  0  0  0
 19 34  1  0  0  0  0
 20 22  2  0  0  0  0
 20 39  1  0  0  0  0
 21 23  2  0  0  0  0
 21 40  1  0  0  0  0
 22 51  1  0  0  0  0
 23 41  1  0  0  0  0
 24 26  2  0  0  0  0
 24 62  1  0  0  0  0
 25 66  1  0  0  0  0
 26 71  1  0  0  0  0
 27 80  1  0  0  0  0
 28 81  1  0  0  0  0
 29 31  2  0  0  0  0
 29 80  1  0  0  0  0
 30 82  1  0  0  0  0
 31 83  1  0  0  0  0
 32 64  2  0  0  0  0
 33 65  1  0  0  0  0
 33 69  1  0  0  0  0
 34 70  1  0  0  0  0
 34 75  2  0  0  0  0
 35 52  1  0  0  0  0
 35 72  1  0  0  0  0
 35 76  2  0  0  0  0
 36 60  1  0  0  0  0
 36 67  1  0  0  0  0
 36 77  2  0  0  0  0
 37 61  1  0  0  0  0
 37 73  1  0  0  0  0
 37 78  2  0  0  0  0
 38 68  1  0  0  0  0
 38 71  1  0  0  0  0
 38 79  2  0  0  0  0
 39 42  1  0  0  0  0
 40 52  1  0  0  0  0
 41 67  1  0  0  0  0
 42 44  1  0  0  0  0
 43 45  1  0  0  0  0
 43 47  1  0  0  0  0
 44 51  1  0  0  0  0
 45 53  1  0  0  0  0
 46 48  1  0  0  0  0
 46 54  1  0  0  0  0
 47 68  1  0  0  0  0
 48 66  1  0  0  0  0
 49 53  1  0  0  0  0
 49 68  1  0  0  0  0
 50 54  1  0  0  0  0
 50 66  1  0  0  0  0
 51 72  1  0  0  0  0
 52 67  1  0  0  0  0
 53 65  1  0  0  0  0
 54 81  1  0  0  0  0
 55 61  1  0  0  0  0
 56 63  1  0  0  0  0
 57 63  1  0  0  0  0
 58 63  1  0  0  0  0
 59 74  1  0  0  0  0
 60 63  1  0  0  0  0
 60 73  1  0  0  0  0
 61 74  1  0  0  0  0
 62 84  1  0  0  0  0
 62 85  1  0  0  0  0
 62 86  1  0  0  0  0
 64 65  1  0  0  0  0
M  CHG  1  74   1
M  ISO  4  38 100  54 101  71 100  81 101
M  END
> <Batch ID>
0009

> <Smiles>
CNC(C)C(=O)NC(C(=O)N1Cc2cc([101O:1][101CH:1]3CCN(c4ccc(C(F)(F)F)c([100NH:0][100C:0](=O)N5CCCC(n6nc(-c7ccc(Oc8ccc(F)cc8F)cc7)c(C(N)=O)c6N)C5)c4)C3)ccc2CC1C(=O)NC1CCCc2ccccc21)C(C)(C)C

> <Shape>
0.273

> <Color>
0.078

> <Negative vol penalty>
0.000

$$$$

  -OEChem-04042320373D

 81 89  0     1  0  0  0  0  0999 V2000
  -30.9046  -11.6743   19.7626 C   0  0  0  0  0  0  0  0  0  0  0  0
  -30.6503  -13.0239   19.5406 C   0  0  0  0  0  0  0  0  0  0  0  0
  -30.4694  -26.7061   18.5542 C   0  0  0  0  0  0  0  0  0  0  0  0
  -20.0326  -28.6096   23.2587 C   0  0  0  0  0  0  0  0  0  0  0  0
  -21.1593  -26.4778   23.1062 C   0  0  0  0  0  0  0  0  0  0  0  0
  -29.8458  -10.7923   19.9750 C   0  0  0  0  0  0  0  0  0  0  0  0
  -29.3369  -13.4921   19.5297 C   0  0  0  0  0  0  0  0  0  0  0  0
  -28.7842  -17.7880   22.1536 C   0  0  0  0  0  0  0  0  0  0  0  0
  -29.7444  -27.6552   19.2746 C   0  0  0  0  0  0  0  0  0  0  0  0
  -30.4217  -25.3625   18.9259 C   0  0  0  0  0  0  0  0  0  0  0  0
  -18.8553  -28.0204   22.7978 C   0  0  0  0  0  0  0  0  0  0  0  0
  -19.9820  -25.8886   22.6453 C   0  0  0  0  0  0  0  0  0  0  0  0
  -29.2022  -18.9677   21.5392 C   0  0  0  0  0  0  0  0  0  0  0  0
  -17.1769  -23.7471   21.7715 C   0  0  0  0  0  0  0  0  0  0  0  0
  -16.8054  -22.5210   22.3230 C   0  0  0  0  0  0  0  0  0  0  0  0
  -26.9157  -19.4657   20.9533 C   0  0  0  0  0  0  0  0  0  0  0  0
  -16.7063  -23.5363   24.5131 C   0  0  0  0  0  0  0  0  0  0  0  0
  -21.1846  -27.8383   23.4129 C   0  0  0  0  0  0  0  0  0  0  0  0
  -22.8220  -28.5730   25.2259 C   0  0  0  0  0  0  0  0  0  0  0  0
  -28.5193  -11.2517   19.9764 C   0  0  0  0  0  0  0  0  0  0  0  0
  -27.4278  -17.4323   22.1629 C   0  0  0  0  0  0  0  0  0  0  0  0
  -28.2593  -12.6153   19.7410 C   0  0  0  0  0  0  0  0  0  0  0  0
  -26.4828  -18.2823   21.5707 C   0  0  0  0  0  0  0  0  0  0  0  0
  -28.9718  -27.2608   20.3669 C   0  0  0  0  0  0  0  0  0  0  0  0
  -29.6490  -24.9681   20.0182 C   0  0  0  0  0  0  0  0  0  0  0  0
  -18.8300  -26.6599   22.4911 C   0  0  0  0  0  0  0  0  0  0  0  0
  -28.2683  -19.8052   20.9364 C   0  0  0  0  0  0  0  0  0  0  0  0
  -17.3132  -24.8678   22.5907 C   0  0  0  0  0  0  0  0  0  0  0  0
  -16.5700  -22.4156   23.6938 C   0  0  0  0  0  0  0  0  0  0  0  0
  -17.0778  -24.7624   23.9616 C   0  0  0  0  0  0  0  0  0  0  0  0
  -28.9241  -25.9172   20.7387 C   0  0  0  0  0  0  0  0  0  0  0  0
  -22.4012  -28.4465   23.8885 C   0  0  0  0  0  0  0  0  0  0  0  0
  -24.0322  -29.2175   25.1456 C   0  0  0  0  0  0  0  0  0  0  0  0
  -22.1766  -28.1461   26.4329 C   0  0  0  0  0  0  0  0  0  0  0  0
  -25.7376  -15.0037   21.0017 C   0  0  0  0  0  0  0  0  0  0  0  0
  -23.3154  -16.4187   22.6306 C   0  0  0  0  0  0  0  0  0  0  0  0
  -22.0200  -19.2615   24.0044 C   0  0  0  0  0  0  0  0  0  0  0  0
  -28.1766  -29.6002   20.8581 C   0  0  0  0  0  0  0  0  0  0  0  0
  -27.4053  -10.2524   20.1636 C   0  0  0  0  0  0  0  0  0  0  0  0
  -26.9899  -16.1697   22.8532 C   0  0  0  0  0  0  0  0  0  0  0  0
  -25.0124  -17.9560   21.5712 C   0  0  0  0  0  0  0  0  0  0  0  0
  -26.0636  -10.8936   20.5088 C   0  0  0  0  0  0  0  0  0  0  0  0
  -26.4550  -32.3068   22.4033 C   0  0  0  0  0  0  0  0  0  0  0  0
  -25.7834  -12.0753   19.5859 C   0  0  0  0  0  0  0  0  0  0  0  0
  -25.2617  -31.6348   23.0863 C   0  0  0  0  0  0  0  0  0  0  0  0
  -26.7864  -31.6495   21.0647 C   0  0  0  0  0  0  0  0  0  0  0  0
  -25.7849  -29.5225   21.8011 C   0  0  0  0  0  0  0  0  0  0  0  0
  -26.8496  -13.1657   19.7464 C   0  0  1  0  0  0  0  0  0  0  0  0
  -25.6445  -15.6517   22.3542 C   0  0  1  0  0  0  0  0  0  0  0  0
  -25.4541  -30.1086   23.1834 C   0  0  2  0  0  0  0  0  0  0  0  0
  -20.0060  -20.1138   25.2351 C   0  0  0  0  0  0  0  0  0  0  0  0
  -21.7184  -16.3917   20.0308 C   0  0  0  0  0  0  0  0  0  0  0  0
  -20.1585  -18.0620   21.0532 C   0  0  0  0  0  0  0  0  0  0  0  0
  -20.4000  -15.7975   22.0712 C   0  0  0  0  0  0  0  0  0  0  0  0
  -23.6421  -20.0431   26.3532 C   0  0  0  0  0  0  0  0  0  0  0  0
  -30.3228  -22.5876   19.6938 C   0  0  0  0  0  0  0  0  0  0  0  0
  -30.0711  -21.2452   20.3597 C   0  0  0  0  0  0  0  0  0  1  0  0
  -22.2811  -17.4700   22.3082 C   0  0  1  0  0  0  0  0  0  0  0  0
  -21.4053  -19.5328   25.3656 C   0  0  2  0  0  0  0  0  0  0  0  0
  -21.1674  -16.9358   21.3640 C   0  0  0  0  0  0  0  0  0  0  0  0
  -23.2732  -28.9688   23.0220 N   0  0  0  0  0  0  0  0  0  0  0  0
  -24.2540  -29.4299   23.8167 N   0  0  0  0  0  0  0  0  0  0  0  0
  -24.6346  -16.7072   22.2533 N   0  0  0  0  0  0  0  0  0  0  0  0
  -26.9589  -30.2052   21.2349 N   0  0  0  0  0  0  0  0  0  0  0  0
  -24.9177  -29.6176   26.0827 N   0  0  0  0  0  0  0  0  0  0  0  0
  -20.9373  -27.4989   26.3350 N   0  0  0  0  0  0  0  0  0  0  0  0
  -28.2367  -28.2276   21.0968 N   0  0  0  0  0  0  0  0  0  0  0  0
  -29.6036  -23.6332   20.3848 N   0  0  0  0  0  0  0  0  0  0  0  0
  -26.6102  -13.9335   20.9495 N   0  0  0  0  0  0  0  0  0  0  0  0
  -21.7909  -17.9667   23.5894 N   0  0  0  0  0  0  0  0  0  0  0  0
  -22.2453  -20.4974   26.1303 N   0  3  0  0  0  0  0  0  0  0  0  0
  -22.6762  -28.3475   27.5658 O   0  0  0  0  0  0  0  0  0  0  0  0
  -25.0662  -15.4412   20.0746 O   0  0  0  0  0  0  0  0  0  0  0  0
  -22.9669  -15.3829   23.2026 O   0  0  0  0  0  0  0  0  0  0  0  0
  -22.6382  -20.1141   23.3708 O   0  0  0  0  0  0  0  0  0  0  0  0
  -29.1083  -30.2564   20.3856 O   0  0  0  0  0  0  0  0  0  0  0  0
  -17.6813  -26.0846   22.0415 O   0  0  0  0  0  0  0  0  0  0  0  0
  -28.6737  -20.9569   20.3354 O   0  0  0  0  0  0  0  0  0  1  0  0
  -16.2117  -21.2384   24.2231 F   0  0  0  0  0  0  0  0  0  0  0  0
  -17.2060  -25.8358   24.7535 F   0  0  0  0  0  0  0  0  0  0  0  0
  -28.1809  -25.5374   21.7895 F   0  0  0  0  0  0  0  0  0  0  0  0
  1  2  1  0  0  0  0
  1  6  2  0  0  0  0
  2  7  2  0  0  0  0
  3  9  1  0  0  0  0
  3 10  2  0  0  0  0
  4 11  2  0  0  0  0
  4 18  1  0  0  0  0
  5 12  1  0  0  0  0
  5 18  2  0  0  0  0
  6 20  1  0  0  0  0
  7 22  1  0  0  0  0
  8 13  2  0  0  0  0
  8 21  1  0  0  0  0
  9 24  2  0  0  0  0
 10 25  1  0  0  0  0
 11 26  1  0  0  0  0
 12 26  2  0  0  0  0
 13 27  1  0  0  0  0
 14 15  2  0  0  0  0
 14 28  1  0  0  0  0
 15 29  1  0  0  0  0
 16 23  1  0  0  0  0
 16 27  2  0  0  0  0
 17 29  2  0  0  0  0
 17 30  1  0  0  0  0
 18 32  1  0  0  0  0
 19 32  1  0  0  0  0
 19 33  2  0  0  0  0
 19 34  1  0  0  0  0
 20 22  2  0  0  0  0
 20 39  1  0  0  0  0
 21 23  2  0  0  0  0
 21 40  1  0  0  0  0
 22 48  1  0  0  0  0
 23 41  1  0  0  0  0
 24 31  1  0  0  0  0
 24 67  1  0  0  0  0
 25 31  2  0  0  0  0
 25 68  1  0  0  0  0
 26 77  1  0  0  0  0
 27 78  1  0  0  0  0
 28 30  2  0  0  0  0
 28 77  1  0  0  0  0
 29 79  1  0  0  0  0
 30 80  1  0  0  0  0
 31 81  1  0  0  0  0
 32 61  2  0  0  0  0
 33 62  1  0  0  0  0
 33 65  1  0  0  0  0
 34 66  1  0  0  0  0
 34 72  2  0  0  0  0
 35 49  1  0  0  0  0
 35 69  1  0  0  0  0
 35 73  2  0  0  0  0
 36 58  1  0  0  0  0
 36 63  1  0  0  0  0
 36 74  2  0  0  0  0
 37 59  1  0  0  0  0
 37 70  1  0  0  0  0
 37 75  2  0  0  0  0
 38 64  1  0  0  0  0
 38 67  1  0  0  0  0
 38 76  2  0  0  0  0
 39 42  1  0  0  0  0
 40 49  1  0  0  0  0
 41 63  1  0  0  0  0
 42 44  1  0  0  0  0
 43 45  1  0  0  0  0
 43 46  1  0  0  0  0
 44 48  1  0  0  0  0
 45 50  1  0  0  0  0
 46 64  1  0  0  0  0
 47 50  1  0  0  0  0
 47 64  1  0  0  0  0
 48 69  1  0  0  0  0
 49 63  1  0  0  0  0
 50 62  1  0  0  0  0
 51 59  1  0  0  0  0
 52 60  1  0  0  0  0
 53 60  1  0  0  0  0
 54 60  1  0  0  0  0
 55 71  1  0  0  0  0
 56 57  1  0  0  0  0
 56 68  1  0  0  0  0
 57 78  1  0  0  0  0
 58 60  1  0  0  0  0
 58 70  1  0  0  0  0
 59 71  1  0  0  0  0
 61 62  1  0  0  0  0
M  CHG  1  71   1
M  ISO  4  38 100  57 101  67 100  78 101
M  END
> <Batch ID>
0009

> <Smiles>
CNC(C)C(=O)NC(C(=O)N1Cc2cc([101O:1][101CH2:1]CNc3cccc([100NH:0][100C:0](=O)N4CCCC(n5nc(-c6ccc(Oc7ccc(F)cc7F)cc6)c(C(N)=O)c5N)C4)c3F)ccc2CC1C(=O)NC1CCCc2ccccc21)C(C)(C)C

> <Shape>
0.242

> <Color>
0.060

> <Negative vol penalty>
0.000

$$$$

  -OEChem-04042320373D

 87 97  0     1  0  0  0  0  0999 V2000
  -17.3560  -11.7593   22.1805 C   0  0  0  0  0  0  0  0  0  0  0  0
  -17.9259  -12.9354   22.6573 C   0  0  0  0  0  0  0  0  0  0  0  0
  -22.1163  -27.9811   20.9713 C   0  0  0  0  0  0  0  0  0  0  0  0
  -22.7788  -26.2857   22.5600 C   0  0  0  0  0  0  0  0  0  0  0  0
  -18.1508  -10.6307   21.9836 C   0  0  0  0  0  0  0  0  0  0  0  0
  -19.2909  -12.9833   22.9385 C   0  0  0  0  0  0  0  0  0  0  0  0
  -23.5936  -17.7225   19.6342 C   0  0  0  0  0  0  0  0  0  0  0  0
  -31.9489  -21.9089   21.8901 C   0  0  0  0  0  0  0  0  0  0  0  0
  -20.8052  -27.9098   21.4419 C   0  0  0  0  0  0  0  0  0  0  0  0
  -21.4676  -26.2144   23.0306 C   0  0  0  0  0  0  0  0  0  0  0  0
  -24.4443  -18.7395   19.2004 C   0  0  0  0  0  0  0  0  0  0  0  0
  -19.0419  -29.0612   24.0873 C   0  0  0  0  0  0  0  0  0  0  0  0
  -32.9566  -22.6679   22.4724 C   0  0  0  0  0  0  0  0  0  0  0  0
  -18.3713  -30.2614   24.3220 C   0  0  0  0  0  0  0  0  0  0  0  0
  -26.2862  -17.7215   20.3915 C   0  0  0  0  0  0  0  0  0  0  0  0
  -16.6865  -29.6358   22.7073 C   0  0  0  0  0  0  0  0  0  0  0  0
  -23.1031  -27.1691   21.5304 C   0  0  0  0  0  0  0  0  0  0  0  0
  -25.4850  -28.0824   21.5132 C   0  0  0  0  0  0  0  0  0  0  0  0
  -19.5279  -10.6677   22.2534 C   0  0  0  0  0  0  0  0  0  0  0  0
  -24.0902  -16.6915   20.4366 C   0  0  0  0  0  0  0  0  0  0  0  0
  -20.1045  -11.8539   22.7463 C   0  0  0  0  0  0  0  0  0  0  0  0
  -25.4418  -16.6933   20.8188 C   0  0  0  0  0  0  0  0  0  0  0  0
  -32.4301  -24.5108   20.9763 C   0  0  0  0  0  0  0  0  0  0  0  0
  -31.1809  -22.4408   20.8521 C   0  0  0  0  0  0  0  0  0  0  0  0
  -31.4218  -23.7359   20.3644 C   0  0  0  0  0  0  0  0  0  0  0  0
  -20.4808  -27.0264   22.4715 C   0  0  0  0  0  0  0  0  0  0  0  0
  -25.7872  -18.7391   19.5783 C   0  0  0  0  0  0  0  0  0  0  0  0
  -18.5350  -28.1482   23.1624 C   0  0  0  0  0  0  0  0  0  0  0  0
  -17.1935  -30.5488   23.6321 C   0  0  0  0  0  0  0  0  0  0  0  0
  -33.1890  -23.9657   22.0256 C   0  0  0  0  0  0  0  0  0  0  0  0
  -17.3572  -28.4356   22.4725 C   0  0  0  0  0  0  0  0  0  0  0  0
  -24.4576  -27.2419   21.0443 C   0  0  0  0  0  0  0  0  0  0  0  0
  -26.5687  -27.7701   20.7293 C   0  0  0  0  0  0  0  0  0  0  0  0
  -25.4618  -29.0581   22.5635 C   0  0  0  0  0  0  0  0  0  0  0  0
  -23.3780  -13.5036   22.2822 C   0  0  0  0  0  0  0  0  0  0  0  0
  -26.1190  -13.1667   20.9464 C   0  0  0  0  0  0  0  0  0  0  0  0
  -28.8988  -13.0388   18.9732 C   0  0  0  0  0  0  0  0  0  0  0  0
  -29.7099  -23.5723   18.5321 C   0  0  0  0  0  0  0  0  0  0  0  0
  -20.3376   -9.4087   22.0699 C   0  0  0  0  0  0  0  0  0  0  0  0
  -23.1964  -15.6089   20.9778 C   0  0  0  0  0  0  0  0  0  0  0  0
  -32.6888  -25.9430   20.5809 C   0  0  0  0  0  0  0  0  0  0  0  0
  -25.9241  -15.5827   21.7115 C   0  0  0  0  0  0  0  0  0  0  0  0
  -21.8441   -9.6528   22.0365 C   0  0  0  0  0  0  0  0  0  0  0  0
  -32.0625  -26.2988   19.2410 C   0  0  0  0  0  0  0  0  0  0  0  0
  -26.9516  -25.0126   16.5229 C   0  0  0  0  0  0  0  0  0  0  0  0
  -22.2598  -10.5816   23.1729 C   0  0  0  0  0  0  0  0  0  0  0  0
  -26.0977  -25.7150   17.5766 C   0  0  0  0  0  0  0  0  0  0  0  0
  -29.0099  -19.8426   19.2604 C   0  0  0  0  0  0  0  0  0  0  0  0
  -27.5903  -21.5562   20.3984 C   0  0  0  0  0  0  0  0  0  0  0  0
  -30.6475  -25.7529   19.1644 C   0  0  0  0  0  0  0  0  0  0  0  0
  -27.7048  -23.8217   17.1073 C   0  0  0  0  0  0  0  0  0  0  0  0
  -30.2171  -20.2973   20.0760 C   0  0  0  0  0  0  0  0  0  0  0  0
  -28.7942  -22.0094   21.2184 C   0  0  0  0  0  0  0  0  0  0  0  0
  -27.6927  -24.8797   19.3494 C   0  0  0  0  0  0  0  0  0  0  0  0
  -21.5859  -11.9526   23.0394 C   0  0  1  0  0  0  0  0  0  0  0  0
  -23.8993  -14.2438   21.0856 C   0  0  1  0  0  0  0  0  0  0  0  0
  -26.9519  -26.1052   18.7937 C   0  0  2  0  0  0  0  0  0  0  0  0
  -27.7008  -20.0892   19.9993 C   0  0  0  0  0  0  0  0  0  1  0  0
  -30.8027  -11.5283   18.3479 C   0  0  0  0  0  0  0  0  0  0  0  0
  -27.4693  -13.7706   23.6140 C   0  0  0  0  0  0  0  0  0  0  0  0
  -29.6469  -13.0856   22.5859 C   0  0  0  0  0  0  0  0  0  0  0  0
  -27.7901  -11.4321   22.7877 C   0  0  0  0  0  0  0  0  0  0  0  0
  -28.0827  -12.9955   16.1287 C   0  0  0  0  0  0  0  0  0  0  0  0
  -27.6156  -13.2897   21.0815 C   0  0  1  0  0  0  0  0  0  0  0  0
  -29.3950  -11.9859   17.9988 C   0  0  2  0  0  0  0  0  0  0  0  0
  -28.1149  -12.9152   22.5056 C   0  0  0  0  0  0  0  0  0  0  0  0
  -24.8532  -26.4549   20.0402 N   0  0  0  0  0  0  0  0  0  0  0  0
  -26.1411  -26.7996   19.8717 N   0  0  0  0  0  0  0  0  0  0  0  0
  -30.6416  -24.2954   19.2936 N   0  0  0  0  0  0  0  0  0  0  0  0
  -30.0486  -21.6839   20.5251 N   0  0  0  0  0  0  0  0  0  0  0  0
  -25.3599  -14.2991   21.2658 N   0  0  0  0  0  0  0  0  0  0  0  0
  -28.4651  -24.1912   18.3022 N   0  0  0  0  0  0  0  0  0  0  0  0
  -27.8361  -28.2338   20.6968 N   0  0  0  0  0  0  0  0  0  0  0  0
  -24.2662  -29.2526   23.2685 N   0  0  0  0  0  0  0  0  0  0  0  0
  -22.2506  -12.7461   22.0280 N   0  0  0  0  0  0  0  0  0  0  0  0
  -28.1899  -12.4775   20.0143 N   0  0  0  0  0  0  0  0  0  0  0  0
  -29.4082  -12.5294   16.6112 N   0  3  0  0  0  0  0  0  0  0  0  0
  -26.4668  -29.7490   22.8569 O   0  0  0  0  0  0  0  0  0  0  0  0
  -23.9563  -13.6098   23.3574 O   0  0  0  0  0  0  0  0  0  0  0  0
  -25.6330  -12.0952   20.5735 O   0  0  0  0  0  0  0  0  0  0  0  0
  -29.1211  -14.2387   18.8276 O   0  0  0  0  0  0  0  0  0  0  0  0
  -29.9541  -22.4227   18.1451 O   0  0  0  0  0  0  0  0  0  0  0  0
  -19.2016  -26.9567   22.9311 O   0  0  0  0  0  0  0  0  0  0  0  0
  -26.6188  -19.7393   19.1446 O   0  0  0  0  0  0  0  0  0  1  0  0
  -16.5487  -31.7007   23.8588 F   0  0  0  0  0  0  0  0  0  0  0  0
  -34.1426  -24.6990   22.6187 F   0  0  0  0  0  0  0  0  0  0  0  0
  -16.8647  -27.5619   21.5837 F   0  0  0  0  0  0  0  0  0  0  0  0
  1  2  1  0  0  0  0
  1  5  2  0  0  0  0
  2  6  2  0  0  0  0
  3  9  2  0  0  0  0
  3 17  1  0  0  0  0
  4 10  1  0  0  0  0
  4 17  2  0  0  0  0
  5 19  1  0  0  0  0
  6 21  1  0  0  0  0
  7 11  2  0  0  0  0
  7 20  1  0  0  0  0
  8 13  2  0  0  0  0
  8 24  1  0  0  0  0
  9 26  1  0  0  0  0
 10 26  2  0  0  0  0
 11 27  1  0  0  0  0
 12 14  2  0  0  0  0
 12 28  1  0  0  0  0
 13 30  1  0  0  0  0
 14 29  1  0  0  0  0
 15 22  1  0  0  0  0
 15 27  2  0  0  0  0
 16 29  2  0  0  0  0
 16 31  1  0  0  0  0
 17 32  1  0  0  0  0
 18 32  1  0  0  0  0
 18 33  2  0  0  0  0
 18 34  1  0  0  0  0
 19 21  2  0  0  0  0
 19 39  1  0  0  0  0
 20 22  2  0  0  0  0
 20 40  1  0  0  0  0
 21 55  1  0  0  0  0
 22 42  1  0  0  0  0
 23 25  1  0  0  0  0
 23 30  2  0  0  0  0
 23 41  1  0  0  0  0
 24 25  2  0  0  0  0
 24 70  1  0  0  0  0
 25 69  1  0  0  0  0
 26 83  1  0  0  0  0
 27 84  1  0  0  0  0
 28 31  2  0  0  0  0
 28 83  1  0  0  0  0
 29 85  1  0  0  0  0
 30 86  1  0  0  0  0
 31 87  1  0  0  0  0
 32 67  2  0  0  0  0
 33 68  1  0  0  0  0
 33 73  1  0  0  0  0
 34 74  1  0  0  0  0
 34 78  2  0  0  0  0
 35 56  1  0  0  0  0
 35 75  1  0  0  0  0
 35 79  2  0  0  0  0
 36 64  1  0  0  0  0
 36 71  1  0  0  0  0
 36 80  2  0  0  0  0
 37 65  1  0  0  0  0
 37 76  1  0  0  0  0
 37 81  2  0  0  0  0
 38 69  1  0  0  0  0
 38 72  1  0  0  0  0
 38 82  2  0  0  0  0
 39 43  1  0  0  0  0
 40 56  1  0  0  0  0
 41 44  1  0  0  0  0
 42 71  1  0  0  0  0
 43 46  1  0  0  0  0
 44 50  1  0  0  0  0
 45 47  1  0  0  0  0
 45 51  1  0  0  0  0
 46 55  1  0  0  0  0
 47 57  1  0  0  0  0
 48 52  1  0  0  0  0
 48 58  1  0  0  0  0
 49 53  1  0  0  0  0
 49 58  1  0  0  0  0
 50 69  1  0  0  0  0
 51 72  1  0  0  0  0
 52 70  1  0  0  0  0
 53 70  1  0  0  0  0
 54 57  1  0  0  0  0
 54 72  1  0  0  0  0
 55 75  1  0  0  0  0
 56 71  1  0  0  0  0
 57 68  1  0  0  0  0
 58 84  1  0  0  0  0
 59 65  1  0  0  0  0
 60 66  1  0  0  0  0
 61 66  1  0  0  0  0
 62 66  1  0  0  0  0
 63 77  1  0  0  0  0
 64 66  1  0  0  0  0
 64 76  1  0  0  0  0
 65 77  1  0  0  0  0
 67 68  1  0  0  0  0
M  CHG  1  77   1
M  ISO  4  38 100  58 101  69 100  84 101
M  END
> <Batch ID>
0009

> <Smiles>
CNC(C)C(=O)NC(C(=O)N1Cc2cc([101O:1][101CH:1]3CCN(c4ccc(F)c5c4[100N:0]([100C:0](=O)N4CCCC(n6nc(-c7ccc(Oc8ccc(F)cc8F)cc7)c(C(N)=O)c6N)C4)CCC5)CC3)ccc2CC1C(=O)NC1CCCc2ccccc21)C(C)(C)C

> <Shape>
0.282

> <Color>
0.061

> <Negative vol penalty>
0.000

$$$$

  -OEChem-04042320373D

 81 89  0     1  0  0  0  0  0999 V2000
  -23.6146  -32.7404   26.6417 C   0  0  0  0  0  0  0  0  0  0  0  0
  -24.8879  -32.2906   26.3072 C   0  0  0  0  0  0  0  0  0  0  0  0
  -24.0433   -9.7225   21.7174 C   0  0  0  0  0  0  0  0  0  0  0  0
  -24.6463  -10.9946   23.6809 C   0  0  0  0  0  0  0  0  0  0  0  0
  -22.4922  -32.0271   26.2230 C   0  0  0  0  0  0  0  0  0  0  0  0
  -25.0395  -31.1265   25.5547 C   0  0  0  0  0  0  0  0  0  0  0  0
  -29.3143  -28.1906   20.6127 C   0  0  0  0  0  0  0  0  0  0  0  0
  -30.7820  -18.9585   20.2106 C   0  0  0  0  0  0  0  0  0  0  0  0
  -23.6164   -8.6717   22.5293 C   0  0  0  0  0  0  0  0  0  0  0  0
  -24.2193   -9.9438   24.4928 C   0  0  0  0  0  0  0  0  0  0  0  0
  -30.0451  -27.0275   20.3746 C   0  0  0  0  0  0  0  0  0  0  0  0
  -31.0681  -20.2797   20.5541 C   0  0  0  0  0  0  0  0  0  0  0  0
  -20.9059   -7.9145   24.4036 C   0  0  0  0  0  0  0  0  0  0  0  0
  -19.6862   -7.3118   24.0959 C   0  0  0  0  0  0  0  0  0  0  0  0
  -28.0319  -25.9204   19.6392 C   0  0  0  0  0  0  0  0  0  0  0  0
  -28.7097  -20.7140   20.8479 C   0  0  0  0  0  0  0  0  0  0  0  0
  -20.8098   -5.1954   23.7874 C   0  0  0  0  0  0  0  0  0  0  0  0
  -24.5583  -10.8839   22.2932 C   0  0  0  0  0  0  0  0  0  0  0  0
  -24.2298  -13.0524   20.9902 C   0  0  0  0  0  0  0  0  0  0  0  0
  -22.6299  -30.8589   25.4568 C   0  0  0  0  0  0  0  0  0  0  0  0
  -27.9326  -28.2242   20.3757 C   0  0  0  0  0  0  0  0  0  0  0  0
  -23.9180  -30.3961   25.1265 C   0  0  0  0  0  0  0  0  0  0  0  0
  -27.2863  -27.0860   19.8726 C   0  0  0  0  0  0  0  0  0  0  0  0
  -29.4598  -18.5150   20.1855 C   0  0  0  0  0  0  0  0  0  0  0  0
  -23.7044   -8.7823   23.9170 C   0  0  0  0  0  0  0  0  0  0  0  0
  -29.4035  -25.8912   19.8905 C   0  0  0  0  0  0  0  0  0  0  0  0
  -30.0320  -21.1575   20.8728 C   0  0  0  0  0  0  0  0  0  0  0  0
  -22.0776   -7.1576   24.4031 C   0  0  0  0  0  0  0  0  0  0  0  0
  -19.6381   -5.9523   23.7878 C   0  0  0  0  0  0  0  0  0  0  0  0
  -28.4236  -19.3928   20.5042 C   0  0  0  0  0  0  0  0  0  0  0  0
  -22.0296   -5.7981   24.0950 C   0  0  0  0  0  0  0  0  0  0  0  0
  -25.0000  -11.9695   21.4550 C   0  0  0  0  0  0  0  0  0  0  0  0
  -25.1046  -13.7986   20.2391 C   0  0  0  0  0  0  0  0  0  0  0  0
  -22.8471  -13.3565   21.2173 C   0  0  0  0  0  0  0  0  0  0  0  0
  -25.3581  -28.6945   22.1797 C   0  0  0  0  0  0  0  0  0  0  0  0
  -23.8210  -28.6090   19.3245 C   0  0  0  0  0  0  0  0  0  0  0  0
  -23.8043  -27.5722   16.0731 C   0  0  0  0  0  0  0  0  0  0  0  0
  -30.0847  -16.1747   19.4935 C   0  0  0  0  0  0  0  0  0  0  0  0
  -21.3887  -30.0957   25.0674 C   0  0  0  0  0  0  0  0  0  0  0  0
  -27.1632  -29.4948   20.6123 C   0  0  0  0  0  0  0  0  0  0  0  0
  -25.8084  -27.0763   19.5826 C   0  0  0  0  0  0  0  0  0  0  0  0
  -21.6240  -29.0770   23.9551 C   0  0  0  0  0  0  0  0  0  0  0  0
  -29.7777  -12.7400   18.6070 C   0  0  0  0  0  0  0  0  0  0  0  0
  -22.8783  -28.2567   24.2391 C   0  0  0  0  0  0  0  0  0  0  0  0
  -28.4440  -12.3225   19.2307 C   0  0  0  0  0  0  0  0  0  0  0  0
  -30.5323  -13.7304   19.4921 C   0  0  0  0  0  0  0  0  0  0  0  0
  -28.4284  -14.4960   20.5202 C   0  0  0  0  0  0  0  0  0  0  0  0
  -24.1226  -29.1513   24.2906 C   0  0  1  0  0  0  0  0  0  0  0  0
  -25.6707  -29.2593   20.8229 C   0  0  1  0  0  0  0  0  0  0  0  0
  -27.6023  -13.5488   19.6347 C   0  0  2  0  0  0  0  0  0  0  0  0
  -22.3954  -27.6215   13.9970 C   0  0  0  0  0  0  0  0  0  0  0  0
  -22.0091  -26.4570   20.5059 C   0  0  0  0  0  0  0  0  0  0  0  0
  -21.2863  -25.8860   18.1779 C   0  0  0  0  0  0  0  0  0  0  0  0
  -20.8302  -28.1578   19.1017 C   0  0  0  0  0  0  0  0  0  0  0  0
  -25.8768  -29.0487   14.5620 C   0  0  0  0  0  0  0  0  0  0  0  0
  -31.2612  -24.5267   20.4758 C   0  0  0  0  0  0  0  0  0  1  0  0
  -31.4737  -23.0327   20.6261 C   0  0  0  0  0  0  0  0  0  0  0  0
  -23.1974  -27.5257   18.4781 C   0  0  1  0  0  0  0  0  0  0  0  0
  -23.5008  -28.3106   14.7819 C   0  0  2  0  0  0  0  0  0  0  0  0
  -21.8583  -27.0059   19.0731 C   0  0  0  0  0  0  0  0  0  0  0  0
  -26.2666  -12.0195   21.0342 N   0  0  0  0  0  0  0  0  0  0  0  0
  -26.2990  -13.1428   20.2971 N   0  0  0  0  0  0  0  0  0  0  0  0
  -25.0986  -28.3411   19.8361 N   0  0  0  0  0  0  0  0  0  0  0  0
  -29.6740  -14.8677   19.8310 N   0  0  0  0  0  0  0  0  0  0  0  0
  -24.9610  -14.9452   19.5412 N   0  0  0  0  0  0  0  0  0  0  0  0
  -22.0930  -12.4837   22.0134 N   0  0  0  0  0  0  0  0  0  0  0  0
  -29.1724  -17.1722   19.8360 N   0  0  0  0  0  0  0  0  0  0  0  0
  -24.5475  -29.5037   22.9528 N   0  0  0  0  0  0  0  0  0  0  0  0
  -23.0794  -28.0763   17.1322 N   0  0  0  0  0  0  0  0  0  0  0  0
  -24.7173  -28.3743   13.9234 N   0  3  0  0  0  0  0  0  0  0  0  0
  -22.2926  -14.3634   20.7151 O   0  0  0  0  0  0  0  0  0  0  0  0
  -25.8170  -27.6046   22.5009 O   0  0  0  0  0  0  0  0  0  0  0  0
  -23.2006  -29.6574   19.5185 O   0  0  0  0  0  0  0  0  0  0  0  0
  -24.6016  -26.6390   16.1351 O   0  0  0  0  0  0  0  0  0  0  0  0
  -31.1537  -16.3905   18.9167 O   0  0  0  0  0  0  0  0  0  0  0  0
  -23.2877   -7.7573   24.7095 O   0  0  0  0  0  0  0  0  0  0  0  0
  -30.1143  -24.7543   19.6579 O   0  0  0  0  0  0  0  0  0  1  0  0
  -30.3131  -22.4549   21.2114 O   0  0  0  0  0  0  0  0  0  0  0  0
  -18.4666   -5.3733   23.4939 F   0  0  0  0  0  0  0  0  0  0  0  0
  -27.1490  -18.9774   20.4830 F   0  0  0  0  0  0  0  0  0  0  0  0
  -23.1517   -5.0655   24.0941 F   0  0  0  0  0  0  0  0  0  0  0  0
  1  2  1  0  0  0  0
  1  5  2  0  0  0  0
  2  6  2  0  0  0  0
  3  9  2  0  0  0  0
  3 18  1  0  0  0  0
  4 10  1  0  0  0  0
  4 18  2  0  0  0  0
  5 20  1  0  0  0  0
  6 22  1  0  0  0  0
  7 11  2  0  0  0  0
  7 21  1  0  0  0  0
  8 12  2  0  0  0  0
  8 24  1  0  0  0  0
  9 25  1  0  0  0  0
 10 25  2  0  0  0  0
 11 26  1  0  0  0  0
 12 27  1  0  0  0  0
 13 14  2  0  0  0  0
 13 28  1  0  0  0  0
 14 29  1  0  0  0  0
 15 23  1  0  0  0  0
 15 26  2  0  0  0  0
 16 27  2  0  0  0  0
 16 30  1  0  0  0  0
 17 29  2  0  0  0  0
 17 31  1  0  0  0  0
 18 32  1  0  0  0  0
 19 32  1  0  0  0  0
 19 33  2  0  0  0  0
 19 34  1  0  0  0  0
 20 22  2  0  0  0  0
 20 39  1  0  0  0  0
 21 23  2  0  0  0  0
 21 40  1  0  0  0  0
 22 48  1  0  0  0  0
 23 41  1  0  0  0  0
 24 30  2  0  0  0  0
 24 67  1  0  0  0  0
 25 76  1  0  0  0  0
 26 77  1  0  0  0  0
 27 78  1  0  0  0  0
 28 31  2  0  0  0  0
 28 76  1  0  0  0  0
 29 79  1  0  0  0  0
 30 80  1  0  0  0  0
 31 81  1  0  0  0  0
 32 61  2  0  0  0  0
 33 62  1  0  0  0  0
 33 65  1  0  0  0  0
 34 66  1  0  0  0  0
 34 71  2  0  0  0  0
 35 49  1  0  0  0  0
 35 68  1  0  0  0  0
 35 72  2  0  0  0  0
 36 58  1  0  0  0  0
 36 63  1  0  0  0  0
 36 73  2  0  0  0  0
 37 59  1  0  0  0  0
 37 69  1  0  0  0  0
 37 74  2  0  0  0  0
 38 64  1  0  0  0  0
 38 67  1  0  0  0  0
 38 75  2  0  0  0  0
 39 42  1  0  0  0  0
 40 49  1  0  0  0  0
 41 63  1  0  0  0  0
 42 44  1  0  0  0  0
 43 45  1  0  0  0  0
 43 46  1  0  0  0  0
 44 48  1  0  0  0  0
 45 50  1  0  0  0  0
 46 64  1  0  0  0  0
 47 50  1  0  0  0  0
 47 64  1  0  0  0  0
 48 68  1  0  0  0  0
 49 63  1  0  0  0  0
 50 62  1  0  0  0  0
 51 59  1  0  0  0  0
 52 60  1  0  0  0  0
 53 60  1  0  0  0  0
 54 60  1  0  0  0  0
 55 70  1  0  0  0  0
 56 57  1  0  0  0  0
 56 77  1  0  0  0  0
 57 78  1  0  0  0  0
 58 60  1  0  0  0  0
 58 69  1  0  0  0  0
 59 70  1  0  0  0  0
 61 62  1  0  0  0  0
M  CHG  1  70   1
M  ISO  4  38 100  56 101  67 100  77 101
M  END
> <Batch ID>
0009

> <Smiles>
CNC(C)C(=O)NC(C(=O)N1Cc2cc([101O:1][101CH2:1]COc3ccc([100NH:0][100C:0](=O)N4CCCC(n5nc(-c6ccc(Oc7ccc(F)cc7F)cc6)c(C(N)=O)c5N)C4)c(F)c3)ccc2CC1C(=O)NC1CCCc2ccccc21)C(C)(C)C

> <Shape>
0.293

> <Color>
0.123

> <Negative vol penalty>
0.000

$$$$

  -OEChem-04042320373D

 81 89  0     1  0  0  0  0  0999 V2000
  -31.8150  -33.9272   23.9279 C   0  0  0  0  0  0  0  0  0  0  0  0
  -31.5391  -32.8345   23.1123 C   0  0  0  0  0  0  0  0  0  0  0  0
  -27.0500  -10.8914   21.5132 C   0  0  0  0  0  0  0  0  0  0  0  0
  -25.9071  -11.5920   19.5032 C   0  0  0  0  0  0  0  0  0  0  0  0
  -30.9921  -34.2075   25.0179 C   0  0  0  0  0  0  0  0  0  0  0  0
  -30.4406  -32.0207   23.3869 C   0  0  0  0  0  0  0  0  0  0  0  0
  -26.8579  -29.1749   19.3161 C   0  0  0  0  0  0  0  0  0  0  0  0
  -25.9452  -10.1194   21.8723 C   0  0  0  0  0  0  0  0  0  0  0  0
  -24.8023  -10.8199   19.8623 C   0  0  0  0  0  0  0  0  0  0  0  0
  -26.8369  -27.8651   18.8391 C   0  0  0  0  0  0  0  0  0  0  0  0
  -25.6201  -21.3151   16.3631 C   0  0  0  0  0  0  0  0  0  0  0  0
  -22.1757  -11.0614   21.9774 C   0  0  0  0  0  0  0  0  0  0  0  0
  -25.8037  -20.0113   15.9027 C   0  0  0  0  0  0  0  0  0  0  0  0
  -20.9124  -11.6384   21.8485 C   0  0  0  0  0  0  0  0  0  0  0  0
  -25.1328  -27.3106   20.4540 C   0  0  0  0  0  0  0  0  0  0  0  0
  -27.1565  -20.8903   18.1787 C   0  0  0  0  0  0  0  0  0  0  0  0
  -20.2751   -9.8973   20.2995 C   0  0  0  0  0  0  0  0  0  0  0  0
  -27.0310  -11.6277   20.3286 C   0  0  0  0  0  0  0  0  0  0  0  0
  -29.2781  -12.0208   19.1869 C   0  0  0  0  0  0  0  0  0  0  0  0
  -29.8774  -33.4024   25.3004 C   0  0  0  0  0  0  0  0  0  0  0  0
  -26.0228  -29.5604   20.3747 C   0  0  0  0  0  0  0  0  0  0  0  0
  -29.6027  -32.2897   24.4825 C   0  0  0  0  0  0  0  0  0  0  0  0
  -25.1432  -28.6266   20.9409 C   0  0  0  0  0  0  0  0  0  0  0  0
  -27.3401  -19.5865   17.7182 C   0  0  0  0  0  0  0  0  0  0  0  0
  -24.8214  -10.0836   21.0469 C   0  0  0  0  0  0  0  0  0  0  0  0
  -25.9764  -26.9319   19.4099 C   0  0  0  0  0  0  0  0  0  0  0  0
  -26.2965  -21.7546   17.5011 C   0  0  0  0  0  0  0  0  0  0  0  0
  -22.4888   -9.9023   21.2672 C   0  0  0  0  0  0  0  0  0  0  0  0
  -19.9621  -11.0564   21.0096 C   0  0  0  0  0  0  0  0  0  0  0  0
  -26.6637  -19.1470   16.5802 C   0  0  0  0  0  0  0  0  0  0  0  0
  -21.5385   -9.3203   20.4283 C   0  0  0  0  0  0  0  0  0  0  0  0
  -28.1717  -12.4259   19.9574 C   0  0  0  0  0  0  0  0  0  0  0  0
  -30.0769  -13.1361   19.1204 C   0  0  0  0  0  0  0  0  0  0  0  0
  -29.5586  -10.7501   18.5850 C   0  0  0  0  0  0  0  0  0  0  0  0
  -26.4962  -30.6628   23.3182 C   0  0  0  0  0  0  0  0  0  0  0  0
  -23.2685  -30.9846   23.2975 C   0  0  0  0  0  0  0  0  0  0  0  0
  -20.2671  -30.0009   22.0049 C   0  0  0  0  0  0  0  0  0  0  0  0
  -28.9589  -18.9900   19.5539 C   0  0  0  0  0  0  0  0  0  0  0  0
  -29.0442  -33.7172   26.5175 C   0  0  0  0  0  0  0  0  0  0  0  0
  -26.0382  -30.9840   20.8599 C   0  0  0  0  0  0  0  0  0  0  0  0
  -24.2122  -28.9951   22.0659 C   0  0  0  0  0  0  0  0  0  0  0  0
  -27.6837  -33.0250   26.5200 C   0  0  0  0  0  0  0  0  0  0  0  0
  -31.1945  -17.0937   21.5747 C   0  0  0  0  0  0  0  0  0  0  0  0
  -27.8327  -31.5535   26.1471 C   0  0  0  0  0  0  0  0  0  0  0  0
  -30.7777  -15.6443   21.3145 C   0  0  0  0  0  0  0  0  0  0  0  0
  -29.9906  -18.0337   21.6024 C   0  0  0  0  0  0  0  0  0  0  0  0
  -28.6974  -16.5056   20.1665 C   0  0  0  0  0  0  0  0  0  0  0  0
  -28.4061  -31.3979   24.7334 C   0  0  1  0  0  0  0  0  0  0  0  0
  -25.5136  -31.1354   22.2844 C   0  0  1  0  0  0  0  0  0  0  0  0
  -29.8822  -15.5311   20.0651 C   0  0  2  0  0  0  0  0  0  0  0  0
  -17.8011  -30.4168   22.2134 C   0  0  0  0  0  0  0  0  0  0  0  0
  -23.2152  -29.3597   25.8796 C   0  0  0  0  0  0  0  0  0  0  0  0
  -20.7632  -29.0023   25.5220 C   0  0  0  0  0  0  0  0  0  0  0  0
  -21.6515  -31.3111   25.8425 C   0  0  0  0  0  0  0  0  0  0  0  0
  -20.0647  -30.9076   19.1949 C   0  0  0  0  0  0  0  0  0  0  0  0
  -27.1702  -25.1365   18.4062 C   0  0  0  0  0  0  0  0  0  1  0  0
  -27.2138  -23.6371   18.6283 C   0  0  0  0  0  0  0  0  0  0  0  0
  -22.1035  -30.0997   23.6699 C   0  0  1  0  0  0  0  0  0  0  0  0
  -19.0827  -30.7981   21.4889 C   0  0  2  0  0  0  0  0  0  0  0  0
  -21.9522  -29.9354   25.2086 C   0  0  0  0  0  0  0  0  0  0  0  0
  -28.2566  -13.6990   20.3522 N   0  0  0  0  0  0  0  0  0  0  0  0
  -29.4260  -14.1036   19.8278 N   0  0  0  0  0  0  0  0  0  0  0  0
  -24.2689  -30.3977   22.5097 N   0  0  0  0  0  0  0  0  0  0  0  0
  -29.1912  -17.8742   20.3857 N   0  0  0  0  0  0  0  0  0  0  0  0
  -31.2657  -13.3738   18.5265 N   0  0  0  0  0  0  0  0  0  0  0  0
  -28.6311   -9.7126   18.7516 N   0  0  0  0  0  0  0  0  0  0  0  0
  -28.2136  -18.7104   18.4090 N   0  0  0  0  0  0  0  0  0  0  0  0
  -27.3791  -31.6375   23.7422 N   0  0  0  0  0  0  0  0  0  0  0  0
  -20.9322  -30.6682   23.0116 N   0  0  0  0  0  0  0  0  0  0  0  0
  -18.8892  -30.5537   20.0316 N   0  3  0  0  0  0  0  0  0  0  0  0
  -30.6086  -10.5361   17.9330 O   0  0  0  0  0  0  0  0  0  0  0  0
  -26.4554  -29.5003   23.7037 O   0  0  0  0  0  0  0  0  0  0  0  0
  -23.2866  -32.1555   23.6851 O   0  0  0  0  0  0  0  0  0  0  0  0
  -20.5695  -28.8951   21.5619 O   0  0  0  0  0  0  0  0  0  0  0  0
  -29.4125  -20.1053   19.8226 O   0  0  0  0  0  0  0  0  0  0  0  0
  -23.7432   -9.3302   21.3969 O   0  0  0  0  0  0  0  0  0  0  0  0
  -25.9545  -25.6525   18.9467 O   0  0  0  0  0  0  0  0  0  1  0  0
  -26.1159  -23.0353   17.9532 O   0  0  0  0  0  0  0  0  0  0  0  0
  -18.7484  -11.6098   20.8872 F   0  0  0  0  0  0  0  0  0  0  0  0
  -26.8320  -17.8958   16.1289 F   0  0  0  0  0  0  0  0  0  0  0  0
  -21.8330   -8.2061   19.7445 F   0  0  0  0  0  0  0  0  0  0  0  0
  1  2  1  0  0  0  0
  1  5  2  0  0  0  0
  2  6  2  0  0  0  0
  3  8  2  0  0  0  0
  3 18  1  0  0  0  0
  4  9  1  0  0  0  0
  4 18  2  0  0  0  0
  5 20  1  0  0  0  0
  6 22  1  0  0  0  0
  7 10  2  0  0  0  0
  7 21  1  0  0  0  0
  8 25  1  0  0  0  0
  9 25  2  0  0  0  0
 10 26  1  0  0  0  0
 11 13  2  0  0  0  0
 11 27  1  0  0  0  0
 12 14  2  0  0  0  0
 12 28  1  0  0  0  0
 13 30  1  0  0  0  0
 14 29  1  0  0  0  0
 15 23  1  0  0  0  0
 15 26  2  0  0  0  0
 16 24  1  0  0  0  0
 16 27  2  0  0  0  0
 17 29  2  0  0  0  0
 17 31  1  0  0  0  0
 18 32  1  0  0  0  0
 19 32  1  0  0  0  0
 19 33  2  0  0  0  0
 19 34  1  0  0  0  0
 20 22  2  0  0  0  0
 20 39  1  0  0  0  0
 21 23  2  0  0  0  0
 21 40  1  0  0  0  0
 22 48  1  0  0  0  0
 23 41  1  0  0  0  0
 24 30  2  0  0  0  0
 24 67  1  0  0  0  0
 25 76  1  0  0  0  0
 26 77  1  0  0  0  0
 27 78  1  0  0  0  0
 28 31  2  0  0  0  0
 28 76  1  0  0  0  0
 29 79  1  0  0  0  0
 30 80  1  0  0  0  0
 31 81  1  0  0  0  0
 32 61  2  0  0  0  0
 33 62  1  0  0  0  0
 33 65  1  0  0  0  0
 34 66  1  0  0  0  0
 34 71  2  0  0  0  0
 35 49  1  0  0  0  0
 35 68  1  0  0  0  0
 35 72  2  0  0  0  0
 36 58  1  0  0  0  0
 36 63  1  0  0  0  0
 36 73  2  0  0  0  0
 37 59  1  0  0  0  0
 37 69  1  0  0  0  0
 37 74  2  0  0  0  0
 38 64  1  0  0  0  0
 38 67  1  0  0  0  0
 38 75  2  0  0  0  0
 39 42  1  0  0  0  0
 40 49  1  0  0  0  0
 41 63  1  0  0  0  0
 42 44  1  0  0  0  0
 43 45  1  0  0  0  0
 43 46  1  0  0  0  0
 44 48  1  0  0  0  0
 45 50  1  0  0  0  0
 46 64  1  0  0  0  0
 47 50  1  0  0  0  0
 47 64  1  0  0  0  0
 48 68  1  0  0  0  0
 49 63  1  0  0  0  0
 50 62  1  0  0  0  0
 51 59  1  0  0  0  0
 52 60  1  0  0  0  0
 53 60  1  0  0  0  0
 54 60  1  0  0  0  0
 55 70  1  0  0  0  0
 56 57  1  0  0  0  0
 56 77  1  0  0  0  0
 57 78  1  0  0  0  0
 58 60  1  0  0  0  0
 58 69  1  0  0  0  0
 59 70  1  0  0  0  0
 61 62  1  0  0  0  0
M  CHG  1  70   1
M  ISO  4  38 100  56 101  67 100  77 101
M  END
> <Batch ID>
0009

> <Smiles>
CNC(C)C(=O)NC(C(=O)N1Cc2cc([101O:1][101CH2:1]COc3ccc(F)c([100NH:0][100C:0](=O)N4CCCC(n5nc(-c6ccc(Oc7ccc(F)cc7F)cc6)c(C(N)=O)c5N)C4)c3)ccc2CC1C(=O)NC1CCCc2ccccc21)C(C)(C)C

> <Shape>
0.268

> <Color>
0.087

> <Negative vol penalty>
0.000

$$$$

  -OEChem-04042320373D

 84 93  0     1  0  0  0  0  0999 V2000
  -28.1450  -11.2648   22.3766 C   0  0  0  0  0  0  0  0  0  0  0  0
  -28.7205  -12.4398   21.9038 C   0  0  0  0  0  0  0  0  0  0  0  0
  -31.3807  -25.0663   13.6869 C   0  0  0  0  0  0  0  0  0  0  0  0
  -23.4388  -28.5889   21.9910 C   0  0  0  0  0  0  0  0  0  0  0  0
  -23.2270  -29.6008   19.8073 C   0  0  0  0  0  0  0  0  0  0  0  0
  -26.8213  -10.9618   22.0602 C   0  0  0  0  0  0  0  0  0  0  0  0
  -27.9731  -13.3120   21.1133 C   0  0  0  0  0  0  0  0  0  0  0  0
  -28.3191  -19.4260   21.0383 C   0  0  0  0  0  0  0  0  0  0  0  0
  -31.6795  -26.3838   14.0338 C   0  0  0  0  0  0  0  0  0  0  0  0
  -31.1691  -24.1135   14.6835 C   0  0  0  0  0  0  0  0  0  0  0  0
  -22.1132  -28.9190   22.2726 C   0  0  0  0  0  0  0  0  0  0  0  0
  -21.9013  -29.9308   20.0889 C   0  0  0  0  0  0  0  0  0  0  0  0
  -28.9747  -20.3180   20.1908 C   0  0  0  0  0  0  0  0  0  0  0  0
  -19.0374  -27.7304   21.5246 C   0  0  0  0  0  0  0  0  0  0  0  0
  -18.2367  -26.7518   22.1134 C   0  0  0  0  0  0  0  0  0  0  0  0
  -26.9415  -20.5990   18.9235 C   0  0  0  0  0  0  0  0  0  0  0  0
  -17.8735  -28.1943   24.0172 C   0  0  0  0  0  0  0  0  0  0  0  0
  -23.9958  -28.9299   20.7583 C   0  0  0  0  0  0  0  0  0  0  0  0
  -25.9331  -27.3019   20.4358 C   0  0  0  0  0  0  0  0  0  0  0  0
  -26.0543  -11.8355   21.2734 C   0  0  0  0  0  0  0  0  0  0  0  0
  -26.9704  -19.1049   20.8278 C   0  0  0  0  0  0  0  0  0  0  0  0
  -26.6383  -13.0198   20.7849 C   0  0  0  0  0  0  0  0  0  0  0  0
  -26.2703  -19.7046   19.7713 C   0  0  0  0  0  0  0  0  0  0  0  0
  -31.7668  -26.7487   15.3773 C   0  0  0  0  0  0  0  0  0  0  0  0
  -31.2564  -24.4783   16.0270 C   0  0  0  0  0  0  0  0  0  0  0  0
  -21.3444  -29.5899   21.3215 C   0  0  0  0  0  0  0  0  0  0  0  0
  -28.2867  -20.9025   19.1315 C   0  0  0  0  0  0  0  0  0  0  0  0
  -19.2562  -28.9410   22.1821 C   0  0  0  0  0  0  0  0  0  0  0  0
  -17.6547  -26.9837   23.3596 C   0  0  0  0  0  0  0  0  0  0  0  0
  -18.6742  -29.1730   23.4284 C   0  0  0  0  0  0  0  0  0  0  0  0
  -31.5552  -25.7959   16.3739 C   0  0  0  0  0  0  0  0  0  0  0  0
  -25.3652  -28.5897   20.4671 C   0  0  0  0  0  0  0  0  0  0  0  0
  -27.2509  -27.5155   20.1131 C   0  0  0  0  0  0  0  0  0  0  0  0
  -25.3238  -26.0266   20.6767 C   0  0  0  0  0  0  0  0  0  0  0  0
  -25.3779  -16.4364   20.1595 C   0  0  0  0  0  0  0  0  0  0  0  0
  -22.7859  -18.3435   20.5678 C   0  0  0  0  0  0  0  0  0  0  0  0
  -21.4758  -21.4948   20.5492 C   0  0  0  0  0  0  0  0  0  0  0  0
  -31.1605  -30.0573   17.0472 C   0  0  0  0  0  0  0  0  0  0  0  0
  -24.6422  -11.4423   20.9183 C   0  0  0  0  0  0  0  0  0  0  0  0
  -26.2704  -18.1613   21.7670 C   0  0  0  0  0  0  0  0  0  0  0  0
  -24.8160  -19.4087   19.5146 C   0  0  0  0  0  0  0  0  0  0  0  0
  -23.8027  -12.6012   20.3866 C   0  0  0  0  0  0  0  0  0  0  0  0
  -29.9367  -31.7967   19.9026 C   0  0  0  0  0  0  0  0  0  0  0  0
  -24.5836  -13.3900   19.3403 C   0  0  0  0  0  0  0  0  0  0  0  0
  -28.6824  -31.0151   20.2972 C   0  0  0  0  0  0  0  0  0  0  0  0
  -31.1099  -22.4335   19.0924 C   0  0  0  0  0  0  0  0  0  0  0  0
  -30.1104  -31.8572   18.3866 C   0  0  0  0  0  0  0  0  0  0  0  0
  -31.1153  -23.8162   18.4409 C   0  0  0  0  0  0  0  0  0  0  0  0
  -28.8374  -29.7660   18.1030 C   0  0  0  0  0  0  0  0  0  0  0  0
  -30.7225  -22.1323   16.7436 C   0  0  0  0  0  0  0  0  0  0  0  0
  -25.8522  -14.0033   19.9453 C   0  0  1  0  0  0  0  0  0  0  0  0
  -25.0349  -17.5121   21.1509 C   0  0  1  0  0  0  0  0  0  0  0  0
  -28.6498  -29.6300   19.6237 C   0  0  2  0  0  0  0  0  0  0  0  0
  -30.3211  -21.5796   18.1105 C   0  0  2  0  0  0  0  0  0  1  0  0
  -19.3193  -22.7335   20.8842 C   0  0  0  0  0  0  0  0  0  0  0  0
  -21.8373  -17.4317   17.8148 C   0  0  0  0  0  0  0  0  0  0  0  0
  -20.2442  -19.3631   17.8010 C   0  0  0  0  0  0  0  0  0  0  0  0
  -20.0341  -17.5877   19.5407 C   0  0  0  0  0  0  0  0  0  0  0  0
  -22.5761  -23.0280   22.8290 C   0  0  0  0  0  0  0  0  0  0  0  0
  -32.0860  -28.1584   15.7445 C   0  0  0  0  0  0  0  0  0  0  0  0
  -21.9555  -19.2261   19.6675 C   0  0  1  0  0  0  0  0  0  0  0  0
  -20.5909  -22.2236   21.5443 C   0  0  2  0  0  0  0  0  0  0  0  0
  -21.0457  -18.4064   18.7094 C   0  0  0  0  0  0  0  0  0  0  0  0
  -26.2500  -29.5503   20.1868 N   0  0  0  0  0  0  0  0  0  0  0  0
  -27.3871  -28.8657   19.9764 N   0  0  0  0  0  0  0  0  0  0  0  0
  -31.0465  -23.5343   17.0102 N   0  0  3  0  0  0  0  0  0  0  0  0
  -24.1774  -18.4749   20.4567 N   0  0  0  0  0  0  0  0  0  0  0  0
  -30.0718  -30.5111   17.8099 N   0  0  0  0  0  0  0  0  0  0  0  0
  -28.2950  -26.6782   19.9359 N   0  0  0  0  0  0  0  0  0  0  0  0
  -24.7621  -25.3389   19.5923 N   0  0  0  0  0  0  0  0  0  0  0  0
  -25.5246  -15.1815   20.7192 N   0  0  0  0  0  0  0  0  0  0  0  0
  -21.2304  -20.1379   20.5457 N   0  0  0  0  0  0  0  0  0  0  0  0
  -31.0456  -28.7677   16.5427 N   0  0  0  0  0  0  0  0  0  0  0  0
  -21.3167  -23.3871   22.1278 N   0  3  0  0  0  0  0  0  0  0  0  0
  -25.2642  -25.5196   21.8226 O   0  0  0  0  0  0  0  0  0  0  0  0
  -25.4989  -16.7233   18.9743 O   0  0  0  0  0  0  0  0  0  0  0  0
  -22.2207  -17.5714   21.3462 O   0  0  0  0  0  0  0  0  0  0  0  0
  -22.2995  -22.0719   19.8429 O   0  0  0  0  0  0  0  0  0  0  0  0
  -32.1631  -30.7481   16.8361 O   0  0  0  0  0  0  0  0  0  0  0  0
  -20.0507  -29.9120   21.5959 O   0  0  0  0  0  0  0  0  0  0  0  0
  -28.9244  -21.7730   18.3024 O   0  0  0  0  0  0  0  0  0  1  0  0
  -16.8846  -26.0444   23.9242 F   0  0  0  0  0  0  0  0  0  0  0  0
  -18.8798  -30.3345   24.0643 F   0  0  0  0  0  0  0  0  0  0  0  0
  -31.6386  -26.1476   17.6659 F   0  0  0  0  0  0  0  0  0  0  0  0
  1  2  1  0  0  0  0
  1  6  2  0  0  0  0
  2  7  2  0  0  0  0
  3  9  1  0  0  0  0
  3 10  2  0  0  0  0
  4 11  2  0  0  0  0
  4 18  1  0  0  0  0
  5 12  1  0  0  0  0
  5 18  2  0  0  0  0
  6 20  1  0  0  0  0
  7 22  1  0  0  0  0
  8 13  2  0  0  0  0
  8 21  1  0  0  0  0
  9 24  2  0  0  0  0
 10 25  1  0  0  0  0
 11 26  1  0  0  0  0
 12 26  2  0  0  0  0
 13 27  1  0  0  0  0
 14 15  2  0  0  0  0
 14 28  1  0  0  0  0
 15 29  1  0  0  0  0
 16 23  1  0  0  0  0
 16 27  2  0  0  0  0
 17 29  2  0  0  0  0
 17 30  1  0  0  0  0
 18 32  1  0  0  0  0
 19 32  1  0  0  0  0
 19 33  2  0  0  0  0
 19 34  1  0  0  0  0
 20 22  2  0  0  0  0
 20 39  1  0  0  0  0
 21 23  2  0  0  0  0
 21 40  1  0  0  0  0
 22 51  1  0  0  0  0
 23 41  1  0  0  0  0
 24 31  1  0  0  0  0
 24 60  1  0  0  0  0
 25 31  2  0  0  0  0
 25 66  1  0  0  0  0
 26 80  1  0  0  0  0
 27 81  1  0  0  0  0
 28 30  2  0  0  0  0
 28 80  1  0  0  0  0
 29 82  1  0  0  0  0
 30 83  1  0  0  0  0
 31 84  1  0  0  0  0
 32 64  2  0  0  0  0
 33 65  1  0  0  0  0
 33 69  1  0  0  0  0
 34 70  1  0  0  0  0
 34 75  2  0  0  0  0
 35 52  1  0  0  0  0
 35 71  1  0  0  0  0
 35 76  2  0  0  0  0
 36 61  1  0  0  0  0
 36 67  1  0  0  0  0
 36 77  2  0  0  0  0
 37 62  1  0  0  0  0
 37 72  1  0  0  0  0
 37 78  2  0  0  0  0
 38 68  1  0  0  0  0
 38 73  1  0  0  0  0
 38 79  2  0  0  0  0
 39 42  1  0  0  0  0
 40 52  1  0  0  0  0
 41 67  1  0  0  0  0
 42 44  1  0  0  0  0
 43 45  1  0  0  0  0
 43 47  1  0  0  0  0
 44 51  1  0  0  0  0
 45 53  1  0  0  0  0
 46 48  1  0  0  0  0
 46 54  1  0  0  0  0
 47 68  1  0  0  0  0
 48 66  1  0  0  0  0
 49 53  1  0  0  0  0
 49 68  1  0  0  0  0
 50 54  1  0  0  0  0
 50 66  1  0  0  0  0
 51 71  1  0  0  0  0
 52 67  1  0  0  0  0
 53 65  1  0  0  0  0
 54 81  1  0  0  0  0
 55 62  1  0  0  0  0
 56 63  1  0  0  0  0
 57 63  1  0  0  0  0
 58 63  1  0  0  0  0
 59 74  1  0  0  0  0
 60 73  1  0  0  0  0
 61 63  1  0  0  0  0
 61 72  1  0  0  0  0
 62 74  1  0  0  0  0
 64 65  1  0  0  0  0
M  CHG  1  74   1
M  ISO  4  38 100  54 101  73 100  81 101
M  END
> <Batch ID>
0009

> <Smiles>
CNC(C)C(=O)NC(C(=O)N1Cc2cc([101O:1][101CH:1]3CCN(c4cccc(C[100NH:0][100C:0](=O)N5CCCC(n6nc(-c7ccc(Oc8ccc(F)cc8F)cc7)c(C(N)=O)c6N)C5)c4F)C3)ccc2CC1C(=O)NC1CCCc2ccccc21)C(C)(C)C

> <Shape>
0.202

> <Color>
0.085

> <Negative vol penalty>
0.000

$$$$

  -OEChem-04042320373D

 83 92  0     1  0  0  0  0  0999 V2000
  -28.4135  -27.4934   27.6165 C   0  0  0  0  0  0  0  0  0  0  0  0
  -28.0024  -26.9410   26.4077 C   0  0  0  0  0  0  0  0  0  0  0  0
  -24.5397   -9.7955   21.5637 C   0  0  0  0  0  0  0  0  0  0  0  0
  -24.8432  -10.9521   23.6630 C   0  0  0  0  0  0  0  0  0  0  0  0
  -27.6412  -28.4791   28.2296 C   0  0  0  0  0  0  0  0  0  0  0  0
  -26.8181  -27.3732   25.8118 C   0  0  0  0  0  0  0  0  0  0  0  0
  -27.3279  -28.1814   20.8387 C   0  0  0  0  0  0  0  0  0  0  0  0
  -24.2282   -8.6242   22.2541 C   0  0  0  0  0  0  0  0  0  0  0  0
  -24.5317   -9.7808   24.3534 C   0  0  0  0  0  0  0  0  0  0  0  0
  -27.3285  -27.0614   20.0083 C   0  0  0  0  0  0  0  0  0  0  0  0
  -23.0010   -5.4230   23.4630 C   0  0  0  0  0  0  0  0  0  0  0  0
  -21.9033   -4.6833   23.0230 C   0  0  0  0  0  0  0  0  0  0  0  0
  -25.0148  -27.4721   19.4628 C   0  0  0  0  0  0  0  0  0  0  0  0
  -20.4622   -6.5791   23.4311 C   0  0  0  0  0  0  0  0  0  0  0  0
  -24.8472  -10.9595   22.2682 C   0  0  0  0  0  0  0  0  0  0  0  0
  -24.2752  -13.1713   21.1332 C   0  0  0  0  0  0  0  0  0  0  0  0
  -26.4518  -28.9304   27.6361 C   0  0  0  0  0  0  0  0  0  0  0  0
  -26.1657  -28.9501   20.9960 C   0  0  0  0  0  0  0  0  0  0  0  0
  -26.0285  -28.3648   26.4182 C   0  0  0  0  0  0  0  0  0  0  0  0
  -25.0028  -28.6028   20.2937 C   0  0  0  0  0  0  0  0  0  0  0  0
  -24.2242   -8.6168   23.6489 C   0  0  0  0  0  0  0  0  0  0  0  0
  -26.1710  -26.7049   19.3225 C   0  0  0  0  0  0  0  0  0  0  0  0
  -22.8293   -6.7408   23.8871 C   0  0  0  0  0  0  0  0  0  0  0  0
  -20.6340   -5.2613   23.0070 C   0  0  0  0  0  0  0  0  0  0  0  0
  -21.5599   -7.3188   23.8711 C   0  0  0  0  0  0  0  0  0  0  0  0
  -25.1696  -12.1696   21.5556 C   0  0  0  0  0  0  0  0  0  0  0  0
  -25.0704  -14.1001   20.5075 C   0  0  0  0  0  0  0  0  0  0  0  0
  -22.8527  -13.2549   21.2923 C   0  0  0  0  0  0  0  0  0  0  0  0
  -24.2772  -29.6856   23.4448 C   0  0  0  0  0  0  0  0  0  0  0  0
  -22.8483  -31.6115   21.2604 C   0  0  0  0  0  0  0  0  0  0  0  0
  -22.1978  -32.2868   17.9790 C   0  0  0  0  0  0  0  0  0  0  0  0
  -29.7048  -17.2038   20.3215 C   0  0  0  0  0  0  0  0  0  0  0  0
  -25.6261  -29.9643   28.3601 C   0  0  0  0  0  0  0  0  0  0  0  0
  -26.1890  -30.1708   21.8746 C   0  0  0  0  0  0  0  0  0  0  0  0
  -23.7348  -29.4068   20.4125 C   0  0  0  0  0  0  0  0  0  0  0  0
  -24.5769  -30.6338   27.4762 C   0  0  0  0  0  0  0  0  0  0  0  0
  -29.9239  -13.8660   19.1018 C   0  0  0  0  0  0  0  0  0  0  0  0
  -23.8181  -29.5894   26.6638 C   0  0  0  0  0  0  0  0  0  0  0  0
  -28.6363  -13.2086   19.6018 C   0  0  0  0  0  0  0  0  0  0  0  0
  -25.7658  -22.7249   21.6973 C   0  0  0  0  0  0  0  0  0  0  0  0
  -28.7420  -20.0219   19.1238 C   0  0  0  0  0  0  0  0  0  0  0  0
  -30.4813  -14.8603   20.1179 C   0  0  0  0  0  0  0  0  0  0  0  0
  -28.2372  -15.2321   21.0664 C   0  0  0  0  0  0  0  0  0  0  0  0
  -25.0746  -22.4970   20.3498 C   0  0  0  0  0  0  0  0  0  0  0  0
  -26.8049  -21.6617   18.6764 C   0  0  0  0  0  0  0  0  0  0  0  0
  -26.0735  -21.4354   22.4526 C   0  0  0  0  0  0  0  0  0  0  0  0
  -24.7626  -28.8251   25.7283 C   0  0  1  0  0  0  0  0  0  0  0  0
  -24.8032  -30.5835   22.3609 C   0  0  1  0  0  0  0  0  0  0  0  0
  -27.8768  -21.2006   19.6403 C   0  0  1  0  0  0  0  0  0  0  0  0
  -27.6069  -14.2626   20.0520 C   0  0  2  0  0  0  0  0  0  0  0  0
  -28.7831  -19.5029   20.5745 C   0  0  1  0  0  0  0  0  0  0  0  0
  -27.4529  -20.2686   20.8124 C   0  0  1  0  0  0  0  0  0  0  0  0
  -20.9703  -33.9066   16.5069 C   0  0  0  0  0  0  0  0  0  0  0  0
  -20.2072  -30.2684   21.9889 C   0  0  0  0  0  0  0  0  0  0  0  0
  -19.2282  -31.2106   19.8861 C   0  0  0  0  0  0  0  0  0  0  0  0
  -20.0645  -32.7443   21.6668 C   0  0  0  0  0  0  0  0  0  0  0  0
  -24.6949  -33.1410   16.6395 C   0  0  0  0  0  0  0  0  0  0  0  0
  -25.2035  -23.4543   18.0495 C   0  0  0  0  0  0  0  0  0  0  0  0
  -24.9348  -24.9122   18.3666 C   0  0  0  0  0  0  0  0  0  1  0  0
  -21.7241  -31.4501   20.2659 C   0  0  1  0  0  0  0  0  0  0  0  0
  -22.2940  -33.5720   17.1768 C   0  0  2  0  0  0  0  0  0  0  0  0
  -20.3292  -31.4019   20.9510 C   0  0  0  0  0  0  0  0  0  0  0  0
  -26.4361  -12.4367   21.2259 N   0  0  0  0  0  0  0  0  0  0  0  0
  -26.3432  -13.6168   20.5896 N   0  0  0  0  0  0  0  0  0  0  0  0
  -23.8060  -30.5878   21.2886 N   0  0  0  0  0  0  0  0  0  0  0  0
  -29.4558  -15.8333   20.5021 N   0  0  0  0  0  0  0  0  0  0  0  0
  -24.7982  -15.2747   19.9005 N   0  0  0  0  0  0  0  0  0  0  0  0
  -22.1929  -12.2143   21.9602 N   0  0  0  0  0  0  0  0  0  0  0  0
  -25.0817  -29.6271   24.5667 N   0  0  0  0  0  0  0  0  0  0  0  0
  -21.8773  -32.5306   19.2977 N   0  0  0  0  0  0  0  0  0  0  0  0
  -28.6780  -18.0575   20.7056 N   0  0  0  0  0  0  0  0  0  0  0  0
  -25.9863  -22.8329   19.1840 N   0  3  1  0  0  0  0  0  0  0  0  0
  -23.3370  -33.4461   16.1198 N   0  3  0  0  0  0  0  0  0  0  0  0
  -22.1845  -14.2157   20.8408 O   0  0  0  0  0  0  0  0  0  0  0  0
  -23.2190  -29.0911   23.2763 O   0  0  0  0  0  0  0  0  0  0  0  0
  -22.8796  -32.6125   21.9805 O   0  0  0  0  0  0  0  0  0  0  0  0
  -22.3844  -31.1773   17.4843 O   0  0  0  0  0  0  0  0  0  0  0  0
  -30.7617  -17.6345   19.8476 O   0  0  0  0  0  0  0  0  0  0  0  0
  -27.3426  -20.8998   22.1017 O   0  0  0  0  0  0  0  0  0  0  0  0
  -23.9201   -7.4741   24.3229 O   0  0  0  0  0  0  0  0  0  0  0  0
  -26.1687  -25.6040   18.5061 O   0  0  0  0  0  0  0  0  0  1  0  0
  -19.5802   -4.5514   22.5830 F   0  0  0  0  0  0  0  0  0  0  0  0
  -21.3889   -8.5847   24.2762 F   0  0  0  0  0  0  0  0  0  0  0  0
  1  2  1  0  0  0  0
  1  5  2  0  0  0  0
  2  6  2  0  0  0  0
  3  8  2  0  0  0  0
  3 15  1  0  0  0  0
  4  9  1  0  0  0  0
  4 15  2  0  0  0  0
  5 17  1  0  0  0  0
  6 19  1  0  0  0  0
  7 10  2  0  0  0  0
  7 18  1  0  0  0  0
  8 21  1  0  0  0  0
  9 21  2  0  0  0  0
 10 22  1  0  0  0  0
 11 12  2  0  0  0  0
 11 23  1  0  0  0  0
 12 24  1  0  0  0  0
 13 20  1  0  0  0  0
 13 22  2  0  0  0  0
 14 24  2  0  0  0  0
 14 25  1  0  0  0  0
 15 26  1  0  0  0  0
 16 26  1  0  0  0  0
 16 27  2  0  0  0  0
 16 28  1  0  0  0  0
 17 19  2  0  0  0  0
 17 33  1  0  0  0  0
 18 20  2  0  0  0  0
 18 34  1  0  0  0  0
 19 47  1  0  0  0  0
 20 35  1  0  0  0  0
 21 80  1  0  0  0  0
 22 81  1  0  0  0  0
 23 25  2  0  0  0  0
 23 80  1  0  0  0  0
 24 82  1  0  0  0  0
 25 83  1  0  0  0  0
 26 63  2  0  0  0  0
 27 64  1  0  0  0  0
 27 67  1  0  0  0  0
 28 68  1  0  0  0  0
 28 74  2  0  0  0  0
 29 48  1  0  0  0  0
 29 69  1  0  0  0  0
 29 75  2  0  0  0  0
 30 60  1  0  0  0  0
 30 65  1  0  0  0  0
 30 76  2  0  0  0  0
 31 61  1  0  0  0  0
 31 70  1  0  0  0  0
 31 77  2  0  0  0  0
 32 66  1  0  0  0  0
 32 71  1  0  0  0  0
 32 78  2  0  0  0  0
 33 36  1  0  0  0  0
 34 48  1  0  0  0  0
 35 65  1  0  0  0  0
 36 38  1  0  0  0  0
 37 39  1  0  0  0  0
 37 42  1  0  0  0  0
 38 47  1  0  0  0  0
 39 50  1  0  0  0  0
 40 44  1  0  0  0  0
 40 46  1  0  0  0  0
 41 49  1  0  0  0  0
 41 51  1  0  0  0  0
 42 66  1  0  0  0  0
 43 50  1  0  0  0  0
 43 66  1  0  0  0  0
 44 72  1  0  0  0  0
 45 49  1  0  0  0  0
 45 72  1  0  0  0  0
 46 79  1  0  0  0  0
 47 69  1  0  0  0  0
 48 65  1  0  0  0  0
 49 52  1  0  0  0  0
 50 64  1  0  0  0  0
 51 52  1  0  0  0  0
 51 71  1  0  0  0  0
 52 79  1  0  0  0  0
 53 61  1  0  0  0  0
 54 62  1  0  0  0  0
 55 62  1  0  0  0  0
 56 62  1  0  0  0  0
 57 73  1  0  0  0  0
 58 59  1  0  0  0  0
 58 72  1  0  0  0  0
 59 81  1  0  0  0  0
 60 62  1  0  0  0  0
 60 70  1  0  0  0  0
 61 73  1  0  0  0  0
 63 64  1  0  0  0  0
M  CHG  2  72   1  73   1
M  ISO  4  32 100  59 101  71 100  81 101
M  END
> <Batch ID>
0009

> <Smiles>
CNC(C)C(=O)NC(C(=O)N1Cc2cc([101O:1][101CH2:1]CN3CCCOC4C(CC4[100NH:0][100C:0](=O)N4CCCC(n5nc(-c6ccc(Oc7ccc(F)cc7F)cc6)c(C(N)=O)c5N)C4)C3)ccc2CC1C(=O)NC1CCCc2ccccc21)C(C)(C)C

> <Shape>
0.258

> <Color>
0.150

> <Negative vol penalty>
0.000

$$$$

  -OEChem-04042320373D

 82 90  0     1  0  0  0  0  0999 V2000
  -22.6557  -18.9870   22.1101 C   0  0  0  0  0  0  0  0  0  0  0  0
  -23.9467  -19.4571   22.3281 C   0  0  0  0  0  0  0  0  0  0  0  0
  -23.4527   -9.7271   21.4264 C   0  0  0  0  0  0  0  0  0  0  0  0
  -24.0562  -10.7584   23.5263 C   0  0  0  0  0  0  0  0  0  0  0  0
  -21.6887  -19.8337   21.5696 C   0  0  0  0  0  0  0  0  0  0  0  0
  -24.2719  -20.7740   22.0046 C   0  0  0  0  0  0  0  0  0  0  0  0
  -26.9785  -23.0527   25.6277 C   0  0  0  0  0  0  0  0  0  0  0  0
  -31.4784  -18.0064   21.1772 C   0  0  0  0  0  0  0  0  0  0  0  0
  -22.8217   -8.6919   22.1162 C   0  0  0  0  0  0  0  0  0  0  0  0
  -23.4251   -9.7233   24.2161 C   0  0  0  0  0  0  0  0  0  0  0  0
  -28.3359  -22.7425   25.6987 C   0  0  0  0  0  0  0  0  0  0  0  0
  -31.9079  -19.2471   21.6481 C   0  0  0  0  0  0  0  0  0  0  0  0
  -19.8871   -8.1932   23.7200 C   0  0  0  0  0  0  0  0  0  0  0  0
  -18.6271   -7.7921   23.2761 C   0  0  0  0  0  0  0  0  0  0  0  0
  -28.8585  -24.7902   24.5355 C   0  0  0  0  0  0  0  0  0  0  0  0
  -29.1824  -18.7426   21.3316 C   0  0  0  0  0  0  0  0  0  0  0  0
  -19.4764   -5.5656   22.8774 C   0  0  0  0  0  0  0  0  0  0  0  0
  -24.0701  -10.7603   22.1315 C   0  0  0  0  0  0  0  0  0  0  0  0
  -24.1471  -13.0406   20.9904 C   0  0  0  0  0  0  0  0  0  0  0  0
  -21.9997  -21.1644   21.2483 C   0  0  0  0  0  0  0  0  0  0  0  0
  -26.5495  -24.2306   24.9994 C   0  0  0  0  0  0  0  0  0  0  0  0
  -23.3086  -21.6388   21.4581 C   0  0  0  0  0  0  0  0  0  0  0  0
  -27.4952  -25.1142   24.4601 C   0  0  0  0  0  0  0  0  0  0  0  0
  -29.6119  -19.9833   21.8026 C   0  0  0  0  0  0  0  0  0  0  0  0
  -30.1156  -17.7541   21.0189 C   0  0  0  0  0  0  0  0  0  0  0  0
  -22.8078   -8.6900   23.5110 C   0  0  0  0  0  0  0  0  0  0  0  0
  -29.2760  -23.6099   25.1500 C   0  0  0  0  0  0  0  0  0  0  0  0
  -30.9747  -20.2355   21.9608 C   0  0  0  0  0  0  0  0  0  0  0  0
  -20.9418   -7.2806   23.7426 C   0  0  0  0  0  0  0  0  0  0  0  0
  -18.4217   -6.4783   22.8548 C   0  0  0  0  0  0  0  0  0  0  0  0
  -20.7364   -5.9668   23.3214 C   0  0  0  0  0  0  0  0  0  0  0  0
  -24.7226  -11.8296   21.4195 C   0  0  0  0  0  0  0  0  0  0  0  0
  -25.1743  -13.7076   20.3686 C   0  0  0  0  0  0  0  0  0  0  0  0
  -22.8042  -13.5198   21.1405 C   0  0  0  0  0  0  0  0  0  0  0  0
  -24.7272  -24.8937   22.4808 C   0  0  0  0  0  0  0  0  0  0  0  0
  -25.1194  -27.9509   23.4921 C   0  0  0  0  0  0  0  0  0  0  0  0
  -26.9936  -30.2078   25.2357 C   0  0  0  0  0  0  0  0  0  0  0  0
  -30.4743  -15.4044   20.1844 C   0  0  0  0  0  0  0  0  0  0  0  0
  -20.9336  -22.0281   20.6222 C   0  0  0  0  0  0  0  0  0  0  0  0
  -25.0834  -24.5637   24.9547 C   0  0  0  0  0  0  0  0  0  0  0  0
  -27.0877  -26.4015   23.7927 C   0  0  0  0  0  0  0  0  0  0  0  0
  -21.2602  -23.5189   20.6555 C   0  0  0  0  0  0  0  0  0  0  0  0
  -29.7812  -12.1193   18.9992 C   0  0  0  0  0  0  0  0  0  0  0  0
  -22.6974  -23.7608   20.2052 C   0  0  0  0  0  0  0  0  0  0  0  0
  -28.3560  -11.8507   19.4879 C   0  0  0  0  0  0  0  0  0  0  0  0
  -30.5862  -12.9277   20.0151 C   0  0  0  0  0  0  0  0  0  0  0  0
  -28.5267  -13.9073   20.9468 C   0  0  0  0  0  0  0  0  0  0  0  0
  -23.6934  -23.0681   21.1432 C   0  0  1  0  0  0  0  0  0  0  0  0
  -24.7261  -25.5393   23.8376 C   0  0  1  0  0  0  0  0  0  0  0  0
  -27.6569  -13.1516   19.9289 C   0  0  2  0  0  0  0  0  0  0  0  0
  -28.5993  -21.0298   22.1324 C   0  0  0  0  0  0  0  0  0  0  0  0
  -27.0804  -32.6392   25.8508 C   0  0  0  0  0  0  0  0  0  0  0  0
  -26.0823  -28.6263   20.6767 C   0  0  0  0  0  0  0  0  0  0  0  0
  -27.0300  -30.7573   21.5873 C   0  0  0  0  0  0  0  0  0  0  0  0
  -24.5737  -30.3374   21.7018 C   0  0  0  0  0  0  0  0  0  0  0  0
  -26.8196  -29.6017   28.1273 C   0  0  0  0  0  0  0  0  0  0  0  0
  -32.6136  -22.8561   23.9651 C   0  0  0  0  0  0  0  0  0  0  0  0
  -31.4314  -23.7922   24.1618 C   0  0  0  0  0  0  0  0  0  1  0  0
  -32.1691  -21.4420   23.6263 C   0  0  0  0  0  0  0  0  0  0  0  0
  -26.1244  -29.0450   23.2240 C   0  0  1  0  0  0  0  0  0  0  0  0
  -26.6091  -31.2542   26.2661 C   0  0  2  0  0  0  0  0  0  0  0  0
  -25.9605  -29.6664   21.8083 C   0  0  0  0  0  0  0  0  0  0  0  0
  -26.0151  -11.7303   21.0975 N   0  0  0  0  0  0  0  0  0  0  0  0
  -26.2602  -12.8873   20.4593 N   0  0  0  0  0  0  0  0  0  0  0  0
  -25.6422  -26.6796   23.7686 N   0  0  0  0  0  0  0  0  0  0  0  0
  -29.8642  -14.1477   20.3828 N   0  0  0  0  0  0  0  0  0  0  0  0
  -25.2455  -14.9097   19.7586 N   0  0  0  0  0  0  0  0  0  0  0  0
  -21.8754  -12.7077   21.8054 N   0  0  0  0  0  0  0  0  0  0  0  0
  -29.6797  -16.4937   20.5405 N   0  0  0  0  0  0  0  0  0  0  0  0
  -23.8527  -23.8303   22.3631 N   0  0  0  0  0  0  0  0  0  0  0  0
  -25.9867  -30.0022   24.3163 N   0  0  0  0  0  0  0  0  0  0  0  0
  -27.2163  -30.9277   27.5873 N   0  3  0  0  0  0  0  0  0  0  0  0
  -22.4345  -14.6280   20.6837 O   0  0  0  0  0  0  0  0  0  0  0  0
  -25.4656  -25.3292   21.6051 O   0  0  0  0  0  0  0  0  0  0  0  0
  -23.9150  -28.2160   23.4643 O   0  0  0  0  0  0  0  0  0  0  0  0
  -28.0800  -29.6332   25.2432 O   0  0  0  0  0  0  0  0  0  0  0  0
  -31.6070  -15.5077   19.7066 O   0  0  0  0  0  0  0  0  0  0  0  0
  -22.1919   -7.6802   24.1844 O   0  0  0  0  0  0  0  0  0  0  0  0
  -30.6015  -23.3092   25.2173 O   0  0  0  0  0  0  0  0  0  1  0  0
  -31.4141  -21.4491   22.4223 O   0  0  0  0  0  0  0  0  0  0  0  0
  -17.2113   -6.0928   22.4300 F   0  0  0  0  0  0  0  0  0  0  0  0
  -21.7455   -5.0853   23.3419 F   0  0  0  0  0  0  0  0  0  0  0  0
  1  2  1  0  0  0  0
  1  5  2  0  0  0  0
  2  6  2  0  0  0  0
  3  9  2  0  0  0  0
  3 18  1  0  0  0  0
  4 10  1  0  0  0  0
  4 18  2  0  0  0  0
  5 20  1  0  0  0  0
  6 22  1  0  0  0  0
  7 11  2  0  0  0  0
  7 21  1  0  0  0  0
  8 12  2  0  0  0  0
  8 25  1  0  0  0  0
  9 26  1  0  0  0  0
 10 26  2  0  0  0  0
 11 27  1  0  0  0  0
 12 28  1  0  0  0  0
 13 14  2  0  0  0  0
 13 29  1  0  0  0  0
 14 30  1  0  0  0  0
 15 23  1  0  0  0  0
 15 27  2  0  0  0  0
 16 24  1  0  0  0  0
 16 25  2  0  0  0  0
 17 30  2  0  0  0  0
 17 31  1  0  0  0  0
 18 32  1  0  0  0  0
 19 32  1  0  0  0  0
 19 33  2  0  0  0  0
 19 34  1  0  0  0  0
 20 22  2  0  0  0  0
 20 39  1  0  0  0  0
 21 23  2  0  0  0  0
 21 40  1  0  0  0  0
 22 48  1  0  0  0  0
 23 41  1  0  0  0  0
 24 28  2  0  0  0  0
 24 51  1  0  0  0  0
 25 69  1  0  0  0  0
 26 78  1  0  0  0  0
 27 79  1  0  0  0  0
 28 80  1  0  0  0  0
 29 31  2  0  0  0  0
 29 78  1  0  0  0  0
 30 81  1  0  0  0  0
 31 82  1  0  0  0  0
 32 63  2  0  0  0  0
 33 64  1  0  0  0  0
 33 67  1  0  0  0  0
 34 68  1  0  0  0  0
 34 73  2  0  0  0  0
 35 49  1  0  0  0  0
 35 70  1  0  0  0  0
 35 74  2  0  0  0  0
 36 60  1  0  0  0  0
 36 65  1  0  0  0  0
 36 75  2  0  0  0  0
 37 61  1  0  0  0  0
 37 71  1  0  0  0  0
 37 76  2  0  0  0  0
 38 66  1  0  0  0  0
 38 69  1  0  0  0  0
 38 77  2  0  0  0  0
 39 42  1  0  0  0  0
 40 49  1  0  0  0  0
 41 65  1  0  0  0  0
 42 44  1  0  0  0  0
 43 45  1  0  0  0  0
 43 46  1  0  0  0  0
 44 48  1  0  0  0  0
 45 50  1  0  0  0  0
 46 66  1  0  0  0  0
 47 50  1  0  0  0  0
 47 66  1  0  0  0  0
 48 70  1  0  0  0  0
 49 65  1  0  0  0  0
 50 64  1  0  0  0  0
 52 61  1  0  0  0  0
 53 62  1  0  0  0  0
 54 62  1  0  0  0  0
 55 62  1  0  0  0  0
 56 72  1  0  0  0  0
 57 58  1  0  0  0  0
 57 59  1  0  0  0  0
 58 79  1  0  0  0  0
 59 80  1  0  0  0  0
 60 62  1  0  0  0  0
 60 71  1  0  0  0  0
 61 72  1  0  0  0  0
 63 64  1  0  0  0  0
M  CHG  1  72   1
M  ISO  4  38 100  58 101  69 100  79 101
M  END
> <Batch ID>
0009

> <Smiles>
CNC(C)C(=O)NC(C(=O)N1Cc2cc([101O:1][101CH2:1]CCOc3ccc([100NH:0][100C:0](=O)N4CCCC(n5nc(-c6ccc(Oc7ccc(F)cc7F)cc6)c(C(N)=O)c5N)C4)cc3C)ccc2CC1C(=O)NC1CCCc2ccccc21)C(C)(C)C

> <Shape>
0.217

> <Color>
0.137

> <Negative vol penalty>
0.000

$$$$

  -OEChem-04042320373D

 83 92  0     1  0  0  0  0  0999 V2000
  -28.1667  -37.6828   18.2976 C   0  0  0  0  0  0  0  0  0  0  0  0
  -28.5733  -36.3525   18.2780 C   0  0  0  0  0  0  0  0  0  0  0  0
  -24.0619   -9.3158   22.2227 C   0  0  0  0  0  0  0  0  0  0  0  0
  -24.4025   -8.6124   19.9366 C   0  0  0  0  0  0  0  0  0  0  0  0
  -27.3174  -38.1362   19.3061 C   0  0  0  0  0  0  0  0  0  0  0  0
  -28.1316  -35.4749   19.2676 C   0  0  0  0  0  0  0  0  0  0  0  0
  -26.8621  -29.5202   18.6080 C   0  0  0  0  0  0  0  0  0  0  0  0
  -23.0361   -8.3804   22.3577 C   0  0  0  0  0  0  0  0  0  0  0  0
  -23.3767   -7.6770   20.0716 C   0  0  0  0  0  0  0  0  0  0  0  0
  -27.5978  -28.3682   18.8829 C   0  0  0  0  0  0  0  0  0  0  0  0
  -22.7532   -5.0497   22.8668 C   0  0  0  0  0  0  0  0  0  0  0  0
  -22.7333   -4.2719   24.0245 C   0  0  0  0  0  0  0  0  0  0  0  0
  -26.4940  -28.1806   21.0197 C   0  0  0  0  0  0  0  0  0  0  0  0
  -20.5505   -5.1485   24.5759 C   0  0  0  0  0  0  0  0  0  0  0  0
  -24.7451   -9.4319   21.0121 C   0  0  0  0  0  0  0  0  0  0  0  0
  -27.1736  -10.2033   21.1357 C   0  0  0  0  0  0  0  0  0  0  0  0
  -26.8573  -37.2615   20.3030 C   0  0  0  0  0  0  0  0  0  0  0  0
  -25.9432  -30.0180   19.5430 C   0  0  0  0  0  0  0  0  0  0  0  0
  -27.2763  -35.9173   20.2911 C   0  0  0  0  0  0  0  0  0  0  0  0
  -25.7461  -29.3376   20.7531 C   0  0  0  0  0  0  0  0  0  0  0  0
  -22.6934   -7.5610   21.2822 C   0  0  0  0  0  0  0  0  0  0  0  0
  -27.4159  -27.6999   20.0901 C   0  0  0  0  0  0  0  0  0  0  0  0
  -21.6717   -5.8770   22.5637 C   0  0  0  0  0  0  0  0  0  0  0  0
  -21.6319   -4.3213   24.8791 C   0  0  0  0  0  0  0  0  0  0  0  0
  -20.5704   -5.9263   23.4183 C   0  0  0  0  0  0  0  0  0  0  0  0
  -25.8046  -10.3983   20.8719 C   0  0  0  0  0  0  0  0  0  0  0  0
  -27.7545  -11.4144   20.8487 C   0  0  0  0  0  0  0  0  0  0  0  0
  -27.8589   -9.0321   21.5986 C   0  0  0  0  0  0  0  0  0  0  0  0
  -25.6667  -32.7175   21.1983 C   0  0  0  0  0  0  0  0  0  0  0  0
  -22.8322  -31.4200   22.0952 C   0  0  0  0  0  0  0  0  0  0  0  0
  -20.9438  -28.6132   22.5452 C   0  0  0  0  0  0  0  0  0  0  0  0
  -27.9898  -16.7726   21.0586 C   0  0  0  0  0  0  0  0  0  0  0  0
  -25.9782  -37.8086   21.3996 C   0  0  0  0  0  0  0  0  0  0  0  0
  -25.1381  -31.2467   19.2201 C   0  0  0  0  0  0  0  0  0  0  0  0
  -24.7571  -29.8195   21.7819 C   0  0  0  0  0  0  0  0  0  0  0  0
  -25.2553  -36.7267   22.1977 C   0  0  0  0  0  0  0  0  0  0  0  0
  -25.8952  -15.5067   18.5430 C   0  0  0  0  0  0  0  0  0  0  0  0
  -26.2214  -35.6098   22.5799 C   0  0  0  0  0  0  0  0  0  0  0  0
  -25.7918  -14.0358   18.9456 C   0  0  0  0  0  0  0  0  0  0  0  0
  -28.8242  -20.0979   19.6339 C   0  0  0  0  0  0  0  0  0  0  0  0
  -26.5138  -20.1883   20.6125 C   0  0  0  0  0  0  0  0  0  0  0  0
  -27.3161  -22.0911   19.1782 C   0  0  0  0  0  0  0  0  0  0  0  0
  -28.2791  -21.7994   21.4793 C   0  0  0  0  0  0  0  0  0  0  0  0
  -25.8434  -16.4377   19.7554 C   0  0  0  0  0  0  0  0  0  0  0  0
  -29.1319  -18.8878   20.5148 C   0  0  0  0  0  0  0  0  0  0  0  0
  -26.8607  -18.9853   21.4851 C   0  0  0  0  0  0  0  0  0  0  0  0
  -26.7324  -14.6434   21.2071 C   0  0  0  0  0  0  0  0  0  0  0  0
  -28.3929  -23.1206   18.8598 C   0  0  0  0  0  0  0  0  0  0  0  0
  -29.3482  -22.8386   21.1601 C   0  0  0  0  0  0  0  0  0  0  0  0
  -26.7987  -34.9291   21.3329 C   0  0  1  0  0  0  0  0  0  0  0  0
  -24.6030  -31.9538   20.4615 C   0  0  1  0  0  0  0  0  0  0  0  0
  -26.8404  -13.6804   20.0147 C   0  0  1  0  0  0  0  0  0  0  0  0
  -27.7506  -21.0439   20.2331 C   0  0  0  0  0  0  0  0  0  0  0  0
  -18.6785  -27.8673   23.3259 C   0  0  0  0  0  0  0  0  0  0  0  0
  -23.6828  -31.8747   24.9900 C   0  0  0  0  0  0  0  0  0  0  0  0
  -21.8769  -30.2909   25.6962 C   0  0  0  0  0  0  0  0  0  0  0  0
  -21.2861  -32.4051   24.5113 C   0  0  0  0  0  0  0  0  0  0  0  0
  -20.2957  -27.4339   19.9093 C   0  0  0  0  0  0  0  0  0  0  0  0
  -29.8036  -24.9139   19.8599 C   0  0  0  0  0  0  0  0  0  0  0  0
  -29.0544  -26.1357   19.3658 C   0  0  0  0  0  0  0  0  0  1  0  0
  -22.3752  -30.5236   23.2206 C   0  0  1  0  0  0  0  0  0  0  0  0
  -19.5229  -28.2778   22.1295 C   0  0  2  0  0  0  0  0  0  0  0  0
  -22.3253  -31.2653   24.5862 C   0  0  0  0  0  0  0  0  0  0  0  0
  -25.5319  -11.6359   20.4500 N   0  0  0  0  0  0  0  0  0  0  0  0
  -26.7376  -12.2295   20.4465 N   0  0  0  0  0  0  0  0  0  0  0  0
  -23.9984  -31.0288   21.4223 N   0  0  0  0  0  0  0  0  0  0  0  0
  -26.8334  -16.0352   20.7633 N   0  0  0  0  0  0  0  0  0  0  0  0
  -27.9168  -18.1647   20.8815 N   0  0  0  0  0  0  0  0  0  0  0  0
  -29.0307  -11.8509   20.9038 N   0  0  0  0  0  0  0  0  0  0  0  0
  -27.1100   -7.8731   21.8444 N   0  0  0  0  0  0  0  0  0  0  0  0
  -25.8309  -34.0179   20.7607 N   0  0  0  0  0  0  0  0  0  0  0  0
  -21.0971  -29.9597   22.7999 N   0  0  0  0  0  0  0  0  0  0  0  0
  -28.8228  -23.8060   20.1312 N   0  3  0  0  0  0  0  0  0  0  0  0
  -19.5215  -27.1575   21.1467 N   0  3  0  0  0  0  0  0  0  0  0  0
  -29.0962   -9.0187   21.8043 O   0  0  0  0  0  0  0  0  0  0  0  0
  -26.2913  -32.1681   22.0982 O   0  0  0  0  0  0  0  0  0  0  0  0
  -22.1746  -32.4264   21.8186 O   0  0  0  0  0  0  0  0  0  0  0  0
  -21.8283  -27.7650   22.6386 O   0  0  0  0  0  0  0  0  0  0  0  0
  -29.0265  -16.2237   21.4521 O   0  0  0  0  0  0  0  0  0  0  0  0
  -21.6926   -6.6479   21.4136 O   0  0  0  0  0  0  0  0  0  0  0  0
  -28.1383  -26.5675   20.3632 O   0  0  0  0  0  0  0  0  0  1  0  0
  -21.6123   -3.5731   25.9899 F   0  0  0  0  0  0  0  0  0  0  0  0
  -19.5280   -6.7182   23.1317 F   0  0  0  0  0  0  0  0  0  0  0  0
  1  2  1  0  0  0  0
  1  5  2  0  0  0  0
  2  6  2  0  0  0  0
  3  8  2  0  0  0  0
  3 15  1  0  0  0  0
  4  9  1  0  0  0  0
  4 15  2  0  0  0  0
  5 17  1  0  0  0  0
  6 19  1  0  0  0  0
  7 10  2  0  0  0  0
  7 18  1  0  0  0  0
  8 21  1  0  0  0  0
  9 21  2  0  0  0  0
 10 22  1  0  0  0  0
 11 12  2  0  0  0  0
 11 23  1  0  0  0  0
 12 24  1  0  0  0  0
 13 20  1  0  0  0  0
 13 22  2  0  0  0  0
 14 24  2  0  0  0  0
 14 25  1  0  0  0  0
 15 26  1  0  0  0  0
 16 26  1  0  0  0  0
 16 27  2  0  0  0  0
 16 28  1  0  0  0  0
 17 19  2  0  0  0  0
 17 33  1  0  0  0  0
 18 20  2  0  0  0  0
 18 34  1  0  0  0  0
 19 50  1  0  0  0  0
 20 35  1  0  0  0  0
 21 80  1  0  0  0  0
 22 81  1  0  0  0  0
 23 25  2  0  0  0  0
 23 80  1  0  0  0  0
 24 82  1  0  0  0  0
 25 83  1  0  0  0  0
 26 64  2  0  0  0  0
 27 65  1  0  0  0  0
 27 69  1  0  0  0  0
 28 70  1  0  0  0  0
 28 75  2  0  0  0  0
 29 51  1  0  0  0  0
 29 71  1  0  0  0  0
 29 76  2  0  0  0  0
 30 61  1  0  0  0  0
 30 66  1  0  0  0  0
 30 77  2  0  0  0  0
 31 62  1  0  0  0  0
 31 72  1  0  0  0  0
 31 78  2  0  0  0  0
 32 67  1  0  0  0  0
 32 68  1  0  0  0  0
 32 79  2  0  0  0  0
 33 36  1  0  0  0  0
 34 51  1  0  0  0  0
 35 66  1  0  0  0  0
 36 38  1  0  0  0  0
 37 39  1  0  0  0  0
 37 44  1  0  0  0  0
 38 50  1  0  0  0  0
 39 52  1  0  0  0  0
 40 45  1  0  0  0  0
 40 53  1  0  0  0  0
 41 46  1  0  0  0  0
 41 53  1  0  0  0  0
 42 48  1  0  0  0  0
 42 53  1  0  0  0  0
 43 49  1  0  0  0  0
 43 53  1  0  0  0  0
 44 67  1  0  0  0  0
 45 68  1  0  0  0  0
 46 68  1  0  0  0  0
 47 52  1  0  0  0  0
 47 67  1  0  0  0  0
 48 73  1  0  0  0  0
 49 73  1  0  0  0  0
 50 71  1  0  0  0  0
 51 66  1  0  0  0  0
 52 65  1  0  0  0  0
 54 62  1  0  0  0  0
 55 63  1  0  0  0  0
 56 63  1  0  0  0  0
 57 63  1  0  0  0  0
 58 74  1  0  0  0  0
 59 60  1  0  0  0  0
 59 73  1  0  0  0  0
 60 81  1  0  0  0  0
 61 63  1  0  0  0  0
 61 72  1  0  0  0  0
 62 74  1  0  0  0  0
 64 65  1  0  0  0  0
M  CHG  2  73   1  74   1
M  ISO  4  32 100  60 101  68 100  81 101
M  END
> <Batch ID>
0009

> <Smiles>
CNC(C)C(=O)NC(C(=O)N1Cc2cc([101O:1][101CH2:1]CN3CCC4(CC3)CC[100N:0]([100C:0](=O)N3CCCC(n5nc(-c6ccc(Oc7ccc(F)cc7F)cc6)c(C(N)=O)c5N)C3)CC4)ccc2CC1C(=O)NC1CCCc2ccccc21)C(C)(C)C

> <Shape>
0.296

> <Color>
0.111

> <Negative vol penalty>
0.000

$$$$

  -OEChem-04042320373D

 86 95  0     1  0  0  0  0  0999 V2000
  -26.9343  -18.8731   16.4549 C   0  0  0  0  0  0  0  0  0  0  0  0
  -27.0353  -18.4856   17.7872 C   0  0  0  0  0  0  0  0  0  0  0  0
  -26.2611  -29.2237   19.5100 C   0  0  0  0  0  0  0  0  0  0  0  0
  -26.2968  -28.5472   21.8291 C   0  0  0  0  0  0  0  0  0  0  0  0
  -25.8049  -18.5285   15.7136 C   0  0  0  0  0  0  0  0  0  0  0  0
  -26.0064  -17.7541   18.3793 C   0  0  0  0  0  0  0  0  0  0  0  0
  -27.7228  -13.8706   21.1393 C   0  0  0  0  0  0  0  0  0  0  0  0
  -25.1055  -29.9686   19.7451 C   0  0  0  0  0  0  0  0  0  0  0  0
  -25.1412  -29.2922   22.0642 C   0  0  0  0  0  0  0  0  0  0  0  0
  -28.2320  -14.1640   22.4036 C   0  0  0  0  0  0  0  0  0  0  0  0
  -24.3275  -32.5348   22.5582 C   0  0  0  0  0  0  0  0  0  0  0  0
  -24.2944  -33.3333   23.7014 C   0  0  0  0  0  0  0  0  0  0  0  0
  -26.1471  -13.4688   23.3981 C   0  0  0  0  0  0  0  0  0  0  0  0
  -28.2288  -20.2064   25.0819 C   0  0  0  0  0  0  0  0  0  0  0  0
  -28.2802  -19.3026   22.4431 C   0  0  0  0  0  0  0  0  0  0  0  0
  -22.3731  -32.1068   24.5024 C   0  0  0  0  0  0  0  0  0  0  0  0
  -26.8567  -28.5129   20.5520 C   0  0  0  0  0  0  0  0  0  0  0  0
  -29.3828  -28.1833   20.4180 C   0  0  0  0  0  0  0  0  0  0  0  0
  -24.7659  -17.7841   16.2942 C   0  0  0  0  0  0  0  0  0  0  0  0
  -26.4159  -13.3836   20.9938 C   0  0  0  0  0  0  0  0  0  0  0  0
  -24.8614  -17.4003   17.6454 C   0  0  0  0  0  0  0  0  0  0  0  0
  -25.6245  -13.1676   22.1310 C   0  0  0  0  0  0  0  0  0  0  0  0
  -27.8729  -18.8900   24.7886 C   0  0  0  0  0  0  0  0  0  0  0  0
  -28.6360  -20.6190   22.7365 C   0  0  0  0  0  0  0  0  0  0  0  0
  -24.5456  -30.0029   21.0221 C   0  0  0  0  0  0  0  0  0  0  0  0
  -27.4432  -13.9658   23.5330 C   0  0  0  0  0  0  0  0  0  0  0  0
  -23.3834  -31.5223   22.3870 C   0  0  0  0  0  0  0  0  0  0  0  0
  -23.3172  -33.1192   24.6735 C   0  0  0  0  0  0  0  0  0  0  0  0
  -28.6103  -21.0709   24.0559 C   0  0  0  0  0  0  0  0  0  0  0  0
  -27.8986  -18.4381   23.4692 C   0  0  0  0  0  0  0  0  0  0  0  0
  -22.4062  -31.3083   23.3591 C   0  0  0  0  0  0  0  0  0  0  0  0
  -28.0501  -27.7427   20.3098 C   0  0  0  0  0  0  0  0  0  0  0  0
  -30.1360  -27.0836   20.0865 C   0  0  0  0  0  0  0  0  0  0  0  0
  -29.8942  -29.4714   20.7854 C   0  0  0  0  0  0  0  0  0  0  0  0
  -23.7813  -14.4256   19.5526 C   0  0  0  0  0  0  0  0  0  0  0  0
  -22.6267  -11.5208   20.4195 C   0  0  0  0  0  0  0  0  0  0  0  0
  -22.8106   -8.8403   22.5238 C   0  0  0  0  0  0  0  0  0  0  0  0
  -29.1021  -21.2034   20.3308 C   0  0  0  0  0  0  0  0  0  0  0  0
  -23.5434  -17.4758   15.4664 C   0  0  0  0  0  0  0  0  0  0  0  0
  -25.8907  -13.0468   19.6252 C   0  0  0  0  0  0  0  0  0  0  0  0
  -24.2221  -12.6276   22.0304 C   0  0  0  0  0  0  0  0  0  0  0  0
  -22.6660  -16.3774   16.0615 C   0  0  0  0  0  0  0  0  0  0  0  0
  -29.9758  -23.0937   17.4427 C   0  0  0  0  0  0  0  0  0  0  0  0
  -29.7039  -16.1306   27.8930 C   0  0  0  0  0  0  0  0  0  0  0  0
  -22.4482  -16.6171   17.5521 C   0  0  0  0  0  0  0  0  0  0  0  0
  -29.7082  -24.5410   17.8621 C   0  0  0  0  0  0  0  0  0  0  0  0
  -28.8685  -14.9395   27.4676 C   0  0  0  0  0  0  0  0  0  0  0  0
  -28.9445  -22.1327   18.0315 C   0  0  0  0  0  0  0  0  0  0  0  0
  -28.5053  -23.6691   19.9066 C   0  0  0  0  0  0  0  0  0  0  0  0
  -29.6791  -17.0379   26.6780 C   0  0  0  0  0  0  0  0  0  0  0  0
  -23.7773  -16.5847   18.3161 C   0  0  1  0  0  0  0  0  0  0  0  0
  -24.3668  -13.0418   19.5545 C   0  0  1  0  0  0  0  0  0  0  0  0
  -29.5561  -24.6658   19.3908 C   0  0  2  0  0  0  0  0  0  0  0  0
  -27.7000  -15.5911   26.7431 C   0  0  2  0  0  0  0  0  0  0  0  0
  -21.7101   -6.6379   23.0093 C   0  0  0  0  0  0  0  0  0  0  0  0
  -20.2906  -12.9802   21.7320 C   0  0  0  0  0  0  0  0  0  0  0  0
  -19.7652  -10.8733   22.9782 C   0  0  0  0  0  0  0  0  0  0  0  0
  -19.6575  -10.9061   20.4862 C   0  0  0  0  0  0  0  0  0  0  0  0
  -25.3072   -7.3434   21.9897 C   0  0  0  0  0  0  0  0  0  0  0  0
  -27.4638  -17.9626   25.8947 C   0  0  0  0  0  0  0  0  0  0  0  0
  -27.0016  -14.6675   25.7620 C   0  0  0  0  0  0  0  0  0  1  0  0
  -21.9111  -10.9727   21.6305 C   0  0  1  0  0  0  0  0  0  0  0  0
  -22.8234   -7.3466   22.2536 C   0  0  2  0  0  0  0  0  0  0  0  0
  -20.4318  -11.4451   21.7088 C   0  0  0  0  0  0  0  0  0  0  0  0
  -27.9587  -26.4630   19.9384 N   0  0  0  0  0  0  0  0  0  0  0  0
  -29.2434  -26.0900   19.8103 N   0  0  0  0  0  0  0  0  0  0  0  0
  -23.7516  -12.3194   20.6698 N   0  0  0  0  0  0  0  0  0  0  0  0
  -28.8580  -22.3048   19.4833 N   0  0  0  0  0  0  0  0  0  0  0  0
  -31.4680  -26.8793   20.0072 N   0  0  0  0  0  0  0  0  0  0  0  0
  -28.9816  -30.4889   21.0955 N   0  0  0  0  0  0  0  0  0  0  0  0
  -29.0234  -21.4949   21.6922 N   0  0  0  0  0  0  0  0  0  0  0  0
  -24.2165  -15.2192   18.5085 N   0  0  0  0  0  0  0  0  0  0  0  0
  -22.0738   -9.5238   21.5798 N   0  0  0  0  0  0  0  0  0  0  0  0
  -28.3458  -16.7564   26.0059 N   0  3  1  0  0  0  0  0  0  0  0  0
  -24.1258   -6.7556   22.6723 N   0  3  0  0  0  0  0  0  0  0  0  0
  -31.1237  -29.7175   20.8213 O   0  0  0  0  0  0  0  0  0  0  0  0
  -22.9919  -14.7488   20.4324 O   0  0  0  0  0  0  0  0  0  0  0  0
  -22.2074  -11.2444   19.2928 O   0  0  0  0  0  0  0  0  0  0  0  0
  -23.3927   -9.3494   23.4790 O   0  0  0  0  0  0  0  0  0  0  0  0
  -29.3887  -20.0905   19.8822 O   0  0  0  0  0  0  0  0  0  0  0  0
  -23.4181  -30.7299   21.2519 O   0  0  0  0  0  0  0  0  0  0  0  0
  -27.9375  -14.2519   24.7682 O   0  0  0  0  0  0  0  0  0  1  0  0
  -23.2865  -33.8851   25.7720 F   0  0  0  0  0  0  0  0  0  0  0  0
  -28.9503  -22.3342   24.3493 F   0  0  0  0  0  0  0  0  0  0  0  0
  -27.5582  -17.1750   23.1777 F   0  0  0  0  0  0  0  0  0  0  0  0
  -21.4973  -30.3364   23.2008 F   0  0  0  0  0  0  0  0  0  0  0  0
  1  2  1  0  0  0  0
  1  5  2  0  0  0  0
  2  6  2  0  0  0  0
  3  8  2  0  0  0  0
  3 17  1  0  0  0  0
  4  9  1  0  0  0  0
  4 17  2  0  0  0  0
  5 19  1  0  0  0  0
  6 21  1  0  0  0  0
  7 10  2  0  0  0  0
  7 20  1  0  0  0  0
  8 25  1  0  0  0  0
  9 25  2  0  0  0  0
 10 26  1  0  0  0  0
 11 12  2  0  0  0  0
 11 27  1  0  0  0  0
 12 28  1  0  0  0  0
 13 22  1  0  0  0  0
 13 26  2  0  0  0  0
 14 23  1  0  0  0  0
 14 29  2  0  0  0  0
 15 24  2  0  0  0  0
 15 30  1  0  0  0  0
 16 28  2  0  0  0  0
 16 31  1  0  0  0  0
 17 32  1  0  0  0  0
 18 32  1  0  0  0  0
 18 33  2  0  0  0  0
 18 34  1  0  0  0  0
 19 21  2  0  0  0  0
 19 39  1  0  0  0  0
 20 22  2  0  0  0  0
 20 40  1  0  0  0  0
 21 51  1  0  0  0  0
 22 41  1  0  0  0  0
 23 30  2  0  0  0  0
 23 60  1  0  0  0  0
 24 29  1  0  0  0  0
 24 71  1  0  0  0  0
 25 81  1  0  0  0  0
 26 82  1  0  0  0  0
 27 31  2  0  0  0  0
 27 81  1  0  0  0  0
 28 83  1  0  0  0  0
 29 84  1  0  0  0  0
 30 85  1  0  0  0  0
 31 86  1  0  0  0  0
 32 65  2  0  0  0  0
 33 66  1  0  0  0  0
 33 69  1  0  0  0  0
 34 70  1  0  0  0  0
 34 76  2  0  0  0  0
 35 52  1  0  0  0  0
 35 72  1  0  0  0  0
 35 77  2  0  0  0  0
 36 62  1  0  0  0  0
 36 67  1  0  0  0  0
 36 78  2  0  0  0  0
 37 63  1  0  0  0  0
 37 73  1  0  0  0  0
 37 79  2  0  0  0  0
 38 68  1  0  0  0  0
 38 71  1  0  0  0  0
 38 80  2  0  0  0  0
 39 42  1  0  0  0  0
 40 52  1  0  0  0  0
 41 67  1  0  0  0  0
 42 45  1  0  0  0  0
 43 46  1  0  0  0  0
 43 48  1  0  0  0  0
 44 47  1  0  0  0  0
 44 50  1  0  0  0  0
 45 51  1  0  0  0  0
 46 53  1  0  0  0  0
 47 54  1  0  0  0  0
 48 68  1  0  0  0  0
 49 53  1  0  0  0  0
 49 68  1  0  0  0  0
 50 74  1  0  0  0  0
 51 72  1  0  0  0  0
 52 67  1  0  0  0  0
 53 66  1  0  0  0  0
 54 61  1  0  0  0  0
 54 74  1  0  0  0  0
 55 63  1  0  0  0  0
 56 64  1  0  0  0  0
 57 64  1  0  0  0  0
 58 64  1  0  0  0  0
 59 75  1  0  0  0  0
 60 74  1  0  0  0  0
 61 82  1  0  0  0  0
 62 64  1  0  0  0  0
 62 73  1  0  0  0  0
 63 75  1  0  0  0  0
 65 66  1  0  0  0  0
M  CHG  2  74   1  75   1
M  ISO  4  38 100  61 101  71 100  82 101
M  END
> <Batch ID>
0009

> <Smiles>
CNC(C)C(=O)NC(C(=O)N1Cc2cc([101O:1][101CH2:1]C3CCCN3Cc3cc(F)c([100NH:0][100C:0](=O)N4CCCC(n5nc(-c6ccc(Oc7ccc(F)cc7F)cc6)c(C(N)=O)c5N)C4)cc3F)ccc2CC1C(=O)NC1CCCc2ccccc21)C(C)(C)C

> <Shape>
0.227

> <Color>
0.067

> <Negative vol penalty>
0.000

$$$$

  -OEChem-04042320373D

 85 94  0     1  0  0  0  0  0999 V2000
  -19.9807  -23.8869   18.5280 C   0  0  0  0  0  0  0  0  0  0  0  0
  -20.7936  -23.0033   18.5384 C   0  0  0  0  0  0  0  0  0  0  0  0
  -27.3054  -31.2500   28.3031 C   0  0  0  0  0  0  0  0  0  0  0  0
  -26.9898  -29.9046   28.1431 C   0  0  0  0  0  0  0  0  0  0  0  0
  -27.1080  -11.7594   20.3697 C   0  0  0  0  0  0  0  0  0  0  0  0
  -25.9753  -13.7842   19.6958 C   0  0  0  0  0  0  0  0  0  0  0  0
  -26.8903  -32.1802   27.3511 C   0  0  0  0  0  0  0  0  0  0  0  0
  -26.2577  -29.4887   27.0316 C   0  0  0  0  0  0  0  0  0  0  0  0
  -27.2288  -23.1396   18.1449 C   0  0  0  0  0  0  0  0  0  0  0  0
  -25.5567  -23.9280   22.5703 C   0  0  0  0  0  0  0  0  0  0  0  0
  -25.9212  -22.6514   18.1141 C   0  0  0  0  0  0  0  0  0  0  0  0
  -25.9399  -11.0311   20.1450 C   0  0  0  0  0  0  0  0  0  0  0  0
  -24.8071  -13.0559   19.4710 C   0  0  0  0  0  0  0  0  0  0  0  0
  -24.5795  -23.0791   22.0524 C   0  0  0  0  0  0  0  0  0  0  0  0
  -23.0157  -10.4592   21.7408 C   0  0  0  0  0  0  0  0  0  0  0  0
  -22.6374   -9.5279   22.7077 C   0  0  0  0  0  0  0  0  0  0  0  0
  -26.2971  -21.3877   20.1595 C   0  0  0  0  0  0  0  0  0  0  0  0
  -23.9836  -24.7638   20.4319 C   0  0  0  0  0  0  0  0  0  0  0  0
  -22.7742   -7.7641   21.0623 C   0  0  0  0  0  0  0  0  0  0  0  0
  -27.1257  -13.1360   20.1452 C   0  0  0  0  0  0  0  0  0  0  0  0
  -29.5801  -13.7097   19.7518 C   0  0  0  0  0  0  0  0  0  0  0  0
  -26.1611  -31.7742   26.2223 C   0  0  0  0  0  0  0  0  0  0  0  0
  -28.0574  -22.7331   19.1775 C   0  0  0  0  0  0  0  0  0  0  0  0
  -25.7477  -25.2074   22.0290 C   0  0  0  0  0  0  0  0  0  0  0  0
  -25.8313  -30.4146   26.0643 C   0  0  0  0  0  0  0  0  0  0  0  0
  -27.5993  -21.8625   20.1758 C   0  0  0  0  0  0  0  0  0  0  0  0
  -24.9656  -25.6260   20.9431 C   0  0  0  0  0  0  0  0  0  0  0  0
  -25.4585  -21.7822   19.1143 C   0  0  0  0  0  0  0  0  0  0  0  0
  -24.7894  -11.6793   19.6956 C   0  0  0  0  0  0  0  0  0  0  0  0
  -23.7907  -23.4981   20.9850 C   0  0  0  0  0  0  0  0  0  0  0  0
  -23.2732  -10.0431   20.4345 C   0  0  0  0  0  0  0  0  0  0  0  0
  -22.5167   -8.1803   22.3685 C   0  0  0  0  0  0  0  0  0  0  0  0
  -23.1525   -8.6955   20.0953 C   0  0  0  0  0  0  0  0  0  0  0  0
  -28.3320  -13.8891   20.3778 C   0  0  0  0  0  0  0  0  0  0  0  0
  -30.3879  -14.6664   20.3163 C   0  0  0  0  0  0  0  0  0  0  0  0
  -29.9739  -12.7631   18.7495 C   0  0  0  0  0  0  0  0  0  0  0  0
  -25.5046  -28.1740   23.1443 C   0  0  0  0  0  0  0  0  0  0  0  0
  -26.7221  -28.9498   20.2395 C   0  0  0  0  0  0  0  0  0  0  0  0
  -27.1879  -28.0902   16.9698 C   0  0  0  0  0  0  0  0  0  0  0  0
  -29.2579  -19.9389   22.9191 C   0  0  0  0  0  0  0  0  0  0  0  0
  -25.6934  -32.8228   25.2444 C   0  0  0  0  0  0  0  0  0  0  0  0
  -29.4700  -23.1533   19.4394 C   0  0  0  0  0  0  0  0  0  0  0  0
  -26.8242  -26.1008   22.5817 C   0  0  0  0  0  0  0  0  0  0  0  0
  -25.1447  -26.9822   20.3130 C   0  0  0  0  0  0  0  0  0  0  0  0
  -25.2438  -32.2480   23.9036 C   0  0  0  0  0  0  0  0  0  0  0  0
  -29.9272  -22.0620   20.4198 C   0  0  0  0  0  0  0  0  0  0  0  0
  -30.9719  -17.1671   24.3531 C   0  0  0  0  0  0  0  0  0  0  0  0
  -24.3286  -31.0466   24.1179 C   0  0  0  0  0  0  0  0  0  0  0  0
  -30.6023  -15.9965   23.4404 C   0  0  0  0  0  0  0  0  0  0  0  0
  -29.8050  -18.1366   24.5281 C   0  0  0  0  0  0  0  0  0  0  0  0
  -28.8516  -17.4660   22.3567 C   0  0  0  0  0  0  0  0  0  0  0  0
  -25.0602  -29.9211   24.8593 C   0  0  1  0  0  0  0  0  0  0  0  0
  -28.6720  -21.6285   21.1984 C   0  0  2  0  0  0  0  0  0  0  0  0
  -26.5846  -27.5782   22.2863 C   0  0  1  0  0  0  0  0  0  0  0  0
  -30.0142  -16.4907   22.1050 C   0  0  2  0  0  0  0  0  0  0  0  0
  -28.0497  -28.2554   14.6188 C   0  0  0  0  0  0  0  0  0  0  0  0
  -24.3503  -30.8370   19.8885 C   0  0  0  0  0  0  0  0  0  0  0  0
  -24.8686  -30.9209   17.4406 C   0  0  0  0  0  0  0  0  0  0  0  0
  -26.5384  -31.7530   19.0964 C   0  0  0  0  0  0  0  0  0  0  0  0
  -29.6623  -26.6158   17.6498 C   0  0  0  0  0  0  0  0  0  0  0  0
  -21.7824  -21.9200   18.5492 C   0  0  0  0  0  0  0  0  0  0  0  0
  -24.0409  -21.2777   19.0640 C   0  0  0  0  0  0  0  0  0  0  0  0
  -26.1364  -29.2660   18.8845 C   0  0  1  0  0  0  0  0  0  0  0  0
  -28.4224  -28.1186   16.0868 C   0  0  2  0  0  0  0  0  0  0  0  0
  -25.4685  -30.6693   18.8404 C   0  0  0  0  0  0  0  0  0  0  0  0
  -28.3413  -14.8815   21.2717 N   0  0  0  0  0  0  0  0  0  0  0  0
  -29.6052  -15.3343   21.2115 N   0  0  0  0  0  0  0  0  0  0  0  0
  -26.2060  -27.8218   20.8929 N   0  0  0  0  0  0  0  0  0  0  0  0
  -29.2946  -18.5684   23.2247 N   0  0  0  0  0  0  0  0  0  0  0  0
  -31.6844  -14.9929   20.1294 N   0  0  0  0  0  0  0  0  0  0  0  0
  -29.8300  -13.1186   17.4015 N   0  0  0  0  0  0  0  0  0  0  0  0
  -25.9358  -29.2062   23.9555 N   0  0  0  0  0  0  0  0  0  0  0  0
  -27.2172  -29.0880   17.9209 N   0  0  0  0  0  0  0  0  0  0  0  0
  -28.7658  -20.2616   21.6604 N   0  0  0  0  0  0  0  0  0  0  0  0
  -23.0733  -22.3730   19.0628 N   0  0  2  0  0  0  0  0  0  1  0  0
  -29.2098  -26.8648   16.2569 N   0  3  0  0  0  0  0  0  0  0  0  0
  -30.4244  -11.6292   19.0407 O   0  0  0  0  0  0  0  0  0  0  0  0
  -24.3641  -27.7311   23.0744 O   0  0  0  0  0  0  0  0  0  0  0  0
  -27.6102  -29.6729   20.6980 O   0  0  0  0  0  0  0  0  0  0  0  0
  -26.2859  -27.2676   16.8274 O   0  0  0  0  0  0  0  0  0  0  0  0
  -29.6407  -20.8100   23.7075 O   0  0  0  0  0  0  0  0  0  0  0  0
  -23.6495  -10.9689   19.4759 O   0  0  0  0  0  0  0  0  0  0  0  0
  -22.8357  -22.6718   20.4780 O   0  0  0  0  0  0  0  0  0  1  0  0
  -22.1549   -7.2857   23.2975 F   0  0  0  0  0  0  0  0  0  0  0  0
  -23.3997   -8.2895   18.8424 F   0  0  0  0  0  0  0  0  0  0  0  0
  1  2  3  0  0  0  0
  2 61  1  0  0  0  0
  3  4  1  0  0  0  0
  3  7  2  0  0  0  0
  4  8  2  0  0  0  0
  5 12  2  0  0  0  0
  5 20  1  0  0  0  0
  6 13  1  0  0  0  0
  6 20  2  0  0  0  0
  7 22  1  0  0  0  0
  8 25  1  0  0  0  0
  9 11  2  0  0  0  0
  9 23  1  0  0  0  0
 10 14  2  0  0  0  0
 10 24  1  0  0  0  0
 11 28  1  0  0  0  0
 12 29  1  0  0  0  0
 13 29  2  0  0  0  0
 14 30  1  0  0  0  0
 15 16  2  0  0  0  0
 15 31  1  0  0  0  0
 16 32  1  0  0  0  0
 17 26  1  0  0  0  0
 17 28  2  0  0  0  0
 18 27  1  0  0  0  0
 18 30  2  0  0  0  0
 19 32  2  0  0  0  0
 19 33  1  0  0  0  0
 20 34  1  0  0  0  0
 21 34  1  0  0  0  0
 21 35  2  0  0  0  0
 21 36  1  0  0  0  0
 22 25  2  0  0  0  0
 22 41  1  0  0  0  0
 23 26  2  0  0  0  0
 23 42  1  0  0  0  0
 24 27  2  0  0  0  0
 24 43  1  0  0  0  0
 25 52  1  0  0  0  0
 26 53  1  0  0  0  0
 27 44  1  0  0  0  0
 28 62  1  0  0  0  0
 29 82  1  0  0  0  0
 30 83  1  0  0  0  0
 31 33  2  0  0  0  0
 31 82  1  0  0  0  0
 32 84  1  0  0  0  0
 33 85  1  0  0  0  0
 34 66  2  0  0  0  0
 35 67  1  0  0  0  0
 35 70  1  0  0  0  0
 36 71  1  0  0  0  0
 36 77  2  0  0  0  0
 37 54  1  0  0  0  0
 37 72  1  0  0  0  0
 37 78  2  0  0  0  0
 38 63  1  0  0  0  0
 38 68  1  0  0  0  0
 38 79  2  0  0  0  0
 39 64  1  0  0  0  0
 39 73  1  0  0  0  0
 39 80  2  0  0  0  0
 40 69  1  0  0  0  0
 40 74  1  0  0  0  0
 40 81  2  0  0  0  0
 41 45  1  0  0  0  0
 42 46  1  0  0  0  0
 43 54  1  0  0  0  0
 44 68  1  0  0  0  0
 45 48  1  0  0  0  0
 46 53  1  0  0  0  0
 47 49  1  0  0  0  0
 47 50  1  0  0  0  0
 48 52  1  0  0  0  0
 49 55  1  0  0  0  0
 50 69  1  0  0  0  0
 51 55  1  0  0  0  0
 51 69  1  0  0  0  0
 52 72  1  0  0  0  0
 53 74  1  0  0  0  0
 54 68  1  0  0  0  0
 55 67  1  0  0  0  0
 56 64  1  0  0  0  0
 57 65  1  0  0  0  0
 58 65  1  0  0  0  0
 59 65  1  0  0  0  0
 60 76  1  0  0  0  0
 61 75  1  0  0  0  0
 62 75  1  0  0  0  0
 63 65  1  0  0  0  0
 63 73  1  0  0  0  0
 64 76  1  0  0  0  0
 66 67  1  0  0  0  0
 75 83  1  0  0  0  0
M  CHG  1  76   1
M  ISO  4  40 100  74 100  75 101  83 101
M  END
> <Batch ID>
0009

> <Smiles>
C#CC[101N:1](Cc1ccc2c(c1)C([100NH:0][100C:0](=O)N1CCCC(n3nc(-c4ccc(Oc5ccc(F)cc5F)cc4)c(C(N)=O)c3N)C1)CC2)[101O:1]c1ccc2c(c1)CN(C(=O)C(NC(=O)C(C)NC)C(C)(C)C)C(C(=O)NC1CCCc3ccccc31)C2

> <Shape>
0.239

> <Color>
0.043

> <Negative vol penalty>
0.000

$$$$

  -OEChem-04042320373D

 84 92  0     1  0  0  0  0  0999 V2000
  -17.7842  -27.7909   20.1587 C   0  0  0  0  0  0  0  0  0  0  0  0
  -17.8192  -26.5975   19.4445 C   0  0  0  0  0  0  0  0  0  0  0  0
  -29.5388  -26.0303   22.5650 C   0  0  0  0  0  0  0  0  0  0  0  0
  -27.1387  -25.8005   22.7189 C   0  0  0  0  0  0  0  0  0  0  0  0
  -18.7904  -28.0809   21.0792 C   0  0  0  0  0  0  0  0  0  0  0  0
  -18.8612  -25.6938   19.6498 C   0  0  0  0  0  0  0  0  0  0  0  0
  -20.2273  -18.6618   19.6826 C   0  0  0  0  0  0  0  0  0  0  0  0
  -29.4763  -27.1954   23.3293 C   0  0  0  0  0  0  0  0  0  0  0  0
  -27.0762  -26.9657   23.4832 C   0  0  0  0  0  0  0  0  0  0  0  0
  -21.1085  -17.7332   19.1304 C   0  0  0  0  0  0  0  0  0  0  0  0
  -27.1727  -30.3030   22.9502 C   0  0  0  0  0  0  0  0  0  0  0  0
  -26.1852  -31.2350   22.6314 C   0  0  0  0  0  0  0  0  0  0  0  0
  -22.7494  -18.3045   20.8038 C   0  0  0  0  0  0  0  0  0  0  0  0
  -25.2565  -31.0101   24.8505 C   0  0  0  0  0  0  0  0  0  0  0  0
  -28.3700  -25.3328   22.2597 C   0  0  0  0  0  0  0  0  0  0  0  0
  -28.9263  -23.9993   20.1574 C   0  0  0  0  0  0  0  0  0  0  0  0
  -19.8401  -27.1759   21.3028 C   0  0  0  0  0  0  0  0  0  0  0  0
  -20.6052  -19.4278   20.7947 C   0  0  0  0  0  0  0  0  0  0  0  0
  -19.8831  -25.9726   20.5731 C   0  0  0  0  0  0  0  0  0  0  0  0
  -21.8702  -19.2403   21.3697 C   0  0  0  0  0  0  0  0  0  0  0  0
  -28.2451  -27.6631   23.7884 C   0  0  0  0  0  0  0  0  0  0  0  0
  -22.3709  -17.5565   19.6892 C   0  0  0  0  0  0  0  0  0  0  0  0
  -27.2022  -29.7244   24.2192 C   0  0  0  0  0  0  0  0  0  0  0  0
  -25.2271  -31.5886   23.5815 C   0  0  0  0  0  0  0  0  0  0  0  0
  -26.2441  -30.0780   25.1693 C   0  0  0  0  0  0  0  0  0  0  0  0
  -28.4338  -24.1295   21.4698 C   0  0  0  0  0  0  0  0  0  0  0  0
  -28.7680  -22.6673   19.8619 C   0  0  0  0  0  0  0  0  0  0  0  0
  -29.4777  -24.9934   19.2837 C   0  0  0  0  0  0  0  0  0  0  0  0
  -20.9854  -22.5335   21.3547 C   0  0  0  0  0  0  0  0  0  0  0  0
  -26.4009  -14.3206   20.1734 C   0  0  0  0  0  0  0  0  0  0  0  0
  -21.4479  -21.5296   24.4044 C   0  0  0  0  0  0  0  0  0  0  0  0
  -22.3472  -19.0065   26.5191 C   0  0  0  0  0  0  0  0  0  0  0  0
  -29.3005  -17.3955   21.2299 C   0  0  0  0  0  0  0  0  0  0  0  0
  -20.9304  -27.5545   22.2736 C   0  0  0  0  0  0  0  0  0  0  0  0
  -19.6330  -20.4062   21.3948 C   0  0  0  0  0  0  0  0  0  0  0  0
  -22.3167  -20.0232   22.5764 C   0  0  0  0  0  0  0  0  0  0  0  0
  -21.7983  -26.3751   22.7050 C   0  0  0  0  0  0  0  0  0  0  0  0
  -26.2560  -19.0245   22.3137 C   0  0  0  0  0  0  0  0  0  0  0  0
  -29.3220  -12.3204   19.0472 C   0  0  0  0  0  0  0  0  0  0  0  0
  -22.2100  -25.5440   21.4940 C   0  0  0  0  0  0  0  0  0  0  0  0
  -26.5987  -20.4968   22.0789 C   0  0  0  0  0  0  0  0  0  0  0  0
  -29.6900  -13.7412   18.6362 C   0  0  0  0  0  0  0  0  0  0  0  0
  -27.8243  -12.4133   19.2961 C   0  0  0  0  0  0  0  0  0  0  0  0
  -27.4696  -18.2477   22.8155 C   0  0  0  0  0  0  0  0  0  0  0  0
  -29.0125  -19.8120   21.6991 C   0  0  0  0  0  0  0  0  0  0  0  0
  -20.9836  -24.9558   20.7859 C   0  0  1  0  0  0  0  0  0  0  0  0
  -20.3137  -21.4992   22.2130 C   0  0  1  0  0  0  0  0  0  0  0  0
  -27.8325  -20.6468   21.1693 C   0  0  2  0  0  0  0  0  0  0  0  0
  -28.7988  -14.6101   19.5273 C   0  0  2  0  0  0  0  0  0  0  0  0
  -22.6651  -18.4975   28.9557 C   0  0  0  0  0  0  0  0  0  0  0  0
  -24.0793  -23.0739   24.3811 C   0  0  0  0  0  0  0  0  0  0  0  0
  -24.7742  -21.7834   26.4108 C   0  0  0  0  0  0  0  0  0  0  0  0
  -22.7734  -23.2701   26.5049 C   0  0  0  0  0  0  0  0  0  0  0  0
  -20.2714  -16.8975   26.4685 C   0  0  0  0  0  0  0  0  0  0  0  0
  -22.7925  -13.2172   20.6447 C   0  0  0  0  0  0  0  0  0  0  0  0
  -25.2415  -13.3574   20.2169 C   0  0  0  0  0  0  0  0  0  0  0  0
  -29.4683  -14.9479   20.8581 C   0  0  0  0  0  0  0  0  0  0  0  0
  -23.6353  -14.3475   18.5920 C   0  0  0  0  0  0  0  0  0  0  0  0
  -22.6624  -15.5076   18.5174 C   0  0  0  0  0  0  0  0  0  1  0  0
  -22.6440  -21.0978   25.2180 C   0  0  1  0  0  0  0  0  0  0  0  0
  -21.6977  -18.4715   27.7826 C   0  0  2  0  0  0  0  0  0  0  0  0
  -23.5603  -22.2928   25.6048 C   0  0  0  0  0  0  0  0  0  0  0  0
  -27.9953  -22.9727   21.9732 N   0  0  0  0  0  0  0  0  0  0  0  0
  -28.2117  -22.1028   20.9719 N   0  0  0  0  0  0  0  0  0  0  0  0
  -21.3328  -20.9723   23.1230 N   0  0  0  0  0  0  0  0  0  0  0  0
  -27.6001  -13.7920   19.7239 N   0  0  0  0  0  0  0  0  0  0  0  0
  -28.6032  -18.4173   21.8955 N   0  0  0  0  0  0  0  0  0  0  0  0
  -29.0518  -21.9356   18.7635 N   0  0  0  0  0  0  0  0  0  0  0  0
  -28.6097  -25.6892   18.4312 N   0  0  0  0  0  0  0  0  0  0  0  0
  -20.4810  -23.8102   21.5135 N   0  0  0  0  0  0  0  0  0  0  0  0
  -22.1159  -20.3562   26.3580 N   0  0  0  0  0  0  0  0  0  0  0  0
  -28.8545  -16.1026   21.4753 N   0  0  0  0  0  0  0  0  0  0  0  0
  -21.2453  -17.0665   27.5776 N   0  3  0  0  0  0  0  0  0  0  0  0
  -23.9024  -14.0226   20.0158 N   0  3  1  0  0  0  0  0  0  0  0  0
  -30.7060  -25.2452   19.2479 O   0  0  0  0  0  0  0  0  0  0  0  0
  -21.8950  -22.1984   20.6050 O   0  0  0  0  0  0  0  0  0  0  0  0
  -26.2501  -15.4914   20.5265 O   0  0  0  0  0  0  0  0  0  0  0  0
  -20.6415  -22.3264   24.8907 O   0  0  0  0  0  0  0  0  0  0  0  0
  -22.9979  -18.2986   25.7536 O   0  0  0  0  0  0  0  0  0  0  0  0
  -30.2477  -17.6192   20.4684 O   0  0  0  0  0  0  0  0  0  0  0  0
  -28.1837  -28.7999   24.5344 O   0  0  0  0  0  0  0  0  0  0  0  0
  -23.2333  -16.6513   19.1519 O   0  0  0  0  0  0  0  0  0  1  0  0
  -24.2797  -32.4847   23.2757 F   0  0  0  0  0  0  0  0  0  0  0  0
  -26.2680  -29.5265   26.3904 F   0  0  0  0  0  0  0  0  0  0  0  0
  1  2  1  0  0  0  0
  1  5  2  0  0  0  0
  2  6  2  0  0  0  0
  3  8  2  0  0  0  0
  3 15  1  0  0  0  0
  4  9  1  0  0  0  0
  4 15  2  0  0  0  0
  5 17  1  0  0  0  0
  6 19  1  0  0  0  0
  7 10  2  0  0  0  0
  7 18  1  0  0  0  0
  8 21  1  0  0  0  0
  9 21  2  0  0  0  0
 10 22  1  0  0  0  0
 11 12  2  0  0  0  0
 11 23  1  0  0  0  0
 12 24  1  0  0  0  0
 13 20  1  0  0  0  0
 13 22  2  0  0  0  0
 14 24  2  0  0  0  0
 14 25  1  0  0  0  0
 15 26  1  0  0  0  0
 16 26  1  0  0  0  0
 16 27  2  0  0  0  0
 16 28  1  0  0  0  0
 17 19  2  0  0  0  0
 17 34  1  0  0  0  0
 18 20  2  0  0  0  0
 18 35  1  0  0  0  0
 19 46  1  0  0  0  0
 20 36  1  0  0  0  0
 21 81  1  0  0  0  0
 22 82  1  0  0  0  0
 23 25  2  0  0  0  0
 23 81  1  0  0  0  0
 24 83  1  0  0  0  0
 25 84  1  0  0  0  0
 26 63  2  0  0  0  0
 27 64  1  0  0  0  0
 27 68  1  0  0  0  0
 28 69  1  0  0  0  0
 28 75  2  0  0  0  0
 29 47  1  0  0  0  0
 29 70  1  0  0  0  0
 29 76  2  0  0  0  0
 30 56  1  0  0  0  0
 30 66  1  0  0  0  0
 30 77  2  0  0  0  0
 31 60  1  0  0  0  0
 31 65  1  0  0  0  0
 31 78  2  0  0  0  0
 32 61  1  0  0  0  0
 32 71  1  0  0  0  0
 32 79  2  0  0  0  0
 33 67  1  0  0  0  0
 33 72  1  0  0  0  0
 33 80  2  0  0  0  0
 34 37  1  0  0  0  0
 35 47  1  0  0  0  0
 36 65  1  0  0  0  0
 37 40  1  0  0  0  0
 38 41  1  0  0  0  0
 38 44  1  0  0  0  0
 39 42  1  0  0  0  0
 39 43  1  0  0  0  0
 40 46  1  0  0  0  0
 41 48  1  0  0  0  0
 42 49  1  0  0  0  0
 43 66  1  0  0  0  0
 44 67  1  0  0  0  0
 45 48  1  0  0  0  0
 45 67  1  0  0  0  0
 46 70  1  0  0  0  0
 47 65  1  0  0  0  0
 48 64  1  0  0  0  0
 49 57  1  0  0  0  0
 49 66  1  0  0  0  0
 50 61  1  0  0  0  0
 51 62  1  0  0  0  0
 52 62  1  0  0  0  0
 53 62  1  0  0  0  0
 54 73  1  0  0  0  0
 55 74  1  0  0  0  0
 56 74  1  0  0  0  0
 57 72  1  0  0  0  0
 58 59  1  0  0  0  0
 58 74  1  0  0  0  0
 59 82  1  0  0  0  0
 60 62  1  0  0  0  0
 60 71  1  0  0  0  0
 61 73  1  0  0  0  0
 63 64  1  0  0  0  0
M  CHG  2  73   1  74   1
M  ISO  4  33 100  59 101  72 100  82 101
M  END
> <Batch ID>
0009

> <Smiles>
CNC(C)C(=O)NC(C(=O)N1Cc2cc([101O:1][101CH2:1]CN(C)CC(=O)N3CCCC3C[100NH:0][100C:0](=O)N3CCCC(n4nc(-c5ccc(Oc6ccc(F)cc6F)cc5)c(C(N)=O)c4N)C3)ccc2CC1C(=O)NC1CCCc2ccccc21)C(C)(C)C

> <Shape>
0.203

> <Color>
0.057

> <Negative vol penalty>
0.000

$$$$

  -OEChem-04042320373D

 86 94  0     1  0  0  0  0  0999 V2000
  -24.2506  -30.7245   13.8688 C   0  0  0  0  0  0  0  0  0  0  0  0
  -25.3523  -30.1519   14.4964 C   0  0  0  0  0  0  0  0  0  0  0  0
  -23.3552  -11.9243   23.2652 C   0  0  0  0  0  0  0  0  0  0  0  0
  -22.4219  -13.9843   22.4153 C   0  0  0  0  0  0  0  0  0  0  0  0
  -23.3857  -31.5445   14.5923 C   0  0  0  0  0  0  0  0  0  0  0  0
  -25.5903  -30.4000   15.8478 C   0  0  0  0  0  0  0  0  0  0  0  0
  -26.8134  -26.2049   18.4071 C   0  0  0  0  0  0  0  0  0  0  0  0
  -22.3839  -11.8971   24.2659 C   0  0  0  0  0  0  0  0  0  0  0  0
  -21.4506  -13.9571   23.4160 C   0  0  0  0  0  0  0  0  0  0  0  0
  -28.1185  -25.7338   18.2711 C   0  0  0  0  0  0  0  0  0  0  0  0
  -18.5047  -14.2403   25.5278 C   0  0  0  0  0  0  0  0  0  0  0  0
  -17.1875  -14.5174   25.1618 C   0  0  0  0  0  0  0  0  0  0  0  0
  -28.6975  -26.7461   20.3828 C   0  0  0  0  0  0  0  0  0  0  0  0
  -28.1437  -22.0630   19.8779 C   0  0  0  0  0  0  0  0  0  0  0  0
  -29.3975  -20.0465   20.3234 C   0  0  0  0  0  0  0  0  0  0  0  0
  -27.1491  -19.9030   19.4511 C   0  0  0  0  0  0  0  0  0  0  0  0
  -17.2132  -12.6365   23.6457 C   0  0  0  0  0  0  0  0  0  0  0  0
  -23.3743  -12.9680   22.3399 C   0  0  0  0  0  0  0  0  0  0  0  0
  -24.2914  -12.4279   20.0215 C   0  0  0  0  0  0  0  0  0  0  0  0
  -23.6079  -31.7950   15.9556 C   0  0  0  0  0  0  0  0  0  0  0  0
  -26.4427  -26.9607   19.5286 C   0  0  0  0  0  0  0  0  0  0  0  0
  -24.7284  -31.2253   16.5899 C   0  0  0  0  0  0  0  0  0  0  0  0
  -27.3864  -27.2235   20.5319 C   0  0  0  0  0  0  0  0  0  0  0  0
  -29.3111  -21.4387   20.3172 C   0  0  0  0  0  0  0  0  0  0  0  0
  -27.0627  -21.2952   19.4448 C   0  0  0  0  0  0  0  0  0  0  0  0
  -28.3165  -19.2787   19.8903 C   0  0  0  0  0  0  0  0  0  0  0  0
  -21.4316  -12.9135   24.3413 C   0  0  0  0  0  0  0  0  0  0  0  0
  -29.0616  -26.0069   19.2576 C   0  0  0  0  0  0  0  0  0  0  0  0
  -19.1761  -13.1614   24.9526 C   0  0  0  0  0  0  0  0  0  0  0  0
  -16.5417  -13.7154   24.2208 C   0  0  0  0  0  0  0  0  0  0  0  0
  -18.5304  -12.3594   24.0116 C   0  0  0  0  0  0  0  0  0  0  0  0
  -24.3777  -12.9969   21.3063 C   0  0  0  0  0  0  0  0  0  0  0  0
  -25.4939  -12.7300   19.4307 C   0  0  0  0  0  0  0  0  0  0  0  0
  -23.2199  -11.6922   19.4162 C   0  0  0  0  0  0  0  0  0  0  0  0
  -25.3675  -29.9168   19.9858 C   0  0  0  0  0  0  0  0  0  0  0  0
  -25.0616  -28.9134   23.0553 C   0  0  0  0  0  0  0  0  0  0  0  0
  -26.0470  -26.7575   25.5105 C   0  0  0  0  0  0  0  0  0  0  0  0
  -29.4893  -17.0872   20.3008 C   0  0  0  0  0  0  0  0  0  0  0  0
  -22.6719  -32.7262   16.6845 C   0  0  0  0  0  0  0  0  0  0  0  0
  -25.0240  -27.4389   19.6733 C   0  0  0  0  0  0  0  0  0  0  0  0
  -27.0339  -28.0131   21.7650 C   0  0  0  0  0  0  0  0  0  0  0  0
  -22.7854  -32.6372   18.2042 C   0  0  0  0  0  0  0  0  0  0  0  0
  -30.0831  -13.5823   20.5020 C   0  0  0  0  0  0  0  0  0  0  0  0
  -24.2494  -32.6554   18.6322 C   0  0  0  0  0  0  0  0  0  0  0  0
  -28.6792  -12.9823   20.6080 C   0  0  0  0  0  0  0  0  0  0  0  0
  -30.1932  -14.9049   21.2585 C   0  0  0  0  0  0  0  0  0  0  0  0
  -27.7750  -15.3071   21.0137 C   0  0  0  0  0  0  0  0  0  0  0  0
  -25.0064  -31.4507   18.0603 C   0  0  1  0  0  0  0  0  0  0  0  0
  -24.8894  -28.6361   20.6093 C   0  0  1  0  0  0  0  0  0  0  0  0
  -27.5973  -14.0066   20.2133 C   0  0  2  0  0  0  0  0  0  0  0  0
  -25.6455  -26.2058   27.9254 C   0  0  0  0  0  0  0  0  0  0  0  0
  -26.7125  -31.3425   23.8823 C   0  0  0  0  0  0  0  0  0  0  0  0
  -27.0785  -30.2498   26.1050 C   0  0  0  0  0  0  0  0  0  0  0  0
  -24.7686  -30.8450   25.3750 C   0  0  0  0  0  0  0  0  0  0  0  0
  -25.1133  -24.0275   24.8516 C   0  0  0  0  0  0  0  0  0  0  0  0
  -32.0798  -21.9100   18.9135 C   0  0  0  0  0  0  0  0  0  0  0  0
  -30.4737  -22.2647   20.7831 C   0  0  0  0  0  0  0  0  0  0  0  0
  -32.0013  -24.1044   20.0883 C   0  0  0  0  0  0  0  0  0  0  0  0
  -31.0486  -25.2588   20.3290 C   0  0  0  0  0  0  0  0  0  1  0  0
  -25.9559  -28.9048   24.2715 C   0  0  1  0  0  0  0  0  0  0  0  0
  -25.2506  -25.9107   26.4867 C   0  0  2  0  0  0  0  0  0  0  0  0
  -25.8146  -21.9629   18.9750 C   0  0  0  0  0  0  0  0  0  0  0  0
  -26.1363  -30.3223   24.8844 C   0  0  0  0  0  0  0  0  0  0  0  0
  -25.5431  -13.6136   21.5199 N   0  0  0  0  0  0  0  0  0  0  0  0
  -26.2001  -13.4338   20.3614 N   0  0  0  0  0  0  0  0  0  0  0  0
  -25.6355  -28.4643   21.8575 N   0  0  0  0  0  0  0  0  0  0  0  0
  -29.1392  -15.8268   20.8295 N   0  0  0  0  0  0  0  0  0  0  0  0
  -26.0057  -12.4595   18.2111 N   0  0  0  0  0  0  0  0  0  0  0  0
  -22.0549  -11.4719   20.1636 N   0  0  0  0  0  0  0  0  0  0  0  0
  -28.4044  -17.8644   19.8966 N   0  0  0  0  0  0  0  0  0  0  0  0
  -24.7058  -30.2571   18.8214 N   0  0  0  0  0  0  0  0  0  0  0  0
  -25.3866  -27.9247   25.1899 N   0  0  0  0  0  0  0  0  0  0  0  0
  -25.4813  -24.4620   26.2238 N   0  3  0  0  0  0  0  0  0  0  0  0
  -31.2288  -22.9147   19.6501 N   0  3  1  0  0  0  0  0  0  0  0  0
  -23.2998  -11.2294   18.2531 O   0  0  0  0  0  0  0  0  0  0  0  0
  -26.2690  -30.5503   20.5223 O   0  0  0  0  0  0  0  0  0  0  0  0
  -23.8945  -29.2974   23.1656 O   0  0  0  0  0  0  0  0  0  0  0  0
  -27.1469  -26.4193   25.0786 O   0  0  0  0  0  0  0  0  0  0  0  0
  -30.6663  -17.4394   20.1880 O   0  0  0  0  0  0  0  0  0  0  0  0
  -20.4835  -12.8872   25.3176 O   0  0  0  0  0  0  0  0  0  0  0  0
  -30.3363  -25.5488   19.1270 O   0  0  0  0  0  0  0  0  0  1  0  0
  -15.2764  -13.9807   23.8706 F   0  0  0  0  0  0  0  0  0  0  0  0
  -19.1699  -11.3208   23.4565 F   0  0  0  0  0  0  0  0  0  0  0  0
  -25.8718  -23.3268   19.0235 F   0  0  0  0  0  0  0  0  0  0  0  0
  -25.4892  -21.6661   17.6821 F   0  0  0  0  0  0  0  0  0  0  0  0
  -24.7224  -21.6158   19.7163 F   0  0  0  0  0  0  0  0  0  0  0  0
  1  2  1  0  0  0  0
  1  5  2  0  0  0  0
  2  6  2  0  0  0  0
  3  8  2  0  0  0  0
  3 18  1  0  0  0  0
  4  9  1  0  0  0  0
  4 18  2  0  0  0  0
  5 20  1  0  0  0  0
  6 22  1  0  0  0  0
  7 10  2  0  0  0  0
  7 21  1  0  0  0  0
  8 27  1  0  0  0  0
  9 27  2  0  0  0  0
 10 28  1  0  0  0  0
 11 12  2  0  0  0  0
 11 29  1  0  0  0  0
 12 30  1  0  0  0  0
 13 23  1  0  0  0  0
 13 28  2  0  0  0  0
 14 24  2  0  0  0  0
 14 25  1  0  0  0  0
 15 24  1  0  0  0  0
 15 26  2  0  0  0  0
 16 25  2  0  0  0  0
 16 26  1  0  0  0  0
 17 30  2  0  0  0  0
 17 31  1  0  0  0  0
 18 32  1  0  0  0  0
 19 32  1  0  0  0  0
 19 33  2  0  0  0  0
 19 34  1  0  0  0  0
 20 22  2  0  0  0  0
 20 39  1  0  0  0  0
 21 23  2  0  0  0  0
 21 40  1  0  0  0  0
 22 48  1  0  0  0  0
 23 41  1  0  0  0  0
 24 57  1  0  0  0  0
 25 62  1  0  0  0  0
 26 70  1  0  0  0  0
 27 80  1  0  0  0  0
 28 81  1  0  0  0  0
 29 31  2  0  0  0  0
 29 80  1  0  0  0  0
 30 82  1  0  0  0  0
 31 83  1  0  0  0  0
 32 64  2  0  0  0  0
 33 65  1  0  0  0  0
 33 68  1  0  0  0  0
 34 69  1  0  0  0  0
 34 75  2  0  0  0  0
 35 49  1  0  0  0  0
 35 71  1  0  0  0  0
 35 76  2  0  0  0  0
 36 60  1  0  0  0  0
 36 66  1  0  0  0  0
 36 77  2  0  0  0  0
 37 61  1  0  0  0  0
 37 72  1  0  0  0  0
 37 78  2  0  0  0  0
 38 67  1  0  0  0  0
 38 70  1  0  0  0  0
 38 79  2  0  0  0  0
 39 42  1  0  0  0  0
 40 49  1  0  0  0  0
 41 66  1  0  0  0  0
 42 44  1  0  0  0  0
 43 45  1  0  0  0  0
 43 46  1  0  0  0  0
 44 48  1  0  0  0  0
 45 50  1  0  0  0  0
 46 67  1  0  0  0  0
 47 50  1  0  0  0  0
 47 67  1  0  0  0  0
 48 71  1  0  0  0  0
 49 66  1  0  0  0  0
 50 65  1  0  0  0  0
 51 61  1  0  0  0  0
 52 63  1  0  0  0  0
 53 63  1  0  0  0  0
 54 63  1  0  0  0  0
 55 73  1  0  0  0  0
 56 74  1  0  0  0  0
 57 74  1  0  0  0  0
 58 59  1  0  0  0  0
 58 74  1  0  0  0  0
 59 81  1  0  0  0  0
 60 63  1  0  0  0  0
 60 72  1  0  0  0  0
 61 73  1  0  0  0  0
 62 84  1  0  0  0  0
 62 85  1  0  0  0  0
 62 86  1  0  0  0  0
 64 65  1  0  0  0  0
M  CHG  2  73   1  74   1
M  ISO  4  38 100  59 101  70 100  81 101
M  END
> <Batch ID>
0009

> <Smiles>
CNC(C)C(=O)NC(C(=O)N1Cc2cc([101O:1][101CH2:1]CN(C)Cc3cc([100NH:0][100C:0](=O)N4CCCC(n5nc(-c6ccc(Oc7ccc(F)cc7F)cc6)c(C(N)=O)c5N)C4)cc(C(F)(F)F)c3)ccc2CC1C(=O)NC1CCCc2ccccc21)C(C)(C)C

> <Shape>
0.231

> <Color>
0.078

> <Negative vol penalty>
0.000

$$$$

  -OEChem-04042320373D

 82 91  0     1  0  0  0  0  0999 V2000
  -20.0322   -8.0630   18.5444 C   0  0  0  0  0  0  0  0  0  0  0  0
  -20.6134   -9.1481   17.8961 C   0  0  0  0  0  0  0  0  0  0  0  0
  -24.6500  -30.9587   20.7871 C   0  0  0  0  0  0  0  0  0  0  0  0
  -25.1720  -29.4944   22.6365 C   0  0  0  0  0  0  0  0  0  0  0  0
  -28.8985  -22.2411   19.8389 C   0  0  0  0  0  0  0  0  0  0  0  0
  -19.6846   -8.1615   19.8910 C   0  0  0  0  0  0  0  0  0  0  0  0
  -20.8464  -10.3327   18.5939 C   0  0  0  0  0  0  0  0  0  0  0  0
  -25.5331  -14.1987   17.8232 C   0  0  0  0  0  0  0  0  0  0  0  0
  -27.8531  -21.4206   19.4152 C   0  0  0  0  0  0  0  0  0  0  0  0
  -24.0325  -31.8486   21.6659 C   0  0  0  0  0  0  0  0  0  0  0  0
  -24.5545  -30.3843   23.5154 C   0  0  0  0  0  0  0  0  0  0  0  0
  -25.6549  -15.3970   17.1211 C   0  0  0  0  0  0  0  0  0  0  0  0
  -24.9777  -34.2313   23.8710 C   0  0  0  0  0  0  0  0  0  0  0  0
  -25.2636  -35.5888   23.7262 C   0  0  0  0  0  0  0  0  0  0  0  0
  -25.2132  -16.6239   19.1506 C   0  0  0  0  0  0  0  0  0  0  0  0
  -28.0080  -22.3680   17.1983 C   0  0  0  0  0  0  0  0  0  0  0  0
  -22.9239  -36.0390   23.3260 C   0  0  0  0  0  0  0  0  0  0  0  0
  -25.2197  -29.7816   21.2724 C   0  0  0  0  0  0  0  0  0  0  0  0
  -29.4988  -23.1250   18.9423 C   0  0  0  0  0  0  0  0  0  0  0  0
  -25.2664  -28.1973   19.2735 C   0  0  0  0  0  0  0  0  0  0  0  0
  -19.9222   -9.3446   20.6081 C   0  0  0  0  0  0  0  0  0  0  0  0
  -25.2393  -14.2038   19.1943 C   0  0  0  0  0  0  0  0  0  0  0  0
  -20.5004  -10.4475   19.9510 C   0  0  0  0  0  0  0  0  0  0  0  0
  -25.0908  -15.4244   19.8683 C   0  0  0  0  0  0  0  0  0  0  0  0
  -27.4079  -21.4841   18.0948 C   0  0  0  0  0  0  0  0  0  0  0  0
  -23.9847  -31.5614   23.0301 C   0  0  0  0  0  0  0  0  0  0  0  0
  -25.4921  -16.6098   17.7841 C   0  0  0  0  0  0  0  0  0  0  0  0
  -23.6648  -33.7776   23.7432 C   0  0  0  0  0  0  0  0  0  0  0  0
  -24.2368  -36.4927   23.4538 C   0  0  0  0  0  0  0  0  0  0  0  0
  -29.0535  -23.1885   17.6220 C   0  0  0  0  0  0  0  0  0  0  0  0
  -22.6380  -34.6814   23.4708 C   0  0  0  0  0  0  0  0  0  0  0  0
  -25.8573  -28.8617   20.3650 C   0  0  0  0  0  0  0  0  0  0  0  0
  -26.2834  -27.4456   18.7377 C   0  0  0  0  0  0  0  0  0  0  0  0
  -30.5986  -23.9873   19.3935 C   0  0  0  0  0  0  0  0  0  0  0  0
  -23.9188  -28.2545   18.7875 C   0  0  0  0  0  0  0  0  0  0  0  0
  -22.8489  -13.1079   20.9802 C   0  0  0  0  0  0  0  0  0  0  0  0
  -24.7558  -14.0598   23.4256 C   0  0  0  0  0  0  0  0  0  0  0  0
  -27.2805  -16.0824   24.5126 C   0  0  0  0  0  0  0  0  0  0  0  0
  -19.4860   -9.4196   22.0499 C   0  0  0  0  0  0  0  0  0  0  0  0
  -25.1376  -12.9031   19.9428 C   0  0  0  0  0  0  0  0  0  0  0  0
  -24.7945  -15.4846   21.3438 C   0  0  0  0  0  0  0  0  0  0  0  0
  -20.1096  -10.5840   22.8152 C   0  0  0  0  0  0  0  0  0  0  0  0
  -31.2581  -27.4862   19.6477 C   0  0  0  0  0  0  0  0  0  0  0  0
  -20.0187  -11.8692   21.9986 C   0  0  0  0  0  0  0  0  0  0  0  0
  -29.8653  -28.1031   19.7873 C   0  0  0  0  0  0  0  0  0  0  0  0
  -24.5548  -19.8473   16.4274 C   0  0  0  0  0  0  0  0  0  0  0  0
  -31.3503  -26.1367   20.3553 C   0  0  0  0  0  0  0  0  0  0  0  0
  -25.8406  -20.6665   16.3171 C   0  0  0  0  0  0  0  0  0  0  0  0
  -28.9206  -25.7756   20.0890 C   0  0  0  0  0  0  0  0  0  0  0  0
  -25.6879  -19.7100   18.5380 C   0  0  0  0  0  0  0  0  0  0  0  0
  -20.7916  -11.7411   20.6804 C   0  0  1  0  0  0  0  0  0  0  0  0
  -24.3277  -13.0165   21.2307 C   0  0  1  0  0  0  0  0  0  0  0  0
  -28.7702  -27.1136   19.3465 C   0  0  1  0  0  0  0  0  0  0  0  0
  -24.8424  -18.8839   17.5697 C   0  0  2  0  0  0  0  0  0  1  0  0
  -28.5934  -16.6608   26.5716 C   0  0  0  0  0  0  0  0  0  0  0  0
  -22.3874  -15.6681   24.4810 C   0  0  0  0  0  0  0  0  0  0  0  0
  -23.9844  -16.9339   25.9355 C   0  0  0  0  0  0  0  0  0  0  0  0
  -23.7043  -14.4739   26.2400 C   0  0  0  0  0  0  0  0  0  0  0  0
  -29.8268  -15.2269   23.2703 C   0  0  0  0  0  0  0  0  0  0  0  0
  -24.9335  -15.3391   24.2072 C   0  0  1  0  0  0  0  0  0  0  0  0
  -28.5268  -15.7882   25.3279 C   0  0  2  0  0  0  0  0  0  0  0  0
  -23.7561  -15.6029   25.1877 C   0  0  0  0  0  0  0  0  0  0  0  0
  -27.1494  -28.5586   20.5150 N   0  0  0  0  0  0  0  0  0  0  0  0
  -27.3789  -27.6955   19.5108 N   0  0  0  0  0  0  0  0  0  0  0  0
  -26.3749  -20.6722   17.6757 N   0  0  3  0  0  0  0  0  0  0  0  0
  -30.2797  -25.2452   19.9108 N   0  0  0  0  0  0  0  0  0  0  0  0
  -24.6983  -14.1858   22.0303 N   0  0  0  0  0  0  0  0  0  0  0  0
  -26.3386  -26.6019   17.6853 N   0  0  0  0  0  0  0  0  0  0  0  0
  -22.9851  -27.3423   19.2980 N   0  0  0  0  0  0  0  0  0  0  0  0
  -22.2131  -11.8830   20.9121 N   0  0  0  0  0  0  0  0  0  0  0  0
  -26.2387  -15.2454   24.8522 N   0  0  0  0  0  0  0  0  0  0  0  0
  -29.7495  -16.0371   24.5131 N   0  3  0  0  0  0  0  0  0  0  0  0
  -31.7339  -23.5311   19.2670 O   0  0  0  0  0  0  0  0  0  0  0  0
  -23.5572  -29.0790   17.9140 O   0  0  0  0  0  0  0  0  0  0  0  0
  -22.3235  -14.2084   20.8591 O   0  0  0  0  0  0  0  0  0  0  0  0
  -24.6783  -12.9875   24.0303 O   0  0  0  0  0  0  0  0  0  0  0  0
  -27.2346  -16.9688   23.6625 O   0  0  0  0  0  0  0  0  0  0  0  0
  -23.3824  -32.4296   23.8880 O   0  0  0  0  0  0  0  0  0  0  0  0
  -25.6097  -17.7809   17.1011 O   0  0  0  0  0  0  0  0  0  1  0  0
  -24.5113  -37.7965   23.3163 F   0  0  0  0  0  0  0  0  0  0  0  0
  -29.6242  -24.0335   16.7517 F   0  0  0  0  0  0  0  0  0  0  0  0
  -21.3746  -34.2517   23.3481 F   0  0  0  0  0  0  0  0  0  0  0  0
  1  2  1  0  0  0  0
  1  6  2  0  0  0  0
  2  7  2  0  0  0  0
  3 10  2  0  0  0  0
  3 18  1  0  0  0  0
  4 11  1  0  0  0  0
  4 18  2  0  0  0  0
  5  9  2  0  0  0  0
  5 19  1  0  0  0  0
  6 21  1  0  0  0  0
  7 23  1  0  0  0  0
  8 12  2  0  0  0  0
  8 22  1  0  0  0  0
  9 25  1  0  0  0  0
 10 26  1  0  0  0  0
 11 26  2  0  0  0  0
 12 27  1  0  0  0  0
 13 14  2  0  0  0  0
 13 28  1  0  0  0  0
 14 29  1  0  0  0  0
 15 24  1  0  0  0  0
 15 27  2  0  0  0  0
 16 25  2  0  0  0  0
 16 30  1  0  0  0  0
 17 29  2  0  0  0  0
 17 31  1  0  0  0  0
 18 32  1  0  0  0  0
 19 30  2  0  0  0  0
 19 34  1  0  0  0  0
 20 32  1  0  0  0  0
 20 33  2  0  0  0  0
 20 35  1  0  0  0  0
 21 23  2  0  0  0  0
 21 39  1  0  0  0  0
 22 24  2  0  0  0  0
 22 40  1  0  0  0  0
 23 51  1  0  0  0  0
 24 41  1  0  0  0  0
 25 65  1  0  0  0  0
 26 78  1  0  0  0  0
 27 79  1  0  0  0  0
 28 31  2  0  0  0  0
 28 78  1  0  0  0  0
 29 80  1  0  0  0  0
 30 81  1  0  0  0  0
 31 82  1  0  0  0  0
 32 63  2  0  0  0  0
 33 64  1  0  0  0  0
 33 68  1  0  0  0  0
 34 66  1  0  0  0  0
 34 73  2  0  0  0  0
 35 69  1  0  0  0  0
 35 74  2  0  0  0  0
 36 52  1  0  0  0  0
 36 70  1  0  0  0  0
 36 75  2  0  0  0  0
 37 60  1  0  0  0  0
 37 67  1  0  0  0  0
 37 76  2  0  0  0  0
 38 61  1  0  0  0  0
 38 71  1  0  0  0  0
 38 77  2  0  0  0  0
 39 42  1  0  0  0  0
 40 52  1  0  0  0  0
 41 67  1  0  0  0  0
 42 44  1  0  0  0  0
 43 45  1  0  0  0  0
 43 47  1  0  0  0  0
 44 51  1  0  0  0  0
 45 53  1  0  0  0  0
 46 48  1  0  0  0  0
 46 54  1  0  0  0  0
 47 66  1  0  0  0  0
 48 65  1  0  0  0  0
 49 53  1  0  0  0  0
 49 66  1  0  0  0  0
 50 54  1  0  0  0  0
 50 65  1  0  0  0  0
 51 70  1  0  0  0  0
 52 67  1  0  0  0  0
 53 64  1  0  0  0  0
 54 79  1  0  0  0  0
 55 61  1  0  0  0  0
 56 62  1  0  0  0  0
 57 62  1  0  0  0  0
 58 62  1  0  0  0  0
 59 72  1  0  0  0  0
 60 62  1  0  0  0  0
 60 71  1  0  0  0  0
 61 72  1  0  0  0  0
 63 64  1  0  0  0  0
M  CHG  1  72   1
M  ISO  4  19 100  34 100  54 101  79 101
M  END
> <Batch ID>
0009

> <Smiles>
CNC(C)C(=O)NC(C(=O)N1Cc2cc([101O:1][101CH:1]3CCN(c4cc[100c:0]([100C:0](=O)N5CCCC(n6nc(-c7ccc(Oc8ccc(F)cc8F)cc7)c(C(N)=O)c6N)C5)c(F)c4)C3)ccc2CC1C(=O)NC1CCCc2ccccc21)C(C)(C)C

> <Shape>
0.213

> <Color>
0.056

> <Negative vol penalty>
0.000

$$$$

  -OEChem-04042320373D

 85 94  0     1  0  0  0  0  0999 V2000
  -30.1664  -35.1128   22.6423 C   0  0  0  0  0  0  0  0  0  0  0  0
  -30.4356  -33.7703   22.3960 C   0  0  0  0  0  0  0  0  0  0  0  0
  -22.5250  -10.3087   20.5768 C   0  0  0  0  0  0  0  0  0  0  0  0
  -24.4490   -9.2108   21.5410 C   0  0  0  0  0  0  0  0  0  0  0  0
  -28.8769  -35.5112   22.9923 C   0  0  0  0  0  0  0  0  0  0  0  0
  -29.4156  -32.8252   22.5007 C   0  0  0  0  0  0  0  0  0  0  0  0
  -28.7073  -27.7810   19.1007 C   0  0  0  0  0  0  0  0  0  0  0  0
  -29.3231  -18.5131   22.0986 C   0  0  0  0  0  0  0  0  0  0  0  0
  -29.4678  -19.8708   21.8140 C   0  0  0  0  0  0  0  0  0  0  0  0
  -21.8080   -9.1143   20.6474 C   0  0  0  0  0  0  0  0  0  0  0  0
  -23.7320   -8.0164   21.6117 C   0  0  0  0  0  0  0  0  0  0  0  0
  -29.0303  -26.4439   19.3277 C   0  0  0  0  0  0  0  0  0  0  0  0
  -22.2924   -4.7674   22.3796 C   0  0  0  0  0  0  0  0  0  0  0  0
  -22.3765   -4.0284   23.5596 C   0  0  0  0  0  0  0  0  0  0  0  0
  -26.7755  -26.0332   20.0804 C   0  0  0  0  0  0  0  0  0  0  0  0
  -29.8798  -19.3403   19.4932 C   0  0  0  0  0  0  0  0  0  0  0  0
  -21.4671   -5.8958   24.7938 C   0  0  0  0  0  0  0  0  0  0  0  0
  -23.8455  -10.3569   21.0235 C   0  0  0  0  0  0  0  0  0  0  0  0
  -24.2679  -12.8120   21.5726 C   0  0  0  0  0  0  0  0  0  0  0  0
  -27.8385  -34.5719   23.0920 C   0  0  0  0  0  0  0  0  0  0  0  0
  -27.4168  -28.2576   19.3727 C   0  0  0  0  0  0  0  0  0  0  0  0
  -28.1114  -33.2113   22.8537 C   0  0  0  0  0  0  0  0  0  0  0  0
  -26.4380  -27.3762   19.8536 C   0  0  0  0  0  0  0  0  0  0  0  0
  -29.4568  -17.5689   21.0806 C   0  0  0  0  0  0  0  0  0  0  0  0
  -29.7461  -20.2845   20.5112 C   0  0  0  0  0  0  0  0  0  0  0  0
  -22.4115   -7.9682   21.1649 C   0  0  0  0  0  0  0  0  0  0  0  0
  -28.0652  -25.5704   19.8203 C   0  0  0  0  0  0  0  0  0  0  0  0
  -21.7957   -6.0706   22.4067 C   0  0  0  0  0  0  0  0  0  0  0  0
  -21.9638   -4.5926   24.7667 C   0  0  0  0  0  0  0  0  0  0  0  0
  -29.7351  -17.9825   19.7779 C   0  0  0  0  0  0  0  0  0  0  0  0
  -21.3830   -6.6347   23.6137 C   0  0  0  0  0  0  0  0  0  0  0  0
  -24.5869  -11.5903   20.9503 C   0  0  0  0  0  0  0  0  0  0  0  0
  -25.2769  -13.6637   21.1944 C   0  0  0  0  0  0  0  0  0  0  0  0
  -23.1588  -13.1471   22.4172 C   0  0  0  0  0  0  0  0  0  0  0  0
  -26.1984  -30.4349   21.3420 C   0  0  0  0  0  0  0  0  0  0  0  0
  -23.4479  -29.7594   19.7606 C   0  0  0  0  0  0  0  0  0  0  0  0
  -21.6469  -27.5368   17.8996 C   0  0  0  0  0  0  0  0  0  0  0  0
  -30.8968  -14.3069   20.6280 C   0  0  0  0  0  0  0  0  0  0  0  0
  -26.4713  -35.0438   23.5196 C   0  0  0  0  0  0  0  0  0  0  0  0
  -27.0769  -29.6967   19.0972 C   0  0  0  0  0  0  0  0  0  0  0  0
  -25.0323  -27.8334   20.1425 C   0  0  0  0  0  0  0  0  0  0  0  0
  -25.3633  -34.0307   23.2432 C   0  0  0  0  0  0  0  0  0  0  0  0
  -28.9098  -13.1569   17.7244 C   0  0  0  0  0  0  0  0  0  0  0  0
  -25.7872  -32.6383   23.6996 C   0  0  0  0  0  0  0  0  0  0  0  0
  -27.6115  -12.6833   18.3758 C   0  0  0  0  0  0  0  0  0  0  0  0
  -30.5309  -23.6227   19.1548 C   0  0  0  0  0  0  0  0  0  0  0  0
  -30.0987  -13.0306   18.6721 C   0  0  0  0  0  0  0  0  0  0  0  0
  -30.1797  -22.1568   18.9014 C   0  0  0  0  0  0  0  0  0  0  0  0
  -28.6041  -13.2407   20.6307 C   0  0  0  0  0  0  0  0  0  0  0  0
  -29.7606  -22.6906   21.2274 C   0  0  0  0  0  0  0  0  0  0  0  0
  -27.0260  -32.1597   22.9329 C   0  0  1  0  0  0  0  0  0  0  0  0
  -25.8740  -30.1899   19.8955 C   0  0  1  0  0  0  0  0  0  0  0  0
  -27.3786  -13.3983   19.7181 C   0  0  2  0  0  0  0  0  0  0  0  0
  -29.7250  -23.9730   20.3972 C   0  0  2  0  0  0  0  0  0  1  0  0
  -19.4162  -27.2521   16.7859 C   0  0  0  0  0  0  0  0  0  0  0  0
  -22.1608  -29.2381   22.4775 C   0  0  0  0  0  0  0  0  0  0  0  0
  -20.2922  -28.0691   21.2900 C   0  0  0  0  0  0  0  0  0  0  0  0
  -20.7183  -30.4895   20.8627 C   0  0  0  0  0  0  0  0  0  0  0  0
  -31.6530  -16.1068   22.1341 C   0  0  0  0  0  0  0  0  0  0  0  0
  -22.8864  -27.2650   15.2259 C   0  0  0  0  0  0  0  0  0  0  0  0
  -29.3015  -16.1178   21.3884 C   0  0  0  0  0  0  0  0  0  0  0  0
  -22.3252  -28.7671   19.9443 C   0  0  1  0  0  0  0  0  0  0  0  0
  -20.8574  -27.7062   16.6141 C   0  0  2  0  0  0  0  0  0  0  0  0
  -21.4011  -29.1325   21.1401 C   0  0  0  0  0  0  0  0  0  0  0  0
  -25.7105  -11.6558   20.2311 N   0  0  0  0  0  0  0  0  0  0  0  0
  -26.1064  -12.9290   20.3991 N   0  0  0  0  0  0  0  0  0  0  0  0
  -29.8887  -21.6271   20.2303 N   0  0  3  0  0  0  0  0  0  0  0  0
  -24.7506  -29.2512   19.8629 N   0  0  0  0  0  0  0  0  0  0  0  0
  -29.8340  -13.6815   19.9556 N   0  0  0  0  0  0  0  0  0  0  0  0
  -25.5266  -14.9619   21.4676 N   0  0  0  0  0  0  0  0  0  0  0  0
  -23.2950  -12.9695   23.8008 N   0  0  0  0  0  0  0  0  0  0  0  0
  -26.6578  -31.7109   21.6073 N   0  0  0  0  0  0  0  0  0  0  0  0
  -21.6372  -28.6868   18.6603 N   0  0  0  0  0  0  0  0  0  0  0  0
  -30.5835  -15.4176   21.4261 N   0  0  0  0  0  0  0  0  0  0  0  0
  -21.4745  -26.9070   15.5181 N   0  3  0  0  0  0  0  0  0  0  0  0
  -22.0733  -13.5754   21.9572 O   0  0  0  0  0  0  0  0  0  0  0  0
  -26.0420  -29.5336   22.1574 O   0  0  0  0  0  0  0  0  0  0  0  0
  -23.1790  -30.9405   19.5276 O   0  0  0  0  0  0  0  0  0  0  0  0
  -22.2124  -26.4879   18.2007 O   0  0  0  0  0  0  0  0  0  0  0  0
  -32.0607  -13.9017   20.5136 O   0  0  0  0  0  0  0  0  0  0  0  0
  -21.7120   -6.8026   21.2342 O   0  0  0  0  0  0  0  0  0  0  0  0
  -28.3780  -24.2649   20.0433 O   0  0  0  0  0  0  0  0  0  1  0  0
  -22.0432   -3.8823   25.8996 F   0  0  0  0  0  0  0  0  0  0  0  0
  -29.8665  -17.0826   18.7933 F   0  0  0  0  0  0  0  0  0  0  0  0
  -20.9038   -7.8858   23.6458 F   0  0  0  0  0  0  0  0  0  0  0  0
  1  2  1  0  0  0  0
  1  5  2  0  0  0  0
  2  6  2  0  0  0  0
  3 10  2  0  0  0  0
  3 18  1  0  0  0  0
  4 11  1  0  0  0  0
  4 18  2  0  0  0  0
  5 20  1  0  0  0  0
  6 22  1  0  0  0  0
  7 12  2  0  0  0  0
  7 21  1  0  0  0  0
  8  9  2  0  0  0  0
  8 24  1  0  0  0  0
  9 25  1  0  0  0  0
 10 26  1  0  0  0  0
 11 26  2  0  0  0  0
 12 27  1  0  0  0  0
 13 14  2  0  0  0  0
 13 28  1  0  0  0  0
 14 29  1  0  0  0  0
 15 23  1  0  0  0  0
 15 27  2  0  0  0  0
 16 25  2  0  0  0  0
 16 30  1  0  0  0  0
 17 29  2  0  0  0  0
 17 31  1  0  0  0  0
 18 32  1  0  0  0  0
 19 32  1  0  0  0  0
 19 33  2  0  0  0  0
 19 34  1  0  0  0  0
 20 22  2  0  0  0  0
 20 39  1  0  0  0  0
 21 23  2  0  0  0  0
 21 40  1  0  0  0  0
 22 51  1  0  0  0  0
 23 41  1  0  0  0  0
 24 30  2  0  0  0  0
 24 61  1  0  0  0  0
 25 67  1  0  0  0  0
 26 81  1  0  0  0  0
 27 82  1  0  0  0  0
 28 31  2  0  0  0  0
 28 81  1  0  0  0  0
 29 83  1  0  0  0  0
 30 84  1  0  0  0  0
 31 85  1  0  0  0  0
 32 65  2  0  0  0  0
 33 66  1  0  0  0  0
 33 70  1  0  0  0  0
 34 71  1  0  0  0  0
 34 76  2  0  0  0  0
 35 52  1  0  0  0  0
 35 72  1  0  0  0  0
 35 77  2  0  0  0  0
 36 62  1  0  0  0  0
 36 68  1  0  0  0  0
 36 78  2  0  0  0  0
 37 63  1  0  0  0  0
 37 73  1  0  0  0  0
 37 79  2  0  0  0  0
 38 69  1  0  0  0  0
 38 74  1  0  0  0  0
 38 80  2  0  0  0  0
 39 42  1  0  0  0  0
 40 52  1  0  0  0  0
 41 68  1  0  0  0  0
 42 44  1  0  0  0  0
 43 45  1  0  0  0  0
 43 47  1  0  0  0  0
 44 51  1  0  0  0  0
 45 53  1  0  0  0  0
 46 48  1  0  0  0  0
 46 54  1  0  0  0  0
 47 69  1  0  0  0  0
 48 67  1  0  0  0  0
 49 53  1  0  0  0  0
 49 69  1  0  0  0  0
 50 54  1  0  0  0  0
 50 67  1  0  0  0  0
 51 72  1  0  0  0  0
 52 68  1  0  0  0  0
 53 66  1  0  0  0  0
 54 82  1  0  0  0  0
 55 63  1  0  0  0  0
 56 64  1  0  0  0  0
 57 64  1  0  0  0  0
 58 64  1  0  0  0  0
 59 74  1  0  0  0  0
 60 75  1  0  0  0  0
 61 74  1  0  0  0  0
 62 64  1  0  0  0  0
 62 73  1  0  0  0  0
 63 75  1  0  0  0  0
 65 66  1  0  0  0  0
M  CHG  1  75   1
M  ISO  4  38 100  54 101  74 100  82 101
M  END
> <Batch ID>
0009

> <Smiles>
CNC(C)C(=O)NC(C(=O)N1Cc2cc([101O:1][101CH:1]3CCN(c4ccc(C[100N:0](C)[100C:0](=O)N5CCCC(n6nc(-c7ccc(Oc8ccc(F)cc8F)cc7)c(C(N)=O)c6N)C5)c(F)c4)C3)ccc2CC1C(=O)NC1CCCc2ccccc21)C(C)(C)C

> <Shape>
0.402

> <Color>
0.150

> <Negative vol penalty>
0.000

$$$$

  -OEChem-04042320373D

 81 89  0     1  0  0  0  0  0999 V2000
  -30.3401  -24.5367   18.0300 C   0  0  0  0  0  0  0  0  0  0  0  0
  -29.1464  -24.5249   18.7444 C   0  0  0  0  0  0  0  0  0  0  0  0
  -25.1696  -11.6287   20.4979 C   0  0  0  0  0  0  0  0  0  0  0  0
  -23.5517  -13.1342   21.4742 C   0  0  0  0  0  0  0  0  0  0  0  0
  -31.3555  -25.4234   18.3860 C   0  0  0  0  0  0  0  0  0  0  0  0
  -28.9678  -25.3991   19.8160 C   0  0  0  0  0  0  0  0  0  0  0  0
  -24.4259  -27.6381   19.7604 C   0  0  0  0  0  0  0  0  0  0  0  0
  -24.7422  -10.6141   21.3543 C   0  0  0  0  0  0  0  0  0  0  0  0
  -23.1243  -12.1196   22.3306 C   0  0  0  0  0  0  0  0  0  0  0  0
  -23.3393  -26.8850   20.2031 C   0  0  0  0  0  0  0  0  0  0  0  0
  -22.1620   -8.4370   21.5445 C   0  0  0  0  0  0  0  0  0  0  0  0
  -21.9554   -7.1709   20.9971 C   0  0  0  0  0  0  0  0  0  0  0  0
  -23.4494  -27.9948   22.3421 C   0  0  0  0  0  0  0  0  0  0  0  0
  -23.6217   -6.2546   22.4873 C   0  0  0  0  0  0  0  0  0  0  0  0
  -24.5744  -12.8888   20.5579 C   0  0  0  0  0  0  0  0  0  0  0  0
  -24.9949  -13.9278   18.2663 C   0  0  0  0  0  0  0  0  0  0  0  0
  -31.1855  -26.3156   19.4563 C   0  0  0  0  0  0  0  0  0  0  0  0
  -25.0403  -28.5690   20.6103 C   0  0  0  0  0  0  0  0  0  0  0  0
  -29.9824  -26.2977   20.1874 C   0  0  0  0  0  0  0  0  0  0  0  0
  -24.5420  -28.7603   21.9070 C   0  0  0  0  0  0  0  0  0  0  0  0
  -23.7196  -10.8595   22.2706 C   0  0  0  0  0  0  0  0  0  0  0  0
  -22.8528  -27.0612   21.4951 C   0  0  0  0  0  0  0  0  0  0  0  0
  -23.0986   -8.6120   22.5633 C   0  0  0  0  0  0  0  0  0  0  0  0
  -22.6852   -6.0796   21.4685 C   0  0  0  0  0  0  0  0  0  0  0  0
  -23.8284   -7.5208   23.0347 C   0  0  0  0  0  0  0  0  0  0  0  0
  -25.0158  -13.9375   19.6738 C   0  0  0  0  0  0  0  0  0  0  0  0
  -25.5158  -15.1467   17.9067 C   0  0  0  0  0  0  0  0  0  0  0  0
  -24.5448  -12.9080   17.3644 C   0  0  0  0  0  0  0  0  0  0  0  0
  -27.9489  -28.8964   21.8501 C   0  0  0  0  0  0  0  0  0  0  0  0
  -22.3400  -23.1336   22.1076 C   0  0  0  0  0  0  0  0  0  0  0  0
  -26.7502  -31.7133   22.9228 C   0  0  0  0  0  0  0  0  0  0  0  0
  -24.0089  -33.5577   23.7772 C   0  0  0  0  0  0  0  0  0  0  0  0
  -25.8157  -20.4359   20.6969 C   0  0  0  0  0  0  0  0  0  0  0  0
  -32.3296  -27.2230   19.8336 C   0  0  0  0  0  0  0  0  0  0  0  0
  -26.1946  -29.3926   20.1087 C   0  0  0  0  0  0  0  0  0  0  0  0
  -25.1533  -29.7613   22.8518 C   0  0  0  0  0  0  0  0  0  0  0  0
  -31.9176  -28.3757   20.7456 C   0  0  0  0  0  0  0  0  0  0  0  0
  -28.5409  -18.5238   19.4346 C   0  0  0  0  0  0  0  0  0  0  0  0
  -21.6336  -23.8611   25.6838 C   0  0  0  0  0  0  0  0  0  0  0  0
  -31.0350  -27.8685   21.8816 C   0  0  0  0  0  0  0  0  0  0  0  0
  -27.9446  -17.1307   19.2257 C   0  0  0  0  0  0  0  0  0  0  0  0
  -20.4833  -24.5447   24.9519 C   0  0  0  0  0  0  0  0  0  0  0  0
  -22.2174  -22.9319   24.6316 C   0  0  0  0  0  0  0  0  0  0  0  0
  -27.9648  -19.2043   20.6744 C   0  0  0  0  0  0  0  0  0  0  0  0
  -25.8957  -17.8757   20.5085 C   0  0  0  0  0  0  0  0  0  0  0  0
  -29.7415  -27.2479   21.3403 C   0  0  1  0  0  0  0  0  0  0  0  0
  -27.0675  -29.9444   21.2317 C   0  0  1  0  0  0  0  0  0  0  0  0
  -26.4047  -17.1722   19.2388 C   0  0  2  0  0  0  0  0  0  0  0  0
  -21.0072  -24.7038   23.5233 C   0  0  1  0  0  0  0  0  0  0  0  0
  -23.3482  -35.8140   24.6548 C   0  0  0  0  0  0  0  0  0  0  0  0
  -27.6396  -30.8827   25.7209 C   0  0  0  0  0  0  0  0  0  0  0  0
  -26.1469  -32.6656   26.6489 C   0  0  0  0  0  0  0  0  0  0  0  0
  -28.0538  -33.2855   25.1649 C   0  0  0  0  0  0  0  0  0  0  0  0
  -22.4443  -34.1753   21.3421 C   0  0  0  0  0  0  0  0  0  0  0  0
  -23.1941  -21.8908   22.1094 C   0  0  0  0  0  0  0  0  0  0  0  0
  -21.7354  -26.0322   23.3250 C   0  0  0  0  0  0  0  0  0  1  0  0
  -23.5869  -21.5276   20.6920 C   0  0  0  0  0  0  0  0  0  0  0  0
  -26.0215  -32.1605   24.1669 C   0  0  1  0  0  0  0  0  0  0  0  0
  -23.5924  -34.9713   23.4127 C   0  0  2  0  0  0  0  0  0  0  0  0
  -26.9549  -32.2282   25.4085 C   0  0  0  0  0  0  0  0  0  0  0  0
  -25.5109  -15.0726   20.1743 N   0  0  0  0  0  0  0  0  0  0  0  0
  -25.8060  -15.7874   19.0752 N   0  0  0  0  0  0  0  0  0  0  0  0
  -26.2839  -30.5380   22.3169 N   0  0  0  0  0  0  0  0  0  0  0  0
  -21.9154  -23.5684   23.3530 N   0  0  0  0  0  0  0  0  0  0  0  0
  -26.5008  -19.2119   20.6240 N   0  0  0  0  0  0  0  0  0  0  0  0
  -25.7493  -15.7223   16.7081 N   0  0  0  0  0  0  0  0  0  0  0  0
  -24.0380  -11.7170   17.9019 N   0  0  0  0  0  0  0  0  0  0  0  0
  -28.8062  -28.2834   20.9564 N   0  0  0  0  0  0  0  0  0  0  0  0
  -25.3805  -33.4274   23.8314 N   0  0  0  0  0  0  0  0  0  0  0  0
  -24.4299  -20.3542   20.6357 N   0  0  0  0  0  0  0  0  0  0  0  0
  -22.3399  -34.9503   22.6053 N   0  3  0  0  0  0  0  0  0  0  0  0
  -24.6060  -13.0423   16.1187 O   0  0  0  0  0  0  0  0  0  0  0  0
  -27.8588  -28.6623   23.0496 O   0  0  0  0  0  0  0  0  0  0  0  0
  -22.0651  -23.6975   21.0471 O   0  0  0  0  0  0  0  0  0  0  0  0
  -27.6938  -32.3859   22.5000 O   0  0  0  0  0  0  0  0  0  0  0  0
  -23.1985  -32.6600   23.9959 O   0  0  0  0  0  0  0  0  0  0  0  0
  -26.3961  -21.5217   20.8029 O   0  0  0  0  0  0  0  0  0  0  0  0
  -23.3021   -9.8696   23.1063 O   0  0  0  0  0  0  0  0  0  0  0  0
  -21.7927  -26.3270   21.9299 O   0  0  0  0  0  0  0  0  0  1  0  0
  -22.4855   -4.8635   20.9437 F   0  0  0  0  0  0  0  0  0  0  0  0
  -24.7287   -7.6825   24.0141 F   0  0  0  0  0  0  0  0  0  0  0  0
  1  2  1  0  0  0  0
  1  5  2  0  0  0  0
  2  6  2  0  0  0  0
  3  8  2  0  0  0  0
  3 15  1  0  0  0  0
  4  9  1  0  0  0  0
  4 15  2  0  0  0  0
  5 17  1  0  0  0  0
  6 19  1  0  0  0  0
  7 10  2  0  0  0  0
  7 18  1  0  0  0  0
  8 21  1  0  0  0  0
  9 21  2  0  0  0  0
 10 22  1  0  0  0  0
 11 12  2  0  0  0  0
 11 23  1  0  0  0  0
 12 24  1  0  0  0  0
 13 20  1  0  0  0  0
 13 22  2  0  0  0  0
 14 24  2  0  0  0  0
 14 25  1  0  0  0  0
 15 26  1  0  0  0  0
 16 26  1  0  0  0  0
 16 27  2  0  0  0  0
 16 28  1  0  0  0  0
 17 19  2  0  0  0  0
 17 34  1  0  0  0  0
 18 20  2  0  0  0  0
 18 35  1  0  0  0  0
 19 46  1  0  0  0  0
 20 36  1  0  0  0  0
 21 78  1  0  0  0  0
 22 79  1  0  0  0  0
 23 25  2  0  0  0  0
 23 78  1  0  0  0  0
 24 80  1  0  0  0  0
 25 81  1  0  0  0  0
 26 61  2  0  0  0  0
 27 62  1  0  0  0  0
 27 66  1  0  0  0  0
 28 67  1  0  0  0  0
 28 72  2  0  0  0  0
 29 47  1  0  0  0  0
 29 68  1  0  0  0  0
 29 73  2  0  0  0  0
 30 55  1  0  0  0  0
 30 64  1  0  0  0  0
 30 74  2  0  0  0  0
 31 58  1  0  0  0  0
 31 63  1  0  0  0  0
 31 75  2  0  0  0  0
 32 59  1  0  0  0  0
 32 69  1  0  0  0  0
 32 76  2  0  0  0  0
 33 65  1  0  0  0  0
 33 70  1  0  0  0  0
 33 77  2  0  0  0  0
 34 37  1  0  0  0  0
 35 47  1  0  0  0  0
 36 63  1  0  0  0  0
 37 40  1  0  0  0  0
 38 41  1  0  0  0  0
 38 44  1  0  0  0  0
 39 42  1  0  0  0  0
 39 43  1  0  0  0  0
 40 46  1  0  0  0  0
 41 48  1  0  0  0  0
 42 49  1  0  0  0  0
 43 64  1  0  0  0  0
 44 65  1  0  0  0  0
 45 48  1  0  0  0  0
 45 65  1  0  0  0  0
 46 68  1  0  0  0  0
 47 63  1  0  0  0  0
 48 62  1  0  0  0  0
 49 56  1  0  0  0  0
 49 64  1  0  0  0  0
 50 59  1  0  0  0  0
 51 60  1  0  0  0  0
 52 60  1  0  0  0  0
 53 60  1  0  0  0  0
 54 71  1  0  0  0  0
 55 57  1  0  0  0  0
 56 79  1  0  0  0  0
 57 70  1  0  0  0  0
 58 60  1  0  0  0  0
 58 69  1  0  0  0  0
 59 71  1  0  0  0  0
 61 62  1  0  0  0  0
M  CHG  1  71   1
M  ISO  4  33 100  56 101  70 100  79 101
M  END
> <Batch ID>
0009

> <Smiles>
CNC(C)C(=O)NC(C(=O)N1Cc2cc([101O:1][101CH2:1]C3CCCN3C(=O)CC[100NH:0][100C:0](=O)N3CCCC(n4nc(-c5ccc(Oc6ccc(F)cc6F)cc5)c(C(N)=O)c4N)C3)ccc2CC1C(=O)NC1CCCc2ccccc21)C(C)(C)C

> <Shape>
0.265

> <Color>
0.056

> <Negative vol penalty>
0.000

$$$$

  -OEChem-04042320373D

 82 91  0     1  0  0  0  0  0999 V2000
  -27.5295  -34.3096   25.5324 C   0  0  0  0  0  0  0  0  0  0  0  0
  -28.0544  -33.0424   25.2994 C   0  0  0  0  0  0  0  0  0  0  0  0
  -23.1631   -9.7550   19.9109 C   0  0  0  0  0  0  0  0  0  0  0  0
  -23.9110   -9.7778   22.2081 C   0  0  0  0  0  0  0  0  0  0  0  0
  -26.2139  -34.5953   25.1699 C   0  0  0  0  0  0  0  0  0  0  0  0
  -27.2635  -32.0599   24.7047 C   0  0  0  0  0  0  0  0  0  0  0  0
  -29.1147  -27.6823   20.8427 C   0  0  0  0  0  0  0  0  0  0  0  0
  -30.9460  -19.3519   20.6994 C   0  0  0  0  0  0  0  0  0  0  0  0
  -29.2994  -19.4448   22.4649 C   0  0  0  0  0  0  0  0  0  0  0  0
  -30.8455  -17.9608   20.6788 C   0  0  0  0  0  0  0  0  0  0  0  0
  -29.1988  -18.0537   22.4443 C   0  0  0  0  0  0  0  0  0  0  0  0
  -22.4749   -8.5649   20.1468 C   0  0  0  0  0  0  0  0  0  0  0  0
  -23.2227   -8.5877   22.4440 C   0  0  0  0  0  0  0  0  0  0  0  0
  -29.4318  -26.3378   21.0313 C   0  0  0  0  0  0  0  0  0  0  0  0
  -20.0343   -7.6289   23.0228 C   0  0  0  0  0  0  0  0  0  0  0  0
  -19.2747   -7.5416   24.1894 C   0  0  0  0  0  0  0  0  0  0  0  0
  -27.1952  -25.7235   20.3684 C   0  0  0  0  0  0  0  0  0  0  0  0
  -20.6051   -5.6599   24.9149 C   0  0  0  0  0  0  0  0  0  0  0  0
  -23.8812  -10.3614   20.9416 C   0  0  0  0  0  0  0  0  0  0  0  0
  -24.1007  -12.9011   20.8458 C   0  0  0  0  0  0  0  0  0  0  0  0
  -25.4096  -33.6187   24.5617 C   0  0  0  0  0  0  0  0  0  0  0  0
  -27.8299  -28.0588   20.4253 C   0  0  0  0  0  0  0  0  0  0  0  0
  -25.9355  -32.3325   24.3350 C   0  0  0  0  0  0  0  0  0  0  0  0
  -26.8651  -27.0732   20.1728 C   0  0  0  0  0  0  0  0  0  0  0  0
  -30.1729  -20.0939   21.5925 C   0  0  0  0  0  0  0  0  0  0  0  0
  -29.9719  -17.3117   21.5512 C   0  0  0  0  0  0  0  0  0  0  0  0
  -22.5047   -7.9812   21.4133 C   0  0  0  0  0  0  0  0  0  0  0  0
  -28.4712  -25.3583   20.7969 C   0  0  0  0  0  0  0  0  0  0  0  0
  -21.0793   -6.7316   22.8022 C   0  0  0  0  0  0  0  0  0  0  0  0
  -19.5601   -6.5572   25.1355 C   0  0  0  0  0  0  0  0  0  0  0  0
  -21.3647   -5.7472   23.7483 C   0  0  0  0  0  0  0  0  0  0  0  0
  -24.5928  -11.5904   20.6984 C   0  0  0  0  0  0  0  0  0  0  0  0
  -25.1569  -13.7059   20.4949 C   0  0  0  0  0  0  0  0  0  0  0  0
  -22.8048  -13.3509   21.2628 C   0  0  0  0  0  0  0  0  0  0  0  0
  -25.4880  -29.8073   21.6749 C   0  0  0  0  0  0  0  0  0  0  0  0
  -24.1132  -29.3323   18.7755 C   0  0  0  0  0  0  0  0  0  0  0  0
  -23.8761  -27.4178   15.9603 C   0  0  0  0  0  0  0  0  0  0  0  0
  -30.5651  -15.0135   20.7069 C   0  0  0  0  0  0  0  0  0  0  0  0
  -23.9783  -33.9603   24.2306 C   0  0  0  0  0  0  0  0  0  0  0  0
  -27.5117  -29.5116   20.2008 C   0  0  0  0  0  0  0  0  0  0  0  0
  -25.4773  -27.4237   19.7040 C   0  0  0  0  0  0  0  0  0  0  0  0
  -23.3253  -32.9759   23.2638 C   0  0  0  0  0  0  0  0  0  0  0  0
  -29.5802  -12.5703   18.3116 C   0  0  0  0  0  0  0  0  0  0  0  0
  -23.6115  -31.5395   23.6900 C   0  0  0  0  0  0  0  0  0  0  0  0
  -28.1544  -12.2054   18.7311 C   0  0  0  0  0  0  0  0  0  0  0  0
  -31.1337  -23.6452   21.3375 C   0  0  0  0  0  0  0  0  0  0  0  0
  -30.4775  -12.8322   19.5199 C   0  0  0  0  0  0  0  0  0  0  0  0
  -31.1586  -22.2369   20.7435 C   0  0  0  0  0  0  0  0  0  0  0  0
  -28.5312  -13.4507   20.8977 C   0  0  0  0  0  0  0  0  0  0  0  0
  -29.5018  -22.3327   22.5089 C   0  0  0  0  0  0  0  0  0  0  0  0
  -25.1168  -31.2476   23.6696 C   0  0  1  0  0  0  0  0  0  0  0  0
  -26.0179  -29.8135   20.2689 C   0  0  1  0  0  0  0  0  0  0  0  0
  -27.5735  -13.2413   19.7134 C   0  0  2  0  0  0  0  0  0  0  0  0
  -29.7534  -23.7407   21.9711 C   0  0  2  0  0  0  0  0  0  1  0  0
  -22.6381  -27.2611   13.7831 C   0  0  0  0  0  0  0  0  0  0  0  0
  -21.6540  -28.2914   20.2515 C   0  0  0  0  0  0  0  0  0  0  0  0
  -20.8693  -27.2905   18.0950 C   0  0  0  0  0  0  0  0  0  0  0  0
  -21.1500  -29.7613   18.2920 C   0  0  0  0  0  0  0  0  0  0  0  0
  -26.3719  -27.6695   14.3897 C   0  0  0  0  0  0  0  0  0  0  0  0
  -23.2001  -28.2857   18.1838 C   0  0  1  0  0  0  0  0  0  0  0  0
  -23.8788  -27.7871   14.4878 C   0  0  2  0  0  0  0  0  0  0  0  0
  -21.7439  -28.4004   18.7163 C   0  0  0  0  0  0  0  0  0  0  0  0
  -25.8628  -11.5598   20.2858 N   0  0  0  0  0  0  0  0  0  0  0  0
  -26.1776  -12.8613   20.1709 N   0  0  0  0  0  0  0  0  0  0  0  0
  -30.2736  -21.4691   21.6143 N   0  0  3  0  0  0  0  0  0  0  0  0
  -25.2128  -28.8583   19.5050 N   0  0  0  0  0  0  0  0  0  0  0  0
  -29.8651  -13.8267   20.4035 N   0  0  0  0  0  0  0  0  0  0  0  0
  -25.3029  -15.0467   20.4348 N   0  0  0  0  0  0  0  0  0  0  0  0
  -21.8366  -12.3907   21.5868 N   0  0  0  0  0  0  0  0  0  0  0  0
  -29.8698  -15.8986   21.5302 N   0  0  0  0  0  0  0  0  0  0  0  0
  -25.5711  -31.0303   22.3128 N   0  0  0  0  0  0  0  0  0  0  0  0
  -23.3185  -28.4126   16.7353 N   0  0  0  0  0  0  0  0  0  0  0  0
  -25.0795  -27.2175   13.8132 N   0  3  0  0  0  0  0  0  0  0  0  0
  -22.5089  -14.5681   21.3299 O   0  0  0  0  0  0  0  0  0  0  0  0
  -25.0358  -28.7702   22.1456 O   0  0  0  0  0  0  0  0  0  0  0  0
  -23.8642  -30.5262   18.5909 O   0  0  0  0  0  0  0  0  0  0  0  0
  -24.3205  -26.3517   16.3805 O   0  0  0  0  0  0  0  0  0  0  0  0
  -31.6869  -15.2410   20.2467 O   0  0  0  0  0  0  0  0  0  0  0  0
  -21.8330   -6.8201   21.6439 O   0  0  0  0  0  0  0  0  0  0  0  0
  -28.7779  -24.0453   20.9808 O   0  0  0  0  0  0  0  0  0  1  0  0
  -18.8315   -6.4744   26.2564 F   0  0  0  0  0  0  0  0  0  0  0  0
  -22.3681   -4.8832   23.5424 F   0  0  0  0  0  0  0  0  0  0  0  0
  1  2  1  0  0  0  0
  1  5  2  0  0  0  0
  2  6  2  0  0  0  0
  3 12  2  0  0  0  0
  3 19  1  0  0  0  0
  4 13  1  0  0  0  0
  4 19  2  0  0  0  0
  5 21  1  0  0  0  0
  6 23  1  0  0  0  0
  7 14  2  0  0  0  0
  7 22  1  0  0  0  0
  8 10  2  0  0  0  0
  8 25  1  0  0  0  0
  9 11  1  0  0  0  0
  9 25  2  0  0  0  0
 10 26  1  0  0  0  0
 11 26  2  0  0  0  0
 12 27  1  0  0  0  0
 13 27  2  0  0  0  0
 14 28  1  0  0  0  0
 15 16  2  0  0  0  0
 15 29  1  0  0  0  0
 16 30  1  0  0  0  0
 17 24  1  0  0  0  0
 17 28  2  0  0  0  0
 18 30  2  0  0  0  0
 18 31  1  0  0  0  0
 19 32  1  0  0  0  0
 20 32  1  0  0  0  0
 20 33  2  0  0  0  0
 20 34  1  0  0  0  0
 21 23  2  0  0  0  0
 21 39  1  0  0  0  0
 22 24  2  0  0  0  0
 22 40  1  0  0  0  0
 23 51  1  0  0  0  0
 24 41  1  0  0  0  0
 25 65  1  0  0  0  0
 26 70  1  0  0  0  0
 27 79  1  0  0  0  0
 28 80  1  0  0  0  0
 29 31  2  0  0  0  0
 29 79  1  0  0  0  0
 30 81  1  0  0  0  0
 31 82  1  0  0  0  0
 32 63  2  0  0  0  0
 33 64  1  0  0  0  0
 33 68  1  0  0  0  0
 34 69  1  0  0  0  0
 34 74  2  0  0  0  0
 35 52  1  0  0  0  0
 35 71  1  0  0  0  0
 35 75  2  0  0  0  0
 36 60  1  0  0  0  0
 36 66  1  0  0  0  0
 36 76  2  0  0  0  0
 37 61  1  0  0  0  0
 37 72  1  0  0  0  0
 37 77  2  0  0  0  0
 38 67  1  0  0  0  0
 38 70  1  0  0  0  0
 38 78  2  0  0  0  0
 39 42  1  0  0  0  0
 40 52  1  0  0  0  0
 41 66  1  0  0  0  0
 42 44  1  0  0  0  0
 43 45  1  0  0  0  0
 43 47  1  0  0  0  0
 44 51  1  0  0  0  0
 45 53  1  0  0  0  0
 46 48  1  0  0  0  0
 46 54  1  0  0  0  0
 47 67  1  0  0  0  0
 48 65  1  0  0  0  0
 49 53  1  0  0  0  0
 49 67  1  0  0  0  0
 50 54  1  0  0  0  0
 50 65  1  0  0  0  0
 51 71  1  0  0  0  0
 52 66  1  0  0  0  0
 53 64  1  0  0  0  0
 54 80  1  0  0  0  0
 55 61  1  0  0  0  0
 56 62  1  0  0  0  0
 57 62  1  0  0  0  0
 58 62  1  0  0  0  0
 59 73  1  0  0  0  0
 60 62  1  0  0  0  0
 60 72  1  0  0  0  0
 61 73  1  0  0  0  0
 63 64  1  0  0  0  0
M  CHG  1  73   1
M  ISO  4  38 100  54 101  70 100  80 101
M  END
> <Batch ID>
0009

> <Smiles>
CNC(C)C(=O)NC(C(=O)N1Cc2cc([101O:1][101CH:1]3CCN(c4ccc([100NH:0][100C:0](=O)N5CCCC(n6nc(-c7ccc(Oc8ccc(F)cc8F)cc7)c(C(N)=O)c6N)C5)cc4)C3)ccc2CC1C(=O)NC1CCCc2ccccc21)C(C)(C)C

> <Shape>
0.353

> <Color>
0.208

> <Negative vol penalty>
0.000

$$$$

  -OEChem-04042320373D

 88 97  0     1  0  0  0  0  0999 V2000
  -15.9131  -34.4745   22.4499 C   0  0  0  0  0  0  0  0  0  0  0  0
  -16.5499  -33.9389   21.3350 C   0  0  0  0  0  0  0  0  0  0  0  0
  -23.4339  -10.2015   22.3489 C   0  0  0  0  0  0  0  0  0  0  0  0
  -23.9038   -9.3260   20.1467 C   0  0  0  0  0  0  0  0  0  0  0  0
  -16.6667  -35.0486   23.4729 C   0  0  0  0  0  0  0  0  0  0  0  0
  -17.9406  -33.9782   21.2418 C   0  0  0  0  0  0  0  0  0  0  0  0
  -21.7839  -27.9240   20.5590 C   0  0  0  0  0  0  0  0  0  0  0  0
  -31.2849  -19.5648   21.1407 C   0  0  0  0  0  0  0  0  0  0  0  0
  -30.9188  -18.2584   20.8170 C   0  0  0  0  0  0  0  0  0  0  0  0
  -22.7914   -9.0100   22.6854 C   0  0  0  0  0  0  0  0  0  0  0  0
  -23.2614   -8.1345   20.4832 C   0  0  0  0  0  0  0  0  0  0  0  0
  -22.5741  -26.8269   20.2150 C   0  0  0  0  0  0  0  0  0  0  0  0
  -19.7902   -7.5568   22.1328 C   0  0  0  0  0  0  0  0  0  0  0  0
  -18.5651   -7.6462   22.7935 C   0  0  0  0  0  0  0  0  0  0  0  0
  -24.5545  -28.2120   20.3038 C   0  0  0  0  0  0  0  0  0  0  0  0
  -29.8892  -19.4679   23.1104 C   0  0  0  0  0  0  0  0  0  0  0  0
  -19.4845   -6.4243   24.6640 C   0  0  0  0  0  0  0  0  0  0  0  0
  -23.9901  -10.3595   21.0794 C   0  0  0  0  0  0  0  0  0  0  0  0
  -24.0939  -12.8819   20.7129 C   0  0  0  0  0  0  0  0  0  0  0  0
  -18.0679  -35.0863   23.3967 C   0  0  0  0  0  0  0  0  0  0  0  0
  -22.3785  -29.1672   20.7920 C   0  0  0  0  0  0  0  0  0  0  0  0
  -18.7136  -34.5546   22.2641 C   0  0  0  0  0  0  0  0  0  0  0  0
  -23.7695  -29.3116   20.6608 C   0  0  0  0  0  0  0  0  0  0  0  0
  -30.7701  -20.1696   22.2875 C   0  0  0  0  0  0  0  0  0  0  0  0
  -29.5231  -18.1614   22.7867 C   0  0  0  0  0  0  0  0  0  0  0  0
  -30.0379  -17.5567   21.6399 C   0  0  0  0  0  0  0  0  0  0  0  0
  -22.7052   -7.9765   21.7527 C   0  0  0  0  0  0  0  0  0  0  0  0
  -23.9559  -26.9707   20.0875 C   0  0  0  0  0  0  0  0  0  0  0  0
  -20.8626   -6.9010   22.7377 C   0  0  0  0  0  0  0  0  0  0  0  0
  -18.4122   -7.0800   24.0590 C   0  0  0  0  0  0  0  0  0  0  0  0
  -20.7097   -6.3348   24.0033 C   0  0  0  0  0  0  0  0  0  0  0  0
  -24.6534  -11.5902   20.7310 C   0  0  0  0  0  0  0  0  0  0  0  0
  -25.1259  -13.6976   20.3181 C   0  0  0  0  0  0  0  0  0  0  0  0
  -22.7605  -13.3064   21.0253 C   0  0  0  0  0  0  0  0  0  0  0  0
  -21.9039  -32.7691   21.7286 C   0  0  0  0  0  0  0  0  0  0  0  0
  -24.4358  -31.8011   23.1649 C   0  0  0  0  0  0  0  0  0  0  0  0
  -27.0223  -31.3011   25.3321 C   0  0  0  0  0  0  0  0  0  0  0  0
  -30.4512  -15.2989   20.6018 C   0  0  0  0  0  0  0  0  0  0  0  0
  -18.8374  -35.7596   24.5054 C   0  0  0  0  0  0  0  0  0  0  0  0
  -21.5598  -30.3902   21.1045 C   0  0  0  0  0  0  0  0  0  0  0  0
  -24.3617  -30.6758   20.8870 C   0  0  0  0  0  0  0  0  0  0  0  0
  -20.3269  -35.4254   24.5032 C   0  0  0  0  0  0  0  0  0  0  0  0
  -29.6928  -12.5631   18.4530 C   0  0  0  0  0  0  0  0  0  0  0  0
  -20.8988  -35.5452   23.0942 C   0  0  0  0  0  0  0  0  0  0  0  0
  -28.2681  -12.1723   18.8526 C   0  0  0  0  0  0  0  0  0  0  0  0
  -29.3120  -24.9512   22.8588 C   0  0  0  0  0  0  0  0  0  0  0  0
  -30.5207  -13.0003   19.6601 C   0  0  0  0  0  0  0  0  0  0  0  0
  -27.9148  -24.5832   22.3597 C   0  0  0  0  0  0  0  0  0  0  0  0
  -28.4839  -23.0690   20.5033 C   0  0  0  0  0  0  0  0  0  0  0  0
  -28.4865  -13.6626   20.8820 C   0  0  0  0  0  0  0  0  0  0  0  0
  -30.2285  -23.7920   23.2290 C   0  0  0  0  0  0  0  0  0  0  0  0
  -29.9528  -22.8804   20.8799 C   0  0  0  0  0  0  0  0  0  0  0  0
  -20.2216  -34.5560   22.1379 C   0  0  1  0  0  0  0  0  0  0  0  0
  -22.2623  -31.3544   22.0772 C   0  0  1  0  0  0  0  0  0  0  0  0
  -27.5948  -13.2770   19.6905 C   0  0  2  0  0  0  0  0  0  0  0  0
  -28.5752  -17.4346   23.6849 C   0  0  0  0  0  0  0  0  0  0  0  0
  -28.8705  -32.5243   26.5090 C   0  0  0  0  0  0  0  0  0  0  0  0
  -26.0225  -31.9006   20.5618 C   0  0  0  0  0  0  0  0  0  0  0  0
  -28.1005  -32.2118   21.9231 C   0  0  0  0  0  0  0  0  0  0  0  0
  -26.2815  -33.9161   22.0195 C   0  0  0  0  0  0  0  0  0  0  0  0
  -25.9474  -30.5973   27.9982 C   0  0  0  0  0  0  0  0  0  0  0  0
  -31.1621  -21.5756   22.6343 C   0  0  0  0  0  0  0  0  0  0  0  0
  -26.5165  -24.4339   20.4087 C   0  0  0  0  0  0  0  0  0  0  0  0
  -26.0597  -25.8732   20.2519 C   0  0  0  0  0  0  0  0  0  1  0  0
  -25.9376  -31.6720   23.1321 C   0  0  1  0  0  0  0  0  0  0  0  0
  -27.4336  -32.0341   26.5963 C   0  0  2  0  0  0  0  0  0  0  0  0
  -26.5687  -32.4026   21.9133 C   0  0  0  0  0  0  0  0  0  0  0  0
  -25.9409  -11.5810   20.3756 N   0  0  0  0  0  0  0  0  0  0  0  0
  -26.1990  -12.8769   20.1305 N   0  0  0  0  0  0  0  0  0  0  0  0
  -23.7342  -31.3079   22.0581 N   0  0  0  0  0  0  0  0  0  0  0  0
  -29.8224  -14.0515   20.4033 N   0  0  0  0  0  0  0  0  0  0  0  0
  -27.8930  -24.3500   20.9091 N   0  0  1  0  0  0  0  0  0  0  0  0
  -25.2111  -15.0297   20.1164 N   0  0  0  0  0  0  0  0  0  0  0  0
  -21.8248  -12.3381   21.4140 N   0  0  0  0  0  0  0  0  0  0  0  0
  -29.6781  -16.2306   21.2938 N   0  0  0  0  0  0  0  0  0  0  0  0
  -20.7477  -33.2222   22.3346 N   0  0  0  0  0  0  0  0  0  0  0  0
  -26.4164  -32.1457   24.4262 N   0  0  0  0  0  0  0  0  0  0  0  0
  -30.0715  -22.5798   22.3535 N   0  3  1  0  0  0  0  0  0  0  0  0
  -27.3149  -31.1345   27.7785 N   0  3  0  0  0  0  0  0  0  0  0  0
  -22.4048  -14.5067   20.9457 O   0  0  0  0  0  0  0  0  0  0  0  0
  -22.6235  -33.4045   20.9669 O   0  0  0  0  0  0  0  0  0  0  0  0
  -23.8970  -32.3295   24.1415 O   0  0  0  0  0  0  0  0  0  0  0  0
  -27.2221  -30.1002   25.1635 O   0  0  0  0  0  0  0  0  0  0  0  0
  -31.5808  -15.5330   20.1647 O   0  0  0  0  0  0  0  0  0  0  0  0
  -22.0785   -6.8137   22.0808 O   0  0  0  0  0  0  0  0  0  0  0  0
  -24.7219  -25.8946   19.7559 O   0  0  0  0  0  0  0  0  0  1  0  0
  -17.2360   -7.1674   24.6940 F   0  0  0  0  0  0  0  0  0  0  0  0
  -21.7366   -5.7046   24.5899 F   0  0  0  0  0  0  0  0  0  0  0  0
  1  2  1  0  0  0  0
  1  5  2  0  0  0  0
  2  6  2  0  0  0  0
  3 10  2  0  0  0  0
  3 18  1  0  0  0  0
  4 11  1  0  0  0  0
  4 18  2  0  0  0  0
  5 20  1  0  0  0  0
  6 22  1  0  0  0  0
  7 12  2  0  0  0  0
  7 21  1  0  0  0  0
  8  9  2  0  0  0  0
  8 24  1  0  0  0  0
  9 26  1  0  0  0  0
 10 27  1  0  0  0  0
 11 27  2  0  0  0  0
 12 28  1  0  0  0  0
 13 14  2  0  0  0  0
 13 29  1  0  0  0  0
 14 30  1  0  0  0  0
 15 23  1  0  0  0  0
 15 28  2  0  0  0  0
 16 24  2  0  0  0  0
 16 25  1  0  0  0  0
 17 30  2  0  0  0  0
 17 31  1  0  0  0  0
 18 32  1  0  0  0  0
 19 32  1  0  0  0  0
 19 33  2  0  0  0  0
 19 34  1  0  0  0  0
 20 22  2  0  0  0  0
 20 39  1  0  0  0  0
 21 23  2  0  0  0  0
 21 40  1  0  0  0  0
 22 53  1  0  0  0  0
 23 41  1  0  0  0  0
 24 62  1  0  0  0  0
 25 26  2  0  0  0  0
 25 56  1  0  0  0  0
 26 75  1  0  0  0  0
 27 85  1  0  0  0  0
 28 86  1  0  0  0  0
 29 31  2  0  0  0  0
 29 85  1  0  0  0  0
 30 87  1  0  0  0  0
 31 88  1  0  0  0  0
 32 68  2  0  0  0  0
 33 69  1  0  0  0  0
 33 73  1  0  0  0  0
 34 74  1  0  0  0  0
 34 80  2  0  0  0  0
 35 54  1  0  0  0  0
 35 76  1  0  0  0  0
 35 81  2  0  0  0  0
 36 65  1  0  0  0  0
 36 70  1  0  0  0  0
 36 82  2  0  0  0  0
 37 66  1  0  0  0  0
 37 77  1  0  0  0  0
 37 83  2  0  0  0  0
 38 71  1  0  0  0  0
 38 75  1  0  0  0  0
 38 84  2  0  0  0  0
 39 42  1  0  0  0  0
 40 54  1  0  0  0  0
 41 70  1  0  0  0  0
 42 44  1  0  0  0  0
 43 45  1  0  0  0  0
 43 47  1  0  0  0  0
 44 53  1  0  0  0  0
 45 55  1  0  0  0  0
 46 48  1  0  0  0  0
 46 51  1  0  0  0  0
 47 71  1  0  0  0  0
 48 72  1  0  0  0  0
 49 52  1  0  0  0  0
 49 72  1  0  0  0  0
 50 55  1  0  0  0  0
 50 71  1  0  0  0  0
 51 78  1  0  0  0  0
 52 78  1  0  0  0  0
 53 76  1  0  0  0  0
 54 70  1  0  0  0  0
 55 69  1  0  0  0  0
 57 66  1  0  0  0  0
 58 67  1  0  0  0  0
 59 67  1  0  0  0  0
 60 67  1  0  0  0  0
 61 79  1  0  0  0  0
 62 78  1  0  0  0  0
 63 64  1  0  0  0  0
 63 72  1  0  0  0  0
 64 86  1  0  0  0  0
 65 67  1  0  0  0  0
 65 77  1  0  0  0  0
 66 79  1  0  0  0  0
 68 69  1  0  0  0  0
M  CHG  2  78   1  79   1
M  ISO  4  38 100  64 101  75 100  86 101
M  END
> <Batch ID>
0009

> <Smiles>
CNC(C)C(=O)NC(C(=O)N1Cc2cc([101O:1][101CH2:1]CN3CCCN(Cc4ccc([100NH:0][100C:0](=O)N5CCCC(n6nc(-c7ccc(Oc8ccc(F)cc8F)cc7)c(C(N)=O)c6N)C5)c(C)c4)CC3)ccc2CC1C(=O)NC1CCCc2ccccc21)C(C)(C)C

> <Shape>
0.310

> <Color>
0.176

> <Negative vol penalty>
0.000

$$$$

  -OEChem-04042320373D

 84 93  0     1  0  0  0  0  0999 V2000
  -25.9947  -35.2420   24.7680 C   0  0  0  0  0  0  0  0  0  0  0  0
  -27.0376  -34.4309   24.3323 C   0  0  0  0  0  0  0  0  0  0  0  0
  -23.7602   -9.7205   22.1753 C   0  0  0  0  0  0  0  0  0  0  0  0
  -23.2354  -12.0270   22.6670 C   0  0  0  0  0  0  0  0  0  0  0  0
  -24.7237  -34.7005   24.9558 C   0  0  0  0  0  0  0  0  0  0  0  0
  -26.8103  -33.0775   24.0852 C   0  0  0  0  0  0  0  0  0  0  0  0
  -28.9462  -27.7492   19.8000 C   0  0  0  0  0  0  0  0  0  0  0  0
  -28.9248  -19.1799   22.1399 C   0  0  0  0  0  0  0  0  0  0  0  0
  -31.2596  -18.5764   22.2859 C   0  0  0  0  0  0  0  0  0  0  0  0
  -28.6547  -17.9773   21.4870 C   0  0  0  0  0  0  0  0  0  0  0  0
  -30.9895  -17.3737   21.6330 C   0  0  0  0  0  0  0  0  0  0  0  0
  -23.0228   -9.3155   23.2879 C   0  0  0  0  0  0  0  0  0  0  0  0
  -22.4980  -11.6220   23.7796 C   0  0  0  0  0  0  0  0  0  0  0  0
  -29.4267  -26.4420   19.8643 C   0  0  0  0  0  0  0  0  0  0  0  0
  -19.7688   -8.8729   24.0930 C   0  0  0  0  0  0  0  0  0  0  0  0
  -18.8976   -7.7950   23.9359 C   0  0  0  0  0  0  0  0  0  0  0  0
  -27.1716  -25.6334   20.1473 C   0  0  0  0  0  0  0  0  0  0  0  0
  -20.1052   -6.5715   25.6336 C   0  0  0  0  0  0  0  0  0  0  0  0
  -23.8665  -11.0763   21.8649 C   0  0  0  0  0  0  0  0  0  0  0  0
  -24.1576  -11.6688   19.4008 C   0  0  0  0  0  0  0  0  0  0  0  0
  -24.4785  -33.3419   24.7017 C   0  0  0  0  0  0  0  0  0  0  0  0
  -27.5736  -28.0097   19.9199 C   0  0  0  0  0  0  0  0  0  0  0  0
  -25.5352  -32.5170   24.2711 C   0  0  0  0  0  0  0  0  0  0  0  0
  -26.6760  -26.9446   20.0816 C   0  0  0  0  0  0  0  0  0  0  0  0
  -30.2273  -19.4795   22.5393 C   0  0  0  0  0  0  0  0  0  0  0  0
  -29.6870  -17.0741   21.2336 C   0  0  0  0  0  0  0  0  0  0  0  0
  -22.3917  -10.2662   24.0900 C   0  0  0  0  0  0  0  0  0  0  0  0
  -28.5397  -25.3841   20.0409 C   0  0  0  0  0  0  0  0  0  0  0  0
  -20.8083   -8.8001   25.0203 C   0  0  0  0  0  0  0  0  0  0  0  0
  -19.0657   -6.6443   24.7062 C   0  0  0  0  0  0  0  0  0  0  0  0
  -20.9764   -7.6495   25.7906 C   0  0  0  0  0  0  0  0  0  0  0  0
  -24.6286  -11.4953   20.7160 C   0  0  0  0  0  0  0  0  0  0  0  0
  -25.2621  -12.0722   18.6910 C   0  0  0  0  0  0  0  0  0  0  0  0
  -29.4144  -22.6977   22.0361 C   0  0  0  0  0  0  0  0  0  0  0  0
  -22.8396  -11.4820   18.8682 C   0  0  0  0  0  0  0  0  0  0  0  0
  -25.7696  -29.6340   21.9720 C   0  0  0  0  0  0  0  0  0  0  0  0
  -23.4127  -28.9268   19.8584 C   0  0  0  0  0  0  0  0  0  0  0  0
  -22.2546  -26.8742   17.3901 C   0  0  0  0  0  0  0  0  0  0  0  0
  -30.3218  -14.8468   20.2424 C   0  0  0  0  0  0  0  0  0  0  0  0
  -23.0990  -32.7916   24.9645 C   0  0  0  0  0  0  0  0  0  0  0  0
  -27.0686  -29.4231   19.8216 C   0  0  0  0  0  0  0  0  0  0  0  0
  -25.1911  -27.1692   20.1954 C   0  0  0  0  0  0  0  0  0  0  0  0
  -22.8540  -31.4292   24.3210 C   0  0  0  0  0  0  0  0  0  0  0  0
  -30.0346  -11.6770   18.6464 C   0  0  0  0  0  0  0  0  0  0  0  0
  -24.0313  -30.4955   24.5832 C   0  0  0  0  0  0  0  0  0  0  0  0
  -28.5713  -11.2893   18.8711 C   0  0  0  0  0  0  0  0  0  0  0  0
  -31.2155  -23.2451   20.5728 C   0  0  0  0  0  0  0  0  0  0  0  0
  -30.6185  -12.4106   19.8525 C   0  0  0  0  0  0  0  0  0  0  0  0
  -31.7267  -22.3467   21.6818 C   0  0  0  0  0  0  0  0  0  0  0  0
  -28.3805  -13.1845   20.5320 C   0  0  0  0  0  0  0  0  0  0  0  0
  -25.3224  -31.0496   23.9687 C   0  0  1  0  0  0  0  0  0  0  0  0
  -29.9140  -23.8090   21.1343 C   0  0  1  0  0  0  0  0  0  1  0  0
  -25.7017  -29.6158   20.4711 C   0  0  1  0  0  0  0  0  0  0  0  0
  -27.7297  -12.5004   19.3187 C   0  0  2  0  0  0  0  0  0  0  0  0
  -20.2792  -26.5272   15.8819 C   0  0  0  0  0  0  0  0  0  0  0  0
  -21.8311  -27.7739   22.1992 C   0  0  0  0  0  0  0  0  0  0  0  0
  -20.3517  -26.6205   20.5410 C   0  0  0  0  0  0  0  0  0  0  0  0
  -20.4729  -29.1118   20.5806 C   0  0  0  0  0  0  0  0  0  0  0  0
  -23.9007  -27.2394   14.9578 C   0  0  0  0  0  0  0  0  0  0  0  0
  -30.5179  -20.7741   23.2420 C   0  0  0  0  0  0  0  0  0  0  0  0
  -22.4346  -27.7894   19.6889 C   0  0  1  0  0  0  0  0  0  0  0  0
  -21.6467  -27.1754   16.0321 C   0  0  2  0  0  0  0  0  0  0  0  0
  -21.3007  -27.8195   20.7523 C   0  0  0  0  0  0  0  0  0  0  0  0
  -25.9308  -11.7662   20.8374 N   0  0  0  0  0  0  0  0  0  0  0  0
  -26.2876  -12.1139   19.5892 N   0  0  0  0  0  0  0  0  0  0  0  0
  -30.5164  -21.8973   22.3301 N   0  0  0  0  0  0  0  0  0  0  0  0
  -24.7469  -28.5696   20.0996 N   0  0  0  0  0  0  0  0  0  0  0  0
  -29.7709  -13.5481   20.2166 N   0  0  0  0  0  0  0  0  0  0  0  0
  -25.4465  -12.3918   17.3924 N   0  0  0  0  0  0  0  0  0  0  0  0
  -21.8213  -11.0645   19.7360 N   0  0  0  0  0  0  0  0  0  0  0  0
  -29.4129  -15.8522   20.5706 N   0  0  0  0  0  0  0  0  0  0  0  0
  -25.3418  -30.8188   22.5402 N   0  0  0  0  0  0  0  0  0  0  0  0
  -21.9628  -27.8589   18.3101 N   0  0  0  0  0  0  0  0  0  0  0  0
  -22.5299  -26.6668   14.9449 N   0  3  0  0  0  0  0  0  0  0  0  0
  -28.2625  -22.5716   22.4231 O   0  0  0  0  0  0  0  0  0  0  0  0
  -22.5764  -11.6636   17.6552 O   0  0  0  0  0  0  0  0  0  0  0  0
  -26.1783  -28.6458   22.5704 O   0  0  0  0  0  0  0  0  0  0  0  0
  -23.0091  -30.0893   19.7727 O   0  0  0  0  0  0  0  0  0  0  0  0
  -22.9186  -25.8643   17.6135 O   0  0  0  0  0  0  0  0  0  0  0  0
  -31.5058  -15.0551   19.9653 O   0  0  0  0  0  0  0  0  0  0  0  0
  -21.6719   -9.8714   25.1756 O   0  0  0  0  0  0  0  0  0  0  0  0
  -29.0061  -24.1073   20.1048 O   0  0  0  0  0  0  0  0  0  1  0  0
  -18.2281   -5.6099   24.5564 F   0  0  0  0  0  0  0  0  0  0  0  0
  -21.9725   -7.5742   26.6839 F   0  0  0  0  0  0  0  0  0  0  0  0
  1  2  1  0  0  0  0
  1  5  2  0  0  0  0
  2  6  2  0  0  0  0
  3 12  2  0  0  0  0
  3 19  1  0  0  0  0
  4 13  1  0  0  0  0
  4 19  2  0  0  0  0
  5 21  1  0  0  0  0
  6 23  1  0  0  0  0
  7 14  2  0  0  0  0
  7 22  1  0  0  0  0
  8 10  2  0  0  0  0
  8 25  1  0  0  0  0
  9 11  1  0  0  0  0
  9 25  2  0  0  0  0
 10 26  1  0  0  0  0
 11 26  2  0  0  0  0
 12 27  1  0  0  0  0
 13 27  2  0  0  0  0
 14 28  1  0  0  0  0
 15 16  2  0  0  0  0
 15 29  1  0  0  0  0
 16 30  1  0  0  0  0
 17 24  1  0  0  0  0
 17 28  2  0  0  0  0
 18 30  2  0  0  0  0
 18 31  1  0  0  0  0
 19 32  1  0  0  0  0
 20 32  1  0  0  0  0
 20 33  2  0  0  0  0
 20 35  1  0  0  0  0
 21 23  2  0  0  0  0
 21 40  1  0  0  0  0
 22 24  2  0  0  0  0
 22 41  1  0  0  0  0
 23 51  1  0  0  0  0
 24 42  1  0  0  0  0
 25 60  1  0  0  0  0
 26 71  1  0  0  0  0
 27 81  1  0  0  0  0
 28 82  1  0  0  0  0
 29 31  2  0  0  0  0
 29 81  1  0  0  0  0
 30 83  1  0  0  0  0
 31 84  1  0  0  0  0
 32 64  2  0  0  0  0
 33 65  1  0  0  0  0
 33 69  1  0  0  0  0
 34 52  1  0  0  0  0
 34 66  1  0  0  0  0
 34 75  2  0  0  0  0
 35 70  1  0  0  0  0
 35 76  2  0  0  0  0
 36 53  1  0  0  0  0
 36 72  1  0  0  0  0
 36 77  2  0  0  0  0
 37 61  1  0  0  0  0
 37 67  1  0  0  0  0
 37 78  2  0  0  0  0
 38 62  1  0  0  0  0
 38 73  1  0  0  0  0
 38 79  2  0  0  0  0
 39 68  1  0  0  0  0
 39 71  1  0  0  0  0
 39 80  2  0  0  0  0
 40 43  1  0  0  0  0
 41 53  1  0  0  0  0
 42 67  1  0  0  0  0
 43 45  1  0  0  0  0
 44 46  1  0  0  0  0
 44 48  1  0  0  0  0
 45 51  1  0  0  0  0
 46 54  1  0  0  0  0
 47 49  1  0  0  0  0
 47 52  1  0  0  0  0
 48 68  1  0  0  0  0
 49 66  1  0  0  0  0
 50 54  1  0  0  0  0
 50 68  1  0  0  0  0
 51 72  1  0  0  0  0
 52 82  1  0  0  0  0
 53 67  1  0  0  0  0
 54 65  1  0  0  0  0
 55 62  1  0  0  0  0
 56 63  1  0  0  0  0
 57 63  1  0  0  0  0
 58 63  1  0  0  0  0
 59 74  1  0  0  0  0
 60 66  1  0  0  0  0
 61 63  1  0  0  0  0
 61 73  1  0  0  0  0
 62 74  1  0  0  0  0
 64 65  1  0  0  0  0
M  CHG  1  74   1
M  ISO  4  39 100  52 101  71 100  82 101
M  END
> <Batch ID>
0009

> <Smiles>
CNC(C)C(=O)NC(C(=O)N1Cc2cc([101O:1][101CH:1]3CCN(Cc4ccc([100NH:0][100C:0](=O)N5CCCC(n6nc(-c7ccc(Oc8ccc(F)cc8F)cc7)c(C(N)=O)c6N)C5)cc4)C3=O)ccc2CC1C(=O)NC1CCCc2ccccc21)C(C)(C)C

> <Shape>
0.282

> <Color>
0.075

> <Negative vol penalty>
0.000

$$$$
