
  -OEChem-04042320403D

 83 91  0     1  0  0  0  0  0999 V2000
  -36.5037  -28.6143   19.6852 C   0  0  0  0  0  0  0  0  0  0  0  0
  -36.3883  -27.7988   20.8065 C   0  0  0  0  0  0  0  0  0  0  0  0
  -23.3309   -9.6966   20.0411 C   0  0  0  0  0  0  0  0  0  0  0  0
  -23.8144   -9.9790   22.3913 C   0  0  0  0  0  0  0  0  0  0  0  0
  -35.3600  -29.0177   18.9974 C   0  0  0  0  0  0  0  0  0  0  0  0
  -35.1290  -27.3872   21.2412 C   0  0  0  0  0  0  0  0  0  0  0  0
  -33.6933  -22.0118   23.8005 C   0  0  0  0  0  0  0  0  0  0  0  0
  -31.1134  -14.7641   25.8695 C   0  0  0  0  0  0  0  0  0  0  0  0
  -30.6346  -13.9328   24.8569 C   0  0  0  0  0  0  0  0  0  0  0  0
  -22.6500   -8.5125   20.3235 C   0  0  0  0  0  0  0  0  0  0  0  0
  -23.1335   -8.7948   22.6737 C   0  0  0  0  0  0  0  0  0  0  0  0
  -33.5182  -21.6218   25.1275 C   0  0  0  0  0  0  0  0  0  0  0  0
  -19.9247   -7.7850   22.9971 C   0  0  0  0  0  0  0  0  0  0  0  0
  -19.0409   -7.7889   24.0761 C   0  0  0  0  0  0  0  0  0  0  0  0
  -31.1381  -21.9436   24.9018 C   0  0  0  0  0  0  0  0  0  0  0  0
  -32.1245  -14.9958   23.2798 C   0  0  0  0  0  0  0  0  0  0  0  0
  -20.3271   -6.0397   25.1360 C   0  0  0  0  0  0  0  0  0  0  0  0
  -23.9132  -10.4299   21.0751 C   0  0  0  0  0  0  0  0  0  0  0  0
  -24.0794  -12.9531   20.7386 C   0  0  0  0  0  0  0  0  0  0  0  0
  -34.0866  -28.6029   19.4183 C   0  0  0  0  0  0  0  0  0  0  0  0
  -32.5913  -22.3818   23.0161 C   0  0  0  0  0  0  0  0  0  0  0  0
  -33.9671  -27.7865   20.5592 C   0  0  0  0  0  0  0  0  0  0  0  0
  -31.3016  -22.3356   23.5644 C   0  0  0  0  0  0  0  0  0  0  0  0
  -32.0977  -15.7113   25.5872 C   0  0  0  0  0  0  0  0  0  0  0  0
  -31.1402  -14.0487   23.5620 C   0  0  0  0  0  0  0  0  0  0  0  0
  -22.5513   -8.0616   21.6398 C   0  0  0  0  0  0  0  0  0  0  0  0
  -32.2408  -21.5904   25.6793 C   0  0  0  0  0  0  0  0  0  0  0  0
  -21.0097   -6.9084   22.9874 C   0  0  0  0  0  0  0  0  0  0  0  0
  -19.2421   -6.9163   25.1456 C   0  0  0  0  0  0  0  0  0  0  0  0
  -32.6033  -15.8271   24.2924 C   0  0  0  0  0  0  0  0  0  0  0  0
  -21.2109   -6.0358   24.0568 C   0  0  0  0  0  0  0  0  0  0  0  0
  -24.6171  -11.6529   20.7840 C   0  0  0  0  0  0  0  0  0  0  0  0
  -25.1483  -13.7559   20.4231 C   0  0  0  0  0  0  0  0  0  0  0  0
  -22.7340  -13.3957   20.9617 C   0  0  0  0  0  0  0  0  0  0  0  0
  -31.6909  -25.0408   21.5251 C   0  0  0  0  0  0  0  0  0  0  0  0
  -29.3190  -23.1391   20.3939 C   0  0  0  0  0  0  0  0  0  0  0  0
  -27.4014  -20.3458   20.8027 C   0  0  0  0  0  0  0  0  0  0  0  0
  -31.0465  -13.1905   21.1954 C   0  0  0  0  0  0  0  0  0  0  0  0
  -32.8762  -29.1033   18.6705 C   0  0  0  0  0  0  0  0  0  0  0  0
  -32.7942  -22.7745   21.5784 C   0  0  0  0  0  0  0  0  0  0  0  0
  -30.0837  -22.7037   22.7585 C   0  0  0  0  0  0  0  0  0  0  0  0
  -31.6038  -28.3168   18.9753 C   0  0  0  0  0  0  0  0  0  0  0  0
  -29.3397  -13.6723   18.1080 C   0  0  0  0  0  0  0  0  0  0  0  0
  -31.4504  -28.1116   20.4790 C   0  0  0  0  0  0  0  0  0  0  0  0
  -27.8850  -13.3333   18.4412 C   0  0  0  0  0  0  0  0  0  0  0  0
  -30.3183  -12.7695   18.8571 C   0  0  0  0  0  0  0  0  0  0  0  0
  -28.6695  -12.3766   20.6449 C   0  0  0  0  0  0  0  0  0  0  0  0
  -32.6201  -27.2988   21.0471 C   0  0  1  0  0  0  0  0  0  0  0  0
  -31.6548  -23.6245   21.0246 C   0  0  1  0  0  0  0  0  0  0  0  0
  -27.6482  -13.3022   19.9639 C   0  0  2  0  0  0  0  0  0  0  0  0
  -25.5205  -19.0739   19.7341 C   0  0  0  0  0  0  0  0  0  0  0  0
  -27.3342  -25.2172   21.4195 C   0  0  0  0  0  0  0  0  0  0  0  0
  -25.5267  -23.4993   21.1961 C   0  0  0  0  0  0  0  0  0  0  0  0
  -26.7776  -24.2609   19.1767 C   0  0  0  0  0  0  0  0  0  0  0  0
  -29.0836  -17.9387   20.4354 C   0  0  0  0  0  0  0  0  0  0  0  0
  -32.6113  -16.6021   26.6797 C   0  0  0  0  0  0  0  0  0  0  0  0
  -31.0723  -19.6184   28.4672 C   0  0  0  0  0  0  0  0  0  0  0  0
  -32.1043  -18.5407   28.1710 C   0  0  0  0  0  0  0  0  0  0  0  0
  -30.8333  -20.5744   27.3049 C   0  0  0  0  0  0  0  0  0  1  0  0
  -27.9317  -22.7686   20.8600 C   0  0  1  0  0  0  0  0  0  0  0  0
  -27.0293  -19.2301   19.8430 C   0  0  2  0  0  0  0  0  0  0  0  0
  -26.9155  -23.9314   20.6791 C   0  0  0  0  0  0  0  0  0  0  0  0
  -25.9259  -11.6266   20.5184 N   0  0  0  0  0  0  0  0  0  0  0  0
  -26.2195  -12.9202   20.3030 N   0  0  0  0  0  0  0  0  0  0  0  0
  -30.3344  -23.0869   21.3593 N   0  0  0  0  0  0  0  0  0  0  0  0
  -30.0362  -12.7935   20.2940 N   0  0  0  0  0  0  0  0  0  0  0  0
  -25.2670  -15.0880   20.2393 N   0  0  0  0  0  0  0  0  0  0  0  0
  -21.7595  -12.4389   21.2765 N   0  0  0  0  0  0  0  0  0  0  0  0
  -30.6524  -13.2056   22.5330 N   0  0  0  0  0  0  0  0  0  0  0  0
  -32.4514  -25.8931   20.7475 N   0  0  0  0  0  0  0  0  0  0  0  0
  -27.5745  -21.5466   20.1475 N   0  0  0  0  0  0  0  0  0  0  0  0
  -27.6036  -17.9353   20.3062 N   0  3  0  0  0  0  0  0  0  0  0  0
  -31.6545  -17.6811   27.0510 N   0  3  0  0  0  0  0  0  0  0  0  0
  -22.4025  -14.6019   20.8682 O   0  0  0  0  0  0  0  0  0  0  0  0
  -31.0733  -25.3386   22.5408 O   0  0  0  0  0  0  0  0  0  0  0  0
  -29.4964  -23.4559   19.2150 O   0  0  0  0  0  0  0  0  0  0  0  0
  -27.5223  -20.1705   22.0132 O   0  0  0  0  0  0  0  0  0  0  0  0
  -32.1698  -13.5207   20.8067 O   0  0  0  0  0  0  0  0  0  0  0  0
  -21.8867   -6.9062   21.9157 O   0  0  0  0  0  0  0  0  0  0  0  0
  -32.0672  -21.2107   26.9744 O   0  0  0  0  0  0  0  0  0  1  0  0
  -18.3942   -6.9213   26.1825 F   0  0  0  0  0  0  0  0  0  0  0  0
  -33.5492  -16.7342   24.0115 F   0  0  0  0  0  0  0  0  0  0  0  0
  -22.2521   -5.1922   24.0537 F   0  0  0  0  0  0  0  0  0  0  0  0
  1  2  1  0  0  0  0
  1  5  2  0  0  0  0
  2  6  2  0  0  0  0
  3 10  2  0  0  0  0
  3 18  1  0  0  0  0
  4 11  1  0  0  0  0
  4 18  2  0  0  0  0
  5 20  1  0  0  0  0
  6 22  1  0  0  0  0
  7 12  2  0  0  0  0
  7 21  1  0  0  0  0
  8  9  2  0  0  0  0
  8 24  1  0  0  0  0
  9 25  1  0  0  0  0
 10 26  1  0  0  0  0
 11 26  2  0  0  0  0
 12 27  1  0  0  0  0
 13 14  2  0  0  0  0
 13 28  1  0  0  0  0
 14 29  1  0  0  0  0
 15 23  1  0  0  0  0
 15 27  2  0  0  0  0
 16 25  2  0  0  0  0
 16 30  1  0  0  0  0
 17 29  2  0  0  0  0
 17 31  1  0  0  0  0
 18 32  1  0  0  0  0
 19 32  1  0  0  0  0
 19 33  2  0  0  0  0
 19 34  1  0  0  0  0
 20 22  2  0  0  0  0
 20 39  1  0  0  0  0
 21 23  2  0  0  0  0
 21 40  1  0  0  0  0
 22 48  1  0  0  0  0
 23 41  1  0  0  0  0
 24 30  2  0  0  0  0
 24 56  1  0  0  0  0
 25 69  1  0  0  0  0
 26 79  1  0  0  0  0
 27 80  1  0  0  0  0
 28 31  2  0  0  0  0
 28 79  1  0  0  0  0
 29 81  1  0  0  0  0
 30 82  1  0  0  0  0
 31 83  1  0  0  0  0
 32 63  2  0  0  0  0
 33 64  1  0  0  0  0
 33 67  1  0  0  0  0
 34 68  1  0  0  0  0
 34 74  2  0  0  0  0
 35 49  1  0  0  0  0
 35 70  1  0  0  0  0
 35 75  2  0  0  0  0
 36 60  1  0  0  0  0
 36 65  1  0  0  0  0
 36 76  2  0  0  0  0
 37 61  1  0  0  0  0
 37 71  1  0  0  0  0
 37 77  2  0  0  0  0
 38 66  1  0  0  0  0
 38 69  1  0  0  0  0
 38 78  2  0  0  0  0
 39 42  1  0  0  0  0
 40 49  1  0  0  0  0
 41 65  1  0  0  0  0
 42 44  1  0  0  0  0
 43 45  1  0  0  0  0
 43 46  1  0  0  0  0
 44 48  1  0  0  0  0
 45 50  1  0  0  0  0
 46 66  1  0  0  0  0
 47 50  1  0  0  0  0
 47 66  1  0  0  0  0
 48 70  1  0  0  0  0
 49 65  1  0  0  0  0
 50 64  1  0  0  0  0
 51 61  1  0  0  0  0
 52 62  1  0  0  0  0
 53 62  1  0  0  0  0
 54 62  1  0  0  0  0
 55 72  1  0  0  0  0
 56 73  1  0  0  0  0
 57 58  1  0  0  0  0
 57 59  1  0  0  0  0
 58 73  1  0  0  0  0
 59 80  1  0  0  0  0
 60 62  1  0  0  0  0
 60 71  1  0  0  0  0
 61 72  1  0  0  0  0
 63 64  1  0  0  0  0
M  CHG  2  72   1  73   1
M  ISO  4  38 100  59 101  69 100  80 101
M  END
> <Batch ID>
0010

> <Smiles>
CNC(C)C(=O)NC(C(=O)N1Cc2cc([101O:1][101CH2:1]CCNCc3ccc([100NH:0][100C:0](=O)N4CCCC(n5nc(-c6ccc(Oc7ccc(F)cc7F)cc6)c(C(N)=O)c5N)C4)cc3F)ccc2CC1C(=O)NC1CCCc2ccccc21)C(C)(C)C

> <Shape>
0.205

> <Color>
0.181

> <Negative vol penalty>
0.000

$$$$

  -OEChem-04042320403D

 83 91  0     1  0  0  0  0  0999 V2000
  -26.8598  -19.1699   17.8141 C   0  0  0  0  0  0  0  0  0  0  0  0
  -27.5548  -19.5668   18.9520 C   0  0  0  0  0  0  0  0  0  0  0  0
  -23.0835   -9.9116   19.8944 C   0  0  0  0  0  0  0  0  0  0  0  0
  -23.8455   -9.8531   22.1863 C   0  0  0  0  0  0  0  0  0  0  0  0
  -27.0585  -19.8404   16.6080 C   0  0  0  0  0  0  0  0  0  0  0  0
  -28.4499  -20.6339   18.8841 C   0  0  0  0  0  0  0  0  0  0  0  0
  -27.9549  -23.8356   22.7763 C   0  0  0  0  0  0  0  0  0  0  0  0
  -30.3569  -18.3489   24.2730 C   0  0  0  0  0  0  0  0  0  0  0  0
  -32.5522  -17.5516   23.6549 C   0  0  0  0  0  0  0  0  0  0  0  0
  -29.7810  -17.4873   23.3394 C   0  0  0  0  0  0  0  0  0  0  0  0
  -31.9763  -16.6899   22.7213 C   0  0  0  0  0  0  0  0  0  0  0  0
  -22.3564   -8.7403   20.1062 C   0  0  0  0  0  0  0  0  0  0  0  0
  -23.1184   -8.6818   22.3982 C   0  0  0  0  0  0  0  0  0  0  0  0
  -28.5171  -23.4508   23.9927 C   0  0  0  0  0  0  0  0  0  0  0  0
  -23.4560   -5.3847   21.7304 C   0  0  0  0  0  0  0  0  0  0  0  0
  -24.0868   -4.3450   22.4135 C   0  0  0  0  0  0  0  0  0  0  0  0
  -30.4222  -24.8636   23.5522 C   0  0  0  0  0  0  0  0  0  0  0  0
  -22.3848   -4.4374   24.1257 C   0  0  0  0  0  0  0  0  0  0  0  0
  -23.8281  -10.4680   20.9344 C   0  0  0  0  0  0  0  0  0  0  0  0
  -24.1338  -13.0004   20.8983 C   0  0  0  0  0  0  0  0  0  0  0  0
  -27.9493  -20.9224   16.5275 C   0  0  0  0  0  0  0  0  0  0  0  0
  -28.6284  -24.7304   21.9323 C   0  0  0  0  0  0  0  0  0  0  0  0
  -28.6618  -21.3187   17.6754 C   0  0  0  0  0  0  0  0  0  0  0  0
  -29.8652  -25.2601   22.3268 C   0  0  0  0  0  0  0  0  0  0  0  0
  -31.7424  -18.3811   24.4307 C   0  0  0  0  0  0  0  0  0  0  0  0
  -30.5907  -16.6578   22.5636 C   0  0  0  0  0  0  0  0  0  0  0  0
  -22.3738   -8.1254   21.3581 C   0  0  0  0  0  0  0  0  0  0  0  0
  -29.7523  -23.9626   24.3795 C   0  0  0  0  0  0  0  0  0  0  0  0
  -22.2897   -5.9509   22.2450 C   0  0  0  0  0  0  0  0  0  0  0  0
  -23.5512   -3.8713   23.6111 C   0  0  0  0  0  0  0  0  0  0  0  0
  -21.7541   -5.4772   23.4426 C   0  0  0  0  0  0  0  0  0  0  0  0
  -24.5799  -11.6777   20.7161 C   0  0  0  0  0  0  0  0  0  0  0  0
  -25.2148  -13.7771   20.5596 C   0  0  0  0  0  0  0  0  0  0  0  0
  -22.8566  -13.4838   21.3349 C   0  0  0  0  0  0  0  0  0  0  0  0
  -29.8126  -24.5759   18.9865 C   0  0  0  0  0  0  0  0  0  0  0  0
  -30.3507  -27.7401   19.4559 C   0  0  0  0  0  0  0  0  0  0  0  0
  -30.8365  -30.3008   21.6590 C   0  0  0  0  0  0  0  0  0  0  0  0
  -30.6657  -14.8942   20.7662 C   0  0  0  0  0  0  0  0  0  0  0  0
  -28.1664  -21.5861   15.1907 C   0  0  0  0  0  0  0  0  0  0  0  0
  -27.9961  -25.1561   20.6356 C   0  0  0  0  0  0  0  0  0  0  0  0
  -30.6193  -26.2394   21.4661 C   0  0  0  0  0  0  0  0  0  0  0  0
  -28.8524  -22.9461   15.2901 C   0  0  0  0  0  0  0  0  0  0  0  0
  -29.5835  -12.5449   18.3195 C   0  0  0  0  0  0  0  0  0  0  0  0
  -30.0540  -22.8707   16.2268 C   0  0  0  0  0  0  0  0  0  0  0  0
  -28.1486  -12.2186   18.7398 C   0  0  0  0  0  0  0  0  0  0  0  0
  -30.4964  -12.7466   19.5276 C   0  0  0  0  0  0  0  0  0  0  0  0
  -28.5807  -13.3974   20.9332 C   0  0  0  0  0  0  0  0  0  0  0  0
  -29.6228  -22.4874   17.6475 C   0  0  1  0  0  0  0  0  0  0  0  0
  -29.0084  -25.6759   19.6195 C   0  0  1  0  0  0  0  0  0  0  0  0
  -27.6093  -13.2496   19.7508 C   0  0  2  0  0  0  0  0  0  0  0  0
  -31.2881  -32.7678   21.7435 C   0  0  0  0  0  0  0  0  0  0  0  0
  -33.2598  -27.2315   18.6886 C   0  0  0  0  0  0  0  0  0  0  0  0
  -33.8393  -29.4516   19.6903 C   0  0  0  0  0  0  0  0  0  0  0  0
  -32.2836  -29.3313   17.7440 C   0  0  0  0  0  0  0  0  0  0  0  0
  -28.3174  -30.8295   23.1195 C   0  0  0  0  0  0  0  0  0  0  0  0
  -33.4109  -20.9884   23.9262 C   0  0  0  0  0  0  0  0  0  0  0  0
  -32.3617  -19.3080   25.4349 C   0  0  0  0  0  0  0  0  0  0  0  0
  -31.1551  -21.7727   26.8821 C   0  0  0  0  0  0  0  0  0  0  0  0
  -32.4692  -21.6998   26.1192 C   0  0  0  0  0  0  0  0  0  0  0  0
  -29.9878  -22.2818   26.0454 C   0  0  0  0  0  0  0  0  0  1  0  0
  -31.4879  -28.5596   20.0164 C   0  0  1  0  0  0  0  0  0  0  0  0
  -30.2200  -31.6853   21.7461 C   0  0  2  0  0  0  0  0  0  0  0  0
  -32.7046  -28.6236   19.0504 C   0  0  0  0  0  0  0  0  0  0  0  0
  -25.8456  -11.6139   20.2941 N   0  0  0  0  0  0  0  0  0  0  0  0
  -26.2040  -12.9063   20.2084 N   0  0  0  0  0  0  0  0  0  0  0  0
  -29.9626  -26.6201   20.2046 N   0  0  0  0  0  0  0  0  0  0  0  0
  -29.9237  -13.7396   20.4391 N   0  0  0  0  0  0  0  0  0  0  0  0
  -25.4062  -15.1131   20.5309 N   0  0  0  0  0  0  0  0  0  0  0  0
  -21.8580  -12.5496   21.6422 N   0  0  0  0  0  0  0  0  0  0  0  0
  -30.0061  -15.7821   21.6153 N   0  0  0  0  0  0  0  0  0  0  0  0
  -29.0510  -23.6297   18.3277 N   0  0  0  0  0  0  0  0  0  0  0  0
  -30.9245  -29.8621   20.3548 N   0  0  0  0  0  0  0  0  0  0  0  0
  -29.4194  -31.8180   22.9961 N   0  3  0  0  0  0  0  0  0  0  0  0
  -32.3632  -20.7499   24.9870 N   0  3  1  0  0  0  0  0  0  0  0  0
  -22.6028  -14.7083   21.4333 O   0  0  0  0  0  0  0  0  0  0  0  0
  -31.0339  -24.5856   19.0871 O   0  0  0  0  0  0  0  0  0  0  0  0
  -29.8214  -28.0853   18.3965 O   0  0  0  0  0  0  0  0  0  0  0  0
  -31.2067  -29.6730   22.6486 O   0  0  0  0  0  0  0  0  0  0  0  0
  -31.7919  -15.0945   20.3038 O   0  0  0  0  0  0  0  0  0  0  0  0
  -21.6642   -6.9825   21.5652 O   0  0  0  0  0  0  0  0  0  0  0  0
  -30.3035  -23.5882   25.5660 O   0  0  0  0  0  0  0  0  0  1  0  0
  -24.1562   -2.8717   24.2662 F   0  0  0  0  0  0  0  0  0  0  0  0
  -20.6331   -6.0163   23.9413 F   0  0  0  0  0  0  0  0  0  0  0  0
  1  2  1  0  0  0  0
  1  5  2  0  0  0  0
  2  6  2  0  0  0  0
  3 12  2  0  0  0  0
  3 19  1  0  0  0  0
  4 13  1  0  0  0  0
  4 19  2  0  0  0  0
  5 21  1  0  0  0  0
  6 23  1  0  0  0  0
  7 14  2  0  0  0  0
  7 22  1  0  0  0  0
  8 10  2  0  0  0  0
  8 25  1  0  0  0  0
  9 11  1  0  0  0  0
  9 25  2  0  0  0  0
 10 26  1  0  0  0  0
 11 26  2  0  0  0  0
 12 27  1  0  0  0  0
 13 27  2  0  0  0  0
 14 28  1  0  0  0  0
 15 16  2  0  0  0  0
 15 29  1  0  0  0  0
 16 30  1  0  0  0  0
 17 24  1  0  0  0  0
 17 28  2  0  0  0  0
 18 30  2  0  0  0  0
 18 31  1  0  0  0  0
 19 32  1  0  0  0  0
 20 32  1  0  0  0  0
 20 33  2  0  0  0  0
 20 34  1  0  0  0  0
 21 23  2  0  0  0  0
 21 39  1  0  0  0  0
 22 24  2  0  0  0  0
 22 40  1  0  0  0  0
 23 48  1  0  0  0  0
 24 41  1  0  0  0  0
 25 57  1  0  0  0  0
 26 70  1  0  0  0  0
 27 80  1  0  0  0  0
 28 81  1  0  0  0  0
 29 31  2  0  0  0  0
 29 80  1  0  0  0  0
 30 82  1  0  0  0  0
 31 83  1  0  0  0  0
 32 64  2  0  0  0  0
 33 65  1  0  0  0  0
 33 68  1  0  0  0  0
 34 69  1  0  0  0  0
 34 75  2  0  0  0  0
 35 49  1  0  0  0  0
 35 71  1  0  0  0  0
 35 76  2  0  0  0  0
 36 61  1  0  0  0  0
 36 66  1  0  0  0  0
 36 77  2  0  0  0  0
 37 62  1  0  0  0  0
 37 72  1  0  0  0  0
 37 78  2  0  0  0  0
 38 67  1  0  0  0  0
 38 70  1  0  0  0  0
 38 79  2  0  0  0  0
 39 42  1  0  0  0  0
 40 49  1  0  0  0  0
 41 66  1  0  0  0  0
 42 44  1  0  0  0  0
 43 45  1  0  0  0  0
 43 46  1  0  0  0  0
 44 48  1  0  0  0  0
 45 50  1  0  0  0  0
 46 67  1  0  0  0  0
 47 50  1  0  0  0  0
 47 67  1  0  0  0  0
 48 71  1  0  0  0  0
 49 66  1  0  0  0  0
 50 65  1  0  0  0  0
 51 62  1  0  0  0  0
 52 63  1  0  0  0  0
 53 63  1  0  0  0  0
 54 63  1  0  0  0  0
 55 73  1  0  0  0  0
 56 74  1  0  0  0  0
 57 74  1  0  0  0  0
 58 59  1  0  0  0  0
 58 60  1  0  0  0  0
 59 74  1  0  0  0  0
 60 81  1  0  0  0  0
 61 63  1  0  0  0  0
 61 72  1  0  0  0  0
 62 73  1  0  0  0  0
 64 65  1  0  0  0  0
M  CHG  2  73   1  74   1
M  ISO  4  38 100  60 101  70 100  81 101
M  END
> <Batch ID>
0010

> <Smiles>
CNC(C)C(=O)NC(C(=O)N1Cc2cc([101O:1][101CH2:1]CCN(C)Cc3ccc([100NH:0][100C:0](=O)N4CCCC(n5nc(-c6ccc(Oc7ccc(F)cc7F)cc6)c(C(N)=O)c5N)C4)cc3)ccc2CC1C(=O)NC1CCCc2ccccc21)C(C)(C)C

> <Shape>
0.252

> <Color>
0.203

> <Negative vol penalty>
0.000

$$$$

  -OEChem-04042320403D

 83 91  0     1  0  0  0  0  0999 V2000
  -16.9476  -27.3896   22.9572 C   0  0  0  0  0  0  0  0  0  0  0  0
  -17.9602  -27.0698   22.0584 C   0  0  0  0  0  0  0  0  0  0  0  0
  -23.8827  -13.3696   20.8324 C   0  0  0  0  0  0  0  0  0  0  0  0
  -26.2948  -13.3575   20.6958 C   0  0  0  0  0  0  0  0  0  0  0  0
  -31.6824  -22.2753   18.9021 C   0  0  0  0  0  0  0  0  0  0  0  0
  -17.1354  -28.4174   23.8804 C   0  0  0  0  0  0  0  0  0  0  0  0
  -19.1609  -27.7786   22.0816 C   0  0  0  0  0  0  0  0  0  0  0  0
  -24.7565  -25.5805   20.9137 C   0  0  0  0  0  0  0  0  0  0  0  0
  -23.8557  -12.0213   20.4759 C   0  0  0  0  0  0  0  0  0  0  0  0
  -26.2679  -12.0093   20.3394 C   0  0  0  0  0  0  0  0  0  0  0  0
  -25.5575  -25.6124   19.7731 C   0  0  0  0  0  0  0  0  0  0  0  0
  -24.3747   -9.0368   21.9780 C   0  0  0  0  0  0  0  0  0  0  0  0
  -31.6457  -20.8812   18.9304 C   0  0  0  0  0  0  0  0  0  0  0  0
  -23.5384   -8.1904   22.7060 C   0  0  0  0  0  0  0  0  0  0  0  0
  -29.3251  -22.3268   18.3752 C   0  0  0  0  0  0  0  0  0  0  0  0
  -26.6988  -27.5545   20.6362 C   0  0  0  0  0  0  0  0  0  0  0  0
  -22.3348   -7.6410   20.6845 C   0  0  0  0  0  0  0  0  0  0  0  0
  -25.1022  -14.0377   20.9423 C   0  0  0  0  0  0  0  0  0  0  0  0
  -30.5221  -22.9981   18.6246 C   0  0  0  0  0  0  0  0  0  0  0  0
  -25.2071  -15.9653   22.6099 C   0  0  0  0  0  0  0  0  0  0  0  0
  -18.3426  -29.1327   23.9212 C   0  0  0  0  0  0  0  0  0  0  0  0
  -24.9135  -26.5436   21.9209 C   0  0  0  0  0  0  0  0  0  0  0  0
  -19.3645  -28.8178   23.0052 C   0  0  0  0  0  0  0  0  0  0  0  0
  -25.9002  -27.5312   21.7898 C   0  0  0  0  0  0  0  0  0  0  0  0
  -29.2884  -20.9327   18.4033 C   0  0  0  0  0  0  0  0  0  0  0  0
  -25.0483  -11.3411   20.2294 C   0  0  0  0  0  0  0  0  0  0  0  0
  -26.5269  -26.6012   19.6328 C   0  0  0  0  0  0  0  0  0  0  0  0
  -24.1909   -9.1854   20.6033 C   0  0  0  0  0  0  0  0  0  0  0  0
  -22.5185   -7.4925   22.0592 C   0  0  0  0  0  0  0  0  0  0  0  0
  -30.4487  -20.2099   18.6809 C   0  0  0  0  0  0  0  0  0  0  0  0
  -23.1710   -8.4874   19.9565 C   0  0  0  0  0  0  0  0  0  0  0  0
  -25.1306  -15.4306   21.3099 C   0  0  0  0  0  0  0  0  0  0  0  0
  -25.2041  -17.3259   22.4223 C   0  0  0  0  0  0  0  0  0  0  0  0
  -30.5615  -24.4829   18.5949 C   0  0  0  0  0  0  0  0  0  0  0  0
  -25.2749  -15.2923   23.8741 C   0  0  0  0  0  0  0  0  0  0  0  0
  -23.0550  -28.7917   23.1842 C   0  0  0  0  0  0  0  0  0  0  0  0
  -25.5395  -29.1411   25.2403 C   0  0  0  0  0  0  0  0  0  0  0  0
  -28.8752  -28.7510   25.8468 C   0  0  0  0  0  0  0  0  0  0  0  0
  -26.8317  -20.8207   17.8569 C   0  0  0  0  0  0  0  0  0  0  0  0
  -18.4814  -30.2668   24.9056 C   0  0  0  0  0  0  0  0  0  0  0  0
  -24.0595  -26.4795   23.1574 C   0  0  0  0  0  0  0  0  0  0  0  0
  -26.1225  -28.5760   22.8516 C   0  0  0  0  0  0  0  0  0  0  0  0
  -19.9242  -30.7205   25.1127 C   0  0  0  0  0  0  0  0  0  0  0  0
  -23.6244  -20.6854   19.3969 C   0  0  0  0  0  0  0  0  0  0  0  0
  -20.6313  -30.8806   23.7707 C   0  0  0  0  0  0  0  0  0  0  0  0
  -23.6558  -19.3742   20.1854 C   0  0  0  0  0  0  0  0  0  0  0  0
  -24.3689  -20.5663   18.0683 C   0  0  0  0  0  0  0  0  0  0  0  0
  -25.7757  -18.7505   18.9589 C   0  0  0  0  0  0  0  0  0  0  0  0
  -20.6904  -29.5472   23.0156 C   0  0  1  0  0  0  0  0  0  0  0  0
  -23.9592  -27.8170   23.8843 C   0  0  1  0  0  0  0  0  0  0  0  0
  -25.0941  -18.8403   20.3341 C   0  0  2  0  0  0  0  0  0  0  0  0
  -30.6196  -29.1639   27.6029 C   0  0  0  0  0  0  0  0  0  0  0  0
  -25.5410  -32.1102   24.5372 C   0  0  0  0  0  0  0  0  0  0  0  0
  -27.8279  -32.2759   25.5428 C   0  0  0  0  0  0  0  0  0  0  0  0
  -25.8876  -31.6126   26.9634 C   0  0  0  0  0  0  0  0  0  0  0  0
  -29.5012  -25.8669   26.0683 C   0  0  0  0  0  0  0  0  0  0  0  0
  -29.5428  -26.5317   17.6353 C   0  0  0  0  0  0  0  0  0  0  0  0
  -28.6271  -27.1630   18.6687 C   0  0  0  0  0  0  0  0  0  1  0  0
  -26.7974  -29.9754   25.2652 C   0  0  1  0  0  0  0  0  0  0  0  0
  -29.6219  -28.1678   27.0328 C   0  0  2  0  0  0  0  0  0  0  0  0
  -26.5082  -31.4751   25.5561 C   0  0  0  0  0  0  0  0  0  0  0  0
  -25.0824  -16.3745   20.3661 N   0  0  0  0  0  0  0  0  0  0  0  0
  -25.1286  -17.5161   21.0738 N   0  0  0  0  0  0  0  0  0  0  0  0
  -25.2582  -28.4750   24.0391 N   0  0  0  0  0  0  0  0  0  0  0  0
  -25.7251  -20.0588   18.2877 N   0  0  0  0  0  0  0  0  0  0  0  0
  -25.2586  -18.3663   23.2808 N   0  0  0  0  0  0  0  0  0  0  0  0
  -25.2678  -13.8908   23.8861 N   0  0  0  0  0  0  0  0  0  0  0  0
  -28.0714  -20.2529   18.1489 N   0  0  0  0  0  0  0  0  0  0  0  0
  -29.6161  -25.1027   17.7875 N   0  0  0  0  0  0  0  0  0  0  0  0
  -21.7294  -28.7018   23.5635 N   0  0  0  0  0  0  0  0  0  0  0  0
  -27.6891  -29.3407   26.2298 N   0  0  0  0  0  0  0  0  0  0  0  0
  -30.3633  -26.9408   26.6256 N   0  3  0  0  0  0  0  0  0  0  0  0
  -31.4161  -25.0736   19.2501 O   0  0  0  0  0  0  0  0  0  0  0  0
  -25.3232  -15.9153   24.9617 O   0  0  0  0  0  0  0  0  0  0  0  0
  -23.5256  -29.5689   22.3618 O   0  0  0  0  0  0  0  0  0  0  0  0
  -24.8363  -29.0770   26.2518 O   0  0  0  0  0  0  0  0  0  0  0  0
  -29.3032  -28.6928   24.6962 O   0  0  0  0  0  0  0  0  0  0  0  0
  -26.6905  -21.9105   17.2962 O   0  0  0  0  0  0  0  0  0  0  0  0
  -25.0224  -10.0254   19.8818 O   0  0  0  0  0  0  0  0  0  0  0  0
  -27.3097  -26.6350   18.5202 O   0  0  0  0  0  0  0  0  0  1  0  0
  -21.7166   -6.6785   22.7582 F   0  0  0  0  0  0  0  0  0  0  0  0
  -30.4252  -18.8700   18.7109 F   0  0  0  0  0  0  0  0  0  0  0  0
  -22.9904   -8.6251   18.6358 F   0  0  0  0  0  0  0  0  0  0  0  0
  1  2  1  0  0  0  0
  1  6  2  0  0  0  0
  2  7  2  0  0  0  0
  3  9  2  0  0  0  0
  3 18  1  0  0  0  0
  4 10  1  0  0  0  0
  4 18  2  0  0  0  0
  5 13  2  0  0  0  0
  5 19  1  0  0  0  0
  6 21  1  0  0  0  0
  7 23  1  0  0  0  0
  8 11  2  0  0  0  0
  8 22  1  0  0  0  0
  9 26  1  0  0  0  0
 10 26  2  0  0  0  0
 11 27  1  0  0  0  0
 12 14  2  0  0  0  0
 12 28  1  0  0  0  0
 13 30  1  0  0  0  0
 14 29  1  0  0  0  0
 15 19  2  0  0  0  0
 15 25  1  0  0  0  0
 16 24  1  0  0  0  0
 16 27  2  0  0  0  0
 17 29  2  0  0  0  0
 17 31  1  0  0  0  0
 18 32  1  0  0  0  0
 19 34  1  0  0  0  0
 20 32  1  0  0  0  0
 20 33  2  0  0  0  0
 20 35  1  0  0  0  0
 21 23  2  0  0  0  0
 21 40  1  0  0  0  0
 22 24  2  0  0  0  0
 22 41  1  0  0  0  0
 23 49  1  0  0  0  0
 24 42  1  0  0  0  0
 25 30  2  0  0  0  0
 25 68  1  0  0  0  0
 26 79  1  0  0  0  0
 27 80  1  0  0  0  0
 28 31  2  0  0  0  0
 28 79  1  0  0  0  0
 29 81  1  0  0  0  0
 30 82  1  0  0  0  0
 31 83  1  0  0  0  0
 32 62  2  0  0  0  0
 33 63  1  0  0  0  0
 33 66  1  0  0  0  0
 34 69  1  0  0  0  0
 34 73  2  0  0  0  0
 35 67  1  0  0  0  0
 35 74  2  0  0  0  0
 36 50  1  0  0  0  0
 36 70  1  0  0  0  0
 36 75  2  0  0  0  0
 37 59  1  0  0  0  0
 37 64  1  0  0  0  0
 37 76  2  0  0  0  0
 38 60  1  0  0  0  0
 38 71  1  0  0  0  0
 38 77  2  0  0  0  0
 39 65  1  0  0  0  0
 39 68  1  0  0  0  0
 39 78  2  0  0  0  0
 40 43  1  0  0  0  0
 41 50  1  0  0  0  0
 42 64  1  0  0  0  0
 43 45  1  0  0  0  0
 44 46  1  0  0  0  0
 44 47  1  0  0  0  0
 45 49  1  0  0  0  0
 46 51  1  0  0  0  0
 47 65  1  0  0  0  0
 48 51  1  0  0  0  0
 48 65  1  0  0  0  0
 49 70  1  0  0  0  0
 50 64  1  0  0  0  0
 51 63  1  0  0  0  0
 52 60  1  0  0  0  0
 53 61  1  0  0  0  0
 54 61  1  0  0  0  0
 55 61  1  0  0  0  0
 56 72  1  0  0  0  0
 57 58  1  0  0  0  0
 57 69  1  0  0  0  0
 58 80  1  0  0  0  0
 59 61  1  0  0  0  0
 59 71  1  0  0  0  0
 60 72  1  0  0  0  0
 62 63  1  0  0  0  0
M  CHG  1  72   1
M  ISO  4  39 100  58 101  68 100  80 101
M  END
> <Batch ID>
0010

> <Smiles>
CNC(C)C(=O)NC(C(=O)N1Cc2cc([101O:1][101CH2:1]CNC(=O)c3ccc(F)c([100NH:0][100C:0](=O)N4CCCC(n5nc(-c6ccc(Oc7ccc(F)cc7F)cc6)c(C(N)=O)c5N)C4)c3)ccc2CC1C(=O)NC1CCCc2ccccc21)C(C)(C)C

> <Shape>
0.258

> <Color>
0.072

> <Negative vol penalty>
0.000

$$$$

  -OEChem-04042320403D

 82 90  0     1  0  0  0  0  0999 V2000
  -31.1363  -34.0120   22.4405 C   0  0  0  0  0  0  0  0  0  0  0  0
  -31.5885  -32.8659   23.0868 C   0  0  0  0  0  0  0  0  0  0  0  0
  -23.0306   -9.9835   19.8963 C   0  0  0  0  0  0  0  0  0  0  0  0
  -23.8546   -9.8454   22.1633 C   0  0  0  0  0  0  0  0  0  0  0  0
  -29.8958  -34.0085   21.8041 C   0  0  0  0  0  0  0  0  0  0  0  0
  -30.7998  -31.7160   23.0979 C   0  0  0  0  0  0  0  0  0  0  0  0
  -32.7491  -25.9130   22.9227 C   0  0  0  0  0  0  0  0  0  0  0  0
  -32.8735  -17.1930   23.5433 C   0  0  0  0  0  0  0  0  0  0  0  0
  -32.2385  -16.3744   22.6095 C   0  0  0  0  0  0  0  0  0  0  0  0
  -22.2681   -8.8341   20.1035 C   0  0  0  0  0  0  0  0  0  0  0  0
  -23.0919   -8.6960   22.3705 C   0  0  0  0  0  0  0  0  0  0  0  0
  -32.9414  -24.9576   23.9197 C   0  0  0  0  0  0  0  0  0  0  0  0
  -19.8647   -7.9339   23.0220 C   0  0  0  0  0  0  0  0  0  0  0  0
  -19.1402   -7.8441   24.2105 C   0  0  0  0  0  0  0  0  0  0  0  0
  -30.7558  -24.0462   23.4596 C   0  0  0  0  0  0  0  0  0  0  0  0
  -30.7289  -18.0560   24.2453 C   0  0  0  0  0  0  0  0  0  0  0  0
  -20.3574   -5.8425   24.8014 C   0  0  0  0  0  0  0  0  0  0  0  0
  -23.8239  -10.4891   20.9263 C   0  0  0  0  0  0  0  0  0  0  0  0
  -24.2196  -13.0092   20.9369 C   0  0  0  0  0  0  0  0  0  0  0  0
  -29.0958  -32.8550   21.7992 C   0  0  0  0  0  0  0  0  0  0  0  0
  -31.5522  -25.9491   22.1929 C   0  0  0  0  0  0  0  0  0  0  0  0
  -29.5468  -31.6976   22.4620 C   0  0  0  0  0  0  0  0  0  0  0  0
  -30.5518  -25.0014   22.4521 C   0  0  0  0  0  0  0  0  0  0  0  0
  -32.1187  -18.0338   24.3613 C   0  0  0  0  0  0  0  0  0  0  0  0
  -30.8486  -16.3965   22.4935 C   0  0  0  0  0  0  0  0  0  0  0  0
  -22.2987   -8.1903   21.3405 C   0  0  0  0  0  0  0  0  0  0  0  0
  -31.9436  -24.0258   24.1903 C   0  0  0  0  0  0  0  0  0  0  0  0
  -20.8355   -6.9779   22.7231 C   0  0  0  0  0  0  0  0  0  0  0  0
  -19.3866   -6.7985   25.1002 C   0  0  0  0  0  0  0  0  0  0  0  0
  -30.0938  -17.2373   23.3114 C   0  0  0  0  0  0  0  0  0  0  0  0
  -21.0819   -5.9323   23.6128 C   0  0  0  0  0  0  0  0  0  0  0  0
  -24.6124  -11.6761   20.7127 C   0  0  0  0  0  0  0  0  0  0  0  0
  -25.3178  -13.7547   20.5841 C   0  0  0  0  0  0  0  0  0  0  0  0
  -22.9734  -13.5274   21.4209 C   0  0  0  0  0  0  0  0  0  0  0  0
  -29.2196  -28.0747   21.8132 C   0  0  0  0  0  0  0  0  0  0  0  0
  -28.1541  -25.9335   19.6218 C   0  0  0  0  0  0  0  0  0  0  0  0
  -28.0985  -22.7062   18.5137 C   0  0  0  0  0  0  0  0  0  0  0  0
  -30.8091  -14.6732   20.6564 C   0  0  0  0  0  0  0  0  0  0  0  0
  -27.7413  -32.9138   21.1384 C   0  0  0  0  0  0  0  0  0  0  0  0
  -31.3710  -26.9691   21.1024 C   0  0  0  0  0  0  0  0  0  0  0  0
  -29.2568  -24.9847   21.6832 C   0  0  0  0  0  0  0  0  0  0  0  0
  -27.1316  -31.5392   20.8756 C   0  0  0  0  0  0  0  0  0  0  0  0
  -29.5741  -12.4205   18.1912 C   0  0  0  0  0  0  0  0  0  0  0  0
  -27.2593  -30.6536   22.1110 C   0  0  0  0  0  0  0  0  0  0  0  0
  -28.1408  -12.1357   18.6459 C   0  0  0  0  0  0  0  0  0  0  0  0
  -30.5276  -12.5619   19.3764 C   0  0  0  0  0  0  0  0  0  0  0  0
  -28.6771  -13.2477   20.8511 C   0  0  0  0  0  0  0  0  0  0  0  0
  -28.7310  -30.4230   22.4748 C   0  0  1  0  0  0  0  0  0  0  0  0
  -29.9059  -27.2366   20.7719 C   0  0  1  0  0  0  0  0  0  0  0  0
  -27.6679  -13.1615   19.6945 C   0  0  2  0  0  0  0  0  0  0  0  0
  -27.1096  -21.2559   16.7204 C   0  0  0  0  0  0  0  0  0  0  0  0
  -25.4714  -25.9701   21.0750 C   0  0  0  0  0  0  0  0  0  0  0  0
  -24.8662  -23.8634   19.8652 C   0  0  0  0  0  0  0  0  0  0  0  0
  -25.3060  -25.9554   18.5797 C   0  0  0  0  0  0  0  0  0  0  0  0
  -30.7694  -21.9835   17.4634 C   0  0  0  0  0  0  0  0  0  0  0  0
  -32.8016  -18.9153   25.3650 C   0  0  0  0  0  0  0  0  0  0  0  0
  -33.4587  -21.2520   25.9540 C   0  0  0  0  0  0  0  0  0  0  0  0
  -33.4681  -22.6662   25.4081 C   0  0  0  0  0  0  0  0  0  1  0  0
  -27.2392  -24.7332   19.6570 C   0  0  1  0  0  0  0  0  0  0  0  0
  -28.2973  -22.1124   17.1308 C   0  0  2  0  0  0  0  0  0  0  0  0
  -25.7442  -25.1318   19.8102 C   0  0  0  0  0  0  0  0  0  0  0  0
  -25.8625  -11.5773   20.2529 N   0  0  0  0  0  0  0  0  0  0  0  0
  -26.2647  -12.8578   20.1852 N   0  0  0  0  0  0  0  0  0  0  0  0
  -29.1245  -26.0062   20.6312 N   0  0  0  0  0  0  0  0  0  0  0  0
  -30.0170  -13.5533   20.3257 N   0  0  0  0  0  0  0  0  0  0  0  0
  -25.5563  -15.0835   20.5791 N   0  0  0  0  0  0  0  0  0  0  0  0
  -21.9510  -12.6223   21.7366 N   0  0  0  0  0  0  0  0  0  0  0  0
  -30.2062  -15.5642   21.5436 N   0  0  0  0  0  0  0  0  0  0  0  0
  -29.3202  -29.4357   21.5959 N   0  0  0  0  0  0  0  0  0  0  0  0
  -27.5316  -23.9617   18.4538 N   0  0  0  0  0  0  0  0  0  0  0  0
  -29.5214  -21.2629   17.1029 N   0  3  0  0  0  0  0  0  0  0  0  0
  -32.8419  -20.3447   24.9537 N   0  3  0  0  0  0  0  0  0  0  0  0
  -22.7669  -14.7575   21.5535 O   0  0  0  0  0  0  0  0  0  0  0  0
  -28.6404  -27.5272   22.7441 O   0  0  0  0  0  0  0  0  0  0  0  0
  -28.0175  -26.7720   18.7274 O   0  0  0  0  0  0  0  0  0  0  0  0
  -28.4112  -22.1138   19.5442 O   0  0  0  0  0  0  0  0  0  0  0  0
  -31.9282  -14.8440   20.1660 O   0  0  0  0  0  0  0  0  0  0  0  0
  -21.5545   -7.0688   21.5430 O   0  0  0  0  0  0  0  0  0  0  0  0
  -32.1285  -23.0927   25.1633 O   0  0  0  0  0  0  0  0  0  1  0  0
  -18.6918   -6.7133   26.2423 F   0  0  0  0  0  0  0  0  0  0  0  0
  -28.7575  -17.2679   23.2075 F   0  0  0  0  0  0  0  0  0  0  0  0
  -22.0141   -5.0116   23.3316 F   0  0  0  0  0  0  0  0  0  0  0  0
  1  2  1  0  0  0  0
  1  5  2  0  0  0  0
  2  6  2  0  0  0  0
  3 10  2  0  0  0  0
  3 18  1  0  0  0  0
  4 11  1  0  0  0  0
  4 18  2  0  0  0  0
  5 20  1  0  0  0  0
  6 22  1  0  0  0  0
  7 12  2  0  0  0  0
  7 21  1  0  0  0  0
  8  9  2  0  0  0  0
  8 24  1  0  0  0  0
  9 25  1  0  0  0  0
 10 26  1  0  0  0  0
 11 26  2  0  0  0  0
 12 27  1  0  0  0  0
 13 14  2  0  0  0  0
 13 28  1  0  0  0  0
 14 29  1  0  0  0  0
 15 23  1  0  0  0  0
 15 27  2  0  0  0  0
 16 24  2  0  0  0  0
 16 30  1  0  0  0  0
 17 29  2  0  0  0  0
 17 31  1  0  0  0  0
 18 32  1  0  0  0  0
 19 32  1  0  0  0  0
 19 33  2  0  0  0  0
 19 34  1  0  0  0  0
 20 22  2  0  0  0  0
 20 39  1  0  0  0  0
 21 23  2  0  0  0  0
 21 40  1  0  0  0  0
 22 48  1  0  0  0  0
 23 41  1  0  0  0  0
 24 56  1  0  0  0  0
 25 30  2  0  0  0  0
 25 68  1  0  0  0  0
 26 78  1  0  0  0  0
 27 79  1  0  0  0  0
 28 31  2  0  0  0  0
 28 78  1  0  0  0  0
 29 80  1  0  0  0  0
 30 81  1  0  0  0  0
 31 82  1  0  0  0  0
 32 62  2  0  0  0  0
 33 63  1  0  0  0  0
 33 66  1  0  0  0  0
 34 67  1  0  0  0  0
 34 73  2  0  0  0  0
 35 49  1  0  0  0  0
 35 69  1  0  0  0  0
 35 74  2  0  0  0  0
 36 59  1  0  0  0  0
 36 64  1  0  0  0  0
 36 75  2  0  0  0  0
 37 60  1  0  0  0  0
 37 70  1  0  0  0  0
 37 76  2  0  0  0  0
 38 65  1  0  0  0  0
 38 68  1  0  0  0  0
 38 77  2  0  0  0  0
 39 42  1  0  0  0  0
 40 49  1  0  0  0  0
 41 64  1  0  0  0  0
 42 44  1  0  0  0  0
 43 45  1  0  0  0  0
 43 46  1  0  0  0  0
 44 48  1  0  0  0  0
 45 50  1  0  0  0  0
 46 65  1  0  0  0  0
 47 50  1  0  0  0  0
 47 65  1  0  0  0  0
 48 69  1  0  0  0  0
 49 64  1  0  0  0  0
 50 63  1  0  0  0  0
 51 60  1  0  0  0  0
 52 61  1  0  0  0  0
 53 61  1  0  0  0  0
 54 61  1  0  0  0  0
 55 71  1  0  0  0  0
 56 72  1  0  0  0  0
 57 58  1  0  0  0  0
 57 72  1  0  0  0  0
 58 79  1  0  0  0  0
 59 61  1  0  0  0  0
 59 70  1  0  0  0  0
 60 71  1  0  0  0  0
 62 63  1  0  0  0  0
M  CHG  2  71   1  72   1
M  ISO  4  38 100  58 101  68 100  79 101
M  END
> <Batch ID>
0010

> <Smiles>
CNC(C)C(=O)NC(C(=O)N1Cc2cc([101O:1][101CH2:1]CNCc3ccc([100NH:0][100C:0](=O)N4CCCC(n5nc(-c6ccc(Oc7ccc(F)cc7F)cc6)c(C(N)=O)c5N)C4)c(F)c3)ccc2CC1C(=O)NC1CCCc2ccccc21)C(C)(C)C

> <Shape>
0.246

> <Color>
0.198

> <Negative vol penalty>
0.000

$$$$

  -OEChem-04042320403D

 85 93  0     1  0  0  0  0  0999 V2000
  -25.8554  -17.3035   27.9520 C   0  0  0  0  0  0  0  0  0  0  0  0
  -26.5246  -17.9803   26.9373 C   0  0  0  0  0  0  0  0  0  0  0  0
  -22.8191  -10.2393   20.0596 C   0  0  0  0  0  0  0  0  0  0  0  0
  -23.6964  -10.0434   22.3022 C   0  0  0  0  0  0  0  0  0  0  0  0
  -24.4870  -17.4988   28.1341 C   0  0  0  0  0  0  0  0  0  0  0  0
  -25.8253  -18.8519   26.1032 C   0  0  0  0  0  0  0  0  0  0  0  0
  -27.9110  -24.0557   23.6383 C   0  0  0  0  0  0  0  0  0  0  0  0
  -30.0904  -19.8379   19.5444 C   0  0  0  0  0  0  0  0  0  0  0  0
  -21.9791   -9.1504   20.2931 C   0  0  0  0  0  0  0  0  0  0  0  0
  -22.8564   -8.9546   22.5357 C   0  0  0  0  0  0  0  0  0  0  0  0
  -28.4218  -24.3572   22.3765 C   0  0  0  0  0  0  0  0  0  0  0  0
  -29.6079  -20.9272   18.8190 C   0  0  0  0  0  0  0  0  0  0  0  0
  -21.2028   -5.8990   23.6028 C   0  0  0  0  0  0  0  0  0  0  0  0
  -21.7499   -4.7817   24.2335 C   0  0  0  0  0  0  0  0  0  0  0  0
  -26.2400  -25.1154   21.6810 C   0  0  0  0  0  0  0  0  0  0  0  0
  -27.3997  -20.5525   19.7249 C   0  0  0  0  0  0  0  0  0  0  0  0
  -23.3352   -4.5380   22.4267 C   0  0  0  0  0  0  0  0  0  0  0  0
  -23.6778  -10.6857   21.0641 C   0  0  0  0  0  0  0  0  0  0  0  0
  -24.2607  -13.1692   21.0539 C   0  0  0  0  0  0  0  0  0  0  0  0
  -23.7725  -18.3807   27.3080 C   0  0  0  0  0  0  0  0  0  0  0  0
  -26.5561  -24.2720   23.9279 C   0  0  0  0  0  0  0  0  0  0  0  0
  -24.4458  -19.0582   26.2735 C   0  0  0  0  0  0  0  0  0  0  0  0
  -25.7150  -24.8183   22.9480 C   0  0  0  0  0  0  0  0  0  0  0  0
  -29.2275  -19.1058   20.3600 C   0  0  0  0  0  0  0  0  0  0  0  0
  -21.9978   -8.5081   21.5311 C   0  0  0  0  0  0  0  0  0  0  0  0
  -27.5857  -24.8845   21.3968 C   0  0  0  0  0  0  0  0  0  0  0  0
  -28.2626  -21.2846   18.9093 C   0  0  0  0  0  0  0  0  0  0  0  0
  -21.7218   -6.3358   22.3839 C   0  0  0  0  0  0  0  0  0  0  0  0
  -22.8161   -4.1012   23.6455 C   0  0  0  0  0  0  0  0  0  0  0  0
  -27.8822  -19.4632   20.4503 C   0  0  0  0  0  0  0  0  0  0  0  0
  -22.7881   -5.6554   21.7960 C   0  0  0  0  0  0  0  0  0  0  0  0
  -24.5461  -11.8101   20.8234 C   0  0  0  0  0  0  0  0  0  0  0  0
  -25.4009  -13.8299   20.6665 C   0  0  0  0  0  0  0  0  0  0  0  0
  -23.0715  -13.7799   21.5720 C   0  0  0  0  0  0  0  0  0  0  0  0
  -24.1159  -22.4132   24.7610 C   0  0  0  0  0  0  0  0  0  0  0  0
  -22.5734  -25.2482   25.0866 C   0  0  0  0  0  0  0  0  0  0  0  0
  -22.3553  -28.5434   24.2261 C   0  0  0  0  0  0  0  0  0  0  0  0
  -30.9607  -14.3063   20.5869 C   0  0  0  0  0  0  0  0  0  0  0  0
  -22.2851  -18.5233   27.5131 C   0  0  0  0  0  0  0  0  0  0  0  0
  -26.0265  -23.9665   25.3021 C   0  0  0  0  0  0  0  0  0  0  0  0
  -24.2575  -25.0882   23.2148 C   0  0  0  0  0  0  0  0  0  0  0  0
  -21.6901  -19.7491   26.8248 C   0  0  0  0  0  0  0  0  0  0  0  0
  -29.4681  -12.1809   18.1515 C   0  0  0  0  0  0  0  0  0  0  0  0
  -22.2033  -19.8588   25.3925 C   0  0  0  0  0  0  0  0  0  0  0  0
  -28.0336  -12.0022   18.6519 C   0  0  0  0  0  0  0  0  0  0  0  0
  -30.4649  -12.2444   19.3067 C   0  0  0  0  0  0  0  0  0  0  0  0
  -28.7209  -13.0746   20.8373 C   0  0  0  0  0  0  0  0  0  0  0  0
  -23.7268  -20.0309   25.3640 C   0  0  1  0  0  0  0  0  0  0  0  0
  -24.5170  -23.7467   25.3255 C   0  0  1  0  0  0  0  0  0  0  0  0
  -27.6732  -13.0612   19.7111 C   0  0  2  0  0  0  0  0  0  0  0  0
  -20.9670  -30.5956   24.6240 C   0  0  0  0  0  0  0  0  0  0  0  0
  -20.4135  -24.1428   23.2364 C   0  0  0  0  0  0  0  0  0  0  0  0
  -19.5884  -26.4846   22.9150 C   0  0  0  0  0  0  0  0  0  0  0  0
  -19.5488  -25.4507   25.1848 C   0  0  0  0  0  0  0  0  0  0  0  0
  -24.6497  -30.0129   25.3816 C   0  0  0  0  0  0  0  0  0  0  0  0
  -27.9535  -24.7242   17.7981 C   0  0  0  0  0  0  0  0  0  0  0  0
  -31.0847  -17.5865   21.0441 C   0  0  0  0  0  0  0  0  0  0  0  0
  -31.3044  -16.3671   21.9264 C   0  0  0  0  0  0  0  0  0  0  0  0
  -27.1826  -25.0757   19.0608 C   0  0  0  0  0  0  0  0  0  1  0  0
  -28.7052  -23.4097   17.9379 C   0  0  0  0  0  0  0  0  0  0  0  0
  -21.7624  -26.1351   24.1730 C   0  0  1  0  0  0  0  0  0  0  0  0
  -22.1814  -29.7949   25.0675 C   0  0  2  0  0  0  0  0  0  0  0  0
  -20.3553  -25.5465   23.8713 C   0  0  0  0  0  0  0  0  0  0  0  0
  -25.7713  -11.6173   20.3277 N   0  0  0  0  0  0  0  0  0  0  0  0
  -26.2660  -12.8640   20.2436 N   0  0  0  0  0  0  0  0  0  0  0  0
  -23.7855  -24.7670   24.5718 N   0  0  0  0  0  0  0  0  0  0  0  0
  -30.0664  -13.2691   20.2747 N   0  0  0  0  0  0  0  0  0  0  0  0
  -25.7377  -15.1371   20.6496 N   0  0  0  0  0  0  0  0  0  0  0  0
  -21.9939  -12.9543   21.9206 N   0  0  0  0  0  0  0  0  0  0  0  0
  -29.7179  -18.0047   21.0924 N   0  0  0  0  0  0  0  0  0  0  0  0
  -24.0878  -21.3932   25.6928 N   0  0  0  0  0  0  0  0  0  0  0  0
  -21.7373  -27.4524   24.7996 N   0  0  0  0  0  0  0  0  0  0  0  0
  -30.5018  -15.2390   21.5089 N   0  0  0  0  0  0  0  0  0  0  0  0
  -23.3853  -30.6660   24.9553 N   0  3  0  0  0  0  0  0  0  0  0  0
  -22.9614  -15.0223   21.7059 O   0  0  0  0  0  0  0  0  0  0  0  0
  -23.8501  -22.3172   23.5686 O   0  0  0  0  0  0  0  0  0  0  0  0
  -22.1504  -24.9975   26.2179 O   0  0  0  0  0  0  0  0  0  0  0  0
  -22.9741  -28.5355   23.1642 O   0  0  0  0  0  0  0  0  0  0  0  0
  -32.0828  -14.3975   20.0775 O   0  0  0  0  0  0  0  0  0  0  0  0
  -21.1781   -7.4458   21.7594 O   0  0  0  0  0  0  0  0  0  0  0  0
  -28.0815  -25.1790   20.1642 O   0  0  0  0  0  0  0  0  0  1  0  0
  -27.7885  -22.3550   18.1965 O   0  0  0  0  0  0  0  0  0  0  0  0
  -23.3424   -3.0291   24.2520 F   0  0  0  0  0  0  0  0  0  0  0  0
  -27.0442  -18.7666   21.2313 F   0  0  0  0  0  0  0  0  0  0  0  0
  -23.2918   -6.0710   20.6258 F   0  0  0  0  0  0  0  0  0  0  0  0
  1  2  1  0  0  0  0
  1  5  2  0  0  0  0
  2  6  2  0  0  0  0
  3  9  2  0  0  0  0
  3 18  1  0  0  0  0
  4 10  1  0  0  0  0
  4 18  2  0  0  0  0
  5 20  1  0  0  0  0
  6 22  1  0  0  0  0
  7 11  2  0  0  0  0
  7 21  1  0  0  0  0
  8 12  2  0  0  0  0
  8 24  1  0  0  0  0
  9 25  1  0  0  0  0
 10 25  2  0  0  0  0
 11 26  1  0  0  0  0
 12 27  1  0  0  0  0
 13 14  2  0  0  0  0
 13 28  1  0  0  0  0
 14 29  1  0  0  0  0
 15 23  1  0  0  0  0
 15 26  2  0  0  0  0
 16 27  2  0  0  0  0
 16 30  1  0  0  0  0
 17 29  2  0  0  0  0
 17 31  1  0  0  0  0
 18 32  1  0  0  0  0
 19 32  1  0  0  0  0
 19 33  2  0  0  0  0
 19 34  1  0  0  0  0
 20 22  2  0  0  0  0
 20 39  1  0  0  0  0
 21 23  2  0  0  0  0
 21 40  1  0  0  0  0
 22 48  1  0  0  0  0
 23 41  1  0  0  0  0
 24 30  2  0  0  0  0
 24 70  1  0  0  0  0
 25 80  1  0  0  0  0
 26 81  1  0  0  0  0
 27 82  1  0  0  0  0
 28 31  2  0  0  0  0
 28 80  1  0  0  0  0
 29 83  1  0  0  0  0
 30 84  1  0  0  0  0
 31 85  1  0  0  0  0
 32 64  2  0  0  0  0
 33 65  1  0  0  0  0
 33 68  1  0  0  0  0
 34 69  1  0  0  0  0
 34 75  2  0  0  0  0
 35 49  1  0  0  0  0
 35 71  1  0  0  0  0
 35 76  2  0  0  0  0
 36 61  1  0  0  0  0
 36 66  1  0  0  0  0
 36 77  2  0  0  0  0
 37 62  1  0  0  0  0
 37 72  1  0  0  0  0
 37 78  2  0  0  0  0
 38 67  1  0  0  0  0
 38 73  1  0  0  0  0
 38 79  2  0  0  0  0
 39 42  1  0  0  0  0
 40 49  1  0  0  0  0
 41 66  1  0  0  0  0
 42 44  1  0  0  0  0
 43 45  1  0  0  0  0
 43 46  1  0  0  0  0
 44 48  1  0  0  0  0
 45 50  1  0  0  0  0
 46 67  1  0  0  0  0
 47 50  1  0  0  0  0
 47 67  1  0  0  0  0
 48 71  1  0  0  0  0
 49 66  1  0  0  0  0
 50 65  1  0  0  0  0
 51 62  1  0  0  0  0
 52 63  1  0  0  0  0
 53 63  1  0  0  0  0
 54 63  1  0  0  0  0
 55 74  1  0  0  0  0
 56 59  1  0  0  0  0
 56 60  1  0  0  0  0
 57 58  1  0  0  0  0
 57 70  1  0  0  0  0
 58 73  1  0  0  0  0
 59 81  1  0  0  0  0
 60 82  1  0  0  0  0
 61 63  1  0  0  0  0
 61 72  1  0  0  0  0
 62 74  1  0  0  0  0
 64 65  1  0  0  0  0
M  CHG  1  74   1
M  ISO  4  38 100  59 101  73 100  81 101
M  END
> <Batch ID>
0010

> <Smiles>
CNC(C)C(=O)NC(C(=O)N1Cc2cc([101O:1][101CH2:1]CCOc3ccc(NCC[100NH:0][100C:0](=O)N4CCCC(n5nc(-c6ccc(Oc7ccc(F)cc7F)cc6)c(C(N)=O)c5N)C4)c(F)c3)ccc2CC1C(=O)NC1CCCc2ccccc21)C(C)(C)C

> <Shape>
0.257

> <Color>
0.198

> <Negative vol penalty>
0.000

$$$$

  -OEChem-04042320403D

 82 90  0     1  0  0  0  0  0999 V2000
  -24.6122  -34.0114   28.0639 C   0  0  0  0  0  0  0  0  0  0  0  0
  -25.4919  -33.1965   27.3586 C   0  0  0  0  0  0  0  0  0  0  0  0
  -24.2567   -9.1059   21.4812 C   0  0  0  0  0  0  0  0  0  0  0  0
  -24.7683  -10.3935   23.4604 C   0  0  0  0  0  0  0  0  0  0  0  0
  -23.2367  -33.8149   27.9481 C   0  0  0  0  0  0  0  0  0  0  0  0
  -24.9966  -32.1839   26.5377 C   0  0  0  0  0  0  0  0  0  0  0  0
  -27.3828  -30.2386   21.2437 C   0  0  0  0  0  0  0  0  0  0  0  0
  -30.2159  -18.8786   20.0778 C   0  0  0  0  0  0  0  0  0  0  0  0
  -23.9218   -8.0121   22.2793 C   0  0  0  0  0  0  0  0  0  0  0  0
  -24.4333   -9.2997   24.2585 C   0  0  0  0  0  0  0  0  0  0  0  0
  -28.1972  -29.1529   20.9246 C   0  0  0  0  0  0  0  0  0  0  0  0
  -30.3965  -20.2134   20.4399 C   0  0  0  0  0  0  0  0  0  0  0  0
  -21.2944   -7.0103   24.1570 C   0  0  0  0  0  0  0  0  0  0  0  0
  -20.1253   -6.3155   23.8470 C   0  0  0  0  0  0  0  0  0  0  0  0
  -26.2451  -27.8791   20.3032 C   0  0  0  0  0  0  0  0  0  0  0  0
  -28.0127  -20.4509   20.7535 C   0  0  0  0  0  0  0  0  0  0  0  0
  -21.4143   -4.3017   23.4998 C   0  0  0  0  0  0  0  0  0  0  0  0
  -24.6800  -10.2966   22.0717 C   0  0  0  0  0  0  0  0  0  0  0  0
  -24.1683  -12.4504   20.8040 C   0  0  0  0  0  0  0  0  0  0  0  0
  -22.7241  -32.8057   27.1179 C   0  0  0  0  0  0  0  0  0  0  0  0
  -25.9903  -30.1489   21.1050 C   0  0  0  0  0  0  0  0  0  0  0  0
  -23.6130  -31.9729   26.4117 C   0  0  0  0  0  0  0  0  0  0  0  0
  -25.4155  -28.9660   20.6188 C   0  0  0  0  0  0  0  0  0  0  0  0
  -28.9336  -18.3299   20.0534 C   0  0  0  0  0  0  0  0  0  0  0  0
  -24.0101   -8.1090   23.6679 C   0  0  0  0  0  0  0  0  0  0  0  0
  -27.6281  -27.9719   20.4571 C   0  0  0  0  0  0  0  0  0  0  0  0
  -29.2950  -20.9996   20.7778 C   0  0  0  0  0  0  0  0  0  0  0  0
  -22.5234   -6.3509   24.1383 C   0  0  0  0  0  0  0  0  0  0  0  0
  -20.1853   -4.9612   23.5185 C   0  0  0  0  0  0  0  0  0  0  0  0
  -27.8321  -19.1160   20.3913 C   0  0  0  0  0  0  0  0  0  0  0  0
  -22.5834   -4.9966   23.8098 C   0  0  0  0  0  0  0  0  0  0  0  0
  -25.0267  -11.4267   21.2478 C   0  0  0  0  0  0  0  0  0  0  0  0
  -24.9747  -13.2760   20.0594 C   0  0  0  0  0  0  0  0  0  0  0  0
  -22.7672  -12.6382   21.0434 C   0  0  0  0  0  0  0  0  0  0  0  0
  -23.5206  -30.3437   23.0966 C   0  0  0  0  0  0  0  0  0  0  0  0
  -21.7957  -30.1726   20.3547 C   0  0  0  0  0  0  0  0  0  0  0  0
  -21.6387  -29.2028   17.0865 C   0  0  0  0  0  0  0  0  0  0  0  0
  -29.7411  -16.0584   19.3221 C   0  0  0  0  0  0  0  0  0  0  0  0
  -21.2309  -32.6009   27.0614 C   0  0  0  0  0  0  0  0  0  0  0  0
  -25.1278  -31.3381   21.4281 C   0  0  0  0  0  0  0  0  0  0  0  0
  -23.9275  -28.8254   20.4328 C   0  0  0  0  0  0  0  0  0  0  0  0
  -20.7774  -31.7478   25.8795 C   0  0  0  0  0  0  0  0  0  0  0  0
  -29.7068  -12.6236   18.3850 C   0  0  0  0  0  0  0  0  0  0  0  0
  -21.6503  -30.5032   25.7534 C   0  0  0  0  0  0  0  0  0  0  0  0
  -28.4155  -12.0902   19.0097 C   0  0  0  0  0  0  0  0  0  0  0  0
  -30.3849  -13.6587   19.2809 C   0  0  0  0  0  0  0  0  0  0  0  0
  -28.2331  -14.2360   20.3323 C   0  0  0  0  0  0  0  0  0  0  0  0
  -23.1136  -30.8799   25.4919 C   0  0  1  0  0  0  0  0  0  0  0  0
  -23.6820  -30.9615   21.7365 C   0  0  1  0  0  0  0  0  0  0  0  0
  -27.4802  -13.2383   19.4372 C   0  0  2  0  0  0  0  0  0  0  0  0
  -20.0851  -29.1624   15.1161 C   0  0  0  0  0  0  0  0  0  0  0  0
  -20.2767  -27.8395   21.6034 C   0  0  0  0  0  0  0  0  0  0  0  0
  -19.4426  -27.2500   19.3175 C   0  0  0  0  0  0  0  0  0  0  0  0
  -18.8500  -29.4513   20.3303 C   0  0  0  0  0  0  0  0  0  0  0  0
  -23.4541  -30.8939   15.4731 C   0  0  0  0  0  0  0  0  0  0  0  0
  -28.9589  -24.6088   20.6297 C   0  0  0  0  0  0  0  0  0  0  0  0
  -27.8587  -25.6093   20.3123 C   0  0  0  0  0  0  0  0  0  1  0  0
  -28.4097  -23.2060   20.8371 C   0  0  0  0  0  0  0  0  0  0  0  0
  -21.2136  -29.0531   19.5260 C   0  0  1  0  0  0  0  0  0  0  0  0
  -21.1770  -29.9352   15.8395 C   0  0  2  0  0  0  0  0  0  0  0  0
  -19.9736  -28.4001   20.1995 C   0  0  0  0  0  0  0  0  0  0  0  0
  -26.2823  -11.5853   20.8207 N   0  0  0  0  0  0  0  0  0  0  0  0
  -26.2187  -12.7183   20.1006 N   0  0  0  0  0  0  0  0  0  0  0  0
  -23.1260  -30.0139   20.7684 N   0  0  0  0  0  0  0  0  0  0  0  0
  -29.4398  -14.7176   19.6419 N   0  0  0  0  0  0  0  0  0  0  0  0
  -24.7340  -14.4175   19.3799 N   0  0  0  0  0  0  0  0  0  0  0  0
  -22.0916  -11.6955   21.8304 N   0  0  0  0  0  0  0  0  0  0  0  0
  -28.7535  -16.9736   19.6850 N   0  0  0  0  0  0  0  0  0  0  0  0
  -23.2983  -31.2591   24.1075 N   0  0  0  0  0  0  0  0  0  0  0  0
  -20.9493  -29.6168   18.2066 N   0  0  0  0  0  0  0  0  0  0  0  0
  -22.3176  -30.1280   14.8999 N   0  3  0  0  0  0  0  0  0  0  0  0
  -22.1296  -13.6042   20.5598 O   0  0  0  0  0  0  0  0  0  0  0  0
  -23.5911  -29.1265   23.2195 O   0  0  0  0  0  0  0  0  0  0  0  0
  -21.0982  -31.1551   20.6191 O   0  0  0  0  0  0  0  0  0  0  0  0
  -22.5198  -28.3462   17.0680 O   0  0  0  0  0  0  0  0  0  0  0  0
  -30.7851  -16.3685   18.7427 O   0  0  0  0  0  0  0  0  0  0  0  0
  -23.6831   -7.0420   24.4471 O   0  0  0  0  0  0  0  0  0  0  0  0
  -28.4206  -26.9104   20.1455 O   0  0  0  0  0  0  0  0  0  1  0  0
  -29.4727  -22.3109   21.1348 O   0  0  0  0  0  0  0  0  0  0  0  0
  -19.0624   -4.2937   23.2223 F   0  0  0  0  0  0  0  0  0  0  0  0
  -26.5952  -18.5992   20.3709 F   0  0  0  0  0  0  0  0  0  0  0  0
  -23.7611   -4.3575   23.7913 F   0  0  0  0  0  0  0  0  0  0  0  0
  1  2  1  0  0  0  0
  1  5  2  0  0  0  0
  2  6  2  0  0  0  0
  3  9  2  0  0  0  0
  3 18  1  0  0  0  0
  4 10  1  0  0  0  0
  4 18  2  0  0  0  0
  5 20  1  0  0  0  0
  6 22  1  0  0  0  0
  7 11  2  0  0  0  0
  7 21  1  0  0  0  0
  8 12  2  0  0  0  0
  8 24  1  0  0  0  0
  9 25  1  0  0  0  0
 10 25  2  0  0  0  0
 11 26  1  0  0  0  0
 12 27  1  0  0  0  0
 13 14  2  0  0  0  0
 13 28  1  0  0  0  0
 14 29  1  0  0  0  0
 15 23  1  0  0  0  0
 15 26  2  0  0  0  0
 16 27  2  0  0  0  0
 16 30  1  0  0  0  0
 17 29  2  0  0  0  0
 17 31  1  0  0  0  0
 18 32  1  0  0  0  0
 19 32  1  0  0  0  0
 19 33  2  0  0  0  0
 19 34  1  0  0  0  0
 20 22  2  0  0  0  0
 20 39  1  0  0  0  0
 21 23  2  0  0  0  0
 21 40  1  0  0  0  0
 22 48  1  0  0  0  0
 23 41  1  0  0  0  0
 24 30  2  0  0  0  0
 24 68  1  0  0  0  0
 25 77  1  0  0  0  0
 26 78  1  0  0  0  0
 27 79  1  0  0  0  0
 28 31  2  0  0  0  0
 28 77  1  0  0  0  0
 29 80  1  0  0  0  0
 30 81  1  0  0  0  0
 31 82  1  0  0  0  0
 32 62  2  0  0  0  0
 33 63  1  0  0  0  0
 33 66  1  0  0  0  0
 34 67  1  0  0  0  0
 34 72  2  0  0  0  0
 35 49  1  0  0  0  0
 35 69  1  0  0  0  0
 35 73  2  0  0  0  0
 36 59  1  0  0  0  0
 36 64  1  0  0  0  0
 36 74  2  0  0  0  0
 37 60  1  0  0  0  0
 37 70  1  0  0  0  0
 37 75  2  0  0  0  0
 38 65  1  0  0  0  0
 38 68  1  0  0  0  0
 38 76  2  0  0  0  0
 39 42  1  0  0  0  0
 40 49  1  0  0  0  0
 41 64  1  0  0  0  0
 42 44  1  0  0  0  0
 43 45  1  0  0  0  0
 43 46  1  0  0  0  0
 44 48  1  0  0  0  0
 45 50  1  0  0  0  0
 46 65  1  0  0  0  0
 47 50  1  0  0  0  0
 47 65  1  0  0  0  0
 48 69  1  0  0  0  0
 49 64  1  0  0  0  0
 50 63  1  0  0  0  0
 51 60  1  0  0  0  0
 52 61  1  0  0  0  0
 53 61  1  0  0  0  0
 54 61  1  0  0  0  0
 55 71  1  0  0  0  0
 56 57  1  0  0  0  0
 56 58  1  0  0  0  0
 57 78  1  0  0  0  0
 58 79  1  0  0  0  0
 59 61  1  0  0  0  0
 59 70  1  0  0  0  0
 60 71  1  0  0  0  0
 62 63  1  0  0  0  0
M  CHG  1  71   1
M  ISO  4  38 100  57 101  68 100  78 101
M  END
> <Batch ID>
0010

> <Smiles>
CNC(C)C(=O)NC(C(=O)N1Cc2cc([101O:1][101CH2:1]CCOc3ccc([100NH:0][100C:0](=O)N4CCCC(n5nc(-c6ccc(Oc7ccc(F)cc7F)cc6)c(C(N)=O)c5N)C4)c(F)c3)ccc2CC1C(=O)NC1CCCc2ccccc21)C(C)(C)C

> <Shape>
0.303

> <Color>
0.145

> <Negative vol penalty>
0.000

$$$$

  -OEChem-04042320403D

 81 89  0     1  0  0  0  0  0999 V2000
  -30.0141  -21.6808   15.5845 C   0  0  0  0  0  0  0  0  0  0  0  0
  -29.0234  -21.7791   16.5550 C   0  0  0  0  0  0  0  0  0  0  0  0
  -22.1609  -19.4236   19.4896 C   0  0  0  0  0  0  0  0  0  0  0  0
  -21.9518  -18.2839   17.3696 C   0  0  0  0  0  0  0  0  0  0  0  0
  -29.3986  -18.5742   22.2097 C   0  0  0  0  0  0  0  0  0  0  0  0
  -30.8720  -22.7551   15.3584 C   0  0  0  0  0  0  0  0  0  0  0  0
  -28.8826  -22.9559   17.2913 C   0  0  0  0  0  0  0  0  0  0  0  0
  -24.9935  -23.2652   20.2884 C   0  0  0  0  0  0  0  0  0  0  0  0
  -21.1226  -20.2828   19.1301 C   0  0  0  0  0  0  0  0  0  0  0  0
  -20.9134  -19.1430   17.0101 C   0  0  0  0  0  0  0  0  0  0  0  0
  -28.9130  -19.1677   23.3749 C   0  0  0  0  0  0  0  0  0  0  0  0
  -24.8948  -22.5364   21.4728 C   0  0  0  0  0  0  0  0  0  0  0  0
  -17.7450  -20.1912   19.0020 C   0  0  0  0  0  0  0  0  0  0  0  0
  -16.7587  -20.4498   19.9537 C   0  0  0  0  0  0  0  0  0  0  0  0
  -29.2733  -20.7026   21.0734 C   0  0  0  0  0  0  0  0  0  0  0  0
  -25.4340  -24.5219   22.7323 C   0  0  0  0  0  0  0  0  0  0  0  0
  -17.2964  -22.8038   19.8713 C   0  0  0  0  0  0  0  0  0  0  0  0
  -22.5756  -18.4242   18.6093 C   0  0  0  0  0  0  0  0  0  0  0  0
  -29.5787  -19.3417   21.0589 C   0  0  0  0  0  0  0  0  0  0  0  0
  -23.5389  -16.3049   19.6526 C   0  0  0  0  0  0  0  0  0  0  0  0
  -30.7489  -23.9407   16.1014 C   0  0  0  0  0  0  0  0  0  0  0  0
  -25.3244  -24.6276   20.3164 C   0  0  0  0  0  0  0  0  0  0  0  0
  -29.7233  -24.0599   17.0613 C   0  0  0  0  0  0  0  0  0  0  0  0
  -25.5337  -25.2663   21.5470 C   0  0  0  0  0  0  0  0  0  0  0  0
  -20.4988  -20.1425   17.8904 C   0  0  0  0  0  0  0  0  0  0  0  0
  -25.1180  -23.1640   22.6949 C   0  0  0  0  0  0  0  0  0  0  0  0
  -18.5071  -21.2389   18.4849 C   0  0  0  0  0  0  0  0  0  0  0  0
  -28.6076  -20.5286   23.3893 C   0  0  0  0  0  0  0  0  0  0  0  0
  -16.5344  -21.7561   20.3884 C   0  0  0  0  0  0  0  0  0  0  0  0
  -28.7877  -21.2960   22.2385 C   0  0  0  0  0  0  0  0  0  0  0  0
  -18.2828  -22.5452   18.9196 C   0  0  0  0  0  0  0  0  0  0  0  0
  -23.6485  -17.5367   18.9798 C   0  0  0  0  0  0  0  0  0  0  0  0
  -24.8330  -15.8583   19.7641 C   0  0  0  0  0  0  0  0  0  0  0  0
  -30.0891  -18.7168   19.8318 C   0  0  0  0  0  0  0  0  0  0  0  0
  -22.3718  -15.6252   20.1337 C   0  0  0  0  0  0  0  0  0  0  0  0
  -27.7223  -26.3774   19.1798 C   0  0  0  0  0  0  0  0  0  0  0  0
  -25.9169  -28.8470   20.2585 C   0  0  0  0  0  0  0  0  0  0  0  0
  -23.4949  -29.9482   22.3959 C   0  0  0  0  0  0  0  0  0  0  0  0
  -31.6992  -25.0753   15.8100 C   0  0  0  0  0  0  0  0  0  0  0  0
  -25.4006  -25.4059   19.0316 C   0  0  0  0  0  0  0  0  0  0  0  0
  -25.8717  -26.7315   21.6326 C   0  0  0  0  0  0  0  0  0  0  0  0
  -31.7592  -26.1041   16.9344 C   0  0  0  0  0  0  0  0  0  0  0  0
  -29.0933  -16.1163   17.5985 C   0  0  0  0  0  0  0  0  0  0  0  0
  -30.3513  -26.5159   17.3378 C   0  0  0  0  0  0  0  0  0  0  0  0
  -27.5712  -16.0816   17.7466 C   0  0  0  0  0  0  0  0  0  0  0  0
  -29.6378  -17.5384   17.7063 C   0  0  0  0  0  0  0  0  0  0  0  0
  -27.7032  -18.2276   19.0800 C   0  0  0  0  0  0  0  0  0  0  0  0
  -29.5709  -25.3189   17.8956 C   0  0  1  0  0  0  0  0  0  0  0  0
  -26.2486  -26.6687   19.1474 C   0  0  1  0  0  0  0  0  0  0  0  0
  -27.1188  -16.8064   19.0282 C   0  0  1  0  0  0  0  0  0  0  0  0
  -22.2593  -32.0255   23.0708 C   0  0  0  0  0  0  0  0  0  0  0  0
  -28.3679  -29.7990   21.8064 C   0  0  0  0  0  0  0  0  0  0  0  0
  -26.8561  -31.2622   23.1635 C   0  0  0  0  0  0  0  0  0  0  0  0
  -27.0580  -31.6215   20.7033 C   0  0  0  0  0  0  0  0  0  0  0  0
  -20.8875  -28.7951   21.6017 C   0  0  0  0  0  0  0  0  0  0  0  0
  -26.1802  -21.6852   25.8248 C   0  0  0  0  0  0  0  0  0  0  0  0
  -25.8432  -22.8762   24.9414 C   0  0  0  0  0  0  0  0  0  1  0  0
  -26.9131  -20.5966   25.0566 C   0  0  0  0  0  0  0  0  0  0  0  0
  -25.8053  -29.6003   21.5620 C   0  0  1  0  0  0  0  0  0  0  0  0
  -22.2616  -30.8030   22.1663 C   0  0  2  0  0  0  0  0  0  0  0  0
  -27.0174  -30.5427   21.8074 C   0  0  0  0  0  0  0  0  0  0  0  0
  -24.9123  -17.8524   18.6848 N   0  0  0  0  0  0  0  0  0  0  0  0
  -25.6088  -16.8127   19.1746 N   0  0  0  0  0  0  0  0  0  0  0  0
  -29.1646  -18.1821   18.9313 N   0  0  0  0  0  0  0  0  0  0  0  0
  -25.9409  -27.4480   20.3483 N   0  0  0  0  0  0  0  0  0  0  0  0
  -25.3716  -14.7463   20.3080 N   0  0  0  0  0  0  0  0  0  0  0  0
  -21.1204  -16.2246   19.9357 N   0  0  0  0  0  0  0  0  0  0  0  0
  -28.1860  -25.6979   18.0695 N   0  0  0  0  0  0  0  0  0  0  0  0
  -24.5156  -30.2815   21.5307 N   0  0  0  0  0  0  0  0  0  0  0  0
  -21.0267  -30.0145   22.4388 N   0  3  0  0  0  0  0  0  0  0  0  0
  -31.3117  -18.7025   19.6972 O   0  0  0  0  0  0  0  0  0  0  0  0
  -22.4381  -14.5270   20.7362 O   0  0  0  0  0  0  0  0  0  0  0  0
  -28.3895  -26.7433   20.1403 O   0  0  0  0  0  0  0  0  0  0  0  0
  -25.9731  -29.4764   19.1992 O   0  0  0  0  0  0  0  0  0  0  0  0
  -23.5489  -29.0750   23.2590 O   0  0  0  0  0  0  0  0  0  0  0  0
  -19.4854  -20.9806   17.5394 O   0  0  0  0  0  0  0  0  0  0  0  0
  -25.0230  -22.4548   23.8524 O   0  0  0  0  0  0  0  0  0  1  0  0
  -28.1311  -21.1107   24.5350 O   0  0  0  0  0  0  0  0  0  0  0  0
  -15.5861  -22.0045   21.3013 F   0  0  0  0  0  0  0  0  0  0  0  0
  -28.4966  -22.6041   22.2458 F   0  0  0  0  0  0  0  0  0  0  0  0
  -19.0109  -23.5559   18.4256 F   0  0  0  0  0  0  0  0  0  0  0  0
  1  2  1  0  0  0  0
  1  6  2  0  0  0  0
  2  7  2  0  0  0  0
  3  9  2  0  0  0  0
  3 18  1  0  0  0  0
  4 10  1  0  0  0  0
  4 18  2  0  0  0  0
  5 11  2  0  0  0  0
  5 19  1  0  0  0  0
  6 21  1  0  0  0  0
  7 23  1  0  0  0  0
  8 12  2  0  0  0  0
  8 22  1  0  0  0  0
  9 25  1  0  0  0  0
 10 25  2  0  0  0  0
 11 28  1  0  0  0  0
 12 26  1  0  0  0  0
 13 14  2  0  0  0  0
 13 27  1  0  0  0  0
 14 29  1  0  0  0  0
 15 19  2  0  0  0  0
 15 30  1  0  0  0  0
 16 24  1  0  0  0  0
 16 26  2  0  0  0  0
 17 29  2  0  0  0  0
 17 31  1  0  0  0  0
 18 32  1  0  0  0  0
 19 34  1  0  0  0  0
 20 32  1  0  0  0  0
 20 33  2  0  0  0  0
 20 35  1  0  0  0  0
 21 23  2  0  0  0  0
 21 39  1  0  0  0  0
 22 24  2  0  0  0  0
 22 40  1  0  0  0  0
 23 48  1  0  0  0  0
 24 41  1  0  0  0  0
 25 76  1  0  0  0  0
 26 77  1  0  0  0  0
 27 31  2  0  0  0  0
 27 76  1  0  0  0  0
 28 30  2  0  0  0  0
 28 78  1  0  0  0  0
 29 79  1  0  0  0  0
 30 80  1  0  0  0  0
 31 81  1  0  0  0  0
 32 62  2  0  0  0  0
 33 63  1  0  0  0  0
 33 66  1  0  0  0  0
 34 64  1  0  0  0  0
 34 71  2  0  0  0  0
 35 67  1  0  0  0  0
 35 72  2  0  0  0  0
 36 49  1  0  0  0  0
 36 68  1  0  0  0  0
 36 73  2  0  0  0  0
 37 59  1  0  0  0  0
 37 65  1  0  0  0  0
 37 74  2  0  0  0  0
 38 60  1  0  0  0  0
 38 69  1  0  0  0  0
 38 75  2  0  0  0  0
 39 42  1  0  0  0  0
 40 49  1  0  0  0  0
 41 65  1  0  0  0  0
 42 44  1  0  0  0  0
 43 45  1  0  0  0  0
 43 46  1  0  0  0  0
 44 48  1  0  0  0  0
 45 50  1  0  0  0  0
 46 64  1  0  0  0  0
 47 50  1  0  0  0  0
 47 64  1  0  0  0  0
 48 68  1  0  0  0  0
 49 65  1  0  0  0  0
 50 63  1  0  0  0  0
 51 60  1  0  0  0  0
 52 61  1  0  0  0  0
 53 61  1  0  0  0  0
 54 61  1  0  0  0  0
 55 70  1  0  0  0  0
 56 57  1  0  0  0  0
 56 58  1  0  0  0  0
 57 77  1  0  0  0  0
 58 78  1  0  0  0  0
 59 61  1  0  0  0  0
 59 69  1  0  0  0  0
 60 70  1  0  0  0  0
 62 63  1  0  0  0  0
M  CHG  1  70   1
M  ISO  4  19 100  34 100  57 101  77 101
M  END
> <Batch ID>
0010

> <Smiles>
CNC(C)C(=O)NC(C(=O)N1Cc2cc([101O:1][101CH2:1]CCOc3cc[100c:0]([100C:0](=O)N4CCCC(n5nc(-c6ccc(Oc7ccc(F)cc7F)cc6)c(C(N)=O)c5N)C4)cc3F)ccc2CC1C(=O)NC1CCCc2ccccc21)C(C)(C)C

> <Shape>
0.169

> <Color>
0.107

> <Negative vol penalty>
0.000

$$$$

  -OEChem-04042320403D

 82 90  0     1  0  0  0  0  0999 V2000
  -23.0500  -29.9069   30.3641 C   0  0  0  0  0  0  0  0  0  0  0  0
  -22.4443  -28.9500   29.5561 C   0  0  0  0  0  0  0  0  0  0  0  0
  -23.3309  -16.1565   22.0584 C   0  0  0  0  0  0  0  0  0  0  0  0
  -22.4674  -15.6372   19.8626 C   0  0  0  0  0  0  0  0  0  0  0  0
  -23.7531  -30.9625   29.7852 C   0  0  0  0  0  0  0  0  0  0  0  0
  -22.5405  -29.0488   28.1685 C   0  0  0  0  0  0  0  0  0  0  0  0
  -25.4690  -23.7482   24.2673 C   0  0  0  0  0  0  0  0  0  0  0  0
  -29.5781  -17.6401   22.1803 C   0  0  0  0  0  0  0  0  0  0  0  0
  -22.3480  -17.1338   22.2139 C   0  0  0  0  0  0  0  0  0  0  0  0
  -21.4844  -16.6145   20.0180 C   0  0  0  0  0  0  0  0  0  0  0  0
  -25.8235  -22.6883   23.4324 C   0  0  0  0  0  0  0  0  0  0  0  0
  -29.0677  -18.9272   22.0115 C   0  0  0  0  0  0  0  0  0  0  0  0
  -20.2872  -20.0133   23.0421 C   0  0  0  0  0  0  0  0  0  0  0  0
  -20.6756  -21.2496   23.5580 C   0  0  0  0  0  0  0  0  0  0  0  0
  -25.4977  -24.0940   21.4918 C   0  0  0  0  0  0  0  0  0  0  0  0
  -30.4011  -17.6687   19.9090 C   0  0  0  0  0  0  0  0  0  0  0  0
  -22.1943  -21.5467   21.7026 C   0  0  0  0  0  0  0  0  0  0  0  0
  -23.3907  -15.4082   20.8827 C   0  0  0  0  0  0  0  0  0  0  0  0
  -24.3181  -13.0397   21.0772 C   0  0  0  0  0  0  0  0  0  0  0  0
  -23.8661  -31.0690   28.3900 C   0  0  0  0  0  0  0  0  0  0  0  0
  -25.1420  -24.9909   23.7177 C   0  0  0  0  0  0  0  0  0  0  0  0
  -23.2446  -30.1076   27.5703 C   0  0  0  0  0  0  0  0  0  0  0  0
  -25.1539  -25.1629   22.3238 C   0  0  0  0  0  0  0  0  0  0  0  0
  -30.2449  -17.0109   21.1290 C   0  0  0  0  0  0  0  0  0  0  0  0
  -21.4247  -17.3628   21.1937 C   0  0  0  0  0  0  0  0  0  0  0  0
  -25.8376  -22.8608   22.0481 C   0  0  0  0  0  0  0  0  0  0  0  0
  -20.8524  -19.5435   21.8565 C   0  0  0  0  0  0  0  0  0  0  0  0
  -29.2239  -19.5850   20.7915 C   0  0  0  0  0  0  0  0  0  0  0  0
  -21.6291  -22.0164   22.8882 C   0  0  0  0  0  0  0  0  0  0  0  0
  -29.8907  -18.9558   19.7402 C   0  0  0  0  0  0  0  0  0  0  0  0
  -21.8059  -20.3103   21.1867 C   0  0  0  0  0  0  0  0  0  0  0  0
  -24.4063  -14.3989   20.7213 C   0  0  0  0  0  0  0  0  0  0  0  0
  -25.5356  -12.5122   20.7222 C   0  0  0  0  0  0  0  0  0  0  0  0
  -23.2327  -12.3185   21.6751 C   0  0  0  0  0  0  0  0  0  0  0  0
  -24.1103  -28.5447   24.3360 C   0  0  0  0  0  0  0  0  0  0  0  0
  -26.1766  -28.5982   22.0692 C   0  0  0  0  0  0  0  0  0  0  0  0
  -28.7854  -28.2666   19.8964 C   0  0  0  0  0  0  0  0  0  0  0  0
  -30.8746  -14.7831   20.2171 C   0  0  0  0  0  0  0  0  0  0  0  0
  -24.5963  -32.2539   27.8092 C   0  0  0  0  0  0  0  0  0  0  0  0
  -24.6945  -26.1431   24.5757 C   0  0  0  0  0  0  0  0  0  0  0  0
  -24.7612  -26.5075   21.7754 C   0  0  0  0  0  0  0  0  0  0  0  0
  -24.9682  -32.0794   26.3390 C   0  0  0  0  0  0  0  0  0  0  0  0
  -29.1204  -13.1023   17.6208 C   0  0  0  0  0  0  0  0  0  0  0  0
  -23.7786  -31.5456   25.5472 C   0  0  0  0  0  0  0  0  0  0  0  0
  -27.6899  -13.1229   18.1584 C   0  0  0  0  0  0  0  0  0  0  0  0
  -29.8599  -14.4087   17.9112 C   0  0  0  0  0  0  0  0  0  0  0  0
  -28.4150  -14.8234   19.8771 C   0  0  0  0  0  0  0  0  0  0  0  0
  -23.3476  -30.1668   26.0617 C   0  0  1  0  0  0  0  0  0  0  0  0
  -25.1556  -27.5100   24.0390 C   0  0  1  0  0  0  0  0  0  0  0  0
  -27.6660  -13.5010   19.6500 C   0  0  1  0  0  0  0  0  0  0  0  0
  -30.2877  -29.6113   18.4024 C   0  0  0  0  0  0  0  0  0  0  0  0
  -23.9136  -28.8670   20.0417 C   0  0  0  0  0  0  0  0  0  0  0  0
  -25.6379  -29.3177   18.2833 C   0  0  0  0  0  0  0  0  0  0  0  0
  -25.3986  -30.8714   20.2201 C   0  0  0  0  0  0  0  0  0  0  0  0
  -31.4299  -15.3467   22.5728 C   0  0  0  0  0  0  0  0  0  0  0  0
  -31.2039  -27.4347   21.3855 C   0  0  0  0  0  0  0  0  0  0  0  0
  -26.8140  -22.1508   19.9986 C   0  0  0  0  0  0  0  0  0  1  0  0
  -27.7510  -21.0258   19.6039 C   0  0  0  0  0  0  0  0  0  0  0  0
  -26.4230  -28.5885   20.5817 C   0  0  1  0  0  0  0  0  0  0  0  0
  -30.1055  -29.0079   19.7864 C   0  0  2  0  0  0  0  0  0  0  0  0
  -25.3442  -29.3872   19.7971 C   0  0  0  0  0  0  0  0  0  0  0  0
  -25.5865  -14.7152   20.1819 N   0  0  0  0  0  0  0  0  0  0  0  0
  -26.2512  -13.5472   20.1962 N   0  0  0  0  0  0  0  0  0  0  0  0
  -25.3689  -27.5765   22.5833 N   0  0  0  0  0  0  0  0  0  0  0  0
  -29.7753  -14.7491   19.3385 N   0  0  0  0  0  0  0  0  0  0  0  0
  -26.0531  -11.2686   20.8120 N   0  0  0  0  0  0  0  0  0  0  0  0
  -22.0534  -13.0138   21.9752 N   0  0  0  0  0  0  0  0  0  0  0  0
  -24.2460  -29.1421   25.5746 N   0  0  0  0  0  0  0  0  0  0  0  0
  -27.7845  -29.0762   20.3903 N   0  0  0  0  0  0  0  0  0  0  0  0
  -30.7734  -15.6784   21.3036 N   0  0  0  0  0  0  0  0  0  0  0  0
  -31.2432  -28.0817   20.0488 N   0  3  0  0  0  0  0  0  0  0  0  0
  -23.3124  -11.0973   21.9505 O   0  0  0  0  0  0  0  0  0  0  0  0
  -23.2447  -28.7856   23.5027 O   0  0  0  0  0  0  0  0  0  0  0  0
  -26.6806  -29.4896   22.7582 O   0  0  0  0  0  0  0  0  0  0  0  0
  -28.6542  -27.0882   19.5727 O   0  0  0  0  0  0  0  0  0  0  0  0
  -31.8592  -14.0514   20.0583 O   0  0  0  0  0  0  0  0  0  0  0  0
  -20.4652  -18.3162   21.3452 O   0  0  0  0  0  0  0  0  0  0  0  0
  -26.1890  -21.8232   21.2390 O   0  0  0  0  0  0  0  0  0  1  0  0
  -28.7225  -20.8495   20.6278 O   0  0  0  0  0  0  0  0  0  0  0  0
  -22.0009  -23.2043   23.3829 F   0  0  0  0  0  0  0  0  0  0  0  0
  -30.0450  -19.5832   18.5662 F   0  0  0  0  0  0  0  0  0  0  0  0
  -22.3515  -19.8649   20.0467 F   0  0  0  0  0  0  0  0  0  0  0  0
  1  2  1  0  0  0  0
  1  5  2  0  0  0  0
  2  6  2  0  0  0  0
  3  9  2  0  0  0  0
  3 18  1  0  0  0  0
  4 10  1  0  0  0  0
  4 18  2  0  0  0  0
  5 20  1  0  0  0  0
  6 22  1  0  0  0  0
  7 11  2  0  0  0  0
  7 21  1  0  0  0  0
  8 12  2  0  0  0  0
  8 24  1  0  0  0  0
  9 25  1  0  0  0  0
 10 25  2  0  0  0  0
 11 26  1  0  0  0  0
 12 28  1  0  0  0  0
 13 14  2  0  0  0  0
 13 27  1  0  0  0  0
 14 29  1  0  0  0  0
 15 23  1  0  0  0  0
 15 26  2  0  0  0  0
 16 24  2  0  0  0  0
 16 30  1  0  0  0  0
 17 29  2  0  0  0  0
 17 31  1  0  0  0  0
 18 32  1  0  0  0  0
 19 32  1  0  0  0  0
 19 33  2  0  0  0  0
 19 34  1  0  0  0  0
 20 22  2  0  0  0  0
 20 39  1  0  0  0  0
 21 23  2  0  0  0  0
 21 40  1  0  0  0  0
 22 48  1  0  0  0  0
 23 41  1  0  0  0  0
 24 70  1  0  0  0  0
 25 77  1  0  0  0  0
 26 78  1  0  0  0  0
 27 31  2  0  0  0  0
 27 77  1  0  0  0  0
 28 30  2  0  0  0  0
 28 79  1  0  0  0  0
 29 80  1  0  0  0  0
 30 81  1  0  0  0  0
 31 82  1  0  0  0  0
 32 62  2  0  0  0  0
 33 63  1  0  0  0  0
 33 66  1  0  0  0  0
 34 67  1  0  0  0  0
 34 72  2  0  0  0  0
 35 49  1  0  0  0  0
 35 68  1  0  0  0  0
 35 73  2  0  0  0  0
 36 59  1  0  0  0  0
 36 64  1  0  0  0  0
 36 74  2  0  0  0  0
 37 60  1  0  0  0  0
 37 69  1  0  0  0  0
 37 75  2  0  0  0  0
 38 65  1  0  0  0  0
 38 70  1  0  0  0  0
 38 76  2  0  0  0  0
 39 42  1  0  0  0  0
 40 49  1  0  0  0  0
 41 64  1  0  0  0  0
 42 44  1  0  0  0  0
 43 45  1  0  0  0  0
 43 46  1  0  0  0  0
 44 48  1  0  0  0  0
 45 50  1  0  0  0  0
 46 65  1  0  0  0  0
 47 50  1  0  0  0  0
 47 65  1  0  0  0  0
 48 68  1  0  0  0  0
 49 64  1  0  0  0  0
 50 63  1  0  0  0  0
 51 60  1  0  0  0  0
 52 61  1  0  0  0  0
 53 61  1  0  0  0  0
 54 61  1  0  0  0  0
 55 70  1  0  0  0  0
 56 71  1  0  0  0  0
 57 58  1  0  0  0  0
 57 78  1  0  0  0  0
 58 79  1  0  0  0  0
 59 61  1  0  0  0  0
 59 69  1  0  0  0  0
 60 71  1  0  0  0  0
 62 63  1  0  0  0  0
M  CHG  1  71   1
M  ISO  4  38 100  57 101  70 100  78 101
M  END
> <Batch ID>
0010

> <Smiles>
CNC(C)C(=O)NC(C(=O)N1Cc2cc([101O:1][101CH2:1]COc3ccc([100N:0](C)[100C:0](=O)N4CCCC(n5nc(-c6ccc(Oc7ccc(F)cc7F)cc6)c(C(N)=O)c5N)C4)cc3F)ccc2CC1C(=O)NC1CCCc2ccccc21)C(C)(C)C

> <Shape>
0.219

> <Color>
0.116

> <Negative vol penalty>
0.000

$$$$

  -OEChem-04042320403D

 77 85  0     1  0  0  0  0  0999 V2000
  -25.5318  -30.7932   28.0607 C   0  0  0  0  0  0  0  0  0  0  0  0
  -25.3487  -29.4204   27.9293 C   0  0  0  0  0  0  0  0  0  0  0  0
  -22.6376  -10.2137   20.2313 C   0  0  0  0  0  0  0  0  0  0  0  0
  -24.2448   -9.5173   21.8953 C   0  0  0  0  0  0  0  0  0  0  0  0
  -25.7423  -31.5788   26.9283 C   0  0  0  0  0  0  0  0  0  0  0  0
  -25.3751  -28.8325   26.6651 C   0  0  0  0  0  0  0  0  0  0  0  0
  -30.1238  -23.6520   25.0829 C   0  0  0  0  0  0  0  0  0  0  0  0
  -21.8911   -9.0598   20.4692 C   0  0  0  0  0  0  0  0  0  0  0  0
  -23.4982   -8.3633   22.1333 C   0  0  0  0  0  0  0  0  0  0  0  0
  -30.8609  -22.5100   24.7688 C   0  0  0  0  0  0  0  0  0  0  0  0
  -23.0345   -5.3504   20.6710 C   0  0  0  0  0  0  0  0  0  0  0  0
  -23.7231   -4.1412   20.7660 C   0  0  0  0  0  0  0  0  0  0  0  0
  -29.9672  -22.5381   22.5220 C   0  0  0  0  0  0  0  0  0  0  0  0
  -22.8965   -3.8472   23.0171 C   0  0  0  0  0  0  0  0  0  0  0  0
  -23.8145  -10.4425   20.9443 C   0  0  0  0  0  0  0  0  0  0  0  0
  -24.1629  -12.9679   20.8515 C   0  0  0  0  0  0  0  0  0  0  0  0
  -25.7809  -30.9989   25.6504 C   0  0  0  0  0  0  0  0  0  0  0  0
  -29.3165  -24.2510   24.1120 C   0  0  0  0  0  0  0  0  0  0  0  0
  -25.5850  -29.6112   25.5144 C   0  0  0  0  0  0  0  0  0  0  0  0
  -29.2362  -23.6893   22.8271 C   0  0  0  0  0  0  0  0  0  0  0  0
  -22.3214   -8.1345   21.4203 C   0  0  0  0  0  0  0  0  0  0  0  0
  -30.7826  -21.9543   23.4916 C   0  0  0  0  0  0  0  0  0  0  0  0
  -22.2768   -5.8081   21.7491 C   0  0  0  0  0  0  0  0  0  0  0  0
  -23.6541   -3.3895   21.9390 C   0  0  0  0  0  0  0  0  0  0  0  0
  -22.2078   -5.0565   22.9221 C   0  0  0  0  0  0  0  0  0  0  0  0
  -24.5864  -11.6341   20.6985 C   0  0  0  0  0  0  0  0  0  0  0  0
  -25.2565  -13.7184   20.4949 C   0  0  0  0  0  0  0  0  0  0  0  0
  -22.8944  -13.4824   21.2780 C   0  0  0  0  0  0  0  0  0  0  0  0
  -26.9542  -27.0346   23.2475 C   0  0  0  0  0  0  0  0  0  0  0  0
  -28.7887  -26.6369   20.8212 C   0  0  0  0  0  0  0  0  0  0  0  0
  -30.6881  -27.0179   18.0133 C   0  0  0  0  0  0  0  0  0  0  0  0
  -30.7432  -14.7207   20.6863 C   0  0  0  0  0  0  0  0  0  0  0  0
  -25.9644  -31.8954   24.4516 C   0  0  0  0  0  0  0  0  0  0  0  0
  -28.4576  -25.4463   24.4239 C   0  0  0  0  0  0  0  0  0  0  0  0
  -28.3279  -24.3476   21.8248 C   0  0  0  0  0  0  0  0  0  0  0  0
  -26.3516  -31.1424   23.1814 C   0  0  0  0  0  0  0  0  0  0  0  0
  -29.5958  -12.3656   18.2752 C   0  0  0  0  0  0  0  0  0  0  0  0
  -25.4643  -29.9155   22.9967 C   0  0  0  0  0  0  0  0  0  0  0  0
  -28.1582  -12.0710   18.7070 C   0  0  0  0  0  0  0  0  0  0  0  0
  -30.3911  -17.2576   23.3611 C   0  0  0  0  0  0  0  0  0  0  0  0
  -30.5468  -17.9767   20.9392 C   0  0  0  0  0  0  0  0  0  0  0  0
  -31.0508  -18.5662   23.7878 C   0  0  0  0  0  0  0  0  0  0  0  0
  -31.2050  -19.2835   21.3735 C   0  0  0  0  0  0  0  0  0  0  0  0
  -30.5153  -12.5708   19.4770 C   0  0  0  0  0  0  0  0  0  0  0  0
  -28.6175  -13.2917   20.8744 C   0  0  0  0  0  0  0  0  0  0  0  0
  -25.6316  -28.9331   24.1623 C   0  0  1  0  0  0  0  0  0  0  0  0
  -28.3222  -26.4181   23.2380 C   0  0  1  0  0  0  0  0  0  0  0  0
  -27.6412  -13.1326   19.6964 C   0  0  2  0  0  0  0  0  0  0  0  0
  -30.8152  -16.8549   21.9458 C   0  0  0  0  0  0  0  0  0  0  0  0
  -30.7828  -19.6863   22.7853 C   0  0  0  0  0  0  0  0  0  1  0  0
  -30.5602  -27.8375   15.6449 C   0  0  0  0  0  0  0  0  0  0  0  0
  -27.2900  -24.1012   20.0286 C   0  0  0  0  0  0  0  0  0  0  0  0
  -28.0199  -24.4933   17.6660 C   0  0  0  0  0  0  0  0  0  0  0  0
  -26.5661  -26.1641   18.8140 C   0  0  0  0  0  0  0  0  0  0  0  0
  -32.7492  -29.0864   18.4952 C   0  0  0  0  0  0  0  0  0  0  0  0
  -28.9946  -25.9635   19.4880 C   0  0  1  0  0  0  0  0  0  0  0  0
  -30.8872  -28.2021   17.0846 C   0  0  2  0  0  0  0  0  0  0  0  0
  -27.7368  -25.1783   19.0200 C   0  0  0  0  0  0  0  0  0  0  0  0
  -25.8504  -11.5395   20.2773 N   0  0  0  0  0  0  0  0  0  0  0  0
  -26.2305  -12.8234   20.1625 N   0  0  0  0  0  0  0  0  0  0  0  0
  -28.4677  -25.8100   21.9046 N   0  0  0  0  0  0  0  0  0  0  0  0
  -29.9687  -13.5910   20.3751 N   0  0  0  0  0  0  0  0  0  0  0  0
  -25.4704  -15.0500   20.4362 N   0  0  0  0  0  0  0  0  0  0  0  0
  -22.6920  -13.7115   22.6457 N   0  0  0  0  0  0  0  0  0  0  0  0
  -26.8581  -28.1791   24.0157 N   0  0  0  0  0  0  0  0  0  0  0  0
  -29.4244  -27.0083   18.5649 N   0  0  0  0  0  0  0  0  0  0  0  0
  -30.1478  -15.6418   21.5394 N   0  0  0  0  0  0  0  0  0  0  0  0
  -32.3001  -28.6727   17.1409 N   0  3  0  0  0  0  0  0  0  0  0  0
  -21.9622  -13.7162   20.4718 O   0  0  0  0  0  0  0  0  0  0  0  0
  -26.0516  -26.5120   22.6041 O   0  0  0  0  0  0  0  0  0  0  0  0
  -28.9031  -27.8632   20.9015 O   0  0  0  0  0  0  0  0  0  0  0  0
  -31.5645  -26.1827   18.2250 O   0  0  0  0  0  0  0  0  0  0  0  0
  -31.8790  -14.8982   20.2329 O   0  0  0  0  0  0  0  0  0  0  0  0
  -21.5931   -7.0085   21.6529 O   0  0  0  0  0  0  0  0  0  0  0  0
  -31.5083  -20.8420   23.1903 O   0  0  0  0  0  0  0  0  0  1  0  0
  -24.3143   -2.2276   22.0296 F   0  0  0  0  0  0  0  0  0  0  0  0
  -21.4806   -5.4905   23.9607 F   0  0  0  0  0  0  0  0  0  0  0  0
  1  2  1  0  0  0  0
  1  5  2  0  0  0  0
  2  6  2  0  0  0  0
  3  8  2  0  0  0  0
  3 15  1  0  0  0  0
  4  9  1  0  0  0  0
  4 15  2  0  0  0  0
  5 17  1  0  0  0  0
  6 19  1  0  0  0  0
  7 10  2  0  0  0  0
  7 18  1  0  0  0  0
  8 21  1  0  0  0  0
  9 21  2  0  0  0  0
 10 22  1  0  0  0  0
 11 12  2  0  0  0  0
 11 23  1  0  0  0  0
 12 24  1  0  0  0  0
 13 20  1  0  0  0  0
 13 22  2  0  0  0  0
 14 24  2  0  0  0  0
 14 25  1  0  0  0  0
 15 26  1  0  0  0  0
 16 26  1  0  0  0  0
 16 27  2  0  0  0  0
 16 28  1  0  0  0  0
 17 19  2  0  0  0  0
 17 33  1  0  0  0  0
 18 20  2  0  0  0  0
 18 34  1  0  0  0  0
 19 46  1  0  0  0  0
 20 35  1  0  0  0  0
 21 74  1  0  0  0  0
 22 75  1  0  0  0  0
 23 25  2  0  0  0  0
 23 74  1  0  0  0  0
 24 76  1  0  0  0  0
 25 77  1  0  0  0  0
 26 59  2  0  0  0  0
 27 60  1  0  0  0  0
 27 63  1  0  0  0  0
 28 64  1  0  0  0  0
 28 69  2  0  0  0  0
 29 47  1  0  0  0  0
 29 65  1  0  0  0  0
 29 70  2  0  0  0  0
 30 56  1  0  0  0  0
 30 61  1  0  0  0  0
 30 71  2  0  0  0  0
 31 57  1  0  0  0  0
 31 66  1  0  0  0  0
 31 72  2  0  0  0  0
 32 62  1  0  0  0  0
 32 67  1  0  0  0  0
 32 73  2  0  0  0  0
 33 36  1  0  0  0  0
 34 47  1  0  0  0  0
 35 61  1  0  0  0  0
 36 38  1  0  0  0  0
 37 39  1  0  0  0  0
 37 44  1  0  0  0  0
 38 46  1  0  0  0  0
 39 48  1  0  0  0  0
 40 42  1  0  0  0  0
 40 49  1  0  0  0  0
 41 43  1  0  0  0  0
 41 49  1  0  0  0  0
 42 50  1  0  0  0  0
 43 50  1  0  0  0  0
 44 62  1  0  0  0  0
 45 48  1  0  0  0  0
 45 62  1  0  0  0  0
 46 65  1  0  0  0  0
 47 61  1  0  0  0  0
 48 60  1  0  0  0  0
 49 67  1  0  0  0  0
 50 75  1  0  0  0  0
 51 57  1  0  0  0  0
 52 58  1  0  0  0  0
 53 58  1  0  0  0  0
 54 58  1  0  0  0  0
 55 68  1  0  0  0  0
 56 58  1  0  0  0  0
 56 66  1  0  0  0  0
 57 68  1  0  0  0  0
 59 60  1  0  0  0  0
M  CHG  1  68   1
M  ISO  4  32 100  50 101  67 100  75 101
M  END
> <Batch ID>
0010

> <Smiles>
CNC(C)C(=O)NC(C(=O)N1Cc2cc([101O:1][101CH:1]3CCC([100NH:0][100C:0](=O)N4CCCC(n5nc(-c6ccc(Oc7ccc(F)cc7F)cc6)c(C(N)=O)c5N)C4)CC3)ccc2CC1C(=O)NC1CCCc2ccccc21)C(C)(C)C

> <Shape>
0.284

> <Color>
0.184

> <Negative vol penalty>
0.000

$$$$

  -OEChem-04042320403D

 83 91  0     1  0  0  0  0  0999 V2000
  -21.9970  -27.1588   26.4629 C   0  0  0  0  0  0  0  0  0  0  0  0
  -22.7708  -27.0941   25.3086 C   0  0  0  0  0  0  0  0  0  0  0  0
  -17.5214  -25.0449   21.4465 C   0  0  0  0  0  0  0  0  0  0  0  0
  -18.8925  -24.3594   23.3139 C   0  0  0  0  0  0  0  0  0  0  0  0
  -22.2177  -26.2539   27.5004 C   0  0  0  0  0  0  0  0  0  0  0  0
  -23.7665  -26.1249   25.1915 C   0  0  0  0  0  0  0  0  0  0  0  0
  -25.4925  -23.2182   20.0848 C   0  0  0  0  0  0  0  0  0  0  0  0
  -28.8040  -28.5196   19.6168 C   0  0  0  0  0  0  0  0  0  0  0  0
  -16.9951  -23.7561   21.3599 C   0  0  0  0  0  0  0  0  0  0  0  0
  -18.3661  -23.0705   23.2273 C   0  0  0  0  0  0  0  0  0  0  0  0
  -26.5506  -23.4237   19.2006 C   0  0  0  0  0  0  0  0  0  0  0  0
  -29.6326  -27.4644   19.2352 C   0  0  0  0  0  0  0  0  0  0  0  0
  -15.5333  -21.4720   24.1438 C   0  0  0  0  0  0  0  0  0  0  0  0
  -15.1448  -20.8511   25.3309 C   0  0  0  0  0  0  0  0  0  0  0  0
  -27.8434  -21.7560   20.3696 C   0  0  0  0  0  0  0  0  0  0  0  0
  -29.4051  -26.4903   21.4344 C   0  0  0  0  0  0  0  0  0  0  0  0
  -16.7273  -19.0727   24.9185 C   0  0  0  0  0  0  0  0  0  0  0  0
  -18.4702  -25.3465   22.4235 C   0  0  0  0  0  0  0  0  0  0  0  0
  -18.5149  -27.7510   23.2745 C   0  0  0  0  0  0  0  0  0  0  0  0
  -23.2102  -25.2670   27.3920 C   0  0  0  0  0  0  0  0  0  0  0  0
  -25.6061  -22.2863   21.1265 C   0  0  0  0  0  0  0  0  0  0  0  0
  -24.0016  -25.2068   26.2290 C   0  0  0  0  0  0  0  0  0  0  0  0
  -26.7844  -21.5387   21.2641 C   0  0  0  0  0  0  0  0  0  0  0  0
  -28.2759  -28.5601   20.9073 C   0  0  0  0  0  0  0  0  0  0  0  0
  -17.4174  -22.7689   22.2503 C   0  0  0  0  0  0  0  0  0  0  0  0
  -27.7274  -22.6947   19.3446 C   0  0  0  0  0  0  0  0  0  0  0  0
  -29.9332  -26.4498   20.1439 C   0  0  0  0  0  0  0  0  0  0  0  0
  -16.5187  -20.8932   23.3440 C   0  0  0  0  0  0  0  0  0  0  0  0
  -15.7419  -19.6514   25.7183 C   0  0  0  0  0  0  0  0  0  0  0  0
  -28.5765  -27.5454   21.8160 C   0  0  0  0  0  0  0  0  0  0  0  0
  -17.1157  -19.6936   23.7314 C   0  0  0  0  0  0  0  0  0  0  0  0
  -19.0148  -26.6775   22.5132 C   0  0  0  0  0  0  0  0  0  0  0  0
  -19.3814  -28.7857   23.0193 C   0  0  0  0  0  0  0  0  0  0  0  0
  -17.3699  -27.8077   24.1355 C   0  0  0  0  0  0  0  0  0  0  0  0
  -25.5255  -22.4483   24.3000 C   0  0  0  0  0  0  0  0  0  0  0  0
  -25.6440  -19.2142   24.0792 C   0  0  0  0  0  0  0  0  0  0  0  0
  -26.5119  -16.4647   22.2532 C   0  0  0  0  0  0  0  0  0  0  0  0
  -25.0550  -28.8536   21.3882 C   0  0  0  0  0  0  0  0  0  0  0  0
  -23.4435  -24.3408   28.5592 C   0  0  0  0  0  0  0  0  0  0  0  0
  -24.4457  -22.0572   22.0557 C   0  0  0  0  0  0  0  0  0  0  0  0
  -26.9492  -20.5117   22.3534 C   0  0  0  0  0  0  0  0  0  0  0  0
  -24.2674  -23.1064   28.2020 C   0  0  0  0  0  0  0  0  0  0  0  0
  -22.3248  -30.4571   19.6355 C   0  0  0  0  0  0  0  0  0  0  0  0
  -25.4892  -23.5002   27.3780 C   0  0  0  0  0  0  0  0  0  0  0  0
  -21.1132  -29.7609   20.2579 C   0  0  0  0  0  0  0  0  0  0  0  0
  -23.4880  -29.4862   19.4551 C   0  0  0  0  0  0  0  0  0  0  0  0
  -22.6975  -28.0915   21.3268 C   0  0  0  0  0  0  0  0  0  0  0  0
  -25.0746  -24.1540   26.0544 C   0  0  1  0  0  0  0  0  0  0  0  0
  -24.8614  -21.4515   23.3927 C   0  0  1  0  0  0  0  0  0  0  0  0
  -21.4952  -29.0253   21.5560 C   0  0  2  0  0  0  0  0  0  0  0  0
  -26.5209  -13.9572   22.3515 C   0  0  0  0  0  0  0  0  0  0  0  0
  -28.0464  -19.2989   25.9584 C   0  0  0  0  0  0  0  0  0  0  0  0
  -28.5794  -16.9515   25.2702 C   0  0  0  0  0  0  0  0  0  0  0  0
  -26.4241  -17.4529   26.4217 C   0  0  0  0  0  0  0  0  0  0  0  0
  -24.7333  -16.2503   19.8974 C   0  0  0  0  0  0  0  0  0  0  0  0
  -27.3901  -29.6895   21.3118 C   0  0  0  0  0  0  0  0  0  0  0  0
  -31.0664  -23.5699   18.2510 C   0  0  0  0  0  0  0  0  0  0  0  0
  -30.0789  -22.6803   18.9897 C   0  0  0  0  0  0  0  0  0  1  0  0
  -30.7227  -25.0441   18.3956 C   0  0  0  0  0  0  0  0  0  0  0  0
  -26.7481  -18.1861   24.0239 C   0  0  1  0  0  0  0  0  0  0  0  0
  -25.7495  -15.1949   21.9203 C   0  0  2  0  0  0  0  0  0  0  0  0
  -27.4474  -17.9930   25.3991 C   0  0  0  0  0  0  0  0  0  0  0  0
  -20.1134  -27.0004   21.8257 N   0  0  0  0  0  0  0  0  0  0  0  0
  -20.3111  -28.2885   22.1540 N   0  0  0  0  0  0  0  0  0  0  0  0
  -25.7887  -20.3285   23.2406 N   0  0  0  0  0  0  0  0  0  0  0  0
  -23.8136  -28.8335   20.7311 N   0  0  0  0  0  0  0  0  0  0  0  0
  -19.4310  -30.0632   23.4527 N   0  0  0  0  0  0  0  0  0  0  0  0
  -16.5883  -26.6539   24.2848 N   0  0  0  0  0  0  0  0  0  0  0  0
  -24.6476  -23.1480   25.1056 N   0  0  0  0  0  0  0  0  0  0  0  0
  -26.1480  -16.9714   23.4829 N   0  0  0  0  0  0  0  0  0  0  0  0
  -26.0609  -29.5727   20.7544 N   0  0  0  0  0  0  0  0  0  0  0  0
  -25.5036  -15.1080   20.4530 N   0  3  0  0  0  0  0  0  0  0  0  0
  -17.0398  -28.8554   24.7413 O   0  0  0  0  0  0  0  0  0  0  0  0
  -26.7444  -22.5723   24.2722 O   0  0  0  0  0  0  0  0  0  0  0  0
  -24.6849  -19.0317   24.8332 O   0  0  0  0  0  0  0  0  0  0  0  0
  -27.3492  -16.9559   21.4995 O   0  0  0  0  0  0  0  0  0  0  0  0
  -25.2513  -28.2775   22.4637 O   0  0  0  0  0  0  0  0  0  0  0  0
  -16.9038  -21.5113   22.1661 O   0  0  0  0  0  0  0  0  0  0  0  0
  -28.7620  -22.8938   18.4833 O   0  0  0  0  0  0  0  0  0  1  0  0
  -30.7465  -25.4125   19.7680 O   0  0  0  0  0  0  0  0  0  0  0  0
  -15.3698  -19.0561   26.8590 F   0  0  0  0  0  0  0  0  0  0  0  0
  -28.0747  -27.5766   23.0586 F   0  0  0  0  0  0  0  0  0  0  0  0
  -18.0638  -19.1334   22.9677 F   0  0  0  0  0  0  0  0  0  0  0  0
  1  2  1  0  0  0  0
  1  5  2  0  0  0  0
  2  6  2  0  0  0  0
  3  9  2  0  0  0  0
  3 18  1  0  0  0  0
  4 10  1  0  0  0  0
  4 18  2  0  0  0  0
  5 20  1  0  0  0  0
  6 22  1  0  0  0  0
  7 11  2  0  0  0  0
  7 21  1  0  0  0  0
  8 12  2  0  0  0  0
  8 24  1  0  0  0  0
  9 25  1  0  0  0  0
 10 25  2  0  0  0  0
 11 26  1  0  0  0  0
 12 27  1  0  0  0  0
 13 14  2  0  0  0  0
 13 28  1  0  0  0  0
 14 29  1  0  0  0  0
 15 23  1  0  0  0  0
 15 26  2  0  0  0  0
 16 27  2  0  0  0  0
 16 30  1  0  0  0  0
 17 29  2  0  0  0  0
 17 31  1  0  0  0  0
 18 32  1  0  0  0  0
 19 32  1  0  0  0  0
 19 33  2  0  0  0  0
 19 34  1  0  0  0  0
 20 22  2  0  0  0  0
 20 39  1  0  0  0  0
 21 23  2  0  0  0  0
 21 40  1  0  0  0  0
 22 48  1  0  0  0  0
 23 41  1  0  0  0  0
 24 30  2  0  0  0  0
 24 56  1  0  0  0  0
 25 78  1  0  0  0  0
 26 79  1  0  0  0  0
 27 80  1  0  0  0  0
 28 31  2  0  0  0  0
 28 78  1  0  0  0  0
 29 81  1  0  0  0  0
 30 82  1  0  0  0  0
 31 83  1  0  0  0  0
 32 63  2  0  0  0  0
 33 64  1  0  0  0  0
 33 67  1  0  0  0  0
 34 68  1  0  0  0  0
 34 73  2  0  0  0  0
 35 49  1  0  0  0  0
 35 69  1  0  0  0  0
 35 74  2  0  0  0  0
 36 60  1  0  0  0  0
 36 65  1  0  0  0  0
 36 75  2  0  0  0  0
 37 61  1  0  0  0  0
 37 70  1  0  0  0  0
 37 76  2  0  0  0  0
 38 66  1  0  0  0  0
 38 71  1  0  0  0  0
 38 77  2  0  0  0  0
 39 42  1  0  0  0  0
 40 49  1  0  0  0  0
 41 65  1  0  0  0  0
 42 44  1  0  0  0  0
 43 45  1  0  0  0  0
 43 46  1  0  0  0  0
 44 48  1  0  0  0  0
 45 50  1  0  0  0  0
 46 66  1  0  0  0  0
 47 50  1  0  0  0  0
 47 66  1  0  0  0  0
 48 69  1  0  0  0  0
 49 65  1  0  0  0  0
 50 64  1  0  0  0  0
 51 61  1  0  0  0  0
 52 62  1  0  0  0  0
 53 62  1  0  0  0  0
 54 62  1  0  0  0  0
 55 72  1  0  0  0  0
 56 71  1  0  0  0  0
 57 58  1  0  0  0  0
 57 59  1  0  0  0  0
 58 79  1  0  0  0  0
 59 80  1  0  0  0  0
 60 62  1  0  0  0  0
 60 70  1  0  0  0  0
 61 72  1  0  0  0  0
 63 64  1  0  0  0  0
M  CHG  1  72   1
M  ISO  4  38 100  58 101  71 100  79 101
M  END
> <Batch ID>
0010

> <Smiles>
CNC(C)C(=O)NC(C(=O)N1Cc2cc([101O:1][101CH2:1]CCOc3ccc(C[100NH:0][100C:0](=O)N4CCCC(n5nc(-c6ccc(Oc7ccc(F)cc7F)cc6)c(C(N)=O)c5N)C4)c(F)c3)ccc2CC1C(=O)NC1CCCc2ccccc21)C(C)(C)C

> <Shape>
0.167

> <Color>
0.072

> <Negative vol penalty>
0.000

$$$$

  -OEChem-04042320403D

 82 91  0     1  0  0  0  0  0999 V2000
  -34.4388  -27.5173   26.9047 C   0  0  0  0  0  0  0  0  0  0  0  0
  -34.3993  -26.6344   25.8304 C   0  0  0  0  0  0  0  0  0  0  0  0
  -23.2972   -9.7900   19.9075 C   0  0  0  0  0  0  0  0  0  0  0  0
  -23.7160   -9.9377   22.2824 C   0  0  0  0  0  0  0  0  0  0  0  0
  -33.2622  -28.1079   27.3638 C   0  0  0  0  0  0  0  0  0  0  0  0
  -33.1830  -26.3407   25.2151 C   0  0  0  0  0  0  0  0  0  0  0  0
  -28.9075  -17.5467   13.8647 C   0  0  0  0  0  0  0  0  0  0  0  0
  -32.2419  -25.2158   19.2691 C   0  0  0  0  0  0  0  0  0  0  0  0
  -29.4901  -18.7082   14.3727 C   0  0  0  0  0  0  0  0  0  0  0  0
  -22.5669   -8.6188   20.1091 C   0  0  0  0  0  0  0  0  0  0  0  0
  -22.9856   -8.7665   22.4840 C   0  0  0  0  0  0  0  0  0  0  0  0
  -32.1049  -24.0298   18.5490 C   0  0  0  0  0  0  0  0  0  0  0  0
  -19.7351   -7.8593   22.6602 C   0  0  0  0  0  0  0  0  0  0  0  0
  -18.8183   -7.8418   23.7113 C   0  0  0  0  0  0  0  0  0  0  0  0
  -29.7052  -24.2183   18.7066 C   0  0  0  0  0  0  0  0  0  0  0  0
  -29.9881  -17.5857   16.4746 C   0  0  0  0  0  0  0  0  0  0  0  0
  -20.0088   -5.9966   24.7189 C   0  0  0  0  0  0  0  0  0  0  0  0
  -23.8718  -10.4494   20.9941 C   0  0  0  0  0  0  0  0  0  0  0  0
  -24.1363  -12.9785   20.7910 C   0  0  0  0  0  0  0  0  0  0  0  0
  -32.0321  -27.8287   26.7477 C   0  0  0  0  0  0  0  0  0  0  0  0
  -31.1098  -25.9073   19.7235 C   0  0  0  0  0  0  0  0  0  0  0  0
  -31.9886  -26.9270   25.6672 C   0  0  0  0  0  0  0  0  0  0  0  0
  -28.8661  -16.4220   14.6736 C   0  0  0  0  0  0  0  0  0  0  0  0
  -29.8304  -25.4141   19.4300 C   0  0  0  0  0  0  0  0  0  0  0  0
  -29.4024  -16.4372   15.9624 C   0  0  0  0  0  0  0  0  0  0  0  0
  -30.0265  -18.7270   15.6684 C   0  0  0  0  0  0  0  0  0  0  0  0
  -22.4111   -8.1071   21.3973 C   0  0  0  0  0  0  0  0  0  0  0  0
  -30.8365  -23.5294   18.2702 C   0  0  0  0  0  0  0  0  0  0  0  0
  -20.7886   -6.9453   22.6383 C   0  0  0  0  0  0  0  0  0  0  0  0
  -18.9552   -6.9106   24.7407 C   0  0  0  0  0  0  0  0  0  0  0  0
  -20.9255   -6.0141   23.6677 C   0  0  0  0  0  0  0  0  0  0  0  0
  -24.6268  -11.6589   20.7864 C   0  0  0  0  0  0  0  0  0  0  0  0
  -25.2419  -13.7565   20.5485 C   0  0  0  0  0  0  0  0  0  0  0  0
  -22.8008  -13.4581   20.9962 C   0  0  0  0  0  0  0  0  0  0  0  0
  -29.9708  -26.7150   22.5791 C   0  0  0  0  0  0  0  0  0  0  0  0
  -27.7780  -28.3288   20.8158 C   0  0  0  0  0  0  0  0  0  0  0  0
  -26.1206  -28.6610   17.8511 C   0  0  0  0  0  0  0  0  0  0  0  0
  -29.9273  -14.7508   17.7112 C   0  0  0  0  0  0  0  0  0  0  0  0
  -30.7802  -28.4548   27.3093 C   0  0  0  0  0  0  0  0  0  0  0  0
  -31.2740  -27.1994   20.4759 C   0  0  0  0  0  0  0  0  0  0  0  0
  -28.3529  -15.0653   14.3132 C   0  0  0  0  0  0  0  0  0  0  0  0
  -28.5828  -26.1294   19.8778 C   0  0  0  0  0  0  0  0  0  0  0  0
  -29.5845  -28.3797   26.3634 C   0  0  0  0  0  0  0  0  0  0  0  0
  -30.1505  -12.6121   20.5122 C   0  0  0  0  0  0  0  0  0  0  0  0
  -29.4527  -26.9765   25.7799 C   0  0  0  0  0  0  0  0  0  0  0  0
  -28.7005  -12.2491   20.8213 C   0  0  0  0  0  0  0  0  0  0  0  0
  -28.4072  -14.3442   15.6661 C   0  0  0  0  0  0  0  0  0  0  0  0
  -30.3785  -12.6914   19.0088 C   0  0  0  0  0  0  0  0  0  0  0  0
  -28.0172  -13.3547   18.6288 C   0  0  0  0  0  0  0  0  0  0  0  0
  -30.6919  -26.6023   24.9578 C   0  0  1  0  0  0  0  0  0  0  0  0
  -30.0616  -27.5498   21.3331 C   0  0  1  0  0  0  0  0  0  0  0  0
  -27.7384  -13.2357   20.1414 C   0  0  1  0  0  0  0  0  0  0  0  0
  -24.3601  -30.0488   16.7231 C   0  0  0  0  0  0  0  0  0  0  0  0
  -25.6157  -26.8637   22.3932 C   0  0  0  0  0  0  0  0  0  0  0  0
  -23.9700  -27.5411   20.6322 C   0  0  0  0  0  0  0  0  0  0  0  0
  -25.1438  -29.2841   21.9764 C   0  0  0  0  0  0  0  0  0  0  0  0
  -28.0122  -29.5756   15.7669 C   0  0  0  0  0  0  0  0  0  0  0  0
  -31.1774  -20.0111   17.4717 C   0  0  0  0  0  0  0  0  0  0  0  0
  -31.7395  -21.4041   17.7011 C   0  0  0  0  0  0  0  0  0  1  0  0
  -26.4305  -27.9973   20.2213 C   0  0  1  0  0  0  0  0  0  0  0  0
  -25.8489  -29.8737   16.9793 C   0  0  2  0  0  0  0  0  0  0  0  0
  -25.3134  -27.9068   21.2989 C   0  0  0  0  0  0  0  0  0  0  0  0
  -25.9415  -11.5983   20.5589 N   0  0  0  0  0  0  0  0  0  0  0  0
  -26.2866  -12.8895   20.4182 N   0  0  0  0  0  0  0  0  0  0  0  0
  -29.2316  -15.1762   16.5774 N   0  0  0  0  0  0  0  0  0  0  0  0
  -28.7957  -27.3854   20.6158 N   0  0  0  0  0  0  0  0  0  0  0  0
  -29.4385  -13.6094   18.3641 N   0  0  0  0  0  0  0  0  0  0  0  0
  -25.4127  -15.0909   20.4361 N   0  0  0  0  0  0  0  0  0  0  0  0
  -21.7841  -12.5229   21.2329 N   0  0  0  0  0  0  0  0  0  0  0  0
  -30.6106  -19.9139   16.1635 N   0  0  0  0  0  0  0  0  0  0  0  0
  -30.6501  -27.2426   23.6606 N   0  0  0  0  0  0  0  0  0  0  0  0
  -26.1837  -28.9962   19.1871 N   0  0  0  0  0  0  0  0  0  0  0  0
  -26.5384  -29.7322   15.6657 N   0  3  0  0  0  0  0  0  0  0  0  0
  -22.5146  -14.6787   20.9541 O   0  0  0  0  0  0  0  0  0  0  0  0
  -29.3306  -25.6702   22.5610 O   0  0  0  0  0  0  0  0  0  0  0  0
  -27.9241  -29.3893   21.4288 O   0  0  0  0  0  0  0  0  0  0  0  0
  -26.2589  -27.5289   17.3931 O   0  0  0  0  0  0  0  0  0  0  0  0
  -30.9674  -15.3002   18.0945 O   0  0  0  0  0  0  0  0  0  0  0  0
  -21.6984   -6.9644   21.5945 O   0  0  0  0  0  0  0  0  0  0  0  0
  -30.6991  -22.3635   17.5632 O   0  0  0  0  0  0  0  0  0  1  0  0
  -18.0757   -6.8949   25.7508 F   0  0  0  0  0  0  0  0  0  0  0  0
  -21.9363   -5.1343   23.6528 F   0  0  0  0  0  0  0  0  0  0  0  0
  1  2  1  0  0  0  0
  1  5  2  0  0  0  0
  2  6  2  0  0  0  0
  3 10  2  0  0  0  0
  3 18  1  0  0  0  0
  4 11  1  0  0  0  0
  4 18  2  0  0  0  0
  5 20  1  0  0  0  0
  6 22  1  0  0  0  0
  7  9  2  0  0  0  0
  7 23  1  0  0  0  0
  8 12  2  0  0  0  0
  8 21  1  0  0  0  0
  9 26  1  0  0  0  0
 10 27  1  0  0  0  0
 11 27  2  0  0  0  0
 12 28  1  0  0  0  0
 13 14  2  0  0  0  0
 13 29  1  0  0  0  0
 14 30  1  0  0  0  0
 15 24  1  0  0  0  0
 15 28  2  0  0  0  0
 16 25  1  0  0  0  0
 16 26  2  0  0  0  0
 17 30  2  0  0  0  0
 17 31  1  0  0  0  0
 18 32  1  0  0  0  0
 19 32  1  0  0  0  0
 19 33  2  0  0  0  0
 19 34  1  0  0  0  0
 20 22  2  0  0  0  0
 20 39  1  0  0  0  0
 21 24  2  0  0  0  0
 21 40  1  0  0  0  0
 22 50  1  0  0  0  0
 23 25  2  0  0  0  0
 23 41  1  0  0  0  0
 24 42  1  0  0  0  0
 25 65  1  0  0  0  0
 26 70  1  0  0  0  0
 27 79  1  0  0  0  0
 28 80  1  0  0  0  0
 29 31  2  0  0  0  0
 29 79  1  0  0  0  0
 30 81  1  0  0  0  0
 31 82  1  0  0  0  0
 32 63  2  0  0  0  0
 33 64  1  0  0  0  0
 33 68  1  0  0  0  0
 34 69  1  0  0  0  0
 34 74  2  0  0  0  0
 35 51  1  0  0  0  0
 35 71  1  0  0  0  0
 35 75  2  0  0  0  0
 36 60  1  0  0  0  0
 36 66  1  0  0  0  0
 36 76  2  0  0  0  0
 37 61  1  0  0  0  0
 37 72  1  0  0  0  0
 37 77  2  0  0  0  0
 38 65  1  0  0  0  0
 38 67  1  0  0  0  0
 38 78  2  0  0  0  0
 39 43  1  0  0  0  0
 40 51  1  0  0  0  0
 41 47  1  0  0  0  0
 42 66  1  0  0  0  0
 43 45  1  0  0  0  0
 44 46  1  0  0  0  0
 44 48  1  0  0  0  0
 45 50  1  0  0  0  0
 46 52  1  0  0  0  0
 47 65  1  0  0  0  0
 48 67  1  0  0  0  0
 49 52  1  0  0  0  0
 49 67  1  0  0  0  0
 50 71  1  0  0  0  0
 51 66  1  0  0  0  0
 52 64  1  0  0  0  0
 53 61  1  0  0  0  0
 54 62  1  0  0  0  0
 55 62  1  0  0  0  0
 56 62  1  0  0  0  0
 57 73  1  0  0  0  0
 58 59  1  0  0  0  0
 58 70  1  0  0  0  0
 59 80  1  0  0  0  0
 60 62  1  0  0  0  0
 60 72  1  0  0  0  0
 61 73  1  0  0  0  0
 63 64  1  0  0  0  0
M  CHG  1  73   1
M  ISO  4  38 100  59 101  65 100  80 101
M  END
> <Batch ID>
0010

> <Smiles>
CNC(C)C(=O)NC(C(=O)N1Cc2cc([101O:1][101CH2:1]CNc3ccc4c(c3)[100N:0]([100C:0](=O)N3CCCC(n5nc(-c6ccc(Oc7ccc(F)cc7F)cc6)c(C(N)=O)c5N)C3)CC4)ccc2CC1C(=O)NC1CCCc2ccccc21)C(C)(C)C

> <Shape>
0.231

> <Color>
0.177

> <Negative vol penalty>
0.000

$$$$

  -OEChem-04042320403D

 82 90  0     1  0  0  0  0  0999 V2000
  -23.0500  -29.9069   30.3641 C   0  0  0  0  0  0  0  0  0  0  0  0
  -22.4443  -28.9500   29.5561 C   0  0  0  0  0  0  0  0  0  0  0  0
  -23.3309  -16.1565   22.0584 C   0  0  0  0  0  0  0  0  0  0  0  0
  -22.4674  -15.6372   19.8626 C   0  0  0  0  0  0  0  0  0  0  0  0
  -23.7531  -30.9625   29.7852 C   0  0  0  0  0  0  0  0  0  0  0  0
  -22.5405  -29.0488   28.1685 C   0  0  0  0  0  0  0  0  0  0  0  0
  -25.4690  -23.7482   24.2673 C   0  0  0  0  0  0  0  0  0  0  0  0
  -29.5781  -17.6401   22.1803 C   0  0  0  0  0  0  0  0  0  0  0  0
  -22.3480  -17.1338   22.2139 C   0  0  0  0  0  0  0  0  0  0  0  0
  -21.4844  -16.6145   20.0180 C   0  0  0  0  0  0  0  0  0  0  0  0
  -25.8235  -22.6883   23.4324 C   0  0  0  0  0  0  0  0  0  0  0  0
  -29.0677  -18.9272   22.0115 C   0  0  0  0  0  0  0  0  0  0  0  0
  -20.2872  -20.0133   23.0421 C   0  0  0  0  0  0  0  0  0  0  0  0
  -20.6756  -21.2496   23.5580 C   0  0  0  0  0  0  0  0  0  0  0  0
  -25.4977  -24.0940   21.4918 C   0  0  0  0  0  0  0  0  0  0  0  0
  -30.4011  -17.6687   19.9090 C   0  0  0  0  0  0  0  0  0  0  0  0
  -22.1943  -21.5467   21.7026 C   0  0  0  0  0  0  0  0  0  0  0  0
  -23.3907  -15.4082   20.8827 C   0  0  0  0  0  0  0  0  0  0  0  0
  -24.3181  -13.0397   21.0772 C   0  0  0  0  0  0  0  0  0  0  0  0
  -23.8661  -31.0690   28.3900 C   0  0  0  0  0  0  0  0  0  0  0  0
  -25.1420  -24.9909   23.7177 C   0  0  0  0  0  0  0  0  0  0  0  0
  -23.2446  -30.1076   27.5703 C   0  0  0  0  0  0  0  0  0  0  0  0
  -25.1539  -25.1629   22.3238 C   0  0  0  0  0  0  0  0  0  0  0  0
  -30.2449  -17.0109   21.1290 C   0  0  0  0  0  0  0  0  0  0  0  0
  -21.4247  -17.3628   21.1937 C   0  0  0  0  0  0  0  0  0  0  0  0
  -25.8376  -22.8608   22.0481 C   0  0  0  0  0  0  0  0  0  0  0  0
  -20.8524  -19.5435   21.8565 C   0  0  0  0  0  0  0  0  0  0  0  0
  -29.2239  -19.5850   20.7915 C   0  0  0  0  0  0  0  0  0  0  0  0
  -21.6291  -22.0164   22.8882 C   0  0  0  0  0  0  0  0  0  0  0  0
  -29.8907  -18.9558   19.7402 C   0  0  0  0  0  0  0  0  0  0  0  0
  -21.8059  -20.3103   21.1867 C   0  0  0  0  0  0  0  0  0  0  0  0
  -24.4063  -14.3989   20.7213 C   0  0  0  0  0  0  0  0  0  0  0  0
  -25.5356  -12.5122   20.7222 C   0  0  0  0  0  0  0  0  0  0  0  0
  -23.2327  -12.3185   21.6751 C   0  0  0  0  0  0  0  0  0  0  0  0
  -24.1103  -28.5447   24.3360 C   0  0  0  0  0  0  0  0  0  0  0  0
  -26.1766  -28.5982   22.0692 C   0  0  0  0  0  0  0  0  0  0  0  0
  -28.7854  -28.2666   19.8964 C   0  0  0  0  0  0  0  0  0  0  0  0
  -30.8746  -14.7831   20.2171 C   0  0  0  0  0  0  0  0  0  0  0  0
  -24.5963  -32.2539   27.8092 C   0  0  0  0  0  0  0  0  0  0  0  0
  -24.6945  -26.1431   24.5757 C   0  0  0  0  0  0  0  0  0  0  0  0
  -24.7612  -26.5075   21.7754 C   0  0  0  0  0  0  0  0  0  0  0  0
  -24.9682  -32.0794   26.3390 C   0  0  0  0  0  0  0  0  0  0  0  0
  -29.1204  -13.1023   17.6208 C   0  0  0  0  0  0  0  0  0  0  0  0
  -23.7786  -31.5456   25.5472 C   0  0  0  0  0  0  0  0  0  0  0  0
  -27.6899  -13.1229   18.1584 C   0  0  0  0  0  0  0  0  0  0  0  0
  -29.8599  -14.4087   17.9112 C   0  0  0  0  0  0  0  0  0  0  0  0
  -28.4150  -14.8234   19.8771 C   0  0  0  0  0  0  0  0  0  0  0  0
  -23.3476  -30.1668   26.0617 C   0  0  1  0  0  0  0  0  0  0  0  0
  -25.1556  -27.5100   24.0390 C   0  0  1  0  0  0  0  0  0  0  0  0
  -27.6660  -13.5010   19.6500 C   0  0  1  0  0  0  0  0  0  0  0  0
  -30.2877  -29.6113   18.4024 C   0  0  0  0  0  0  0  0  0  0  0  0
  -23.9136  -28.8670   20.0417 C   0  0  0  0  0  0  0  0  0  0  0  0
  -25.6379  -29.3177   18.2833 C   0  0  0  0  0  0  0  0  0  0  0  0
  -25.3986  -30.8714   20.2201 C   0  0  0  0  0  0  0  0  0  0  0  0
  -31.4299  -15.3467   22.5728 C   0  0  0  0  0  0  0  0  0  0  0  0
  -31.2039  -27.4347   21.3855 C   0  0  0  0  0  0  0  0  0  0  0  0
  -26.8140  -22.1508   19.9986 C   0  0  0  0  0  0  0  0  0  1  0  0
  -27.7510  -21.0258   19.6039 C   0  0  0  0  0  0  0  0  0  0  0  0
  -26.4230  -28.5885   20.5817 C   0  0  1  0  0  0  0  0  0  0  0  0
  -30.1055  -29.0079   19.7864 C   0  0  2  0  0  0  0  0  0  0  0  0
  -25.3442  -29.3872   19.7971 C   0  0  0  0  0  0  0  0  0  0  0  0
  -25.5865  -14.7152   20.1819 N   0  0  0  0  0  0  0  0  0  0  0  0
  -26.2512  -13.5472   20.1962 N   0  0  0  0  0  0  0  0  0  0  0  0
  -25.3689  -27.5765   22.5833 N   0  0  0  0  0  0  0  0  0  0  0  0
  -29.7753  -14.7491   19.3385 N   0  0  0  0  0  0  0  0  0  0  0  0
  -26.0531  -11.2686   20.8120 N   0  0  0  0  0  0  0  0  0  0  0  0
  -22.0534  -13.0138   21.9752 N   0  0  0  0  0  0  0  0  0  0  0  0
  -24.2460  -29.1421   25.5746 N   0  0  0  0  0  0  0  0  0  0  0  0
  -27.7845  -29.0762   20.3903 N   0  0  0  0  0  0  0  0  0  0  0  0
  -30.7734  -15.6784   21.3036 N   0  0  0  0  0  0  0  0  0  0  0  0
  -31.2432  -28.0817   20.0488 N   0  3  0  0  0  0  0  0  0  0  0  0
  -23.3124  -11.0973   21.9505 O   0  0  0  0  0  0  0  0  0  0  0  0
  -23.2447  -28.7856   23.5027 O   0  0  0  0  0  0  0  0  0  0  0  0
  -26.6806  -29.4896   22.7582 O   0  0  0  0  0  0  0  0  0  0  0  0
  -28.6542  -27.0882   19.5727 O   0  0  0  0  0  0  0  0  0  0  0  0
  -31.8592  -14.0514   20.0583 O   0  0  0  0  0  0  0  0  0  0  0  0
  -20.4652  -18.3162   21.3452 O   0  0  0  0  0  0  0  0  0  0  0  0
  -26.1890  -21.8232   21.2390 O   0  0  0  0  0  0  0  0  0  1  0  0
  -28.7225  -20.8495   20.6278 O   0  0  0  0  0  0  0  0  0  0  0  0
  -22.0009  -23.2043   23.3829 F   0  0  0  0  0  0  0  0  0  0  0  0
  -30.0450  -19.5832   18.5662 F   0  0  0  0  0  0  0  0  0  0  0  0
  -22.3515  -19.8649   20.0467 F   0  0  0  0  0  0  0  0  0  0  0  0
  1  2  1  0  0  0  0
  1  5  2  0  0  0  0
  2  6  2  0  0  0  0
  3  9  2  0  0  0  0
  3 18  1  0  0  0  0
  4 10  1  0  0  0  0
  4 18  2  0  0  0  0
  5 20  1  0  0  0  0
  6 22  1  0  0  0  0
  7 11  2  0  0  0  0
  7 21  1  0  0  0  0
  8 12  2  0  0  0  0
  8 24  1  0  0  0  0
  9 25  1  0  0  0  0
 10 25  2  0  0  0  0
 11 26  1  0  0  0  0
 12 28  1  0  0  0  0
 13 14  2  0  0  0  0
 13 27  1  0  0  0  0
 14 29  1  0  0  0  0
 15 23  1  0  0  0  0
 15 26  2  0  0  0  0
 16 24  2  0  0  0  0
 16 30  1  0  0  0  0
 17 29  2  0  0  0  0
 17 31  1  0  0  0  0
 18 32  1  0  0  0  0
 19 32  1  0  0  0  0
 19 33  2  0  0  0  0
 19 34  1  0  0  0  0
 20 22  2  0  0  0  0
 20 39  1  0  0  0  0
 21 23  2  0  0  0  0
 21 40  1  0  0  0  0
 22 48  1  0  0  0  0
 23 41  1  0  0  0  0
 24 70  1  0  0  0  0
 25 77  1  0  0  0  0
 26 78  1  0  0  0  0
 27 31  2  0  0  0  0
 27 77  1  0  0  0  0
 28 30  2  0  0  0  0
 28 79  1  0  0  0  0
 29 80  1  0  0  0  0
 30 81  1  0  0  0  0
 31 82  1  0  0  0  0
 32 62  2  0  0  0  0
 33 63  1  0  0  0  0
 33 66  1  0  0  0  0
 34 67  1  0  0  0  0
 34 72  2  0  0  0  0
 35 49  1  0  0  0  0
 35 68  1  0  0  0  0
 35 73  2  0  0  0  0
 36 59  1  0  0  0  0
 36 64  1  0  0  0  0
 36 74  2  0  0  0  0
 37 60  1  0  0  0  0
 37 69  1  0  0  0  0
 37 75  2  0  0  0  0
 38 65  1  0  0  0  0
 38 70  1  0  0  0  0
 38 76  2  0  0  0  0
 39 42  1  0  0  0  0
 40 49  1  0  0  0  0
 41 64  1  0  0  0  0
 42 44  1  0  0  0  0
 43 45  1  0  0  0  0
 43 46  1  0  0  0  0
 44 48  1  0  0  0  0
 45 50  1  0  0  0  0
 46 65  1  0  0  0  0
 47 50  1  0  0  0  0
 47 65  1  0  0  0  0
 48 68  1  0  0  0  0
 49 64  1  0  0  0  0
 50 63  1  0  0  0  0
 51 60  1  0  0  0  0
 52 61  1  0  0  0  0
 53 61  1  0  0  0  0
 54 61  1  0  0  0  0
 55 70  1  0  0  0  0
 56 71  1  0  0  0  0
 57 58  1  0  0  0  0
 57 78  1  0  0  0  0
 58 79  1  0  0  0  0
 59 61  1  0  0  0  0
 59 69  1  0  0  0  0
 60 71  1  0  0  0  0
 62 63  1  0  0  0  0
M  CHG  1  71   1
M  ISO  4  38 100  57 101  70 100  78 101
M  END
> <Batch ID>
0010

> <Smiles>
CNC(C)C(=O)NC(C(=O)N1Cc2cc([101O:1][101CH2:1]COc3ccc([100N:0](C)[100C:0](=O)N4CCCC(n5nc(-c6ccc(Oc7ccc(F)cc7F)cc6)c(C(N)=O)c5N)C4)cc3F)ccc2CC1C(=O)NC1CCCc2ccccc21)C(C)(C)C

> <Shape>
0.219

> <Color>
0.116

> <Negative vol penalty>
0.000

$$$$

  -OEChem-04042320403D

 81 90  0     1  0  0  0  0  0999 V2000
  -16.4635  -29.6412   24.0694 C   0  0  0  0  0  0  0  0  0  0  0  0
  -17.2576  -28.5031   24.1665 C   0  0  0  0  0  0  0  0  0  0  0  0
  -29.7362  -23.7515   15.6049 C   0  0  0  0  0  0  0  0  0  0  0  0
  -28.3968  -15.7323   21.6348 C   0  0  0  0  0  0  0  0  0  0  0  0
  -27.3980  -17.1448   19.9483 C   0  0  0  0  0  0  0  0  0  0  0  0
  -30.9514  -23.0674   15.5771 C   0  0  0  0  0  0  0  0  0  0  0  0
  -16.8520  -30.6923   23.2398 C   0  0  0  0  0  0  0  0  0  0  0  0
  -18.4404  -28.4150   23.4332 C   0  0  0  0  0  0  0  0  0  0  0  0
  -25.0419  -25.6574   23.7962 C   0  0  0  0  0  0  0  0  0  0  0  0
  -28.9401  -23.7129   16.7496 C   0  0  0  0  0  0  0  0  0  0  0  0
  -27.3756  -14.7989   21.4578 C   0  0  0  0  0  0  0  0  0  0  0  0
  -26.3768  -16.2113   19.7713 C   0  0  0  0  0  0  0  0  0  0  0  0
  -25.9172  -24.8582   23.0621 C   0  0  0  0  0  0  0  0  0  0  0  0
  -26.5804  -12.3655   19.2489 C   0  0  0  0  0  0  0  0  0  0  0  0
  -26.9398  -11.0208   19.1587 C   0  0  0  0  0  0  0  0  0  0  0  0
  -30.5746  -22.3061   17.8387 C   0  0  0  0  0  0  0  0  0  0  0  0
  -26.5283  -26.7689   21.7222 C   0  0  0  0  0  0  0  0  0  0  0  0
  -25.5895  -10.5296   21.1010 C   0  0  0  0  0  0  0  0  0  0  0  0
  -28.4080  -16.9054   20.8801 C   0  0  0  0  0  0  0  0  0  0  0  0
  -31.3707  -22.3447   16.6941 C   0  0  0  0  0  0  0  0  0  0  0  0
  -29.7901  -18.5573   22.2470 C   0  0  0  0  0  0  0  0  0  0  0  0
  -18.0450  -30.6210   22.5033 C   0  0  0  0  0  0  0  0  0  0  0  0
  -24.8949  -27.0182   23.4913 C   0  0  0  0  0  0  0  0  0  0  0  0
  -18.8446  -29.4655   22.5919 C   0  0  0  0  0  0  0  0  0  0  0  0
  -25.6524  -27.5837   22.4557 C   0  0  0  0  0  0  0  0  0  0  0  0
  -29.3593  -22.9902   17.8666 C   0  0  0  0  0  0  0  0  0  0  0  0
  -26.3656  -15.0383   20.5261 C   0  0  0  0  0  0  0  0  0  0  0  0
  -26.6584  -25.4133   22.0230 C   0  0  0  0  0  0  0  0  0  0  0  0
  -25.7256  -12.7923   20.2652 C   0  0  0  0  0  0  0  0  0  0  0  0
  -26.4444  -10.1028   20.0847 C   0  0  0  0  0  0  0  0  0  0  0  0
  -25.2301  -11.8743   21.1912 C   0  0  0  0  0  0  0  0  0  0  0  0
  -29.4623  -17.8703   21.0628 C   0  0  0  0  0  0  0  0  0  0  0  0
  -30.8564  -19.3504   21.9000 C   0  0  0  0  0  0  0  0  0  0  0  0
  -32.6498  -21.6238   16.6639 C   0  0  0  0  0  0  0  0  0  0  0  0
  -29.1848  -18.4850   23.5448 C   0  0  0  0  0  0  0  0  0  0  0  0
  -22.4875  -28.8516   22.5183 C   0  0  0  0  0  0  0  0  0  0  0  0
  -24.6405  -31.2380   22.9562 C   0  0  0  0  0  0  0  0  0  0  0  0
  -27.9125  -32.1904   23.1401 C   0  0  0  0  0  0  0  0  0  0  0  0
  -18.3996  -31.7625   21.5836 C   0  0  0  0  0  0  0  0  0  0  0  0
  -23.9664  -27.8726   24.3100 C   0  0  0  0  0  0  0  0  0  0  0  0
  -25.5462  -29.0438   22.1015 C   0  0  0  0  0  0  0  0  0  0  0  0
  -19.8565  -31.7475   21.1279 C   0  0  0  0  0  0  0  0  0  0  0  0
  -34.5518  -19.5557   18.8655 C   0  0  0  0  0  0  0  0  0  0  0  0
  -20.2607  -30.3471   20.6780 C   0  0  0  0  0  0  0  0  0  0  0  0
  -33.4921  -18.9368   19.7788 C   0  0  0  0  0  0  0  0  0  0  0  0
  -27.6387  -22.2372   21.0402 C   0  0  0  0  0  0  0  0  0  0  0  0
  -34.0350  -19.7292   17.4395 C   0  0  0  0  0  0  0  0  0  0  0  0
  -28.9246  -22.2245   20.2138 C   0  0  0  0  0  0  0  0  0  0  0  0
  -31.7043  -19.8652   18.2483 C   0  0  0  0  0  0  0  0  0  0  0  0
  -27.2865  -23.6395   19.1252 C   0  0  0  0  0  0  0  0  0  0  0  0
  -20.1471  -29.3429   21.8312 C   0  0  1  0  0  0  0  0  0  0  0  0
  -23.5137  -29.1328   23.5792 C   0  0  1  0  0  0  0  0  0  0  0  0
  -32.1677  -19.7200   19.7071 C   0  0  1  0  0  0  0  0  0  0  0  0
  -26.9522  -23.5259   20.6119 C   0  0  2  0  0  0  0  0  0  1  0  0
  -29.3596  -34.2138   23.4701 C   0  0  0  0  0  0  0  0  0  0  0  0
  -24.0637  -32.1147   20.0911 C   0  0  0  0  0  0  0  0  0  0  0  0
  -26.1596  -33.4822   20.1615 C   0  0  0  0  0  0  0  0  0  0  0  0
  -24.2881  -33.9898   21.7307 C   0  0  0  0  0  0  0  0  0  0  0  0
  -29.1247  -31.0665   25.5950 C   0  0  0  0  0  0  0  0  0  0  0  0
  -25.6806  -31.9110   22.0936 C   0  0  1  0  0  0  0  0  0  0  0  0
  -28.6569  -33.0477   24.1477 C   0  0  2  0  0  0  0  0  0  0  0  0
  -25.0488  -32.8465   21.0244 C   0  0  0  0  0  0  0  0  0  0  0  0
  -30.2561  -18.1984   20.0399 N   0  0  0  0  0  0  0  0  0  0  0  0
  -31.0931  -19.1003   20.5803 N   0  0  0  0  0  0  0  0  0  0  0  0
  -28.5720  -22.9517   18.9981 N   0  0  3  0  0  0  0  0  0  0  0  0
  -32.7707  -20.4641   17.4332 N   0  0  0  0  0  0  0  0  0  0  0  0
  -24.6201  -29.8364   22.9271 N   0  0  0  0  0  0  0  0  0  0  0  0
  -31.6052  -20.2305   22.5980 N   0  0  0  0  0  0  0  0  0  0  0  0
  -28.1277  -19.3571   23.8385 N   0  0  0  0  0  0  0  0  0  0  0  0
  -21.2733  -29.4762   22.7303 N   0  0  0  0  0  0  0  0  0  0  0  0
  -26.5972  -32.5827   23.0085 N   0  0  0  0  0  0  0  0  0  0  0  0
  -29.6799  -32.2346   24.8642 N   0  3  0  0  0  0  0  0  0  0  0  0
  -33.5329  -22.1130   15.9609 O   0  0  0  0  0  0  0  0  0  0  0  0
  -29.5808  -17.6823   24.4237 O   0  0  0  0  0  0  0  0  0  0  0  0
  -22.7764  -28.1230   21.5763 O   0  0  0  0  0  0  0  0  0  0  0  0
  -23.8790  -31.9302   23.6364 O   0  0  0  0  0  0  0  0  0  0  0  0
  -28.4455  -31.2674   22.5281 O   0  0  0  0  0  0  0  0  0  0  0  0
  -25.3691  -14.1275   20.3530 O   0  0  0  0  0  0  0  0  0  0  0  0
  -27.5130  -24.6353   21.3044 O   0  0  0  0  0  0  0  0  0  1  0  0
  -26.7884   -8.8113   19.9970 F   0  0  0  0  0  0  0  0  0  0  0  0
  -24.4076  -12.2782   22.1690 F   0  0  0  0  0  0  0  0  0  0  0  0
  1  2  1  0  0  0  0
  1  7  2  0  0  0  0
  2  8  2  0  0  0  0
  3  6  1  0  0  0  0
  3 10  2  0  0  0  0
  4 11  2  0  0  0  0
  4 19  1  0  0  0  0
  5 12  1  0  0  0  0
  5 19  2  0  0  0  0
  6 20  2  0  0  0  0
  7 22  1  0  0  0  0
  8 24  1  0  0  0  0
  9 13  2  0  0  0  0
  9 23  1  0  0  0  0
 10 26  1  0  0  0  0
 11 27  1  0  0  0  0
 12 27  2  0  0  0  0
 13 28  1  0  0  0  0
 14 15  2  0  0  0  0
 14 29  1  0  0  0  0
 15 30  1  0  0  0  0
 16 20  1  0  0  0  0
 16 26  2  0  0  0  0
 17 25  1  0  0  0  0
 17 28  2  0  0  0  0
 18 30  2  0  0  0  0
 18 31  1  0  0  0  0
 19 32  1  0  0  0  0
 20 34  1  0  0  0  0
 21 32  1  0  0  0  0
 21 33  2  0  0  0  0
 21 35  1  0  0  0  0
 22 24  2  0  0  0  0
 22 39  1  0  0  0  0
 23 25  2  0  0  0  0
 23 40  1  0  0  0  0
 24 51  1  0  0  0  0
 25 41  1  0  0  0  0
 26 65  1  0  0  0  0
 27 78  1  0  0  0  0
 28 79  1  0  0  0  0
 29 31  2  0  0  0  0
 29 78  1  0  0  0  0
 30 80  1  0  0  0  0
 31 81  1  0  0  0  0
 32 63  2  0  0  0  0
 33 64  1  0  0  0  0
 33 68  1  0  0  0  0
 34 66  1  0  0  0  0
 34 73  2  0  0  0  0
 35 69  1  0  0  0  0
 35 74  2  0  0  0  0
 36 52  1  0  0  0  0
 36 70  1  0  0  0  0
 36 75  2  0  0  0  0
 37 60  1  0  0  0  0
 37 67  1  0  0  0  0
 37 76  2  0  0  0  0
 38 61  1  0  0  0  0
 38 71  1  0  0  0  0
 38 77  2  0  0  0  0
 39 42  1  0  0  0  0
 40 52  1  0  0  0  0
 41 67  1  0  0  0  0
 42 44  1  0  0  0  0
 43 45  1  0  0  0  0
 43 47  1  0  0  0  0
 44 51  1  0  0  0  0
 45 53  1  0  0  0  0
 46 48  1  0  0  0  0
 46 54  1  0  0  0  0
 47 66  1  0  0  0  0
 48 65  1  0  0  0  0
 49 53  1  0  0  0  0
 49 66  1  0  0  0  0
 50 54  1  0  0  0  0
 50 65  1  0  0  0  0
 51 70  1  0  0  0  0
 52 67  1  0  0  0  0
 53 64  1  0  0  0  0
 54 79  1  0  0  0  0
 55 61  1  0  0  0  0
 56 62  1  0  0  0  0
 57 62  1  0  0  0  0
 58 62  1  0  0  0  0
 59 72  1  0  0  0  0
 60 62  1  0  0  0  0
 60 71  1  0  0  0  0
 61 72  1  0  0  0  0
 63 64  1  0  0  0  0
M  CHG  1  72   1
M  ISO  4  20 100  34 100  54 101  79 101
M  END
> <Batch ID>
0010

> <Smiles>
CNC(C)C(=O)NC(C(=O)N1Cc2cc([101O:1][101CH:1]3CCN(c4ccc[100c:0]([100C:0](=O)N5CCCC(n6nc(-c7ccc(Oc8ccc(F)cc8F)cc7)c(C(N)=O)c6N)C5)c4)C3)ccc2CC1C(=O)NC1CCCc2ccccc21)C(C)(C)C

> <Shape>
0.208

> <Color>
0.076

> <Negative vol penalty>
0.000

$$$$

  -OEChem-04042320403D

 83 91  0     1  0  0  0  0  0999 V2000
  -26.2453  -34.5739   25.0769 C   0  0  0  0  0  0  0  0  0  0  0  0
  -26.7581  -33.3906   24.5550 C   0  0  0  0  0  0  0  0  0  0  0  0
  -23.4043  -14.2967   20.4329 C   0  0  0  0  0  0  0  0  0  0  0  0
  -25.3058  -14.7599   21.8496 C   0  0  0  0  0  0  0  0  0  0  0  0
  -24.9173  -34.6311   25.4976 C   0  0  0  0  0  0  0  0  0  0  0  0
  -25.9433  -32.2635   24.4544 C   0  0  0  0  0  0  0  0  0  0  0  0
  -26.4220  -29.9119   19.9950 C   0  0  0  0  0  0  0  0  0  0  0  0
  -29.2505  -21.8644   21.5024 C   0  0  0  0  0  0  0  0  0  0  0  0
  -23.8221  -12.9721   20.3051 C   0  0  0  0  0  0  0  0  0  0  0  0
  -25.7236  -13.4352   21.7218 C   0  0  0  0  0  0  0  0  0  0  0  0
  -27.5459  -29.1063   19.8174 C   0  0  0  0  0  0  0  0  0  0  0  0
  -24.1914   -9.3785   19.8992 C   0  0  0  0  0  0  0  0  0  0  0  0
  -30.5834  -22.2368   21.6767 C   0  0  0  0  0  0  0  0  0  0  0  0
  -23.2272   -8.3790   20.0290 C   0  0  0  0  0  0  0  0  0  0  0  0
  -26.2118  -27.1520   20.2864 C   0  0  0  0  0  0  0  0  0  0  0  0
  -29.1970  -23.0429   19.3940 C   0  0  0  0  0  0  0  0  0  0  0  0
  -22.7452   -9.1354   22.2724 C   0  0  0  0  0  0  0  0  0  0  0  0
  -24.1462  -15.1907   21.2051 C   0  0  0  0  0  0  0  0  0  0  0  0
  -22.8558  -17.0891   22.3180 C   0  0  0  0  0  0  0  0  0  0  0  0
  -24.0831  -33.5069   25.3932 C   0  0  0  0  0  0  0  0  0  0  0  0
  -25.1848  -29.3436   20.3309 C   0  0  0  0  0  0  0  0  0  0  0  0
  -24.6032  -32.3054   24.8753 C   0  0  0  0  0  0  0  0  0  0  0  0
  -25.0731  -27.9523   20.4652 C   0  0  0  0  0  0  0  0  0  0  0  0
  -30.5299  -23.4153   19.5683 C   0  0  0  0  0  0  0  0  0  0  0  0
  -28.5573  -22.2674   20.3610 C   0  0  0  0  0  0  0  0  0  0  0  0
  -24.9817  -12.5413   20.9496 C   0  0  0  0  0  0  0  0  0  0  0  0
  -27.4416  -27.7264   19.9660 C   0  0  0  0  0  0  0  0  0  0  0  0
  -24.4326  -10.2564   20.9560 C   0  0  0  0  0  0  0  0  0  0  0  0
  -22.5041   -8.2574   21.2156 C   0  0  0  0  0  0  0  0  0  0  0  0
  -31.2231  -23.0122   20.7097 C   0  0  0  0  0  0  0  0  0  0  0  0
  -23.7095  -10.1349   22.1426 C   0  0  0  0  0  0  0  0  0  0  0  0
  -23.7154  -16.5593   21.3371 C   0  0  0  0  0  0  0  0  0  0  0  0
  -22.7627  -18.4240   22.0081 C   0  0  0  0  0  0  0  0  0  0  0  0
  -22.2003  -16.4334   23.4116 C   0  0  0  0  0  0  0  0  0  0  0  0
  -23.2044  -29.5827   22.8057 C   0  0  0  0  0  0  0  0  0  0  0  0
  -21.2850  -27.7412   20.9489 C   0  0  0  0  0  0  0  0  0  0  0  0
  -21.0165  -25.4853   18.4023 C   0  0  0  0  0  0  0  0  0  0  0  0
  -26.3714  -22.2035   19.1103 C   0  0  0  0  0  0  0  0  0  0  0  0
  -22.6676  -33.6033   25.9048 C   0  0  0  0  0  0  0  0  0  0  0  0
  -23.9760  -30.2239   20.4928 C   0  0  0  0  0  0  0  0  0  0  0  0
  -23.7633  -27.2910   20.8051 C   0  0  0  0  0  0  0  0  0  0  0  0
  -21.7654  -32.4727   25.4170 C   0  0  0  0  0  0  0  0  0  0  0  0
  -22.9950  -21.4295   18.2869 C   0  0  0  0  0  0  0  0  0  0  0  0
  -22.4654  -31.1263   25.5722 C   0  0  0  0  0  0  0  0  0  0  0  0
  -22.7164  -20.1443   19.0697 C   0  0  0  0  0  0  0  0  0  0  0  0
  -24.4252  -21.4686   17.7513 C   0  0  0  0  0  0  0  0  0  0  0  0
  -25.1926  -19.9582   19.5399 C   0  0  0  0  0  0  0  0  0  0  0  0
  -23.7438  -31.0686   24.7271 C   0  0  1  0  0  0  0  0  0  0  0  0
  -22.8796  -29.5838   21.3386 C   0  0  1  0  0  0  0  0  0  0  0  0
  -23.7844  -19.9024   20.1544 C   0  0  2  0  0  0  0  0  0  0  0  0
  -19.3213  -24.1345   17.1377 C   0  0  0  0  0  0  0  0  0  0  0  0
  -21.0718  -25.8105   23.3020 C   0  0  0  0  0  0  0  0  0  0  0  0
  -20.1968  -24.0829   21.7151 C   0  0  0  0  0  0  0  0  0  0  0  0
  -18.9279  -26.2002   22.0747 C   0  0  0  0  0  0  0  0  0  0  0  0
  -21.6998  -26.8077   15.8443 C   0  0  0  0  0  0  0  0  0  0  0  0
  -30.8373  -26.1147   16.9219 C   0  0  0  0  0  0  0  0  0  0  0  0
  -31.2163  -24.2484   18.5263 C   0  0  0  0  0  0  0  0  0  0  0  0
  -30.8750  -26.5660   19.3707 C   0  0  0  0  0  0  0  0  0  0  0  0
  -29.7619  -27.5910   19.4621 C   0  0  0  0  0  0  0  0  0  1  0  0
  -21.0860  -26.2569   20.7590 C   0  0  1  0  0  0  0  0  0  0  0  0
  -20.1031  -25.4379   17.1907 C   0  0  2  0  0  0  0  0  0  0  0  0
  -20.3459  -25.6000   21.9582 C   0  0  0  0  0  0  0  0  0  0  0  0
  -24.1380  -17.4822   20.4689 N   0  0  0  0  0  0  0  0  0  0  0  0
  -23.5415  -18.6054   20.9032 N   0  0  0  0  0  0  0  0  0  0  0  0
  -22.6116  -28.1950   20.9596 N   0  0  0  0  0  0  0  0  0  0  0  0
  -25.3820  -21.2359   18.8354 N   0  0  0  0  0  0  0  0  0  0  0  0
  -22.0913  -19.4485   22.5756 N   0  0  0  0  0  0  0  0  0  0  0  0
  -22.4049  -15.0578   23.5853 N   0  0  0  0  0  0  0  0  0  0  0  0
  -27.2036  -21.8882   20.1840 N   0  0  0  0  0  0  0  0  0  0  0  0
  -23.4196  -30.8408   23.3352 N   0  0  0  0  0  0  0  0  0  0  0  0
  -20.4073  -26.0967   19.4776 N   0  0  0  0  0  0  0  0  0  0  0  0
  -20.8992  -25.5597   15.9368 N   0  3  0  0  0  0  0  0  0  0  0  0
  -30.5511  -25.5844   18.3050 N   0  3  1  0  0  0  0  0  0  0  0  0
  -21.4421  -17.0458   24.2012 O   0  0  0  0  0  0  0  0  0  0  0  0
  -23.2544  -28.5193   23.4126 O   0  0  0  0  0  0  0  0  0  0  0  0
  -20.2995  -28.4722   21.0758 O   0  0  0  0  0  0  0  0  0  0  0  0
  -22.1552  -25.0227   18.3966 O   0  0  0  0  0  0  0  0  0  0  0  0
  -26.4558  -23.2484   18.4599 O   0  0  0  0  0  0  0  0  0  0  0  0
  -25.3896  -11.2487   20.8253 O   0  0  0  0  0  0  0  0  0  0  0  0
  -28.5373  -26.9379   19.7938 O   0  0  0  0  0  0  0  0  0  1  0  0
  -21.5771   -7.2985   21.3396 F   0  0  0  0  0  0  0  0  0  0  0  0
  -32.5036  -23.3661   20.8866 F   0  0  0  0  0  0  0  0  0  0  0  0
  -23.9359  -10.9761   23.1609 F   0  0  0  0  0  0  0  0  0  0  0  0
  1  2  1  0  0  0  0
  1  5  2  0  0  0  0
  2  6  2  0  0  0  0
  3  9  2  0  0  0  0
  3 18  1  0  0  0  0
  4 10  1  0  0  0  0
  4 18  2  0  0  0  0
  5 20  1  0  0  0  0
  6 22  1  0  0  0  0
  7 11  2  0  0  0  0
  7 21  1  0  0  0  0
  8 13  2  0  0  0  0
  8 25  1  0  0  0  0
  9 26  1  0  0  0  0
 10 26  2  0  0  0  0
 11 27  1  0  0  0  0
 12 14  2  0  0  0  0
 12 28  1  0  0  0  0
 13 30  1  0  0  0  0
 14 29  1  0  0  0  0
 15 23  1  0  0  0  0
 15 27  2  0  0  0  0
 16 24  1  0  0  0  0
 16 25  2  0  0  0  0
 17 29  2  0  0  0  0
 17 31  1  0  0  0  0
 18 32  1  0  0  0  0
 19 32  1  0  0  0  0
 19 33  2  0  0  0  0
 19 34  1  0  0  0  0
 20 22  2  0  0  0  0
 20 39  1  0  0  0  0
 21 23  2  0  0  0  0
 21 40  1  0  0  0  0
 22 48  1  0  0  0  0
 23 41  1  0  0  0  0
 24 30  2  0  0  0  0
 24 57  1  0  0  0  0
 25 69  1  0  0  0  0
 26 79  1  0  0  0  0
 27 80  1  0  0  0  0
 28 31  2  0  0  0  0
 28 79  1  0  0  0  0
 29 81  1  0  0  0  0
 30 82  1  0  0  0  0
 31 83  1  0  0  0  0
 32 63  2  0  0  0  0
 33 64  1  0  0  0  0
 33 67  1  0  0  0  0
 34 68  1  0  0  0  0
 34 74  2  0  0  0  0
 35 49  1  0  0  0  0
 35 70  1  0  0  0  0
 35 75  2  0  0  0  0
 36 60  1  0  0  0  0
 36 65  1  0  0  0  0
 36 76  2  0  0  0  0
 37 61  1  0  0  0  0
 37 71  1  0  0  0  0
 37 77  2  0  0  0  0
 38 66  1  0  0  0  0
 38 69  1  0  0  0  0
 38 78  2  0  0  0  0
 39 42  1  0  0  0  0
 40 49  1  0  0  0  0
 41 65  1  0  0  0  0
 42 44  1  0  0  0  0
 43 45  1  0  0  0  0
 43 46  1  0  0  0  0
 44 48  1  0  0  0  0
 45 50  1  0  0  0  0
 46 66  1  0  0  0  0
 47 50  1  0  0  0  0
 47 66  1  0  0  0  0
 48 70  1  0  0  0  0
 49 65  1  0  0  0  0
 50 64  1  0  0  0  0
 51 61  1  0  0  0  0
 52 62  1  0  0  0  0
 53 62  1  0  0  0  0
 54 62  1  0  0  0  0
 55 72  1  0  0  0  0
 56 73  1  0  0  0  0
 57 73  1  0  0  0  0
 58 59  1  0  0  0  0
 58 73  1  0  0  0  0
 59 80  1  0  0  0  0
 60 62  1  0  0  0  0
 60 71  1  0  0  0  0
 61 72  1  0  0  0  0
 63 64  1  0  0  0  0
M  CHG  2  72   1  73   1
M  ISO  4  38 100  59 101  69 100  80 101
M  END
> <Batch ID>
0010

> <Smiles>
CNC(C)C(=O)NC(C(=O)N1Cc2cc([101O:1][101CH2:1]CN(C)Cc3cc([100NH:0][100C:0](=O)N4CCCC(n5nc(-c6ccc(Oc7ccc(F)cc7F)cc6)c(C(N)=O)c5N)C4)ccc3F)ccc2CC1C(=O)NC1CCCc2ccccc21)C(C)(C)C

> <Shape>
0.253

> <Color>
0.084

> <Negative vol penalty>
0.000

$$$$

  -OEChem-04042320403D

 86 95  0     1  0  0  0  0  0999 V2000
  -23.0143   -8.5053   21.6128 C   0  0  0  0  0  0  0  0  0  0  0  0
  -23.9263   -8.9944   20.6830 C   0  0  0  0  0  0  0  0  0  0  0  0
  -27.3073  -27.6959   20.3931 C   0  0  0  0  0  0  0  0  0  0  0  0
  -25.1835  -26.9005   19.5600 C   0  0  0  0  0  0  0  0  0  0  0  0
  -22.2539   -9.3915   22.3745 C   0  0  0  0  0  0  0  0  0  0  0  0
  -24.0775  -10.3702   20.5136 C   0  0  0  0  0  0  0  0  0  0  0  0
  -28.9366  -11.7735   20.2578 C   0  0  0  0  0  0  0  0  0  0  0  0
  -26.7857  -16.5495   16.2587 C   0  0  0  0  0  0  0  0  0  0  0  0
  -27.1543  -17.8947   16.2667 C   0  0  0  0  0  0  0  0  0  0  0  0
  -26.6672  -28.7841   20.9860 C   0  0  0  0  0  0  0  0  0  0  0  0
  -24.5434  -27.9887   20.1529 C   0  0  0  0  0  0  0  0  0  0  0  0
  -29.5984  -11.5592   19.0495 C   0  0  0  0  0  0  0  0  0  0  0  0
  -25.4211  -31.7722   20.0147 C   0  0  0  0  0  0  0  0  0  0  0  0
  -26.0042  -33.0296   19.8591 C   0  0  0  0  0  0  0  0  0  0  0  0
  -29.2818  -13.8797   18.4715 C   0  0  0  0  0  0  0  0  0  0  0  0
  -26.5452  -18.0754   13.9357 C   0  0  0  0  0  0  0  0  0  0  0  0
  -26.2227  -33.2251   22.2573 C   0  0  0  0  0  0  0  0  0  0  0  0
  -26.5655  -26.7540   19.6801 C   0  0  0  0  0  0  0  0  0  0  0  0
  -27.9842  -24.6342   19.7117 C   0  0  0  0  0  0  0  0  0  0  0  0
  -22.4028  -10.7790   22.2211 C   0  0  0  0  0  0  0  0  0  0  0  0
  -28.4319  -13.0421   20.5776 C   0  0  0  0  0  0  0  0  0  0  0  0
  -23.3174  -11.2758   21.2729 C   0  0  0  0  0  0  0  0  0  0  0  0
  -28.6162  -14.1081   19.6855 C   0  0  0  0  0  0  0  0  0  0  0  0
  -26.2970  -15.9671   15.0892 C   0  0  0  0  0  0  0  0  0  0  0  0
  -27.0340  -18.6577   15.1052 C   0  0  0  0  0  0  0  0  0  0  0  0
  -25.2852  -28.9306   20.8659 C   0  0  0  0  0  0  0  0  0  0  0  0
  -29.7686  -12.6117   18.1549 C   0  0  0  0  0  0  0  0  0  0  0  0
  -25.2387  -31.2412   21.2917 C   0  0  0  0  0  0  0  0  0  0  0  0
  -26.4051  -33.7561   20.9803 C   0  0  0  0  0  0  0  0  0  0  0  0
  -26.1767  -16.7301   13.9277 C   0  0  0  0  0  0  0  0  0  0  0  0
  -25.6395  -31.9677   22.4129 C   0  0  0  0  0  0  0  0  0  0  0  0
  -27.2262  -25.6299   19.0669 C   0  0  0  0  0  0  0  0  0  0  0  0
  -28.3916  -23.8022   18.6976 C   0  0  0  0  0  0  0  0  0  0  0  0
  -28.2925  -24.4754   21.1029 C   0  0  0  0  0  0  0  0  0  0  0  0
  -25.5378  -14.2266   21.1477 C   0  0  0  0  0  0  0  0  0  0  0  0
  -27.2060  -16.9132   21.8699 C   0  0  0  0  0  0  0  0  0  0  0  0
  -30.0590  -18.7448   21.4792 C   0  0  0  0  0  0  0  0  0  0  0  0
  -27.3539  -20.9214   14.0471 C   0  0  0  0  0  0  0  0  0  0  0  0
  -21.5247  -11.6975   23.0334 C   0  0  0  0  0  0  0  0  0  0  0  0
  -27.7438  -13.2631   21.8968 C   0  0  0  0  0  0  0  0  0  0  0  0
  -28.1111  -15.4938   19.9906 C   0  0  0  0  0  0  0  0  0  0  0  0
  -22.0144  -13.1431   23.0591 C   0  0  0  0  0  0  0  0  0  0  0  0
  -28.1522  -24.3710   13.6735 C   0  0  0  0  0  0  0  0  0  0  0  0
  -30.4378  -13.5801   13.4143 C   0  0  0  0  0  0  0  0  0  0  0  0
  -22.3848  -13.6063   21.6538 C   0  0  0  0  0  0  0  0  0  0  0  0
  -28.0448  -24.9242   15.0964 C   0  0  0  0  0  0  0  0  0  0  0  0
  -30.8904  -12.8497   14.6718 C   0  0  0  0  0  0  0  0  0  0  0  0
  -27.0926  -23.3057   13.3977 C   0  0  0  0  0  0  0  0  0  0  0  0
  -26.9395  -22.7617   15.7956 C   0  0  0  0  0  0  0  0  0  0  0  0
  -28.9583  -13.3560   13.1356 C   0  0  0  0  0  0  0  0  0  0  0  0
  -28.5437  -12.9984   15.5831 C   0  0  0  0  0  0  0  0  0  0  0  0
  -23.5278  -12.7617   21.0778 C   0  0  1  0  0  0  0  0  0  0  0  0
  -26.8188  -14.4762   21.8924 C   0  0  1  0  0  0  0  0  0  0  0  0
  -28.0273  -23.7915   16.1415 C   0  0  2  0  0  0  0  0  0  0  0  0
  -30.0231  -13.2170   15.8717 C   0  0  1  0  0  0  0  0  0  1  0  0
  -31.1152  -20.9159   22.1632 C   0  0  0  0  0  0  0  0  0  0  0  0
  -25.4260  -18.4008   19.8878 C   0  0  0  0  0  0  0  0  0  0  0  0
  -27.0934  -20.2684   19.8989 C   0  0  0  0  0  0  0  0  0  0  0  0
  -25.9033  -19.6488   22.0018 C   0  0  0  0  0  0  0  0  0  0  0  0
  -32.3039  -17.3626   22.8241 C   0  0  0  0  0  0  0  0  0  0  0  0
  -25.8996  -14.5193   15.0855 C   0  0  0  0  0  0  0  0  0  0  0  0
  -26.6727  -13.6703   14.0814 C   0  0  0  0  0  0  0  0  0  0  0  0
  -27.6920  -18.1116   21.0910 C   0  0  1  0  0  0  0  0  0  0  0  0
  -30.9566  -19.4387   22.4878 C   0  0  2  0  0  0  0  0  0  0  0  0
  -26.5366  -19.0810   20.7130 C   0  0  0  0  0  0  0  0  0  0  0  0
  -27.1548  -25.4490   17.7455 N   0  0  0  0  0  0  0  0  0  0  0  0
  -27.8733  -24.3299   17.5516 N   0  0  0  0  0  0  0  0  0  0  0  0
  -27.4393  -15.6580   21.2903 N   0  0  0  0  0  0  0  0  0  0  0  0
  -27.1382  -22.2634   14.4255 N   0  0  0  0  0  0  0  0  0  0  0  0
  -29.1390  -22.6782   18.6832 N   0  0  0  0  0  0  0  0  0  0  0  0
  -27.4187  -23.7226   21.8992 N   0  0  0  0  0  0  0  0  0  0  0  0
  -27.4102  -20.0238   15.1128 N   0  0  0  0  0  0  0  0  0  0  0  0
  -24.7948  -13.1725   21.6440 N   0  0  0  0  0  0  0  0  0  0  0  0
  -28.7448  -18.7219   21.8957 N   0  0  0  0  0  0  0  0  0  0  0  0
  -28.1504  -13.7631   14.3449 N   0  3  2  0  0  0  0  0  0  0  0  0
  -32.3084  -18.8115   22.4959 N   0  3  0  0  0  0  0  0  0  0  0  0
  -29.3040  -24.9996   21.6279 O   0  0  0  0  0  0  0  0  0  0  0  0
  -25.2446  -14.9386   20.1944 O   0  0  0  0  0  0  0  0  0  0  0  0
  -26.6467  -17.0841   22.9559 O   0  0  0  0  0  0  0  0  0  0  0  0
  -30.4809  -18.2737   20.4253 O   0  0  0  0  0  0  0  0  0  0  0  0
  -27.5066  -20.5964   12.8668 O   0  0  0  0  0  0  0  0  0  0  0  0
  -24.6603  -29.9923   21.4445 O   0  0  0  0  0  0  0  0  0  0  0  0
  -30.4137  -12.4052   16.9746 O   0  0  0  0  0  0  0  0  0  1  0  0
  -26.9665  -34.9630   20.8306 F   0  0  0  0  0  0  0  0  0  0  0  0
  -25.7080  -16.1795   12.7992 F   0  0  0  0  0  0  0  0  0  0  0  0
  -25.4679  -31.4622   23.6421 F   0  0  0  0  0  0  0  0  0  0  0  0
  1  2  1  0  0  0  0
  1  5  2  0  0  0  0
  2  6  2  0  0  0  0
  3 10  2  0  0  0  0
  3 18  1  0  0  0  0
  4 11  1  0  0  0  0
  4 18  2  0  0  0  0
  5 20  1  0  0  0  0
  6 22  1  0  0  0  0
  7 12  2  0  0  0  0
  7 21  1  0  0  0  0
  8  9  2  0  0  0  0
  8 24  1  0  0  0  0
  9 25  1  0  0  0  0
 10 26  1  0  0  0  0
 11 26  2  0  0  0  0
 12 27  1  0  0  0  0
 13 14  2  0  0  0  0
 13 28  1  0  0  0  0
 14 29  1  0  0  0  0
 15 23  1  0  0  0  0
 15 27  2  0  0  0  0
 16 25  2  0  0  0  0
 16 30  1  0  0  0  0
 17 29  2  0  0  0  0
 17 31  1  0  0  0  0
 18 32  1  0  0  0  0
 19 32  1  0  0  0  0
 19 33  2  0  0  0  0
 19 34  1  0  0  0  0
 20 22  2  0  0  0  0
 20 39  1  0  0  0  0
 21 23  2  0  0  0  0
 21 40  1  0  0  0  0
 22 52  1  0  0  0  0
 23 41  1  0  0  0  0
 24 30  2  0  0  0  0
 24 61  1  0  0  0  0
 25 72  1  0  0  0  0
 26 82  1  0  0  0  0
 27 83  1  0  0  0  0
 28 31  2  0  0  0  0
 28 82  1  0  0  0  0
 29 84  1  0  0  0  0
 30 85  1  0  0  0  0
 31 86  1  0  0  0  0
 32 66  2  0  0  0  0
 33 67  1  0  0  0  0
 33 70  1  0  0  0  0
 34 71  1  0  0  0  0
 34 77  2  0  0  0  0
 35 53  1  0  0  0  0
 35 73  1  0  0  0  0
 35 78  2  0  0  0  0
 36 63  1  0  0  0  0
 36 68  1  0  0  0  0
 36 79  2  0  0  0  0
 37 64  1  0  0  0  0
 37 74  1  0  0  0  0
 37 80  2  0  0  0  0
 38 69  1  0  0  0  0
 38 72  1  0  0  0  0
 38 81  2  0  0  0  0
 39 42  1  0  0  0  0
 40 53  1  0  0  0  0
 41 68  1  0  0  0  0
 42 45  1  0  0  0  0
 43 46  1  0  0  0  0
 43 48  1  0  0  0  0
 44 47  1  0  0  0  0
 44 50  1  0  0  0  0
 45 52  1  0  0  0  0
 46 54  1  0  0  0  0
 47 55  1  0  0  0  0
 48 69  1  0  0  0  0
 49 54  1  0  0  0  0
 49 69  1  0  0  0  0
 50 75  1  0  0  0  0
 51 55  1  0  0  0  0
 51 75  1  0  0  0  0
 52 73  1  0  0  0  0
 53 68  1  0  0  0  0
 54 67  1  0  0  0  0
 55 83  1  0  0  0  0
 56 64  1  0  0  0  0
 57 65  1  0  0  0  0
 58 65  1  0  0  0  0
 59 65  1  0  0  0  0
 60 76  1  0  0  0  0
 61 62  1  0  0  0  0
 62 75  1  0  0  0  0
 63 65  1  0  0  0  0
 63 74  1  0  0  0  0
 64 76  1  0  0  0  0
 66 67  1  0  0  0  0
M  CHG  2  75   1  76   1
M  ISO  4  38 100  55 101  72 100  83 101
M  END
> <Batch ID>
0010

> <Smiles>
CNC(C)C(=O)NC(C(=O)N1Cc2cc([101O:1][101CH:1]3CCCN(CCc4ccc([100NH:0][100C:0](=O)N5CCCC(n6nc(-c7ccc(Oc8ccc(F)cc8F)cc7)c(C(N)=O)c6N)C5)cc4F)C3)ccc2CC1C(=O)NC1CCCc2ccccc21)C(C)(C)C

> <Shape>
0.222

> <Color>
0.089

> <Negative vol penalty>
0.000

$$$$

  -OEChem-04042320403D

 83 91  0     1  0  0  0  0  0999 V2000
  -28.3774  -31.9611   26.3316 C   0  0  0  0  0  0  0  0  0  0  0  0
  -28.9365  -30.9407   25.5689 C   0  0  0  0  0  0  0  0  0  0  0  0
  -23.2194   -9.8513   22.7831 C   0  0  0  0  0  0  0  0  0  0  0  0
  -23.3372  -10.0000   20.3746 C   0  0  0  0  0  0  0  0  0  0  0  0
  -26.9962  -32.0175   26.5133 C   0  0  0  0  0  0  0  0  0  0  0  0
  -28.1146  -29.9754   24.9883 C   0  0  0  0  0  0  0  0  0  0  0  0
  -28.9473  -27.1905   19.5979 C   0  0  0  0  0  0  0  0  0  0  0  0
  -28.6579  -19.0286   17.3547 C   0  0  0  0  0  0  0  0  0  0  0  0
  -27.9309  -18.3385   18.3247 C   0  0  0  0  0  0  0  0  0  0  0  0
  -22.5212   -8.6487   22.6747 C   0  0  0  0  0  0  0  0  0  0  0  0
  -22.6390   -8.7973   20.2662 C   0  0  0  0  0  0  0  0  0  0  0  0
  -29.4815  -25.9488   19.2563 C   0  0  0  0  0  0  0  0  0  0  0  0
  -23.2340   -5.4011   22.0597 C   0  0  0  0  0  0  0  0  0  0  0  0
  -23.6231   -4.3487   22.8883 C   0  0  0  0  0  0  0  0  0  0  0  0
  -27.2573  -25.0175   19.1880 C   0  0  0  0  0  0  0  0  0  0  0  0
  -26.1964  -20.0170   18.2188 C   0  0  0  0  0  0  0  0  0  0  0  0
  -21.4140   -4.3012   23.8653 C   0  0  0  0  0  0  0  0  0  0  0  0
  -23.6274  -10.5270   21.6330 C   0  0  0  0  0  0  0  0  0  0  0  0
  -25.7436  -11.9389   21.8229 C   0  0  0  0  0  0  0  0  0  0  0  0
  -26.1562  -31.0579   25.9267 C   0  0  0  0  0  0  0  0  0  0  0  0
  -27.5626  -27.3526   19.7481 C   0  0  0  0  0  0  0  0  0  0  0  0
  -26.7209  -30.0182   25.1635 C   0  0  0  0  0  0  0  0  0  0  0  0
  -26.7079  -26.2629   19.5291 C   0  0  0  0  0  0  0  0  0  0  0  0
  -28.1542  -20.2130   16.8168 C   0  0  0  0  0  0  0  0  0  0  0  0
  -26.7001  -18.8327   18.7567 C   0  0  0  0  0  0  0  0  0  0  0  0
  -22.2310   -8.1217   21.4163 C   0  0  0  0  0  0  0  0  0  0  0  0
  -28.6367  -24.8614   19.0541 C   0  0  0  0  0  0  0  0  0  0  0  0
  -21.9349   -5.9037   22.1340 C   0  0  0  0  0  0  0  0  0  0  0  0
  -22.7131   -3.7987   23.7910 C   0  0  0  0  0  0  0  0  0  0  0  0
  -26.9234  -20.7071   17.2488 C   0  0  0  0  0  0  0  0  0  0  0  0
  -21.0249   -5.3537   23.0367 C   0  0  0  0  0  0  0  0  0  0  0  0
  -24.3482  -11.7696   21.7443 C   0  0  0  0  0  0  0  0  0  0  0  0
  -25.9200  -13.2979   21.9145 C   0  0  0  0  0  0  0  0  0  0  0  0
  -26.7870  -10.9556   21.8136 C   0  0  0  0  0  0  0  0  0  0  0  0
  -25.6472  -28.1697   22.1497 C   0  0  0  0  0  0  0  0  0  0  0  0
  -23.3688  -28.1017   19.8418 C   0  0  0  0  0  0  0  0  0  0  0  0
  -22.3527  -26.9145   16.8078 C   0  0  0  0  0  0  0  0  0  0  0  0
  -24.7258  -18.4857   20.2825 C   0  0  0  0  0  0  0  0  0  0  0  0
  -24.6731  -31.1330   26.1904 C   0  0  0  0  0  0  0  0  0  0  0  0
  -27.0002  -28.7049   20.0909 C   0  0  0  0  0  0  0  0  0  0  0  0
  -25.2126  -26.3893   19.6581 C   0  0  0  0  0  0  0  0  0  0  0  0
  -23.8403  -30.2865   25.2312 C   0  0  0  0  0  0  0  0  0  0  0  0
  -22.5683  -17.0090   22.6993 C   0  0  0  0  0  0  0  0  0  0  0  0
  -24.4459  -28.8941   25.0847 C   0  0  0  0  0  0  0  0  0  0  0  0
  -22.9538  -15.5282   22.6728 C   0  0  0  0  0  0  0  0  0  0  0  0
  -22.6278  -17.6356   21.3074 C   0  0  0  0  0  0  0  0  0  0  0  0
  -24.2845  -15.9681   20.5698 C   0  0  0  0  0  0  0  0  0  0  0  0
  -25.8604  -28.9668   24.4970 C   0  0  1  0  0  0  0  0  0  0  0  0
  -25.6126  -28.6328   20.7207 C   0  0  1  0  0  0  0  0  0  0  0  0
  -24.3022  -15.3096   21.9590 C   0  0  2  0  0  0  0  0  0  0  0  0
  -20.4269  -27.0054   15.2014 C   0  0  0  0  0  0  0  0  0  0  0  0
  -21.7874  -26.2051   21.6341 C   0  0  0  0  0  0  0  0  0  0  0  0
  -20.3946  -25.5977   19.6443 C   0  0  0  0  0  0  0  0  0  0  0  0
  -20.4088  -27.9464   20.4844 C   0  0  0  0  0  0  0  0  0  0  0  0
  -24.0340  -28.0972   14.6786 C   0  0  0  0  0  0  0  0  0  0  0  0
  -29.5243  -23.2417   14.9909 C   0  0  0  0  0  0  0  0  0  0  0  0
  -28.9385  -20.9511   15.7723 C   0  0  0  0  0  0  0  0  0  0  0  0
  -30.4500  -22.3835   17.1377 C   0  0  0  0  0  0  0  0  0  0  0  0
  -30.3721  -23.6446   17.9755 C   0  0  0  0  0  0  0  0  0  1  0  0
  -22.4438  -27.0473   19.2834 C   0  0  1  0  0  0  0  0  0  0  0  0
  -21.7620  -27.6161   15.5981 C   0  0  2  0  0  0  0  0  0  0  0  0
  -21.2869  -26.6960   20.2609 C   0  0  0  0  0  0  0  0  0  0  0  0
  -23.6853  -12.9285   21.7829 N   0  0  0  0  0  0  0  0  0  0  0  0
  -24.6683  -13.8390   21.8868 N   0  0  0  0  0  0  0  0  0  0  0  0
  -24.7114  -27.7305   20.0011 N   0  0  0  0  0  0  0  0  0  0  0  0
  -23.9353  -17.3920   20.6943 N   0  0  0  0  0  0  0  0  0  0  0  0
  -27.0221  -14.0710   22.0155 N   0  0  0  0  0  0  0  0  0  0  0  0
  -26.4304   -9.6039   21.7135 N   0  0  0  0  0  0  0  0  0  0  0  0
  -25.9625  -18.1327   19.7435 N   0  0  0  0  0  0  0  0  0  0  0  0
  -25.8033  -29.1901   23.0683 N   0  0  0  0  0  0  0  0  0  0  0  0
  -21.9994  -27.5407   17.9844 N   0  0  0  0  0  0  0  0  0  0  0  0
  -22.6894  -27.5139   14.4360 N   0  3  0  0  0  0  0  0  0  0  0  0
  -29.3070  -22.3531   16.1906 N   0  3  1  0  0  0  0  0  0  0  0  0
  -27.9988  -11.2654   21.9084 O   0  0  0  0  0  0  0  0  0  0  0  0
  -25.5388  -26.9751   22.4004 O   0  0  0  0  0  0  0  0  0  0  0  0
  -22.9181  -29.2158   20.1195 O   0  0  0  0  0  0  0  0  0  0  0  0
  -23.0540  -25.9092   16.7182 O   0  0  0  0  0  0  0  0  0  0  0  0
  -24.3459  -19.6509   20.4244 O   0  0  0  0  0  0  0  0  0  0  0  0
  -21.5499   -6.9481   21.3101 O   0  0  0  0  0  0  0  0  0  0  0  0
  -29.1555  -23.6482   18.7212 O   0  0  0  0  0  0  0  0  0  1  0  0
  -23.0865   -2.7870   24.5856 F   0  0  0  0  0  0  0  0  0  0  0  0
  -26.4311  -21.8442   16.7378 F   0  0  0  0  0  0  0  0  0  0  0  0
  -19.7751   -5.8314   23.1118 F   0  0  0  0  0  0  0  0  0  0  0  0
  1  2  1  0  0  0  0
  1  5  2  0  0  0  0
  2  6  2  0  0  0  0
  3 10  2  0  0  0  0
  3 18  1  0  0  0  0
  4 11  1  0  0  0  0
  4 18  2  0  0  0  0
  5 20  1  0  0  0  0
  6 22  1  0  0  0  0
  7 12  2  0  0  0  0
  7 21  1  0  0  0  0
  8  9  2  0  0  0  0
  8 24  1  0  0  0  0
  9 25  1  0  0  0  0
 10 26  1  0  0  0  0
 11 26  2  0  0  0  0
 12 27  1  0  0  0  0
 13 14  2  0  0  0  0
 13 28  1  0  0  0  0
 14 29  1  0  0  0  0
 15 23  1  0  0  0  0
 15 27  2  0  0  0  0
 16 25  2  0  0  0  0
 16 30  1  0  0  0  0
 17 29  2  0  0  0  0
 17 31  1  0  0  0  0
 18 32  1  0  0  0  0
 19 32  1  0  0  0  0
 19 33  2  0  0  0  0
 19 34  1  0  0  0  0
 20 22  2  0  0  0  0
 20 39  1  0  0  0  0
 21 23  2  0  0  0  0
 21 40  1  0  0  0  0
 22 48  1  0  0  0  0
 23 41  1  0  0  0  0
 24 30  2  0  0  0  0
 24 57  1  0  0  0  0
 25 69  1  0  0  0  0
 26 79  1  0  0  0  0
 27 80  1  0  0  0  0
 28 31  2  0  0  0  0
 28 79  1  0  0  0  0
 29 81  1  0  0  0  0
 30 82  1  0  0  0  0
 31 83  1  0  0  0  0
 32 63  2  0  0  0  0
 33 64  1  0  0  0  0
 33 67  1  0  0  0  0
 34 68  1  0  0  0  0
 34 74  2  0  0  0  0
 35 49  1  0  0  0  0
 35 70  1  0  0  0  0
 35 75  2  0  0  0  0
 36 60  1  0  0  0  0
 36 65  1  0  0  0  0
 36 76  2  0  0  0  0
 37 61  1  0  0  0  0
 37 71  1  0  0  0  0
 37 77  2  0  0  0  0
 38 66  1  0  0  0  0
 38 69  1  0  0  0  0
 38 78  2  0  0  0  0
 39 42  1  0  0  0  0
 40 49  1  0  0  0  0
 41 65  1  0  0  0  0
 42 44  1  0  0  0  0
 43 45  1  0  0  0  0
 43 46  1  0  0  0  0
 44 48  1  0  0  0  0
 45 50  1  0  0  0  0
 46 66  1  0  0  0  0
 47 50  1  0  0  0  0
 47 66  1  0  0  0  0
 48 70  1  0  0  0  0
 49 65  1  0  0  0  0
 50 64  1  0  0  0  0
 51 61  1  0  0  0  0
 52 62  1  0  0  0  0
 53 62  1  0  0  0  0
 54 62  1  0  0  0  0
 55 72  1  0  0  0  0
 56 73  1  0  0  0  0
 57 73  1  0  0  0  0
 58 59  1  0  0  0  0
 58 73  1  0  0  0  0
 59 80  1  0  0  0  0
 60 62  1  0  0  0  0
 60 71  1  0  0  0  0
 61 72  1  0  0  0  0
 63 64  1  0  0  0  0
M  CHG  2  72   1  73   1
M  ISO  4  38 100  59 101  69 100  80 101
M  END
> <Batch ID>
0010

> <Smiles>
CNC(C)C(=O)NC(C(=O)N1Cc2cc([101O:1][101CH2:1]CN(C)Cc3ccc([100NH:0][100C:0](=O)N4CCCC(n5nc(-c6ccc(Oc7ccc(F)cc7F)cc6)c(C(N)=O)c5N)C4)cc3F)ccc2CC1C(=O)NC1CCCc2ccccc21)C(C)(C)C

> <Shape>
0.236

> <Color>
0.068

> <Negative vol penalty>
0.000

$$$$

  -OEChem-04042320403D

 81 89  0     1  0  0  0  0  0999 V2000
  -17.7155  -33.3419   18.0836 C   0  0  0  0  0  0  0  0  0  0  0  0
  -18.9138  -32.9824   17.4751 C   0  0  0  0  0  0  0  0  0  0  0  0
  -24.8012  -10.2786   22.6259 C   0  0  0  0  0  0  0  0  0  0  0  0
  -24.4888  -11.7693   24.5013 C   0  0  0  0  0  0  0  0  0  0  0  0
  -17.7254  -33.9232   19.3508 C   0  0  0  0  0  0  0  0  0  0  0  0
  -20.1229  -33.2051   18.1332 C   0  0  0  0  0  0  0  0  0  0  0  0
  -24.6112  -27.7615   19.5870 C   0  0  0  0  0  0  0  0  0  0  0  0
  -29.5131  -20.7821   21.9189 C   0  0  0  0  0  0  0  0  0  0  0  0
  -24.3855   -9.2034   23.4112 C   0  0  0  0  0  0  0  0  0  0  0  0
  -24.0729  -10.6941   25.2866 C   0  0  0  0  0  0  0  0  0  0  0  0
  -25.6185  -26.8047   19.7133 C   0  0  0  0  0  0  0  0  0  0  0  0
  -29.3851  -22.1504   22.1577 C   0  0  0  0  0  0  0  0  0  0  0  0
  -21.4645   -7.9153   24.5255 C   0  0  0  0  0  0  0  0  0  0  0  0
  -20.5567   -7.0164   23.9656 C   0  0  0  0  0  0  0  0  0  0  0  0
  -27.0248  -28.4182   20.8389 C   0  0  0  0  0  0  0  0  0  0  0  0
  -27.1423  -20.6374   21.4769 C   0  0  0  0  0  0  0  0  0  0  0  0
  -22.1505   -5.2245   24.2582 C   0  0  0  0  0  0  0  0  0  0  0  0
  -24.8529  -11.5615   23.1710 C   0  0  0  0  0  0  0  0  0  0  0  0
  -24.4755  -13.5061   21.5635 C   0  0  0  0  0  0  0  0  0  0  0  0
  -18.9346  -34.1443   20.0288 C   0  0  0  0  0  0  0  0  0  0  0  0
  -24.8012  -29.0475   20.1004 C   0  0  0  0  0  0  0  0  0  0  0  0
  -20.1490  -33.7912   19.4101 C   0  0  0  0  0  0  0  0  0  0  0  0
  -26.0146  -29.3772   20.7264 C   0  0  0  0  0  0  0  0  0  0  0  0
  -28.3917  -20.0256   21.5784 C   0  0  0  0  0  0  0  0  0  0  0  0
  -24.0213   -9.4111   24.7416 C   0  0  0  0  0  0  0  0  0  0  0  0
  -26.8224  -27.1323   20.3375 C   0  0  0  0  0  0  0  0  0  0  0  0
  -22.7154   -7.4688   24.9517 C   0  0  0  0  0  0  0  0  0  0  0  0
  -28.1357  -22.7621   22.0562 C   0  0  0  0  0  0  0  0  0  0  0  0
  -20.8997   -5.6710   23.8320 C   0  0  0  0  0  0  0  0  0  0  0  0
  -27.0143  -22.0057   21.7158 C   0  0  0  0  0  0  0  0  0  0  0  0
  -23.0584   -6.1234   24.8181 C   0  0  0  0  0  0  0  0  0  0  0  0
  -25.2829  -12.6725   22.3604 C   0  0  0  0  0  0  0  0  0  0  0  0
  -25.3542  -14.3993   21.0010 C   0  0  0  0  0  0  0  0  0  0  0  0
  -23.0579  -13.4758   21.3509 C   0  0  0  0  0  0  0  0  0  0  0  0
  -23.3724  -32.4735   20.6455 C   0  0  0  0  0  0  0  0  0  0  0  0
  -24.8881  -31.7227   23.2046 C   0  0  0  0  0  0  0  0  0  0  0  0
  -26.3005  -30.3471   25.9886 C   0  0  0  0  0  0  0  0  0  0  0  0
  -29.6878  -17.8733   21.3941 C   0  0  0  0  0  0  0  0  0  0  0  0
  -18.8980  -34.8190   21.3772 C   0  0  0  0  0  0  0  0  0  0  0  0
  -23.7676  -30.1278   19.9324 C   0  0  0  0  0  0  0  0  0  0  0  0
  -26.1880  -30.7830   21.2329 C   0  0  0  0  0  0  0  0  0  0  0  0
  -20.1981  -34.6777   22.1645 C   0  0  0  0  0  0  0  0  0  0  0  0
  -30.4150  -14.4228   20.9013 C   0  0  0  0  0  0  0  0  0  0  0  0
  -21.3979  -34.9814   21.2727 C   0  0  0  0  0  0  0  0  0  0  0  0
  -29.0782  -13.7284   21.1714 C   0  0  0  0  0  0  0  0  0  0  0  0
  -30.6319  -15.6163   21.8299 C   0  0  0  0  0  0  0  0  0  0  0  0
  -28.2019  -15.9022   22.1169 C   0  0  0  0  0  0  0  0  0  0  0  0
  -21.4794  -33.9940   20.1023 C   0  0  1  0  0  0  0  0  0  0  0  0
  -23.7025  -31.0923   21.1301 C   0  0  1  0  0  0  0  0  0  0  0  0
  -27.9093  -14.7331   21.1623 C   0  0  2  0  0  0  0  0  0  0  0  0
  -26.8460  -30.8668   28.3823 C   0  0  0  0  0  0  0  0  0  0  0  0
  -27.2368  -33.4417   22.2923 C   0  0  0  0  0  0  0  0  0  0  0  0
  -28.2509  -33.1347   24.5607 C   0  0  0  0  0  0  0  0  0  0  0  0
  -26.0517  -34.2882   24.3254 C   0  0  0  0  0  0  0  0  0  0  0  0
  -24.5818  -28.1504   26.9783 C   0  0  0  0  0  0  0  0  0  0  0  0
  -28.6649  -26.3010   21.5911 C   0  0  0  0  0  0  0  0  0  1  0  0
  -29.1408  -24.9163   21.9857 C   0  0  0  0  0  0  0  0  0  0  0  0
  -26.1840  -31.7882   23.9726 C   0  0  1  0  0  0  0  0  0  0  0  0
  -25.8232  -30.2708   27.4276 C   0  0  2  0  0  0  0  0  0  0  0  0
  -26.9242  -33.1407   23.7717 C   0  0  0  0  0  0  0  0  0  0  0  0
  -26.5752  -13.0063   22.3111 N   0  0  0  0  0  0  0  0  0  0  0  0
  -26.5866  -14.0595   21.4764 N   0  0  0  0  0  0  0  0  0  0  0  0
  -24.9536  -31.2347   21.8939 N   0  0  0  0  0  0  0  0  0  0  0  0
  -29.4868  -16.5270   21.7655 N   0  0  0  0  0  0  0  0  0  0  0  0
  -25.1853  -15.4344   20.1511 N   0  0  0  0  0  0  0  0  0  0  0  0
  -22.3048  -12.4921   22.0063 N   0  0  0  0  0  0  0  0  0  0  0  0
  -28.5216  -18.6356   21.3358 N   0  0  0  0  0  0  0  0  0  0  0  0
  -22.0175  -32.7263   20.5470 N   0  0  0  0  0  0  0  0  0  0  0  0
  -25.8510  -31.4898   25.3613 N   0  0  0  0  0  0  0  0  0  0  0  0
  -25.5846  -28.8529   27.8197 N   0  3  0  0  0  0  0  0  0  0  0  0
  -22.4784  -14.2864   20.5889 O   0  0  0  0  0  0  0  0  0  0  0  0
  -24.2795  -33.2539   20.3813 O   0  0  0  0  0  0  0  0  0  0  0  0
  -23.8455  -32.0986   23.7477 O   0  0  0  0  0  0  0  0  0  0  0  0
  -27.0049  -29.4816   25.4736 O   0  0  0  0  0  0  0  0  0  0  0  0
  -30.8084  -18.3104   21.1197 O   0  0  0  0  0  0  0  0  0  0  0  0
  -23.6153   -8.3622   25.5081 O   0  0  0  0  0  0  0  0  0  0  0  0
  -27.7998  -26.1921   20.4615 O   0  0  0  0  0  0  0  0  0  1  0  0
  -28.0119  -24.1064   22.2905 O   0  0  0  0  0  0  0  0  0  0  0  0
  -20.0272   -4.8077   23.2957 F   0  0  0  0  0  0  0  0  0  0  0  0
  -25.8115  -22.5881   21.6156 F   0  0  0  0  0  0  0  0  0  0  0  0
  -24.2582   -5.6883   25.2268 F   0  0  0  0  0  0  0  0  0  0  0  0
  1  2  1  0  0  0  0
  1  5  2  0  0  0  0
  2  6  2  0  0  0  0
  3  9  2  0  0  0  0
  3 18  1  0  0  0  0
  4 10  1  0  0  0  0
  4 18  2  0  0  0  0
  5 20  1  0  0  0  0
  6 22  1  0  0  0  0
  7 11  2  0  0  0  0
  7 21  1  0  0  0  0
  8 12  2  0  0  0  0
  8 24  1  0  0  0  0
  9 25  1  0  0  0  0
 10 25  2  0  0  0  0
 11 26  1  0  0  0  0
 12 28  1  0  0  0  0
 13 14  2  0  0  0  0
 13 27  1  0  0  0  0
 14 29  1  0  0  0  0
 15 23  1  0  0  0  0
 15 26  2  0  0  0  0
 16 24  2  0  0  0  0
 16 30  1  0  0  0  0
 17 29  2  0  0  0  0
 17 31  1  0  0  0  0
 18 32  1  0  0  0  0
 19 32  1  0  0  0  0
 19 33  2  0  0  0  0
 19 34  1  0  0  0  0
 20 22  2  0  0  0  0
 20 39  1  0  0  0  0
 21 23  2  0  0  0  0
 21 40  1  0  0  0  0
 22 48  1  0  0  0  0
 23 41  1  0  0  0  0
 24 67  1  0  0  0  0
 25 76  1  0  0  0  0
 26 77  1  0  0  0  0
 27 31  2  0  0  0  0
 27 76  1  0  0  0  0
 28 30  2  0  0  0  0
 28 78  1  0  0  0  0
 29 79  1  0  0  0  0
 30 80  1  0  0  0  0
 31 81  1  0  0  0  0
 32 61  2  0  0  0  0
 33 62  1  0  0  0  0
 33 65  1  0  0  0  0
 34 66  1  0  0  0  0
 34 71  2  0  0  0  0
 35 49  1  0  0  0  0
 35 68  1  0  0  0  0
 35 72  2  0  0  0  0
 36 58  1  0  0  0  0
 36 63  1  0  0  0  0
 36 73  2  0  0  0  0
 37 59  1  0  0  0  0
 37 69  1  0  0  0  0
 37 74  2  0  0  0  0
 38 64  1  0  0  0  0
 38 67  1  0  0  0  0
 38 75  2  0  0  0  0
 39 42  1  0  0  0  0
 40 49  1  0  0  0  0
 41 63  1  0  0  0  0
 42 44  1  0  0  0  0
 43 45  1  0  0  0  0
 43 46  1  0  0  0  0
 44 48  1  0  0  0  0
 45 50  1  0  0  0  0
 46 64  1  0  0  0  0
 47 50  1  0  0  0  0
 47 64  1  0  0  0  0
 48 68  1  0  0  0  0
 49 63  1  0  0  0  0
 50 62  1  0  0  0  0
 51 59  1  0  0  0  0
 52 60  1  0  0  0  0
 53 60  1  0  0  0  0
 54 60  1  0  0  0  0
 55 70  1  0  0  0  0
 56 57  1  0  0  0  0
 56 77  1  0  0  0  0
 57 78  1  0  0  0  0
 58 60  1  0  0  0  0
 58 69  1  0  0  0  0
 59 70  1  0  0  0  0
 61 62  1  0  0  0  0
M  CHG  1  70   1
M  ISO  4  38 100  56 101  67 100  77 101
M  END
> <Batch ID>
0010

> <Smiles>
CNC(C)C(=O)NC(C(=O)N1Cc2cc([101O:1][101CH2:1]COc3ccc([100NH:0][100C:0](=O)N4CCCC(n5nc(-c6ccc(Oc7ccc(F)cc7F)cc6)c(C(N)=O)c5N)C4)cc3F)ccc2CC1C(=O)NC1CCCc2ccccc21)C(C)(C)C

> <Shape>
0.265

> <Color>
0.145

> <Negative vol penalty>
0.000

$$$$

  -OEChem-04042320403D

 87 96  0     1  0  0  0  0  0999 V2000
  -23.3427  -35.9157   18.3498 C   0  0  0  0  0  0  0  0  0  0  0  0
  -24.3631  -34.9872   18.5290 C   0  0  0  0  0  0  0  0  0  0  0  0
  -26.7073  -12.2030   21.8502 C   0  0  0  0  0  0  0  0  0  0  0  0
  -25.8750  -13.9197   20.3678 C   0  0  0  0  0  0  0  0  0  0  0  0
  -22.3948  -36.1104   19.3536 C   0  0  0  0  0  0  0  0  0  0  0  0
  -24.4368  -34.2537   19.7126 C   0  0  0  0  0  0  0  0  0  0  0  0
  -25.3579  -29.3409   18.8992 C   0  0  0  0  0  0  0  0  0  0  0  0
  -31.4555  -23.0739   20.8871 C   0  0  0  0  0  0  0  0  0  0  0  0
  -31.1465  -22.0008   21.7230 C   0  0  0  0  0  0  0  0  0  0  0  0
  -25.4410  -11.6193   21.8852 C   0  0  0  0  0  0  0  0  0  0  0  0
  -24.6087  -13.3359   20.4027 C   0  0  0  0  0  0  0  0  0  0  0  0
  -26.6714  -28.9800   18.6023 C   0  0  0  0  0  0  0  0  0  0  0  0
  -23.5611   -9.6267   19.9031 C   0  0  0  0  0  0  0  0  0  0  0  0
  -23.4820   -8.2411   19.7638 C   0  0  0  0  0  0  0  0  0  0  0  0
  -26.9902  -28.2814   20.8891 C   0  0  0  0  0  0  0  0  0  0  0  0
  -29.5261  -22.5678   19.5240 C   0  0  0  0  0  0  0  0  0  0  0  0
  -22.4354   -8.0826   21.9356 C   0  0  0  0  0  0  0  0  0  0  0  0
  -26.9243  -13.3533   21.0915 C   0  0  0  0  0  0  0  0  0  0  0  0
  -29.2723  -13.6787   20.1487 C   0  0  0  0  0  0  0  0  0  0  0  0
  -22.4513  -35.3720   20.5461 C   0  0  0  0  0  0  0  0  0  0  0  0
  -24.8532  -29.1846   20.1982 C   0  0  0  0  0  0  0  0  0  0  0  0
  -23.4895  -34.4396   20.7338 C   0  0  0  0  0  0  0  0  0  0  0  0
  -25.6691  -28.6387   21.1993 C   0  0  0  0  0  0  0  0  0  0  0  0
  -30.6453  -23.3574   19.7877 C   0  0  0  0  0  0  0  0  0  0  0  0
  -29.2171  -21.4947   20.3598 C   0  0  0  0  0  0  0  0  0  0  0  0
  -30.0273  -21.2112   21.4593 C   0  0  0  0  0  0  0  0  0  0  0  0
  -24.3917  -12.1856   21.1614 C   0  0  0  0  0  0  0  0  0  0  0  0
  -27.4887  -28.4529   19.5979 C   0  0  0  0  0  0  0  0  0  0  0  0
  -23.0774  -10.2403   21.0587 C   0  0  0  0  0  0  0  0  0  0  0  0
  -22.9191   -7.4690   20.7800 C   0  0  0  0  0  0  0  0  0  0  0  0
  -22.5145   -9.4682   22.0749 C   0  0  0  0  0  0  0  0  0  0  0  0
  -28.2320  -13.9571   21.0555 C   0  0  0  0  0  0  0  0  0  0  0  0
  -30.2957  -14.5093   20.5347 C   0  0  0  0  0  0  0  0  0  0  0  0
  -29.3099  -12.7520   19.0553 C   0  0  0  0  0  0  0  0  0  0  0  0
  -23.7215  -31.1588   22.4176 C   0  0  0  0  0  0  0  0  0  0  0  0
  -23.0533  -28.3952   23.9790 C   0  0  0  0  0  0  0  0  0  0  0  0
  -23.7445  -25.0842   24.4335 C   0  0  0  0  0  0  0  0  0  0  0  0
  -30.4429  -19.7235   23.4494 C   0  0  0  0  0  0  0  0  0  0  0  0
  -21.4317  -35.6511   21.6218 C   0  0  0  0  0  0  0  0  0  0  0  0
  -23.4258  -29.5538   20.4959 C   0  0  0  0  0  0  0  0  0  0  0  0
  -25.1689  -28.4318   22.6048 C   0  0  0  0  0  0  0  0  0  0  0  0
  -21.3626  -34.5650   22.6922 C   0  0  0  0  0  0  0  0  0  0  0  0
  -32.0807  -16.7074   24.3968 C   0  0  0  0  0  0  0  0  0  0  0  0
  -28.7542  -18.1692   17.4315 C   0  0  0  0  0  0  0  0  0  0  0  0
  -27.2677  -18.0811   17.7130 C   0  0  0  0  0  0  0  0  0  0  0  0
  -22.7647  -34.1797   23.1531 C   0  0  0  0  0  0  0  0  0  0  0  0
  -31.3784  -15.6353   23.5605 C   0  0  0  0  0  0  0  0  0  0  0  0
  -31.1091  -17.7907   24.8619 C   0  0  0  0  0  0  0  0  0  0  0  0
  -29.6120  -17.3394   22.9582 C   0  0  0  0  0  0  0  0  0  0  0  0
  -29.1593  -19.4172   18.1860 C   0  0  0  0  0  0  0  0  0  0  0  0
  -27.1480  -18.4495   19.1814 C   0  0  0  0  0  0  0  0  0  0  0  0
  -23.5887  -33.6069   21.9935 C   0  0  1  0  0  0  0  0  0  0  0  0
  -23.1763  -29.8303   21.9754 C   0  0  1  0  0  0  0  0  0  0  0  0
  -30.5623  -16.2611   22.4125 C   0  0  2  0  0  0  0  0  0  0  0  0
  -23.0584  -23.0990   25.8066 C   0  0  0  0  0  0  0  0  0  0  0  0
  -24.5855  -29.5197   26.3661 C   0  0  0  0  0  0  0  0  0  0  0  0
  -24.6861  -27.2010   27.3051 C   0  0  0  0  0  0  0  0  0  0  0  0
  -22.4784  -28.3085   26.9557 C   0  0  0  0  0  0  0  0  0  0  0  0
  -22.9052  -23.5686   22.0341 C   0  0  0  0  0  0  0  0  0  0  0  0
  -28.0137  -20.6638   20.0516 C   0  0  0  0  0  0  0  0  0  0  0  0
  -30.9792  -24.5102   18.8873 C   0  0  0  0  0  0  0  0  0  0  0  0
  -30.2255  -26.7153   17.9882 C   0  0  0  0  0  0  0  0  0  0  0  0
  -29.0424  -27.6631   17.9799 C   0  0  0  0  0  0  0  0  0  1  0  0
  -23.7956  -27.5099   24.9508 C   0  0  1  0  0  0  0  0  0  0  0  0
  -22.8396  -23.8679   24.5129 C   0  0  2  0  0  0  0  0  0  0  0  0
  -23.8967  -28.1404   26.3685 C   0  0  0  0  0  0  0  0  0  0  0  0
  -28.5643  -14.8915   21.9502 N   0  0  0  0  0  0  0  0  0  0  0  0
  -29.8248  -15.2074   21.6076 N   0  0  0  0  0  0  0  0  0  0  0  0
  -23.7681  -28.8141   22.8479 N   0  0  0  0  0  0  0  0  0  0  0  0
  -30.3745  -18.3406   23.7205 N   0  0  0  0  0  0  0  0  0  0  0  0
  -31.5436  -14.7034   20.0576 N   0  0  0  0  0  0  0  0  0  0  0  0
  -28.1715  -11.9763   18.7973 N   0  0  0  0  0  0  0  0  0  0  0  0
  -29.7303  -20.1256   22.3202 N   0  0  0  0  0  0  0  0  0  0  0  0
  -23.2029  -32.2377   21.7273 N   0  0  0  0  0  0  0  0  0  0  0  0
  -23.1235  -26.2154   24.9191 N   0  0  0  0  0  0  0  0  0  0  0  0
  -28.3506  -19.3321   19.4618 N   0  3  0  0  0  0  0  0  0  0  0  0
  -23.1048  -22.9495   23.3697 N   0  3  0  0  0  0  0  0  0  0  0  0
  -29.9000  -25.5326   18.8247 N   0  3  0  0  0  0  0  0  0  0  0  0
  -30.3288  -12.6042   18.3387 O   0  0  0  0  0  0  0  0  0  0  0  0
  -24.5502  -31.2019   23.3193 O   0  0  0  0  0  0  0  0  0  0  0  0
  -21.8802  -28.6978   24.2113 O   0  0  0  0  0  0  0  0  0  0  0  0
  -24.8892  -25.0349   23.9888 O   0  0  0  0  0  0  0  0  0  0  0  0
  -31.1083  -20.4901   24.1504 O   0  0  0  0  0  0  0  0  0  0  0  0
  -23.1559  -11.6161   21.1951 O   0  0  0  0  0  0  0  0  0  0  0  0
  -28.7714  -28.1004   19.3109 O   0  0  0  0  0  0  0  0  0  1  0  0
  -22.8418   -6.1386   20.6455 F   0  0  0  0  0  0  0  0  0  0  0  0
  -22.0471  -10.0521   23.1868 F   0  0  0  0  0  0  0  0  0  0  0  0
  1  2  1  0  0  0  0
  1  5  2  0  0  0  0
  2  6  2  0  0  0  0
  3 10  2  0  0  0  0
  3 18  1  0  0  0  0
  4 11  1  0  0  0  0
  4 18  2  0  0  0  0
  5 20  1  0  0  0  0
  6 22  1  0  0  0  0
  7 12  2  0  0  0  0
  7 21  1  0  0  0  0
  8  9  2  0  0  0  0
  8 24  1  0  0  0  0
  9 26  1  0  0  0  0
 10 27  1  0  0  0  0
 11 27  2  0  0  0  0
 12 28  1  0  0  0  0
 13 14  2  0  0  0  0
 13 29  1  0  0  0  0
 14 30  1  0  0  0  0
 15 23  1  0  0  0  0
 15 28  2  0  0  0  0
 16 24  2  0  0  0  0
 16 25  1  0  0  0  0
 17 30  2  0  0  0  0
 17 31  1  0  0  0  0
 18 32  1  0  0  0  0
 19 32  1  0  0  0  0
 19 33  2  0  0  0  0
 19 34  1  0  0  0  0
 20 22  2  0  0  0  0
 20 39  1  0  0  0  0
 21 23  2  0  0  0  0
 21 40  1  0  0  0  0
 22 52  1  0  0  0  0
 23 41  1  0  0  0  0
 24 61  1  0  0  0  0
 25 26  2  0  0  0  0
 25 60  1  0  0  0  0
 26 73  1  0  0  0  0
 27 84  1  0  0  0  0
 28 85  1  0  0  0  0
 29 31  2  0  0  0  0
 29 84  1  0  0  0  0
 30 86  1  0  0  0  0
 31 87  1  0  0  0  0
 32 67  2  0  0  0  0
 33 68  1  0  0  0  0
 33 71  1  0  0  0  0
 34 72  1  0  0  0  0
 34 79  2  0  0  0  0
 35 53  1  0  0  0  0
 35 74  1  0  0  0  0
 35 80  2  0  0  0  0
 36 64  1  0  0  0  0
 36 69  1  0  0  0  0
 36 81  2  0  0  0  0
 37 65  1  0  0  0  0
 37 75  1  0  0  0  0
 37 82  2  0  0  0  0
 38 70  1  0  0  0  0
 38 73  1  0  0  0  0
 38 83  2  0  0  0  0
 39 42  1  0  0  0  0
 40 53  1  0  0  0  0
 41 69  1  0  0  0  0
 42 46  1  0  0  0  0
 43 47  1  0  0  0  0
 43 48  1  0  0  0  0
 44 45  1  0  0  0  0
 44 50  1  0  0  0  0
 45 51  1  0  0  0  0
 46 52  1  0  0  0  0
 47 54  1  0  0  0  0
 48 70  1  0  0  0  0
 49 54  1  0  0  0  0
 49 70  1  0  0  0  0
 50 76  1  0  0  0  0
 51 76  1  0  0  0  0
 52 74  1  0  0  0  0
 53 69  1  0  0  0  0
 54 68  1  0  0  0  0
 55 65  1  0  0  0  0
 56 66  1  0  0  0  0
 57 66  1  0  0  0  0
 58 66  1  0  0  0  0
 59 77  1  0  0  0  0
 60 76  1  0  0  0  0
 61 78  1  0  0  0  0
 62 63  1  0  0  0  0
 62 78  1  0  0  0  0
 63 85  1  0  0  0  0
 64 66  1  0  0  0  0
 64 75  1  0  0  0  0
 65 77  1  0  0  0  0
 67 68  1  0  0  0  0
M  CHG  3  76   1  77   1  78   1
M  ISO  4  38 100  63 101  73 100  85 101
M  END
> <Batch ID>
0010

> <Smiles>
CNC(C)C(=O)NC(C(=O)N1Cc2cc([101O:1][101CH2:1]CNCc3ccc([100NH:0][100C:0](=O)N4CCCC(n5nc(-c6ccc(Oc7ccc(F)cc7F)cc6)c(C(N)=O)c5N)C4)c(CN4CCCC4)c3)ccc2CC1C(=O)NC1CCCc2ccccc21)C(C)(C)C

> <Shape>
0.267

> <Color>
0.064

> <Negative vol penalty>
0.000

$$$$

  -OEChem-04042320403D

 81 89  0     1  0  0  0  0  0999 V2000
  -31.5969  -34.6964   23.5488 C   0  0  0  0  0  0  0  0  0  0  0  0
  -31.3925  -33.5403   22.8025 C   0  0  0  0  0  0  0  0  0  0  0  0
  -22.4937  -10.3175   20.9487 C   0  0  0  0  0  0  0  0  0  0  0  0
  -24.4655   -9.0496   21.5330 C   0  0  0  0  0  0  0  0  0  0  0  0
  -30.7669  -34.9811   24.6324 C   0  0  0  0  0  0  0  0  0  0  0  0
  -30.3586  -32.6676   23.1400 C   0  0  0  0  0  0  0  0  0  0  0  0
  -26.9501  -29.3361   19.2943 C   0  0  0  0  0  0  0  0  0  0  0  0
  -27.4147  -20.9252   18.9896 C   0  0  0  0  0  0  0  0  0  0  0  0
  -21.7287   -9.1524   21.0019 C   0  0  0  0  0  0  0  0  0  0  0  0
  -23.7005   -7.8844   21.5862 C   0  0  0  0  0  0  0  0  0  0  0  0
  -27.0192  -28.0021   18.8950 C   0  0  0  0  0  0  0  0  0  0  0  0
  -27.2813  -19.5377   19.0418 C   0  0  0  0  0  0  0  0  0  0  0  0
  -21.5636   -6.4062   23.7470 C   0  0  0  0  0  0  0  0  0  0  0  0
  -21.7626   -5.5510   24.8308 C   0  0  0  0  0  0  0  0  0  0  0  0
  -25.3762  -27.4237   20.5638 C   0  0  0  0  0  0  0  0  0  0  0  0
  -25.3928  -21.0701   17.6750 C   0  0  0  0  0  0  0  0  0  0  0  0
  -22.4006   -3.7800   23.3163 C   0  0  0  0  0  0  0  0  0  0  0  0
  -23.8622  -10.2661   21.2142 C   0  0  0  0  0  0  0  0  0  0  0  0
  -24.9155  -12.3633   22.2141 C   0  0  0  0  0  0  0  0  0  0  0  0
  -29.7163  -34.1164   24.9774 C   0  0  0  0  0  0  0  0  0  0  0  0
  -26.1002  -29.7228   20.3404 C   0  0  0  0  0  0  0  0  0  0  0  0
  -29.5146  -32.9403   24.2300 C   0  0  0  0  0  0  0  0  0  0  0  0
  -25.2962  -28.7637   20.9728 C   0  0  0  0  0  0  0  0  0  0  0  0
  -25.2595  -19.6826   17.7271 C   0  0  0  0  0  0  0  0  0  0  0  0
  -26.4704  -21.6914   18.3063 C   0  0  0  0  0  0  0  0  0  0  0  0
  -22.3321   -7.9358   21.3206 C   0  0  0  0  0  0  0  0  0  0  0  0
  -26.2343  -27.0452   19.5317 C   0  0  0  0  0  0  0  0  0  0  0  0
  -26.2037  -18.9164   18.4105 C   0  0  0  0  0  0  0  0  0  0  0  0
  -21.7831   -5.9483   22.4478 C   0  0  0  0  0  0  0  0  0  0  0  0
  -22.1811   -4.2380   24.6155 C   0  0  0  0  0  0  0  0  0  0  0  0
  -22.2016   -4.6352   22.2325 C   0  0  0  0  0  0  0  0  0  0  0  0
  -24.6531  -11.4692   21.1589 C   0  0  0  0  0  0  0  0  0  0  0  0
  -25.7076  -13.3346   21.6523 C   0  0  0  0  0  0  0  0  0  0  0  0
  -24.4821  -12.3197   23.5802 C   0  0  0  0  0  0  0  0  0  0  0  0
  -26.5223  -31.0289   23.2074 C   0  0  0  0  0  0  0  0  0  0  0  0
  -23.2797  -31.1168   23.2144 C   0  0  0  0  0  0  0  0  0  0  0  0
  -20.3444  -29.8458   22.0247 C   0  0  0  0  0  0  0  0  0  0  0  0
  -26.7248  -16.8483   17.4306 C   0  0  0  0  0  0  0  0  0  0  0  0
  -28.8749  -34.4423   26.1859 C   0  0  0  0  0  0  0  0  0  0  0  0
  -26.0174  -31.1701   20.7414 C   0  0  0  0  0  0  0  0  0  0  0  0
  -24.3524  -29.1305   22.0877 C   0  0  0  0  0  0  0  0  0  0  0  0
  -27.5681  -33.6558   26.2484 C   0  0  0  0  0  0  0  0  0  0  0  0
  -28.0508  -13.5109   17.1817 C   0  0  0  0  0  0  0  0  0  0  0  0
  -27.8195  -32.1792   25.9599 C   0  0  0  0  0  0  0  0  0  0  0  0
  -27.2773  -12.7484   18.2570 C   0  0  0  0  0  0  0  0  0  0  0  0
  -27.1869  -14.5837   16.5262 C   0  0  0  0  0  0  0  0  0  0  0  0
  -25.8064  -14.7873   18.5769 C   0  0  0  0  0  0  0  0  0  0  0  0
  -28.3883  -31.9816   24.5496 C   0  0  1  0  0  0  0  0  0  0  0  0
  -25.4976  -31.3678   22.1620 C   0  0  1  0  0  0  0  0  0  0  0  0
  -26.6558  -13.7151   19.2809 C   0  0  1  0  0  0  0  0  0  0  0  0
  -24.0992  -19.0341   17.0468 C   0  0  0  0  0  0  0  0  0  0  0  0
  -17.8571  -30.0955   22.2440 C   0  0  0  0  0  0  0  0  0  0  0  0
  -23.3704  -29.6483   25.8874 C   0  0  0  0  0  0  0  0  0  0  0  0
  -20.9471  -29.0955   25.5867 C   0  0  0  0  0  0  0  0  0  0  0  0
  -21.6693  -31.4770   25.7590 C   0  0  0  0  0  0  0  0  0  0  0  0
  -20.0486  -30.5673   19.1698 C   0  0  0  0  0  0  0  0  0  0  0  0
  -27.6866  -23.7935   18.8789 C   0  0  0  0  0  0  0  0  0  0  0  0
  -27.5447  -25.2836   18.6175 C   0  0  0  0  0  0  0  0  0  1  0  0
  -22.1856  -30.1744   23.6546 C   0  0  1  0  0  0  0  0  0  0  0  0
  -19.1003  -30.5240   21.4801 C   0  0  2  0  0  0  0  0  0  0  0  0
  -22.0622  -30.0913   25.2022 C   0  0  0  0  0  0  0  0  0  0  0  0
  -25.2313  -11.8397   20.0133 N   0  0  0  0  0  0  0  0  0  0  0  0
  -25.8650  -12.9774   20.3455 N   0  0  0  0  0  0  0  0  0  0  0  0
  -24.3119  -30.5575   22.4479 N   0  0  0  0  0  0  0  0  0  0  0  0
  -26.5837  -15.4603   17.5293 N   0  0  0  0  0  0  0  0  0  0  0  0
  -26.2778  -14.4509   22.1535 N   0  0  0  0  0  0  0  0  0  0  0  0
  -23.6728  -11.2516   23.9906 N   0  0  0  0  0  0  0  0  0  0  0  0
  -26.6033  -23.0691   18.2546 N   0  0  0  0  0  0  0  0  0  0  0  0
  -27.3367  -32.0878   23.5611 N   0  0  0  0  0  0  0  0  0  0  0  0
  -20.9697  -30.6175   22.9811 N   0  0  0  0  0  0  0  0  0  0  0  0
  -18.9103  -30.1804   20.0425 N   0  3  0  0  0  0  0  0  0  0  0  0
  -24.7896  -13.2104   24.4081 O   0  0  0  0  0  0  0  0  0  0  0  0
  -26.5697  -29.8914   23.6607 O   0  0  0  0  0  0  0  0  0  0  0  0
  -23.2170  -32.3070   23.5326 O   0  0  0  0  0  0  0  0  0  0  0  0
  -20.7216  -28.7401   21.6428 O   0  0  0  0  0  0  0  0  0  0  0  0
  -27.3409  -17.4191   16.5314 O   0  0  0  0  0  0  0  0  0  0  0  0
  -21.5859   -6.7987   21.3729 O   0  0  0  0  0  0  0  0  0  0  0  0
  -26.0855  -17.5243   18.4736 O   0  0  0  0  0  0  0  0  0  0  0  0
  -26.3003  -25.7423   19.1443 O   0  0  0  0  0  0  0  0  0  1  0  0
  -22.3736   -3.4173   25.6565 F   0  0  0  0  0  0  0  0  0  0  0  0
  -22.4153   -4.1900   20.9867 F   0  0  0  0  0  0  0  0  0  0  0  0
  1  2  1  0  0  0  0
  1  5  2  0  0  0  0
  2  6  2  0  0  0  0
  3  9  2  0  0  0  0
  3 18  1  0  0  0  0
  4 10  1  0  0  0  0
  4 18  2  0  0  0  0
  5 20  1  0  0  0  0
  6 22  1  0  0  0  0
  7 11  2  0  0  0  0
  7 21  1  0  0  0  0
  8 12  2  0  0  0  0
  8 25  1  0  0  0  0
  9 26  1  0  0  0  0
 10 26  2  0  0  0  0
 11 27  1  0  0  0  0
 12 28  1  0  0  0  0
 13 14  2  0  0  0  0
 13 29  1  0  0  0  0
 14 30  1  0  0  0  0
 15 23  1  0  0  0  0
 15 27  2  0  0  0  0
 16 24  1  0  0  0  0
 16 25  2  0  0  0  0
 17 30  2  0  0  0  0
 17 31  1  0  0  0  0
 18 32  1  0  0  0  0
 19 32  1  0  0  0  0
 19 33  2  0  0  0  0
 19 34  1  0  0  0  0
 20 22  2  0  0  0  0
 20 39  1  0  0  0  0
 21 23  2  0  0  0  0
 21 40  1  0  0  0  0
 22 48  1  0  0  0  0
 23 41  1  0  0  0  0
 24 28  2  0  0  0  0
 24 51  1  0  0  0  0
 25 68  1  0  0  0  0
 26 77  1  0  0  0  0
 27 79  1  0  0  0  0
 28 78  1  0  0  0  0
 29 31  2  0  0  0  0
 29 77  1  0  0  0  0
 30 80  1  0  0  0  0
 31 81  1  0  0  0  0
 32 62  2  0  0  0  0
 33 63  1  0  0  0  0
 33 66  1  0  0  0  0
 34 67  1  0  0  0  0
 34 72  2  0  0  0  0
 35 49  1  0  0  0  0
 35 69  1  0  0  0  0
 35 73  2  0  0  0  0
 36 59  1  0  0  0  0
 36 64  1  0  0  0  0
 36 74  2  0  0  0  0
 37 60  1  0  0  0  0
 37 70  1  0  0  0  0
 37 75  2  0  0  0  0
 38 65  1  0  0  0  0
 38 76  2  0  0  0  0
 38 78  1  0  0  0  0
 39 42  1  0  0  0  0
 40 49  1  0  0  0  0
 41 64  1  0  0  0  0
 42 44  1  0  0  0  0
 43 45  1  0  0  0  0
 43 46  1  0  0  0  0
 44 48  1  0  0  0  0
 45 50  1  0  0  0  0
 46 65  1  0  0  0  0
 47 50  1  0  0  0  0
 47 65  1  0  0  0  0
 48 69  1  0  0  0  0
 49 64  1  0  0  0  0
 50 63  1  0  0  0  0
 52 60  1  0  0  0  0
 53 61  1  0  0  0  0
 54 61  1  0  0  0  0
 55 61  1  0  0  0  0
 56 71  1  0  0  0  0
 57 58  1  0  0  0  0
 57 68  1  0  0  0  0
 58 79  1  0  0  0  0
 59 61  1  0  0  0  0
 59 70  1  0  0  0  0
 60 71  1  0  0  0  0
 62 63  1  0  0  0  0
M  CHG  1  71   1
M  ISO  4  38 100  58 101  78 100  79 101
M  END
> <Batch ID>
0010

> <Smiles>
CNC(C)C(=O)NC(C(=O)N1Cc2cc([101O:1][101CH2:1]CNc3ccc([100O:0][100C:0](=O)N4CCCC(n5nc(-c6ccc(Oc7ccc(F)cc7F)cc6)c(C(N)=O)c5N)C4)c(C)c3)ccc2CC1C(=O)NC1CCCc2ccccc21)C(C)(C)C

> <Shape>
0.250

> <Color>
0.138

> <Negative vol penalty>
0.000

$$$$

  -OEChem-04042320403D

 81 89  0     1  0  0  0  0  0999 V2000
  -22.5261  -31.4839   18.3922 C   0  0  0  0  0  0  0  0  0  0  0  0
  -22.8065  -30.2829   17.7485 C   0  0  0  0  0  0  0  0  0  0  0  0
  -30.4665  -15.7134   23.8165 C   0  0  0  0  0  0  0  0  0  0  0  0
  -23.3301  -16.2564   20.7248 C   0  0  0  0  0  0  0  0  0  0  0  0
  -22.6781  -14.7633   18.9408 C   0  0  0  0  0  0  0  0  0  0  0  0
  -30.7001  -14.8296   22.7630 C   0  0  0  0  0  0  0  0  0  0  0  0
  -22.9754  -31.6968   19.6948 C   0  0  0  0  0  0  0  0  0  0  0  0
  -23.5373  -29.2944   18.4067 C   0  0  0  0  0  0  0  0  0  0  0  0
  -24.1282  -22.1710   18.8801 C   0  0  0  0  0  0  0  0  0  0  0  0
  -30.3506  -17.0808   23.5671 C   0  0  0  0  0  0  0  0  0  0  0  0
  -22.3747  -17.1800   20.3009 C   0  0  0  0  0  0  0  0  0  0  0  0
  -21.7226  -15.6869   18.5169 C   0  0  0  0  0  0  0  0  0  0  0  0
  -25.0868  -21.1620   18.7982 C   0  0  0  0  0  0  0  0  0  0  0  0
  -19.8608  -19.7764   19.9082 C   0  0  0  0  0  0  0  0  0  0  0  0
  -19.0623  -20.3765   20.8817 C   0  0  0  0  0  0  0  0  0  0  0  0
  -30.7016  -16.6805   21.2105 C   0  0  0  0  0  0  0  0  0  0  0  0
  -25.7436  -21.6094   21.0758 C   0  0  0  0  0  0  0  0  0  0  0  0
  -18.2313  -18.2052   21.5387 C   0  0  0  0  0  0  0  0  0  0  0  0
  -23.4819  -15.0480   20.0447 C   0  0  0  0  0  0  0  0  0  0  0  0
  -30.8176  -15.3132   21.4600 C   0  0  0  0  0  0  0  0  0  0  0  0
  -24.2925  -13.0551   21.4153 C   0  0  0  0  0  0  0  0  0  0  0  0
  -23.7038  -30.7067   20.3728 C   0  0  0  0  0  0  0  0  0  0  0  0
  -23.9773  -22.9154   20.0589 C   0  0  0  0  0  0  0  0  0  0  0  0
  -23.9979  -29.4948   19.7191 C   0  0  0  0  0  0  0  0  0  0  0  0
  -24.7807  -22.6256   21.1710 C   0  0  0  0  0  0  0  0  0  0  0  0
  -30.4681  -17.5644   22.2640 C   0  0  0  0  0  0  0  0  0  0  0  0
  -21.5709  -16.8953   19.1970 C   0  0  0  0  0  0  0  0  0  0  0  0
  -25.8967  -20.8829   19.8952 C   0  0  0  0  0  0  0  0  0  0  0  0
  -19.8445  -18.3906   19.7498 C   0  0  0  0  0  0  0  0  0  0  0  0
  -18.2476  -19.5910   21.6970 C   0  0  0  0  0  0  0  0  0  0  0  0
  -19.0298  -17.6050   20.5651 C   0  0  0  0  0  0  0  0  0  0  0  0
  -24.4691  -14.0938   20.4817 C   0  0  0  0  0  0  0  0  0  0  0  0
  -25.5189  -12.4400   21.4807 C   0  0  0  0  0  0  0  0  0  0  0  0
  -31.0645  -14.3822   20.3512 C   0  0  0  0  0  0  0  0  0  0  0  0
  -23.1243  -12.6796   22.1570 C   0  0  0  0  0  0  0  0  0  0  0  0
  -24.2908  -25.9830   20.8303 C   0  0  0  0  0  0  0  0  0  0  0  0
  -23.1221  -24.9821   23.6859 C   0  0  0  0  0  0  0  0  0  0  0  0
  -22.6638  -22.4176   25.8904 C   0  0  0  0  0  0  0  0  0  0  0  0
  -24.2090  -31.0011   21.7630 C   0  0  0  0  0  0  0  0  0  0  0  0
  -22.9205  -23.9826   20.1399 C   0  0  0  0  0  0  0  0  0  0  0  0
  -24.6446  -23.3821   22.4662 C   0  0  0  0  0  0  0  0  0  0  0  0
  -24.6554  -29.7561   22.5252 C   0  0  0  0  0  0  0  0  0  0  0  0
  -29.4315  -11.5791   18.8622 C   0  0  0  0  0  0  0  0  0  0  0  0
  -25.5354  -28.8767   21.6426 C   0  0  0  0  0  0  0  0  0  0  0  0
  -27.9538  -11.8170   19.1785 C   0  0  0  0  0  0  0  0  0  0  0  0
  -30.1690  -12.8891   18.5967 C   0  0  0  0  0  0  0  0  0  0  0  0
  -28.5534  -14.1377   19.9879 C   0  0  0  0  0  0  0  0  0  0  0  0
  -24.7665  -28.3886   20.4088 C   0  0  1  0  0  0  0  0  0  0  0  0
  -23.2030  -25.0225   21.2199 C   0  0  1  0  0  0  0  0  0  0  0  0
  -27.7847  -12.8462   20.3119 C   0  0  1  0  0  0  0  0  0  0  0  0
  -21.7094  -21.9143   28.1561 C   0  0  0  0  0  0  0  0  0  0  0  0
  -25.5477  -26.2903   24.9955 C   0  0  0  0  0  0  0  0  0  0  0  0
  -25.0549  -24.9703   27.0651 C   0  0  0  0  0  0  0  0  0  0  0  0
  -23.3929  -26.6272   26.2194 C   0  0  0  0  0  0  0  0  0  0  0  0
  -30.1075  -19.8659   23.1203 C   0  0  0  0  0  0  0  0  0  0  0  0
  -20.7106  -20.4974   24.7693 C   0  0  0  0  0  0  0  0  0  0  0  0
  -29.1676  -19.3503   19.9184 C   0  0  0  0  0  0  0  0  0  0  0  0
  -30.4817  -19.4750   20.6799 C   0  0  0  0  0  0  0  0  0  0  0  0
  -28.0088  -20.0573   20.6115 C   0  0  0  0  0  0  0  0  0  1  0  0
  -23.7290  -24.4580   24.9650 C   0  0  1  0  0  0  0  0  0  0  0  0
  -21.4389  -21.9578   26.6602 C   0  0  2  0  0  0  0  0  0  0  0  0
  -24.4353  -25.5733   25.7863 C   0  0  0  0  0  0  0  0  0  0  0  0
  -25.7099  -14.1392   19.9895 N   0  0  0  0  0  0  0  0  0  0  0  0
  -26.3242  -13.1214   20.6163 N   0  0  0  0  0  0  0  0  0  0  0  0
  -29.9608  -13.8319   19.6951 N   0  0  0  0  0  0  0  0  0  0  0  0
  -23.6012  -24.4204   22.4939 N   0  0  0  0  0  0  0  0  0  0  0  0
  -25.9762  -11.3883   22.1929 N   0  0  0  0  0  0  0  0  0  0  0  0
  -21.9480  -13.4182   21.9698 N   0  0  0  0  0  0  0  0  0  0  0  0
  -23.8803  -27.3008   20.7633 N   0  0  0  0  0  0  0  0  0  0  0  0
  -22.6528  -23.7802   25.6796 N   0  0  0  0  0  0  0  0  0  0  0  0
  -30.3520  -18.9392   22.0134 N   0  0  3  0  0  0  0  0  0  0  0  0
  -21.0298  -20.5950   26.2169 N   0  3  0  0  0  0  0  0  0  0  0  0
  -32.2436  -14.1473   20.0912 O   0  0  0  0  0  0  0  0  0  0  0  0
  -23.1282  -11.7280   22.9743 O   0  0  0  0  0  0  0  0  0  0  0  0
  -25.4193  -25.5601   20.6084 O   0  0  0  0  0  0  0  0  0  0  0  0
  -22.2499  -25.8525   23.7426 O   0  0  0  0  0  0  0  0  0  0  0  0
  -23.5443  -21.6457   25.5170 O   0  0  0  0  0  0  0  0  0  0  0  0
  -20.6383  -17.7962   18.7833 O   0  0  0  0  0  0  0  0  0  0  0  0
  -26.8335  -19.8990   19.8177 O   0  0  0  0  0  0  0  0  0  1  0  0
  -17.4821  -20.1673   22.6329 F   0  0  0  0  0  0  0  0  0  0  0  0
  -19.0107  -16.2731   20.4185 F   0  0  0  0  0  0  0  0  0  0  0  0
  1  2  1  0  0  0  0
  1  7  2  0  0  0  0
  2  8  2  0  0  0  0
  3  6  1  0  0  0  0
  3 10  2  0  0  0  0
  4 11  2  0  0  0  0
  4 19  1  0  0  0  0
  5 12  1  0  0  0  0
  5 19  2  0  0  0  0
  6 20  2  0  0  0  0
  7 22  1  0  0  0  0
  8 24  1  0  0  0  0
  9 13  2  0  0  0  0
  9 23  1  0  0  0  0
 10 26  1  0  0  0  0
 11 27  1  0  0  0  0
 12 27  2  0  0  0  0
 13 28  1  0  0  0  0
 14 15  2  0  0  0  0
 14 29  1  0  0  0  0
 15 30  1  0  0  0  0
 16 20  1  0  0  0  0
 16 26  2  0  0  0  0
 17 25  1  0  0  0  0
 17 28  2  0  0  0  0
 18 30  2  0  0  0  0
 18 31  1  0  0  0  0
 19 32  1  0  0  0  0
 20 34  1  0  0  0  0
 21 32  1  0  0  0  0
 21 33  2  0  0  0  0
 21 35  1  0  0  0  0
 22 24  2  0  0  0  0
 22 39  1  0  0  0  0
 23 25  2  0  0  0  0
 23 40  1  0  0  0  0
 24 48  1  0  0  0  0
 25 41  1  0  0  0  0
 26 71  1  0  0  0  0
 27 78  1  0  0  0  0
 28 79  1  0  0  0  0
 29 31  2  0  0  0  0
 29 78  1  0  0  0  0
 30 80  1  0  0  0  0
 31 81  1  0  0  0  0
 32 63  2  0  0  0  0
 33 64  1  0  0  0  0
 33 67  1  0  0  0  0
 34 65  1  0  0  0  0
 34 73  2  0  0  0  0
 35 68  1  0  0  0  0
 35 74  2  0  0  0  0
 36 49  1  0  0  0  0
 36 69  1  0  0  0  0
 36 75  2  0  0  0  0
 37 60  1  0  0  0  0
 37 66  1  0  0  0  0
 37 76  2  0  0  0  0
 38 61  1  0  0  0  0
 38 70  1  0  0  0  0
 38 77  2  0  0  0  0
 39 42  1  0  0  0  0
 40 49  1  0  0  0  0
 41 66  1  0  0  0  0
 42 44  1  0  0  0  0
 43 45  1  0  0  0  0
 43 46  1  0  0  0  0
 44 48  1  0  0  0  0
 45 50  1  0  0  0  0
 46 65  1  0  0  0  0
 47 50  1  0  0  0  0
 47 65  1  0  0  0  0
 48 69  1  0  0  0  0
 49 66  1  0  0  0  0
 50 64  1  0  0  0  0
 51 61  1  0  0  0  0
 52 62  1  0  0  0  0
 53 62  1  0  0  0  0
 54 62  1  0  0  0  0
 55 71  1  0  0  0  0
 56 72  1  0  0  0  0
 57 58  1  0  0  0  0
 57 59  1  0  0  0  0
 58 71  1  0  0  0  0
 59 79  1  0  0  0  0
 60 62  1  0  0  0  0
 60 70  1  0  0  0  0
 61 72  1  0  0  0  0
 63 64  1  0  0  0  0
M  CHG  1  72   1
M  ISO  4  20 100  34 100  59 101  79 101
M  END
> <Batch ID>
0010

> <Smiles>
CNC(C)C(=O)NC(C(=O)N1Cc2cc([101O:1][101CH2:1]CCN(C)c3ccc[100c:0]([100C:0](=O)N4CCCC(n5nc(-c6ccc(Oc7ccc(F)cc7F)cc6)c(C(N)=O)c5N)C4)c3)ccc2CC1C(=O)NC1CCCc2ccccc21)C(C)(C)C

> <Shape>
0.178

> <Color>
0.080

> <Negative vol penalty>
0.000

$$$$

  -OEChem-04042320403D

 82 90  0     1  0  0  0  0  0999 V2000
  -17.7884  -32.9572   22.0745 C   0  0  0  0  0  0  0  0  0  0  0  0
  -19.0679  -33.0660   21.5393 C   0  0  0  0  0  0  0  0  0  0  0  0
  -23.0494  -13.0811   20.9633 C   0  0  0  0  0  0  0  0  0  0  0  0
  -23.3095  -14.7257   22.7139 C   0  0  0  0  0  0  0  0  0  0  0  0
  -17.5254  -32.0090   23.0622 C   0  0  0  0  0  0  0  0  0  0  0  0
  -20.0855  -32.2273   21.9923 C   0  0  0  0  0  0  0  0  0  0  0  0
  -25.9928  -28.8798   19.7086 C   0  0  0  0  0  0  0  0  0  0  0  0
  -30.7187  -21.5213   19.2402 C   0  0  0  0  0  0  0  0  0  0  0  0
  -22.3650  -12.2476   21.8479 C   0  0  0  0  0  0  0  0  0  0  0  0
  -22.6251  -13.8922   23.5986 C   0  0  0  0  0  0  0  0  0  0  0  0
  -27.3401  -28.7304   20.0343 C   0  0  0  0  0  0  0  0  0  0  0  0
  -31.0304  -22.8750   19.3659 C   0  0  0  0  0  0  0  0  0  0  0  0
  -19.2524  -12.0144   23.1479 C   0  0  0  0  0  0  0  0  0  0  0  0
  -18.0840  -11.4044   22.6914 C   0  0  0  0  0  0  0  0  0  0  0  0
  -26.7506  -27.0760   21.6880 C   0  0  0  0  0  0  0  0  0  0  0  0
  -28.3985  -22.0891   18.8780 C   0  0  0  0  0  0  0  0  0  0  0  0
  -19.0627   -9.2317   23.0901 C   0  0  0  0  0  0  0  0  0  0  0  0
  -23.5217  -14.3201   21.3963 C   0  0  0  0  0  0  0  0  0  0  0  0
  -23.6765  -16.1650   19.6413 C   0  0  0  0  0  0  0  0  0  0  0  0
  -18.5381  -31.1516   23.5207 C   0  0  0  0  0  0  0  0  0  0  0  0
  -25.0116  -28.1352   20.3788 C   0  0  0  0  0  0  0  0  0  0  0  0
  -19.8362  -31.2675   22.9881 C   0  0  0  0  0  0  0  0  0  0  0  0
  -25.3917  -27.2160   21.3671 C   0  0  0  0  0  0  0  0  0  0  0  0
  -29.4028  -21.1283   18.9962 C   0  0  0  0  0  0  0  0  0  0  0  0
  -22.1529  -12.6532   23.1656 C   0  0  0  0  0  0  0  0  0  0  0  0
  -27.7190  -27.8305   21.0261 C   0  0  0  0  0  0  0  0  0  0  0  0
  -20.3259  -11.2331   23.5754 C   0  0  0  0  0  0  0  0  0  0  0  0
  -30.0261  -23.8358   19.2478 C   0  0  0  0  0  0  0  0  0  0  0  0
  -17.9891  -10.0130   22.6625 C   0  0  0  0  0  0  0  0  0  0  0  0
  -28.7101  -23.4429   19.0038 C   0  0  0  0  0  0  0  0  0  0  0  0
  -20.2311   -9.8418   23.5465 C   0  0  0  0  0  0  0  0  0  0  0  0
  -24.2292  -15.1813   20.4831 C   0  0  0  0  0  0  0  0  0  0  0  0
  -24.7565  -16.6982   18.9811 C   0  0  0  0  0  0  0  0  0  0  0  0
  -22.3091  -16.5615   19.4714 C   0  0  0  0  0  0  0  0  0  0  0  0
  -22.5237  -28.8496   22.2236 C   0  0  0  0  0  0  0  0  0  0  0  0
  -21.9611  -25.6608   22.0310 C   0  0  0  0  0  0  0  0  0  0  0  0
  -23.2027  -22.5268   21.4987 C   0  0  0  0  0  0  0  0  0  0  0  0
  -29.9627  -18.6724   18.9586 C   0  0  0  0  0  0  0  0  0  0  0  0
  -18.2175  -30.1742   24.6236 C   0  0  0  0  0  0  0  0  0  0  0  0
  -23.5648  -28.2885   19.9972 C   0  0  0  0  0  0  0  0  0  0  0  0
  -24.3790  -26.3779   22.1023 C   0  0  0  0  0  0  0  0  0  0  0  0
  -19.2605  -29.0708   24.7819 C   0  0  0  0  0  0  0  0  0  0  0  0
  -29.5667  -15.1408   18.7393 C   0  0  0  0  0  0  0  0  0  0  0  0
  -20.6673  -29.6603   24.7690 C   0  0  0  0  0  0  0  0  0  0  0  0
  -28.0973  -14.9174   19.1042 C   0  0  0  0  0  0  0  0  0  0  0  0
  -30.1886  -16.2712   19.5572 C   0  0  0  0  0  0  0  0  0  0  0  0
  -27.9828  -17.3179   19.8864 C   0  0  0  0  0  0  0  0  0  0  0  0
  -20.9606  -30.3590   23.4358 C   0  0  1  0  0  0  0  0  0  0  0  0
  -22.6063  -27.8538   21.1015 C   0  0  1  0  0  0  0  0  0  0  0  0
  -27.2952  -16.2321   19.0426 C   0  0  2  0  0  0  0  0  0  0  0  0
  -22.5085  -20.1158   21.4447 C   0  0  0  0  0  0  0  0  0  0  0  0
  -21.8853  -25.6167   25.0810 C   0  0  0  0  0  0  0  0  0  0  0  0
  -22.1454  -23.1286   24.9821 C   0  0  0  0  0  0  0  0  0  0  0  0
  -20.1375  -24.2120   23.9736 C   0  0  0  0  0  0  0  0  0  0  0  0
  -23.9756  -22.2477   18.6556 C   0  0  0  0  0  0  0  0  0  0  0  0
  -31.2263  -27.0652   20.5521 C   0  0  0  0  0  0  0  0  0  0  0  0
  -29.9844  -27.9077   20.3065 C   0  0  0  0  0  0  0  0  0  1  0  0
  -30.9048  -25.5799   20.6049 C   0  0  0  0  0  0  0  0  0  0  0  0
  -22.3801  -24.4510   22.8310 C   0  0  1  0  0  0  0  0  0  0  0  0
  -22.7121  -21.3832   20.6292 C   0  0  2  0  0  0  0  0  0  0  0  0
  -21.6562  -24.3691   24.2046 C   0  0  0  0  0  0  0  0  0  0  0  0
  -25.5571  -15.0925   20.3698 N   0  0  0  0  0  0  0  0  0  0  0  0
  -25.8478  -16.0273   19.4491 N   0  0  0  0  0  0  0  0  0  0  0  0
  -22.9764  -26.5685   21.6976 N   0  0  0  0  0  0  0  0  0  0  0  0
  -29.3772  -17.4856   19.4479 N   0  0  0  0  0  0  0  0  0  0  0  0
  -24.8695  -17.6707   18.0517 N   0  0  0  0  0  0  0  0  0  0  0  0
  -21.3257  -15.9102   20.2283 N   0  0  0  0  0  0  0  0  0  0  0  0
  -29.0861  -19.7531   18.8684 N   0  0  0  0  0  0  0  0  0  0  0  0
  -21.2630  -29.3839   22.4100 N   0  0  0  0  0  0  0  0  0  0  0  0
  -22.1587  -23.2950   21.9691 N   0  0  0  0  0  0  0  0  0  0  0  0
  -23.6976  -21.0940   19.5493 N   0  3  0  0  0  0  0  0  0  0  0  0
  -21.9678  -17.4552   18.6600 O   0  0  0  0  0  0  0  0  0  0  0  0
  -23.5289  -29.1126   22.8733 O   0  0  0  0  0  0  0  0  0  0  0  0
  -20.7780  -25.7917   21.7075 O   0  0  0  0  0  0  0  0  0  0  0  0
  -24.3927  -22.7171   21.7399 O   0  0  0  0  0  0  0  0  0  0  0  0
  -31.1473  -18.7188   18.6172 O   0  0  0  0  0  0  0  0  0  0  0  0
  -21.4849  -11.8402   24.0290 O   0  0  0  0  0  0  0  0  0  0  0  0
  -29.0334  -27.6831   21.3464 O   0  0  0  0  0  0  0  0  0  1  0  0
  -30.3344  -25.1657   19.3709 O   0  0  0  0  0  0  0  0  0  0  0  0
  -16.8665   -9.4274   22.2256 F   0  0  0  0  0  0  0  0  0  0  0  0
  -27.7413  -24.3614   18.8881 F   0  0  0  0  0  0  0  0  0  0  0  0
  -21.2587   -9.0859   23.9571 F   0  0  0  0  0  0  0  0  0  0  0  0
  1  2  1  0  0  0  0
  1  5  2  0  0  0  0
  2  6  2  0  0  0  0
  3  9  2  0  0  0  0
  3 18  1  0  0  0  0
  4 10  1  0  0  0  0
  4 18  2  0  0  0  0
  5 20  1  0  0  0  0
  6 22  1  0  0  0  0
  7 11  2  0  0  0  0
  7 21  1  0  0  0  0
  8 12  2  0  0  0  0
  8 24  1  0  0  0  0
  9 25  1  0  0  0  0
 10 25  2  0  0  0  0
 11 26  1  0  0  0  0
 12 28  1  0  0  0  0
 13 14  2  0  0  0  0
 13 27  1  0  0  0  0
 14 29  1  0  0  0  0
 15 23  1  0  0  0  0
 15 26  2  0  0  0  0
 16 24  2  0  0  0  0
 16 30  1  0  0  0  0
 17 29  2  0  0  0  0
 17 31  1  0  0  0  0
 18 32  1  0  0  0  0
 19 32  1  0  0  0  0
 19 33  2  0  0  0  0
 19 34  1  0  0  0  0
 20 22  2  0  0  0  0
 20 39  1  0  0  0  0
 21 23  2  0  0  0  0
 21 40  1  0  0  0  0
 22 48  1  0  0  0  0
 23 41  1  0  0  0  0
 24 68  1  0  0  0  0
 25 77  1  0  0  0  0
 26 78  1  0  0  0  0
 27 31  2  0  0  0  0
 27 77  1  0  0  0  0
 28 30  2  0  0  0  0
 28 79  1  0  0  0  0
 29 80  1  0  0  0  0
 30 81  1  0  0  0  0
 31 82  1  0  0  0  0
 32 62  2  0  0  0  0
 33 63  1  0  0  0  0
 33 66  1  0  0  0  0
 34 67  1  0  0  0  0
 34 72  2  0  0  0  0
 35 49  1  0  0  0  0
 35 69  1  0  0  0  0
 35 73  2  0  0  0  0
 36 59  1  0  0  0  0
 36 64  1  0  0  0  0
 36 74  2  0  0  0  0
 37 60  1  0  0  0  0
 37 70  1  0  0  0  0
 37 75  2  0  0  0  0
 38 65  1  0  0  0  0
 38 68  1  0  0  0  0
 38 76  2  0  0  0  0
 39 42  1  0  0  0  0
 40 49  1  0  0  0  0
 41 64  1  0  0  0  0
 42 44  1  0  0  0  0
 43 45  1  0  0  0  0
 43 46  1  0  0  0  0
 44 48  1  0  0  0  0
 45 50  1  0  0  0  0
 46 65  1  0  0  0  0
 47 50  1  0  0  0  0
 47 65  1  0  0  0  0
 48 69  1  0  0  0  0
 49 64  1  0  0  0  0
 50 63  1  0  0  0  0
 51 60  1  0  0  0  0
 52 61  1  0  0  0  0
 53 61  1  0  0  0  0
 54 61  1  0  0  0  0
 55 71  1  0  0  0  0
 56 57  1  0  0  0  0
 56 58  1  0  0  0  0
 57 78  1  0  0  0  0
 58 79  1  0  0  0  0
 59 61  1  0  0  0  0
 59 70  1  0  0  0  0
 60 71  1  0  0  0  0
 62 63  1  0  0  0  0
M  CHG  1  71   1
M  ISO  4  38 100  57 101  68 100  78 101
M  END
> <Batch ID>
0010

> <Smiles>
CNC(C)C(=O)NC(C(=O)N1Cc2cc([101O:1][101CH2:1]CCOc3ccc([100NH:0][100C:0](=O)N4CCCC(n5nc(-c6ccc(Oc7ccc(F)cc7F)cc6)c(C(N)=O)c5N)C4)cc3F)ccc2CC1C(=O)NC1CCCc2ccccc21)C(C)(C)C

> <Shape>
0.201

> <Color>
0.083

> <Negative vol penalty>
0.000

$$$$

  -OEChem-04042320403D

 81 89  0     1  0  0  0  0  0999 V2000
  -28.5814  -33.2108   23.1140 C   0  0  0  0  0  0  0  0  0  0  0  0
  -28.5571  -31.9190   22.5982 C   0  0  0  0  0  0  0  0  0  0  0  0
  -24.4648  -10.0001   21.9503 C   0  0  0  0  0  0  0  0  0  0  0  0
  -24.6543  -11.3349   23.9552 C   0  0  0  0  0  0  0  0  0  0  0  0
  -27.5550  -33.6450   23.9519 C   0  0  0  0  0  0  0  0  0  0  0  0
  -27.5070  -31.0602   22.9210 C   0  0  0  0  0  0  0  0  0  0  0  0
  -25.7362  -28.5566   18.8910 C   0  0  0  0  0  0  0  0  0  0  0  0
  -29.5331  -20.0194   19.3879 C   0  0  0  0  0  0  0  0  0  0  0  0
  -24.0850   -8.8997   22.7188 C   0  0  0  0  0  0  0  0  0  0  0  0
  -24.2746  -10.2345   24.7237 C   0  0  0  0  0  0  0  0  0  0  0  0
  -26.4799  -27.4665   18.4413 C   0  0  0  0  0  0  0  0  0  0  0  0
  -29.5195  -21.3959   19.1629 C   0  0  0  0  0  0  0  0  0  0  0  0
  -21.2918   -7.7856   24.2646 C   0  0  0  0  0  0  0  0  0  0  0  0
  -20.2079   -7.0281   23.8209 C   0  0  0  0  0  0  0  0  0  0  0  0
  -24.9625  -25.9717   19.5737 C   0  0  0  0  0  0  0  0  0  0  0  0
  -27.9048  -21.6703   20.9391 C   0  0  0  0  0  0  0  0  0  0  0  0
  -21.6289   -5.0795   23.6768 C   0  0  0  0  0  0  0  0  0  0  0  0
  -24.7495  -11.2177   22.5685 C   0  0  0  0  0  0  0  0  0  0  0  0
  -24.2981  -13.3275   21.2075 C   0  0  0  0  0  0  0  0  0  0  0  0
  -26.4868  -32.7943   24.2773 C   0  0  0  0  0  0  0  0  0  0  0  0
  -24.6043  -28.3627   19.6958 C   0  0  0  0  0  0  0  0  0  0  0  0
  -26.4661  -31.4830   23.7651 C   0  0  0  0  0  0  0  0  0  0  0  0
  -24.2046  -27.0609   20.0301 C   0  0  0  0  0  0  0  0  0  0  0  0
  -27.9184  -20.2938   21.1640 C   0  0  0  0  0  0  0  0  0  0  0  0
  -28.7325  -19.4683   20.3885 C   0  0  0  0  0  0  0  0  0  0  0  0
  -23.9899   -9.0169   24.1055 C   0  0  0  0  0  0  0  0  0  0  0  0
  -26.0948  -26.1739   18.7850 C   0  0  0  0  0  0  0  0  0  0  0  0
  -28.7054  -22.2214   19.9385 C   0  0  0  0  0  0  0  0  0  0  0  0
  -22.5443   -7.1902   24.4143 C   0  0  0  0  0  0  0  0  0  0  0  0
  -20.3765   -5.6750   23.5270 C   0  0  0  0  0  0  0  0  0  0  0  0
  -22.7128   -5.8371   24.1204 C   0  0  0  0  0  0  0  0  0  0  0  0
  -25.1423  -12.3546   21.7752 C   0  0  0  0  0  0  0  0  0  0  0  0
  -25.1513  -14.1850   20.5569 C   0  0  0  0  0  0  0  0  0  0  0  0
  -22.8703  -13.4457   21.2633 C   0  0  0  0  0  0  0  0  0  0  0  0
  -23.7803  -29.2044   22.6481 C   0  0  0  0  0  0  0  0  0  0  0  0
  -20.9245  -27.9219   21.7987 C   0  0  0  0  0  0  0  0  0  0  0  0
  -19.1981  -25.7658   19.7942 C   0  0  0  0  0  0  0  0  0  0  0  0
  -29.8290  -17.2003   20.3823 C   0  0  0  0  0  0  0  0  0  0  0  0
  -25.4246  -33.2927   25.2249 C   0  0  0  0  0  0  0  0  0  0  0  0
  -23.7974  -29.5478   20.1506 C   0  0  0  0  0  0  0  0  0  0  0  0
  -22.9857  -26.7980   20.8749 C   0  0  0  0  0  0  0  0  0  0  0  0
  -24.1551  -32.4450   25.2171 C   0  0  0  0  0  0  0  0  0  0  0  0
  -30.0852  -13.7577   19.5102 C   0  0  0  0  0  0  0  0  0  0  0  0
  -24.5032  -30.9616   25.2885 C   0  0  0  0  0  0  0  0  0  0  0  0
  -28.7526  -13.1658   19.9751 C   0  0  0  0  0  0  0  0  0  0  0  0
  -30.5909  -14.8365   20.4664 C   0  0  0  0  0  0  0  0  0  0  0  0
  -28.2963  -15.3144   21.2250 C   0  0  0  0  0  0  0  0  0  0  0  0
  -25.3313  -30.5301   24.0722 C   0  0  1  0  0  0  0  0  0  0  0  0
  -22.9584  -29.2587   21.3915 C   0  0  1  0  0  0  0  0  0  0  0  0
  -27.7145  -14.2691   20.2593 C   0  0  2  0  0  0  0  0  0  0  0  0
  -27.0503  -19.7314   22.2425 C   0  0  0  0  0  0  0  0  0  0  0  0
  -16.8804  -24.9073   19.3599 C   0  0  0  0  0  0  0  0  0  0  0  0
  -21.1009  -26.1862   24.3018 C   0  0  0  0  0  0  0  0  0  0  0  0
  -19.3091  -24.7300   23.3338 C   0  0  0  0  0  0  0  0  0  0  0  0
  -18.8291  -27.1247   23.8412 C   0  0  0  0  0  0  0  0  0  0  0  0
  -19.2176  -26.7817   17.0146 C   0  0  0  0  0  0  0  0  0  0  0  0
  -28.2167  -25.3129   18.1430 C   0  0  0  0  0  0  0  0  0  1  0  0
  -28.9495  -24.0081   18.3880 C   0  0  0  0  0  0  0  0  0  0  0  0
  -20.3058  -26.5469   21.8721 C   0  0  1  0  0  0  0  0  0  0  0  0
  -17.9278  -25.9433   18.9824 C   0  0  2  0  0  0  0  0  0  0  0  0
  -19.9104  -26.1516   23.3229 C   0  0  0  0  0  0  0  0  0  0  0  0
  -26.4328  -12.5727   21.5086 N   0  0  0  0  0  0  0  0  0  0  0  0
  -26.4058  -13.6925   20.7661 N   0  0  0  0  0  0  0  0  0  0  0  0
  -22.2333  -27.9897   21.3004 N   0  0  0  0  0  0  0  0  0  0  0  0
  -29.5561  -15.8495   20.6852 N   0  0  0  0  0  0  0  0  0  0  0  0
  -24.9433  -15.3046   19.8320 N   0  0  0  0  0  0  0  0  0  0  0  0
  -22.1471  -12.4786   21.9746 N   0  0  0  0  0  0  0  0  0  0  0  0
  -28.7589  -18.0675   20.6001 N   0  0  0  0  0  0  0  0  0  0  0  0
  -24.4798  -30.3662   22.9135 N   0  0  0  0  0  0  0  0  0  0  0  0
  -19.1927  -26.5492   20.9290 N   0  0  0  0  0  0  0  0  0  0  0  0
  -18.2198  -25.8078   17.5273 N   0  3  0  0  0  0  0  0  0  0  0  0
  -22.2527  -14.3720   20.6852 O   0  0  0  0  0  0  0  0  0  0  0  0
  -23.7788  -28.1845   23.3275 O   0  0  0  0  0  0  0  0  0  0  0  0
  -20.2680  -28.9007   22.1630 O   0  0  0  0  0  0  0  0  0  0  0  0
  -20.1030  -25.0053   19.4576 O   0  0  0  0  0  0  0  0  0  0  0  0
  -30.9219  -17.5570   19.9351 O   0  0  0  0  0  0  0  0  0  0  0  0
  -23.6192   -7.9435   24.8557 O   0  0  0  0  0  0  0  0  0  0  0  0
  -26.8194  -25.1082   18.3480 O   0  0  0  0  0  0  0  0  0  1  0  0
  -28.6925  -23.5735   19.7179 O   0  0  0  0  0  0  0  0  0  0  0  0
  -19.3352   -4.9472   23.1024 F   0  0  0  0  0  0  0  0  0  0  0  0
  -23.9134   -5.2592   24.2635 F   0  0  0  0  0  0  0  0  0  0  0  0
  1  2  1  0  0  0  0
  1  5  2  0  0  0  0
  2  6  2  0  0  0  0
  3  9  2  0  0  0  0
  3 18  1  0  0  0  0
  4 10  1  0  0  0  0
  4 18  2  0  0  0  0
  5 20  1  0  0  0  0
  6 22  1  0  0  0  0
  7 11  2  0  0  0  0
  7 21  1  0  0  0  0
  8 12  2  0  0  0  0
  8 25  1  0  0  0  0
  9 26  1  0  0  0  0
 10 26  2  0  0  0  0
 11 27  1  0  0  0  0
 12 28  1  0  0  0  0
 13 14  2  0  0  0  0
 13 29  1  0  0  0  0
 14 30  1  0  0  0  0
 15 23  1  0  0  0  0
 15 27  2  0  0  0  0
 16 24  1  0  0  0  0
 16 28  2  0  0  0  0
 17 30  2  0  0  0  0
 17 31  1  0  0  0  0
 18 32  1  0  0  0  0
 19 32  1  0  0  0  0
 19 33  2  0  0  0  0
 19 34  1  0  0  0  0
 20 22  2  0  0  0  0
 20 39  1  0  0  0  0
 21 23  2  0  0  0  0
 21 40  1  0  0  0  0
 22 48  1  0  0  0  0
 23 41  1  0  0  0  0
 24 25  2  0  0  0  0
 24 51  1  0  0  0  0
 25 68  1  0  0  0  0
 26 77  1  0  0  0  0
 27 78  1  0  0  0  0
 28 79  1  0  0  0  0
 29 31  2  0  0  0  0
 29 77  1  0  0  0  0
 30 80  1  0  0  0  0
 31 81  1  0  0  0  0
 32 62  2  0  0  0  0
 33 63  1  0  0  0  0
 33 66  1  0  0  0  0
 34 67  1  0  0  0  0
 34 72  2  0  0  0  0
 35 49  1  0  0  0  0
 35 69  1  0  0  0  0
 35 73  2  0  0  0  0
 36 59  1  0  0  0  0
 36 64  1  0  0  0  0
 36 74  2  0  0  0  0
 37 60  1  0  0  0  0
 37 70  1  0  0  0  0
 37 75  2  0  0  0  0
 38 65  1  0  0  0  0
 38 68  1  0  0  0  0
 38 76  2  0  0  0  0
 39 42  1  0  0  0  0
 40 49  1  0  0  0  0
 41 64  1  0  0  0  0
 42 44  1  0  0  0  0
 43 45  1  0  0  0  0
 43 46  1  0  0  0  0
 44 48  1  0  0  0  0
 45 50  1  0  0  0  0
 46 65  1  0  0  0  0
 47 50  1  0  0  0  0
 47 65  1  0  0  0  0
 48 69  1  0  0  0  0
 49 64  1  0  0  0  0
 50 63  1  0  0  0  0
 52 60  1  0  0  0  0
 53 61  1  0  0  0  0
 54 61  1  0  0  0  0
 55 61  1  0  0  0  0
 56 71  1  0  0  0  0
 57 58  1  0  0  0  0
 57 78  1  0  0  0  0
 58 79  1  0  0  0  0
 59 61  1  0  0  0  0
 59 70  1  0  0  0  0
 60 71  1  0  0  0  0
 62 63  1  0  0  0  0
M  CHG  1  71   1
M  ISO  4  38 100  57 101  68 100  78 101
M  END
> <Batch ID>
0010

> <Smiles>
CNC(C)C(=O)NC(C(=O)N1Cc2cc([101O:1][101CH2:1]COc3ccc([100NH:0][100C:0](=O)N4CCCC(n5nc(-c6ccc(Oc7ccc(F)cc7F)cc6)c(C(N)=O)c5N)C4)c(C)c3)ccc2CC1C(=O)NC1CCCc2ccccc21)C(C)(C)C

> <Shape>
0.335

> <Color>
0.113

> <Negative vol penalty>
0.000

$$$$

  -OEChem-04042320403D

 81 89  0     1  0  0  0  0  0999 V2000
  -30.1191  -24.5501   17.9374 C   0  0  0  0  0  0  0  0  0  0  0  0
  -28.7356  -24.6956   17.9225 C   0  0  0  0  0  0  0  0  0  0  0  0
  -20.9634  -23.2897   18.6745 C   0  0  0  0  0  0  0  0  0  0  0  0
  -27.6362  -15.3906   21.7099 C   0  0  0  0  0  0  0  0  0  0  0  0
  -26.1597  -15.8464   19.8527 C   0  0  0  0  0  0  0  0  0  0  0  0
  -30.8534  -24.9904   19.0378 C   0  0  0  0  0  0  0  0  0  0  0  0
  -28.0854  -25.2805   19.0087 C   0  0  0  0  0  0  0  0  0  0  0  0
  -23.0984  -28.8309   18.8381 C   0  0  0  0  0  0  0  0  0  0  0  0
  -22.2090  -22.9246   19.1853 C   0  0  0  0  0  0  0  0  0  0  0  0
  -20.0915  -24.0584   19.4454 C   0  0  0  0  0  0  0  0  0  0  0  0
  -27.2089  -14.0629   21.7238 C   0  0  0  0  0  0  0  0  0  0  0  0
  -25.7323  -14.5187   19.8666 C   0  0  0  0  0  0  0  0  0  0  0  0
  -21.7478  -28.5623   19.0563 C   0  0  0  0  0  0  0  0  0  0  0  0
  -23.6064  -12.6046   21.6688 C   0  0  0  0  0  0  0  0  0  0  0  0
  -22.2365  -12.3636   21.5642 C   0  0  0  0  0  0  0  0  0  0  0  0
  -21.9755  -29.3043   21.3403 C   0  0  0  0  0  0  0  0  0  0  0  0
  -21.7106  -24.0970   21.2382 C   0  0  0  0  0  0  0  0  0  0  0  0
  -22.6138  -11.0971   19.5416 C   0  0  0  0  0  0  0  0  0  0  0  0
  -27.1116  -16.2824   20.7743 C   0  0  0  0  0  0  0  0  0  0  0  0
  -28.6314  -18.1926   20.0337 C   0  0  0  0  0  0  0  0  0  0  0  0
  -30.2129  -25.5897   20.1338 C   0  0  0  0  0  0  0  0  0  0  0  0
  -23.9015  -29.3288   19.8742 C   0  0  0  0  0  0  0  0  0  0  0  0
  -28.8117  -25.7279   20.1254 C   0  0  0  0  0  0  0  0  0  0  0  0
  -23.3353  -29.5808   21.1320 C   0  0  0  0  0  0  0  0  0  0  0  0
  -22.5825  -23.3283   20.4672 C   0  0  0  0  0  0  0  0  0  0  0  0
  -20.4650  -24.4621   20.7273 C   0  0  0  0  0  0  0  0  0  0  0  0
  -26.2569  -13.6269   20.8022 C   0  0  0  0  0  0  0  0  0  0  0  0
  -21.1868  -28.7963   20.3083 C   0  0  0  0  0  0  0  0  0  0  0  0
  -24.4800  -12.0919   20.7098 C   0  0  0  0  0  0  0  0  0  0  0  0
  -21.7402  -11.6099   20.5007 C   0  0  0  0  0  0  0  0  0  0  0  0
  -23.9837  -11.3382   19.6462 C   0  0  0  0  0  0  0  0  0  0  0  0
  -27.5523  -17.6541   20.7597 C   0  0  0  0  0  0  0  0  0  0  0  0
  -28.6325  -19.5270   20.3592 C   0  0  0  0  0  0  0  0  0  0  0  0
  -29.5507  -17.5447   19.1444 C   0  0  0  0  0  0  0  0  0  0  0  0
  -26.4753  -28.2820   21.4180 C   0  0  0  0  0  0  0  0  0  0  0  0
  -26.3675  -31.2194   22.7900 C   0  0  0  0  0  0  0  0  0  0  0  0
  -24.5075  -33.9473   23.6534 C   0  0  0  0  0  0  0  0  0  0  0  0
  -24.3738  -23.2740   22.2377 C   0  0  0  0  0  0  0  0  0  0  0  0
  -31.0440  -26.0071   21.3211 C   0  0  0  0  0  0  0  0  0  0  0  0
  -25.3504  -29.6386   19.6151 C   0  0  0  0  0  0  0  0  0  0  0  0
  -24.1498  -30.1338   22.2718 C   0  0  0  0  0  0  0  0  0  0  0  0
  -30.3170  -26.9564   22.2701 C   0  0  0  0  0  0  0  0  0  0  0  0
  -27.4303  -22.5186   23.9003 C   0  0  0  0  0  0  0  0  0  0  0  0
  -28.9080  -26.4478   22.5581 C   0  0  0  0  0  0  0  0  0  0  0  0
  -27.9097  -21.2378   23.2134 C   0  0  0  0  0  0  0  0  0  0  0  0
  -25.9103  -22.5468   24.0503 C   0  0  0  0  0  0  0  0  0  0  0  0
  -25.6390  -21.0376   22.1222 C   0  0  0  0  0  0  0  0  0  0  0  0
  -28.0728  -26.3798   21.2739 C   0  0  1  0  0  0  0  0  0  0  0  0
  -26.1936  -29.6589   20.8863 C   0  0  1  0  0  0  0  0  0  0  0  0
  -27.1582  -20.9927   21.8903 C   0  0  2  0  0  0  0  0  0  0  0  0
  -24.6887  -36.1728   24.7987 C   0  0  0  0  0  0  0  0  0  0  0  0
  -26.4193  -29.8180   25.4998 C   0  0  0  0  0  0  0  0  0  0  0  0
  -25.6511  -31.9598   26.5441 C   0  0  0  0  0  0  0  0  0  0  0  0
  -27.8440  -31.8685   25.3585 C   0  0  0  0  0  0  0  0  0  0  0  0
  -23.7060  -35.4031   21.2045 C   0  0  0  0  0  0  0  0  0  0  0  0
  -18.2639  -27.2522   21.7647 C   0  0  0  0  0  0  0  0  0  0  0  0
  -18.5053  -25.9912   20.9439 C   0  0  0  0  0  0  0  0  0  0  0  0
  -19.4906  -28.1530   21.8462 C   0  0  0  0  0  0  0  0  0  1  0  0
  -25.7041  -31.8042   24.0134 C   0  0  1  0  0  0  0  0  0  0  0  0
  -24.7549  -35.4339   23.4712 C   0  0  2  0  0  0  0  0  0  0  0  0
  -26.3895  -31.3504   25.3332 C   0  0  0  0  0  0  0  0  0  0  0  0
  -26.9142  -18.5714   21.4915 N   0  0  0  0  0  0  0  0  0  0  0  0
  -27.5946  -19.6998   21.2270 N   0  0  0  0  0  0  0  0  0  0  0  0
  -25.5633  -30.4146   21.9707 N   0  0  0  0  0  0  0  0  0  0  0  0
  -25.2660  -22.3117   22.7563 N   0  0  0  0  0  0  0  0  0  0  0  0
  -29.4201  -20.5576   19.9851 N   0  0  0  0  0  0  0  0  0  0  0  0
  -29.4072  -16.1684   18.9216 N   0  0  0  0  0  0  0  0  0  0  0  0
  -23.8479  -22.9570   20.9857 N   0  0  0  0  0  0  0  0  0  0  0  0
  -19.5981  -25.2256   21.4934 N   0  0  0  0  0  0  0  0  0  0  0  0
  -27.6158  -27.7005   20.8977 N   0  0  0  0  0  0  0  0  0  0  0  0
  -25.6856  -33.2496   23.8162 N   0  0  0  0  0  0  0  0  0  0  0  0
  -23.7357  -36.0202   22.5556 N   0  3  0  0  0  0  0  0  0  0  0  0
  -30.4821  -18.1646   18.5772 O   0  0  0  0  0  0  0  0  0  0  0  0
  -25.7151  -27.7847   22.2405 O   0  0  0  0  0  0  0  0  0  0  0  0
  -27.5536  -31.4734   22.5655 O   0  0  0  0  0  0  0  0  0  0  0  0
  -23.3814  -33.4548   23.6553 O   0  0  0  0  0  0  0  0  0  0  0  0
  -24.1177  -24.3161   22.8463 O   0  0  0  0  0  0  0  0  0  0  0  0
  -25.8398  -12.3314   20.8154 O   0  0  0  0  0  0  0  0  0  0  0  0
  -19.8690  -28.5343   20.5242 O   0  0  0  0  0  0  0  0  0  1  0  0
  -20.4248  -11.3772   20.4012 F   0  0  0  0  0  0  0  0  0  0  0  0
  -24.8181  -10.8420   18.7224 F   0  0  0  0  0  0  0  0  0  0  0  0
  1  2  1  0  0  0  0
  1  6  2  0  0  0  0
  2  7  2  0  0  0  0
  3  9  1  0  0  0  0
  3 10  2  0  0  0  0
  4 11  2  0  0  0  0
  4 19  1  0  0  0  0
  5 12  1  0  0  0  0
  5 19  2  0  0  0  0
  6 21  1  0  0  0  0
  7 23  1  0  0  0  0
  8 13  2  0  0  0  0
  8 22  1  0  0  0  0
  9 25  2  0  0  0  0
 10 26  1  0  0  0  0
 11 27  1  0  0  0  0
 12 27  2  0  0  0  0
 13 28  1  0  0  0  0
 14 15  2  0  0  0  0
 14 29  1  0  0  0  0
 15 30  1  0  0  0  0
 16 24  1  0  0  0  0
 16 28  2  0  0  0  0
 17 25  1  0  0  0  0
 17 26  2  0  0  0  0
 18 30  2  0  0  0  0
 18 31  1  0  0  0  0
 19 32  1  0  0  0  0
 20 32  1  0  0  0  0
 20 33  2  0  0  0  0
 20 34  1  0  0  0  0
 21 23  2  0  0  0  0
 21 39  1  0  0  0  0
 22 24  2  0  0  0  0
 22 40  1  0  0  0  0
 23 48  1  0  0  0  0
 24 41  1  0  0  0  0
 25 68  1  0  0  0  0
 26 69  1  0  0  0  0
 27 78  1  0  0  0  0
 28 79  1  0  0  0  0
 29 31  2  0  0  0  0
 29 78  1  0  0  0  0
 30 80  1  0  0  0  0
 31 81  1  0  0  0  0
 32 62  2  0  0  0  0
 33 63  1  0  0  0  0
 33 66  1  0  0  0  0
 34 67  1  0  0  0  0
 34 73  2  0  0  0  0
 35 49  1  0  0  0  0
 35 70  1  0  0  0  0
 35 74  2  0  0  0  0
 36 59  1  0  0  0  0
 36 64  1  0  0  0  0
 36 75  2  0  0  0  0
 37 60  1  0  0  0  0
 37 71  1  0  0  0  0
 37 76  2  0  0  0  0
 38 65  1  0  0  0  0
 38 68  1  0  0  0  0
 38 77  2  0  0  0  0
 39 42  1  0  0  0  0
 40 49  1  0  0  0  0
 41 64  1  0  0  0  0
 42 44  1  0  0  0  0
 43 45  1  0  0  0  0
 43 46  1  0  0  0  0
 44 48  1  0  0  0  0
 45 50  1  0  0  0  0
 46 65  1  0  0  0  0
 47 50  1  0  0  0  0
 47 65  1  0  0  0  0
 48 70  1  0  0  0  0
 49 64  1  0  0  0  0
 50 63  1  0  0  0  0
 51 60  1  0  0  0  0
 52 61  1  0  0  0  0
 53 61  1  0  0  0  0
 54 61  1  0  0  0  0
 55 72  1  0  0  0  0
 56 57  1  0  0  0  0
 56 58  1  0  0  0  0
 57 69  1  0  0  0  0
 58 79  1  0  0  0  0
 59 61  1  0  0  0  0
 59 71  1  0  0  0  0
 60 72  1  0  0  0  0
 62 63  1  0  0  0  0
M  CHG  1  72   1
M  ISO  4  38 100  58 101  68 100  79 101
M  END
> <Batch ID>
0010

> <Smiles>
CNC(C)C(=O)NC(C(=O)N1Cc2cc([101O:1][101CH2:1]CCNc3cccc([100NH:0][100C:0](=O)N4CCCC(n5nc(-c6ccc(Oc7ccc(F)cc7F)cc6)c(C(N)=O)c5N)C4)c3)ccc2CC1C(=O)NC1CCCc2ccccc21)C(C)(C)C

> <Shape>
0.308

> <Color>
0.083

> <Negative vol penalty>
0.000

$$$$

  -OEChem-04042320403D

 81 89  0     1  0  0  0  0  0999 V2000
  -26.7964  -33.6926   27.8057 C   0  0  0  0  0  0  0  0  0  0  0  0
  -27.3282  -32.8327   26.8500 C   0  0  0  0  0  0  0  0  0  0  0  0
  -26.4174  -12.4392   21.5069 C   0  0  0  0  0  0  0  0  0  0  0  0
  -26.1544  -13.1833   19.2235 C   0  0  0  0  0  0  0  0  0  0  0  0
  -25.4371  -33.6385   28.1111 C   0  0  0  0  0  0  0  0  0  0  0  0
  -26.5011  -31.9174   26.2000 C   0  0  0  0  0  0  0  0  0  0  0  0
  -26.9541  -30.0229   20.3938 C   0  0  0  0  0  0  0  0  0  0  0  0
  -28.9564  -20.4052   16.7438 C   0  0  0  0  0  0  0  0  0  0  0  0
  -25.1577  -11.8422   21.4574 C   0  0  0  0  0  0  0  0  0  0  0  0
  -24.8948  -12.5863   19.1739 C   0  0  0  0  0  0  0  0  0  0  0  0
  -27.5108  -28.8803   19.8207 C   0  0  0  0  0  0  0  0  0  0  0  0
  -23.7910   -9.0089   20.2175 C   0  0  0  0  0  0  0  0  0  0  0  0
  -23.6640   -7.7196   20.7344 C   0  0  0  0  0  0  0  0  0  0  0  0
  -28.5181  -21.3389   15.8049 C   0  0  0  0  0  0  0  0  0  0  0  0
  -25.3352  -27.8382   19.8000 C   0  0  0  0  0  0  0  0  0  0  0  0
  -29.1075  -22.1498   18.4084 C   0  0  0  0  0  0  0  0  0  0  0  0
  -22.0361   -8.5198   22.3303 C   0  0  0  0  0  0  0  0  0  0  0  0
  -26.9157  -13.1099   20.3899 C   0  0  0  0  0  0  0  0  0  0  0  0
  -29.4508  -13.1382   20.1064 C   0  0  0  0  0  0  0  0  0  0  0  0
  -24.5911  -32.7286   27.4575 C   0  0  0  0  0  0  0  0  0  0  0  0
  -25.5835  -30.0777   20.6848 C   0  0  0  0  0  0  0  0  0  0  0  0
  -25.1294  -31.8501   26.4979 C   0  0  0  0  0  0  0  0  0  0  0  0
  -24.7632  -28.9836   20.3744 C   0  0  0  0  0  0  0  0  0  0  0  0
  -29.2511  -20.8106   18.0456 C   0  0  0  0  0  0  0  0  0  0  0  0
  -28.6692  -23.0836   17.4694 C   0  0  0  0  0  0  0  0  0  0  0  0
  -24.3964  -11.9157   20.2910 C   0  0  0  0  0  0  0  0  0  0  0  0
  -26.7018  -27.7866   19.5264 C   0  0  0  0  0  0  0  0  0  0  0  0
  -23.0407  -10.0537   20.7570 C   0  0  0  0  0  0  0  0  0  0  0  0
  -22.7865   -7.4751   21.7907 C   0  0  0  0  0  0  0  0  0  0  0  0
  -22.1632   -9.8092   21.8134 C   0  0  0  0  0  0  0  0  0  0  0  0
  -28.3745  -22.6781   16.1677 C   0  0  0  0  0  0  0  0  0  0  0  0
  -28.2166  -13.7273   20.4406 C   0  0  0  0  0  0  0  0  0  0  0  0
  -30.3748  -14.1311   20.3226 C   0  0  0  0  0  0  0  0  0  0  0  0
  -29.7363  -11.8122   19.6419 C   0  0  0  0  0  0  0  0  0  0  0  0
  -23.8652  -30.4111   23.3382 C   0  0  0  0  0  0  0  0  0  0  0  0
  -21.3867  -30.5521   21.2503 C   0  0  0  0  0  0  0  0  0  0  0  0
  -20.1474  -29.7723   18.1676 C   0  0  0  0  0  0  0  0  0  0  0  0
  -30.0306  -20.0966   20.3323 C   0  0  0  0  0  0  0  0  0  0  0  0
  -23.1373  -32.6747   27.8552 C   0  0  0  0  0  0  0  0  0  0  0  0
  -24.9938  -31.3276   21.2785 C   0  0  0  0  0  0  0  0  0  0  0  0
  -23.2823  -28.9998   20.6485 C   0  0  0  0  0  0  0  0  0  0  0  0
  -22.2584  -31.9325   26.8518 C   0  0  0  0  0  0  0  0  0  0  0  0
  -31.1307  -18.0228   23.0093 C   0  0  0  0  0  0  0  0  0  0  0  0
  -22.9113  -30.6164   26.4414 C   0  0  0  0  0  0  0  0  0  0  0  0
  -30.6259  -16.6312   22.6209 C   0  0  0  0  0  0  0  0  0  0  0  0
  -30.1403  -19.1164   22.6131 C   0  0  0  0  0  0  0  0  0  0  0  0
  -29.2187  -17.7046   20.8168 C   0  0  0  0  0  0  0  0  0  0  0  0
  -24.2598  -30.8604   25.7534 C   0  0  1  0  0  0  0  0  0  0  0  0
  -23.6759  -31.0794   22.0058 C   0  0  1  0  0  0  0  0  0  0  0  0
  -30.2119  -16.5756   21.1373 C   0  0  2  0  0  0  0  0  0  0  0  0
  -18.0778  -29.9865   16.7646 C   0  0  0  0  0  0  0  0  0  0  0  0
  -20.0689  -28.3182   22.8575 C   0  0  0  0  0  0  0  0  0  0  0  0
  -18.5258  -27.9322   20.9241 C   0  0  0  0  0  0  0  0  0  0  0  0
  -18.5101  -30.1259   22.1116 C   0  0  0  0  0  0  0  0  0  0  0  0
  -21.5660  -31.3579   16.1103 C   0  0  0  0  0  0  0  0  0  0  0  0
  -28.8316  -24.8773   19.1962 C   0  0  0  0  0  0  0  0  0  0  0  0
  -28.6021  -26.3766   19.2876 C   0  0  0  0  0  0  0  0  0  1  0  0
  -20.4633  -29.5394   20.6172 C   0  0  1  0  0  0  0  0  0  0  0  0
  -19.4145  -30.6099   17.1353 C   0  0  2  0  0  0  0  0  0  0  0  0
  -19.4202  -28.9776   21.6241 C   0  0  0  0  0  0  0  0  0  0  0  0
  -28.3419  -14.9960   20.8391 N   0  0  0  0  0  0  0  0  0  0  0  0
  -29.6657  -15.2122   20.7567 N   0  0  0  0  0  0  0  0  0  0  0  0
  -22.7540  -30.2423   21.2354 N   0  0  0  0  0  0  0  0  0  0  0  0
  -29.7975  -19.0037   21.1937 N   0  0  0  0  0  0  0  0  0  0  0  0
  -31.7167  -14.1761   20.1820 N   0  0  0  0  0  0  0  0  0  0  0  0
  -28.6695  -10.9188   19.4743 N   0  0  0  0  0  0  0  0  0  0  0  0
  -29.6957  -19.8615   18.9991 N   0  0  0  0  0  0  0  0  0  0  0  0
  -28.5386  -24.4053   17.8622 N   0  0  0  0  0  0  0  0  0  0  0  0
  -24.0592  -31.2906   24.3862 N   0  0  0  0  0  0  0  0  0  0  0  0
  -19.8771  -30.1937   19.4524 N   0  0  0  0  0  0  0  0  0  0  0  0
  -20.2330  -30.7379   15.8964 N   0  3  0  0  0  0  0  0  0  0  0  0
  -30.9047  -11.4258   19.3987 O   0  0  0  0  0  0  0  0  0  0  0  0
  -23.8360  -29.1882   23.4103 O   0  0  0  0  0  0  0  0  0  0  0  0
  -20.9130  -31.5834   21.7337 O   0  0  0  0  0  0  0  0  0  0  0  0
  -20.8830  -28.8354   17.8648 O   0  0  0  0  0  0  0  0  0  0  0  0
  -30.5185  -21.1531   20.7417 O   0  0  0  0  0  0  0  0  0  0  0  0
  -23.1673  -11.3330   20.2422 O   0  0  0  0  0  0  0  0  0  0  0  0
  -27.2427  -26.6699   18.9675 O   0  0  0  0  0  0  0  0  0  1  0  0
  -22.6635   -6.2366   22.2860 F   0  0  0  0  0  0  0  0  0  0  0  0
  -21.4388  -10.8086   22.3350 F   0  0  0  0  0  0  0  0  0  0  0  0
  -27.7759  -23.9064   14.8501 Br  0  0  0  0  0  0  0  0  0  0  0  0
  1  2  1  0  0  0  0
  1  5  2  0  0  0  0
  2  6  2  0  0  0  0
  3  9  2  0  0  0  0
  3 18  1  0  0  0  0
  4 10  1  0  0  0  0
  4 18  2  0  0  0  0
  5 20  1  0  0  0  0
  6 22  1  0  0  0  0
  7 11  2  0  0  0  0
  7 21  1  0  0  0  0
  8 14  2  0  0  0  0
  8 24  1  0  0  0  0
  9 26  1  0  0  0  0
 10 26  2  0  0  0  0
 11 27  1  0  0  0  0
 12 13  2  0  0  0  0
 12 28  1  0  0  0  0
 13 29  1  0  0  0  0
 14 31  1  0  0  0  0
 15 23  1  0  0  0  0
 15 27  2  0  0  0  0
 16 24  2  0  0  0  0
 16 25  1  0  0  0  0
 17 29  2  0  0  0  0
 17 30  1  0  0  0  0
 18 32  1  0  0  0  0
 19 32  1  0  0  0  0
 19 33  2  0  0  0  0
 19 34  1  0  0  0  0
 20 22  2  0  0  0  0
 20 39  1  0  0  0  0
 21 23  2  0  0  0  0
 21 40  1  0  0  0  0
 22 48  1  0  0  0  0
 23 41  1  0  0  0  0
 24 67  1  0  0  0  0
 25 31  2  0  0  0  0
 25 68  1  0  0  0  0
 26 77  1  0  0  0  0
 27 78  1  0  0  0  0
 28 30  2  0  0  0  0
 28 77  1  0  0  0  0
 29 79  1  0  0  0  0
 30 80  1  0  0  0  0
 31 81  1  0  0  0  0
 32 61  2  0  0  0  0
 33 62  1  0  0  0  0
 33 65  1  0  0  0  0
 34 66  1  0  0  0  0
 34 72  2  0  0  0  0
 35 49  1  0  0  0  0
 35 69  1  0  0  0  0
 35 73  2  0  0  0  0
 36 58  1  0  0  0  0
 36 63  1  0  0  0  0
 36 74  2  0  0  0  0
 37 59  1  0  0  0  0
 37 70  1  0  0  0  0
 37 75  2  0  0  0  0
 38 64  1  0  0  0  0
 38 67  1  0  0  0  0
 38 76  2  0  0  0  0
 39 42  1  0  0  0  0
 40 49  1  0  0  0  0
 41 63  1  0  0  0  0
 42 44  1  0  0  0  0
 43 45  1  0  0  0  0
 43 46  1  0  0  0  0
 44 48  1  0  0  0  0
 45 50  1  0  0  0  0
 46 64  1  0  0  0  0
 47 50  1  0  0  0  0
 47 64  1  0  0  0  0
 48 69  1  0  0  0  0
 49 63  1  0  0  0  0
 50 62  1  0  0  0  0
 51 59  1  0  0  0  0
 52 60  1  0  0  0  0
 53 60  1  0  0  0  0
 54 60  1  0  0  0  0
 55 71  1  0  0  0  0
 56 57  1  0  0  0  0
 56 68  1  0  0  0  0
 57 78  1  0  0  0  0
 58 60  1  0  0  0  0
 58 70  1  0  0  0  0
 59 71  1  0  0  0  0
 61 62  1  0  0  0  0
M  CHG  1  71   1
M  ISO  4  38 100  57 101  67 100  78 101
M  END
> <Batch ID>
0010

> <Smiles>
CNC(C)C(=O)NC(C(=O)N1Cc2cc([101O:1][101CH2:1]CNc3cc([100NH:0][100C:0](=O)N4CCCC(n5nc(-c6ccc(Oc7ccc(F)cc7F)cc6)c(C(N)=O)c5N)C4)ccc3Br)ccc2CC1C(=O)NC1CCCc2ccccc21)C(C)(C)C

> <Shape>
0.312

> <Color>
0.089

> <Negative vol penalty>
0.000

$$$$

  -OEChem-04042320403D

 83 91  0     1  0  0  0  0  0999 V2000
  -28.3774  -31.9611   26.3316 C   0  0  0  0  0  0  0  0  0  0  0  0
  -28.9365  -30.9407   25.5689 C   0  0  0  0  0  0  0  0  0  0  0  0
  -23.2194   -9.8513   22.7831 C   0  0  0  0  0  0  0  0  0  0  0  0
  -23.3372  -10.0000   20.3746 C   0  0  0  0  0  0  0  0  0  0  0  0
  -26.9962  -32.0175   26.5133 C   0  0  0  0  0  0  0  0  0  0  0  0
  -28.1146  -29.9754   24.9883 C   0  0  0  0  0  0  0  0  0  0  0  0
  -28.9473  -27.1905   19.5979 C   0  0  0  0  0  0  0  0  0  0  0  0
  -28.6579  -19.0286   17.3547 C   0  0  0  0  0  0  0  0  0  0  0  0
  -27.9309  -18.3385   18.3247 C   0  0  0  0  0  0  0  0  0  0  0  0
  -22.5212   -8.6487   22.6747 C   0  0  0  0  0  0  0  0  0  0  0  0
  -22.6390   -8.7973   20.2662 C   0  0  0  0  0  0  0  0  0  0  0  0
  -29.4815  -25.9488   19.2563 C   0  0  0  0  0  0  0  0  0  0  0  0
  -23.2340   -5.4011   22.0597 C   0  0  0  0  0  0  0  0  0  0  0  0
  -23.6231   -4.3487   22.8883 C   0  0  0  0  0  0  0  0  0  0  0  0
  -27.2573  -25.0175   19.1880 C   0  0  0  0  0  0  0  0  0  0  0  0
  -26.1964  -20.0170   18.2188 C   0  0  0  0  0  0  0  0  0  0  0  0
  -21.4140   -4.3012   23.8653 C   0  0  0  0  0  0  0  0  0  0  0  0
  -23.6274  -10.5270   21.6330 C   0  0  0  0  0  0  0  0  0  0  0  0
  -25.7436  -11.9389   21.8229 C   0  0  0  0  0  0  0  0  0  0  0  0
  -26.1562  -31.0579   25.9267 C   0  0  0  0  0  0  0  0  0  0  0  0
  -27.5626  -27.3526   19.7481 C   0  0  0  0  0  0  0  0  0  0  0  0
  -26.7209  -30.0182   25.1635 C   0  0  0  0  0  0  0  0  0  0  0  0
  -26.7079  -26.2629   19.5291 C   0  0  0  0  0  0  0  0  0  0  0  0
  -28.1542  -20.2130   16.8168 C   0  0  0  0  0  0  0  0  0  0  0  0
  -26.7001  -18.8327   18.7567 C   0  0  0  0  0  0  0  0  0  0  0  0
  -22.2310   -8.1217   21.4163 C   0  0  0  0  0  0  0  0  0  0  0  0
  -28.6367  -24.8614   19.0541 C   0  0  0  0  0  0  0  0  0  0  0  0
  -21.9349   -5.9037   22.1340 C   0  0  0  0  0  0  0  0  0  0  0  0
  -22.7131   -3.7987   23.7910 C   0  0  0  0  0  0  0  0  0  0  0  0
  -26.9234  -20.7071   17.2488 C   0  0  0  0  0  0  0  0  0  0  0  0
  -21.0249   -5.3537   23.0367 C   0  0  0  0  0  0  0  0  0  0  0  0
  -24.3482  -11.7696   21.7443 C   0  0  0  0  0  0  0  0  0  0  0  0
  -25.9200  -13.2979   21.9145 C   0  0  0  0  0  0  0  0  0  0  0  0
  -26.7870  -10.9556   21.8136 C   0  0  0  0  0  0  0  0  0  0  0  0
  -25.6472  -28.1697   22.1497 C   0  0  0  0  0  0  0  0  0  0  0  0
  -23.3688  -28.1017   19.8418 C   0  0  0  0  0  0  0  0  0  0  0  0
  -22.3527  -26.9145   16.8078 C   0  0  0  0  0  0  0  0  0  0  0  0
  -24.7258  -18.4857   20.2825 C   0  0  0  0  0  0  0  0  0  0  0  0
  -24.6731  -31.1330   26.1904 C   0  0  0  0  0  0  0  0  0  0  0  0
  -27.0002  -28.7049   20.0909 C   0  0  0  0  0  0  0  0  0  0  0  0
  -25.2126  -26.3893   19.6581 C   0  0  0  0  0  0  0  0  0  0  0  0
  -23.8403  -30.2865   25.2312 C   0  0  0  0  0  0  0  0  0  0  0  0
  -22.5683  -17.0090   22.6993 C   0  0  0  0  0  0  0  0  0  0  0  0
  -24.4459  -28.8941   25.0847 C   0  0  0  0  0  0  0  0  0  0  0  0
  -22.9538  -15.5282   22.6728 C   0  0  0  0  0  0  0  0  0  0  0  0
  -22.6278  -17.6356   21.3074 C   0  0  0  0  0  0  0  0  0  0  0  0
  -24.2845  -15.9681   20.5698 C   0  0  0  0  0  0  0  0  0  0  0  0
  -25.8604  -28.9668   24.4970 C   0  0  1  0  0  0  0  0  0  0  0  0
  -25.6126  -28.6328   20.7207 C   0  0  1  0  0  0  0  0  0  0  0  0
  -24.3022  -15.3096   21.9590 C   0  0  2  0  0  0  0  0  0  0  0  0
  -20.4269  -27.0054   15.2014 C   0  0  0  0  0  0  0  0  0  0  0  0
  -21.7874  -26.2051   21.6341 C   0  0  0  0  0  0  0  0  0  0  0  0
  -20.3946  -25.5977   19.6443 C   0  0  0  0  0  0  0  0  0  0  0  0
  -20.4088  -27.9464   20.4844 C   0  0  0  0  0  0  0  0  0  0  0  0
  -24.0340  -28.0972   14.6786 C   0  0  0  0  0  0  0  0  0  0  0  0
  -29.5243  -23.2417   14.9909 C   0  0  0  0  0  0  0  0  0  0  0  0
  -28.9385  -20.9511   15.7723 C   0  0  0  0  0  0  0  0  0  0  0  0
  -30.4500  -22.3835   17.1377 C   0  0  0  0  0  0  0  0  0  0  0  0
  -30.3721  -23.6446   17.9755 C   0  0  0  0  0  0  0  0  0  1  0  0
  -22.4438  -27.0473   19.2834 C   0  0  1  0  0  0  0  0  0  0  0  0
  -21.7620  -27.6161   15.5981 C   0  0  2  0  0  0  0  0  0  0  0  0
  -21.2869  -26.6960   20.2609 C   0  0  0  0  0  0  0  0  0  0  0  0
  -23.6853  -12.9285   21.7829 N   0  0  0  0  0  0  0  0  0  0  0  0
  -24.6683  -13.8390   21.8868 N   0  0  0  0  0  0  0  0  0  0  0  0
  -24.7114  -27.7305   20.0011 N   0  0  0  0  0  0  0  0  0  0  0  0
  -23.9353  -17.3920   20.6943 N   0  0  0  0  0  0  0  0  0  0  0  0
  -27.0221  -14.0710   22.0155 N   0  0  0  0  0  0  0  0  0  0  0  0
  -26.4304   -9.6039   21.7135 N   0  0  0  0  0  0  0  0  0  0  0  0
  -25.9625  -18.1327   19.7435 N   0  0  0  0  0  0  0  0  0  0  0  0
  -25.8033  -29.1901   23.0683 N   0  0  0  0  0  0  0  0  0  0  0  0
  -21.9994  -27.5407   17.9844 N   0  0  0  0  0  0  0  0  0  0  0  0
  -22.6894  -27.5139   14.4360 N   0  3  0  0  0  0  0  0  0  0  0  0
  -29.3070  -22.3531   16.1906 N   0  3  1  0  0  0  0  0  0  0  0  0
  -27.9988  -11.2654   21.9084 O   0  0  0  0  0  0  0  0  0  0  0  0
  -25.5388  -26.9751   22.4004 O   0  0  0  0  0  0  0  0  0  0  0  0
  -22.9181  -29.2158   20.1195 O   0  0  0  0  0  0  0  0  0  0  0  0
  -23.0540  -25.9092   16.7182 O   0  0  0  0  0  0  0  0  0  0  0  0
  -24.3459  -19.6509   20.4244 O   0  0  0  0  0  0  0  0  0  0  0  0
  -21.5499   -6.9481   21.3101 O   0  0  0  0  0  0  0  0  0  0  0  0
  -29.1555  -23.6482   18.7212 O   0  0  0  0  0  0  0  0  0  1  0  0
  -23.0865   -2.7870   24.5856 F   0  0  0  0  0  0  0  0  0  0  0  0
  -26.4311  -21.8442   16.7378 F   0  0  0  0  0  0  0  0  0  0  0  0
  -19.7751   -5.8314   23.1118 F   0  0  0  0  0  0  0  0  0  0  0  0
  1  2  1  0  0  0  0
  1  5  2  0  0  0  0
  2  6  2  0  0  0  0
  3 10  2  0  0  0  0
  3 18  1  0  0  0  0
  4 11  1  0  0  0  0
  4 18  2  0  0  0  0
  5 20  1  0  0  0  0
  6 22  1  0  0  0  0
  7 12  2  0  0  0  0
  7 21  1  0  0  0  0
  8  9  2  0  0  0  0
  8 24  1  0  0  0  0
  9 25  1  0  0  0  0
 10 26  1  0  0  0  0
 11 26  2  0  0  0  0
 12 27  1  0  0  0  0
 13 14  2  0  0  0  0
 13 28  1  0  0  0  0
 14 29  1  0  0  0  0
 15 23  1  0  0  0  0
 15 27  2  0  0  0  0
 16 25  2  0  0  0  0
 16 30  1  0  0  0  0
 17 29  2  0  0  0  0
 17 31  1  0  0  0  0
 18 32  1  0  0  0  0
 19 32  1  0  0  0  0
 19 33  2  0  0  0  0
 19 34  1  0  0  0  0
 20 22  2  0  0  0  0
 20 39  1  0  0  0  0
 21 23  2  0  0  0  0
 21 40  1  0  0  0  0
 22 48  1  0  0  0  0
 23 41  1  0  0  0  0
 24 30  2  0  0  0  0
 24 57  1  0  0  0  0
 25 69  1  0  0  0  0
 26 79  1  0  0  0  0
 27 80  1  0  0  0  0
 28 31  2  0  0  0  0
 28 79  1  0  0  0  0
 29 81  1  0  0  0  0
 30 82  1  0  0  0  0
 31 83  1  0  0  0  0
 32 63  2  0  0  0  0
 33 64  1  0  0  0  0
 33 67  1  0  0  0  0
 34 68  1  0  0  0  0
 34 74  2  0  0  0  0
 35 49  1  0  0  0  0
 35 70  1  0  0  0  0
 35 75  2  0  0  0  0
 36 60  1  0  0  0  0
 36 65  1  0  0  0  0
 36 76  2  0  0  0  0
 37 61  1  0  0  0  0
 37 71  1  0  0  0  0
 37 77  2  0  0  0  0
 38 66  1  0  0  0  0
 38 69  1  0  0  0  0
 38 78  2  0  0  0  0
 39 42  1  0  0  0  0
 40 49  1  0  0  0  0
 41 65  1  0  0  0  0
 42 44  1  0  0  0  0
 43 45  1  0  0  0  0
 43 46  1  0  0  0  0
 44 48  1  0  0  0  0
 45 50  1  0  0  0  0
 46 66  1  0  0  0  0
 47 50  1  0  0  0  0
 47 66  1  0  0  0  0
 48 70  1  0  0  0  0
 49 65  1  0  0  0  0
 50 64  1  0  0  0  0
 51 61  1  0  0  0  0
 52 62  1  0  0  0  0
 53 62  1  0  0  0  0
 54 62  1  0  0  0  0
 55 72  1  0  0  0  0
 56 73  1  0  0  0  0
 57 73  1  0  0  0  0
 58 59  1  0  0  0  0
 58 73  1  0  0  0  0
 59 80  1  0  0  0  0
 60 62  1  0  0  0  0
 60 71  1  0  0  0  0
 61 72  1  0  0  0  0
 63 64  1  0  0  0  0
M  CHG  2  72   1  73   1
M  ISO  4  38 100  59 101  69 100  80 101
M  END
> <Batch ID>
0010

> <Smiles>
CNC(C)C(=O)NC(C(=O)N1Cc2cc([101O:1][101CH2:1]CN(C)Cc3ccc([100NH:0][100C:0](=O)N4CCCC(n5nc(-c6ccc(Oc7ccc(F)cc7F)cc6)c(C(N)=O)c5N)C4)cc3F)ccc2CC1C(=O)NC1CCCc2ccccc21)C(C)(C)C

> <Shape>
0.236

> <Color>
0.068

> <Negative vol penalty>
0.000

$$$$

  -OEChem-04042320403D

 80 88  0     1  0  0  0  0  0999 V2000
  -26.8058  -29.9311   19.1567 C   0  0  0  0  0  0  0  0  0  0  0  0
  -27.0633  -28.5857   19.3997 C   0  0  0  0  0  0  0  0  0  0  0  0
  -22.9067  -15.3173   19.8533 C   0  0  0  0  0  0  0  0  0  0  0  0
  -22.5806  -13.2643   18.6221 C   0  0  0  0  0  0  0  0  0  0  0  0
  -25.7063  -30.5479   19.7521 C   0  0  0  0  0  0  0  0  0  0  0  0
  -26.2220  -27.8566   20.2393 C   0  0  0  0  0  0  0  0  0  0  0  0
  -25.0510  -23.3092   18.3433 C   0  0  0  0  0  0  0  0  0  0  0  0
  -21.8386  -15.8974   19.1690 C   0  0  0  0  0  0  0  0  0  0  0  0
  -21.5124  -13.8444   17.9378 C   0  0  0  0  0  0  0  0  0  0  0  0
  -26.0145  -22.3073   18.4506 C   0  0  0  0  0  0  0  0  0  0  0  0
  -29.5676  -18.1143   22.2582 C   0  0  0  0  0  0  0  0  0  0  0  0
  -18.4706  -14.6662   16.1240 C   0  0  0  0  0  0  0  0  0  0  0  0
  -29.8852  -16.9297   22.9228 C   0  0  0  0  0  0  0  0  0  0  0  0
  -17.3071  -13.9111   15.9766 C   0  0  0  0  0  0  0  0  0  0  0  0
  -30.0898  -17.0682   20.1440 C   0  0  0  0  0  0  0  0  0  0  0  0
  -24.8507  -21.4009   20.3593 C   0  0  0  0  0  0  0  0  0  0  0  0
  -17.0905  -13.7761   18.3791 C   0  0  0  0  0  0  0  0  0  0  0  0
  -23.2778  -14.0008   19.5798 C   0  0  0  0  0  0  0  0  0  0  0  0
  -30.4074  -15.8836   20.8086 C   0  0  0  0  0  0  0  0  0  0  0  0
  -24.3273  -12.6839   21.4960 C   0  0  0  0  0  0  0  0  0  0  0  0
  -24.8455  -29.8235   20.5918 C   0  0  0  0  0  0  0  0  0  0  0  0
  -23.9842  -23.3710   19.2513 C   0  0  0  0  0  0  0  0  0  0  0  0
  -25.1107  -28.4646   20.8477 C   0  0  0  0  0  0  0  0  0  0  0  0
  -23.8735  -22.4030   20.2597 C   0  0  0  0  0  0  0  0  0  0  0  0
  -21.1415  -15.1609   18.2113 C   0  0  0  0  0  0  0  0  0  0  0  0
  -29.6699  -18.1835   20.8689 C   0  0  0  0  0  0  0  0  0  0  0  0
  -25.9160  -21.3546   19.4604 C   0  0  0  0  0  0  0  0  0  0  0  0
  -18.9441  -14.9762   17.3989 C   0  0  0  0  0  0  0  0  0  0  0  0
  -16.6171  -13.4661   17.1042 C   0  0  0  0  0  0  0  0  0  0  0  0
  -30.3051  -15.8144   22.1979 C   0  0  0  0  0  0  0  0  0  0  0  0
  -18.2541  -14.5311   18.5264 C   0  0  0  0  0  0  0  0  0  0  0  0
  -24.3814  -13.4012   20.2859 C   0  0  0  0  0  0  0  0  0  0  0  0
  -25.6307  -12.3279   21.7427 C   0  0  0  0  0  0  0  0  0  0  0  0
  -30.8484  -14.7117   20.0412 C   0  0  0  0  0  0  0  0  0  0  0  0
  -23.1997  -12.3676   22.3231 C   0  0  0  0  0  0  0  0  0  0  0  0
  -22.9851  -25.4926   21.3972 C   0  0  0  0  0  0  0  0  0  0  0  0
  -20.4772  -23.4535   21.6704 C   0  0  0  0  0  0  0  0  0  0  0  0
  -19.2658  -20.2847   21.2987 C   0  0  0  0  0  0  0  0  0  0  0  0
  -23.6967  -30.5453   21.2504 C   0  0  0  0  0  0  0  0  0  0  0  0
  -22.9385  -24.4423   19.1057 C   0  0  0  0  0  0  0  0  0  0  0  0
  -22.7365  -22.4133   21.2474 C   0  0  0  0  0  0  0  0  0  0  0  0
  -22.6402  -29.6079   21.8295 C   0  0  0  0  0  0  0  0  0  0  0  0
  -29.7467  -11.3597   19.5005 C   0  0  0  0  0  0  0  0  0  0  0  0
  -23.3000  -28.4876   22.6272 C   0  0  0  0  0  0  0  0  0  0  0  0
  -28.2370  -11.4377   19.7347 C   0  0  0  0  0  0  0  0  0  0  0  0
  -30.2807  -12.6278   18.8391 C   0  0  0  0  0  0  0  0  0  0  0  0
  -28.4265  -13.9601   19.7834 C   0  0  0  0  0  0  0  0  0  0  0  0
  -24.2071  -27.6339   21.7328 C   0  0  1  0  0  0  0  0  0  0  0  0
  -22.1763  -24.7131   20.3992 C   0  0  1  0  0  0  0  0  0  0  0  0
  -27.8561  -12.7221   20.4947 C   0  0  1  0  0  0  0  0  0  0  0  0
  -17.1900  -18.9166   21.6405 C   0  0  0  0  0  0  0  0  0  0  0  0
  -21.0134  -23.3947   24.6735 C   0  0  0  0  0  0  0  0  0  0  0  0
  -19.5825  -21.3454   24.8184 C   0  0  0  0  0  0  0  0  0  0  0  0
  -18.5945  -23.5023   24.0476 C   0  0  0  0  0  0  0  0  0  0  0  0
  -19.0775  -19.6382   18.4168 C   0  0  0  0  0  0  0  0  0  0  0  0
  -28.8468  -19.2224   18.8943 C   0  0  0  0  0  0  0  0  0  0  0  0
  -27.9151  -20.3851   18.6120 C   0  0  0  0  0  0  0  0  0  1  0  0
  -20.1697  -22.2450   22.5213 C   0  0  1  0  0  0  0  0  0  0  0  0
  -17.9906  -19.7620   20.6622 C   0  0  2  0  0  0  0  0  0  0  0  0
  -19.8626  -22.6225   23.9979 C   0  0  0  0  0  0  0  0  0  0  0  0
  -25.6211  -13.4964   19.7979 N   0  0  0  0  0  0  0  0  0  0  0  0
  -26.3580  -12.8343   20.7060 N   0  0  0  0  0  0  0  0  0  0  0  0
  -29.8765  -13.8141   19.5929 N   0  0  0  0  0  0  0  0  0  0  0  0
  -21.7426  -23.4844   21.0675 N   0  0  0  0  0  0  0  0  0  0  0  0
  -26.2142  -11.6344   22.7432 N   0  0  0  0  0  0  0  0  0  0  0  0
  -21.9318  -12.8103   21.9221 N   0  0  0  0  0  0  0  0  0  0  0  0
  -23.4161  -26.7215   20.9350 N   0  0  0  0  0  0  0  0  0  0  0  0
  -19.0865  -21.5366   21.8480 N   0  0  0  0  0  0  0  0  0  0  0  0
  -18.3113  -18.9255   19.4712 N   0  3  0  0  0  0  0  0  0  0  0  0
  -32.0605  -14.6048   19.8610 O   0  0  0  0  0  0  0  0  0  0  0  0
  -23.3153  -11.7258   23.3947 O   0  0  0  0  0  0  0  0  0  0  0  0
  -23.2008  -25.0151   22.5049 O   0  0  0  0  0  0  0  0  0  0  0  0
  -19.6233  -24.3340   21.5395 O   0  0  0  0  0  0  0  0  0  0  0  0
  -20.3150  -19.6447   21.3109 O   0  0  0  0  0  0  0  0  0  0  0  0
  -20.0990  -15.7266   17.5435 O   0  0  0  0  0  0  0  0  0  0  0  0
  -29.3578  -19.3469   20.2161 O   0  0  0  0  0  0  0  0  0  0  0  0
  -26.8555  -20.3760   19.5678 O   0  0  0  0  0  0  0  0  0  1  0  0
  -15.4989  -12.7423   16.9625 F   0  0  0  0  0  0  0  0  0  0  0  0
  -30.6071  -14.6808   22.8466 F   0  0  0  0  0  0  0  0  0  0  0  0
  -18.7035  -14.8267   19.7538 F   0  0  0  0  0  0  0  0  0  0  0  0
  1  2  1  0  0  0  0
  1  5  2  0  0  0  0
  2  6  2  0  0  0  0
  3  8  2  0  0  0  0
  3 18  1  0  0  0  0
  4  9  1  0  0  0  0
  4 18  2  0  0  0  0
  5 21  1  0  0  0  0
  6 23  1  0  0  0  0
  7 10  2  0  0  0  0
  7 22  1  0  0  0  0
  8 25  1  0  0  0  0
  9 25  2  0  0  0  0
 10 27  1  0  0  0  0
 11 13  2  0  0  0  0
 11 26  1  0  0  0  0
 12 14  2  0  0  0  0
 12 28  1  0  0  0  0
 13 30  1  0  0  0  0
 14 29  1  0  0  0  0
 15 19  1  0  0  0  0
 15 26  2  0  0  0  0
 16 24  1  0  0  0  0
 16 27  2  0  0  0  0
 17 29  2  0  0  0  0
 17 31  1  0  0  0  0
 18 32  1  0  0  0  0
 19 30  2  0  0  0  0
 19 34  1  0  0  0  0
 20 32  1  0  0  0  0
 20 33  2  0  0  0  0
 20 35  1  0  0  0  0
 21 23  2  0  0  0  0
 21 39  1  0  0  0  0
 22 24  2  0  0  0  0
 22 40  1  0  0  0  0
 23 48  1  0  0  0  0
 24 41  1  0  0  0  0
 25 75  1  0  0  0  0
 26 76  1  0  0  0  0
 27 77  1  0  0  0  0
 28 31  2  0  0  0  0
 28 75  1  0  0  0  0
 29 78  1  0  0  0  0
 30 79  1  0  0  0  0
 31 80  1  0  0  0  0
 32 61  2  0  0  0  0
 33 62  1  0  0  0  0
 33 65  1  0  0  0  0
 34 63  1  0  0  0  0
 34 70  2  0  0  0  0
 35 66  1  0  0  0  0
 35 71  2  0  0  0  0
 36 49  1  0  0  0  0
 36 67  1  0  0  0  0
 36 72  2  0  0  0  0
 37 58  1  0  0  0  0
 37 64  1  0  0  0  0
 37 73  2  0  0  0  0
 38 59  1  0  0  0  0
 38 68  1  0  0  0  0
 38 74  2  0  0  0  0
 39 42  1  0  0  0  0
 40 49  1  0  0  0  0
 41 64  1  0  0  0  0
 42 44  1  0  0  0  0
 43 45  1  0  0  0  0
 43 46  1  0  0  0  0
 44 48  1  0  0  0  0
 45 50  1  0  0  0  0
 46 63  1  0  0  0  0
 47 50  1  0  0  0  0
 47 63  1  0  0  0  0
 48 67  1  0  0  0  0
 49 64  1  0  0  0  0
 50 62  1  0  0  0  0
 51 59  1  0  0  0  0
 52 60  1  0  0  0  0
 53 60  1  0  0  0  0
 54 60  1  0  0  0  0
 55 69  1  0  0  0  0
 56 57  1  0  0  0  0
 56 76  1  0  0  0  0
 57 77  1  0  0  0  0
 58 60  1  0  0  0  0
 58 68  1  0  0  0  0
 59 69  1  0  0  0  0
 61 62  1  0  0  0  0
M  CHG  1  69   1
M  ISO  4  19 100  34 100  57 101  77 101
M  END
> <Batch ID>
0010

> <Smiles>
CNC(C)C(=O)NC(C(=O)N1Cc2cc([101O:1][101CH2:1]COc3ccc(F)[100c:0]([100C:0](=O)N4CCCC(n5nc(-c6ccc(Oc7ccc(F)cc7F)cc6)c(C(N)=O)c5N)C4)c3)ccc2CC1C(=O)NC1CCCc2ccccc21)C(C)(C)C

> <Shape>
0.182

> <Color>
0.095

> <Negative vol penalty>
0.000

$$$$

  -OEChem-04042320403D

 80 88  0     1  0  0  0  0  0999 V2000
  -17.0551  -30.2305   23.4881 C   0  0  0  0  0  0  0  0  0  0  0  0
  -18.3306  -30.7524   23.2975 C   0  0  0  0  0  0  0  0  0  0  0  0
  -24.1944  -18.1207   20.1683 C   0  0  0  0  0  0  0  0  0  0  0  0
  -25.1083  -17.0121   22.1107 C   0  0  0  0  0  0  0  0  0  0  0  0
  -16.8615  -28.8498   23.4918 C   0  0  0  0  0  0  0  0  0  0  0  0
  -19.4134  -29.8937   23.1115 C   0  0  0  0  0  0  0  0  0  0  0  0
  -25.6692  -29.4665   19.6477 C   0  0  0  0  0  0  0  0  0  0  0  0
  -23.3382  -17.0405   19.9546 C   0  0  0  0  0  0  0  0  0  0  0  0
  -24.2520  -15.9319   21.8970 C   0  0  0  0  0  0  0  0  0  0  0  0
  -27.0165  -29.1991   19.8865 C   0  0  0  0  0  0  0  0  0  0  0  0
  -24.1068  -13.2315   19.8679 C   0  0  0  0  0  0  0  0  0  0  0  0
  -24.6449  -11.9484   19.9673 C   0  0  0  0  0  0  0  0  0  0  0  0
  -26.5502  -26.8330   19.8329 C   0  0  0  0  0  0  0  0  0  0  0  0
  -23.0997  -11.4387   21.7532 C   0  0  0  0  0  0  0  0  0  0  0  0
  -25.0795  -18.1065   21.2463 C   0  0  0  0  0  0  0  0  0  0  0  0
  -25.7095  -20.3690   22.2423 C   0  0  0  0  0  0  0  0  0  0  0  0
  -17.9409  -27.9739   23.2962 C   0  0  0  0  0  0  0  0  0  0  0  0
  -24.7489  -28.4175   19.5103 C   0  0  0  0  0  0  0  0  0  0  0  0
  -19.2342  -28.4999   23.1140 C   0  0  0  0  0  0  0  0  0  0  0  0
  -25.1922  -27.0897   19.5899 C   0  0  0  0  0  0  0  0  0  0  0  0
  -23.3670  -15.9462   20.8189 C   0  0  0  0  0  0  0  0  0  0  0  0
  -27.4567  -27.8822   19.9821 C   0  0  0  0  0  0  0  0  0  0  0  0
  -23.0652  -13.6182   20.7113 C   0  0  0  0  0  0  0  0  0  0  0  0
  -24.1413  -11.0520   20.9099 C   0  0  0  0  0  0  0  0  0  0  0  0
  -22.5616  -12.7218   21.6539 C   0  0  0  0  0  0  0  0  0  0  0  0
  -25.9646  -19.2218   21.4673 C   0  0  0  0  0  0  0  0  0  0  0  0
  -26.8548  -21.1191   22.1327 C   0  0  0  0  0  0  0  0  0  0  0  0
  -24.5417  -20.7247   22.9942 C   0  0  0  0  0  0  0  0  0  0  0  0
  -22.1601  -27.4821   21.1000 C   0  0  0  0  0  0  0  0  0  0  0  0
  -30.4568  -25.5319   18.6063 C   0  0  0  0  0  0  0  0  0  0  0  0
  -21.9130  -25.3508   18.6671 C   0  0  0  0  0  0  0  0  0  0  0  0
  -23.4638  -23.5915   16.1879 C   0  0  0  0  0  0  0  0  0  0  0  0
  -30.9565  -22.4757   18.3383 C   0  0  0  0  0  0  0  0  0  0  0  0
  -17.6900  -26.4879   23.3554 C   0  0  0  0  0  0  0  0  0  0  0  0
  -23.3036  -28.7223   19.2264 C   0  0  0  0  0  0  0  0  0  0  0  0
  -24.2479  -25.9274   19.4295 C   0  0  0  0  0  0  0  0  0  0  0  0
  -18.8306  -25.6541   22.7776 C   0  0  0  0  0  0  0  0  0  0  0  0
  -28.3644  -23.8044   16.2122 C   0  0  0  0  0  0  0  0  0  0  0  0
  -31.5449  -20.1890   20.9330 C   0  0  0  0  0  0  0  0  0  0  0  0
  -20.1738  -26.1490   23.3044 C   0  0  0  0  0  0  0  0  0  0  0  0
  -29.0466  -25.1148   16.5841 C   0  0  0  0  0  0  0  0  0  0  0  0
  -30.1480  -19.7944   21.4071 C   0  0  0  0  0  0  0  0  0  0  0  0
  -31.5808  -20.3404   19.4177 C   0  0  0  0  0  0  0  0  0  0  0  0
  -28.6208  -22.9253   17.4250 C   0  0  0  0  0  0  0  0  0  0  0  0
  -29.1849  -20.9661   19.3613 C   0  0  0  0  0  0  0  0  0  0  0  0
  -20.4300  -27.6013   22.8842 C   0  0  1  0  0  0  0  0  0  0  0  0
  -22.3653  -27.5839   19.6150 C   0  0  1  0  0  0  0  0  0  0  0  0
  -30.2615  -24.6746   17.3960 C   0  0  2  0  0  0  0  0  0  0  0  0
  -29.0948  -20.7883   20.8908 C   0  0  1  0  0  0  0  0  0  0  0  0
  -23.0072  -21.9014   14.3900 C   0  0  0  0  0  0  0  0  0  0  0  0
  -21.7688  -23.1502   20.7757 C   0  0  0  0  0  0  0  0  0  0  0  0
  -22.2703  -21.4865   18.9733 C   0  0  0  0  0  0  0  0  0  0  0  0
  -20.1918  -22.8609   18.8564 C   0  0  0  0  0  0  0  0  0  0  0  0
  -24.3278  -25.4540   14.0564 C   0  0  0  0  0  0  0  0  0  0  0  0
  -31.0026  -27.8443   19.3396 C   0  0  0  0  0  0  0  0  0  0  0  0
  -29.7212  -28.5618   19.7244 C   0  0  0  0  0  0  0  0  0  1  0  0
  -22.4276  -23.9547   18.4125 C   0  0  1  0  0  0  0  0  0  0  0  0
  -23.1069  -23.3809   14.7275 C   0  0  2  0  0  0  0  0  0  0  0  0
  -21.6823  -22.8848   19.2595 C   0  0  0  0  0  0  0  0  0  0  0  0
  -27.1768  -19.2374   20.9066 N   0  0  0  0  0  0  0  0  0  0  0  0
  -27.6935  -20.4037   21.3296 N   0  0  0  0  0  0  0  0  0  0  0  0
  -22.8434  -26.2769   19.1595 N   0  0  0  0  0  0  0  0  0  0  0  0
  -30.5600  -21.2779   18.9472 N   0  0  0  0  0  0  0  0  0  0  0  0
  -29.9498  -23.3313   17.8818 N   0  0  0  0  0  0  0  0  0  0  0  0
  -27.2162  -22.3144   22.6457 N   0  0  0  0  0  0  0  0  0  0  0  0
  -23.4550  -19.8395   22.9993 N   0  0  0  0  0  0  0  0  0  0  0  0
  -20.8497  -27.6605   21.5004 N   0  0  0  0  0  0  0  0  0  0  0  0
  -30.7738  -26.8460   18.3197 N   0  0  0  0  0  0  0  0  0  0  0  0
  -22.3396  -23.7436   16.9716 N   0  0  0  0  0  0  0  0  0  0  0  0
  -24.1413  -23.9950   13.8478 N   0  3  0  0  0  0  0  0  0  0  0  0
  -24.4578  -21.8034   23.6290 O   0  0  0  0  0  0  0  0  0  0  0  0
  -23.1194  -27.2568   21.8285 O   0  0  0  0  0  0  0  0  0  0  0  0
  -30.3285  -25.0408   19.7217 O   0  0  0  0  0  0  0  0  0  0  0  0
  -20.7308  -25.6121   18.4308 O   0  0  0  0  0  0  0  0  0  0  0  0
  -24.6238  -23.6147   16.5935 O   0  0  0  0  0  0  0  0  0  0  0  0
  -32.1526  -22.7580   18.1897 O   0  0  0  0  0  0  0  0  0  0  0  0
  -22.5315  -14.8920   20.6108 O   0  0  0  0  0  0  0  0  0  0  0  0
  -28.7804  -27.6166   20.2174 O   0  0  0  0  0  0  0  0  0  1  0  0
  -24.6571   -9.8195   21.0042 F   0  0  0  0  0  0  0  0  0  0  0  0
  -21.5602  -13.0871   22.4660 F   0  0  0  0  0  0  0  0  0  0  0  0
  1  2  1  0  0  0  0
  1  5  2  0  0  0  0
  2  6  2  0  0  0  0
  3  8  2  0  0  0  0
  3 15  1  0  0  0  0
  4  9  1  0  0  0  0
  4 15  2  0  0  0  0
  5 17  1  0  0  0  0
  6 19  1  0  0  0  0
  7 10  2  0  0  0  0
  7 18  1  0  0  0  0
  8 21  1  0  0  0  0
  9 21  2  0  0  0  0
 10 22  1  0  0  0  0
 11 12  2  0  0  0  0
 11 23  1  0  0  0  0
 12 24  1  0  0  0  0
 13 20  1  0  0  0  0
 13 22  2  0  0  0  0
 14 24  2  0  0  0  0
 14 25  1  0  0  0  0
 15 26  1  0  0  0  0
 16 26  1  0  0  0  0
 16 27  2  0  0  0  0
 16 28  1  0  0  0  0
 17 19  2  0  0  0  0
 17 34  1  0  0  0  0
 18 20  2  0  0  0  0
 18 35  1  0  0  0  0
 19 46  1  0  0  0  0
 20 36  1  0  0  0  0
 21 77  1  0  0  0  0
 22 78  1  0  0  0  0
 23 25  2  0  0  0  0
 23 77  1  0  0  0  0
 24 79  1  0  0  0  0
 25 80  1  0  0  0  0
 26 60  2  0  0  0  0
 27 61  1  0  0  0  0
 27 65  1  0  0  0  0
 28 66  1  0  0  0  0
 28 71  2  0  0  0  0
 29 47  1  0  0  0  0
 29 67  1  0  0  0  0
 29 72  2  0  0  0  0
 30 48  1  0  0  0  0
 30 68  1  0  0  0  0
 30 73  2  0  0  0  0
 31 57  1  0  0  0  0
 31 62  1  0  0  0  0
 31 74  2  0  0  0  0
 32 58  1  0  0  0  0
 32 69  1  0  0  0  0
 32 75  2  0  0  0  0
 33 63  1  0  0  0  0
 33 64  1  0  0  0  0
 33 76  2  0  0  0  0
 34 37  1  0  0  0  0
 35 47  1  0  0  0  0
 36 62  1  0  0  0  0
 37 40  1  0  0  0  0
 38 41  1  0  0  0  0
 38 44  1  0  0  0  0
 39 42  1  0  0  0  0
 39 43  1  0  0  0  0
 40 46  1  0  0  0  0
 41 48  1  0  0  0  0
 42 49  1  0  0  0  0
 43 63  1  0  0  0  0
 44 64  1  0  0  0  0
 45 49  1  0  0  0  0
 45 63  1  0  0  0  0
 46 67  1  0  0  0  0
 47 62  1  0  0  0  0
 48 64  1  0  0  0  0
 49 61  1  0  0  0  0
 50 58  1  0  0  0  0
 51 59  1  0  0  0  0
 52 59  1  0  0  0  0
 53 59  1  0  0  0  0
 54 70  1  0  0  0  0
 55 56  1  0  0  0  0
 55 68  1  0  0  0  0
 56 78  1  0  0  0  0
 57 59  1  0  0  0  0
 57 69  1  0  0  0  0
 58 70  1  0  0  0  0
 60 61  1  0  0  0  0
M  CHG  1  70   1
M  ISO  4  33 100  56 101  64 100  78 101
M  END
> <Batch ID>
0010

> <Smiles>
CNC(C)C(=O)NC(C(=O)N1Cc2cc([101O:1][101CH2:1]CNC(=O)C3CCC[100N:0]3[100C:0](=O)N3CCCC(n4nc(-c5ccc(Oc6ccc(F)cc6F)cc5)c(C(N)=O)c4N)C3)ccc2CC1C(=O)NC1CCCc2ccccc21)C(C)(C)C

> <Shape>
0.231

> <Color>
0.085

> <Negative vol penalty>
0.000

$$$$

  -OEChem-04042320403D

 85 93  0     1  0  0  0  0  0999 V2000
  -28.5372  -14.7043   27.7324 C   0  0  0  0  0  0  0  0  0  0  0  0
  -28.2288  -15.8966   27.0853 C   0  0  0  0  0  0  0  0  0  0  0  0
  -25.8328  -30.0263   21.8135 C   0  0  0  0  0  0  0  0  0  0  0  0
  -29.3757  -17.4927   21.4029 C   0  0  0  0  0  0  0  0  0  0  0  0
  -31.2773  -18.4612   20.2701 C   0  0  0  0  0  0  0  0  0  0  0  0
  -28.3987  -13.4911   27.0594 C   0  0  0  0  0  0  0  0  0  0  0  0
  -27.7827  -15.8764   25.7643 C   0  0  0  0  0  0  0  0  0  0  0  0
  -23.8152  -18.9309   25.0068 C   0  0  0  0  0  0  0  0  0  0  0  0
  -26.6040  -29.5626   20.7478 C   0  0  0  0  0  0  0  0  0  0  0  0
  -24.4630  -29.7656   21.8485 C   0  0  0  0  0  0  0  0  0  0  0  0
  -29.8464  -16.2150   21.1007 C   0  0  0  0  0  0  0  0  0  0  0  0
  -31.7480  -17.1834   19.9679 C   0  0  0  0  0  0  0  0  0  0  0  0
  -24.0753  -20.2956   24.8906 C   0  0  0  0  0  0  0  0  0  0  0  0
  -29.8810  -14.1403   18.4326 C   0  0  0  0  0  0  0  0  0  0  0  0
  -28.9609  -13.2081   17.9529 C   0  0  0  0  0  0  0  0  0  0  0  0
  -23.9236  -20.1139   22.4899 C   0  0  0  0  0  0  0  0  0  0  0  0
  -24.6355  -28.5775   19.7519 C   0  0  0  0  0  0  0  0  0  0  0  0
  -29.4380  -11.7691   19.8341 C   0  0  0  0  0  0  0  0  0  0  0  0
  -30.0911  -18.6159   20.9876 C   0  0  0  0  0  0  0  0  0  0  0  0
  -29.8975  -20.7015   22.4437 C   0  0  0  0  0  0  0  0  0  0  0  0
  -27.9415  -13.4554   25.7326 C   0  0  0  0  0  0  0  0  0  0  0  0
  -23.6177  -18.1440   23.8630 C   0  0  0  0  0  0  0  0  0  0  0  0
  -27.6393  -14.6617   25.0725 C   0  0  0  0  0  0  0  0  0  0  0  0
  -23.6585  -18.7399   22.5944 C   0  0  0  0  0  0  0  0  0  0  0  0
  -26.0054  -28.8382   19.7170 C   0  0  0  0  0  0  0  0  0  0  0  0
  -23.8643  -29.0413   20.8177 C   0  0  0  0  0  0  0  0  0  0  0  0
  -31.0326  -16.0603   20.3832 C   0  0  0  0  0  0  0  0  0  0  0  0
  -24.1324  -20.8868   23.6319 C   0  0  0  0  0  0  0  0  0  0  0  0
  -30.5797  -13.8868   19.6130 C   0  0  0  0  0  0  0  0  0  0  0  0
  -28.7394  -12.0226   18.6537 C   0  0  0  0  0  0  0  0  0  0  0  0
  -30.3582  -12.7013   20.3137 C   0  0  0  0  0  0  0  0  0  0  0  0
  -29.6051  -19.9361   21.2990 C   0  0  0  0  0  0  0  0  0  0  0  0
  -29.1969  -21.8691   22.2642 C   0  0  0  0  0  0  0  0  0  0  0  0
  -30.7282  -20.3853   23.5687 C   0  0  0  0  0  0  0  0  0  0  0  0
  -25.1109  -15.6548   22.5676 C   0  0  0  0  0  0  0  0  0  0  0  0
  -22.5959  -15.7077   20.5196 C   0  0  0  0  0  0  0  0  0  0  0  0
  -20.0904  -17.5024   19.0540 C   0  0  0  0  0  0  0  0  0  0  0  0
  -27.6858  -26.0713   19.1011 C   0  0  0  0  0  0  0  0  0  0  0  0
  -27.8529  -12.1233   25.0309 C   0  0  0  0  0  0  0  0  0  0  0  0
  -23.3116  -16.6783   24.0066 C   0  0  0  0  0  0  0  0  0  0  0  0
  -23.4334  -17.9431   21.3363 C   0  0  0  0  0  0  0  0  0  0  0  0
  -27.0168  -12.1618   23.7543 C   0  0  0  0  0  0  0  0  0  0  0  0
  -25.6438  -23.0919   18.8772 C   0  0  0  0  0  0  0  0  0  0  0  0
  -27.3995  -13.3673   22.9016 C   0  0  0  0  0  0  0  0  0  0  0  0
  -26.5263  -22.0642   19.5880 C   0  0  0  0  0  0  0  0  0  0  0  0
  -26.4818  -24.0620   18.0497 C   0  0  0  0  0  0  0  0  0  0  0  0
  -28.4263  -23.7454   19.5304 C   0  0  0  0  0  0  0  0  0  0  0  0
  -27.1288  -14.6792   23.6479 C   0  0  1  0  0  0  0  0  0  0  0  0
  -23.6359  -15.8744   22.7512 C   0  0  1  0  0  0  0  0  0  0  0  0
  -27.6399  -22.7493   20.4019 C   0  0  2  0  0  0  0  0  0  0  0  0
  -18.2212  -17.2831   17.3940 C   0  0  0  0  0  0  0  0  0  0  0  0
  -24.6180  -15.7856   18.2359 C   0  0  0  0  0  0  0  0  0  0  0  0
  -22.7676  -16.5145   16.7151 C   0  0  0  0  0  0  0  0  0  0  0  0
  -22.6530  -14.2904   17.8389 C   0  0  0  0  0  0  0  0  0  0  0  0
  -18.0498  -18.1797   21.0877 C   0  0  0  0  0  0  0  0  0  0  0  0
  -20.5802  -27.0539   20.7734 C   0  0  0  0  0  0  0  0  0  0  0  0
  -26.8310  -28.3414   18.5786 C   0  0  0  0  0  0  0  0  0  0  0  0
  -22.3908  -28.7615   20.8551 C   0  0  0  0  0  0  0  0  0  0  0  0
  -22.9323  -25.1239   21.6178 C   0  0  0  0  0  0  0  0  0  0  0  0
  -23.5299  -24.3362   22.7812 C   0  0  0  0  0  0  0  0  0  0  0  0
  -22.6896  -26.5744   22.0074 C   0  0  0  0  0  0  0  0  0  0  0  0
  -23.8185  -22.8928   22.3936 C   0  0  0  0  0  0  0  0  0  1  0  0
  -22.3021  -16.3888   19.2048 C   0  0  1  0  0  0  0  0  0  0  0  0
  -18.6153  -17.2005   18.8605 C   0  0  2  0  0  0  0  0  0  0  0  0
  -23.0914  -15.7597   18.0221 C   0  0  0  0  0  0  0  0  0  0  0  0
  -28.7827  -20.5645   20.4547 N   0  0  0  0  0  0  0  0  0  0  0  0
  -28.5523  -21.7371   21.0695 N   0  0  0  0  0  0  0  0  0  0  0  0
  -23.1437  -16.5125   21.5286 N   0  0  0  0  0  0  0  0  0  0  0  0
  -27.5108  -24.6940   18.8874 N   0  0  0  0  0  0  0  0  0  0  0  0
  -29.0755  -22.9856   23.0133 N   0  0  0  0  0  0  0  0  0  0  0  0
  -31.3750  -19.1422   23.5933 N   0  0  0  0  0  0  0  0  0  0  0  0
  -25.7167  -14.9947   23.6196 N   0  0  0  0  0  0  0  0  0  0  0  0
  -20.8527  -16.3535   19.0418 N   0  0  0  0  0  0  0  0  0  0  0  0
  -26.7815  -26.9019   18.4506 N   0  0  0  0  0  0  0  0  0  0  0  0
  -17.7832  -18.1712   19.6262 N   0  3  0  0  0  0  0  0  0  0  0  0
  -22.0688  -27.2868   20.8647 N   0  3  1  0  0  0  0  0  0  0  0  0
  -30.8790  -21.1749   24.5317 O   0  0  0  0  0  0  0  0  0  0  0  0
  -25.6586  -16.0534   21.5464 O   0  0  0  0  0  0  0  0  0  0  0  0
  -22.3420  -14.5076   20.6490 O   0  0  0  0  0  0  0  0  0  0  0  0
  -20.5235  -18.6436   19.1975 O   0  0  0  0  0  0  0  0  0  0  0  0
  -28.5791  -26.5275   19.8230 O   0  0  0  0  0  0  0  0  0  0  0  0
  -31.4923  -14.8136   20.0883 O   0  0  0  0  0  0  0  0  0  0  0  0
  -24.3869  -22.2186   23.5155 O   0  0  0  0  0  0  0  0  0  1  0  0
  -27.8546  -11.1282   18.1938 F   0  0  0  0  0  0  0  0  0  0  0  0
  -31.0256  -12.4528   21.4489 F   0  0  0  0  0  0  0  0  0  0  0  0
  1  2  1  0  0  0  0
  1  6  2  0  0  0  0
  2  7  2  0  0  0  0
  3  9  1  0  0  0  0
  3 10  2  0  0  0  0
  4 11  2  0  0  0  0
  4 19  1  0  0  0  0
  5 12  1  0  0  0  0
  5 19  2  0  0  0  0
  6 21  1  0  0  0  0
  7 23  1  0  0  0  0
  8 13  2  0  0  0  0
  8 22  1  0  0  0  0
  9 25  2  0  0  0  0
 10 26  1  0  0  0  0
 11 27  1  0  0  0  0
 12 27  2  0  0  0  0
 13 28  1  0  0  0  0
 14 15  2  0  0  0  0
 14 29  1  0  0  0  0
 15 30  1  0  0  0  0
 16 24  1  0  0  0  0
 16 28  2  0  0  0  0
 17 25  1  0  0  0  0
 17 26  2  0  0  0  0
 18 30  2  0  0  0  0
 18 31  1  0  0  0  0
 19 32  1  0  0  0  0
 20 32  1  0  0  0  0
 20 33  2  0  0  0  0
 20 34  1  0  0  0  0
 21 23  2  0  0  0  0
 21 39  1  0  0  0  0
 22 24  2  0  0  0  0
 22 40  1  0  0  0  0
 23 48  1  0  0  0  0
 24 41  1  0  0  0  0
 25 57  1  0  0  0  0
 26 58  1  0  0  0  0
 27 82  1  0  0  0  0
 28 83  1  0  0  0  0
 29 31  2  0  0  0  0
 29 82  1  0  0  0  0
 30 84  1  0  0  0  0
 31 85  1  0  0  0  0
 32 66  2  0  0  0  0
 33 67  1  0  0  0  0
 33 70  1  0  0  0  0
 34 71  1  0  0  0  0
 34 77  2  0  0  0  0
 35 49  1  0  0  0  0
 35 72  1  0  0  0  0
 35 78  2  0  0  0  0
 36 63  1  0  0  0  0
 36 68  1  0  0  0  0
 36 79  2  0  0  0  0
 37 64  1  0  0  0  0
 37 73  1  0  0  0  0
 37 80  2  0  0  0  0
 38 69  1  0  0  0  0
 38 74  1  0  0  0  0
 38 81  2  0  0  0  0
 39 42  1  0  0  0  0
 40 49  1  0  0  0  0
 41 68  1  0  0  0  0
 42 44  1  0  0  0  0
 43 45  1  0  0  0  0
 43 46  1  0  0  0  0
 44 48  1  0  0  0  0
 45 50  1  0  0  0  0
 46 69  1  0  0  0  0
 47 50  1  0  0  0  0
 47 69  1  0  0  0  0
 48 72  1  0  0  0  0
 49 68  1  0  0  0  0
 50 67  1  0  0  0  0
 51 64  1  0  0  0  0
 52 65  1  0  0  0  0
 53 65  1  0  0  0  0
 54 65  1  0  0  0  0
 55 75  1  0  0  0  0
 56 76  1  0  0  0  0
 57 74  1  0  0  0  0
 58 76  1  0  0  0  0
 59 60  1  0  0  0  0
 59 61  1  0  0  0  0
 60 62  1  0  0  0  0
 61 76  1  0  0  0  0
 62 83  1  0  0  0  0
 63 65  1  0  0  0  0
 63 73  1  0  0  0  0
 64 75  1  0  0  0  0
 66 67  1  0  0  0  0
M  CHG  2  75   1  76   1
M  ISO  4  38 100  62 101  74 100  83 101
M  END
> <Batch ID>
0010

> <Smiles>
CNC(C)C(=O)NC(C(=O)N1Cc2cc([101O:1][101CH2:1]CCCN(C)Cc3cccc(C[100NH:0][100C:0](=O)N4CCCC(n5nc(-c6ccc(Oc7ccc(F)cc7F)cc6)c(C(N)=O)c5N)C4)c3)ccc2CC1C(=O)NC1CCCc2ccccc21)C(C)(C)C

> <Shape>
0.167

> <Color>
0.087

> <Negative vol penalty>
0.000

$$$$

  -OEChem-04042320403D

 82 90  0     1  0  0  0  0  0999 V2000
  -24.6122  -34.0114   28.0639 C   0  0  0  0  0  0  0  0  0  0  0  0
  -25.4919  -33.1965   27.3586 C   0  0  0  0  0  0  0  0  0  0  0  0
  -24.2567   -9.1059   21.4812 C   0  0  0  0  0  0  0  0  0  0  0  0
  -24.7683  -10.3935   23.4604 C   0  0  0  0  0  0  0  0  0  0  0  0
  -23.2367  -33.8149   27.9481 C   0  0  0  0  0  0  0  0  0  0  0  0
  -24.9966  -32.1839   26.5377 C   0  0  0  0  0  0  0  0  0  0  0  0
  -27.3828  -30.2386   21.2437 C   0  0  0  0  0  0  0  0  0  0  0  0
  -30.2159  -18.8786   20.0778 C   0  0  0  0  0  0  0  0  0  0  0  0
  -23.9218   -8.0121   22.2793 C   0  0  0  0  0  0  0  0  0  0  0  0
  -24.4333   -9.2997   24.2585 C   0  0  0  0  0  0  0  0  0  0  0  0
  -28.1972  -29.1529   20.9246 C   0  0  0  0  0  0  0  0  0  0  0  0
  -30.3965  -20.2134   20.4399 C   0  0  0  0  0  0  0  0  0  0  0  0
  -21.2944   -7.0103   24.1570 C   0  0  0  0  0  0  0  0  0  0  0  0
  -20.1253   -6.3155   23.8470 C   0  0  0  0  0  0  0  0  0  0  0  0
  -26.2451  -27.8791   20.3032 C   0  0  0  0  0  0  0  0  0  0  0  0
  -28.0127  -20.4509   20.7535 C   0  0  0  0  0  0  0  0  0  0  0  0
  -21.4143   -4.3017   23.4998 C   0  0  0  0  0  0  0  0  0  0  0  0
  -24.6800  -10.2966   22.0717 C   0  0  0  0  0  0  0  0  0  0  0  0
  -24.1683  -12.4504   20.8040 C   0  0  0  0  0  0  0  0  0  0  0  0
  -22.7241  -32.8057   27.1179 C   0  0  0  0  0  0  0  0  0  0  0  0
  -25.9903  -30.1489   21.1050 C   0  0  0  0  0  0  0  0  0  0  0  0
  -23.6130  -31.9729   26.4117 C   0  0  0  0  0  0  0  0  0  0  0  0
  -25.4155  -28.9660   20.6188 C   0  0  0  0  0  0  0  0  0  0  0  0
  -28.9336  -18.3299   20.0534 C   0  0  0  0  0  0  0  0  0  0  0  0
  -24.0101   -8.1090   23.6679 C   0  0  0  0  0  0  0  0  0  0  0  0
  -27.6281  -27.9719   20.4571 C   0  0  0  0  0  0  0  0  0  0  0  0
  -29.2950  -20.9996   20.7778 C   0  0  0  0  0  0  0  0  0  0  0  0
  -22.5234   -6.3509   24.1383 C   0  0  0  0  0  0  0  0  0  0  0  0
  -20.1853   -4.9612   23.5185 C   0  0  0  0  0  0  0  0  0  0  0  0
  -27.8321  -19.1160   20.3913 C   0  0  0  0  0  0  0  0  0  0  0  0
  -22.5834   -4.9966   23.8098 C   0  0  0  0  0  0  0  0  0  0  0  0
  -25.0267  -11.4267   21.2478 C   0  0  0  0  0  0  0  0  0  0  0  0
  -24.9747  -13.2760   20.0594 C   0  0  0  0  0  0  0  0  0  0  0  0
  -22.7672  -12.6382   21.0434 C   0  0  0  0  0  0  0  0  0  0  0  0
  -23.5206  -30.3437   23.0966 C   0  0  0  0  0  0  0  0  0  0  0  0
  -21.7957  -30.1726   20.3547 C   0  0  0  0  0  0  0  0  0  0  0  0
  -21.6387  -29.2028   17.0865 C   0  0  0  0  0  0  0  0  0  0  0  0
  -29.7411  -16.0584   19.3221 C   0  0  0  0  0  0  0  0  0  0  0  0
  -21.2309  -32.6009   27.0614 C   0  0  0  0  0  0  0  0  0  0  0  0
  -25.1278  -31.3381   21.4281 C   0  0  0  0  0  0  0  0  0  0  0  0
  -23.9275  -28.8254   20.4328 C   0  0  0  0  0  0  0  0  0  0  0  0
  -20.7774  -31.7478   25.8795 C   0  0  0  0  0  0  0  0  0  0  0  0
  -29.7068  -12.6236   18.3850 C   0  0  0  0  0  0  0  0  0  0  0  0
  -21.6503  -30.5032   25.7534 C   0  0  0  0  0  0  0  0  0  0  0  0
  -28.4155  -12.0902   19.0097 C   0  0  0  0  0  0  0  0  0  0  0  0
  -30.3849  -13.6587   19.2809 C   0  0  0  0  0  0  0  0  0  0  0  0
  -28.2331  -14.2360   20.3323 C   0  0  0  0  0  0  0  0  0  0  0  0
  -23.1136  -30.8799   25.4919 C   0  0  1  0  0  0  0  0  0  0  0  0
  -23.6820  -30.9615   21.7365 C   0  0  1  0  0  0  0  0  0  0  0  0
  -27.4802  -13.2383   19.4372 C   0  0  2  0  0  0  0  0  0  0  0  0
  -20.0851  -29.1624   15.1161 C   0  0  0  0  0  0  0  0  0  0  0  0
  -20.2767  -27.8395   21.6034 C   0  0  0  0  0  0  0  0  0  0  0  0
  -19.4426  -27.2500   19.3175 C   0  0  0  0  0  0  0  0  0  0  0  0
  -18.8500  -29.4513   20.3303 C   0  0  0  0  0  0  0  0  0  0  0  0
  -23.4541  -30.8939   15.4731 C   0  0  0  0  0  0  0  0  0  0  0  0
  -28.9589  -24.6088   20.6297 C   0  0  0  0  0  0  0  0  0  0  0  0
  -27.8587  -25.6093   20.3123 C   0  0  0  0  0  0  0  0  0  1  0  0
  -28.4097  -23.2060   20.8371 C   0  0  0  0  0  0  0  0  0  0  0  0
  -21.2136  -29.0531   19.5260 C   0  0  1  0  0  0  0  0  0  0  0  0
  -21.1770  -29.9352   15.8395 C   0  0  2  0  0  0  0  0  0  0  0  0
  -19.9736  -28.4001   20.1995 C   0  0  0  0  0  0  0  0  0  0  0  0
  -26.2823  -11.5853   20.8207 N   0  0  0  0  0  0  0  0  0  0  0  0
  -26.2187  -12.7183   20.1006 N   0  0  0  0  0  0  0  0  0  0  0  0
  -23.1260  -30.0139   20.7684 N   0  0  0  0  0  0  0  0  0  0  0  0
  -29.4398  -14.7176   19.6419 N   0  0  0  0  0  0  0  0  0  0  0  0
  -24.7340  -14.4175   19.3799 N   0  0  0  0  0  0  0  0  0  0  0  0
  -22.0916  -11.6955   21.8304 N   0  0  0  0  0  0  0  0  0  0  0  0
  -28.7535  -16.9736   19.6850 N   0  0  0  0  0  0  0  0  0  0  0  0
  -23.2983  -31.2591   24.1075 N   0  0  0  0  0  0  0  0  0  0  0  0
  -20.9493  -29.6168   18.2066 N   0  0  0  0  0  0  0  0  0  0  0  0
  -22.3176  -30.1280   14.8999 N   0  3  0  0  0  0  0  0  0  0  0  0
  -22.1296  -13.6042   20.5598 O   0  0  0  0  0  0  0  0  0  0  0  0
  -23.5911  -29.1265   23.2195 O   0  0  0  0  0  0  0  0  0  0  0  0
  -21.0982  -31.1551   20.6191 O   0  0  0  0  0  0  0  0  0  0  0  0
  -22.5198  -28.3462   17.0680 O   0  0  0  0  0  0  0  0  0  0  0  0
  -30.7851  -16.3685   18.7427 O   0  0  0  0  0  0  0  0  0  0  0  0
  -23.6831   -7.0420   24.4471 O   0  0  0  0  0  0  0  0  0  0  0  0
  -28.4206  -26.9104   20.1455 O   0  0  0  0  0  0  0  0  0  1  0  0
  -29.4727  -22.3109   21.1348 O   0  0  0  0  0  0  0  0  0  0  0  0
  -19.0624   -4.2937   23.2223 F   0  0  0  0  0  0  0  0  0  0  0  0
  -26.5952  -18.5992   20.3709 F   0  0  0  0  0  0  0  0  0  0  0  0
  -23.7611   -4.3575   23.7913 F   0  0  0  0  0  0  0  0  0  0  0  0
  1  2  1  0  0  0  0
  1  5  2  0  0  0  0
  2  6  2  0  0  0  0
  3  9  2  0  0  0  0
  3 18  1  0  0  0  0
  4 10  1  0  0  0  0
  4 18  2  0  0  0  0
  5 20  1  0  0  0  0
  6 22  1  0  0  0  0
  7 11  2  0  0  0  0
  7 21  1  0  0  0  0
  8 12  2  0  0  0  0
  8 24  1  0  0  0  0
  9 25  1  0  0  0  0
 10 25  2  0  0  0  0
 11 26  1  0  0  0  0
 12 27  1  0  0  0  0
 13 14  2  0  0  0  0
 13 28  1  0  0  0  0
 14 29  1  0  0  0  0
 15 23  1  0  0  0  0
 15 26  2  0  0  0  0
 16 27  2  0  0  0  0
 16 30  1  0  0  0  0
 17 29  2  0  0  0  0
 17 31  1  0  0  0  0
 18 32  1  0  0  0  0
 19 32  1  0  0  0  0
 19 33  2  0  0  0  0
 19 34  1  0  0  0  0
 20 22  2  0  0  0  0
 20 39  1  0  0  0  0
 21 23  2  0  0  0  0
 21 40  1  0  0  0  0
 22 48  1  0  0  0  0
 23 41  1  0  0  0  0
 24 30  2  0  0  0  0
 24 68  1  0  0  0  0
 25 77  1  0  0  0  0
 26 78  1  0  0  0  0
 27 79  1  0  0  0  0
 28 31  2  0  0  0  0
 28 77  1  0  0  0  0
 29 80  1  0  0  0  0
 30 81  1  0  0  0  0
 31 82  1  0  0  0  0
 32 62  2  0  0  0  0
 33 63  1  0  0  0  0
 33 66  1  0  0  0  0
 34 67  1  0  0  0  0
 34 72  2  0  0  0  0
 35 49  1  0  0  0  0
 35 69  1  0  0  0  0
 35 73  2  0  0  0  0
 36 59  1  0  0  0  0
 36 64  1  0  0  0  0
 36 74  2  0  0  0  0
 37 60  1  0  0  0  0
 37 70  1  0  0  0  0
 37 75  2  0  0  0  0
 38 65  1  0  0  0  0
 38 68  1  0  0  0  0
 38 76  2  0  0  0  0
 39 42  1  0  0  0  0
 40 49  1  0  0  0  0
 41 64  1  0  0  0  0
 42 44  1  0  0  0  0
 43 45  1  0  0  0  0
 43 46  1  0  0  0  0
 44 48  1  0  0  0  0
 45 50  1  0  0  0  0
 46 65  1  0  0  0  0
 47 50  1  0  0  0  0
 47 65  1  0  0  0  0
 48 69  1  0  0  0  0
 49 64  1  0  0  0  0
 50 63  1  0  0  0  0
 51 60  1  0  0  0  0
 52 61  1  0  0  0  0
 53 61  1  0  0  0  0
 54 61  1  0  0  0  0
 55 71  1  0  0  0  0
 56 57  1  0  0  0  0
 56 58  1  0  0  0  0
 57 78  1  0  0  0  0
 58 79  1  0  0  0  0
 59 61  1  0  0  0  0
 59 70  1  0  0  0  0
 60 71  1  0  0  0  0
 62 63  1  0  0  0  0
M  CHG  1  71   1
M  ISO  4  38 100  57 101  68 100  78 101
M  END
> <Batch ID>
0010

> <Smiles>
CNC(C)C(=O)NC(C(=O)N1Cc2cc([101O:1][101CH2:1]CCOc3ccc([100NH:0][100C:0](=O)N4CCCC(n5nc(-c6ccc(Oc7ccc(F)cc7F)cc6)c(C(N)=O)c5N)C4)c(F)c3)ccc2CC1C(=O)NC1CCCc2ccccc21)C(C)(C)C

> <Shape>
0.303

> <Color>
0.145

> <Negative vol penalty>
0.000

$$$$

  -OEChem-04042320403D

 89 98  0     1  0  0  0  0  0999 V2000
  -21.6194  -29.9782   13.8571 C   0  0  0  0  0  0  0  0  0  0  0  0
  -22.7284  -29.4633   14.5208 C   0  0  0  0  0  0  0  0  0  0  0  0
  -23.0901  -13.4584   23.1999 C   0  0  0  0  0  0  0  0  0  0  0  0
  -23.2212  -15.6186   22.1259 C   0  0  0  0  0  0  0  0  0  0  0  0
  -21.2228  -31.2956   14.0830 C   0  0  0  0  0  0  0  0  0  0  0  0
  -23.4420  -30.2660   15.4102 C   0  0  0  0  0  0  0  0  0  0  0  0
  -24.5748  -27.8593   19.7194 C   0  0  0  0  0  0  0  0  0  0  0  0
  -31.1393  -23.8330   18.8477 C   0  0  0  0  0  0  0  0  0  0  0  0
  -30.2232  -22.6027   20.7143 C   0  0  0  0  0  0  0  0  0  0  0  0
  -29.9718  -24.5926   18.7753 C   0  0  0  0  0  0  0  0  0  0  0  0
  -29.0556  -23.3624   20.6420 C   0  0  0  0  0  0  0  0  0  0  0  0
  -30.1237  -18.2917   18.7549 C   0  0  0  0  0  0  0  0  0  0  0  0
  -30.7019  -19.5528   18.6108 C   0  0  0  0  0  0  0  0  0  0  0  0
  -22.2382  -13.9911   24.1674 C   0  0  0  0  0  0  0  0  0  0  0  0
  -22.3691  -16.1513   23.0934 C   0  0  0  0  0  0  0  0  0  0  0  0
  -25.6407  -26.9613   19.6859 C   0  0  0  0  0  0  0  0  0  0  0  0
  -19.0537  -16.1789   23.7471 C   0  0  0  0  0  0  0  0  0  0  0  0
  -18.0152  -17.0021   23.3116 C   0  0  0  0  0  0  0  0  0  0  0  0
  -27.0716  -28.6321   20.6759 C   0  0  0  0  0  0  0  0  0  0  0  0
  -32.1909  -17.4493   19.6790 C   0  0  0  0  0  0  0  0  0  0  0  0
  -18.9001  -18.8189   24.6356 C   0  0  0  0  0  0  0  0  0  0  0  0
  -23.5817  -14.2722   22.1792 C   0  0  0  0  0  0  0  0  0  0  0  0
  -24.0957  -13.1357   19.9539 C   0  0  0  0  0  0  0  0  0  0  0  0
  -21.9261  -32.1118   14.9829 C   0  0  0  0  0  0  0  0  0  0  0  0
  -24.7523  -29.1563   20.2222 C   0  0  0  0  0  0  0  0  0  0  0  0
  -23.0552  -31.5960   15.6473 C   0  0  0  0  0  0  0  0  0  0  0  0
  -26.0057  -29.5438   20.7170 C   0  0  0  0  0  0  0  0  0  0  0  0
  -31.2651  -22.8379   19.8171 C   0  0  0  0  0  0  0  0  0  0  0  0
  -28.9299  -24.3574   19.6725 C   0  0  0  0  0  0  0  0  0  0  0  0
  -32.7692  -18.7104   19.5349 C   0  0  0  0  0  0  0  0  0  0  0  0
  -30.8681  -17.2399   19.2891 C   0  0  0  0  0  0  0  0  0  0  0  0
  -32.0247  -19.7622   19.0007 C   0  0  0  0  0  0  0  0  0  0  0  0
  -21.8776  -15.3375   24.1141 C   0  0  0  0  0  0  0  0  0  0  0  0
  -26.8901  -27.3485   20.1615 C   0  0  0  0  0  0  0  0  0  0  0  0
  -20.0153  -16.6758   24.6270 C   0  0  0  0  0  0  0  0  0  0  0  0
  -17.9385  -18.3221   23.7558 C   0  0  0  0  0  0  0  0  0  0  0  0
  -19.9385  -17.9958   25.0712 C   0  0  0  0  0  0  0  0  0  0  0  0
  -24.4623  -13.7227   21.1798 C   0  0  0  0  0  0  0  0  0  0  0  0
  -25.2883  -12.7765   19.3750 C   0  0  0  0  0  0  0  0  0  0  0  0
  -22.7936  -12.9333   19.3889 C   0  0  0  0  0  0  0  0  0  0  0  0
  -24.5005  -32.0850   19.0126 C   0  0  0  0  0  0  0  0  0  0  0  0
  -25.0269  -32.9783   22.0862 C   0  0  0  0  0  0  0  0  0  0  0  0
  -26.3134  -32.1997   25.1498 C   0  0  0  0  0  0  0  0  0  0  0  0
  -30.8787  -14.8079   19.9461 C   0  0  0  0  0  0  0  0  0  0  0  0
  -21.4878  -33.5442   15.1588 C   0  0  0  0  0  0  0  0  0  0  0  0
  -23.5858  -30.1043   20.2761 C   0  0  0  0  0  0  0  0  0  0  0  0
  -26.2435  -30.9181   21.2856 C   0  0  0  0  0  0  0  0  0  0  0  0
  -22.0744  -34.2127   16.3994 C   0  0  0  0  0  0  0  0  0  0  0  0
  -29.7568  -11.4751   20.5034 C   0  0  0  0  0  0  0  0  0  0  0  0
  -23.5701  -33.9309   16.5009 C   0  0  0  0  0  0  0  0  0  0  0  0
  -28.2378  -11.6190   20.6225 C   0  0  0  0  0  0  0  0  0  0  0  0
  -30.4896  -12.6590   21.1318 C   0  0  0  0  0  0  0  0  0  0  0  0
  -28.5413  -14.1235   20.7730 C   0  0  0  0  0  0  0  0  0  0  0  0
  -23.8403  -32.4277   16.6383 C   0  0  1  0  0  0  0  0  0  0  0  0
  -24.0084  -31.5690   20.3352 C   0  0  1  0  0  0  0  0  0  0  0  0
  -27.7584  -12.9862   20.0967 C   0  0  2  0  0  0  0  0  0  0  0  0
  -34.1882  -18.9066   19.9596 C   0  0  0  0  0  0  0  0  0  0  0  0
  -32.3789  -21.2802   16.4317 C   0  0  0  0  0  0  0  0  0  0  0  0
  -26.6266  -33.1454   27.4530 C   0  0  0  0  0  0  0  0  0  0  0  0
  -27.3077  -34.7241   21.0566 C   0  0  0  0  0  0  0  0  0  0  0  0
  -28.1582  -34.8774   23.4064 C   0  0  0  0  0  0  0  0  0  0  0  0
  -25.9049  -35.7829   22.8358 C   0  0  0  0  0  0  0  0  0  0  0  0
  -24.6897  -30.0519   26.3785 C   0  0  0  0  0  0  0  0  0  0  0  0
  -32.5130  -22.0253   19.8951 C   0  0  0  0  0  0  0  0  0  0  0  0
  -27.6750  -25.1762   19.5951 C   0  0  0  0  0  0  0  0  0  1  0  0
  -33.2893  -21.3812   17.6080 C   0  0  0  0  0  0  0  0  0  0  0  0
  -26.2506  -33.2797   22.9173 C   0  0  1  0  0  0  0  0  0  0  0  0
  -25.7301  -32.3164   26.5465 C   0  0  2  0  0  0  0  0  0  0  0  0
  -26.9017  -34.6407   22.5416 C   0  0  0  0  0  0  0  0  0  0  0  0
  -25.7843  -13.7374   21.3696 N   0  0  0  0  0  0  0  0  0  0  0  0
  -26.2589  -13.1551   20.2552 N   0  0  0  0  0  0  0  0  0  0  0  0
  -25.0732  -31.8110   21.3108 N   0  0  0  0  0  0  0  0  0  0  0  0
  -29.9860  -13.9199   20.5827 N   0  0  0  0  0  0  0  0  0  0  0  0
  -25.5910  -12.1768   18.2040 N   0  0  0  0  0  0  0  0  0  0  0  0
  -21.6754  -13.3623   20.1169 N   0  0  0  0  0  0  0  0  0  0  0  0
  -30.2802  -15.9589   19.4346 N   0  0  0  0  0  0  0  0  0  0  0  0
  -23.5747  -31.9881   17.9913 N   0  0  0  0  0  0  0  0  0  0  0  0
  -25.8314  -33.1824   24.3113 N   0  0  0  0  0  0  0  0  0  0  0  0
  -32.5900  -21.0375   18.8488 N   0  0  3  0  0  0  0  0  0  0  0  0
  -25.5673  -30.9655   27.1544 N   0  3  0  0  0  0  0  0  0  0  0  0
  -22.6257  -12.3735   18.2790 O   0  0  0  0  0  0  0  0  0  0  0  0
  -25.6354  -32.5388   18.9255 O   0  0  0  0  0  0  0  0  0  0  0  0
  -24.0626  -33.7464   22.1291 O   0  0  0  0  0  0  0  0  0  0  0  0
  -27.1190  -31.3264   24.8352 O   0  0  0  0  0  0  0  0  0  0  0  0
  -32.0807  -14.5525   19.8370 O   0  0  0  0  0  0  0  0  0  0  0  0
  -21.0461  -15.8575   25.0579 O   0  0  0  0  0  0  0  0  0  0  0  0
  -27.9323  -26.4741   20.1294 O   0  0  0  0  0  0  0  0  0  1  0  0
  -16.9421  -19.1129   23.3363 F   0  0  0  0  0  0  0  0  0  0  0  0
  -20.8601  -18.4790   25.9156 F   0  0  0  0  0  0  0  0  0  0  0  0
  1  2  1  0  0  0  0
  1  5  2  0  0  0  0
  2  6  2  0  0  0  0
  3 14  2  0  0  0  0
  3 22  1  0  0  0  0
  4 15  1  0  0  0  0
  4 22  2  0  0  0  0
  5 24  1  0  0  0  0
  6 26  1  0  0  0  0
  7 16  2  0  0  0  0
  7 25  1  0  0  0  0
  8 10  2  0  0  0  0
  8 28  1  0  0  0  0
  9 11  1  0  0  0  0
  9 28  2  0  0  0  0
 10 29  1  0  0  0  0
 11 29  2  0  0  0  0
 12 13  2  0  0  0  0
 12 31  1  0  0  0  0
 13 32  1  0  0  0  0
 14 33  1  0  0  0  0
 15 33  2  0  0  0  0
 16 34  1  0  0  0  0
 17 18  2  0  0  0  0
 17 35  1  0  0  0  0
 18 36  1  0  0  0  0
 19 27  1  0  0  0  0
 19 34  2  0  0  0  0
 20 30  1  0  0  0  0
 20 31  2  0  0  0  0
 21 36  2  0  0  0  0
 21 37  1  0  0  0  0
 22 38  1  0  0  0  0
 23 38  1  0  0  0  0
 23 39  2  0  0  0  0
 23 40  1  0  0  0  0
 24 26  2  0  0  0  0
 24 45  1  0  0  0  0
 25 27  2  0  0  0  0
 25 46  1  0  0  0  0
 26 54  1  0  0  0  0
 27 47  1  0  0  0  0
 28 64  1  0  0  0  0
 29 65  1  0  0  0  0
 30 32  2  0  0  0  0
 30 57  1  0  0  0  0
 31 76  1  0  0  0  0
 32 79  1  0  0  0  0
 33 86  1  0  0  0  0
 34 87  1  0  0  0  0
 35 37  2  0  0  0  0
 35 86  1  0  0  0  0
 36 88  1  0  0  0  0
 37 89  1  0  0  0  0
 38 70  2  0  0  0  0
 39 71  1  0  0  0  0
 39 74  1  0  0  0  0
 40 75  1  0  0  0  0
 40 81  2  0  0  0  0
 41 55  1  0  0  0  0
 41 77  1  0  0  0  0
 41 82  2  0  0  0  0
 42 67  1  0  0  0  0
 42 72  1  0  0  0  0
 42 83  2  0  0  0  0
 43 68  1  0  0  0  0
 43 78  1  0  0  0  0
 43 84  2  0  0  0  0
 44 73  1  0  0  0  0
 44 76  1  0  0  0  0
 44 85  2  0  0  0  0
 45 48  1  0  0  0  0
 46 55  1  0  0  0  0
 47 72  1  0  0  0  0
 48 50  1  0  0  0  0
 49 51  1  0  0  0  0
 49 52  1  0  0  0  0
 50 54  1  0  0  0  0
 51 56  1  0  0  0  0
 52 73  1  0  0  0  0
 53 56  1  0  0  0  0
 53 73  1  0  0  0  0
 54 77  1  0  0  0  0
 55 72  1  0  0  0  0
 56 71  1  0  0  0  0
 58 66  1  0  0  0  0
 59 68  1  0  0  0  0
 60 69  1  0  0  0  0
 61 69  1  0  0  0  0
 62 69  1  0  0  0  0
 63 80  1  0  0  0  0
 64 79  1  0  0  0  0
 65 87  1  0  0  0  0
 66 79  1  0  0  0  0
 67 69  1  0  0  0  0
 67 78  1  0  0  0  0
 68 80  1  0  0  0  0
 70 71  1  0  0  0  0
M  CHG  1  80   1
M  ISO  4  44 100  65 101  76 100  87 101
M  END
> <Batch ID>
0010

> <Smiles>
CCN(Cc1ccc([101CH2:1][101O:1]c2ccc3c(c2)CN(C(=O)C(NC(=O)C(C)NC)C(C)(C)C)C(C(=O)NC2CCCc4ccccc42)C3)cc1)c1ccc([100NH:0][100C:0](=O)N2CCCC(n3nc(-c4ccc(Oc5ccc(F)cc5F)cc4)c(C(N)=O)c3N)C2)cc1C

> <Shape>
0.238

> <Color>
0.098

> <Negative vol penalty>
0.000

$$$$

  -OEChem-04042320403D

 82 90  0     1  0  0  0  0  0999 V2000
  -27.2893  -33.5383   26.5883 C   0  0  0  0  0  0  0  0  0  0  0  0
  -27.6078  -32.4121   25.8362 C   0  0  0  0  0  0  0  0  0  0  0  0
  -31.6347  -21.6715   17.9168 C   0  0  0  0  0  0  0  0  0  0  0  0
  -24.7544  -12.6098   21.6301 C   0  0  0  0  0  0  0  0  0  0  0  0
  -25.6287  -12.6882   19.3792 C   0  0  0  0  0  0  0  0  0  0  0  0
  -25.9617  -33.7963   26.9271 C   0  0  0  0  0  0  0  0  0  0  0  0
  -26.5989  -31.5426   25.4234 C   0  0  0  0  0  0  0  0  0  0  0  0
  -27.0867  -30.1626   20.5755 C   0  0  0  0  0  0  0  0  0  0  0  0
  -31.3274  -22.8330   17.2082 C   0  0  0  0  0  0  0  0  0  0  0  0
  -30.6381  -21.0052   18.6299 C   0  0  0  0  0  0  0  0  0  0  0  0
  -24.1259  -11.3980   21.3438 C   0  0  0  0  0  0  0  0  0  0  0  0
  -25.0002  -11.4763   19.0929 C   0  0  0  0  0  0  0  0  0  0  0  0
  -28.0379  -29.1858   20.2841 C   0  0  0  0  0  0  0  0  0  0  0  0
  -24.9955   -8.1405   21.0873 C   0  0  0  0  0  0  0  0  0  0  0  0
  -25.1020   -7.1169   22.0287 C   0  0  0  0  0  0  0  0  0  0  0  0
  -26.2935  -27.5218   20.1974 C   0  0  0  0  0  0  0  0  0  0  0  0
  -29.0268  -22.6621   17.9259 C   0  0  0  0  0  0  0  0  0  0  0  0
  -22.6971   -7.0773   22.2576 C   0  0  0  0  0  0  0  0  0  0  0  0
  -25.5058  -13.2550   20.6478 C   0  0  0  0  0  0  0  0  0  0  0  0
  -27.4535  -14.6919   21.4534 C   0  0  0  0  0  0  0  0  0  0  0  0
  -24.9349  -32.9347   26.5101 C   0  0  0  0  0  0  0  0  0  0  0  0
  -25.7309  -29.8239   20.6909 C   0  0  0  0  0  0  0  0  0  0  0  0
  -25.2565  -31.7885   25.7581 C   0  0  0  0  0  0  0  0  0  0  0  0
  -25.3269  -28.4966   20.4877 C   0  0  0  0  0  0  0  0  0  0  0  0
  -30.0235  -23.3283   17.2128 C   0  0  0  0  0  0  0  0  0  0  0  0
  -29.3341  -21.5006   18.6345 C   0  0  0  0  0  0  0  0  0  0  0  0
  -24.2488  -10.8312   20.0753 C   0  0  0  0  0  0  0  0  0  0  0  0
  -27.6417  -27.8646   20.0979 C   0  0  0  0  0  0  0  0  0  0  0  0
  -23.7399   -8.6327   20.7310 C   0  0  0  0  0  0  0  0  0  0  0  0
  -23.9528   -6.5852   22.6139 C   0  0  0  0  0  0  0  0  0  0  0  0
  -22.5907   -8.1011   21.3162 C   0  0  0  0  0  0  0  0  0  0  0  0
  -26.1547  -14.5072   20.9427 C   0  0  0  0  0  0  0  0  0  0  0  0
  -27.5924  -16.0547   21.5538 C   0  0  0  0  0  0  0  0  0  0  0  0
  -28.4458  -13.7187   21.8054 C   0  0  0  0  0  0  0  0  0  0  0  0
  -23.5766  -29.9561   23.0244 C   0  0  0  0  0  0  0  0  0  0  0  0
  -21.5441  -29.0311   20.6716 C   0  0  0  0  0  0  0  0  0  0  0  0
  -21.1114  -27.4949   17.6550 C   0  0  0  0  0  0  0  0  0  0  0  0
  -26.9782  -21.1803   19.4672 C   0  0  0  0  0  0  0  0  0  0  0  0
  -23.5200  -33.2296   26.9409 C   0  0  0  0  0  0  0  0  0  0  0  0
  -24.7140  -30.8940   20.9793 C   0  0  0  0  0  0  0  0  0  0  0  0
  -23.8811  -28.0847   20.5807 C   0  0  0  0  0  0  0  0  0  0  0  0
  -22.4683  -32.4597   26.1462 C   0  0  0  0  0  0  0  0  0  0  0  0
  -24.1660  -19.7554   21.1220 C   0  0  0  0  0  0  0  0  0  0  0  0
  -22.8610  -30.9907   26.0243 C   0  0  0  0  0  0  0  0  0  0  0  0
  -24.5395  -18.2782   21.2649 C   0  0  0  0  0  0  0  0  0  0  0  0
  -24.6633  -20.3410   19.8016 C   0  0  0  0  0  0  0  0  0  0  0  0
  -26.4677  -18.6682   19.6784 C   0  0  0  0  0  0  0  0  0  0  0  0
  -24.1873  -30.8349   25.2706 C   0  0  1  0  0  0  0  0  0  0  0  0
  -23.4239  -30.3457   21.5813 C   0  0  1  0  0  0  0  0  0  0  0  0
  -26.0445  -18.0514   21.0215 C   0  0  2  0  0  0  0  0  0  0  0  0
  -28.6123  -24.3634   15.3879 C   0  0  0  0  0  0  0  0  0  0  0  0
  -19.3301  -26.8590   16.0058 C   0  0  0  0  0  0  0  0  0  0  0  0
  -20.6858  -26.7345   22.4878 C   0  0  0  0  0  0  0  0  0  0  0  0
  -19.6625  -25.6280   20.4886 C   0  0  0  0  0  0  0  0  0  0  0  0
  -18.8145  -27.8452   21.2553 C   0  0  0  0  0  0  0  0  0  0  0  0
  -22.3274  -29.1531   15.5264 C   0  0  0  0  0  0  0  0  0  0  0  0
  -30.2763  -26.1550   18.2987 C   0  0  0  0  0  0  0  0  0  0  0  0
  -29.7291  -27.3232   19.0950 C   0  0  0  0  0  0  0  0  0  1  0  0
  -29.6910  -24.5868   16.4448 C   0  0  1  0  0  0  0  0  0  0  0  0
  -21.0724  -27.7046   20.1266 C   0  0  1  0  0  0  0  0  0  0  0  0
  -20.3477  -27.9138   16.4117 C   0  0  2  0  0  0  0  0  0  0  0  0
  -20.0864  -26.9852   21.0897 C   0  0  0  0  0  0  0  0  0  0  0  0
  -25.5141  -15.6603   20.7335 N   0  0  0  0  0  0  0  0  0  0  0  0
  -26.4140  -16.5828   21.1147 N   0  0  0  0  0  0  0  0  0  0  0  0
  -22.9254  -29.1663   20.8710 N   0  0  0  0  0  0  0  0  0  0  0  0
  -26.0976  -20.0918   19.6415 N   0  0  0  0  0  0  0  0  0  0  0  0
  -28.6061  -16.8408   21.9742 N   0  0  0  0  0  0  0  0  0  0  0  0
  -28.1387  -12.3613   21.6396 N   0  0  0  0  0  0  0  0  0  0  0  0
  -28.3218  -20.8232   19.3584 N   0  0  0  0  0  0  0  0  0  0  0  0
  -23.9808  -30.9905   23.8467 N   0  0  0  0  0  0  0  0  0  0  0  0
  -20.5221  -27.9793   18.8037 N   0  0  0  0  0  0  0  0  0  0  0  0
  -21.2864  -28.1238   15.2734 N   0  3  0  0  0  0  0  0  0  0  0  0
  -29.2488  -25.6989   17.3288 N   0  3  0  0  0  0  0  0  0  0  0  0
  -29.5655  -14.0427   22.2690 O   0  0  0  0  0  0  0  0  0  0  0  0
  -23.3435  -28.8028   23.3668 O   0  0  0  0  0  0  0  0  0  0  0  0
  -20.7183  -29.9172   20.9048 O   0  0  0  0  0  0  0  0  0  0  0  0
  -22.1268  -26.8039   17.6118 O   0  0  0  0  0  0  0  0  0  0  0  0
  -26.5734  -22.3455   19.4453 O   0  0  0  0  0  0  0  0  0  0  0  0
  -23.6359   -9.6485   19.7956 O   0  0  0  0  0  0  0  0  0  0  0  0
  -28.5681  -26.9091   19.8141 O   0  0  0  0  0  0  0  0  0  1  0  0
  -24.0551   -5.6011   23.5168 F   0  0  0  0  0  0  0  0  0  0  0  0
  -21.3816   -8.5690   20.9771 F   0  0  0  0  0  0  0  0  0  0  0  0
  1  2  1  0  0  0  0
  1  6  2  0  0  0  0
  2  7  2  0  0  0  0
  3  9  2  0  0  0  0
  3 10  1  0  0  0  0
  4 11  2  0  0  0  0
  4 19  1  0  0  0  0
  5 12  1  0  0  0  0
  5 19  2  0  0  0  0
  6 21  1  0  0  0  0
  7 23  1  0  0  0  0
  8 13  2  0  0  0  0
  8 22  1  0  0  0  0
  9 25  1  0  0  0  0
 10 26  2  0  0  0  0
 11 27  1  0  0  0  0
 12 27  2  0  0  0  0
 13 28  1  0  0  0  0
 14 15  2  0  0  0  0
 14 29  1  0  0  0  0
 15 30  1  0  0  0  0
 16 24  1  0  0  0  0
 16 28  2  0  0  0  0
 17 25  2  0  0  0  0
 17 26  1  0  0  0  0
 18 30  2  0  0  0  0
 18 31  1  0  0  0  0
 19 32  1  0  0  0  0
 20 32  1  0  0  0  0
 20 33  2  0  0  0  0
 20 34  1  0  0  0  0
 21 23  2  0  0  0  0
 21 39  1  0  0  0  0
 22 24  2  0  0  0  0
 22 40  1  0  0  0  0
 23 48  1  0  0  0  0
 24 41  1  0  0  0  0
 25 59  1  0  0  0  0
 26 69  1  0  0  0  0
 27 79  1  0  0  0  0
 28 80  1  0  0  0  0
 29 31  2  0  0  0  0
 29 79  1  0  0  0  0
 30 81  1  0  0  0  0
 31 82  1  0  0  0  0
 32 63  2  0  0  0  0
 33 64  1  0  0  0  0
 33 67  1  0  0  0  0
 34 68  1  0  0  0  0
 34 74  2  0  0  0  0
 35 49  1  0  0  0  0
 35 70  1  0  0  0  0
 35 75  2  0  0  0  0
 36 60  1  0  0  0  0
 36 65  1  0  0  0  0
 36 76  2  0  0  0  0
 37 61  1  0  0  0  0
 37 71  1  0  0  0  0
 37 77  2  0  0  0  0
 38 66  1  0  0  0  0
 38 69  1  0  0  0  0
 38 78  2  0  0  0  0
 39 42  1  0  0  0  0
 40 49  1  0  0  0  0
 41 65  1  0  0  0  0
 42 44  1  0  0  0  0
 43 45  1  0  0  0  0
 43 46  1  0  0  0  0
 44 48  1  0  0  0  0
 45 50  1  0  0  0  0
 46 66  1  0  0  0  0
 47 50  1  0  0  0  0
 47 66  1  0  0  0  0
 48 70  1  0  0  0  0
 49 65  1  0  0  0  0
 50 64  1  0  0  0  0
 51 59  1  0  0  0  0
 52 61  1  0  0  0  0
 53 62  1  0  0  0  0
 54 62  1  0  0  0  0
 55 62  1  0  0  0  0
 56 72  1  0  0  0  0
 57 58  1  0  0  0  0
 57 73  1  0  0  0  0
 58 80  1  0  0  0  0
 59 73  1  0  0  0  0
 60 62  1  0  0  0  0
 60 71  1  0  0  0  0
 61 72  1  0  0  0  0
 63 64  1  0  0  0  0
M  CHG  2  72   1  73   1
M  ISO  4  38 100  58 101  69 100  80 101
M  END
> <Batch ID>
0010

> <Smiles>
CNC(C)C(=O)NC(C(=O)N1Cc2cc([101O:1][101CH2:1]CNC(C)c3cccc([100NH:0][100C:0](=O)N4CCCC(n5nc(-c6ccc(Oc7ccc(F)cc7F)cc6)c(C(N)=O)c5N)C4)c3)ccc2CC1C(=O)NC1CCCc2ccccc21)C(C)(C)C

> <Shape>
0.291

> <Color>
0.081

> <Negative vol penalty>
0.000

$$$$

  -OEChem-04042320403D

 85 93  0     1  0  0  0  0  0999 V2000
  -22.4656  -22.7179   13.0019 C   0  0  0  0  0  0  0  0  0  0  0  0
  -22.0096  -23.8120   13.7303 C   0  0  0  0  0  0  0  0  0  0  0  0
  -25.0586  -17.5924   22.7175 C   0  0  0  0  0  0  0  0  0  0  0  0
  -25.3226  -18.7150   20.5945 C   0  0  0  0  0  0  0  0  0  0  0  0
  -23.3089  -21.7843   13.6029 C   0  0  0  0  0  0  0  0  0  0  0  0
  -22.3960  -23.9726   15.0604 C   0  0  0  0  0  0  0  0  0  0  0  0
  -23.8626  -29.0740   19.8710 C   0  0  0  0  0  0  0  0  0  0  0  0
  -25.4444  -16.3882   22.1288 C   0  0  0  0  0  0  0  0  0  0  0  0
  -25.7084  -17.5107   20.0057 C   0  0  0  0  0  0  0  0  0  0  0  0
  -23.5123  -29.4709   21.1608 C   0  0  0  0  0  0  0  0  0  0  0  0
  -24.0421  -14.0044   20.1858 C   0  0  0  0  0  0  0  0  0  0  0  0
  -18.8384  -27.8461   23.7354 C   0  0  0  0  0  0  0  0  0  0  0  0
  -23.2909  -12.8678   20.4848 C   0  0  0  0  0  0  0  0  0  0  0  0
  -17.8968  -27.8546   22.7064 C   0  0  0  0  0  0  0  0  0  0  0  0
  -25.0362  -27.8372   22.0708 C   0  0  0  0  0  0  0  0  0  0  0  0
  -25.2590  -11.8084   21.4022 C   0  0  0  0  0  0  0  0  0  0  0  0
  -24.9977  -18.7558   21.9504 C   0  0  0  0  0  0  0  0  0  0  0  0
  -25.4346  -20.9552   23.1666 C   0  0  0  0  0  0  0  0  0  0  0  0
  -23.7136  -21.9387   14.9382 C   0  0  0  0  0  0  0  0  0  0  0  0
  -24.7958  -28.0465   19.6712 C   0  0  0  0  0  0  0  0  0  0  0  0
  -23.2445  -23.0395   15.6802 C   0  0  0  0  0  0  0  0  0  0  0  0
  -25.3985  -27.4309   20.7775 C   0  0  0  0  0  0  0  0  0  0  0  0
  -19.5202  -26.8694   21.2127 C   0  0  0  0  0  0  0  0  0  0  0  0
  -25.7693  -16.3473   20.7729 C   0  0  0  0  0  0  0  0  0  0  0  0
  -24.0970  -28.8505   22.2610 C   0  0  0  0  0  0  0  0  0  0  0  0
  -25.4017  -14.0430   20.4949 C   0  0  0  0  0  0  0  0  0  0  0  0
  -20.1210  -27.3494   23.5031 C   0  0  0  0  0  0  0  0  0  0  0  0
  -23.8993  -11.7698   21.0930 C   0  0  0  0  0  0  0  0  0  0  0  0
  -18.2377  -27.3662   21.4451 C   0  0  0  0  0  0  0  0  0  0  0  0
  -26.0102  -12.9451   21.1032 C   0  0  0  0  0  0  0  0  0  0  0  0
  -20.4619  -26.8610   22.2418 C   0  0  0  0  0  0  0  0  0  0  0  0
  -24.5987  -20.0000   22.5578 C   0  0  0  0  0  0  0  0  0  0  0  0
  -24.5783  -21.9453   23.5827 C   0  0  0  0  0  0  0  0  0  0  0  0
  -26.8577  -20.9483   23.3404 C   0  0  0  0  0  0  0  0  0  0  0  0
  -24.7117  -25.1720   18.3170 C   0  0  0  0  0  0  0  0  0  0  0  0
  -27.9025  -25.2346   18.8975 C   0  0  0  0  0  0  0  0  0  0  0  0
  -30.4881  -26.4860   20.7403 C   0  0  0  0  0  0  0  0  0  0  0  0
  -19.1605  -23.6952   21.7289 C   0  0  0  0  0  0  0  0  0  0  0  0
  -24.5882  -20.8784   15.5589 C   0  0  0  0  0  0  0  0  0  0  0  0
  -25.1827  -27.6483   18.2733 C   0  0  0  0  0  0  0  0  0  0  0  0
  -26.4209  -26.3367   20.6167 C   0  0  0  0  0  0  0  0  0  0  0  0
  -25.2520  -21.3213   16.8602 C   0  0  0  0  0  0  0  0  0  0  0  0
  -20.0632  -22.6366   25.0063 C   0  0  0  0  0  0  0  0  0  0  0  0
  -24.2362  -22.0002   17.7736 C   0  0  0  0  0  0  0  0  0  0  0  0
  -21.4034  -21.9270   24.8054 C   0  0  0  0  0  0  0  0  0  0  0  0
  -19.1140  -22.3922   23.8352 C   0  0  0  0  0  0  0  0  0  0  0  0
  -21.0101  -22.0099   22.3079 C   0  0  0  0  0  0  0  0  0  0  0  0
  -23.6613  -23.2616   17.1180 C   0  0  1  0  0  0  0  0  0  0  0  0
  -25.7619  -26.2393   18.1921 C   0  0  1  0  0  0  0  0  0  0  0  0
  -22.0212  -22.2725   23.4371 C   0  0  2  0  0  0  0  0  0  0  0  0
  -32.9777  -26.3202   21.0079 C   0  0  0  0  0  0  0  0  0  0  0  0
  -27.5684  -22.5592   20.3261 C   0  0  0  0  0  0  0  0  0  0  0  0
  -29.8193  -22.9115   21.3641 C   0  0  0  0  0  0  0  0  0  0  0  0
  -29.6060  -22.7253   18.8857 C   0  0  0  0  0  0  0  0  0  0  0  0
  -30.8657  -29.3471   20.0842 C   0  0  0  0  0  0  0  0  0  0  0  0
  -19.8847  -26.3472   19.8640 C   0  0  0  0  0  0  0  0  0  0  0  0
  -22.8025  -28.5531   25.6295 C   0  0  0  0  0  0  0  0  0  0  0  0
  -19.3538  -24.9354   19.5880 C   0  0  0  0  0  0  0  0  0  0  0  0
  -23.8201  -28.2420   24.5433 C   0  0  0  0  0  0  0  0  0  1  0  0
  -21.3839  -28.5992   25.0838 C   0  0  0  0  0  0  0  0  0  0  0  0
  -28.7885  -24.8173   20.0464 C   0  0  1  0  0  0  0  0  0  0  0  0
  -31.8333  -27.0576   20.3302 C   0  0  2  0  0  0  0  0  0  0  0  0
  -28.9249  -23.2726   20.1589 C   0  0  0  0  0  0  0  0  0  0  0  0
  -23.3104  -20.3514   22.5829 N   0  0  0  0  0  0  0  0  0  0  0  0
  -23.3302  -21.5385   23.2126 N   0  0  0  0  0  0  0  0  0  0  0  0
  -26.7615  -25.9784   19.2299 N   0  0  0  0  0  0  0  0  0  0  0  0
  -19.7600  -22.7411   22.5676 N   0  0  0  0  0  0  0  0  0  0  0  0
  -24.7787  -23.1153   24.2255 N   0  0  0  0  0  0  0  0  0  0  0  0
  -27.5851  -19.8539   22.8530 N   0  0  0  0  0  0  0  0  0  0  0  0
  -24.6065  -24.3538   17.2084 N   0  0  0  0  0  0  0  0  0  0  0  0
  -30.0551  -25.5169   19.8601 N   0  0  0  0  0  0  0  0  0  0  0  0
  -19.8415  -23.9722   20.5498 N   0  0  0  0  0  0  0  0  0  0  0  0
  -31.9182  -28.4987   20.7001 N   0  3  0  0  0  0  0  0  0  0  0  0
  -27.4646  -21.8772   23.9256 O   0  0  0  0  0  0  0  0  0  0  0  0
  -24.0472  -25.0955   19.3437 O   0  0  0  0  0  0  0  0  0  0  0  0
  -28.2153  -24.9185   17.7469 O   0  0  0  0  0  0  0  0  0  0  0  0
  -29.8837  -26.8590   21.7433 O   0  0  0  0  0  0  0  0  0  0  0  0
  -18.1000  -24.2624   22.0126 O   0  0  0  0  0  0  0  0  0  0  0  0
  -26.1460  -15.1725   20.1981 O   0  0  0  0  0  0  0  0  0  0  0  0
  -23.7564  -29.2355   23.5210 O   0  0  0  0  0  0  0  0  0  1  0  0
  -21.0443  -27.3414   24.5160 O   0  0  0  0  0  0  0  0  0  0  0  0
  -23.1775  -10.6790   21.3815 F   0  0  0  0  0  0  0  0  0  0  0  0
  -17.3263  -27.3790   20.4623 F   0  0  0  0  0  0  0  0  0  0  0  0
  -27.3157  -12.9768   21.4036 F   0  0  0  0  0  0  0  0  0  0  0  0
  -21.6959  -26.3839   22.0221 F   0  0  0  0  0  0  0  0  0  0  0  0
  1  2  1  0  0  0  0
  1  5  2  0  0  0  0
  2  6  2  0  0  0  0
  3  8  2  0  0  0  0
  3 17  1  0  0  0  0
  4  9  1  0  0  0  0
  4 17  2  0  0  0  0
  5 19  1  0  0  0  0
  6 21  1  0  0  0  0
  7 10  2  0  0  0  0
  7 20  1  0  0  0  0
  8 24  1  0  0  0  0
  9 24  2  0  0  0  0
 10 25  1  0  0  0  0
 11 13  2  0  0  0  0
 11 26  1  0  0  0  0
 12 14  2  0  0  0  0
 12 27  1  0  0  0  0
 13 28  1  0  0  0  0
 14 29  1  0  0  0  0
 15 22  1  0  0  0  0
 15 25  2  0  0  0  0
 16 28  2  0  0  0  0
 16 30  1  0  0  0  0
 17 32  1  0  0  0  0
 18 32  1  0  0  0  0
 18 33  2  0  0  0  0
 18 34  1  0  0  0  0
 19 21  2  0  0  0  0
 19 39  1  0  0  0  0
 20 22  2  0  0  0  0
 20 40  1  0  0  0  0
 21 48  1  0  0  0  0
 22 41  1  0  0  0  0
 23 29  2  0  0  0  0
 23 31  1  0  0  0  0
 23 56  1  0  0  0  0
 24 79  1  0  0  0  0
 25 80  1  0  0  0  0
 26 30  2  0  0  0  0
 26 79  1  0  0  0  0
 27 31  2  0  0  0  0
 27 81  1  0  0  0  0
 28 82  1  0  0  0  0
 29 83  1  0  0  0  0
 30 84  1  0  0  0  0
 31 85  1  0  0  0  0
 32 64  2  0  0  0  0
 33 65  1  0  0  0  0
 33 68  1  0  0  0  0
 34 69  1  0  0  0  0
 34 74  2  0  0  0  0
 35 49  1  0  0  0  0
 35 70  1  0  0  0  0
 35 75  2  0  0  0  0
 36 61  1  0  0  0  0
 36 66  1  0  0  0  0
 36 76  2  0  0  0  0
 37 62  1  0  0  0  0
 37 71  1  0  0  0  0
 37 77  2  0  0  0  0
 38 67  1  0  0  0  0
 38 72  1  0  0  0  0
 38 78  2  0  0  0  0
 39 42  1  0  0  0  0
 40 49  1  0  0  0  0
 41 66  1  0  0  0  0
 42 44  1  0  0  0  0
 43 45  1  0  0  0  0
 43 46  1  0  0  0  0
 44 48  1  0  0  0  0
 45 50  1  0  0  0  0
 46 67  1  0  0  0  0
 47 50  1  0  0  0  0
 47 67  1  0  0  0  0
 48 70  1  0  0  0  0
 49 66  1  0  0  0  0
 50 65  1  0  0  0  0
 51 62  1  0  0  0  0
 52 63  1  0  0  0  0
 53 63  1  0  0  0  0
 54 63  1  0  0  0  0
 55 73  1  0  0  0  0
 56 58  1  0  0  0  0
 57 59  1  0  0  0  0
 57 60  1  0  0  0  0
 58 72  1  0  0  0  0
 59 80  1  0  0  0  0
 60 81  1  0  0  0  0
 61 63  1  0  0  0  0
 61 71  1  0  0  0  0
 62 73  1  0  0  0  0
 64 65  1  0  0  0  0
M  CHG  1  73   1
M  ISO  4  38 100  59 101  72 100  80 101
M  END
> <Batch ID>
0010

> <Smiles>
CNC(C)C(=O)NC(C(=O)N1Cc2cc([101O:1][101CH2:1]CCOc3ccc(F)c(CC[100NH:0][100C:0](=O)N4CCCC(n5nc(-c6ccc(Oc7ccc(F)cc7F)cc6)c(C(N)=O)c5N)C4)c3F)ccc2CC1C(=O)NC1CCCc2ccccc21)C(C)(C)C

> <Shape>
0.195

> <Color>
0.058

> <Negative vol penalty>
0.000

$$$$

  -OEChem-04042320403D

 84 92  0     1  0  0  0  0  0999 V2000
  -19.6428  -24.4793   23.6158 C   0  0  0  0  0  0  0  0  0  0  0  0
  -20.9463  -24.8122   23.2617 C   0  0  0  0  0  0  0  0  0  0  0  0
  -24.8230  -14.9605   19.1712 C   0  0  0  0  0  0  0  0  0  0  0  0
  -23.5749  -13.6991   20.8108 C   0  0  0  0  0  0  0  0  0  0  0  0
  -18.6249  -25.4239   23.4911 C   0  0  0  0  0  0  0  0  0  0  0  0
  -21.2325  -26.0897   22.7816 C   0  0  0  0  0  0  0  0  0  0  0  0
  -25.4047  -28.0598   24.8688 C   0  0  0  0  0  0  0  0  0  0  0  0
  -25.7616  -13.9316   19.0941 C   0  0  0  0  0  0  0  0  0  0  0  0
  -24.5135  -12.6701   20.7336 C   0  0  0  0  0  0  0  0  0  0  0  0
  -26.6323  -27.6105   24.3840 C   0  0  0  0  0  0  0  0  0  0  0  0
  -28.6789  -11.7911   18.7322 C   0  0  0  0  0  0  0  0  0  0  0  0
  -30.0292  -12.1409   18.7421 C   0  0  0  0  0  0  0  0  0  0  0  0
  -26.8182  -29.5982   23.0299 C   0  0  0  0  0  0  0  0  0  0  0  0
  -25.5957  -25.4976   20.2596 C   0  0  0  0  0  0  0  0  0  0  0  0
  -27.2313  -23.8764   20.9900 C   0  0  0  0  0  0  0  0  0  0  0  0
  -29.7468  -13.1698   20.9097 C   0  0  0  0  0  0  0  0  0  0  0  0
  -23.7296  -14.8443   20.0296 C   0  0  0  0  0  0  0  0  0  0  0  0
  -21.5936  -16.0541   19.3358 C   0  0  0  0  0  0  0  0  0  0  0  0
  -18.9004  -26.7166   23.0183 C   0  0  0  0  0  0  0  0  0  0  0  0
  -24.8687  -29.2787   24.4288 C   0  0  0  0  0  0  0  0  0  0  0  0
  -20.2171  -27.0521   22.6492 C   0  0  0  0  0  0  0  0  0  0  0  0
  -25.5849  -30.0620   23.5126 C   0  0  0  0  0  0  0  0  0  0  0  0
  -24.8772  -23.3395   21.0743 C   0  0  0  0  0  0  0  0  0  0  0  0
  -25.6068  -12.7864   19.8753 C   0  0  0  0  0  0  0  0  0  0  0  0
  -27.3378  -28.3783   23.4622 C   0  0  0  0  0  0  0  0  0  0  0  0
  -27.8625  -12.1307   19.8110 C   0  0  0  0  0  0  0  0  0  0  0  0
  -26.9256  -25.1362   20.4750 C   0  0  0  0  0  0  0  0  0  0  0  0
  -30.5631  -12.8302   19.8308 C   0  0  0  0  0  0  0  0  0  0  0  0
  -24.5715  -24.5993   20.5593 C   0  0  0  0  0  0  0  0  0  0  0  0
  -26.2072  -22.9781   21.2896 C   0  0  0  0  0  0  0  0  0  0  0  0
  -28.3965  -12.8200   20.8998 C   0  0  0  0  0  0  0  0  0  0  0  0
  -22.7600  -15.9070   20.1102 C   0  0  0  0  0  0  0  0  0  0  0  0
  -21.0211  -17.2153   19.7945 C   0  0  0  0  0  0  0  0  0  0  0  0
  -21.0741  -15.2161   18.2949 C   0  0  0  0  0  0  0  0  0  0  0  0
  -22.2377  -30.1381   22.8658 C   0  0  0  0  0  0  0  0  0  0  0  0
  -23.3060  -33.1336   23.5042 C   0  0  0  0  0  0  0  0  0  0  0  0
  -26.4751  -34.8582   23.4889 C   0  0  0  0  0  0  0  0  0  0  0  0
  -23.6350  -21.9181   22.6965 C   0  0  0  0  0  0  0  0  0  0  0  0
  -17.7589  -27.6889   22.8561 C   0  0  0  0  0  0  0  0  0  0  0  0
  -23.5560  -29.7620   24.9816 C   0  0  0  0  0  0  0  0  0  0  0  0
  -25.0626  -31.3875   23.0239 C   0  0  0  0  0  0  0  0  0  0  0  0
  -18.2114  -29.1377   22.6932 C   0  0  0  0  0  0  0  0  0  0  0  0
  -20.6816  -19.9479   23.6996 C   0  0  0  0  0  0  0  0  0  0  0  0
  -19.3475  -29.2314   21.6797 C   0  0  0  0  0  0  0  0  0  0  0  0
  -20.8239  -18.6739   22.8686 C   0  0  0  0  0  0  0  0  0  0  0  0
  -22.0376  -20.5677   24.0238 C   0  0  0  0  0  0  0  0  0  0  0  0
  -23.0231  -19.5557   21.9903 C   0  0  0  0  0  0  0  0  0  0  0  0
  -20.5716  -28.4353   22.1479 C   0  0  1  0  0  0  0  0  0  0  0  0
  -22.8624  -30.7743   24.0752 C   0  0  1  0  0  0  0  0  0  0  0  0
  -21.6719  -18.9310   21.6109 C   0  0  1  0  0  0  0  0  0  0  0  0
  -27.2546  -36.8507   24.8003 C   0  0  0  0  0  0  0  0  0  0  0  0
  -22.3958  -34.7296   21.0681 C   0  0  0  0  0  0  0  0  0  0  0  0
  -24.3888  -36.2122   21.3817 C   0  0  0  0  0  0  0  0  0  0  0  0
  -22.6467  -36.0741   23.1618 C   0  0  0  0  0  0  0  0  0  0  0  0
  -22.7779  -22.1709   20.3789 C   0  0  0  0  0  0  0  0  0  0  0  0
  -28.8234  -33.3943   24.5385 C   0  0  0  0  0  0  0  0  0  0  0  0
  -29.7922  -27.2884   21.0333 C   0  0  0  0  0  0  0  0  0  0  0  0
  -28.8945  -28.3409   21.6646 C   0  0  0  0  0  0  0  0  0  1  0  0
  -29.1136  -25.9293   20.9640 C   0  0  0  0  0  0  0  0  0  0  0  0
  -24.2088  -34.1190   22.8020 C   0  0  1  0  0  0  0  0  0  0  0  0
  -27.2571  -35.3332   24.7002 C   0  0  2  0  0  0  0  0  0  0  0  0
  -23.4133  -35.2556   22.1001 C   0  0  0  0  0  0  0  0  0  0  0  0
  -22.9204  -16.8958   20.9937 N   0  0  0  0  0  0  0  0  0  0  0  0
  -21.8473  -17.6753   20.7773 N   0  0  0  0  0  0  0  0  0  0  0  0
  -23.7718  -31.8139   23.5891 N   0  0  0  0  0  0  0  0  0  0  0  0
  -22.8414  -20.7595   22.8160 N   0  0  0  0  0  0  0  0  0  0  0  0
  -19.8966  -17.8774   19.4490 N   0  0  0  0  0  0  0  0  0  0  0  0
  -21.7881  -14.0608   17.9484 N   0  0  0  0  0  0  0  0  0  0  0  0
  -21.2957  -29.1714   23.1619 N   0  0  0  0  0  0  0  0  0  0  0  0
  -25.1605  -34.5865   23.8040 N   0  0  0  0  0  0  0  0  0  0  0  0
  -23.8166  -22.4107   21.3860 N   0  0  0  0  0  0  0  0  0  0  0  0
  -28.6712  -34.8699   24.6182 N   0  3  0  0  0  0  0  0  0  0  0  0
  -20.0170  -15.4924   17.6787 O   0  0  0  0  0  0  0  0  0  0  0  0
  -22.5836  -30.4986   21.7469 O   0  0  0  0  0  0  0  0  0  0  0  0
  -22.2306  -33.5222   23.9668 O   0  0  0  0  0  0  0  0  0  0  0  0
  -26.9790  -34.7435   22.3738 O   0  0  0  0  0  0  0  0  0  0  0  0
  -24.1171  -22.4835   23.6851 O   0  0  0  0  0  0  0  0  0  0  0  0
  -26.5224  -11.7821   19.8001 O   0  0  0  0  0  0  0  0  0  0  0  0
  -28.5359  -27.9418   22.9869 O   0  0  0  0  0  0  0  0  0  1  0  0
  -27.9311  -26.0199   20.1809 O   0  0  0  0  0  0  0  0  0  0  0  0
  -31.8601  -13.1646   19.8409 F   0  0  0  0  0  0  0  0  0  0  0  0
  -23.2968  -24.9578   20.3499 F   0  0  0  0  0  0  0  0  0  0  0  0
  -26.5128  -21.7709   21.7866 F   0  0  0  0  0  0  0  0  0  0  0  0
  -27.6174  -13.1480   21.9397 F   0  0  0  0  0  0  0  0  0  0  0  0
  1  2  1  0  0  0  0
  1  5  2  0  0  0  0
  2  6  2  0  0  0  0
  3  8  2  0  0  0  0
  3 17  1  0  0  0  0
  4  9  1  0  0  0  0
  4 17  2  0  0  0  0
  5 19  1  0  0  0  0
  6 21  1  0  0  0  0
  7 10  2  0  0  0  0
  7 20  1  0  0  0  0
  8 24  1  0  0  0  0
  9 24  2  0  0  0  0
 10 25  1  0  0  0  0
 11 12  2  0  0  0  0
 11 26  1  0  0  0  0
 12 28  1  0  0  0  0
 13 22  1  0  0  0  0
 13 25  2  0  0  0  0
 14 27  1  0  0  0  0
 14 29  2  0  0  0  0
 15 27  2  0  0  0  0
 15 30  1  0  0  0  0
 16 28  2  0  0  0  0
 16 31  1  0  0  0  0
 17 32  1  0  0  0  0
 18 32  1  0  0  0  0
 18 33  2  0  0  0  0
 18 34  1  0  0  0  0
 19 21  2  0  0  0  0
 19 39  1  0  0  0  0
 20 22  2  0  0  0  0
 20 40  1  0  0  0  0
 21 48  1  0  0  0  0
 22 41  1  0  0  0  0
 23 29  1  0  0  0  0
 23 30  2  0  0  0  0
 23 71  1  0  0  0  0
 24 78  1  0  0  0  0
 25 79  1  0  0  0  0
 26 31  2  0  0  0  0
 26 78  1  0  0  0  0
 27 80  1  0  0  0  0
 28 81  1  0  0  0  0
 29 82  1  0  0  0  0
 30 83  1  0  0  0  0
 31 84  1  0  0  0  0
 32 63  2  0  0  0  0
 33 64  1  0  0  0  0
 33 67  1  0  0  0  0
 34 68  1  0  0  0  0
 34 73  2  0  0  0  0
 35 49  1  0  0  0  0
 35 69  1  0  0  0  0
 35 74  2  0  0  0  0
 36 60  1  0  0  0  0
 36 65  1  0  0  0  0
 36 75  2  0  0  0  0
 37 61  1  0  0  0  0
 37 70  1  0  0  0  0
 37 76  2  0  0  0  0
 38 66  1  0  0  0  0
 38 71  1  0  0  0  0
 38 77  2  0  0  0  0
 39 42  1  0  0  0  0
 40 49  1  0  0  0  0
 41 65  1  0  0  0  0
 42 44  1  0  0  0  0
 43 45  1  0  0  0  0
 43 46  1  0  0  0  0
 44 48  1  0  0  0  0
 45 50  1  0  0  0  0
 46 66  1  0  0  0  0
 47 50  1  0  0  0  0
 47 66  1  0  0  0  0
 48 69  1  0  0  0  0
 49 65  1  0  0  0  0
 50 64  1  0  0  0  0
 51 61  1  0  0  0  0
 52 62  1  0  0  0  0
 53 62  1  0  0  0  0
 54 62  1  0  0  0  0
 55 71  1  0  0  0  0
 56 72  1  0  0  0  0
 57 58  1  0  0  0  0
 57 59  1  0  0  0  0
 58 79  1  0  0  0  0
 59 80  1  0  0  0  0
 60 62  1  0  0  0  0
 60 70  1  0  0  0  0
 61 72  1  0  0  0  0
 63 64  1  0  0  0  0
M  CHG  1  72   1
M  ISO  4  38 100  58 101  71 100  79 101
M  END
> <Batch ID>
0010

> <Smiles>
CNC(C)C(=O)NC(C(=O)N1Cc2cc([101O:1][101CH2:1]CCOc3cc(F)c([100N:0](C)[100C:0](=O)N4CCCC(n5nc(-c6ccc(Oc7ccc(F)cc7F)cc6)c(C(N)=O)c5N)C4)c(F)c3)ccc2CC1C(=O)NC1CCCc2ccccc21)C(C)(C)C

> <Shape>
0.233

> <Color>
0.090

> <Negative vol penalty>
0.000

$$$$

  -OEChem-04042320403D

 85 93  0     1  0  0  0  0  0999 V2000
  -21.6869  -26.8181   21.8409 C   0  0  0  0  0  0  0  0  0  0  0  0
  -22.6772  -25.9411   22.2716 C   0  0  0  0  0  0  0  0  0  0  0  0
  -26.5388  -28.1617   18.8347 C   0  0  0  0  0  0  0  0  0  0  0  0
  -26.1010  -27.1454   20.9823 C   0  0  0  0  0  0  0  0  0  0  0  0
  -20.3429  -26.4853   22.0055 C   0  0  0  0  0  0  0  0  0  0  0  0
  -22.3241  -24.7313   22.8683 C   0  0  0  0  0  0  0  0  0  0  0  0
  -25.2903  -19.3935   22.4038 C   0  0  0  0  0  0  0  0  0  0  0  0
  -26.5017  -16.6417   19.3607 C   0  0  0  0  0  0  0  0  0  0  0  0
  -26.0705  -29.3837   19.3174 C   0  0  0  0  0  0  0  0  0  0  0  0
  -25.6327  -28.3674   21.4651 C   0  0  0  0  0  0  0  0  0  0  0  0
  -26.1996  -18.7496   23.2419 C   0  0  0  0  0  0  0  0  0  0  0  0
  -26.9500  -31.2640   22.6031 C   0  0  0  0  0  0  0  0  0  0  0  0
  -27.3831  -31.6692   23.8655 C   0  0  0  0  0  0  0  0  0  0  0  0
  -26.8555  -15.4912   20.0654 C   0  0  0  0  0  0  0  0  0  0  0  0
  -24.3984  -17.4580   24.1940 C   0  0  0  0  0  0  0  0  0  0  0  0
  -25.0942  -31.7101   24.6376 C   0  0  0  0  0  0  0  0  0  0  0  0
  -28.8557  -16.5911   20.8570 C   0  0  0  0  0  0  0  0  0  0  0  0
  -26.5540  -27.0425   19.6671 C   0  0  0  0  0  0  0  0  0  0  0  0
  -28.3596  -25.2991   19.2111 C   0  0  0  0  0  0  0  0  0  0  0  0
  -19.9732  -25.2665   22.5958 C   0  0  0  0  0  0  0  0  0  0  0  0
  -23.9244  -19.0817   22.4622 C   0  0  0  0  0  0  0  0  0  0  0  0
  -20.9740  -24.3825   23.0422 C   0  0  0  0  0  0  0  0  0  0  0  0
  -23.4741  -18.0975   23.3538 C   0  0  0  0  0  0  0  0  0  0  0  0
  -27.3249  -17.7670   19.4040 C   0  0  0  0  0  0  0  0  0  0  0  0
  -25.6175  -29.4865   20.6326 C   0  0  0  0  0  0  0  0  0  0  0  0
  -25.7533  -17.7838   24.1392 C   0  0  0  0  0  0  0  0  0  0  0  0
  -25.5890  -31.0819   22.3578 C   0  0  0  0  0  0  0  0  0  0  0  0
  -26.4552  -31.8922   24.8828 C   0  0  0  0  0  0  0  0  0  0  0  0
  -24.6611  -31.3049   23.3751 C   0  0  0  0  0  0  0  0  0  0  0  0
  -28.5019  -17.7417   20.1522 C   0  0  0  0  0  0  0  0  0  0  0  0
  -28.0325  -15.4659   20.8136 C   0  0  0  0  0  0  0  0  0  0  0  0
  -27.0372  -25.7799   19.1688 C   0  0  0  0  0  0  0  0  0  0  0  0
  -28.2951  -24.0637   18.6142 C   0  0  0  0  0  0  0  0  0  0  0  0
  -29.5407  -25.9142   19.7424 C   0  0  0  0  0  0  0  0  0  0  0  0
  -21.2816  -20.7024   23.1644 C   0  0  0  0  0  0  0  0  0  0  0  0
  -19.8197  -17.9603   22.2336 C   0  0  0  0  0  0  0  0  0  0  0  0
  -20.3469  -14.4174   22.6658 C   0  0  0  0  0  0  0  0  0  0  0  0
  -25.8292  -19.1232   17.8975 C   0  0  0  0  0  0  0  0  0  0  0  0
  -18.5077  -24.9716   22.7954 C   0  0  0  0  0  0  0  0  0  0  0  0
  -22.9600  -19.7661   21.5327 C   0  0  0  0  0  0  0  0  0  0  0  0
  -22.0208  -17.7118   23.4414 C   0  0  0  0  0  0  0  0  0  0  0  0
  -18.2173  -23.5037   23.0971 C   0  0  0  0  0  0  0  0  0  0  0  0
  -24.5621  -21.8582   16.0024 C   0  0  0  0  0  0  0  0  0  0  0  0
  -19.1784  -22.9765   24.1579 C   0  0  0  0  0  0  0  0  0  0  0  0
  -25.2019  -23.0828   16.6607 C   0  0  0  0  0  0  0  0  0  0  0  0
  -24.2000  -20.7866   17.0291 C   0  0  0  0  0  0  0  0  0  0  0  0
  -25.9382  -21.6028   18.5724 C   0  0  0  0  0  0  0  0  0  0  0  0
  -20.6309  -23.0497   23.6716 C   0  0  1  0  0  0  0  0  0  0  0  0
  -21.5208  -19.7373   22.0378 C   0  0  1  0  0  0  0  0  0  0  0  0
  -26.3796  -22.6825   17.5708 C   0  0  2  0  0  0  0  0  0  0  0  0
  -19.6777  -12.4798   21.2183 C   0  0  0  0  0  0  0  0  0  0  0  0
  -17.3582  -17.8403   24.0326 C   0  0  0  0  0  0  0  0  0  0  0  0
  -17.4838  -15.3423   23.9201 C   0  0  0  0  0  0  0  0  0  0  0  0
  -17.1057  -16.6654   21.8394 C   0  0  0  0  0  0  0  0  0  0  0  0
  -23.1315  -13.4284   22.5019 C   0  0  0  0  0  0  0  0  0  0  0  0
  -27.6287  -15.0493   25.5478 C   0  0  0  0  0  0  0  0  0  0  0  0
  -28.4752  -14.9759   24.2846 C   0  0  0  0  0  0  0  0  0  0  0  0
  -26.3274  -15.8166   25.3460 C   0  0  0  0  0  0  0  0  0  1  0  0
  -19.3881  -16.6905   22.9266 C   0  0  1  0  0  0  0  0  0  0  0  0
  -20.8001  -13.4300   21.6055 C   0  0  2  0  0  0  0  0  0  0  0  0
  -17.8561  -16.6498   23.1889 C   0  0  0  0  0  0  0  0  0  0  0  0
  -26.1942  -24.9201   18.5906 N   0  0  0  0  0  0  0  0  0  0  0  0
  -26.9889  -23.8867   18.2641 N   0  0  0  0  0  0  0  0  0  0  0  0
  -21.1160  -18.4138   22.5162 N   0  0  0  0  0  0  0  0  0  0  0  0
  -25.3651  -20.4549   17.8522 N   0  0  0  0  0  0  0  0  0  0  0  0
  -29.2289  -23.1226   18.3600 N   0  0  0  0  0  0  0  0  0  0  0  0
  -29.4293  -27.1860   20.3208 N   0  0  0  0  0  0  0  0  0  0  0  0
  -26.9630  -18.9343   18.6871 N   0  0  0  0  0  0  0  0  0  0  0  0
  -20.9111  -21.9681   22.7519 N   0  0  0  0  0  0  0  0  0  0  0  0
  -19.8834  -15.5897   22.1072 N   0  0  0  0  0  0  0  0  0  0  0  0
  -27.7377  -14.2758   23.2108 N   0  0  0  0  0  0  0  0  0  0  0  0
  -21.9479  -12.6222   22.1067 N   0  3  0  0  0  0  0  0  0  0  0  0
  -30.6647  -25.3596   19.6908 O   0  0  0  0  0  0  0  0  0  0  0  0
  -21.4214  -20.3261   24.3222 O   0  0  0  0  0  0  0  0  0  0  0  0
  -19.0382  -18.5250   21.4643 O   0  0  0  0  0  0  0  0  0  0  0  0
  -20.3954  -14.1716   23.8690 O   0  0  0  0  0  0  0  0  0  0  0  0
  -25.2788  -18.2221   17.2595 O   0  0  0  0  0  0  0  0  0  0  0  0
  -27.8541  -12.8735   21.0544 O   0  0  0  0  0  0  0  0  0  0  0  0
  -29.9210  -14.0445   21.8797 O   0  0  0  0  0  0  0  0  0  0  0  0
  -25.1606  -30.6788   21.1042 O   0  0  0  0  0  0  0  0  0  0  0  0
  -26.6387  -17.1544   24.9588 O   0  0  0  0  0  0  0  0  0  1  0  0
  -26.8714  -32.2799   26.0955 F   0  0  0  0  0  0  0  0  0  0  0  0
  -23.3523  -31.1305   23.1459 F   0  0  0  0  0  0  0  0  0  0  0  0
  -29.3007  -18.8173   20.2011 F   0  0  0  0  0  0  0  0  0  0  0  0
  -28.4815  -14.0074   21.7059 S   0  0  0  0  0  0  0  0  0  0  0  0
  1  2  1  0  0  0  0
  1  5  2  0  0  0  0
  2  6  2  0  0  0  0
  3  9  2  0  0  0  0
  3 18  1  0  0  0  0
  4 10  1  0  0  0  0
  4 18  2  0  0  0  0
  5 20  1  0  0  0  0
  6 22  1  0  0  0  0
  7 11  2  0  0  0  0
  7 21  1  0  0  0  0
  8 14  2  0  0  0  0
  8 24  1  0  0  0  0
  9 25  1  0  0  0  0
 10 25  2  0  0  0  0
 11 26  1  0  0  0  0
 12 13  2  0  0  0  0
 12 27  1  0  0  0  0
 13 28  1  0  0  0  0
 14 31  1  0  0  0  0
 15 23  1  0  0  0  0
 15 26  2  0  0  0  0
 16 28  2  0  0  0  0
 16 29  1  0  0  0  0
 17 30  1  0  0  0  0
 17 31  2  0  0  0  0
 18 32  1  0  0  0  0
 19 32  1  0  0  0  0
 19 33  2  0  0  0  0
 19 34  1  0  0  0  0
 20 22  2  0  0  0  0
 20 39  1  0  0  0  0
 21 23  2  0  0  0  0
 21 40  1  0  0  0  0
 22 48  1  0  0  0  0
 23 41  1  0  0  0  0
 24 30  2  0  0  0  0
 24 68  1  0  0  0  0
 25 80  1  0  0  0  0
 26 81  1  0  0  0  0
 27 29  2  0  0  0  0
 27 80  1  0  0  0  0
 28 82  1  0  0  0  0
 29 83  1  0  0  0  0
 30 84  1  0  0  0  0
 31 85  1  0  0  0  0
 32 62  2  0  0  0  0
 33 63  1  0  0  0  0
 33 66  1  0  0  0  0
 34 67  1  0  0  0  0
 34 73  2  0  0  0  0
 35 49  1  0  0  0  0
 35 69  1  0  0  0  0
 35 74  2  0  0  0  0
 36 59  1  0  0  0  0
 36 64  1  0  0  0  0
 36 75  2  0  0  0  0
 37 60  1  0  0  0  0
 37 70  1  0  0  0  0
 37 76  2  0  0  0  0
 38 65  1  0  0  0  0
 38 68  1  0  0  0  0
 38 77  2  0  0  0  0
 39 42  1  0  0  0  0
 40 49  1  0  0  0  0
 41 64  1  0  0  0  0
 42 44  1  0  0  0  0
 43 45  1  0  0  0  0
 43 46  1  0  0  0  0
 44 48  1  0  0  0  0
 45 50  1  0  0  0  0
 46 65  1  0  0  0  0
 47 50  1  0  0  0  0
 47 65  1  0  0  0  0
 48 69  1  0  0  0  0
 49 64  1  0  0  0  0
 50 63  1  0  0  0  0
 51 60  1  0  0  0  0
 52 61  1  0  0  0  0
 53 61  1  0  0  0  0
 54 61  1  0  0  0  0
 55 72  1  0  0  0  0
 56 57  1  0  0  0  0
 56 58  1  0  0  0  0
 57 71  1  0  0  0  0
 58 81  1  0  0  0  0
 59 61  1  0  0  0  0
 59 70  1  0  0  0  0
 60 72  1  0  0  0  0
 62 63  1  0  0  0  0
 71 85  1  0  0  0  0
 78 85  2  0  0  0  0
 79 85  2  0  0  0  0
M  CHG  1  72   1
M  ISO  4  38 100  58 101  68 100  81 101
M  END
> <Batch ID>
0010

> <Smiles>
CNC(C)C(=O)NC(C(=O)N1Cc2cc([101O:1][101CH2:1]CCNS(=O)(=O)c3ccc([100NH:0][100C:0](=O)N4CCCC(n5nc(-c6ccc(Oc7ccc(F)cc7F)cc6)c(C(N)=O)c5N)C4)c(F)c3)ccc2CC1C(=O)NC1CCCc2ccccc21)C(C)(C)C

> <Shape>
0.185

> <Color>
0.067

> <Negative vol penalty>
0.000

$$$$

  -OEChem-04042320403D

 88 97  0     1  0  0  0  0  0999 V2000
  -25.1035  -31.3953   20.5634 C   0  0  0  0  0  0  0  0  0  0  0  0
  -24.9287  -30.5369   19.4839 C   0  0  0  0  0  0  0  0  0  0  0  0
  -30.4436  -22.5091   21.5779 C   0  0  0  0  0  0  0  0  0  0  0  0
  -28.8559  -22.2775   19.7717 C   0  0  0  0  0  0  0  0  0  0  0  0
  -25.2502  -30.8738   21.8471 C   0  0  0  0  0  0  0  0  0  0  0  0
  -24.8884  -29.1573   19.6890 C   0  0  0  0  0  0  0  0  0  0  0  0
  -24.3321  -21.4533   17.8022 C   0  0  0  0  0  0  0  0  0  0  0  0
  -26.4170  -11.9416   19.3722 C   0  0  0  0  0  0  0  0  0  0  0  0
  -30.7818  -23.7815   21.1175 C   0  0  0  0  0  0  0  0  0  0  0  0
  -29.1940  -23.5501   19.3113 C   0  0  0  0  0  0  0  0  0  0  0  0
  -24.6100  -20.1700   18.2711 C   0  0  0  0  0  0  0  0  0  0  0  0
  -29.4911  -26.9039   21.2526 C   0  0  0  0  0  0  0  0  0  0  0  0
  -25.3368  -11.1303   19.0249 C   0  0  0  0  0  0  0  0  0  0  0  0
  -29.5969  -27.9271   22.1945 C   0  0  0  0  0  0  0  0  0  0  0  0
  -23.3308  -20.6279   20.2644 C   0  0  0  0  0  0  0  0  0  0  0  0
  -31.9071  -28.2617   21.5718 C   0  0  0  0  0  0  0  0  0  0  0  0
  -29.4807  -21.7570   20.9049 C   0  0  0  0  0  0  0  0  0  0  0  0
  -28.1244  -20.1129   22.3068 C   0  0  0  0  0  0  0  0  0  0  0  0
  -25.2241  -29.4865   22.0655 C   0  0  0  0  0  0  0  0  0  0  0  0
  -23.5592  -22.3387   18.5671 C   0  0  0  0  0  0  0  0  0  0  0  0
  -25.0106  -28.6126   20.9801 C   0  0  0  0  0  0  0  0  0  0  0  0
  -23.0423  -21.9209   19.8017 C   0  0  0  0  0  0  0  0  0  0  0  0
  -24.9331  -13.3835   20.6195 C   0  0  0  0  0  0  0  0  0  0  0  0
  -23.8529  -12.5723   20.2722 C   0  0  0  0  0  0  0  0  0  0  0  0
  -26.2152  -13.0682   20.1696 C   0  0  0  0  0  0  0  0  0  0  0  0
  -30.1570  -24.3021   19.9843 C   0  0  0  0  0  0  0  0  0  0  0  0
  -24.1118  -19.7582   19.5037 C   0  0  0  0  0  0  0  0  0  0  0  0
  -30.5934  -26.5594   20.4702 C   0  0  0  0  0  0  0  0  0  0  0  0
  -30.8048  -28.6060   22.3541 C   0  0  0  0  0  0  0  0  0  0  0  0
  -24.0547  -11.4457   19.4748 C   0  0  0  0  0  0  0  0  0  0  0  0
  -31.8014  -27.2384   20.6298 C   0  0  0  0  0  0  0  0  0  0  0  0
  -29.1313  -20.4422   21.3797 C   0  0  0  0  0  0  0  0  0  0  0  0
  -28.1948  -18.7458   22.4190 C   0  0  0  0  0  0  0  0  0  0  0  0
  -27.2073  -20.9665   23.0040 C   0  0  0  0  0  0  0  0  0  0  0  0
  -24.0700  -25.1703   19.9179 C   0  0  0  0  0  0  0  0  0  0  0  0
  -20.8988  -24.9922   20.5768 C   0  0  0  0  0  0  0  0  0  0  0  0
  -18.1436  -23.0350   21.0504 C   0  0  0  0  0  0  0  0  0  0  0  0
  -28.6566  -13.6885   20.1359 C   0  0  0  0  0  0  0  0  0  0  0  0
  -25.3799  -28.9765   23.4765 C   0  0  0  0  0  0  0  0  0  0  0  0
  -23.2460  -23.7103   18.0350 C   0  0  0  0  0  0  0  0  0  0  0  0
  -22.1904  -22.8262   20.6521 C   0  0  0  0  0  0  0  0  0  0  0  0
  -25.7671  -27.5025   23.5365 C   0  0  0  0  0  0  0  0  0  0  0  0
  -31.6754  -15.4776   20.7380 C   0  0  0  0  0  0  0  0  0  0  0  0
  -24.8455  -26.6862   22.6427 C   0  0  0  0  0  0  0  0  0  0  0  0
  -31.1998  -16.9016   21.0349 C   0  0  0  0  0  0  0  0  0  0  0  0
  -21.0133  -11.3596   23.3318 C   0  0  0  0  0  0  0  0  0  0  0  0
  -30.8236  -14.8082   19.6610 C   0  0  0  0  0  0  0  0  0  0  0  0
  -28.9016  -16.2477   20.2116 C   0  0  0  0  0  0  0  0  0  0  0  0
  -22.2195  -11.1170   22.4125 C   0  0  0  0  0  0  0  0  0  0  0  0
  -20.8256  -12.6634   22.5418 C   0  0  0  0  0  0  0  0  0  0  0  0
  -24.9941  -27.1073   21.1752 C   0  0  1  0  0  0  0  0  0  0  0  0
  -22.8776  -24.7063   19.1303 C   0  0  1  0  0  0  0  0  0  0  0  0
  -29.6888  -16.9398   21.3364 C   0  0  2  0  0  0  0  0  0  0  0  0
  -25.5161  -14.5663   22.7768 C   0  0  0  0  0  0  0  0  0  0  0  0
  -15.7019  -23.1735   21.6130 C   0  0  0  0  0  0  0  0  0  0  0  0
  -21.6043  -25.5133   23.4993 C   0  0  0  0  0  0  0  0  0  0  0  0
  -19.3171  -24.7079   24.1225 C   0  0  0  0  0  0  0  0  0  0  0  0
  -19.5766  -26.7285   22.6829 C   0  0  0  0  0  0  0  0  0  0  0  0
  -17.3616  -21.8024   18.4759 C   0  0  0  0  0  0  0  0  0  0  0  0
  -22.4710  -12.8902   20.7424 C   0  0  0  0  0  0  0  0  0  0  0  0
  -24.1862  -16.1403   19.5823 C   0  0  0  0  0  0  0  0  0  0  0  0
  -24.5683  -17.4817   18.9885 C   0  0  0  0  0  0  0  0  0  1  0  0
  -24.7092  -14.6046   21.4814 C   0  0  1  0  0  0  0  0  0  0  0  0
  -20.0726  -24.4457   21.7160 C   0  0  1  0  0  0  0  0  0  0  0  0
  -16.7334  -23.1297   20.4964 C   0  0  2  0  0  0  0  0  0  0  0  0
  -20.1603  -25.3322   22.9902 C   0  0  0  0  0  0  0  0  0  0  0  0
  -29.7930  -19.3707   20.9348 N   0  0  0  0  0  0  0  0  0  0  0  0
  -29.2006  -18.3547   21.5851 N   0  0  0  0  0  0  0  0  0  0  0  0
  -21.9174  -24.1599   20.0914 N   0  0  0  0  0  0  0  0  0  0  0  0
  -29.4046  -14.8788   20.0165 N   0  0  0  0  0  0  0  0  0  0  0  0
  -27.4938  -17.8522   23.1488 N   0  0  0  0  0  0  0  0  0  0  0  0
  -27.2713  -22.3471   22.7719 N   0  0  0  0  0  0  0  0  0  0  0  0
  -27.3267  -13.8782   20.5102 N   0  0  0  0  0  0  0  0  0  0  0  0
  -23.9623  -26.4636   20.3925 N   0  0  0  0  0  0  0  0  0  0  0  0
  -18.7198  -24.2792   21.1958 N   0  0  0  0  0  0  0  0  0  0  0  0
  -22.2515  -12.5729   22.1703 N   0  3  0  0  0  0  0  0  0  0  0  0
  -16.4376  -21.9543   19.6292 N   0  3  0  0  0  0  0  0  0  0  0  0
  -25.0305  -15.8735   20.7740 N   0  3  0  0  0  0  0  0  0  0  0  0
  -26.3673  -20.5196   23.8215 O   0  0  0  0  0  0  0  0  0  0  0  0
  -25.0172  -24.4106   20.0841 O   0  0  0  0  0  0  0  0  0  0  0  0
  -20.6451  -26.1134   20.1293 O   0  0  0  0  0  0  0  0  0  0  0  0
  -18.6789  -21.9646   21.3300 O   0  0  0  0  0  0  0  0  0  0  0  0
  -29.1658  -12.5805   19.9484 O   0  0  0  0  0  0  0  0  0  0  0  0
  -30.4866  -25.5438   19.5349 O   0  0  0  0  0  0  0  0  0  0  0  0
  -24.3821  -18.5064   19.9640 O   0  0  0  0  0  0  0  0  0  1  0  0
  -30.9058  -29.5897   23.2577 F   0  0  0  0  0  0  0  0  0  0  0  0
  -23.0237  -10.6590   19.1358 F   0  0  0  0  0  0  0  0  0  0  0  0
  -32.8634  -26.9128   19.8802 F   0  0  0  0  0  0  0  0  0  0  0  0
  1  2  1  0  0  0  0
  1  5  2  0  0  0  0
  2  6  2  0  0  0  0
  3  9  2  0  0  0  0
  3 17  1  0  0  0  0
  4 10  1  0  0  0  0
  4 17  2  0  0  0  0
  5 19  1  0  0  0  0
  6 21  1  0  0  0  0
  7 11  2  0  0  0  0
  7 20  1  0  0  0  0
  8 13  1  0  0  0  0
  8 25  2  0  0  0  0
  9 26  1  0  0  0  0
 10 26  2  0  0  0  0
 11 27  1  0  0  0  0
 12 14  2  0  0  0  0
 12 28  1  0  0  0  0
 13 30  2  0  0  0  0
 14 29  1  0  0  0  0
 15 22  1  0  0  0  0
 15 27  2  0  0  0  0
 16 29  2  0  0  0  0
 16 31  1  0  0  0  0
 17 32  1  0  0  0  0
 18 32  1  0  0  0  0
 18 33  2  0  0  0  0
 18 34  1  0  0  0  0
 19 21  2  0  0  0  0
 19 39  1  0  0  0  0
 20 22  2  0  0  0  0
 20 40  1  0  0  0  0
 21 51  1  0  0  0  0
 22 41  1  0  0  0  0
 23 24  2  0  0  0  0
 23 25  1  0  0  0  0
 23 63  1  0  0  0  0
 24 30  1  0  0  0  0
 24 60  1  0  0  0  0
 25 73  1  0  0  0  0
 26 84  1  0  0  0  0
 27 85  1  0  0  0  0
 28 31  2  0  0  0  0
 28 84  1  0  0  0  0
 29 86  1  0  0  0  0
 30 87  1  0  0  0  0
 31 88  1  0  0  0  0
 32 67  2  0  0  0  0
 33 68  1  0  0  0  0
 33 71  1  0  0  0  0
 34 72  1  0  0  0  0
 34 79  2  0  0  0  0
 35 52  1  0  0  0  0
 35 74  1  0  0  0  0
 35 80  2  0  0  0  0
 36 64  1  0  0  0  0
 36 69  1  0  0  0  0
 36 81  2  0  0  0  0
 37 65  1  0  0  0  0
 37 75  1  0  0  0  0
 37 82  2  0  0  0  0
 38 70  1  0  0  0  0
 38 73  1  0  0  0  0
 38 83  2  0  0  0  0
 39 42  1  0  0  0  0
 40 52  1  0  0  0  0
 41 69  1  0  0  0  0
 42 44  1  0  0  0  0
 43 45  1  0  0  0  0
 43 47  1  0  0  0  0
 44 51  1  0  0  0  0
 45 53  1  0  0  0  0
 46 49  1  0  0  0  0
 46 50  1  0  0  0  0
 47 70  1  0  0  0  0
 48 53  1  0  0  0  0
 48 70  1  0  0  0  0
 49 76  1  0  0  0  0
 50 76  1  0  0  0  0
 51 74  1  0  0  0  0
 52 69  1  0  0  0  0
 53 68  1  0  0  0  0
 54 63  1  0  0  0  0
 55 65  1  0  0  0  0
 56 66  1  0  0  0  0
 57 66  1  0  0  0  0
 58 66  1  0  0  0  0
 59 77  1  0  0  0  0
 60 76  1  0  0  0  0
 61 62  1  0  0  0  0
 61 78  1  0  0  0  0
 62 85  1  0  0  0  0
 63 78  1  0  0  0  0
 64 66  1  0  0  0  0
 64 75  1  0  0  0  0
 65 77  1  0  0  0  0
 67 68  1  0  0  0  0
M  CHG  3  76   1  77   1  78   1
M  ISO  4  38 100  62 101  73 100  85 101
M  END
> <Batch ID>
0010

> <Smiles>
CNC(C)C(=O)NC(C(=O)N1Cc2cc([101O:1][101CH2:1]CNC(C)c3c([100NH:0][100C:0](=O)N4CCCC(n5nc(-c6ccc(Oc7ccc(F)cc7F)cc6)c(C(N)=O)c5N)C4)ccc(F)c3CN3CCC3)ccc2CC1C(=O)NC1CCCc2ccccc21)C(C)(C)C

> <Shape>
0.232

> <Color>
0.066

> <Negative vol penalty>
0.000

$$$$

  -OEChem-04042320403D

 84 92  0     1  0  0  0  0  0999 V2000
  -19.1504  -18.2096   22.5842 C   0  0  0  0  0  0  0  0  0  0  0  0
  -20.4440  -18.1833   23.0952 C   0  0  0  0  0  0  0  0  0  0  0  0
  -22.9993   -9.8948   19.9810 C   0  0  0  0  0  0  0  0  0  0  0  0
  -23.7243   -9.9455   22.2851 C   0  0  0  0  0  0  0  0  0  0  0  0
  -18.0835  -17.7721   23.3678 C   0  0  0  0  0  0  0  0  0  0  0  0
  -20.6714  -17.7204   24.3907 C   0  0  0  0  0  0  0  0  0  0  0  0
  -24.6390  -14.5854   24.6652 C   0  0  0  0  0  0  0  0  0  0  0  0
  -32.0591  -16.5456   22.5624 C   0  0  0  0  0  0  0  0  0  0  0  0
  -22.2323   -8.7607   20.2472 C   0  0  0  0  0  0  0  0  0  0  0  0
  -22.9572   -8.8113   22.5514 C   0  0  0  0  0  0  0  0  0  0  0  0
  -25.9082  -15.1624   24.6563 C   0  0  0  0  0  0  0  0  0  0  0  0
  -21.4743   -5.7189   23.7546 C   0  0  0  0  0  0  0  0  0  0  0  0
  -32.6512  -17.4409   23.4531 C   0  0  0  0  0  0  0  0  0  0  0  0
  -22.0598   -4.7029   24.5099 C   0  0  0  0  0  0  0  0  0  0  0  0
  -26.0257  -14.9260   27.0542 C   0  0  0  0  0  0  0  0  0  0  0  0
  -23.7862   -4.4550   22.8380 C   0  0  0  0  0  0  0  0  0  0  0  0
  -23.7453  -10.4872   20.9999 C   0  0  0  0  0  0  0  0  0  0  0  0
  -24.1317  -13.0027   20.8239 C   0  0  0  0  0  0  0  0  0  0  0  0
  -18.2990  -17.2945   24.6702 C   0  0  0  0  0  0  0  0  0  0  0  0
  -24.0482  -14.1837   25.8718 C   0  0  0  0  0  0  0  0  0  0  0  0
  -19.6062  -17.2772   25.1931 C   0  0  0  0  0  0  0  0  0  0  0  0
  -24.7500  -14.3418   27.0753 C   0  0  0  0  0  0  0  0  0  0  0  0
  -30.4760  -18.3442   23.9910 C   0  0  0  0  0  0  0  0  0  0  0  0
  -30.6755  -16.5496   22.3859 C   0  0  0  0  0  0  0  0  0  0  0  0
  -22.2112   -8.2189   21.5324 C   0  0  0  0  0  0  0  0  0  0  0  0
  -26.6006  -15.3354   25.8512 C   0  0  0  0  0  0  0  0  0  0  0  0
  -22.0447   -6.1029   22.5410 C   0  0  0  0  0  0  0  0  0  0  0  0
  -23.2158   -4.0709   24.0516 C   0  0  0  0  0  0  0  0  0  0  0  0
  -31.8597  -18.3402   24.1675 C   0  0  0  0  0  0  0  0  0  0  0  0
  -23.2006   -5.4710   22.0827 C   0  0  0  0  0  0  0  0  0  0  0  0
  -29.8839  -17.4489   23.1003 C   0  0  0  0  0  0  0  0  0  0  0  0
  -24.5383  -11.6585   20.7253 C   0  0  0  0  0  0  0  0  0  0  0  0
  -25.2418  -13.7248   20.4596 C   0  0  0  0  0  0  0  0  0  0  0  0
  -22.8640  -13.5496   21.2103 C   0  0  0  0  0  0  0  0  0  0  0  0
  -21.4304  -15.0129   27.4729 C   0  0  0  0  0  0  0  0  0  0  0  0
  -22.2945  -12.5452   29.3929 C   0  0  0  0  0  0  0  0  0  0  0  0
  -24.7763  -10.5146   30.5609 C   0  0  0  0  0  0  0  0  0  0  0  0
  -30.7217  -14.6836   20.6941 C   0  0  0  0  0  0  0  0  0  0  0  0
  -17.1086  -16.8763   25.4964 C   0  0  0  0  0  0  0  0  0  0  0  0
  -22.6895  -13.5385   25.8615 C   0  0  0  0  0  0  0  0  0  0  0  0
  -24.1684  -13.9087   28.3954 C   0  0  0  0  0  0  0  0  0  0  0  0
  -17.4798  -16.0496   26.7248 C   0  0  0  0  0  0  0  0  0  0  0  0
  -29.6026  -12.2311   18.3681 C   0  0  0  0  0  0  0  0  0  0  0  0
  -18.6452  -16.6935   27.4693 C   0  0  0  0  0  0  0  0  0  0  0  0
  -28.1519  -11.9741   18.7821 C   0  0  0  0  0  0  0  0  0  0  0  0
  -30.5031  -12.4742   19.5780 C   0  0  0  0  0  0  0  0  0  0  0  0
  -28.5880  -13.2638   20.9113 C   0  0  0  0  0  0  0  0  0  0  0  0
  -19.8962  -16.7589   26.5849 C   0  0  1  0  0  0  0  0  0  0  0  0
  -21.9710  -13.6371   27.2036 C   0  0  1  0  0  0  0  0  0  0  0  0
  -27.6303  -13.0779   19.7230 C   0  0  2  0  0  0  0  0  0  0  0  0
  -25.1835   -8.6160   32.1506 C   0  0  0  0  0  0  0  0  0  0  0  0
  -22.1372  -14.4833   31.7442 C   0  0  0  0  0  0  0  0  0  0  0  0
  -23.4408  -12.8326   33.1020 C   0  0  0  0  0  0  0  0  0  0  0  0
  -21.1994  -12.2105   32.2012 C   0  0  0  0  0  0  0  0  0  0  0  0
  -25.6941   -8.7344   28.3821 C   0  0  0  0  0  0  0  0  0  0  0  0
  -27.6949  -19.6392   26.2983 C   0  0  0  0  0  0  0  0  0  0  0  0
  -29.6249  -19.3119   24.7593 C   0  0  0  0  0  0  0  0  0  0  0  0
  -29.2284  -17.7033   26.6182 C   0  0  0  0  0  0  0  0  0  0  0  0
  -28.2222  -16.6374   27.0050 C   0  0  0  0  0  0  0  0  0  1  0  0
  -23.1625  -12.3979   30.6192 C   0  0  1  0  0  0  0  0  0  0  0  0
  -24.8536   -9.0067   30.7183 C   0  0  2  0  0  0  0  0  0  0  0  0
  -22.4954  -12.9911   31.8922 C   0  0  0  0  0  0  0  0  0  0  0  0
  -25.8076  -11.5315   20.3293 N   0  0  0  0  0  0  0  0  0  0  0  0
  -26.2081  -12.8051   20.1757 N   0  0  0  0  0  0  0  0  0  0  0  0
  -22.8344  -13.2888   28.3339 N   0  0  0  0  0  0  0  0  0  0  0  0
  -29.9484  -13.5354   20.4212 N   0  0  0  0  0  0  0  0  0  0  0  0
  -25.4759  -15.0504   20.3575 N   0  0  0  0  0  0  0  0  0  0  0  0
  -21.8318  -12.6659   21.5537 N   0  0  0  0  0  0  0  0  0  0  0  0
  -30.0777  -15.6390   21.4796 N   0  0  0  0  0  0  0  0  0  0  0  0
  -20.5372  -15.4630   26.5195 N   0  0  0  0  0  0  0  0  0  0  0  0
  -23.4880  -10.9794   30.7209 N   0  0  0  0  0  0  0  0  0  0  0  0
  -25.9054   -8.4458   29.8240 N   0  3  0  0  0  0  0  0  0  0  0  0
  -28.6067  -18.6327   25.6415 N   0  3  1  0  0  0  0  0  0  0  0  0
  -22.6478  -14.7850   21.2340 O   0  0  0  0  0  0  0  0  0  0  0  0
  -21.7955  -15.6205   28.4725 O   0  0  0  0  0  0  0  0  0  0  0  0
  -21.1815  -12.0139   29.3725 O   0  0  0  0  0  0  0  0  0  0  0  0
  -25.7609  -11.2109   30.3237 O   0  0  0  0  0  0  0  0  0  0  0  0
  -31.8605  -14.8220   20.2402 O   0  0  0  0  0  0  0  0  0  0  0  0
  -21.4626   -7.1124   21.7927 O   0  0  0  0  0  0  0  0  0  0  0  0
  -27.8392  -15.8989   25.8455 O   0  0  0  0  0  0  0  0  0  1  0  0
  -23.7788   -3.0963   24.7778 F   0  0  0  0  0  0  0  0  0  0  0  0
  -32.4375  -19.1953   25.0225 F   0  0  0  0  0  0  0  0  0  0  0  0
  -23.7539   -5.8364   20.9181 F   0  0  0  0  0  0  0  0  0  0  0  0
  -28.5529  -17.4544   22.9309 F   0  0  0  0  0  0  0  0  0  0  0  0
  1  2  1  0  0  0  0
  1  5  2  0  0  0  0
  2  6  2  0  0  0  0
  3  9  2  0  0  0  0
  3 17  1  0  0  0  0
  4 10  1  0  0  0  0
  4 17  2  0  0  0  0
  5 19  1  0  0  0  0
  6 21  1  0  0  0  0
  7 11  2  0  0  0  0
  7 20  1  0  0  0  0
  8 13  1  0  0  0  0
  8 24  2  0  0  0  0
  9 25  1  0  0  0  0
 10 25  2  0  0  0  0
 11 26  1  0  0  0  0
 12 14  2  0  0  0  0
 12 27  1  0  0  0  0
 13 29  2  0  0  0  0
 14 28  1  0  0  0  0
 15 22  1  0  0  0  0
 15 26  2  0  0  0  0
 16 28  2  0  0  0  0
 16 30  1  0  0  0  0
 17 32  1  0  0  0  0
 18 32  1  0  0  0  0
 18 33  2  0  0  0  0
 18 34  1  0  0  0  0
 19 21  2  0  0  0  0
 19 39  1  0  0  0  0
 20 22  2  0  0  0  0
 20 40  1  0  0  0  0
 21 48  1  0  0  0  0
 22 41  1  0  0  0  0
 23 29  1  0  0  0  0
 23 31  2  0  0  0  0
 23 57  1  0  0  0  0
 24 31  1  0  0  0  0
 24 69  1  0  0  0  0
 25 79  1  0  0  0  0
 26 80  1  0  0  0  0
 27 30  2  0  0  0  0
 27 79  1  0  0  0  0
 28 81  1  0  0  0  0
 29 82  1  0  0  0  0
 30 83  1  0  0  0  0
 31 84  1  0  0  0  0
 32 63  2  0  0  0  0
 33 64  1  0  0  0  0
 33 67  1  0  0  0  0
 34 68  1  0  0  0  0
 34 74  2  0  0  0  0
 35 49  1  0  0  0  0
 35 70  1  0  0  0  0
 35 75  2  0  0  0  0
 36 60  1  0  0  0  0
 36 65  1  0  0  0  0
 36 76  2  0  0  0  0
 37 61  1  0  0  0  0
 37 71  1  0  0  0  0
 37 77  2  0  0  0  0
 38 66  1  0  0  0  0
 38 69  1  0  0  0  0
 38 78  2  0  0  0  0
 39 42  1  0  0  0  0
 40 49  1  0  0  0  0
 41 65  1  0  0  0  0
 42 44  1  0  0  0  0
 43 45  1  0  0  0  0
 43 46  1  0  0  0  0
 44 48  1  0  0  0  0
 45 50  1  0  0  0  0
 46 66  1  0  0  0  0
 47 50  1  0  0  0  0
 47 66  1  0  0  0  0
 48 70  1  0  0  0  0
 49 65  1  0  0  0  0
 50 64  1  0  0  0  0
 51 61  1  0  0  0  0
 52 62  1  0  0  0  0
 53 62  1  0  0  0  0
 54 62  1  0  0  0  0
 55 72  1  0  0  0  0
 56 73  1  0  0  0  0
 57 73  1  0  0  0  0
 58 59  1  0  0  0  0
 58 73  1  0  0  0  0
 59 80  1  0  0  0  0
 60 62  1  0  0  0  0
 60 71  1  0  0  0  0
 61 72  1  0  0  0  0
 63 64  1  0  0  0  0
M  CHG  2  72   1  73   1
M  ISO  4  38 100  59 101  69 100  80 101
M  END
> <Batch ID>
0010

> <Smiles>
CNC(C)C(=O)NC(C(=O)N1Cc2cc([101O:1][101CH2:1]CN(C)Cc3c(F)ccc([100NH:0][100C:0](=O)N4CCCC(n5nc(-c6ccc(Oc7ccc(F)cc7F)cc6)c(C(N)=O)c5N)C4)c3F)ccc2CC1C(=O)NC1CCCc2ccccc21)C(C)(C)C

> <Shape>
0.170

> <Color>
0.198

> <Negative vol penalty>
0.000

$$$$

  -OEChem-04042320403D

 79 87  0     1  0  0  0  0  0999 V2000
  -28.0836  -37.0373   21.1610 C   0  0  0  0  0  0  0  0  0  0  0  0
  -28.4933  -35.7188   20.9901 C   0  0  0  0  0  0  0  0  0  0  0  0
  -26.8786  -12.7373   21.8102 C   0  0  0  0  0  0  0  0  0  0  0  0
  -26.2304  -14.3669   20.1484 C   0  0  0  0  0  0  0  0  0  0  0  0
  -26.9671  -37.3230   21.9456 C   0  0  0  0  0  0  0  0  0  0  0  0
  -27.7873  -34.6853   21.6048 C   0  0  0  0  0  0  0  0  0  0  0  0
  -26.8428  -29.0511   19.3981 C   0  0  0  0  0  0  0  0  0  0  0  0
  -29.9120  -23.9372   21.6534 C   0  0  0  0  0  0  0  0  0  0  0  0
  -30.3901  -22.6753   22.0063 C   0  0  0  0  0  0  0  0  0  0  0  0
  -25.5587  -12.2931   21.8894 C   0  0  0  0  0  0  0  0  0  0  0  0
  -24.9105  -13.9227   20.2276 C   0  0  0  0  0  0  0  0  0  0  0  0
  -27.4768  -27.8323   19.6354 C   0  0  0  0  0  0  0  0  0  0  0  0
  -22.4262  -10.4874   22.2655 C   0  0  0  0  0  0  0  0  0  0  0  0
  -22.2047   -9.1103   22.2726 C   0  0  0  0  0  0  0  0  0  0  0  0
  -25.7890  -27.2790   21.2677 C   0  0  0  0  0  0  0  0  0  0  0  0
  -29.5679  -21.7799   19.9185 C   0  0  0  0  0  0  0  0  0  0  0  0
  -23.2649   -8.9286   20.1092 C   0  0  0  0  0  0  0  0  0  0  0  0
  -27.2144  -13.7743   20.9397 C   0  0  0  0  0  0  0  0  0  0  0  0
  -29.5850  -13.7578   19.9976 C   0  0  0  0  0  0  0  0  0  0  0  0
  -26.2413  -36.2916   22.5624 C   0  0  0  0  0  0  0  0  0  0  0  0
  -25.6813  -29.3983   20.1028 C   0  0  0  0  0  0  0  0  0  0  0  0
  -26.6608  -34.9575   22.3995 C   0  0  0  0  0  0  0  0  0  0  0  0
  -25.1407  -28.5017   21.0356 C   0  0  0  0  0  0  0  0  0  0  0  0
  -29.2617  -24.1205   20.4330 C   0  0  0  0  0  0  0  0  0  0  0  0
  -30.2181  -21.5966   21.1389 C   0  0  0  0  0  0  0  0  0  0  0  0
  -24.5747  -12.8858   21.0981 C   0  0  0  0  0  0  0  0  0  0  0  0
  -26.9516  -26.9473   20.5724 C   0  0  0  0  0  0  0  0  0  0  0  0
  -23.0669  -11.0852   21.1802 C   0  0  0  0  0  0  0  0  0  0  0  0
  -22.6241   -8.3309   21.1945 C   0  0  0  0  0  0  0  0  0  0  0  0
  -29.0897  -23.0418   19.5656 C   0  0  0  0  0  0  0  0  0  0  0  0
  -23.4863  -10.3058   20.1021 C   0  0  0  0  0  0  0  0  0  0  0  0
  -28.5775  -14.2339   20.8578 C   0  0  0  0  0  0  0  0  0  0  0  0
  -30.6881  -14.5148   20.3085 C   0  0  0  0  0  0  0  0  0  0  0  0
  -29.5288  -12.7236   19.0061 C   0  0  0  0  0  0  0  0  0  0  0  0
  -24.8922  -31.7254   22.1191 C   0  0  0  0  0  0  0  0  0  0  0  0
  -21.9349  -30.4185   21.8581 C   0  0  0  0  0  0  0  0  0  0  0  0
  -20.0316  -27.6759   21.1493 C   0  0  0  0  0  0  0  0  0  0  0  0
  -31.3673  -19.9608   22.6717 C   0  0  0  0  0  0  0  0  0  0  0  0
  -25.0691  -36.6531   23.4398 C   0  0  0  0  0  0  0  0  0  0  0  0
  -24.9943  -30.7053   19.8159 C   0  0  0  0  0  0  0  0  0  0  0  0
  -23.8846  -28.8183   21.8040 C   0  0  0  0  0  0  0  0  0  0  0  0
  -24.1541  -35.4715   23.7512 C   0  0  0  0  0  0  0  0  0  0  0  0
  -32.6837  -16.9076   23.9453 C   0  0  0  0  0  0  0  0  0  0  0  0
  -24.9758  -34.2543   24.1636 C   0  0  0  0  0  0  0  0  0  0  0  0
  -31.8759  -15.8320   23.2153 C   0  0  0  0  0  0  0  0  0  0  0  0
  -31.8282  -18.1270   24.2841 C   0  0  0  0  0  0  0  0  0  0  0  0
  -30.2957  -17.6363   22.4187 C   0  0  0  0  0  0  0  0  0  0  0  0
  -25.9064  -33.8070   23.0298 C   0  0  1  0  0  0  0  0  0  0  0  0
  -24.1054  -31.1773   20.9624 C   0  0  1  0  0  0  0  0  0  0  0  0
  -31.1307  -16.4155   21.9989 C   0  0  2  0  0  0  0  0  0  0  0  0
  -17.6456  -26.9035   21.0599 C   0  0  0  0  0  0  0  0  0  0  0  0
  -21.8790  -30.2460   24.9040 C   0  0  0  0  0  0  0  0  0  0  0  0
  -19.9638  -28.6454   24.7087 C   0  0  0  0  0  0  0  0  0  0  0  0
  -19.7276  -30.9796   23.8611 C   0  0  0  0  0  0  0  0  0  0  0  0
  -20.2122  -27.0776   18.2565 C   0  0  0  0  0  0  0  0  0  0  0  0
  -28.7507  -25.4800   20.0564 C   0  0  0  0  0  0  0  0  0  1  0  0
  -21.1740  -29.3402   22.5913 C   0  0  1  0  0  0  0  0  0  0  0  0
  -18.8031  -27.5010   20.2749 C   0  0  2  0  0  0  0  0  0  0  0  0
  -20.7109  -29.7974   24.0033 C   0  0  0  0  0  0  0  0  0  0  0  0
  -29.0029  -15.2172   21.6555 N   0  0  0  0  0  0  0  0  0  0  0  0
  -30.2898  -15.3650   21.2978 N   0  0  0  0  0  0  0  0  0  0  0  0
  -23.2531  -30.1112   21.4926 N   0  0  0  0  0  0  0  0  0  0  0  0
  -31.1562  -18.6278   23.0831 N   0  0  0  0  0  0  0  0  0  0  0  0
  -31.9501  -14.5294   19.8295 N   0  0  0  0  0  0  0  0  0  0  0  0
  -28.3169  -12.0460   18.8154 N   0  0  0  0  0  0  0  0  0  0  0  0
  -30.7020  -20.3143   21.4983 N   0  0  0  0  0  0  0  0  0  0  0  0
  -25.1638  -33.0770   22.0248 N   0  0  0  0  0  0  0  0  0  0  0  0
  -20.0861  -28.9355   21.7075 N   0  0  0  0  0  0  0  0  0  0  0  0
  -19.1078  -26.5998   19.1278 N   0  3  0  0  0  0  0  0  0  0  0  0
  -30.5283  -12.3986   18.3212 O   0  0  0  0  0  0  0  0  0  0  0  0
  -25.2269  -30.9778   23.0306 O   0  0  0  0  0  0  0  0  0  0  0  0
  -21.3776  -31.4912   21.6123 O   0  0  0  0  0  0  0  0  0  0  0  0
  -20.8582  -26.7830   21.3230 O   0  0  0  0  0  0  0  0  0  0  0  0
  -32.1071  -20.7238   23.2982 O   0  0  0  0  0  0  0  0  0  0  0  0
  -23.2868  -12.4524   21.1750 O   0  0  0  0  0  0  0  0  0  0  0  0
  -27.5688  -25.7573   20.8065 O   0  0  0  0  0  0  0  0  0  1  0  0
  -22.4127   -7.0082   21.2021 F   0  0  0  0  0  0  0  0  0  0  0  0
  -28.4663  -23.2080   18.3908 F   0  0  0  0  0  0  0  0  0  0  0  0
  -24.1034  -10.8743   19.0572 F   0  0  0  0  0  0  0  0  0  0  0  0
  1  2  1  0  0  0  0
  1  5  2  0  0  0  0
  2  6  2  0  0  0  0
  3 10  2  0  0  0  0
  3 18  1  0  0  0  0
  4 11  1  0  0  0  0
  4 18  2  0  0  0  0
  5 20  1  0  0  0  0
  6 22  1  0  0  0  0
  7 12  2  0  0  0  0
  7 21  1  0  0  0  0
  8  9  2  0  0  0  0
  8 24  1  0  0  0  0
  9 25  1  0  0  0  0
 10 26  1  0  0  0  0
 11 26  2  0  0  0  0
 12 27  1  0  0  0  0
 13 14  2  0  0  0  0
 13 28  1  0  0  0  0
 14 29  1  0  0  0  0
 15 23  1  0  0  0  0
 15 27  2  0  0  0  0
 16 25  2  0  0  0  0
 16 30  1  0  0  0  0
 17 29  2  0  0  0  0
 17 31  1  0  0  0  0
 18 32  1  0  0  0  0
 19 32  1  0  0  0  0
 19 33  2  0  0  0  0
 19 34  1  0  0  0  0
 20 22  2  0  0  0  0
 20 39  1  0  0  0  0
 21 23  2  0  0  0  0
 21 40  1  0  0  0  0
 22 48  1  0  0  0  0
 23 41  1  0  0  0  0
 24 30  2  0  0  0  0
 24 56  1  0  0  0  0
 25 66  1  0  0  0  0
 26 75  1  0  0  0  0
 27 76  1  0  0  0  0
 28 31  2  0  0  0  0
 28 75  1  0  0  0  0
 29 77  1  0  0  0  0
 30 78  1  0  0  0  0
 31 79  1  0  0  0  0
 32 60  2  0  0  0  0
 33 61  1  0  0  0  0
 33 64  1  0  0  0  0
 34 65  1  0  0  0  0
 34 70  2  0  0  0  0
 35 49  1  0  0  0  0
 35 67  1  0  0  0  0
 35 71  2  0  0  0  0
 36 57  1  0  0  0  0
 36 62  1  0  0  0  0
 36 72  2  0  0  0  0
 37 58  1  0  0  0  0
 37 68  1  0  0  0  0
 37 73  2  0  0  0  0
 38 63  1  0  0  0  0
 38 66  1  0  0  0  0
 38 74  2  0  0  0  0
 39 42  1  0  0  0  0
 40 49  1  0  0  0  0
 41 62  1  0  0  0  0
 42 44  1  0  0  0  0
 43 45  1  0  0  0  0
 43 46  1  0  0  0  0
 44 48  1  0  0  0  0
 45 50  1  0  0  0  0
 46 63  1  0  0  0  0
 47 50  1  0  0  0  0
 47 63  1  0  0  0  0
 48 67  1  0  0  0  0
 49 62  1  0  0  0  0
 50 61  1  0  0  0  0
 51 58  1  0  0  0  0
 52 59  1  0  0  0  0
 53 59  1  0  0  0  0
 54 59  1  0  0  0  0
 55 69  1  0  0  0  0
 56 76  1  0  0  0  0
 57 59  1  0  0  0  0
 57 68  1  0  0  0  0
 58 69  1  0  0  0  0
 60 61  1  0  0  0  0
M  CHG  1  69   1
M  ISO  4  38 100  56 101  66 100  76 101
M  END
> <Batch ID>
0010

> <Smiles>
CNC(C)C(=O)NC(C(=O)N1Cc2cc([101O:1][101CH2:1]c3ccc([100NH:0][100C:0](=O)N4CCCC(n5nc(-c6ccc(Oc7ccc(F)cc7F)cc6)c(C(N)=O)c5N)C4)cc3F)ccc2CC1C(=O)NC1CCCc2ccccc21)C(C)(C)C

> <Shape>
0.344

> <Color>
0.078

> <Negative vol penalty>
0.000

$$$$

  -OEChem-04042320403D

 84 92  0     1  0  0  0  0  0999 V2000
  -19.2073  -16.7800   21.1700 C   0  0  0  0  0  0  0  0  0  0  0  0
  -20.5900  -16.8945   21.0680 C   0  0  0  0  0  0  0  0  0  0  0  0
  -22.8134  -30.8912   20.8048 C   0  0  0  0  0  0  0  0  0  0  0  0
  -22.6645  -29.0238   22.3304 C   0  0  0  0  0  0  0  0  0  0  0  0
  -18.6474  -15.7226   21.8857 C   0  0  0  0  0  0  0  0  0  0  0  0
  -21.4137  -15.9521   21.6826 C   0  0  0  0  0  0  0  0  0  0  0  0
  -25.1921  -14.4208   18.6786 C   0  0  0  0  0  0  0  0  0  0  0  0
  -28.3410  -23.2012   22.5081 C   0  0  0  0  0  0  0  0  0  0  0  0
  -21.4293  -30.8623   20.6342 C   0  0  0  0  0  0  0  0  0  0  0  0
  -21.2804  -28.9948   22.1599 C   0  0  0  0  0  0  0  0  0  0  0  0
  -26.2844  -15.2765   18.5430 C   0  0  0  0  0  0  0  0  0  0  0  0
  -18.5967  -30.7093   23.2908 C   0  0  0  0  0  0  0  0  0  0  0  0
  -28.3084  -21.8302   22.7629 C   0  0  0  0  0  0  0  0  0  0  0  0
  -17.8072  -30.5754   24.4328 C   0  0  0  0  0  0  0  0  0  0  0  0
  -27.5127  -13.9521   20.1419 C   0  0  0  0  0  0  0  0  0  0  0  0
  -29.5515  -22.7914   20.4578 C   0  0  0  0  0  0  0  0  0  0  0  0
  -16.8787  -28.5267   23.5509 C   0  0  0  0  0  0  0  0  0  0  0  0
  -23.4310  -29.9719   21.6528 C   0  0  0  0  0  0  0  0  0  0  0  0
  -25.5840  -30.7298   22.7920 C   0  0  0  0  0  0  0  0  0  0  0  0
  -19.4645  -14.7613   22.5013 C   0  0  0  0  0  0  0  0  0  0  0  0
  -25.2481  -13.3288   19.5565 C   0  0  0  0  0  0  0  0  0  0  0  0
  -20.8643  -14.8816   22.4084 C   0  0  0  0  0  0  0  0  0  0  0  0
  -26.4206  -13.0826   20.2849 C   0  0  0  0  0  0  0  0  0  0  0  0
  -29.5190  -21.4204   20.7126 C   0  0  0  0  0  0  0  0  0  0  0  0
  -28.9625  -23.6818   21.3555 C   0  0  0  0  0  0  0  0  0  0  0  0
  -20.6628  -29.9141   21.3118 C   0  0  0  0  0  0  0  0  0  0  0  0
  -27.4439  -15.0439   19.2768 C   0  0  0  0  0  0  0  0  0  0  0  0
  -18.5272  -29.7519   22.2787 C   0  0  0  0  0  0  0  0  0  0  0  0
  -16.9482  -29.4842   24.5630 C   0  0  0  0  0  0  0  0  0  0  0  0
  -28.8974  -20.9398   21.8652 C   0  0  0  0  0  0  0  0  0  0  0  0
  -17.6682  -28.6606   22.4088 C   0  0  0  0  0  0  0  0  0  0  0  0
  -24.8608  -30.0010   21.8289 C   0  0  0  0  0  0  0  0  0  0  0  0
  -26.8984  -30.4194   22.5417 C   0  0  0  0  0  0  0  0  0  0  0  0
  -25.1101  -31.6087   23.8209 C   0  0  0  0  0  0  0  0  0  0  0  0
  -23.6389  -12.4547   22.1547 C   0  0  0  0  0  0  0  0  0  0  0  0
  -25.4064   -9.7502   21.8645 C   0  0  0  0  0  0  0  0  0  0  0  0
  -29.3062  -18.1306   19.4195 C   0  0  0  0  0  0  0  0  0  0  0  0
  -28.2357   -8.2510   20.6836 C   0  0  0  0  0  0  0  0  0  0  0  0
  -29.5700  -25.7171   20.0009 C   0  0  0  0  0  0  0  0  0  0  0  0
  -18.8142  -13.6625   23.3041 C   0  0  0  0  0  0  0  0  0  0  0  0
  -24.0707  -12.3997   19.6715 C   0  0  0  0  0  0  0  0  0  0  0  0
  -26.5388  -11.9124   21.2257 C   0  0  0  0  0  0  0  0  0  0  0  0
  -19.7505  -12.4965   23.6107 C   0  0  0  0  0  0  0  0  0  0  0  0
  -29.8268  -29.1192   18.9825 C   0  0  0  0  0  0  0  0  0  0  0  0
  -21.0978  -13.0102   24.1082 C   0  0  0  0  0  0  0  0  0  0  0  0
  -28.6519  -29.7989   19.6894 C   0  0  0  0  0  0  0  0  0  0  0  0
  -29.4698  -27.7084   18.5178 C   0  0  0  0  0  0  0  0  0  0  0  0
  -27.7463  -27.5113   20.2671 C   0  0  0  0  0  0  0  0  0  0  0  0
  -21.7906  -13.8654   23.0404 C   0  0  1  0  0  0  0  0  0  0  0  0
  -24.0542  -11.6152   20.9797 C   0  0  1  0  0  0  0  0  0  0  0  0
  -28.0785  -28.9105   20.8108 C   0  0  2  0  0  0  0  0  0  0  0  0
  -29.4200   -6.0391   20.6363 C   0  0  0  0  0  0  0  0  0  0  0  0
  -26.2717  -10.1542   24.7624 C   0  0  0  0  0  0  0  0  0  0  0  0
  -28.1300   -8.5250   24.3616 C   0  0  0  0  0  0  0  0  0  0  0  0
  -25.7573   -7.7852   24.1479 C   0  0  0  0  0  0  0  0  0  0  0  0
  -28.0908  -20.0886   18.4494 C   0  0  0  0  0  0  0  0  0  0  0  0
  -28.1160   -8.1190   17.7295 C   0  0  0  0  0  0  0  0  0  0  0  0
  -30.1525  -20.4637   19.7443 C   0  0  0  0  0  0  0  0  0  0  0  0
  -28.2355  -17.2404   18.8246 C   0  0  0  0  0  0  0  0  0  1  0  0
  -26.7504   -9.2913   22.3766 C   0  0  1  0  0  0  0  0  0  0  0  0
  -28.4454   -6.9580   19.9164 C   0  0  2  0  0  0  0  0  0  0  0  0
  -26.7247   -8.9622   23.8959 C   0  0  0  0  0  0  0  0  0  0  0  0
  -25.6502  -29.2819   21.0266 N   0  0  0  0  0  0  0  0  0  0  0  0
  -26.8831  -29.5574   21.4849 N   0  0  0  0  0  0  0  0  0  0  0  0
  -25.3585  -11.0364   21.3082 N   0  0  0  0  0  0  0  0  0  0  0  0
  -28.9373  -26.9236   19.6338 N   0  0  0  0  0  0  0  0  0  0  0  0
  -28.0541  -30.8026   23.1247 N   0  0  0  0  0  0  0  0  0  0  0  0
  -23.7290  -31.8160   23.9387 N   0  0  0  0  0  0  0  0  0  0  0  0
  -28.9947  -25.0746   21.0967 N   0  0  0  0  0  0  0  0  0  0  0  0
  -22.3858  -13.0224   22.0257 N   0  0  0  0  0  0  0  0  0  0  0  0
  -27.1496   -8.1726   21.5295 N   0  0  0  0  0  0  0  0  0  0  0  0
  -29.1873  -19.5052   19.2124 N   0  0  0  0  0  0  0  0  0  0  0  0
  -28.9857   -7.2441   18.5572 N   0  3  0  0  0  0  0  0  0  0  0  0
  -25.8894  -32.2057   24.6019 O   0  0  0  0  0  0  0  0  0  0  0  0
  -24.3986  -12.5770   23.1084 O   0  0  0  0  0  0  0  0  0  0  0  0
  -24.4365   -8.9927   21.9482 O   0  0  0  0  0  0  0  0  0  0  0  0
  -30.2231  -17.6080   20.0608 O   0  0  0  0  0  0  0  0  0  0  0  0
  -28.9649   -9.2312   20.5491 O   0  0  0  0  0  0  0  0  0  0  0  0
  -30.5666  -25.2996   19.4055 O   0  0  0  0  0  0  0  0  0  0  0  0
  -19.3122  -29.8857   21.1458 O   0  0  0  0  0  0  0  0  0  0  0  0
  -28.5113  -15.8779   19.1468 O   0  0  0  0  0  0  0  0  0  1  0  0
  -16.1913  -29.3550   25.6605 F   0  0  0  0  0  0  0  0  0  0  0  0
  -28.8620  -19.6243   22.1193 F   0  0  0  0  0  0  0  0  0  0  0  0
  -17.5979  -27.7369   21.4404 F   0  0  0  0  0  0  0  0  0  0  0  0
  1  2  1  0  0  0  0
  1  5  2  0  0  0  0
  2  6  2  0  0  0  0
  3  9  2  0  0  0  0
  3 18  1  0  0  0  0
  4 10  1  0  0  0  0
  4 18  2  0  0  0  0
  5 20  1  0  0  0  0
  6 22  1  0  0  0  0
  7 11  2  0  0  0  0
  7 21  1  0  0  0  0
  8 13  2  0  0  0  0
  8 25  1  0  0  0  0
  9 26  1  0  0  0  0
 10 26  2  0  0  0  0
 11 27  1  0  0  0  0
 12 14  2  0  0  0  0
 12 28  1  0  0  0  0
 13 30  1  0  0  0  0
 14 29  1  0  0  0  0
 15 23  1  0  0  0  0
 15 27  2  0  0  0  0
 16 24  1  0  0  0  0
 16 25  2  0  0  0  0
 17 29  2  0  0  0  0
 17 31  1  0  0  0  0
 18 32  1  0  0  0  0
 19 32  1  0  0  0  0
 19 33  2  0  0  0  0
 19 34  1  0  0  0  0
 20 22  2  0  0  0  0
 20 40  1  0  0  0  0
 21 23  2  0  0  0  0
 21 41  1  0  0  0  0
 22 49  1  0  0  0  0
 23 42  1  0  0  0  0
 24 30  2  0  0  0  0
 24 58  1  0  0  0  0
 25 69  1  0  0  0  0
 26 80  1  0  0  0  0
 27 81  1  0  0  0  0
 28 31  2  0  0  0  0
 28 80  1  0  0  0  0
 29 82  1  0  0  0  0
 30 83  1  0  0  0  0
 31 84  1  0  0  0  0
 32 63  2  0  0  0  0
 33 64  1  0  0  0  0
 33 67  1  0  0  0  0
 34 68  1  0  0  0  0
 34 74  2  0  0  0  0
 35 50  1  0  0  0  0
 35 70  1  0  0  0  0
 35 75  2  0  0  0  0
 36 60  1  0  0  0  0
 36 65  1  0  0  0  0
 36 76  2  0  0  0  0
 37 59  1  0  0  0  0
 37 72  1  0  0  0  0
 37 77  2  0  0  0  0
 38 61  1  0  0  0  0
 38 71  1  0  0  0  0
 38 78  2  0  0  0  0
 39 66  1  0  0  0  0
 39 69  1  0  0  0  0
 39 79  2  0  0  0  0
 40 43  1  0  0  0  0
 41 50  1  0  0  0  0
 42 65  1  0  0  0  0
 43 45  1  0  0  0  0
 44 46  1  0  0  0  0
 44 47  1  0  0  0  0
 45 49  1  0  0  0  0
 46 51  1  0  0  0  0
 47 66  1  0  0  0  0
 48 51  1  0  0  0  0
 48 66  1  0  0  0  0
 49 70  1  0  0  0  0
 50 65  1  0  0  0  0
 51 64  1  0  0  0  0
 52 61  1  0  0  0  0
 53 62  1  0  0  0  0
 54 62  1  0  0  0  0
 55 62  1  0  0  0  0
 56 72  1  0  0  0  0
 57 73  1  0  0  0  0
 58 72  1  0  0  0  0
 59 81  1  0  0  0  0
 60 62  1  0  0  0  0
 60 71  1  0  0  0  0
 61 73  1  0  0  0  0
 63 64  1  0  0  0  0
M  CHG  1  73   1
M  ISO  4  39 100  59 101  69 100  81 101
M  END
> <Batch ID>
0010

> <Smiles>
CNC(C)C(=O)NC(C(=O)N1Cc2cc([101O:1][101CH2:1]C(=O)N(C)Cc3cc([100NH:0][100C:0](=O)N4CCCC(n5nc(-c6ccc(Oc7ccc(F)cc7F)cc6)c(C(N)=O)c5N)C4)ccc3F)ccc2CC1C(=O)NC1CCCc2ccccc21)C(C)(C)C

> <Shape>
0.282

> <Color>
0.092

> <Negative vol penalty>
0.000

$$$$

  -OEChem-04042320403D

 81 89  0     1  0  0  0  0  0999 V2000
  -23.6146  -32.7404   26.6417 C   0  0  0  0  0  0  0  0  0  0  0  0
  -24.8879  -32.2906   26.3072 C   0  0  0  0  0  0  0  0  0  0  0  0
  -24.0433   -9.7225   21.7174 C   0  0  0  0  0  0  0  0  0  0  0  0
  -24.6463  -10.9946   23.6809 C   0  0  0  0  0  0  0  0  0  0  0  0
  -22.4922  -32.0271   26.2230 C   0  0  0  0  0  0  0  0  0  0  0  0
  -25.0395  -31.1265   25.5547 C   0  0  0  0  0  0  0  0  0  0  0  0
  -29.3143  -28.1906   20.6127 C   0  0  0  0  0  0  0  0  0  0  0  0
  -30.7820  -18.9585   20.2106 C   0  0  0  0  0  0  0  0  0  0  0  0
  -23.6164   -8.6717   22.5293 C   0  0  0  0  0  0  0  0  0  0  0  0
  -24.2193   -9.9438   24.4928 C   0  0  0  0  0  0  0  0  0  0  0  0
  -30.0451  -27.0275   20.3746 C   0  0  0  0  0  0  0  0  0  0  0  0
  -31.0681  -20.2797   20.5541 C   0  0  0  0  0  0  0  0  0  0  0  0
  -20.9059   -7.9145   24.4036 C   0  0  0  0  0  0  0  0  0  0  0  0
  -19.6862   -7.3118   24.0959 C   0  0  0  0  0  0  0  0  0  0  0  0
  -28.0319  -25.9204   19.6392 C   0  0  0  0  0  0  0  0  0  0  0  0
  -28.7097  -20.7140   20.8479 C   0  0  0  0  0  0  0  0  0  0  0  0
  -20.8098   -5.1954   23.7874 C   0  0  0  0  0  0  0  0  0  0  0  0
  -24.5583  -10.8839   22.2932 C   0  0  0  0  0  0  0  0  0  0  0  0
  -24.2298  -13.0524   20.9902 C   0  0  0  0  0  0  0  0  0  0  0  0
  -22.6299  -30.8589   25.4568 C   0  0  0  0  0  0  0  0  0  0  0  0
  -27.9326  -28.2242   20.3757 C   0  0  0  0  0  0  0  0  0  0  0  0
  -23.9180  -30.3961   25.1265 C   0  0  0  0  0  0  0  0  0  0  0  0
  -27.2863  -27.0860   19.8726 C   0  0  0  0  0  0  0  0  0  0  0  0
  -29.4598  -18.5150   20.1855 C   0  0  0  0  0  0  0  0  0  0  0  0
  -23.7044   -8.7823   23.9170 C   0  0  0  0  0  0  0  0  0  0  0  0
  -29.4035  -25.8912   19.8905 C   0  0  0  0  0  0  0  0  0  0  0  0
  -30.0320  -21.1575   20.8728 C   0  0  0  0  0  0  0  0  0  0  0  0
  -22.0776   -7.1576   24.4031 C   0  0  0  0  0  0  0  0  0  0  0  0
  -19.6381   -5.9523   23.7878 C   0  0  0  0  0  0  0  0  0  0  0  0
  -28.4236  -19.3928   20.5042 C   0  0  0  0  0  0  0  0  0  0  0  0
  -22.0296   -5.7981   24.0950 C   0  0  0  0  0  0  0  0  0  0  0  0
  -25.0000  -11.9695   21.4550 C   0  0  0  0  0  0  0  0  0  0  0  0
  -25.1046  -13.7986   20.2391 C   0  0  0  0  0  0  0  0  0  0  0  0
  -22.8471  -13.3565   21.2173 C   0  0  0  0  0  0  0  0  0  0  0  0
  -25.3581  -28.6945   22.1797 C   0  0  0  0  0  0  0  0  0  0  0  0
  -23.8210  -28.6090   19.3245 C   0  0  0  0  0  0  0  0  0  0  0  0
  -23.8043  -27.5722   16.0731 C   0  0  0  0  0  0  0  0  0  0  0  0
  -30.0847  -16.1747   19.4935 C   0  0  0  0  0  0  0  0  0  0  0  0
  -21.3887  -30.0957   25.0674 C   0  0  0  0  0  0  0  0  0  0  0  0
  -27.1632  -29.4948   20.6123 C   0  0  0  0  0  0  0  0  0  0  0  0
  -25.8084  -27.0763   19.5826 C   0  0  0  0  0  0  0  0  0  0  0  0
  -21.6240  -29.0770   23.9551 C   0  0  0  0  0  0  0  0  0  0  0  0
  -29.7777  -12.7400   18.6070 C   0  0  0  0  0  0  0  0  0  0  0  0
  -22.8783  -28.2567   24.2391 C   0  0  0  0  0  0  0  0  0  0  0  0
  -28.4440  -12.3225   19.2307 C   0  0  0  0  0  0  0  0  0  0  0  0
  -30.5323  -13.7304   19.4921 C   0  0  0  0  0  0  0  0  0  0  0  0
  -28.4284  -14.4960   20.5202 C   0  0  0  0  0  0  0  0  0  0  0  0
  -24.1226  -29.1513   24.2906 C   0  0  1  0  0  0  0  0  0  0  0  0
  -25.6707  -29.2593   20.8229 C   0  0  1  0  0  0  0  0  0  0  0  0
  -27.6023  -13.5488   19.6347 C   0  0  2  0  0  0  0  0  0  0  0  0
  -22.3954  -27.6215   13.9970 C   0  0  0  0  0  0  0  0  0  0  0  0
  -22.0091  -26.4570   20.5059 C   0  0  0  0  0  0  0  0  0  0  0  0
  -21.2863  -25.8860   18.1779 C   0  0  0  0  0  0  0  0  0  0  0  0
  -20.8302  -28.1578   19.1017 C   0  0  0  0  0  0  0  0  0  0  0  0
  -25.8768  -29.0487   14.5620 C   0  0  0  0  0  0  0  0  0  0  0  0
  -31.2612  -24.5267   20.4758 C   0  0  0  0  0  0  0  0  0  1  0  0
  -31.4737  -23.0327   20.6261 C   0  0  0  0  0  0  0  0  0  0  0  0
  -23.1974  -27.5257   18.4781 C   0  0  1  0  0  0  0  0  0  0  0  0
  -23.5008  -28.3106   14.7819 C   0  0  2  0  0  0  0  0  0  0  0  0
  -21.8583  -27.0059   19.0731 C   0  0  0  0  0  0  0  0  0  0  0  0
  -26.2666  -12.0195   21.0342 N   0  0  0  0  0  0  0  0  0  0  0  0
  -26.2990  -13.1428   20.2971 N   0  0  0  0  0  0  0  0  0  0  0  0
  -25.0986  -28.3411   19.8361 N   0  0  0  0  0  0  0  0  0  0  0  0
  -29.6740  -14.8677   19.8310 N   0  0  0  0  0  0  0  0  0  0  0  0
  -24.9610  -14.9452   19.5412 N   0  0  0  0  0  0  0  0  0  0  0  0
  -22.0930  -12.4837   22.0134 N   0  0  0  0  0  0  0  0  0  0  0  0
  -29.1724  -17.1722   19.8360 N   0  0  0  0  0  0  0  0  0  0  0  0
  -24.5475  -29.5037   22.9528 N   0  0  0  0  0  0  0  0  0  0  0  0
  -23.0794  -28.0763   17.1322 N   0  0  0  0  0  0  0  0  0  0  0  0
  -24.7173  -28.3743   13.9234 N   0  3  0  0  0  0  0  0  0  0  0  0
  -22.2926  -14.3634   20.7151 O   0  0  0  0  0  0  0  0  0  0  0  0
  -25.8170  -27.6046   22.5009 O   0  0  0  0  0  0  0  0  0  0  0  0
  -23.2006  -29.6574   19.5185 O   0  0  0  0  0  0  0  0  0  0  0  0
  -24.6016  -26.6390   16.1351 O   0  0  0  0  0  0  0  0  0  0  0  0
  -31.1537  -16.3905   18.9167 O   0  0  0  0  0  0  0  0  0  0  0  0
  -23.2877   -7.7573   24.7095 O   0  0  0  0  0  0  0  0  0  0  0  0
  -30.1143  -24.7543   19.6579 O   0  0  0  0  0  0  0  0  0  1  0  0
  -30.3131  -22.4549   21.2114 O   0  0  0  0  0  0  0  0  0  0  0  0
  -18.4666   -5.3733   23.4939 F   0  0  0  0  0  0  0  0  0  0  0  0
  -27.1490  -18.9774   20.4830 F   0  0  0  0  0  0  0  0  0  0  0  0
  -23.1517   -5.0655   24.0941 F   0  0  0  0  0  0  0  0  0  0  0  0
  1  2  1  0  0  0  0
  1  5  2  0  0  0  0
  2  6  2  0  0  0  0
  3  9  2  0  0  0  0
  3 18  1  0  0  0  0
  4 10  1  0  0  0  0
  4 18  2  0  0  0  0
  5 20  1  0  0  0  0
  6 22  1  0  0  0  0
  7 11  2  0  0  0  0
  7 21  1  0  0  0  0
  8 12  2  0  0  0  0
  8 24  1  0  0  0  0
  9 25  1  0  0  0  0
 10 25  2  0  0  0  0
 11 26  1  0  0  0  0
 12 27  1  0  0  0  0
 13 14  2  0  0  0  0
 13 28  1  0  0  0  0
 14 29  1  0  0  0  0
 15 23  1  0  0  0  0
 15 26  2  0  0  0  0
 16 27  2  0  0  0  0
 16 30  1  0  0  0  0
 17 29  2  0  0  0  0
 17 31  1  0  0  0  0
 18 32  1  0  0  0  0
 19 32  1  0  0  0  0
 19 33  2  0  0  0  0
 19 34  1  0  0  0  0
 20 22  2  0  0  0  0
 20 39  1  0  0  0  0
 21 23  2  0  0  0  0
 21 40  1  0  0  0  0
 22 48  1  0  0  0  0
 23 41  1  0  0  0  0
 24 30  2  0  0  0  0
 24 67  1  0  0  0  0
 25 76  1  0  0  0  0
 26 77  1  0  0  0  0
 27 78  1  0  0  0  0
 28 31  2  0  0  0  0
 28 76  1  0  0  0  0
 29 79  1  0  0  0  0
 30 80  1  0  0  0  0
 31 81  1  0  0  0  0
 32 61  2  0  0  0  0
 33 62  1  0  0  0  0
 33 65  1  0  0  0  0
 34 66  1  0  0  0  0
 34 71  2  0  0  0  0
 35 49  1  0  0  0  0
 35 68  1  0  0  0  0
 35 72  2  0  0  0  0
 36 58  1  0  0  0  0
 36 63  1  0  0  0  0
 36 73  2  0  0  0  0
 37 59  1  0  0  0  0
 37 69  1  0  0  0  0
 37 74  2  0  0  0  0
 38 64  1  0  0  0  0
 38 67  1  0  0  0  0
 38 75  2  0  0  0  0
 39 42  1  0  0  0  0
 40 49  1  0  0  0  0
 41 63  1  0  0  0  0
 42 44  1  0  0  0  0
 43 45  1  0  0  0  0
 43 46  1  0  0  0  0
 44 48  1  0  0  0  0
 45 50  1  0  0  0  0
 46 64  1  0  0  0  0
 47 50  1  0  0  0  0
 47 64  1  0  0  0  0
 48 68  1  0  0  0  0
 49 63  1  0  0  0  0
 50 62  1  0  0  0  0
 51 59  1  0  0  0  0
 52 60  1  0  0  0  0
 53 60  1  0  0  0  0
 54 60  1  0  0  0  0
 55 70  1  0  0  0  0
 56 57  1  0  0  0  0
 56 77  1  0  0  0  0
 57 78  1  0  0  0  0
 58 60  1  0  0  0  0
 58 69  1  0  0  0  0
 59 70  1  0  0  0  0
 61 62  1  0  0  0  0
M  CHG  1  70   1
M  ISO  4  38 100  56 101  67 100  77 101
M  END
> <Batch ID>
0010

> <Smiles>
CNC(C)C(=O)NC(C(=O)N1Cc2cc([101O:1][101CH2:1]COc3ccc([100NH:0][100C:0](=O)N4CCCC(n5nc(-c6ccc(Oc7ccc(F)cc7F)cc6)c(C(N)=O)c5N)C4)c(F)c3)ccc2CC1C(=O)NC1CCCc2ccccc21)C(C)(C)C

> <Shape>
0.293

> <Color>
0.123

> <Negative vol penalty>
0.000

$$$$

  -OEChem-04042320403D

 82 90  0     1  0  0  0  0  0999 V2000
  -25.2393  -30.3265   22.9906 C   0  0  0  0  0  0  0  0  0  0  0  0
  -24.9550  -29.0792   23.5372 C   0  0  0  0  0  0  0  0  0  0  0  0
  -20.1823  -22.6979   22.3022 C   0  0  0  0  0  0  0  0  0  0  0  0
  -22.5855  -22.4698   22.2035 C   0  0  0  0  0  0  0  0  0  0  0  0
  -25.6096  -30.4310   21.6505 C   0  0  0  0  0  0  0  0  0  0  0  0
  -25.0398  -27.9357   22.7437 C   0  0  0  0  0  0  0  0  0  0  0  0
  -26.7062  -20.9797   23.1350 C   0  0  0  0  0  0  0  0  0  0  0  0
  -20.3257  -23.9948   22.7954 C   0  0  0  0  0  0  0  0  0  0  0  0
  -22.7289  -23.7667   22.6966 C   0  0  0  0  0  0  0  0  0  0  0  0
  -26.1852  -19.7275   22.8119 C   0  0  0  0  0  0  0  0  0  0  0  0
  -20.0571  -27.4950   23.7396 C   0  0  0  0  0  0  0  0  0  0  0  0
  -19.2501  -28.4908   23.1896 C   0  0  0  0  0  0  0  0  0  0  0  0
  -26.9117  -20.0206   20.5304 C   0  0  0  0  0  0  0  0  0  0  0  0
  -24.0154  -12.2900   21.3739 C   0  0  0  0  0  0  0  0  0  0  0  0
  -20.2069  -28.0640   21.0126 C   0  0  0  0  0  0  0  0  0  0  0  0
  -25.6348  -11.7886   19.6525 C   0  0  0  0  0  0  0  0  0  0  0  0
  -21.3122  -21.9354   22.0063 C   0  0  0  0  0  0  0  0  0  0  0  0
  -21.0724  -20.2039   20.1484 C   0  0  0  0  0  0  0  0  0  0  0  0
  -25.7083  -29.2872   20.8426 C   0  0  0  0  0  0  0  0  0  0  0  0
  -27.3252  -21.7677   22.1541 C   0  0  0  0  0  0  0  0  0  0  0  0
  -25.4104  -28.0251   21.3911 C   0  0  0  0  0  0  0  0  0  0  0  0
  -27.4420  -21.2813   20.8442 C   0  0  0  0  0  0  0  0  0  0  0  0
  -24.4550  -13.6134   21.4021 C   0  0  0  0  0  0  0  0  0  0  0  0
  -21.5989  -24.5292   22.9925 C   0  0  0  0  0  0  0  0  0  0  0  0
  -26.2853  -19.2490   21.5088 C   0  0  0  0  0  0  0  0  0  0  0  0
  -20.9392  -26.7836   22.9261 C   0  0  0  0  0  0  0  0  0  0  0  0
  -25.4844  -14.0245   20.5555 C   0  0  0  0  0  0  0  0  0  0  0  0
  -19.3249  -28.7753   21.8261 C   0  0  0  0  0  0  0  0  0  0  0  0
  -21.0140  -27.0681   21.5626 C   0  0  0  0  0  0  0  0  0  0  0  0
  -26.0744  -13.1121   19.6806 C   0  0  0  0  0  0  0  0  0  0  0  0
  -24.6053  -11.3775   20.4992 C   0  0  0  0  0  0  0  0  0  0  0  0
  -21.1648  -20.5955   21.4974 C   0  0  0  0  0  0  0  0  0  0  0  0
  -20.9454  -18.8371   20.1955 C   0  0  0  0  0  0  0  0  0  0  0  0
  -21.0990  -21.0041   18.9590 C   0  0  0  0  0  0  0  0  0  0  0  0
  -26.7488  -24.6200   20.8751 C   0  0  0  0  0  0  0  0  0  0  0  0
  -29.5866  -24.0964   19.3934 C   0  0  0  0  0  0  0  0  0  0  0  0
  -31.9004  -21.8505   18.2758 C   0  0  0  0  0  0  0  0  0  0  0  0
  -22.8137  -14.2697   23.1970 C   0  0  0  0  0  0  0  0  0  0  0  0
  -26.0664  -29.4551   19.3872 C   0  0  0  0  0  0  0  0  0  0  0  0
  -27.9059  -23.1048   22.5248 C   0  0  0  0  0  0  0  0  0  0  0  0
  -28.1153  -22.0796   19.7589 C   0  0  0  0  0  0  0  0  0  0  0  0
  -26.4964  -28.1553   18.7119 C   0  0  0  0  0  0  0  0  0  0  0  0
  -19.5360  -15.5852   23.6484 C   0  0  0  0  0  0  0  0  0  0  0  0
  -25.5294  -27.0279   19.0594 C   0  0  0  0  0  0  0  0  0  0  0  0
  -19.6111  -16.9732   23.0082 C   0  0  0  0  0  0  0  0  0  0  0  0
  -20.8355  -15.2193   24.3633 C   0  0  0  0  0  0  0  0  0  0  0  0
  -22.1246  -16.7306   22.9062 C   0  0  0  0  0  0  0  0  0  0  0  0
  -25.5152  -26.7590   20.5690 C   0  0  1  0  0  0  0  0  0  0  0  0
  -28.0587  -24.0416   21.3305 C   0  0  1  0  0  0  0  0  0  0  0  0
  -20.8618  -17.1167   22.1189 C   0  0  2  0  0  0  0  0  0  0  0  0
  -34.0976  -21.7206   17.0704 C   0  0  0  0  0  0  0  0  0  0  0  0
  -28.1667  -24.6520   16.7505 C   0  0  0  0  0  0  0  0  0  0  0  0
  -30.1059  -23.5993   15.5675 C   0  0  0  0  0  0  0  0  0  0  0  0
  -30.4502  -25.6544   16.9389 C   0  0  0  0  0  0  0  0  0  0  0  0
  -33.2282  -20.5748   20.5928 C   0  0  0  0  0  0  0  0  0  0  0  0
  -25.9146  -17.5994   19.8363 C   0  0  0  0  0  0  0  0  0  1  0  0
  -25.2852  -16.2283   19.6839 C   0  0  0  0  0  0  0  0  0  0  0  0
  -30.0127  -23.4502   18.0973 C   0  0  1  0  0  0  0  0  0  0  0  0
  -33.4104  -21.8014   18.4246 C   0  0  2  0  0  0  0  0  0  0  0  0
  -29.6694  -24.3245   16.8583 C   0  0  0  0  0  0  0  0  0  0  0  0
  -21.1017  -19.5611   22.3401 N   0  0  0  0  0  0  0  0  0  0  0  0
  -20.9683  -18.5060   21.5184 N   0  0  0  0  0  0  0  0  0  0  0  0
  -28.6616  -23.3837   20.1695 N   0  0  0  0  0  0  0  0  0  0  0  0
  -21.9764  -15.3749   23.4583 N   0  0  0  0  0  0  0  0  0  0  0  0
  -20.8175  -17.8982   19.2340 N   0  0  0  0  0  0  0  0  0  0  0  0
  -21.2355  -22.3927   19.0908 N   0  0  0  0  0  0  0  0  0  0  0  0
  -23.8460  -14.5287   22.2961 N   0  0  0  0  0  0  0  0  0  0  0  0
  -26.6831  -25.9978   20.9577 N   0  0  0  0  0  0  0  0  0  0  0  0
  -31.4326  -23.1471   18.2398 N   0  0  0  0  0  0  0  0  0  0  0  0
  -33.8133  -20.6125   19.2278 N   0  3  0  0  0  0  0  0  0  0  0  0
  -20.9881  -20.5041   17.8139 O   0  0  0  0  0  0  0  0  0  0  0  0
  -25.8639  -23.8717   20.4767 O   0  0  0  0  0  0  0  0  0  0  0  0
  -30.0625  -25.1897   19.7092 O   0  0  0  0  0  0  0  0  0  0  0  0
  -31.2058  -20.8398   18.1955 O   0  0  0  0  0  0  0  0  0  0  0  0
  -22.6122  -13.1669   23.7120 O   0  0  0  0  0  0  0  0  0  0  0  0
  -21.7392  -25.7947   23.4735 O   0  0  0  0  0  0  0  0  0  0  0  0
  -25.7771  -18.0274   21.1906 O   0  0  0  0  0  0  0  0  0  1  0  0
  -25.9301  -15.3200   20.5685 O   0  0  0  0  0  0  0  0  0  0  0  0
  -18.5487  -29.7306   21.2978 F   0  0  0  0  0  0  0  0  0  0  0  0
  -21.8586  -26.3873   20.7759 F   0  0  0  0  0  0  0  0  0  0  0  0
  -27.0639  -13.5006   18.8646 F   0  0  0  0  0  0  0  0  0  0  0  0
  -24.0636   -9.7445   20.4639 Cl  0  0  0  0  0  0  0  0  0  0  0  0
  1  2  1  0  0  0  0
  1  5  2  0  0  0  0
  2  6  2  0  0  0  0
  3  8  2  0  0  0  0
  3 17  1  0  0  0  0
  4  9  1  0  0  0  0
  4 17  2  0  0  0  0
  5 19  1  0  0  0  0
  6 21  1  0  0  0  0
  7 10  2  0  0  0  0
  7 20  1  0  0  0  0
  8 24  1  0  0  0  0
  9 24  2  0  0  0  0
 10 25  1  0  0  0  0
 11 12  2  0  0  0  0
 11 26  1  0  0  0  0
 12 28  1  0  0  0  0
 13 22  1  0  0  0  0
 13 25  2  0  0  0  0
 14 23  1  0  0  0  0
 14 31  2  0  0  0  0
 15 28  2  0  0  0  0
 15 29  1  0  0  0  0
 16 30  2  0  0  0  0
 16 31  1  0  0  0  0
 17 32  1  0  0  0  0
 18 32  1  0  0  0  0
 18 33  2  0  0  0  0
 18 34  1  0  0  0  0
 19 21  2  0  0  0  0
 19 39  1  0  0  0  0
 20 22  2  0  0  0  0
 20 40  1  0  0  0  0
 21 48  1  0  0  0  0
 22 41  1  0  0  0  0
 23 27  2  0  0  0  0
 23 67  1  0  0  0  0
 24 76  1  0  0  0  0
 25 77  1  0  0  0  0
 26 29  2  0  0  0  0
 26 76  1  0  0  0  0
 27 30  1  0  0  0  0
 27 78  1  0  0  0  0
 28 79  1  0  0  0  0
 29 80  1  0  0  0  0
 30 81  1  0  0  0  0
 31 82  1  0  0  0  0
 32 61  2  0  0  0  0
 33 62  1  0  0  0  0
 33 65  1  0  0  0  0
 34 66  1  0  0  0  0
 34 71  2  0  0  0  0
 35 49  1  0  0  0  0
 35 68  1  0  0  0  0
 35 72  2  0  0  0  0
 36 58  1  0  0  0  0
 36 63  1  0  0  0  0
 36 73  2  0  0  0  0
 37 59  1  0  0  0  0
 37 69  1  0  0  0  0
 37 74  2  0  0  0  0
 38 64  1  0  0  0  0
 38 67  1  0  0  0  0
 38 75  2  0  0  0  0
 39 42  1  0  0  0  0
 40 49  1  0  0  0  0
 41 63  1  0  0  0  0
 42 44  1  0  0  0  0
 43 45  1  0  0  0  0
 43 46  1  0  0  0  0
 44 48  1  0  0  0  0
 45 50  1  0  0  0  0
 46 64  1  0  0  0  0
 47 50  1  0  0  0  0
 47 64  1  0  0  0  0
 48 68  1  0  0  0  0
 49 63  1  0  0  0  0
 50 62  1  0  0  0  0
 51 59  1  0  0  0  0
 52 60  1  0  0  0  0
 53 60  1  0  0  0  0
 54 60  1  0  0  0  0
 55 70  1  0  0  0  0
 56 57  1  0  0  0  0
 56 77  1  0  0  0  0
 57 78  1  0  0  0  0
 58 60  1  0  0  0  0
 58 69  1  0  0  0  0
 59 70  1  0  0  0  0
 61 62  1  0  0  0  0
M  CHG  1  70   1
M  ISO  4  38 100  56 101  67 100  77 101
M  END
> <Batch ID>
0010

> <Smiles>
CNC(C)C(=O)NC(C(=O)N1Cc2cc([101O:1][101CH2:1]COc3c(F)cc(Cl)cc3[100NH:0][100C:0](=O)N3CCCC(n4nc(-c5ccc(Oc6ccc(F)cc6F)cc5)c(C(N)=O)c4N)C3)ccc2CC1C(=O)NC1CCCc2ccccc21)C(C)(C)C

> <Shape>
0.184

> <Color>
0.073

> <Negative vol penalty>
0.000

$$$$

  -OEChem-04042320403D

 83 91  0     1  0  0  0  0  0999 V2000
  -30.8366  -24.7640   18.2704 C   0  0  0  0  0  0  0  0  0  0  0  0
  -29.4550  -24.6631   18.3982 C   0  0  0  0  0  0  0  0  0  0  0  0
  -26.3035  -12.8957   19.7361 C   0  0  0  0  0  0  0  0  0  0  0  0
  -24.1278  -13.5653   20.5454 C   0  0  0  0  0  0  0  0  0  0  0  0
  -31.5751  -25.4593   19.2270 C   0  0  0  0  0  0  0  0  0  0  0  0
  -28.8111  -25.2566   19.4834 C   0  0  0  0  0  0  0  0  0  0  0  0
  -23.2558  -27.8341   19.5084 C   0  0  0  0  0  0  0  0  0  0  0  0
  -26.3592  -11.8991   20.7103 C   0  0  0  0  0  0  0  0  0  0  0  0
  -24.1835  -12.5686   21.5197 C   0  0  0  0  0  0  0  0  0  0  0  0
  -22.0052  -27.3635   19.9065 C   0  0  0  0  0  0  0  0  0  0  0  0
  -27.0269  -11.6832   24.0167 C   0  0  0  0  0  0  0  0  0  0  0  0
  -28.2174  -11.5404   24.7293 C   0  0  0  0  0  0  0  0  0  0  0  0
  -22.3021  -28.4129   22.0582 C   0  0  0  0  0  0  0  0  0  0  0  0
  -23.6339  -23.0176   20.9699 C   0  0  0  0  0  0  0  0  0  0  0  0
  -21.0641  -22.1328   21.5993 C   0  0  0  0  0  0  0  0  0  0  0  0
  -28.4241   -9.2701   23.9292 C   0  0  0  0  0  0  0  0  0  0  0  0
  -25.1878  -13.7289   19.6536 C   0  0  0  0  0  0  0  0  0  0  0  0
  -24.6100  -14.6461   17.3444 C   0  0  0  0  0  0  0  0  0  0  0  0
  -30.9389  -26.0698   20.3194 C   0  0  0  0  0  0  0  0  0  0  0  0
  -24.0449  -28.5896   20.3875 C   0  0  0  0  0  0  0  0  0  0  0  0
  -29.5419  -25.9596   20.4563 C   0  0  0  0  0  0  0  0  0  0  0  0
  -23.5612  -28.8940   21.6679 C   0  0  0  0  0  0  0  0  0  0  0  0
  -23.1560  -21.8232   20.4308 C   0  0  0  0  0  0  0  0  0  0  0  0
  -25.2993  -11.7355   21.6021 C   0  0  0  0  0  0  0  0  0  0  0  0
  -21.5294  -27.6505   21.1825 C   0  0  0  0  0  0  0  0  0  0  0  0
  -26.5349  -10.6194   23.2604 C   0  0  0  0  0  0  0  0  0  0  0  0
  -21.5421  -23.3272   22.1385 C   0  0  0  0  0  0  0  0  0  0  0  0
  -28.9161  -10.3339   24.6856 C   0  0  0  0  0  0  0  0  0  0  0  0
  -22.8269  -23.7696   21.8238 C   0  0  0  0  0  0  0  0  0  0  0  0
  -21.8711  -21.3808   20.7455 C   0  0  0  0  0  0  0  0  0  0  0  0
  -27.2335   -9.4129   23.2166 C   0  0  0  0  0  0  0  0  0  0  0  0
  -25.1299  -14.7589   18.6478 C   0  0  0  0  0  0  0  0  0  0  0  0
  -24.7881  -15.8921   16.7947 C   0  0  0  0  0  0  0  0  0  0  0  0
  -24.0190  -13.5160   16.6892 C   0  0  0  0  0  0  0  0  0  0  0  0
  -26.9010  -28.2084   21.7295 C   0  0  0  0  0  0  0  0  0  0  0  0
  -26.3757  -31.2299   22.7862 C   0  0  0  0  0  0  0  0  0  0  0  0
  -24.1282  -33.6779   23.5628 C   0  0  0  0  0  0  0  0  0  0  0  0
  -25.2761  -21.3616   19.1508 C   0  0  0  0  0  0  0  0  0  0  0  0
  -31.7845  -26.7705   21.3532 C   0  0  0  0  0  0  0  0  0  0  0  0
  -25.3802  -29.1124   19.9334 C   0  0  0  0  0  0  0  0  0  0  0  0
  -24.3607  -29.7184   22.6424 C   0  0  0  0  0  0  0  0  0  0  0  0
  -30.9847  -27.6894   22.2731 C   0  0  0  0  0  0  0  0  0  0  0  0
  -27.6451  -19.7267   17.0552 C   0  0  0  0  0  0  0  0  0  0  0  0
  -29.7283  -26.9831   22.7722 C   0  0  0  0  0  0  0  0  0  0  0  0
  -27.2180  -18.2578   17.1023 C   0  0  0  0  0  0  0  0  0  0  0  0
  -27.4499  -20.4176   18.4036 C   0  0  0  0  0  0  0  0  0  0  0  0
  -25.6762  -18.8241   19.0230 C   0  0  0  0  0  0  0  0  0  0  0  0
  -28.8045  -26.6108   21.6061 C   0  0  1  0  0  0  0  0  0  0  0  0
  -26.3194  -29.4378   21.0908 C   0  0  1  0  0  0  0  0  0  0  0  0
  -25.7935  -18.1031   17.6702 C   0  0  2  0  0  0  0  0  0  0  0  0
  -23.9972  -36.0262   24.4379 C   0  0  0  0  0  0  0  0  0  0  0  0
  -26.9397  -30.2082   25.6054 C   0  0  0  0  0  0  0  0  0  0  0  0
  -25.8862  -32.2967   26.4980 C   0  0  0  0  0  0  0  0  0  0  0  0
  -27.9377  -32.4418   25.0862 C   0  0  0  0  0  0  0  0  0  0  0  0
  -22.8452  -34.6547   21.0811 C   0  0  0  0  0  0  0  0  0  0  0  0
  -19.1023  -25.8159   23.1459 C   0  0  0  0  0  0  0  0  0  0  0  0
  -20.1334  -26.9185   22.9634 C   0  0  0  0  0  0  0  0  0  1  0  0
  -19.5139  -24.5305   22.4455 C   0  0  0  0  0  0  0  0  0  0  0  0
  -25.7316  -31.8382   24.0086 C   0  0  1  0  0  0  0  0  0  0  0  0
  -24.0762  -35.1504   23.1972 C   0  0  2  0  0  0  0  0  0  0  0  0
  -26.6093  -31.6790   25.2821 C   0  0  0  0  0  0  0  0  0  0  0  0
  -25.6028  -15.9801   18.9104 N   0  0  0  0  0  0  0  0  0  0  0  0
  -25.3809  -16.6461   17.7643 N   0  0  0  0  0  0  0  0  0  0  0  0
  -25.6629  -30.2014   22.1539 N   0  0  0  0  0  0  0  0  0  0  0  0
  -26.0765  -20.2323   18.8771 N   0  0  0  0  0  0  0  0  0  0  0  0
  -24.4938  -16.4054   15.5813 N   0  0  0  0  0  0  0  0  0  0  0  0
  -23.9133  -12.3121   17.3989 N   0  0  0  0  0  0  0  0  0  0  0  0
  -23.9782  -21.0621   19.5634 N   0  0  0  0  0  0  0  0  0  0  0  0
  -28.0764  -27.7742   21.1470 N   0  0  0  0  0  0  0  0  0  0  0  0
  -25.4257  -33.2221   23.6629 N   0  0  0  0  0  0  0  0  0  0  0  0
  -22.8848  -35.4312   22.3470 N   0  3  0  0  0  0  0  0  0  0  0  0
  -23.6120  -13.5676   15.5038 O   0  0  0  0  0  0  0  0  0  0  0  0
  -26.3267  -27.6928   22.6814 O   0  0  0  0  0  0  0  0  0  0  0  0
  -27.4675  -31.6567   22.4023 O   0  0  0  0  0  0  0  0  0  0  0  0
  -23.1189  -33.0008   23.7452 O   0  0  0  0  0  0  0  0  0  0  0  0
  -25.7016  -22.5100   19.0022 O   0  0  0  0  0  0  0  0  0  0  0  0
  -25.3532  -10.7629   22.5528 O   0  0  0  0  0  0  0  0  0  0  0  0
  -20.3094  -27.1919   21.5739 O   0  0  0  0  0  0  0  0  0  1  0  0
  -20.7475  -24.0656   22.9764 O   0  0  0  0  0  0  0  0  0  0  0  0
  -30.0601  -10.1975   25.3687 F   0  0  0  0  0  0  0  0  0  0  0  0
  -23.2910  -24.9163   22.3386 F   0  0  0  0  0  0  0  0  0  0  0  0
  -21.4019  -20.2339   20.2334 F   0  0  0  0  0  0  0  0  0  0  0  0
  -26.7665   -8.3877   22.4908 F   0  0  0  0  0  0  0  0  0  0  0  0
  1  2  1  0  0  0  0
  1  5  2  0  0  0  0
  2  6  2  0  0  0  0
  3  8  2  0  0  0  0
  3 17  1  0  0  0  0
  4  9  1  0  0  0  0
  4 17  2  0  0  0  0
  5 19  1  0  0  0  0
  6 21  1  0  0  0  0
  7 10  2  0  0  0  0
  7 20  1  0  0  0  0
  8 24  1  0  0  0  0
  9 24  2  0  0  0  0
 10 25  1  0  0  0  0
 11 12  2  0  0  0  0
 11 26  1  0  0  0  0
 12 28  1  0  0  0  0
 13 22  1  0  0  0  0
 13 25  2  0  0  0  0
 14 23  2  0  0  0  0
 14 29  1  0  0  0  0
 15 27  1  0  0  0  0
 15 30  2  0  0  0  0
 16 28  2  0  0  0  0
 16 31  1  0  0  0  0
 17 32  1  0  0  0  0
 18 32  1  0  0  0  0
 18 33  2  0  0  0  0
 18 34  1  0  0  0  0
 19 21  2  0  0  0  0
 19 39  1  0  0  0  0
 20 22  2  0  0  0  0
 20 40  1  0  0  0  0
 21 48  1  0  0  0  0
 22 41  1  0  0  0  0
 23 30  1  0  0  0  0
 23 68  1  0  0  0  0
 24 77  1  0  0  0  0
 25 78  1  0  0  0  0
 26 31  2  0  0  0  0
 26 77  1  0  0  0  0
 27 29  2  0  0  0  0
 27 79  1  0  0  0  0
 28 80  1  0  0  0  0
 29 81  1  0  0  0  0
 30 82  1  0  0  0  0
 31 83  1  0  0  0  0
 32 62  2  0  0  0  0
 33 63  1  0  0  0  0
 33 66  1  0  0  0  0
 34 67  1  0  0  0  0
 34 72  2  0  0  0  0
 35 49  1  0  0  0  0
 35 69  1  0  0  0  0
 35 73  2  0  0  0  0
 36 59  1  0  0  0  0
 36 64  1  0  0  0  0
 36 74  2  0  0  0  0
 37 60  1  0  0  0  0
 37 70  1  0  0  0  0
 37 75  2  0  0  0  0
 38 65  1  0  0  0  0
 38 68  1  0  0  0  0
 38 76  2  0  0  0  0
 39 42  1  0  0  0  0
 40 49  1  0  0  0  0
 41 64  1  0  0  0  0
 42 44  1  0  0  0  0
 43 45  1  0  0  0  0
 43 46  1  0  0  0  0
 44 48  1  0  0  0  0
 45 50  1  0  0  0  0
 46 65  1  0  0  0  0
 47 50  1  0  0  0  0
 47 65  1  0  0  0  0
 48 69  1  0  0  0  0
 49 64  1  0  0  0  0
 50 63  1  0  0  0  0
 51 60  1  0  0  0  0
 52 61  1  0  0  0  0
 53 61  1  0  0  0  0
 54 61  1  0  0  0  0
 55 71  1  0  0  0  0
 56 57  1  0  0  0  0
 56 58  1  0  0  0  0
 57 78  1  0  0  0  0
 58 79  1  0  0  0  0
 59 61  1  0  0  0  0
 59 70  1  0  0  0  0
 60 71  1  0  0  0  0
 62 63  1  0  0  0  0
M  CHG  1  71   1
M  ISO  4  38 100  57 101  68 100  78 101
M  END
> <Batch ID>
0010

> <Smiles>
CNC(C)C(=O)NC(C(=O)N1Cc2cc([101O:1][101CH2:1]CCOc3cc(F)c([100NH:0][100C:0](=O)N4CCCC(n5nc(-c6ccc(Oc7ccc(F)cc7F)cc6)c(C(N)=O)c5N)C4)cc3F)ccc2CC1C(=O)NC1CCCc2ccccc21)C(C)(C)C

> <Shape>
0.219

> <Color>
0.063

> <Negative vol penalty>
0.000

$$$$

  -OEChem-04042320403D

 84 92  0     1  0  0  0  0  0999 V2000
  -27.7183  -20.7579   18.6169 C   0  0  0  0  0  0  0  0  0  0  0  0
  -26.6137  -21.4974   19.0273 C   0  0  0  0  0  0  0  0  0  0  0  0
  -20.1291  -27.1112   26.6232 C   0  0  0  0  0  0  0  0  0  0  0  0
  -26.3317  -13.5048   21.6414 C   0  0  0  0  0  0  0  0  0  0  0  0
  -25.2732  -14.7850   19.8870 C   0  0  0  0  0  0  0  0  0  0  0  0
  -19.7066  -27.4261   25.3317 C   0  0  0  0  0  0  0  0  0  0  0  0
  -28.9926  -21.1031   19.0652 C   0  0  0  0  0  0  0  0  0  0  0  0
  -26.7827  -22.5820   19.8873 C   0  0  0  0  0  0  0  0  0  0  0  0
  -24.1140  -26.6375   18.4466 C   0  0  0  0  0  0  0  0  0  0  0  0
  -20.8750  -25.9546   26.8504 C   0  0  0  0  0  0  0  0  0  0  0  0
  -25.7964  -12.3321   21.1086 C   0  0  0  0  0  0  0  0  0  0  0  0
  -24.7380  -13.6123   19.3541 C   0  0  0  0  0  0  0  0  0  0  0  0
  -22.7489  -26.6349   18.7298 C   0  0  0  0  0  0  0  0  0  0  0  0
  -22.8233  -10.7244   21.1142 C   0  0  0  0  0  0  0  0  0  0  0  0
  -22.2465   -9.8150   22.0006 C   0  0  0  0  0  0  0  0  0  0  0  0
  -20.7758  -25.4278   24.4946 C   0  0  0  0  0  0  0  0  0  0  0  0
  -23.1504  -28.0407   20.6486 C   0  0  0  0  0  0  0  0  0  0  0  0
  -23.8341   -8.1313   21.3061 C   0  0  0  0  0  0  0  0  0  0  0  0
  -26.0700  -14.7313   21.0306 C   0  0  0  0  0  0  0  0  0  0  0  0
  -20.0299  -26.5845   24.2675 C   0  0  0  0  0  0  0  0  0  0  0  0
  -27.8603  -16.5335   21.2644 C   0  0  0  0  0  0  0  0  0  0  0  0
  -29.1783  -22.1984   19.9234 C   0  0  0  0  0  0  0  0  0  0  0  0
  -25.0104  -27.3340   19.2700 C   0  0  0  0  0  0  0  0  0  0  0  0
  -28.0605  -22.9414   20.3486 C   0  0  0  0  0  0  0  0  0  0  0  0
  -24.5261  -28.0528   20.3722 C   0  0  0  0  0  0  0  0  0  0  0  0
  -21.1983  -25.1129   25.7861 C   0  0  0  0  0  0  0  0  0  0  0  0
  -24.9996  -12.3858   19.9649 C   0  0  0  0  0  0  0  0  0  0  0  0
  -22.2672  -27.3342   19.8326 C   0  0  0  0  0  0  0  0  0  0  0  0
  -23.9054  -10.3374   20.3236 C   0  0  0  0  0  0  0  0  0  0  0  0
  -22.7519   -8.5184   22.0966 C   0  0  0  0  0  0  0  0  0  0  0  0
  -24.4108   -9.0408   20.4197 C   0  0  0  0  0  0  0  0  0  0  0  0
  -26.6221  -15.9431   21.5809 C   0  0  0  0  0  0  0  0  0  0  0  0
  -27.9154  -17.6582   22.0507 C   0  0  0  0  0  0  0  0  0  0  0  0
  -19.5802  -26.9199   22.8918 C   0  0  0  0  0  0  0  0  0  0  0  0
  -28.8703  -16.1036   20.3420 C   0  0  0  0  0  0  0  0  0  0  0  0
  -27.4834  -26.5147   21.0911 C   0  0  0  0  0  0  0  0  0  0  0  0
  -23.5899  -20.9658   24.4225 C   0  0  0  0  0  0  0  0  0  0  0  0
  -27.7993  -29.7254   21.4289 C   0  0  0  0  0  0  0  0  0  0  0  0
  -26.3335  -32.8060   21.3405 C   0  0  0  0  0  0  0  0  0  0  0  0
  -30.5695  -22.5044   20.4192 C   0  0  0  0  0  0  0  0  0  0  0  0
  -26.4768  -27.3490   18.9355 C   0  0  0  0  0  0  0  0  0  0  0  0
  -25.4444  -28.8331   21.2757 C   0  0  0  0  0  0  0  0  0  0  0  0
  -30.7058  -23.8966   21.0304 C   0  0  0  0  0  0  0  0  0  0  0  0
  -26.3481  -19.4091   26.2103 C   0  0  0  0  0  0  0  0  0  0  0  0
  -29.5539  -24.1728   21.9915 C   0  0  0  0  0  0  0  0  0  0  0  0
  -26.8244  -18.3720   25.1941 C   0  0  0  0  0  0  0  0  0  0  0  0
  -24.8331  -19.5890   26.1606 C   0  0  0  0  0  0  0  0  0  0  0  0
  -24.7865  -18.8961   23.7853 C   0  0  0  0  0  0  0  0  0  0  0  0
  -28.2060  -24.1399   21.2611 C   0  0  1  0  0  0  0  0  0  0  0  0
  -27.3605  -27.6691   20.1372 C   0  0  1  0  0  0  0  0  0  0  0  0
  -26.3126  -18.7071   23.7822 C   0  0  2  0  0  0  0  0  0  0  0  0
  -26.8372  -35.2382   21.6985 C   0  0  0  0  0  0  0  0  0  0  0  0
  -27.7688  -29.2848   24.4480 C   0  0  0  0  0  0  0  0  0  0  0  0
  -27.3172  -31.7311   24.7303 C   0  0  0  0  0  0  0  0  0  0  0  0
  -29.4369  -30.9717   23.6567 C   0  0  0  0  0  0  0  0  0  0  0  0
  -25.6372  -33.4811   18.5443 C   0  0  0  0  0  0  0  0  0  0  0  0
  -23.1745  -21.9081   25.5241 C   0  0  0  0  0  0  0  0  0  0  0  0
  -22.3185  -23.0374   24.9717 C   0  0  0  0  0  0  0  0  0  0  0  0
  -19.0019  -26.0115   20.6566 C   0  0  0  0  0  0  0  0  0  0  0  0
  -20.1929  -26.1756   19.7293 C   0  0  0  0  0  0  0  0  0  1  0  0
  -27.2598  -30.7575   22.3894 C   0  0  1  0  0  0  0  0  0  0  0  0
  -26.7615  -34.1067   20.6852 C   0  0  2  0  0  0  0  0  0  0  0  0
  -27.9283  -30.6701   23.7904 C   0  0  0  0  0  0  0  0  0  0  0  0
  -25.9399  -16.6355   22.4970 N   0  0  0  0  0  0  0  0  0  0  0  0
  -26.7524  -17.6725   22.7630 N   0  0  0  0  0  0  0  0  0  0  0  0
  -26.8705  -28.8118   20.9107 N   0  0  0  0  0  0  0  0  0  0  0  0
  -24.3827  -19.8796   24.7942 N   0  0  0  0  0  0  0  0  0  0  0  0
  -28.8449  -18.6265   22.1956 N   0  0  0  0  0  0  0  0  0  0  0  0
  -28.6530  -14.9256   19.6145 N   0  0  0  0  0  0  0  0  0  0  0  0
  -21.9524  -23.9436   26.0160 N   0  0  0  0  0  0  0  0  0  0  0  0
  -19.4094  -25.8465   22.0266 N   0  0  0  0  0  0  0  0  0  0  0  0
  -28.0016  -25.3671   20.5218 N   0  0  0  0  0  0  0  0  0  0  0  0
  -27.4183  -32.0499   21.7312 N   0  0  0  0  0  0  0  0  0  0  0  0
  -25.7932  -34.4934   19.6203 N   0  3  0  0  0  0  0  0  0  0  0  0
  -19.4059  -28.0971   22.5879 O   0  0  0  0  0  0  0  0  0  0  0  0
  -29.9412  -16.7364   20.1801 O   0  0  0  0  0  0  0  0  0  0  0  0
  -27.1354  -26.6552   22.2577 O   0  0  0  0  0  0  0  0  0  0  0  0
  -23.2222  -21.1916   23.2667 O   0  0  0  0  0  0  0  0  0  0  0  0
  -28.9993  -29.7340   21.1433 O   0  0  0  0  0  0  0  0  0  0  0  0
  -25.1548  -32.4938   21.4940 O   0  0  0  0  0  0  0  0  0  0  0  0
  -24.4774  -11.2417   19.4446 O   0  0  0  0  0  0  0  0  0  0  0  0
  -20.9353  -27.3327   20.1117 O   0  0  0  0  0  0  0  0  0  1  0  0
  -22.1990   -7.6456   22.9490 F   0  0  0  0  0  0  0  0  0  0  0  0
  -25.4510   -8.6636   19.6637 F   0  0  0  0  0  0  0  0  0  0  0  0
  1  2  1  0  0  0  0
  1  7  2  0  0  0  0
  2  8  2  0  0  0  0
  3  6  2  0  0  0  0
  3 10  1  0  0  0  0
  4 11  2  0  0  0  0
  4 19  1  0  0  0  0
  5 12  1  0  0  0  0
  5 19  2  0  0  0  0
  6 20  1  0  0  0  0
  7 22  1  0  0  0  0
  8 24  1  0  0  0  0
  9 13  2  0  0  0  0
  9 23  1  0  0  0  0
 10 26  2  0  0  0  0
 11 27  1  0  0  0  0
 12 27  2  0  0  0  0
 13 28  1  0  0  0  0
 14 15  2  0  0  0  0
 14 29  1  0  0  0  0
 15 30  1  0  0  0  0
 16 20  2  0  0  0  0
 16 26  1  0  0  0  0
 17 25  1  0  0  0  0
 17 28  2  0  0  0  0
 18 30  2  0  0  0  0
 18 31  1  0  0  0  0
 19 32  1  0  0  0  0
 20 34  1  0  0  0  0
 21 32  1  0  0  0  0
 21 33  2  0  0  0  0
 21 35  1  0  0  0  0
 22 24  2  0  0  0  0
 22 40  1  0  0  0  0
 23 25  2  0  0  0  0
 23 41  1  0  0  0  0
 24 49  1  0  0  0  0
 25 42  1  0  0  0  0
 26 70  1  0  0  0  0
 27 81  1  0  0  0  0
 28 82  1  0  0  0  0
 29 31  2  0  0  0  0
 29 81  1  0  0  0  0
 30 83  1  0  0  0  0
 31 84  1  0  0  0  0
 32 64  2  0  0  0  0
 33 65  1  0  0  0  0
 33 68  1  0  0  0  0
 34 71  1  0  0  0  0
 34 75  2  0  0  0  0
 35 69  1  0  0  0  0
 35 76  2  0  0  0  0
 36 50  1  0  0  0  0
 36 72  1  0  0  0  0
 36 77  2  0  0  0  0
 37 57  1  0  0  0  0
 37 67  1  0  0  0  0
 37 78  2  0  0  0  0
 38 61  1  0  0  0  0
 38 66  1  0  0  0  0
 38 79  2  0  0  0  0
 39 62  1  0  0  0  0
 39 73  1  0  0  0  0
 39 80  2  0  0  0  0
 40 43  1  0  0  0  0
 41 50  1  0  0  0  0
 42 66  1  0  0  0  0
 43 45  1  0  0  0  0
 44 46  1  0  0  0  0
 44 47  1  0  0  0  0
 45 49  1  0  0  0  0
 46 51  1  0  0  0  0
 47 67  1  0  0  0  0
 48 51  1  0  0  0  0
 48 67  1  0  0  0  0
 49 72  1  0  0  0  0
 50 66  1  0  0  0  0
 51 65  1  0  0  0  0
 52 62  1  0  0  0  0
 53 63  1  0  0  0  0
 54 63  1  0  0  0  0
 55 63  1  0  0  0  0
 56 74  1  0  0  0  0
 57 58  1  0  0  0  0
 58 70  1  0  0  0  0
 59 60  1  0  0  0  0
 59 71  1  0  0  0  0
 60 82  1  0  0  0  0
 61 63  1  0  0  0  0
 61 73  1  0  0  0  0
 62 74  1  0  0  0  0
 64 65  1  0  0  0  0
M  CHG  1  74   1
M  ISO  4  37 100  57 100  60 101  82 101
M  END
> <Batch ID>
0010

> <Smiles>
CNC(C)C(=O)NC(C(=O)N1Cc2cc([101O:1][101CH2:1]CNC(=O)c3cccc(NC[100CH2:0][100C:0](=O)N4CCCC(n5nc(-c6ccc(Oc7ccc(F)cc7F)cc6)c(C(N)=O)c5N)C4)c3)ccc2CC1C(=O)NC1CCCc2ccccc21)C(C)(C)C

> <Shape>
0.230

> <Color>
0.049

> <Negative vol penalty>
0.000

$$$$

  -OEChem-04042320403D

 81 89  0     1  0  0  0  0  0999 V2000
  -23.6146  -32.7404   26.6417 C   0  0  0  0  0  0  0  0  0  0  0  0
  -24.8879  -32.2906   26.3072 C   0  0  0  0  0  0  0  0  0  0  0  0
  -24.0433   -9.7225   21.7174 C   0  0  0  0  0  0  0  0  0  0  0  0
  -24.6463  -10.9946   23.6809 C   0  0  0  0  0  0  0  0  0  0  0  0
  -22.4922  -32.0271   26.2230 C   0  0  0  0  0  0  0  0  0  0  0  0
  -25.0395  -31.1265   25.5547 C   0  0  0  0  0  0  0  0  0  0  0  0
  -29.3143  -28.1906   20.6127 C   0  0  0  0  0  0  0  0  0  0  0  0
  -30.7820  -18.9585   20.2106 C   0  0  0  0  0  0  0  0  0  0  0  0
  -23.6164   -8.6717   22.5293 C   0  0  0  0  0  0  0  0  0  0  0  0
  -24.2193   -9.9438   24.4928 C   0  0  0  0  0  0  0  0  0  0  0  0
  -30.0451  -27.0275   20.3746 C   0  0  0  0  0  0  0  0  0  0  0  0
  -31.0681  -20.2797   20.5541 C   0  0  0  0  0  0  0  0  0  0  0  0
  -20.9059   -7.9145   24.4036 C   0  0  0  0  0  0  0  0  0  0  0  0
  -19.6862   -7.3118   24.0959 C   0  0  0  0  0  0  0  0  0  0  0  0
  -28.0319  -25.9204   19.6392 C   0  0  0  0  0  0  0  0  0  0  0  0
  -28.7097  -20.7140   20.8479 C   0  0  0  0  0  0  0  0  0  0  0  0
  -20.8098   -5.1954   23.7874 C   0  0  0  0  0  0  0  0  0  0  0  0
  -24.5583  -10.8839   22.2932 C   0  0  0  0  0  0  0  0  0  0  0  0
  -24.2298  -13.0524   20.9902 C   0  0  0  0  0  0  0  0  0  0  0  0
  -22.6299  -30.8589   25.4568 C   0  0  0  0  0  0  0  0  0  0  0  0
  -27.9326  -28.2242   20.3757 C   0  0  0  0  0  0  0  0  0  0  0  0
  -23.9180  -30.3961   25.1265 C   0  0  0  0  0  0  0  0  0  0  0  0
  -27.2863  -27.0860   19.8726 C   0  0  0  0  0  0  0  0  0  0  0  0
  -29.4598  -18.5150   20.1855 C   0  0  0  0  0  0  0  0  0  0  0  0
  -23.7044   -8.7823   23.9170 C   0  0  0  0  0  0  0  0  0  0  0  0
  -29.4035  -25.8912   19.8905 C   0  0  0  0  0  0  0  0  0  0  0  0
  -30.0320  -21.1575   20.8728 C   0  0  0  0  0  0  0  0  0  0  0  0
  -22.0776   -7.1576   24.4031 C   0  0  0  0  0  0  0  0  0  0  0  0
  -19.6381   -5.9523   23.7878 C   0  0  0  0  0  0  0  0  0  0  0  0
  -28.4236  -19.3928   20.5042 C   0  0  0  0  0  0  0  0  0  0  0  0
  -22.0296   -5.7981   24.0950 C   0  0  0  0  0  0  0  0  0  0  0  0
  -25.0000  -11.9695   21.4550 C   0  0  0  0  0  0  0  0  0  0  0  0
  -25.1046  -13.7986   20.2391 C   0  0  0  0  0  0  0  0  0  0  0  0
  -22.8471  -13.3565   21.2173 C   0  0  0  0  0  0  0  0  0  0  0  0
  -25.3581  -28.6945   22.1797 C   0  0  0  0  0  0  0  0  0  0  0  0
  -23.8210  -28.6090   19.3245 C   0  0  0  0  0  0  0  0  0  0  0  0
  -23.8043  -27.5722   16.0731 C   0  0  0  0  0  0  0  0  0  0  0  0
  -30.0847  -16.1747   19.4935 C   0  0  0  0  0  0  0  0  0  0  0  0
  -21.3887  -30.0957   25.0674 C   0  0  0  0  0  0  0  0  0  0  0  0
  -27.1632  -29.4948   20.6123 C   0  0  0  0  0  0  0  0  0  0  0  0
  -25.8084  -27.0763   19.5826 C   0  0  0  0  0  0  0  0  0  0  0  0
  -21.6240  -29.0770   23.9551 C   0  0  0  0  0  0  0  0  0  0  0  0
  -29.7777  -12.7400   18.6070 C   0  0  0  0  0  0  0  0  0  0  0  0
  -22.8783  -28.2567   24.2391 C   0  0  0  0  0  0  0  0  0  0  0  0
  -28.4440  -12.3225   19.2307 C   0  0  0  0  0  0  0  0  0  0  0  0
  -30.5323  -13.7304   19.4921 C   0  0  0  0  0  0  0  0  0  0  0  0
  -28.4284  -14.4960   20.5202 C   0  0  0  0  0  0  0  0  0  0  0  0
  -24.1226  -29.1513   24.2906 C   0  0  1  0  0  0  0  0  0  0  0  0
  -25.6707  -29.2593   20.8229 C   0  0  1  0  0  0  0  0  0  0  0  0
  -27.6023  -13.5488   19.6347 C   0  0  2  0  0  0  0  0  0  0  0  0
  -22.3954  -27.6215   13.9970 C   0  0  0  0  0  0  0  0  0  0  0  0
  -22.0091  -26.4570   20.5059 C   0  0  0  0  0  0  0  0  0  0  0  0
  -21.2863  -25.8860   18.1779 C   0  0  0  0  0  0  0  0  0  0  0  0
  -20.8302  -28.1578   19.1017 C   0  0  0  0  0  0  0  0  0  0  0  0
  -25.8768  -29.0487   14.5620 C   0  0  0  0  0  0  0  0  0  0  0  0
  -31.2612  -24.5267   20.4758 C   0  0  0  0  0  0  0  0  0  1  0  0
  -31.4737  -23.0327   20.6261 C   0  0  0  0  0  0  0  0  0  0  0  0
  -23.1974  -27.5257   18.4781 C   0  0  1  0  0  0  0  0  0  0  0  0
  -23.5008  -28.3106   14.7819 C   0  0  2  0  0  0  0  0  0  0  0  0
  -21.8583  -27.0059   19.0731 C   0  0  0  0  0  0  0  0  0  0  0  0
  -26.2666  -12.0195   21.0342 N   0  0  0  0  0  0  0  0  0  0  0  0
  -26.2990  -13.1428   20.2971 N   0  0  0  0  0  0  0  0  0  0  0  0
  -25.0986  -28.3411   19.8361 N   0  0  0  0  0  0  0  0  0  0  0  0
  -29.6740  -14.8677   19.8310 N   0  0  0  0  0  0  0  0  0  0  0  0
  -24.9610  -14.9452   19.5412 N   0  0  0  0  0  0  0  0  0  0  0  0
  -22.0930  -12.4837   22.0134 N   0  0  0  0  0  0  0  0  0  0  0  0
  -29.1724  -17.1722   19.8360 N   0  0  0  0  0  0  0  0  0  0  0  0
  -24.5475  -29.5037   22.9528 N   0  0  0  0  0  0  0  0  0  0  0  0
  -23.0794  -28.0763   17.1322 N   0  0  0  0  0  0  0  0  0  0  0  0
  -24.7173  -28.3743   13.9234 N   0  3  0  0  0  0  0  0  0  0  0  0
  -22.2926  -14.3634   20.7151 O   0  0  0  0  0  0  0  0  0  0  0  0
  -25.8170  -27.6046   22.5009 O   0  0  0  0  0  0  0  0  0  0  0  0
  -23.2006  -29.6574   19.5185 O   0  0  0  0  0  0  0  0  0  0  0  0
  -24.6016  -26.6390   16.1351 O   0  0  0  0  0  0  0  0  0  0  0  0
  -31.1537  -16.3905   18.9167 O   0  0  0  0  0  0  0  0  0  0  0  0
  -23.2877   -7.7573   24.7095 O   0  0  0  0  0  0  0  0  0  0  0  0
  -30.1143  -24.7543   19.6579 O   0  0  0  0  0  0  0  0  0  1  0  0
  -30.3131  -22.4549   21.2114 O   0  0  0  0  0  0  0  0  0  0  0  0
  -18.4666   -5.3733   23.4939 F   0  0  0  0  0  0  0  0  0  0  0  0
  -27.1490  -18.9774   20.4830 F   0  0  0  0  0  0  0  0  0  0  0  0
  -23.1517   -5.0655   24.0941 F   0  0  0  0  0  0  0  0  0  0  0  0
  1  2  1  0  0  0  0
  1  5  2  0  0  0  0
  2  6  2  0  0  0  0
  3  9  2  0  0  0  0
  3 18  1  0  0  0  0
  4 10  1  0  0  0  0
  4 18  2  0  0  0  0
  5 20  1  0  0  0  0
  6 22  1  0  0  0  0
  7 11  2  0  0  0  0
  7 21  1  0  0  0  0
  8 12  2  0  0  0  0
  8 24  1  0  0  0  0
  9 25  1  0  0  0  0
 10 25  2  0  0  0  0
 11 26  1  0  0  0  0
 12 27  1  0  0  0  0
 13 14  2  0  0  0  0
 13 28  1  0  0  0  0
 14 29  1  0  0  0  0
 15 23  1  0  0  0  0
 15 26  2  0  0  0  0
 16 27  2  0  0  0  0
 16 30  1  0  0  0  0
 17 29  2  0  0  0  0
 17 31  1  0  0  0  0
 18 32  1  0  0  0  0
 19 32  1  0  0  0  0
 19 33  2  0  0  0  0
 19 34  1  0  0  0  0
 20 22  2  0  0  0  0
 20 39  1  0  0  0  0
 21 23  2  0  0  0  0
 21 40  1  0  0  0  0
 22 48  1  0  0  0  0
 23 41  1  0  0  0  0
 24 30  2  0  0  0  0
 24 67  1  0  0  0  0
 25 76  1  0  0  0  0
 26 77  1  0  0  0  0
 27 78  1  0  0  0  0
 28 31  2  0  0  0  0
 28 76  1  0  0  0  0
 29 79  1  0  0  0  0
 30 80  1  0  0  0  0
 31 81  1  0  0  0  0
 32 61  2  0  0  0  0
 33 62  1  0  0  0  0
 33 65  1  0  0  0  0
 34 66  1  0  0  0  0
 34 71  2  0  0  0  0
 35 49  1  0  0  0  0
 35 68  1  0  0  0  0
 35 72  2  0  0  0  0
 36 58  1  0  0  0  0
 36 63  1  0  0  0  0
 36 73  2  0  0  0  0
 37 59  1  0  0  0  0
 37 69  1  0  0  0  0
 37 74  2  0  0  0  0
 38 64  1  0  0  0  0
 38 67  1  0  0  0  0
 38 75  2  0  0  0  0
 39 42  1  0  0  0  0
 40 49  1  0  0  0  0
 41 63  1  0  0  0  0
 42 44  1  0  0  0  0
 43 45  1  0  0  0  0
 43 46  1  0  0  0  0
 44 48  1  0  0  0  0
 45 50  1  0  0  0  0
 46 64  1  0  0  0  0
 47 50  1  0  0  0  0
 47 64  1  0  0  0  0
 48 68  1  0  0  0  0
 49 63  1  0  0  0  0
 50 62  1  0  0  0  0
 51 59  1  0  0  0  0
 52 60  1  0  0  0  0
 53 60  1  0  0  0  0
 54 60  1  0  0  0  0
 55 70  1  0  0  0  0
 56 57  1  0  0  0  0
 56 77  1  0  0  0  0
 57 78  1  0  0  0  0
 58 60  1  0  0  0  0
 58 69  1  0  0  0  0
 59 70  1  0  0  0  0
 61 62  1  0  0  0  0
M  CHG  1  70   1
M  ISO  4  38 100  56 101  67 100  77 101
M  END
> <Batch ID>
0010

> <Smiles>
CNC(C)C(=O)NC(C(=O)N1Cc2cc([101O:1][101CH2:1]COc3ccc([100NH:0][100C:0](=O)N4CCCC(n5nc(-c6ccc(Oc7ccc(F)cc7F)cc6)c(C(N)=O)c5N)C4)c(F)c3)ccc2CC1C(=O)NC1CCCc2ccccc21)C(C)(C)C

> <Shape>
0.293

> <Color>
0.123

> <Negative vol penalty>
0.000

$$$$

  -OEChem-04042320403D

 82 90  0     1  0  0  0  0  0999 V2000
  -24.6122  -34.0114   28.0639 C   0  0  0  0  0  0  0  0  0  0  0  0
  -25.4919  -33.1965   27.3586 C   0  0  0  0  0  0  0  0  0  0  0  0
  -24.2567   -9.1059   21.4812 C   0  0  0  0  0  0  0  0  0  0  0  0
  -24.7683  -10.3935   23.4604 C   0  0  0  0  0  0  0  0  0  0  0  0
  -23.2367  -33.8149   27.9481 C   0  0  0  0  0  0  0  0  0  0  0  0
  -24.9966  -32.1839   26.5377 C   0  0  0  0  0  0  0  0  0  0  0  0
  -27.3828  -30.2386   21.2437 C   0  0  0  0  0  0  0  0  0  0  0  0
  -30.2159  -18.8786   20.0778 C   0  0  0  0  0  0  0  0  0  0  0  0
  -23.9218   -8.0121   22.2793 C   0  0  0  0  0  0  0  0  0  0  0  0
  -24.4333   -9.2997   24.2585 C   0  0  0  0  0  0  0  0  0  0  0  0
  -28.1972  -29.1529   20.9246 C   0  0  0  0  0  0  0  0  0  0  0  0
  -30.3965  -20.2134   20.4399 C   0  0  0  0  0  0  0  0  0  0  0  0
  -21.2944   -7.0103   24.1570 C   0  0  0  0  0  0  0  0  0  0  0  0
  -20.1253   -6.3155   23.8470 C   0  0  0  0  0  0  0  0  0  0  0  0
  -26.2451  -27.8791   20.3032 C   0  0  0  0  0  0  0  0  0  0  0  0
  -28.0127  -20.4509   20.7535 C   0  0  0  0  0  0  0  0  0  0  0  0
  -21.4143   -4.3017   23.4998 C   0  0  0  0  0  0  0  0  0  0  0  0
  -24.6800  -10.2966   22.0717 C   0  0  0  0  0  0  0  0  0  0  0  0
  -24.1683  -12.4504   20.8040 C   0  0  0  0  0  0  0  0  0  0  0  0
  -22.7241  -32.8057   27.1179 C   0  0  0  0  0  0  0  0  0  0  0  0
  -25.9903  -30.1489   21.1050 C   0  0  0  0  0  0  0  0  0  0  0  0
  -23.6130  -31.9729   26.4117 C   0  0  0  0  0  0  0  0  0  0  0  0
  -25.4155  -28.9660   20.6188 C   0  0  0  0  0  0  0  0  0  0  0  0
  -28.9336  -18.3299   20.0534 C   0  0  0  0  0  0  0  0  0  0  0  0
  -24.0101   -8.1090   23.6679 C   0  0  0  0  0  0  0  0  0  0  0  0
  -27.6281  -27.9719   20.4571 C   0  0  0  0  0  0  0  0  0  0  0  0
  -29.2950  -20.9996   20.7778 C   0  0  0  0  0  0  0  0  0  0  0  0
  -22.5234   -6.3509   24.1383 C   0  0  0  0  0  0  0  0  0  0  0  0
  -20.1853   -4.9612   23.5185 C   0  0  0  0  0  0  0  0  0  0  0  0
  -27.8321  -19.1160   20.3913 C   0  0  0  0  0  0  0  0  0  0  0  0
  -22.5834   -4.9966   23.8098 C   0  0  0  0  0  0  0  0  0  0  0  0
  -25.0267  -11.4267   21.2478 C   0  0  0  0  0  0  0  0  0  0  0  0
  -24.9747  -13.2760   20.0594 C   0  0  0  0  0  0  0  0  0  0  0  0
  -22.7672  -12.6382   21.0434 C   0  0  0  0  0  0  0  0  0  0  0  0
  -23.5206  -30.3437   23.0966 C   0  0  0  0  0  0  0  0  0  0  0  0
  -21.7957  -30.1726   20.3547 C   0  0  0  0  0  0  0  0  0  0  0  0
  -21.6387  -29.2028   17.0865 C   0  0  0  0  0  0  0  0  0  0  0  0
  -29.7411  -16.0584   19.3221 C   0  0  0  0  0  0  0  0  0  0  0  0
  -21.2309  -32.6009   27.0614 C   0  0  0  0  0  0  0  0  0  0  0  0
  -25.1278  -31.3381   21.4281 C   0  0  0  0  0  0  0  0  0  0  0  0
  -23.9275  -28.8254   20.4328 C   0  0  0  0  0  0  0  0  0  0  0  0
  -20.7774  -31.7478   25.8795 C   0  0  0  0  0  0  0  0  0  0  0  0
  -29.7068  -12.6236   18.3850 C   0  0  0  0  0  0  0  0  0  0  0  0
  -21.6503  -30.5032   25.7534 C   0  0  0  0  0  0  0  0  0  0  0  0
  -28.4155  -12.0902   19.0097 C   0  0  0  0  0  0  0  0  0  0  0  0
  -30.3849  -13.6587   19.2809 C   0  0  0  0  0  0  0  0  0  0  0  0
  -28.2331  -14.2360   20.3323 C   0  0  0  0  0  0  0  0  0  0  0  0
  -23.1136  -30.8799   25.4919 C   0  0  1  0  0  0  0  0  0  0  0  0
  -23.6820  -30.9615   21.7365 C   0  0  1  0  0  0  0  0  0  0  0  0
  -27.4802  -13.2383   19.4372 C   0  0  2  0  0  0  0  0  0  0  0  0
  -20.0851  -29.1624   15.1161 C   0  0  0  0  0  0  0  0  0  0  0  0
  -20.2767  -27.8395   21.6034 C   0  0  0  0  0  0  0  0  0  0  0  0
  -19.4426  -27.2500   19.3175 C   0  0  0  0  0  0  0  0  0  0  0  0
  -18.8500  -29.4513   20.3303 C   0  0  0  0  0  0  0  0  0  0  0  0
  -23.4541  -30.8939   15.4731 C   0  0  0  0  0  0  0  0  0  0  0  0
  -28.9589  -24.6088   20.6297 C   0  0  0  0  0  0  0  0  0  0  0  0
  -27.8587  -25.6093   20.3123 C   0  0  0  0  0  0  0  0  0  1  0  0
  -28.4097  -23.2060   20.8371 C   0  0  0  0  0  0  0  0  0  0  0  0
  -21.2136  -29.0531   19.5260 C   0  0  1  0  0  0  0  0  0  0  0  0
  -21.1770  -29.9352   15.8395 C   0  0  2  0  0  0  0  0  0  0  0  0
  -19.9736  -28.4001   20.1995 C   0  0  0  0  0  0  0  0  0  0  0  0
  -26.2823  -11.5853   20.8207 N   0  0  0  0  0  0  0  0  0  0  0  0
  -26.2187  -12.7183   20.1006 N   0  0  0  0  0  0  0  0  0  0  0  0
  -23.1260  -30.0139   20.7684 N   0  0  0  0  0  0  0  0  0  0  0  0
  -29.4398  -14.7176   19.6419 N   0  0  0  0  0  0  0  0  0  0  0  0
  -24.7340  -14.4175   19.3799 N   0  0  0  0  0  0  0  0  0  0  0  0
  -22.0916  -11.6955   21.8304 N   0  0  0  0  0  0  0  0  0  0  0  0
  -28.7535  -16.9736   19.6850 N   0  0  0  0  0  0  0  0  0  0  0  0
  -23.2983  -31.2591   24.1075 N   0  0  0  0  0  0  0  0  0  0  0  0
  -20.9493  -29.6168   18.2066 N   0  0  0  0  0  0  0  0  0  0  0  0
  -22.3176  -30.1280   14.8999 N   0  3  0  0  0  0  0  0  0  0  0  0
  -22.1296  -13.6042   20.5598 O   0  0  0  0  0  0  0  0  0  0  0  0
  -23.5911  -29.1265   23.2195 O   0  0  0  0  0  0  0  0  0  0  0  0
  -21.0982  -31.1551   20.6191 O   0  0  0  0  0  0  0  0  0  0  0  0
  -22.5198  -28.3462   17.0680 O   0  0  0  0  0  0  0  0  0  0  0  0
  -30.7851  -16.3685   18.7427 O   0  0  0  0  0  0  0  0  0  0  0  0
  -23.6831   -7.0420   24.4471 O   0  0  0  0  0  0  0  0  0  0  0  0
  -28.4206  -26.9104   20.1455 O   0  0  0  0  0  0  0  0  0  1  0  0
  -29.4727  -22.3109   21.1348 O   0  0  0  0  0  0  0  0  0  0  0  0
  -19.0624   -4.2937   23.2223 F   0  0  0  0  0  0  0  0  0  0  0  0
  -26.5952  -18.5992   20.3709 F   0  0  0  0  0  0  0  0  0  0  0  0
  -23.7611   -4.3575   23.7913 F   0  0  0  0  0  0  0  0  0  0  0  0
  1  2  1  0  0  0  0
  1  5  2  0  0  0  0
  2  6  2  0  0  0  0
  3  9  2  0  0  0  0
  3 18  1  0  0  0  0
  4 10  1  0  0  0  0
  4 18  2  0  0  0  0
  5 20  1  0  0  0  0
  6 22  1  0  0  0  0
  7 11  2  0  0  0  0
  7 21  1  0  0  0  0
  8 12  2  0  0  0  0
  8 24  1  0  0  0  0
  9 25  1  0  0  0  0
 10 25  2  0  0  0  0
 11 26  1  0  0  0  0
 12 27  1  0  0  0  0
 13 14  2  0  0  0  0
 13 28  1  0  0  0  0
 14 29  1  0  0  0  0
 15 23  1  0  0  0  0
 15 26  2  0  0  0  0
 16 27  2  0  0  0  0
 16 30  1  0  0  0  0
 17 29  2  0  0  0  0
 17 31  1  0  0  0  0
 18 32  1  0  0  0  0
 19 32  1  0  0  0  0
 19 33  2  0  0  0  0
 19 34  1  0  0  0  0
 20 22  2  0  0  0  0
 20 39  1  0  0  0  0
 21 23  2  0  0  0  0
 21 40  1  0  0  0  0
 22 48  1  0  0  0  0
 23 41  1  0  0  0  0
 24 30  2  0  0  0  0
 24 68  1  0  0  0  0
 25 77  1  0  0  0  0
 26 78  1  0  0  0  0
 27 79  1  0  0  0  0
 28 31  2  0  0  0  0
 28 77  1  0  0  0  0
 29 80  1  0  0  0  0
 30 81  1  0  0  0  0
 31 82  1  0  0  0  0
 32 62  2  0  0  0  0
 33 63  1  0  0  0  0
 33 66  1  0  0  0  0
 34 67  1  0  0  0  0
 34 72  2  0  0  0  0
 35 49  1  0  0  0  0
 35 69  1  0  0  0  0
 35 73  2  0  0  0  0
 36 59  1  0  0  0  0
 36 64  1  0  0  0  0
 36 74  2  0  0  0  0
 37 60  1  0  0  0  0
 37 70  1  0  0  0  0
 37 75  2  0  0  0  0
 38 65  1  0  0  0  0
 38 68  1  0  0  0  0
 38 76  2  0  0  0  0
 39 42  1  0  0  0  0
 40 49  1  0  0  0  0
 41 64  1  0  0  0  0
 42 44  1  0  0  0  0
 43 45  1  0  0  0  0
 43 46  1  0  0  0  0
 44 48  1  0  0  0  0
 45 50  1  0  0  0  0
 46 65  1  0  0  0  0
 47 50  1  0  0  0  0
 47 65  1  0  0  0  0
 48 69  1  0  0  0  0
 49 64  1  0  0  0  0
 50 63  1  0  0  0  0
 51 60  1  0  0  0  0
 52 61  1  0  0  0  0
 53 61  1  0  0  0  0
 54 61  1  0  0  0  0
 55 71  1  0  0  0  0
 56 57  1  0  0  0  0
 56 58  1  0  0  0  0
 57 78  1  0  0  0  0
 58 79  1  0  0  0  0
 59 61  1  0  0  0  0
 59 70  1  0  0  0  0
 60 71  1  0  0  0  0
 62 63  1  0  0  0  0
M  CHG  1  71   1
M  ISO  4  38 100  57 101  68 100  78 101
M  END
> <Batch ID>
0010

> <Smiles>
CNC(C)C(=O)NC(C(=O)N1Cc2cc([101O:1][101CH2:1]CCOc3ccc([100NH:0][100C:0](=O)N4CCCC(n5nc(-c6ccc(Oc7ccc(F)cc7F)cc6)c(C(N)=O)c5N)C4)c(F)c3)ccc2CC1C(=O)NC1CCCc2ccccc21)C(C)(C)C

> <Shape>
0.303

> <Color>
0.145

> <Negative vol penalty>
0.000

$$$$

  -OEChem-04042320403D

 87 96  0     1  0  0  0  0  0999 V2000
  -26.7593  -16.2496   22.4257 C   0  0  0  0  0  0  0  0  0  0  0  0
  -27.3210  -37.7800   21.6107 C   0  0  0  0  0  0  0  0  0  0  0  0
  -27.8374  -36.5740   21.1477 C   0  0  0  0  0  0  0  0  0  0  0  0
  -24.3889   -8.7219   20.9570 C   0  0  0  0  0  0  0  0  0  0  0  0
  -22.9392  -10.6066   20.5291 C   0  0  0  0  0  0  0  0  0  0  0  0
  -26.4373  -37.7904   22.6891 C   0  0  0  0  0  0  0  0  0  0  0  0
  -27.4711  -35.3777   21.7636 C   0  0  0  0  0  0  0  0  0  0  0  0
  -26.5462  -20.3043   21.3828 C   0  0  0  0  0  0  0  0  0  0  0  0
  -27.4631  -19.7136   19.2270 C   0  0  0  0  0  0  0  0  0  0  0  0
  -26.7037  -29.9330   19.0669 C   0  0  0  0  0  0  0  0  0  0  0  0
  -26.7881  -19.0091   21.8405 C   0  0  0  0  0  0  0  0  0  0  0  0
  -27.7050  -18.4184   19.6847 C   0  0  0  0  0  0  0  0  0  0  0  0
  -23.3599   -8.0886   21.6539 C   0  0  0  0  0  0  0  0  0  0  0  0
  -21.9101   -9.9734   21.2260 C   0  0  0  0  0  0  0  0  0  0  0  0
  -27.5332  -28.8185   18.9509 C   0  0  0  0  0  0  0  0  0  0  0  0
  -21.9481   -8.2712   24.7195 C   0  0  0  0  0  0  0  0  0  0  0  0
  -22.2649   -7.6727   25.9390 C   0  0  0  0  0  0  0  0  0  0  0  0
  -26.4502  -27.8210   20.8618 C   0  0  0  0  0  0  0  0  0  0  0  0
  -21.5444   -5.5340   25.0765 C   0  0  0  0  0  0  0  0  0  0  0  0
  -24.1785   -9.9810   20.3946 C   0  0  0  0  0  0  0  0  0  0  0  0
  -25.5215  -10.5393   18.2988 C   0  0  0  0  0  0  0  0  0  0  0  0
  -26.8837  -20.6566   20.0759 C   0  0  0  0  0  0  0  0  0  0  0  0
  -26.0525  -36.5929   23.3123 C   0  0  0  0  0  0  0  0  0  0  0  0
  -25.7469  -30.0048   20.0896 C   0  0  0  0  0  0  0  0  0  0  0  0
  -26.5825  -35.3723   22.8521 C   0  0  0  0  0  0  0  0  0  0  0  0
  -25.6080  -28.9364   20.9870 C   0  0  0  0  0  0  0  0  0  0  0  0
  -27.3674  -18.0662   20.9916 C   0  0  0  0  0  0  0  0  0  0  0  0
  -22.1205   -8.7143   21.7884 C   0  0  0  0  0  0  0  0  0  0  0  0
  -27.4086  -27.7636   19.8502 C   0  0  0  0  0  0  0  0  0  0  0  0
  -21.4294   -7.5011   23.6786 C   0  0  0  0  0  0  0  0  0  0  0  0
  -22.0631   -6.3041   26.1175 C   0  0  0  0  0  0  0  0  0  0  0  0
  -21.2276   -6.1325   23.8571 C   0  0  0  0  0  0  0  0  0  0  0  0
  -25.2413  -10.6359   19.6750 C   0  0  0  0  0  0  0  0  0  0  0  0
  -26.6198  -11.3433   18.1148 C   0  0  0  0  0  0  0  0  0  0  0  0
  -24.8492   -9.7898   17.2780 C   0  0  0  0  0  0  0  0  0  0  0  0
  -25.2466  -31.9395   22.5615 C   0  0  0  0  0  0  0  0  0  0  0  0
  -22.5310  -30.1939   22.8789 C   0  0  0  0  0  0  0  0  0  0  0  0
  -20.8842  -27.2642   22.2858 C   0  0  0  0  0  0  0  0  0  0  0  0
  -28.7952  -16.0346   21.0427 C   0  0  0  0  0  0  0  0  0  0  0  0
  -25.1314  -36.6585   24.5047 C   0  0  0  0  0  0  0  0  0  0  0  0
  -24.8416  -31.2022   20.1849 C   0  0  0  0  0  0  0  0  0  0  0  0
  -24.5828  -28.9556   22.0903 C   0  0  0  0  0  0  0  0  0  0  0  0
  -24.5019  -35.3146   24.8628 C   0  0  0  0  0  0  0  0  0  0  0  0
  -30.4680  -13.0219   20.3847 C   0  0  0  0  0  0  0  0  0  0  0  0
  -25.4408  -23.4069   17.8183 C   0  0  0  0  0  0  0  0  0  0  0  0
  -25.6469  -22.0108   18.3996 C   0  0  0  0  0  0  0  0  0  0  0  0
  -25.5583  -34.2142   24.8660 C   0  0  0  0  0  0  0  0  0  0  0  0
  -29.3519  -12.0483   20.0112 C   0  0  0  0  0  0  0  0  0  0  0  0
  -30.0324  -13.9377   21.5218 C   0  0  0  0  0  0  0  0  0  0  0  0
  -27.6581  -13.7594   20.8387 C   0  0  0  0  0  0  0  0  0  0  0  0
  -26.7616  -24.0603   17.4395 C   0  0  0  0  0  0  0  0  0  0  0  0
  -27.9486  -22.7100   19.1900 C   0  0  0  0  0  0  0  0  0  0  0  0
  -26.6243  -22.0450   19.5853 C   0  0  2  0  0  0  0  0  0  0  0  0
  -26.1898  -34.0517   23.4781 C   0  0  1  0  0  0  0  0  0  0  0  0
  -24.2500  -31.3947   21.5778 C   0  0  1  0  0  0  0  0  0  0  0  0
  -28.0498  -12.8027   19.6940 C   0  0  2  0  0  0  0  0  0  0  0  0
  -18.6896  -26.1195   22.6992 C   0  0  0  0  0  0  0  0  0  0  0  0
  -23.3422  -29.6905   25.7769 C   0  0  0  0  0  0  0  0  0  0  0  0
  -21.6754  -27.8236   25.8460 C   0  0  0  0  0  0  0  0  0  0  0  0
  -20.9093  -30.1628   25.4415 C   0  0  0  0  0  0  0  0  0  0  0  0
  -20.3355  -27.0165   19.3882 C   0  0  0  0  0  0  0  0  0  0  0  0
  -28.9423  -24.8432   18.3604 C   0  0  0  0  0  0  0  0  0  0  0  0
  -28.6711  -26.3330   18.4305 C   0  0  0  0  0  0  0  0  0  1  0  0
  -22.1512  -28.9321   23.6153 C   0  0  1  0  0  0  0  0  0  0  0  0
  -19.4960  -26.9816   21.7404 C   0  0  2  0  0  0  0  0  0  0  0  0
  -22.0402  -29.1524   25.1504 C   0  0  0  0  0  0  0  0  0  0  0  0
  -26.0403  -15.8428   23.2416 N   0  0  0  0  0  0  0  0  0  0  0  0
  -26.0929  -11.4379   20.3196 N   0  0  0  0  0  0  0  0  0  0  0  0
  -26.9191  -11.8525   19.3442 N   0  0  0  0  0  0  0  0  0  0  0  0
  -23.7254  -30.1512   22.1459 N   0  0  0  0  0  0  0  0  0  0  0  0
  -28.7858  -14.6333   21.1987 N   0  0  0  0  0  0  0  0  0  0  0  0
  -27.3490  -11.6573   17.0230 N   0  0  0  0  0  0  0  0  0  0  0  0
  -23.7379   -9.0161   17.6396 N   0  0  0  0  0  0  0  0  0  0  0  0
  -25.3012  -33.3197   22.6011 N   0  0  0  0  0  0  0  0  0  0  0  0
  -20.9245  -28.4485   22.9909 N   0  0  0  0  0  0  0  0  0  0  0  0
  -27.6198  -16.7169   21.4682 N   0  0  0  0  0  0  0  0  0  0  0  0
  -27.6865  -24.1027   18.6412 N   0  3  1  0  0  0  0  0  0  0  0  0
  -19.5877  -26.2714   20.4334 N   0  3  0  0  0  0  0  0  0  0  0  0
  -25.2329   -9.7928   16.0837 O   0  0  0  0  0  0  0  0  0  0  0  0
  -25.9154  -31.1651   23.2358 O   0  0  0  0  0  0  0  0  0  0  0  0
  -21.7914  -31.1789   22.9455 O   0  0  0  0  0  0  0  0  0  0  0  0
  -21.8366  -26.5081   22.1077 O   0  0  0  0  0  0  0  0  0  0  0  0
  -29.7993  -16.6285   20.6312 O   0  0  0  0  0  0  0  0  0  0  0  0
  -21.1161   -8.0966   22.4682 O   0  0  0  0  0  0  0  0  0  0  0  0
  -28.2174  -26.6748   19.7396 O   0  0  0  0  0  0  0  0  0  1  0  0
  -22.3688   -5.7293   27.2881 F   0  0  0  0  0  0  0  0  0  0  0  0
  -20.7307   -5.3873   22.8603 F   0  0  0  0  0  0  0  0  0  0  0  0
  1 67  3  0  0  0  0
  1 76  1  0  0  0  0
  2  3  1  0  0  0  0
  2  6  2  0  0  0  0
  3  7  2  0  0  0  0
  4 13  2  0  0  0  0
  4 20  1  0  0  0  0
  5 14  1  0  0  0  0
  5 20  2  0  0  0  0
  6 23  1  0  0  0  0
  7 25  1  0  0  0  0
  8 11  2  0  0  0  0
  8 22  1  0  0  0  0
  9 12  1  0  0  0  0
  9 22  2  0  0  0  0
 10 15  2  0  0  0  0
 10 24  1  0  0  0  0
 11 27  1  0  0  0  0
 12 27  2  0  0  0  0
 13 28  1  0  0  0  0
 14 28  2  0  0  0  0
 15 29  1  0  0  0  0
 16 17  2  0  0  0  0
 16 30  1  0  0  0  0
 17 31  1  0  0  0  0
 18 26  1  0  0  0  0
 18 29  2  0  0  0  0
 19 31  2  0  0  0  0
 19 32  1  0  0  0  0
 20 33  1  0  0  0  0
 21 33  1  0  0  0  0
 21 34  2  0  0  0  0
 21 35  1  0  0  0  0
 22 53  1  0  0  0  0
 23 25  2  0  0  0  0
 23 40  1  0  0  0  0
 24 26  2  0  0  0  0
 24 41  1  0  0  0  0
 25 54  1  0  0  0  0
 26 42  1  0  0  0  0
 27 76  1  0  0  0  0
 28 84  1  0  0  0  0
 29 85  1  0  0  0  0
 30 32  2  0  0  0  0
 30 84  1  0  0  0  0
 31 86  1  0  0  0  0
 32 87  1  0  0  0  0
 33 68  2  0  0  0  0
 34 69  1  0  0  0  0
 34 72  1  0  0  0  0
 35 73  1  0  0  0  0
 35 79  2  0  0  0  0
 36 55  1  0  0  0  0
 36 74  1  0  0  0  0
 36 80  2  0  0  0  0
 37 64  1  0  0  0  0
 37 70  1  0  0  0  0
 37 81  2  0  0  0  0
 38 65  1  0  0  0  0
 38 75  1  0  0  0  0
 38 82  2  0  0  0  0
 39 71  1  0  0  0  0
 39 76  1  0  0  0  0
 39 83  2  0  0  0  0
 40 43  1  0  0  0  0
 41 55  1  0  0  0  0
 42 70  1  0  0  0  0
 43 47  1  0  0  0  0
 44 48  1  0  0  0  0
 44 49  1  0  0  0  0
 45 46  1  0  0  0  0
 45 51  1  0  0  0  0
 46 53  1  0  0  0  0
 47 54  1  0  0  0  0
 48 56  1  0  0  0  0
 49 71  1  0  0  0  0
 50 56  1  0  0  0  0
 50 71  1  0  0  0  0
 51 77  1  0  0  0  0
 52 53  1  0  0  0  0
 52 77  1  0  0  0  0
 54 74  1  0  0  0  0
 55 70  1  0  0  0  0
 56 69  1  0  0  0  0
 57 65  1  0  0  0  0
 58 66  1  0  0  0  0
 59 66  1  0  0  0  0
 60 66  1  0  0  0  0
 61 78  1  0  0  0  0
 62 63  1  0  0  0  0
 62 77  1  0  0  0  0
 63 85  1  0  0  0  0
 64 66  1  0  0  0  0
 64 75  1  0  0  0  0
 65 78  1  0  0  0  0
 68 69  1  0  0  0  0
M  CHG  2  77   1  78   1
M  ISO  4  39 100  63 101  76 100  85 101
M  END
> <Batch ID>
0010

> <Smiles>
CNC(C)C(=O)NC(C(=O)N1Cc2cc([101O:1][101CH2:1]CN3CCCC(c4ccc([100N:0](C#N)[100C:0](=O)N5CCCC(n6nc(-c7ccc(Oc8ccc(F)cc8F)cc7)c(C(N)=O)c6N)C5)cc4)C3)ccc2CC1C(=O)NC1CCCc2ccccc21)C(C)(C)C

> <Shape>
0.326

> <Color>
0.095

> <Negative vol penalty>
0.000

$$$$

  -OEChem-04042320403D

 82 90  0     1  0  0  0  0  0999 V2000
  -31.1363  -34.0120   22.4405 C   0  0  0  0  0  0  0  0  0  0  0  0
  -31.5885  -32.8659   23.0868 C   0  0  0  0  0  0  0  0  0  0  0  0
  -23.0306   -9.9835   19.8963 C   0  0  0  0  0  0  0  0  0  0  0  0
  -23.8546   -9.8454   22.1633 C   0  0  0  0  0  0  0  0  0  0  0  0
  -29.8958  -34.0085   21.8041 C   0  0  0  0  0  0  0  0  0  0  0  0
  -30.7998  -31.7160   23.0979 C   0  0  0  0  0  0  0  0  0  0  0  0
  -32.7491  -25.9130   22.9227 C   0  0  0  0  0  0  0  0  0  0  0  0
  -32.8735  -17.1930   23.5433 C   0  0  0  0  0  0  0  0  0  0  0  0
  -32.2385  -16.3744   22.6095 C   0  0  0  0  0  0  0  0  0  0  0  0
  -22.2681   -8.8341   20.1035 C   0  0  0  0  0  0  0  0  0  0  0  0
  -23.0919   -8.6960   22.3705 C   0  0  0  0  0  0  0  0  0  0  0  0
  -32.9414  -24.9576   23.9197 C   0  0  0  0  0  0  0  0  0  0  0  0
  -19.8647   -7.9339   23.0220 C   0  0  0  0  0  0  0  0  0  0  0  0
  -19.1402   -7.8441   24.2105 C   0  0  0  0  0  0  0  0  0  0  0  0
  -30.7558  -24.0462   23.4596 C   0  0  0  0  0  0  0  0  0  0  0  0
  -30.7289  -18.0560   24.2453 C   0  0  0  0  0  0  0  0  0  0  0  0
  -20.3574   -5.8425   24.8014 C   0  0  0  0  0  0  0  0  0  0  0  0
  -23.8239  -10.4891   20.9263 C   0  0  0  0  0  0  0  0  0  0  0  0
  -24.2196  -13.0092   20.9369 C   0  0  0  0  0  0  0  0  0  0  0  0
  -29.0958  -32.8550   21.7992 C   0  0  0  0  0  0  0  0  0  0  0  0
  -31.5522  -25.9491   22.1929 C   0  0  0  0  0  0  0  0  0  0  0  0
  -29.5468  -31.6976   22.4620 C   0  0  0  0  0  0  0  0  0  0  0  0
  -30.5518  -25.0014   22.4521 C   0  0  0  0  0  0  0  0  0  0  0  0
  -32.1187  -18.0338   24.3613 C   0  0  0  0  0  0  0  0  0  0  0  0
  -30.8486  -16.3965   22.4935 C   0  0  0  0  0  0  0  0  0  0  0  0
  -22.2987   -8.1903   21.3405 C   0  0  0  0  0  0  0  0  0  0  0  0
  -31.9436  -24.0258   24.1903 C   0  0  0  0  0  0  0  0  0  0  0  0
  -20.8355   -6.9779   22.7231 C   0  0  0  0  0  0  0  0  0  0  0  0
  -19.3866   -6.7985   25.1002 C   0  0  0  0  0  0  0  0  0  0  0  0
  -30.0938  -17.2373   23.3114 C   0  0  0  0  0  0  0  0  0  0  0  0
  -21.0819   -5.9323   23.6128 C   0  0  0  0  0  0  0  0  0  0  0  0
  -24.6124  -11.6761   20.7127 C   0  0  0  0  0  0  0  0  0  0  0  0
  -25.3178  -13.7547   20.5841 C   0  0  0  0  0  0  0  0  0  0  0  0
  -22.9734  -13.5274   21.4209 C   0  0  0  0  0  0  0  0  0  0  0  0
  -29.2196  -28.0747   21.8132 C   0  0  0  0  0  0  0  0  0  0  0  0
  -28.1541  -25.9335   19.6218 C   0  0  0  0  0  0  0  0  0  0  0  0
  -28.0985  -22.7062   18.5137 C   0  0  0  0  0  0  0  0  0  0  0  0
  -30.8091  -14.6732   20.6564 C   0  0  0  0  0  0  0  0  0  0  0  0
  -27.7413  -32.9138   21.1384 C   0  0  0  0  0  0  0  0  0  0  0  0
  -31.3710  -26.9691   21.1024 C   0  0  0  0  0  0  0  0  0  0  0  0
  -29.2568  -24.9847   21.6832 C   0  0  0  0  0  0  0  0  0  0  0  0
  -27.1316  -31.5392   20.8756 C   0  0  0  0  0  0  0  0  0  0  0  0
  -29.5741  -12.4205   18.1912 C   0  0  0  0  0  0  0  0  0  0  0  0
  -27.2593  -30.6536   22.1110 C   0  0  0  0  0  0  0  0  0  0  0  0
  -28.1408  -12.1357   18.6459 C   0  0  0  0  0  0  0  0  0  0  0  0
  -30.5276  -12.5619   19.3764 C   0  0  0  0  0  0  0  0  0  0  0  0
  -28.6771  -13.2477   20.8511 C   0  0  0  0  0  0  0  0  0  0  0  0
  -28.7310  -30.4230   22.4748 C   0  0  1  0  0  0  0  0  0  0  0  0
  -29.9059  -27.2366   20.7719 C   0  0  1  0  0  0  0  0  0  0  0  0
  -27.6679  -13.1615   19.6945 C   0  0  2  0  0  0  0  0  0  0  0  0
  -27.1096  -21.2559   16.7204 C   0  0  0  0  0  0  0  0  0  0  0  0
  -25.4714  -25.9701   21.0750 C   0  0  0  0  0  0  0  0  0  0  0  0
  -24.8662  -23.8634   19.8652 C   0  0  0  0  0  0  0  0  0  0  0  0
  -25.3060  -25.9554   18.5797 C   0  0  0  0  0  0  0  0  0  0  0  0
  -30.7694  -21.9835   17.4634 C   0  0  0  0  0  0  0  0  0  0  0  0
  -32.8016  -18.9153   25.3650 C   0  0  0  0  0  0  0  0  0  0  0  0
  -33.4587  -21.2520   25.9540 C   0  0  0  0  0  0  0  0  0  0  0  0
  -33.4681  -22.6662   25.4081 C   0  0  0  0  0  0  0  0  0  1  0  0
  -27.2392  -24.7332   19.6570 C   0  0  1  0  0  0  0  0  0  0  0  0
  -28.2973  -22.1124   17.1308 C   0  0  2  0  0  0  0  0  0  0  0  0
  -25.7442  -25.1318   19.8102 C   0  0  0  0  0  0  0  0  0  0  0  0
  -25.8625  -11.5773   20.2529 N   0  0  0  0  0  0  0  0  0  0  0  0
  -26.2647  -12.8578   20.1852 N   0  0  0  0  0  0  0  0  0  0  0  0
  -29.1245  -26.0062   20.6312 N   0  0  0  0  0  0  0  0  0  0  0  0
  -30.0170  -13.5533   20.3257 N   0  0  0  0  0  0  0  0  0  0  0  0
  -25.5563  -15.0835   20.5791 N   0  0  0  0  0  0  0  0  0  0  0  0
  -21.9510  -12.6223   21.7366 N   0  0  0  0  0  0  0  0  0  0  0  0
  -30.2062  -15.5642   21.5436 N   0  0  0  0  0  0  0  0  0  0  0  0
  -29.3202  -29.4357   21.5959 N   0  0  0  0  0  0  0  0  0  0  0  0
  -27.5316  -23.9617   18.4538 N   0  0  0  0  0  0  0  0  0  0  0  0
  -29.5214  -21.2629   17.1029 N   0  3  0  0  0  0  0  0  0  0  0  0
  -32.8419  -20.3447   24.9537 N   0  3  0  0  0  0  0  0  0  0  0  0
  -22.7669  -14.7575   21.5535 O   0  0  0  0  0  0  0  0  0  0  0  0
  -28.6404  -27.5272   22.7441 O   0  0  0  0  0  0  0  0  0  0  0  0
  -28.0175  -26.7720   18.7274 O   0  0  0  0  0  0  0  0  0  0  0  0
  -28.4112  -22.1138   19.5442 O   0  0  0  0  0  0  0  0  0  0  0  0
  -31.9282  -14.8440   20.1660 O   0  0  0  0  0  0  0  0  0  0  0  0
  -21.5545   -7.0688   21.5430 O   0  0  0  0  0  0  0  0  0  0  0  0
  -32.1285  -23.0927   25.1633 O   0  0  0  0  0  0  0  0  0  1  0  0
  -18.6918   -6.7133   26.2423 F   0  0  0  0  0  0  0  0  0  0  0  0
  -28.7575  -17.2679   23.2075 F   0  0  0  0  0  0  0  0  0  0  0  0
  -22.0141   -5.0116   23.3316 F   0  0  0  0  0  0  0  0  0  0  0  0
  1  2  1  0  0  0  0
  1  5  2  0  0  0  0
  2  6  2  0  0  0  0
  3 10  2  0  0  0  0
  3 18  1  0  0  0  0
  4 11  1  0  0  0  0
  4 18  2  0  0  0  0
  5 20  1  0  0  0  0
  6 22  1  0  0  0  0
  7 12  2  0  0  0  0
  7 21  1  0  0  0  0
  8  9  2  0  0  0  0
  8 24  1  0  0  0  0
  9 25  1  0  0  0  0
 10 26  1  0  0  0  0
 11 26  2  0  0  0  0
 12 27  1  0  0  0  0
 13 14  2  0  0  0  0
 13 28  1  0  0  0  0
 14 29  1  0  0  0  0
 15 23  1  0  0  0  0
 15 27  2  0  0  0  0
 16 24  2  0  0  0  0
 16 30  1  0  0  0  0
 17 29  2  0  0  0  0
 17 31  1  0  0  0  0
 18 32  1  0  0  0  0
 19 32  1  0  0  0  0
 19 33  2  0  0  0  0
 19 34  1  0  0  0  0
 20 22  2  0  0  0  0
 20 39  1  0  0  0  0
 21 23  2  0  0  0  0
 21 40  1  0  0  0  0
 22 48  1  0  0  0  0
 23 41  1  0  0  0  0
 24 56  1  0  0  0  0
 25 30  2  0  0  0  0
 25 68  1  0  0  0  0
 26 78  1  0  0  0  0
 27 79  1  0  0  0  0
 28 31  2  0  0  0  0
 28 78  1  0  0  0  0
 29 80  1  0  0  0  0
 30 81  1  0  0  0  0
 31 82  1  0  0  0  0
 32 62  2  0  0  0  0
 33 63  1  0  0  0  0
 33 66  1  0  0  0  0
 34 67  1  0  0  0  0
 34 73  2  0  0  0  0
 35 49  1  0  0  0  0
 35 69  1  0  0  0  0
 35 74  2  0  0  0  0
 36 59  1  0  0  0  0
 36 64  1  0  0  0  0
 36 75  2  0  0  0  0
 37 60  1  0  0  0  0
 37 70  1  0  0  0  0
 37 76  2  0  0  0  0
 38 65  1  0  0  0  0
 38 68  1  0  0  0  0
 38 77  2  0  0  0  0
 39 42  1  0  0  0  0
 40 49  1  0  0  0  0
 41 64  1  0  0  0  0
 42 44  1  0  0  0  0
 43 45  1  0  0  0  0
 43 46  1  0  0  0  0
 44 48  1  0  0  0  0
 45 50  1  0  0  0  0
 46 65  1  0  0  0  0
 47 50  1  0  0  0  0
 47 65  1  0  0  0  0
 48 69  1  0  0  0  0
 49 64  1  0  0  0  0
 50 63  1  0  0  0  0
 51 60  1  0  0  0  0
 52 61  1  0  0  0  0
 53 61  1  0  0  0  0
 54 61  1  0  0  0  0
 55 71  1  0  0  0  0
 56 72  1  0  0  0  0
 57 58  1  0  0  0  0
 57 72  1  0  0  0  0
 58 79  1  0  0  0  0
 59 61  1  0  0  0  0
 59 70  1  0  0  0  0
 60 71  1  0  0  0  0
 62 63  1  0  0  0  0
M  CHG  2  71   1  72   1
M  ISO  4  38 100  58 101  68 100  79 101
M  END
> <Batch ID>
0010

> <Smiles>
CNC(C)C(=O)NC(C(=O)N1Cc2cc([101O:1][101CH2:1]CNCc3ccc([100NH:0][100C:0](=O)N4CCCC(n5nc(-c6ccc(Oc7ccc(F)cc7F)cc6)c(C(N)=O)c5N)C4)c(F)c3)ccc2CC1C(=O)NC1CCCc2ccccc21)C(C)(C)C

> <Shape>
0.246

> <Color>
0.198

> <Negative vol penalty>
0.000

$$$$

  -OEChem-04042320403D

 79 87  0     1  0  0  0  0  0999 V2000
  -24.5991  -33.2166   18.5648 C   0  0  0  0  0  0  0  0  0  0  0  0
  -25.2515  -32.2005   17.8740 C   0  0  0  0  0  0  0  0  0  0  0  0
  -27.8793  -15.8726   15.2230 C   0  0  0  0  0  0  0  0  0  0  0  0
  -23.1997   -9.7421   19.9513 C   0  0  0  0  0  0  0  0  0  0  0  0
  -23.4797  -10.0295   22.3338 C   0  0  0  0  0  0  0  0  0  0  0  0
  -28.7495  -14.9904   15.8633 C   0  0  0  0  0  0  0  0  0  0  0  0
  -24.1869  -33.0102   19.8807 C   0  0  0  0  0  0  0  0  0  0  0  0
  -25.4931  -30.9776   18.4991 C   0  0  0  0  0  0  0  0  0  0  0  0
  -25.9716  -23.9748   17.0682 C   0  0  0  0  0  0  0  0  0  0  0  0
  -27.4562  -17.0310   15.8747 C   0  0  0  0  0  0  0  0  0  0  0  0
  -22.4150   -8.6118   20.1799 C   0  0  0  0  0  0  0  0  0  0  0  0
  -22.6950   -8.8993   22.5623 C   0  0  0  0  0  0  0  0  0  0  0  0
  -26.8335  -22.8944   17.2517 C   0  0  0  0  0  0  0  0  0  0  0  0
  -23.0764   -5.5412   22.4692 C   0  0  0  0  0  0  0  0  0  0  0  0
  -23.5288   -4.6179   23.4118 C   0  0  0  0  0  0  0  0  0  0  0  0
  -28.7735  -16.4248   17.8071 C   0  0  0  0  0  0  0  0  0  0  0  0
  -26.0058  -22.6239   19.5014 C   0  0  0  0  0  0  0  0  0  0  0  0
  -21.5180   -4.9560   24.7079 C   0  0  0  0  0  0  0  0  0  0  0  0
  -23.7321  -10.4510   21.0283 C   0  0  0  0  0  0  0  0  0  0  0  0
  -29.1966  -15.2665   17.1554 C   0  0  0  0  0  0  0  0  0  0  0  0
  -24.1036  -12.9512   20.6839 C   0  0  0  0  0  0  0  0  0  0  0  0
  -24.4149  -31.7809   20.5189 C   0  0  0  0  0  0  0  0  0  0  0  0
  -25.1267  -24.3954   18.1054 C   0  0  0  0  0  0  0  0  0  0  0  0
  -25.0847  -30.7550   19.8251 C   0  0  0  0  0  0  0  0  0  0  0  0
  -25.1323  -23.7083   19.3276 C   0  0  0  0  0  0  0  0  0  0  0  0
  -27.9033  -17.3071   17.1668 C   0  0  0  0  0  0  0  0  0  0  0  0
  -22.1626   -8.1904   21.4854 C   0  0  0  0  0  0  0  0  0  0  0  0
  -26.8528  -22.2206   18.4694 C   0  0  0  0  0  0  0  0  0  0  0  0
  -21.8448   -6.1719   22.6459 C   0  0  0  0  0  0  0  0  0  0  0  0
  -22.7496   -4.3253   24.5312 C   0  0  0  0  0  0  0  0  0  0  0  0
  -21.0657   -5.8793   23.7653 C   0  0  0  0  0  0  0  0  0  0  0  0
  -24.5433  -11.6183   20.7928 C   0  0  0  0  0  0  0  0  0  0  0  0
  -25.2503  -13.6741   20.4627 C   0  0  0  0  0  0  0  0  0  0  0  0
  -30.1121  -14.3367   17.8294 C   0  0  0  0  0  0  0  0  0  0  0  0
  -22.7771  -13.4879   20.7745 C   0  0  0  0  0  0  0  0  0  0  0  0
  -24.8053  -27.0708   19.7914 C   0  0  0  0  0  0  0  0  0  0  0  0
  -22.2203  -25.5333   21.0063 C   0  0  0  0  0  0  0  0  0  0  0  0
  -20.6535  -22.5733   21.6621 C   0  0  0  0  0  0  0  0  0  0  0  0
  -23.9931  -31.6209   21.9581 C   0  0  0  0  0  0  0  0  0  0  0  0
  -24.1836  -25.5458   17.8825 C   0  0  0  0  0  0  0  0  0  0  0  0
  -24.2304  -24.1075   20.4659 C   0  0  0  0  0  0  0  0  0  0  0  0
  -23.9539  -30.1675   22.4233 C   0  0  0  0  0  0  0  0  0  0  0  0
  -30.1166  -12.3352   20.7850 C   0  0  0  0  0  0  0  0  0  0  0  0
  -25.2185  -29.4335   21.9888 C   0  0  0  0  0  0  0  0  0  0  0  0
  -28.6322  -12.0614   21.0333 C   0  0  0  0  0  0  0  0  0  0  0  0
  -30.4410  -12.3727   19.2938 C   0  0  0  0  0  0  0  0  0  0  0  0
  -28.1234  -13.0393   18.7562 C   0  0  0  0  0  0  0  0  0  0  0  0
  -25.3430  -29.4061   20.4606 C   0  0  1  0  0  0  0  0  0  0  0  0
  -23.7354  -26.2109   19.1802 C   0  0  1  0  0  0  0  0  0  0  0  0
  -27.7445  -13.0438   20.2463 C   0  0  1  0  0  0  0  0  0  0  0  0
  -18.5691  -21.6348   22.6975 C   0  0  0  0  0  0  0  0  0  0  0  0
  -23.3568  -26.0808   23.7845 C   0  0  0  0  0  0  0  0  0  0  0  0
  -21.7927  -24.3480   24.6896 C   0  0  0  0  0  0  0  0  0  0  0  0
  -20.8832  -26.3936   23.5890 C   0  0  0  0  0  0  0  0  0  0  0  0
  -19.8116  -21.3236   19.1148 C   0  0  0  0  0  0  0  0  0  0  0  0
  -27.8953  -18.8208   19.1503 C   0  0  0  0  0  0  0  0  0  0  0  0
  -27.2692  -20.1453   19.5537 C   0  0  0  0  0  0  0  0  0  1  0  0
  -21.9781  -24.6074   22.1738 C   0  0  1  0  0  0  0  0  0  0  0  0
  -19.2293  -22.1105   21.4128 C   0  0  2  0  0  0  0  0  0  0  0  0
  -22.0212  -25.3509   23.5387 C   0  0  0  0  0  0  0  0  0  0  0  0
  -25.8661  -11.4986   20.6523 N   0  0  0  0  0  0  0  0  0  0  0  0
  -26.2675  -12.7656   20.4527 N   0  0  0  0  0  0  0  0  0  0  0  0
  -29.5594  -13.3078   18.5958 N   0  0  0  0  0  0  0  0  0  0  0  0
  -23.3307  -25.2425   20.2013 N   0  0  0  0  0  0  0  0  0  0  0  0
  -25.4776  -14.9918   20.2777 N   0  0  0  0  0  0  0  0  0  0  0  0
  -21.7134  -12.6049   21.0053 N   0  0  0  0  0  0  0  0  0  0  0  0
  -27.4827  -18.4571   17.8141 N   0  0  0  0  0  0  0  0  0  0  0  0
  -24.4615  -28.4048   19.8997 N   0  0  0  0  0  0  0  0  0  0  0  0
  -20.7151  -23.9296   21.9022 N   0  0  0  0  0  0  0  0  0  0  0  0
  -19.2135  -20.9880   20.4327 N   0  3  0  0  0  0  0  0  0  0  0  0
  -31.3137  -14.5481   17.6731 O   0  0  0  0  0  0  0  0  0  0  0  0
  -22.5402  -14.7121   20.6381 O   0  0  0  0  0  0  0  0  0  0  0  0
  -25.8638  -26.5614   20.1403 O   0  0  0  0  0  0  0  0  0  0  0  0
  -21.4483  -26.4755   20.8115 O   0  0  0  0  0  0  0  0  0  0  0  0
  -21.6146  -21.8074   21.6491 O   0  0  0  0  0  0  0  0  0  0  0  0
  -21.3967   -7.0876   21.7088 O   0  0  0  0  0  0  0  0  0  0  0  0
  -27.6936  -21.1662   18.6514 O   0  0  0  0  0  0  0  0  0  1  0  0
  -23.1835   -3.4376   25.4355 F   0  0  0  0  0  0  0  0  0  0  0  0
  -19.8811   -6.4811   23.9399 F   0  0  0  0  0  0  0  0  0  0  0  0
  1  2  1  0  0  0  0
  1  7  2  0  0  0  0
  2  8  2  0  0  0  0
  3  6  1  0  0  0  0
  3 10  2  0  0  0  0
  4 11  2  0  0  0  0
  4 19  1  0  0  0  0
  5 12  1  0  0  0  0
  5 19  2  0  0  0  0
  6 20  2  0  0  0  0
  7 22  1  0  0  0  0
  8 24  1  0  0  0  0
  9 13  2  0  0  0  0
  9 23  1  0  0  0  0
 10 26  1  0  0  0  0
 11 27  1  0  0  0  0
 12 27  2  0  0  0  0
 13 28  1  0  0  0  0
 14 15  2  0  0  0  0
 14 29  1  0  0  0  0
 15 30  1  0  0  0  0
 16 20  1  0  0  0  0
 16 26  2  0  0  0  0
 17 25  1  0  0  0  0
 17 28  2  0  0  0  0
 18 30  2  0  0  0  0
 18 31  1  0  0  0  0
 19 32  1  0  0  0  0
 20 34  1  0  0  0  0
 21 32  1  0  0  0  0
 21 33  2  0  0  0  0
 21 35  1  0  0  0  0
 22 24  2  0  0  0  0
 22 39  1  0  0  0  0
 23 25  2  0  0  0  0
 23 40  1  0  0  0  0
 24 48  1  0  0  0  0
 25 41  1  0  0  0  0
 26 67  1  0  0  0  0
 27 76  1  0  0  0  0
 28 77  1  0  0  0  0
 29 31  2  0  0  0  0
 29 76  1  0  0  0  0
 30 78  1  0  0  0  0
 31 79  1  0  0  0  0
 32 61  2  0  0  0  0
 33 62  1  0  0  0  0
 33 65  1  0  0  0  0
 34 63  1  0  0  0  0
 34 71  2  0  0  0  0
 35 66  1  0  0  0  0
 35 72  2  0  0  0  0
 36 49  1  0  0  0  0
 36 68  1  0  0  0  0
 36 73  2  0  0  0  0
 37 58  1  0  0  0  0
 37 64  1  0  0  0  0
 37 74  2  0  0  0  0
 38 59  1  0  0  0  0
 38 69  1  0  0  0  0
 38 75  2  0  0  0  0
 39 42  1  0  0  0  0
 40 49  1  0  0  0  0
 41 64  1  0  0  0  0
 42 44  1  0  0  0  0
 43 45  1  0  0  0  0
 43 46  1  0  0  0  0
 44 48  1  0  0  0  0
 45 50  1  0  0  0  0
 46 63  1  0  0  0  0
 47 50  1  0  0  0  0
 47 63  1  0  0  0  0
 48 68  1  0  0  0  0
 49 64  1  0  0  0  0
 50 62  1  0  0  0  0
 51 59  1  0  0  0  0
 52 60  1  0  0  0  0
 53 60  1  0  0  0  0
 54 60  1  0  0  0  0
 55 70  1  0  0  0  0
 56 57  1  0  0  0  0
 56 67  1  0  0  0  0
 57 77  1  0  0  0  0
 58 60  1  0  0  0  0
 58 69  1  0  0  0  0
 59 70  1  0  0  0  0
 61 62  1  0  0  0  0
M  CHG  1  70   1
M  ISO  4  20 100  34 100  57 101  77 101
M  END
> <Batch ID>
0010

> <Smiles>
CNC(C)C(=O)NC(C(=O)N1Cc2cc([101O:1][101CH2:1]CNc3ccc[100c:0]([100C:0](=O)N4CCCC(n5nc(-c6ccc(Oc7ccc(F)cc7F)cc6)c(C(N)=O)c5N)C4)c3)ccc2CC1C(=O)NC1CCCc2ccccc21)C(C)(C)C

> <Shape>
0.232

> <Color>
0.208

> <Negative vol penalty>
0.000

$$$$

  -OEChem-04042320403D

 86 94  0     1  0  0  0  0  0999 V2000
  -18.8904  -33.6321   24.2703 C   0  0  0  0  0  0  0  0  0  0  0  0
  -19.0920  -32.6506   23.3052 C   0  0  0  0  0  0  0  0  0  0  0  0
  -22.6161  -19.2444   18.6542 C   0  0  0  0  0  0  0  0  0  0  0  0
  -24.5205   -9.1381   21.5869 C   0  0  0  0  0  0  0  0  0  0  0  0
  -23.8800  -10.8590   23.1569 C   0  0  0  0  0  0  0  0  0  0  0  0
  -19.8730  -34.5941   24.5004 C   0  0  0  0  0  0  0  0  0  0  0  0
  -20.2759  -32.6312   22.5688 C   0  0  0  0  0  0  0  0  0  0  0  0
  -22.2336  -27.9788   22.1599 C   0  0  0  0  0  0  0  0  0  0  0  0
  -22.1282  -20.2967   17.8795 C   0  0  0  0  0  0  0  0  0  0  0  0
  -23.9764  -18.9365   18.6350 C   0  0  0  0  0  0  0  0  0  0  0  0
  -24.0443   -8.1621   22.4623 C   0  0  0  0  0  0  0  0  0  0  0  0
  -23.4037   -9.8831   24.0324 C   0  0  0  0  0  0  0  0  0  0  0  0
  -21.6489  -27.1215   21.2288 C   0  0  0  0  0  0  0  0  0  0  0  0
  -21.0532   -6.8628   23.3556 C   0  0  0  0  0  0  0  0  0  0  0  0
  -20.2742   -5.8368   22.8208 C   0  0  0  0  0  0  0  0  0  0  0  0
  -23.4286  -27.6060   19.6741 C   0  0  0  0  0  0  0  0  0  0  0  0
  -24.3609  -20.7331   17.0662 C   0  0  0  0  0  0  0  0  0  0  0  0
  -21.8864   -4.2109   23.5916 C   0  0  0  0  0  0  0  0  0  0  0  0
  -24.4384  -10.4865   21.9342 C   0  0  0  0  0  0  0  0  0  0  0  0
  -24.2095  -12.1526   20.0160 C   0  0  0  0  0  0  0  0  0  0  0  0
  -21.0737  -34.5807   23.7732 C   0  0  0  0  0  0  0  0  0  0  0  0
  -23.4164  -28.6656   21.8505 C   0  0  0  0  0  0  0  0  0  0  0  0
  -21.2750  -33.5948   22.7884 C   0  0  0  0  0  0  0  0  0  0  0  0
  -24.0277  -28.4694   20.6040 C   0  0  0  0  0  0  0  0  0  0  0  0
  -23.0006  -21.0410   17.0855 C   0  0  0  0  0  0  0  0  0  0  0  0
  -24.8488  -19.6808   17.8409 C   0  0  0  0  0  0  0  0  0  0  0  0
  -23.4859   -8.5346   23.6850 C   0  0  0  0  0  0  0  0  0  0  0  0
  -22.2448  -26.9372   19.9846 C   0  0  0  0  0  0  0  0  0  0  0  0
  -22.2489   -6.5629   24.0083 C   0  0  0  0  0  0  0  0  0  0  0  0
  -20.6908   -4.5108   22.9388 C   0  0  0  0  0  0  0  0  0  0  0  0
  -22.6655   -5.2369   24.1264 C   0  0  0  0  0  0  0  0  0  0  0  0
  -24.9307  -11.4951   21.0306 C   0  0  0  0  0  0  0  0  0  0  0  0
  -25.1197  -13.0104   19.4484 C   0  0  0  0  0  0  0  0  0  0  0  0
  -22.8393  -12.0015   19.6219 C   0  0  0  0  0  0  0  0  0  0  0  0
  -24.2297  -31.7274   21.5904 C   0  0  0  0  0  0  0  0  0  0  0  0
  -29.1900  -16.8017   20.0386 C   0  0  0  0  0  0  0  0  0  0  0  0
  -27.2096  -30.5011   21.2177 C   0  0  0  0  0  0  0  0  0  0  0  0
  -21.9699  -24.1128   17.7274 C   0  0  0  0  0  0  0  0  0  0  0  0
  -29.1591  -27.8463   20.3241 C   0  0  0  0  0  0  0  0  0  0  0  0
  -22.0866  -35.6696   24.0242 C   0  0  0  0  0  0  0  0  0  0  0  0
  -24.0489  -29.5662   22.8759 C   0  0  0  0  0  0  0  0  0  0  0  0
  -25.3089  -29.1676   20.2304 C   0  0  0  0  0  0  0  0  0  0  0  0
  -23.4707  -35.3553   23.4623 C   0  0  0  0  0  0  0  0  0  0  0  0
  -30.1292  -13.3439   19.9982 C   0  0  0  0  0  0  0  0  0  0  0  0
  -23.3606  -34.8306   22.0343 C   0  0  0  0  0  0  0  0  0  0  0  0
  -28.8057  -12.6100   20.2101 C   0  0  0  0  0  0  0  0  0  0  0  0
  -30.1713  -14.6553   20.7764 C   0  0  0  0  0  0  0  0  0  0  0  0
  -27.7055  -14.8420   20.6923 C   0  0  0  0  0  0  0  0  0  0  0  0
  -22.5564  -33.5257   21.9864 C   0  0  1  0  0  0  0  0  0  0  0  0
  -24.9768  -30.6105   22.2627 C   0  0  1  0  0  0  0  0  0  0  0  0
  -27.6093  -13.5267   19.8992 C   0  0  2  0  0  0  0  0  0  0  0  0
  -31.5604  -27.1572   20.0871 C   0  0  0  0  0  0  0  0  0  0  0  0
  -27.4158  -32.1160   18.6371 C   0  0  0  0  0  0  0  0  0  0  0  0
  -29.3672  -30.6905   17.9830 C   0  0  0  0  0  0  0  0  0  0  0  0
  -29.4917  -32.1083   20.0316 C   0  0  0  0  0  0  0  0  0  0  0  0
  -28.8591  -25.6901   22.3291 C   0  0  0  0  0  0  0  0  0  0  0  0
  -27.2939  -21.2729   19.0551 C   0  0  0  0  0  0  0  0  0  0  0  0
  -22.4748  -22.1745   16.2530 C   0  0  0  0  0  0  0  0  0  0  0  0
  -26.3033  -19.3510   17.8199 C   0  0  0  0  0  0  0  0  0  0  0  0
  -27.9433  -17.5956   19.7393 C   0  0  0  0  0  0  0  0  0  0  0  0
  -22.5525  -25.4406   18.1622 C   0  0  0  0  0  0  0  0  0  1  0  0
  -28.2888  -19.0012   19.2815 C   0  0  0  0  0  0  0  0  0  0  0  0
  -28.0368  -30.0407   20.0418 C   0  0  1  0  0  0  0  0  0  0  0  0
  -30.3493  -27.1959   21.0060 C   0  0  2  0  0  0  0  0  0  0  0  0
  -28.5527  -31.2271   19.1794 C   0  0  0  0  0  0  0  0  0  0  0  0
  -26.2012  -11.9004   21.1056 N   0  0  0  0  0  0  0  0  0  0  0  0
  -26.2855  -12.8216   20.1308 N   0  0  0  0  0  0  0  0  0  0  0  0
  -25.8853  -30.0428   21.2645 N   0  0  0  0  0  0  0  0  0  0  0  0
  -29.0067  -15.4880   20.4704 N   0  0  0  0  0  0  0  0  0  0  0  0
  -25.0287  -13.9000   18.4372 N   0  0  0  0  0  0  0  0  0  0  0  0
  -22.0440  -11.0757   20.3110 N   0  0  0  0  0  0  0  0  0  0  0  0
  -23.3708  -32.4137   22.4275 N   0  0  0  0  0  0  0  0  0  0  0  0
  -22.7969  -23.4609   16.8261 N   0  0  0  0  0  0  0  0  0  0  0  0
  -29.0932  -29.1975   20.5910 N   0  0  0  0  0  0  0  0  0  0  0  0
  -30.0177  -25.7991   21.4056 N   0  3  0  0  0  0  0  0  0  0  0  0
  -27.0264  -19.7898   19.0453 N   0  3  1  0  0  0  0  0  0  0  0  0
  -22.3395  -12.6558   18.6756 O   0  0  0  0  0  0  0  0  0  0  0  0
  -24.4196  -31.9510   20.4006 O   0  0  0  0  0  0  0  0  0  0  0  0
  -30.2930  -17.3341   19.8896 O   0  0  0  0  0  0  0  0  0  0  0  0
  -27.7217  -31.2343   22.0673 O   0  0  0  0  0  0  0  0  0  0  0  0
  -20.8923  -23.6930   18.1403 O   0  0  0  0  0  0  0  0  0  0  0  0
  -28.3693  -27.2192   19.6217 O   0  0  0  0  0  0  0  0  0  0  0  0
  -23.0208   -7.5826   24.5394 O   0  0  0  0  0  0  0  0  0  0  0  0
  -21.6758  -26.1016   19.0737 O   0  0  0  0  0  0  0  0  0  1  0  0
  -19.9418   -3.5255   22.4266 F   0  0  0  0  0  0  0  0  0  0  0  0
  -23.8127   -4.9425   24.7534 F   0  0  0  0  0  0  0  0  0  0  0  0
  1  2  1  0  0  0  0
  1  6  2  0  0  0  0
  2  7  2  0  0  0  0
  3  9  2  0  0  0  0
  3 10  1  0  0  0  0
  4 11  2  0  0  0  0
  4 19  1  0  0  0  0
  5 12  1  0  0  0  0
  5 19  2  0  0  0  0
  6 21  1  0  0  0  0
  7 23  1  0  0  0  0
  8 13  2  0  0  0  0
  8 22  1  0  0  0  0
  9 25  1  0  0  0  0
 10 26  2  0  0  0  0
 11 27  1  0  0  0  0
 12 27  2  0  0  0  0
 13 28  1  0  0  0  0
 14 15  2  0  0  0  0
 14 29  1  0  0  0  0
 15 30  1  0  0  0  0
 16 24  1  0  0  0  0
 16 28  2  0  0  0  0
 17 25  2  0  0  0  0
 17 26  1  0  0  0  0
 18 30  2  0  0  0  0
 18 31  1  0  0  0  0
 19 32  1  0  0  0  0
 20 32  1  0  0  0  0
 20 33  2  0  0  0  0
 20 34  1  0  0  0  0
 21 23  2  0  0  0  0
 21 40  1  0  0  0  0
 22 24  2  0  0  0  0
 22 41  1  0  0  0  0
 23 49  1  0  0  0  0
 24 42  1  0  0  0  0
 25 58  1  0  0  0  0
 26 59  1  0  0  0  0
 27 83  1  0  0  0  0
 28 84  1  0  0  0  0
 29 31  2  0  0  0  0
 29 83  1  0  0  0  0
 30 85  1  0  0  0  0
 31 86  1  0  0  0  0
 32 66  2  0  0  0  0
 33 67  1  0  0  0  0
 33 70  1  0  0  0  0
 34 71  1  0  0  0  0
 34 77  2  0  0  0  0
 35 50  1  0  0  0  0
 35 72  1  0  0  0  0
 35 78  2  0  0  0  0
 36 60  1  0  0  0  0
 36 69  1  0  0  0  0
 36 79  2  0  0  0  0
 37 63  1  0  0  0  0
 37 68  1  0  0  0  0
 37 80  2  0  0  0  0
 38 61  1  0  0  0  0
 38 73  1  0  0  0  0
 38 81  2  0  0  0  0
 39 64  1  0  0  0  0
 39 74  1  0  0  0  0
 39 82  2  0  0  0  0
 40 43  1  0  0  0  0
 41 50  1  0  0  0  0
 42 68  1  0  0  0  0
 43 45  1  0  0  0  0
 44 46  1  0  0  0  0
 44 47  1  0  0  0  0
 45 49  1  0  0  0  0
 46 51  1  0  0  0  0
 47 69  1  0  0  0  0
 48 51  1  0  0  0  0
 48 69  1  0  0  0  0
 49 72  1  0  0  0  0
 50 68  1  0  0  0  0
 51 67  1  0  0  0  0
 52 64  1  0  0  0  0
 53 65  1  0  0  0  0
 54 65  1  0  0  0  0
 55 65  1  0  0  0  0
 56 75  1  0  0  0  0
 57 76  1  0  0  0  0
 58 73  1  0  0  0  0
 59 76  1  0  0  0  0
 60 62  1  0  0  0  0
 61 84  1  0  0  0  0
 62 76  1  0  0  0  0
 63 65  1  0  0  0  0
 63 74  1  0  0  0  0
 64 75  1  0  0  0  0
 66 67  1  0  0  0  0
M  CHG  2  75   1  76   1
M  ISO  4  36 100  60 100  61 101  84 101
M  END
> <Batch ID>
0010

> <Smiles>
CNC(C)C(=O)NC(C(=O)N1Cc2cc([101O:1][101CH2:1]C(=O)NCc3cccc(CN(C)C[100CH2:0][100C:0](=O)N4CCCC(n5nc(-c6ccc(Oc7ccc(F)cc7F)cc6)c(C(N)=O)c5N)C4)c3)ccc2CC1C(=O)NC1CCCc2ccccc21)C(C)(C)C

> <Shape>
0.244

> <Color>
0.085

> <Negative vol penalty>
0.000

$$$$

  -OEChem-04042320403D

 84 93  0     1  0  0  0  0  0999 V2000
  -29.3517  -34.2533   22.1052 C   0  0  0  0  0  0  0  0  0  0  0  0
  -30.3401  -33.4664   22.6876 C   0  0  0  0  0  0  0  0  0  0  0  0
  -22.9909  -10.0128   19.8766 C   0  0  0  0  0  0  0  0  0  0  0  0
  -23.8660   -9.7632   22.1147 C   0  0  0  0  0  0  0  0  0  0  0  0
  -28.0742  -33.7315   21.9058 C   0  0  0  0  0  0  0  0  0  0  0  0
  -30.0513  -32.1575   23.0719 C   0  0  0  0  0  0  0  0  0  0  0  0
  -33.1005  -25.6985   23.6211 C   0  0  0  0  0  0  0  0  0  0  0  0
  -32.9984  -16.9542   23.6382 C   0  0  0  0  0  0  0  0  0  0  0  0
  -32.3245  -16.1957   22.6678 C   0  0  0  0  0  0  0  0  0  0  0  0
  -22.2218   -8.8620   20.0489 C   0  0  0  0  0  0  0  0  0  0  0  0
  -23.0969   -8.6123   22.2870 C   0  0  0  0  0  0  0  0  0  0  0  0
  -33.2900  -24.6721   24.5453 C   0  0  0  0  0  0  0  0  0  0  0  0
  -19.8782   -7.8500   22.9794 C   0  0  0  0  0  0  0  0  0  0  0  0
  -19.1807   -7.7121   24.1794 C   0  0  0  0  0  0  0  0  0  0  0  0
  -31.0701  -23.8509   24.0795 C   0  0  0  0  0  0  0  0  0  0  0  0
  -20.3913   -5.6746   24.6489 C   0  0  0  0  0  0  0  0  0  0  0  0
  -23.8130  -10.4634   20.9095 C   0  0  0  0  0  0  0  0  0  0  0  0
  -24.2340  -12.9767   21.0262 C   0  0  0  0  0  0  0  0  0  0  0  0
  -27.7723  -32.4124   22.2790 C   0  0  0  0  0  0  0  0  0  0  0  0
  -31.8882  -25.8156   22.9259 C   0  0  0  0  0  0  0  0  0  0  0  0
  -28.7683  -31.6180   22.8785 C   0  0  0  0  0  0  0  0  0  0  0  0
  -30.8686  -24.8783   23.1451 C   0  0  0  0  0  0  0  0  0  0  0  0
  -30.9086  -17.7948   24.4291 C   0  0  0  0  0  0  0  0  0  0  0  0
  -30.2367  -17.0381   23.4619 C   0  0  0  0  0  0  0  0  0  0  0  0
  -32.2889  -17.7577   24.5334 C   0  0  0  0  0  0  0  0  0  0  0  0
  -30.9312  -16.2293   22.5785 C   0  0  0  0  0  0  0  0  0  0  0  0
  -22.2748   -8.1617   21.2541 C   0  0  0  0  0  0  0  0  0  0  0  0
  -32.2737  -23.7497   24.7767 C   0  0  0  0  0  0  0  0  0  0  0  0
  -20.8322   -6.9001   22.6140 C   0  0  0  0  0  0  0  0  0  0  0  0
  -19.4373   -6.6245   25.0142 C   0  0  0  0  0  0  0  0  0  0  0  0
  -21.0887   -5.8125   23.4488 C   0  0  0  0  0  0  0  0  0  0  0  0
  -24.6081  -11.6519   20.7319 C   0  0  0  0  0  0  0  0  0  0  0  0
  -25.3312  -13.7278   20.6819 C   0  0  0  0  0  0  0  0  0  0  0  0
  -23.0047  -13.4832   21.5629 C   0  0  0  0  0  0  0  0  0  0  0  0
  -29.6063  -28.0215   22.7516 C   0  0  0  0  0  0  0  0  0  0  0  0
  -28.4315  -26.0646   20.4467 C   0  0  0  0  0  0  0  0  0  0  0  0
  -28.2617  -22.9239   19.1224 C   0  0  0  0  0  0  0  0  0  0  0  0
  -30.8316  -14.5928   20.6659 C   0  0  0  0  0  0  0  0  0  0  0  0
  -26.3641  -31.9078   22.0869 C   0  0  0  0  0  0  0  0  0  0  0  0
  -31.7094  -26.9127   21.9127 C   0  0  0  0  0  0  0  0  0  0  0  0
  -29.9391  -18.5425   25.2888 C   0  0  0  0  0  0  0  0  0  0  0  0
  -28.7556  -17.2087   23.5860 C   0  0  0  0  0  0  0  0  0  0  0  0
  -29.5560  -24.9479   22.4098 C   0  0  0  0  0  0  0  0  0  0  0  0
  -26.2433  -30.3889   22.1793 C   0  0  0  0  0  0  0  0  0  0  0  0
  -28.6737  -18.4969   24.4189 C   0  0  0  0  0  0  0  0  0  0  0  0
  -29.5169  -12.4671   18.1301 C   0  0  0  0  0  0  0  0  0  0  0  0
  -27.0046  -29.8658   23.3932 C   0  0  0  0  0  0  0  0  0  0  0  0
  -28.0919  -12.1745   18.6051 C   0  0  0  0  0  0  0  0  0  0  0  0
  -30.4991  -12.5453   19.2975 C   0  0  0  0  0  0  0  0  0  0  0  0
  -28.6905  -13.1790   20.8456 C   0  0  0  0  0  0  0  0  0  0  0  0
  -28.5005  -30.1854   23.2861 C   0  0  1  0  0  0  0  0  0  0  0  0
  -30.2448  -27.2399   21.6385 C   0  0  1  0  0  0  0  0  0  0  0  0
  -27.6538  -13.1552   19.7105 C   0  0  2  0  0  0  0  0  0  0  0  0
  -27.1916  -21.6266   17.2598 C   0  0  0  0  0  0  0  0  0  0  0  0
  -25.7857  -26.0697   21.9665 C   0  0  0  0  0  0  0  0  0  0  0  0
  -25.0949  -24.0677   20.6312 C   0  0  0  0  0  0  0  0  0  0  0  0
  -25.5613  -26.2315   19.4809 C   0  0  0  0  0  0  0  0  0  0  0  0
  -30.8864  -22.2071   17.9579 C   0  0  0  0  0  0  0  0  0  0  0  0
  -33.0191  -18.5500   25.5774 C   0  0  0  0  0  0  0  0  0  0  0  0
  -33.7534  -20.8229   26.3079 C   0  0  0  0  0  0  0  0  0  0  0  0
  -33.7887  -22.2707   25.8598 C   0  0  0  0  0  0  0  0  0  1  0  0
  -27.4852  -24.8886   20.4230 C   0  0  1  0  0  0  0  0  0  0  0  0
  -28.4116  -22.4220   17.6976 C   0  0  2  0  0  0  0  0  0  0  0  0
  -26.0057  -25.3139   20.6408 C   0  0  0  0  0  0  0  0  0  0  0  0
  -25.8461  -11.5631   20.2385 N   0  0  0  0  0  0  0  0  0  0  0  0
  -26.2594  -12.8417   20.2200 N   0  0  0  0  0  0  0  0  0  0  0  0
  -29.4269  -26.0426   21.4338 N   0  0  0  0  0  0  0  0  0  0  0  0
  -30.0208  -13.4965   20.3031 N   0  0  0  0  0  0  0  0  0  0  0  0
  -25.5828  -15.0532   20.7321 N   0  0  0  0  0  0  0  0  0  0  0  0
  -21.9809  -12.5737   21.8610 N   0  0  0  0  0  0  0  0  0  0  0  0
  -30.2585  -15.4474   21.6070 N   0  0  0  0  0  0  0  0  0  0  0  0
  -29.1490  -29.2692   22.3726 N   0  0  0  0  0  0  0  0  0  0  0  0
  -27.7281  -24.1946   19.1628 N   0  0  0  0  0  0  0  0  0  0  0  0
  -29.6110  -21.5453   17.5807 N   0  3  0  0  0  0  0  0  0  0  0  0
  -33.0887  -20.0029   25.2639 N   0  3  0  0  0  0  0  0  0  0  0  0
  -22.8137  -14.7077   21.7566 O   0  0  0  0  0  0  0  0  0  0  0  0
  -29.5328  -27.5286   23.8711 O   0  0  0  0  0  0  0  0  0  0  0  0
  -28.2969  -26.9660   19.6155 O   0  0  0  0  0  0  0  0  0  0  0  0
  -28.5822  -22.2540   20.1017 O   0  0  0  0  0  0  0  0  0  0  0  0
  -31.9406  -14.7760   20.1574 O   0  0  0  0  0  0  0  0  0  0  0  0
  -21.5243   -7.0388   21.4227 O   0  0  0  0  0  0  0  0  0  0  0  0
  -32.4559  -22.7472   25.6787 O   0  0  0  0  0  0  0  0  0  1  0  0
  -18.7685   -6.4930   26.1673 F   0  0  0  0  0  0  0  0  0  0  0  0
  -22.0049   -4.8974   23.1037 F   0  0  0  0  0  0  0  0  0  0  0  0
  1  2  1  0  0  0  0
  1  5  2  0  0  0  0
  2  6  2  0  0  0  0
  3 10  2  0  0  0  0
  3 17  1  0  0  0  0
  4 11  1  0  0  0  0
  4 17  2  0  0  0  0
  5 19  1  0  0  0  0
  6 21  1  0  0  0  0
  7 12  2  0  0  0  0
  7 20  1  0  0  0  0
  8  9  2  0  0  0  0
  8 25  1  0  0  0  0
  9 26  1  0  0  0  0
 10 27  1  0  0  0  0
 11 27  2  0  0  0  0
 12 28  1  0  0  0  0
 13 14  2  0  0  0  0
 13 29  1  0  0  0  0
 14 30  1  0  0  0  0
 15 22  1  0  0  0  0
 15 28  2  0  0  0  0
 16 30  2  0  0  0  0
 16 31  1  0  0  0  0
 17 32  1  0  0  0  0
 18 32  1  0  0  0  0
 18 33  2  0  0  0  0
 18 34  1  0  0  0  0
 19 21  2  0  0  0  0
 19 39  1  0  0  0  0
 20 22  2  0  0  0  0
 20 40  1  0  0  0  0
 21 51  1  0  0  0  0
 22 43  1  0  0  0  0
 23 24  1  0  0  0  0
 23 25  2  0  0  0  0
 23 41  1  0  0  0  0
 24 26  2  0  0  0  0
 24 42  1  0  0  0  0
 25 59  1  0  0  0  0
 26 71  1  0  0  0  0
 27 81  1  0  0  0  0
 28 82  1  0  0  0  0
 29 31  2  0  0  0  0
 29 81  1  0  0  0  0
 30 83  1  0  0  0  0
 31 84  1  0  0  0  0
 32 65  2  0  0  0  0
 33 66  1  0  0  0  0
 33 69  1  0  0  0  0
 34 70  1  0  0  0  0
 34 76  2  0  0  0  0
 35 52  1  0  0  0  0
 35 72  1  0  0  0  0
 35 77  2  0  0  0  0
 36 62  1  0  0  0  0
 36 67  1  0  0  0  0
 36 78  2  0  0  0  0
 37 63  1  0  0  0  0
 37 73  1  0  0  0  0
 37 79  2  0  0  0  0
 38 68  1  0  0  0  0
 38 71  1  0  0  0  0
 38 80  2  0  0  0  0
 39 44  1  0  0  0  0
 40 52  1  0  0  0  0
 41 45  1  0  0  0  0
 42 45  1  0  0  0  0
 43 67  1  0  0  0  0
 44 47  1  0  0  0  0
 46 48  1  0  0  0  0
 46 49  1  0  0  0  0
 47 51  1  0  0  0  0
 48 53  1  0  0  0  0
 49 68  1  0  0  0  0
 50 53  1  0  0  0  0
 50 68  1  0  0  0  0
 51 72  1  0  0  0  0
 52 67  1  0  0  0  0
 53 66  1  0  0  0  0
 54 63  1  0  0  0  0
 55 64  1  0  0  0  0
 56 64  1  0  0  0  0
 57 64  1  0  0  0  0
 58 74  1  0  0  0  0
 59 75  1  0  0  0  0
 60 61  1  0  0  0  0
 60 75  1  0  0  0  0
 61 82  1  0  0  0  0
 62 64  1  0  0  0  0
 62 73  1  0  0  0  0
 63 74  1  0  0  0  0
 65 66  1  0  0  0  0
M  CHG  2  74   1  75   1
M  ISO  4  38 100  61 101  71 100  82 101
M  END
> <Batch ID>
0010

> <Smiles>
CNC(C)C(=O)NC(C(=O)N1Cc2cc([101O:1][101CH2:1]CNCc3ccc([100NH:0][100C:0](=O)N4CCCC(n5nc(-c6ccc(Oc7ccc(F)cc7F)cc6)c(C(N)=O)c5N)C4)c4c3CCC4)ccc2CC1C(=O)NC1CCCc2ccccc21)C(C)(C)C

> <Shape>
0.254

> <Color>
0.201

> <Negative vol penalty>
0.000

$$$$

  -OEChem-04042320403D

 82 90  0     1  0  0  0  0  0999 V2000
  -24.6122  -34.0114   28.0639 C   0  0  0  0  0  0  0  0  0  0  0  0
  -25.4919  -33.1965   27.3586 C   0  0  0  0  0  0  0  0  0  0  0  0
  -24.2567   -9.1059   21.4812 C   0  0  0  0  0  0  0  0  0  0  0  0
  -24.7683  -10.3935   23.4604 C   0  0  0  0  0  0  0  0  0  0  0  0
  -23.2367  -33.8149   27.9481 C   0  0  0  0  0  0  0  0  0  0  0  0
  -24.9966  -32.1839   26.5377 C   0  0  0  0  0  0  0  0  0  0  0  0
  -27.3828  -30.2386   21.2437 C   0  0  0  0  0  0  0  0  0  0  0  0
  -30.2159  -18.8786   20.0778 C   0  0  0  0  0  0  0  0  0  0  0  0
  -23.9218   -8.0121   22.2793 C   0  0  0  0  0  0  0  0  0  0  0  0
  -24.4333   -9.2997   24.2585 C   0  0  0  0  0  0  0  0  0  0  0  0
  -28.1972  -29.1529   20.9246 C   0  0  0  0  0  0  0  0  0  0  0  0
  -30.3965  -20.2134   20.4399 C   0  0  0  0  0  0  0  0  0  0  0  0
  -21.2944   -7.0103   24.1570 C   0  0  0  0  0  0  0  0  0  0  0  0
  -20.1253   -6.3155   23.8470 C   0  0  0  0  0  0  0  0  0  0  0  0
  -26.2451  -27.8791   20.3032 C   0  0  0  0  0  0  0  0  0  0  0  0
  -28.0127  -20.4509   20.7535 C   0  0  0  0  0  0  0  0  0  0  0  0
  -21.4143   -4.3017   23.4998 C   0  0  0  0  0  0  0  0  0  0  0  0
  -24.6800  -10.2966   22.0717 C   0  0  0  0  0  0  0  0  0  0  0  0
  -24.1683  -12.4504   20.8040 C   0  0  0  0  0  0  0  0  0  0  0  0
  -22.7241  -32.8057   27.1179 C   0  0  0  0  0  0  0  0  0  0  0  0
  -25.9903  -30.1489   21.1050 C   0  0  0  0  0  0  0  0  0  0  0  0
  -23.6130  -31.9729   26.4117 C   0  0  0  0  0  0  0  0  0  0  0  0
  -25.4155  -28.9660   20.6188 C   0  0  0  0  0  0  0  0  0  0  0  0
  -28.9336  -18.3299   20.0534 C   0  0  0  0  0  0  0  0  0  0  0  0
  -24.0101   -8.1090   23.6679 C   0  0  0  0  0  0  0  0  0  0  0  0
  -27.6281  -27.9719   20.4571 C   0  0  0  0  0  0  0  0  0  0  0  0
  -29.2950  -20.9996   20.7778 C   0  0  0  0  0  0  0  0  0  0  0  0
  -22.5234   -6.3509   24.1383 C   0  0  0  0  0  0  0  0  0  0  0  0
  -20.1853   -4.9612   23.5185 C   0  0  0  0  0  0  0  0  0  0  0  0
  -27.8321  -19.1160   20.3913 C   0  0  0  0  0  0  0  0  0  0  0  0
  -22.5834   -4.9966   23.8098 C   0  0  0  0  0  0  0  0  0  0  0  0
  -25.0267  -11.4267   21.2478 C   0  0  0  0  0  0  0  0  0  0  0  0
  -24.9747  -13.2760   20.0594 C   0  0  0  0  0  0  0  0  0  0  0  0
  -22.7672  -12.6382   21.0434 C   0  0  0  0  0  0  0  0  0  0  0  0
  -23.5206  -30.3437   23.0966 C   0  0  0  0  0  0  0  0  0  0  0  0
  -21.7957  -30.1726   20.3547 C   0  0  0  0  0  0  0  0  0  0  0  0
  -21.6387  -29.2028   17.0865 C   0  0  0  0  0  0  0  0  0  0  0  0
  -29.7411  -16.0584   19.3221 C   0  0  0  0  0  0  0  0  0  0  0  0
  -21.2309  -32.6009   27.0614 C   0  0  0  0  0  0  0  0  0  0  0  0
  -25.1278  -31.3381   21.4281 C   0  0  0  0  0  0  0  0  0  0  0  0
  -23.9275  -28.8254   20.4328 C   0  0  0  0  0  0  0  0  0  0  0  0
  -20.7774  -31.7478   25.8795 C   0  0  0  0  0  0  0  0  0  0  0  0
  -29.7068  -12.6236   18.3850 C   0  0  0  0  0  0  0  0  0  0  0  0
  -21.6503  -30.5032   25.7534 C   0  0  0  0  0  0  0  0  0  0  0  0
  -28.4155  -12.0902   19.0097 C   0  0  0  0  0  0  0  0  0  0  0  0
  -30.3849  -13.6587   19.2809 C   0  0  0  0  0  0  0  0  0  0  0  0
  -28.2331  -14.2360   20.3323 C   0  0  0  0  0  0  0  0  0  0  0  0
  -23.1136  -30.8799   25.4919 C   0  0  1  0  0  0  0  0  0  0  0  0
  -23.6820  -30.9615   21.7365 C   0  0  1  0  0  0  0  0  0  0  0  0
  -27.4802  -13.2383   19.4372 C   0  0  2  0  0  0  0  0  0  0  0  0
  -20.0851  -29.1624   15.1161 C   0  0  0  0  0  0  0  0  0  0  0  0
  -20.2767  -27.8395   21.6034 C   0  0  0  0  0  0  0  0  0  0  0  0
  -19.4426  -27.2500   19.3175 C   0  0  0  0  0  0  0  0  0  0  0  0
  -18.8500  -29.4513   20.3303 C   0  0  0  0  0  0  0  0  0  0  0  0
  -23.4541  -30.8939   15.4731 C   0  0  0  0  0  0  0  0  0  0  0  0
  -28.9589  -24.6088   20.6297 C   0  0  0  0  0  0  0  0  0  0  0  0
  -27.8587  -25.6093   20.3123 C   0  0  0  0  0  0  0  0  0  1  0  0
  -28.4097  -23.2060   20.8371 C   0  0  0  0  0  0  0  0  0  0  0  0
  -21.2136  -29.0531   19.5260 C   0  0  1  0  0  0  0  0  0  0  0  0
  -21.1770  -29.9352   15.8395 C   0  0  2  0  0  0  0  0  0  0  0  0
  -19.9736  -28.4001   20.1995 C   0  0  0  0  0  0  0  0  0  0  0  0
  -26.2823  -11.5853   20.8207 N   0  0  0  0  0  0  0  0  0  0  0  0
  -26.2187  -12.7183   20.1006 N   0  0  0  0  0  0  0  0  0  0  0  0
  -23.1260  -30.0139   20.7684 N   0  0  0  0  0  0  0  0  0  0  0  0
  -29.4398  -14.7176   19.6419 N   0  0  0  0  0  0  0  0  0  0  0  0
  -24.7340  -14.4175   19.3799 N   0  0  0  0  0  0  0  0  0  0  0  0
  -22.0916  -11.6955   21.8304 N   0  0  0  0  0  0  0  0  0  0  0  0
  -28.7535  -16.9736   19.6850 N   0  0  0  0  0  0  0  0  0  0  0  0
  -23.2983  -31.2591   24.1075 N   0  0  0  0  0  0  0  0  0  0  0  0
  -20.9493  -29.6168   18.2066 N   0  0  0  0  0  0  0  0  0  0  0  0
  -22.3176  -30.1280   14.8999 N   0  3  0  0  0  0  0  0  0  0  0  0
  -22.1296  -13.6042   20.5598 O   0  0  0  0  0  0  0  0  0  0  0  0
  -23.5911  -29.1265   23.2195 O   0  0  0  0  0  0  0  0  0  0  0  0
  -21.0982  -31.1551   20.6191 O   0  0  0  0  0  0  0  0  0  0  0  0
  -22.5198  -28.3462   17.0680 O   0  0  0  0  0  0  0  0  0  0  0  0
  -30.7851  -16.3685   18.7427 O   0  0  0  0  0  0  0  0  0  0  0  0
  -23.6831   -7.0420   24.4471 O   0  0  0  0  0  0  0  0  0  0  0  0
  -28.4206  -26.9104   20.1455 O   0  0  0  0  0  0  0  0  0  1  0  0
  -29.4727  -22.3109   21.1348 O   0  0  0  0  0  0  0  0  0  0  0  0
  -19.0624   -4.2937   23.2223 F   0  0  0  0  0  0  0  0  0  0  0  0
  -26.5952  -18.5992   20.3709 F   0  0  0  0  0  0  0  0  0  0  0  0
  -23.7611   -4.3575   23.7913 F   0  0  0  0  0  0  0  0  0  0  0  0
  1  2  1  0  0  0  0
  1  5  2  0  0  0  0
  2  6  2  0  0  0  0
  3  9  2  0  0  0  0
  3 18  1  0  0  0  0
  4 10  1  0  0  0  0
  4 18  2  0  0  0  0
  5 20  1  0  0  0  0
  6 22  1  0  0  0  0
  7 11  2  0  0  0  0
  7 21  1  0  0  0  0
  8 12  2  0  0  0  0
  8 24  1  0  0  0  0
  9 25  1  0  0  0  0
 10 25  2  0  0  0  0
 11 26  1  0  0  0  0
 12 27  1  0  0  0  0
 13 14  2  0  0  0  0
 13 28  1  0  0  0  0
 14 29  1  0  0  0  0
 15 23  1  0  0  0  0
 15 26  2  0  0  0  0
 16 27  2  0  0  0  0
 16 30  1  0  0  0  0
 17 29  2  0  0  0  0
 17 31  1  0  0  0  0
 18 32  1  0  0  0  0
 19 32  1  0  0  0  0
 19 33  2  0  0  0  0
 19 34  1  0  0  0  0
 20 22  2  0  0  0  0
 20 39  1  0  0  0  0
 21 23  2  0  0  0  0
 21 40  1  0  0  0  0
 22 48  1  0  0  0  0
 23 41  1  0  0  0  0
 24 30  2  0  0  0  0
 24 68  1  0  0  0  0
 25 77  1  0  0  0  0
 26 78  1  0  0  0  0
 27 79  1  0  0  0  0
 28 31  2  0  0  0  0
 28 77  1  0  0  0  0
 29 80  1  0  0  0  0
 30 81  1  0  0  0  0
 31 82  1  0  0  0  0
 32 62  2  0  0  0  0
 33 63  1  0  0  0  0
 33 66  1  0  0  0  0
 34 67  1  0  0  0  0
 34 72  2  0  0  0  0
 35 49  1  0  0  0  0
 35 69  1  0  0  0  0
 35 73  2  0  0  0  0
 36 59  1  0  0  0  0
 36 64  1  0  0  0  0
 36 74  2  0  0  0  0
 37 60  1  0  0  0  0
 37 70  1  0  0  0  0
 37 75  2  0  0  0  0
 38 65  1  0  0  0  0
 38 68  1  0  0  0  0
 38 76  2  0  0  0  0
 39 42  1  0  0  0  0
 40 49  1  0  0  0  0
 41 64  1  0  0  0  0
 42 44  1  0  0  0  0
 43 45  1  0  0  0  0
 43 46  1  0  0  0  0
 44 48  1  0  0  0  0
 45 50  1  0  0  0  0
 46 65  1  0  0  0  0
 47 50  1  0  0  0  0
 47 65  1  0  0  0  0
 48 69  1  0  0  0  0
 49 64  1  0  0  0  0
 50 63  1  0  0  0  0
 51 60  1  0  0  0  0
 52 61  1  0  0  0  0
 53 61  1  0  0  0  0
 54 61  1  0  0  0  0
 55 71  1  0  0  0  0
 56 57  1  0  0  0  0
 56 58  1  0  0  0  0
 57 78  1  0  0  0  0
 58 79  1  0  0  0  0
 59 61  1  0  0  0  0
 59 70  1  0  0  0  0
 60 71  1  0  0  0  0
 62 63  1  0  0  0  0
M  CHG  1  71   1
M  ISO  4  38 100  57 101  68 100  78 101
M  END
> <Batch ID>
0010

> <Smiles>
CNC(C)C(=O)NC(C(=O)N1Cc2cc([101O:1][101CH2:1]CCOc3ccc([100NH:0][100C:0](=O)N4CCCC(n5nc(-c6ccc(Oc7ccc(F)cc7F)cc6)c(C(N)=O)c5N)C4)c(F)c3)ccc2CC1C(=O)NC1CCCc2ccccc21)C(C)(C)C

> <Shape>
0.303

> <Color>
0.145

> <Negative vol penalty>
0.000

$$$$

  -OEChem-04042320403D

 82 91  0     1  0  0  0  0  0999 V2000
  -27.5421  -36.1890   20.8617 C   0  0  0  0  0  0  0  0  0  0  0  0
  -27.9038  -34.8475   20.9320 C   0  0  0  0  0  0  0  0  0  0  0  0
  -33.3542  -23.2231   21.6636 C   0  0  0  0  0  0  0  0  0  0  0  0
  -25.6772  -14.1827   20.1060 C   0  0  0  0  0  0  0  0  0  0  0  0
  -26.8114  -12.3671   21.2260 C   0  0  0  0  0  0  0  0  0  0  0  0
  -26.4016  -36.6381   21.5262 C   0  0  0  0  0  0  0  0  0  0  0  0
  -27.1258  -33.9544   21.6679 C   0  0  0  0  0  0  0  0  0  0  0  0
  -26.2982  -29.6098   19.2013 C   0  0  0  0  0  0  0  0  0  0  0  0
  -33.1897  -21.9013   21.2396 C   0  0  0  0  0  0  0  0  0  0  0  0
  -32.4772  -24.2289   21.2325 C   0  0  0  0  0  0  0  0  0  0  0  0
  -24.6998  -13.2949   19.6565 C   0  0  0  0  0  0  0  0  0  0  0  0
  -25.8339  -11.4793   20.7765 C   0  0  0  0  0  0  0  0  0  0  0  0
  -27.3366  -28.6797   19.1840 C   0  0  0  0  0  0  0  0  0  0  0  0
  -22.6761  -10.6189   21.6181 C   0  0  0  0  0  0  0  0  0  0  0  0
  -22.1631   -9.7029   22.5365 C   0  0  0  0  0  0  0  0  0  0  0  0
  -26.2566  -27.4499   20.9561 C   0  0  0  0  0  0  0  0  0  0  0  0
  -22.9281   -7.8809   21.1464 C   0  0  0  0  0  0  0  0  0  0  0  0
  -26.7330  -13.7188   20.8907 C   0  0  0  0  0  0  0  0  0  0  0  0
  -27.7367  -15.3712   22.5550 C   0  0  0  0  0  0  0  0  0  0  0  0
  -25.6039  -35.7482   22.2627 C   0  0  0  0  0  0  0  0  0  0  0  0
  -25.2348  -29.4727   20.1052 C   0  0  0  0  0  0  0  0  0  0  0  0
  -25.9744  -34.3923   22.3440 C   0  0  0  0  0  0  0  0  0  0  0  0
  -25.2046  -28.3782   20.9812 C   0  0  0  0  0  0  0  0  0  0  0  0
  -31.2624  -22.6125   19.9604 C   0  0  0  0  0  0  0  0  0  0  0  0
  -32.1360  -21.6101   20.3855 C   0  0  0  0  0  0  0  0  0  0  0  0
  -31.4227  -23.9268   20.3704 C   0  0  0  0  0  0  0  0  0  0  0  0
  -24.7782  -11.9432   19.9917 C   0  0  0  0  0  0  0  0  0  0  0  0
  -27.3174  -27.6011   20.0634 C   0  0  0  0  0  0  0  0  0  0  0  0
  -23.3150  -10.1660   20.4638 C   0  0  0  0  0  0  0  0  0  0  0  0
  -22.2891   -8.3339   22.3006 C   0  0  0  0  0  0  0  0  0  0  0  0
  -23.4410   -8.7970   20.2280 C   0  0  0  0  0  0  0  0  0  0  0  0
  -27.7433  -14.6353   21.3549 C   0  0  0  0  0  0  0  0  0  0  0  0
  -28.9097  -16.0852   22.5264 C   0  0  0  0  0  0  0  0  0  0  0  0
  -26.7579  -15.4062   23.6020 C   0  0  0  0  0  0  0  0  0  0  0  0
  -24.0871  -31.2194   22.5000 C   0  0  0  0  0  0  0  0  0  0  0  0
  -21.7453  -28.9748   22.4995 C   0  0  0  0  0  0  0  0  0  0  0  0
  -20.7796  -25.7956   21.7208 C   0  0  0  0  0  0  0  0  0  0  0  0
  -32.5830  -19.2407   19.7824 C   0  0  0  0  0  0  0  0  0  0  0  0
  -24.4065  -36.2892   23.0031 C   0  0  0  0  0  0  0  0  0  0  0  0
  -24.1089  -30.4699   20.0930 C   0  0  0  0  0  0  0  0  0  0  0  0
  -30.2513  -22.0813   18.9965 C   0  0  0  0  0  0  0  0  0  0  0  0
  -24.0756  -28.1745   21.9571 C   0  0  0  0  0  0  0  0  0  0  0  0
  -23.4286  -35.2069   23.4531 C   0  0  0  0  0  0  0  0  0  0  0  0
  -32.9254  -15.7362   19.5008 C   0  0  0  0  0  0  0  0  0  0  0  0
  -24.1772  -34.0481   24.1039 C   0  0  0  0  0  0  0  0  0  0  0  0
  -31.5990  -15.1889   20.0208 C   0  0  0  0  0  0  0  0  0  0  0  0
  -30.4729  -20.5682   19.1175 C   0  0  0  0  0  0  0  0  0  0  0  0
  -32.7067  -17.0155   18.7048 C   0  0  0  0  0  0  0  0  0  0  0  0
  -30.6912  -17.5700   20.0433 C   0  0  0  0  0  0  0  0  0  0  0  0
  -25.1423  -33.3881   23.1118 C   0  0  1  0  0  0  0  0  0  0  0  0
  -23.3353  -30.5137   21.4071 C   0  0  1  0  0  0  0  0  0  0  0  0
  -30.8553  -16.2575   20.8370 C   0  0  1  0  0  0  0  0  0  0  0  0
  -18.8173  -24.2391   21.8759 C   0  0  0  0  0  0  0  0  0  0  0  0
  -22.3010  -28.5746   25.4729 C   0  0  0  0  0  0  0  0  0  0  0  0
  -21.0330  -26.4193   25.3485 C   0  0  0  0  0  0  0  0  0  0  0  0
  -19.8775  -28.5744   24.8553 C   0  0  0  0  0  0  0  0  0  0  0  0
  -20.6258  -25.5099   18.7791 C   0  0  0  0  0  0  0  0  0  0  0  0
  -30.6946  -26.3129   20.3209 C   0  0  0  0  0  0  0  0  0  0  0  0
  -29.6201  -27.1619   19.6626 C   0  0  0  0  0  0  0  0  0  1  0  0
  -21.5365  -27.6475   23.1877 C   0  0  1  0  0  0  0  0  0  0  0  0
  -19.5450  -25.2617   21.0171 C   0  0  2  0  0  0  0  0  0  0  0  0
  -21.2094  -27.8086   24.6991 C   0  0  0  0  0  0  0  0  0  0  0  0
  -28.8339  -14.8611   20.6176 N   0  0  0  0  0  0  0  0  0  0  0  0
  -29.5235  -15.7470   21.3563 N   0  0  0  0  0  0  0  0  0  0  0  0
  -31.7569  -20.3655   19.8333 N   0  0  0  0  0  0  0  0  0  0  0  0
  -23.0013  -29.1800   21.9111 N   0  0  0  0  0  0  0  0  0  0  0  0
  -31.9693  -18.0169   19.4764 N   0  0  0  0  0  0  0  0  0  0  0  0
  -29.4657  -16.9631   23.3882 N   0  0  0  0  0  0  0  0  0  0  0  0
  -25.6114  -14.6107   23.4717 N   0  0  0  0  0  0  0  0  0  0  0  0
  -30.5561  -24.9426   19.9278 N   0  0  0  0  0  0  0  0  0  0  0  0
  -24.4196  -32.5268   22.2006 N   0  0  0  0  0  0  0  0  0  0  0  0
  -20.5074  -26.9496   22.4247 N   0  0  0  0  0  0  0  0  0  0  0  0
  -19.9226  -24.6114   19.7305 N   0  3  0  0  0  0  0  0  0  0  0  0
  -26.8880  -16.1342   24.6152 O   0  0  0  0  0  0  0  0  0  0  0  0
  -24.3451  -30.6225   23.5387 O   0  0  0  0  0  0  0  0  0  0  0  0
  -20.8254  -29.7964   22.4785 O   0  0  0  0  0  0  0  0  0  0  0  0
  -21.8750  -25.2421   21.6557 O   0  0  0  0  0  0  0  0  0  0  0  0
  -33.8095  -19.3129   19.9270 O   0  0  0  0  0  0  0  0  0  0  0  0
  -23.8245  -11.0766   19.5535 O   0  0  0  0  0  0  0  0  0  0  0  0
  -28.3371  -26.6858   20.0489 O   0  0  0  0  0  0  0  0  0  1  0  0
  -21.7978   -7.4544   23.1833 F   0  0  0  0  0  0  0  0  0  0  0  0
  -24.0549   -8.3558   19.1215 F   0  0  0  0  0  0  0  0  0  0  0  0
  1  2  1  0  0  0  0
  1  6  2  0  0  0  0
  2  7  2  0  0  0  0
  3  9  1  0  0  0  0
  3 10  2  0  0  0  0
  4 11  2  0  0  0  0
  4 18  1  0  0  0  0
  5 12  1  0  0  0  0
  5 18  2  0  0  0  0
  6 20  1  0  0  0  0
  7 22  1  0  0  0  0
  8 13  2  0  0  0  0
  8 21  1  0  0  0  0
  9 25  2  0  0  0  0
 10 26  1  0  0  0  0
 11 27  1  0  0  0  0
 12 27  2  0  0  0  0
 13 28  1  0  0  0  0
 14 15  2  0  0  0  0
 14 29  1  0  0  0  0
 15 30  1  0  0  0  0
 16 23  1  0  0  0  0
 16 28  2  0  0  0  0
 17 30  2  0  0  0  0
 17 31  1  0  0  0  0
 18 32  1  0  0  0  0
 19 32  1  0  0  0  0
 19 33  2  0  0  0  0
 19 34  1  0  0  0  0
 20 22  2  0  0  0  0
 20 39  1  0  0  0  0
 21 23  2  0  0  0  0
 21 40  1  0  0  0  0
 22 50  1  0  0  0  0
 23 42  1  0  0  0  0
 24 25  1  0  0  0  0
 24 26  2  0  0  0  0
 24 41  1  0  0  0  0
 25 65  1  0  0  0  0
 26 70  1  0  0  0  0
 27 79  1  0  0  0  0
 28 80  1  0  0  0  0
 29 31  2  0  0  0  0
 29 79  1  0  0  0  0
 30 81  1  0  0  0  0
 31 82  1  0  0  0  0
 32 63  2  0  0  0  0
 33 64  1  0  0  0  0
 33 68  1  0  0  0  0
 34 69  1  0  0  0  0
 34 74  2  0  0  0  0
 35 51  1  0  0  0  0
 35 71  1  0  0  0  0
 35 75  2  0  0  0  0
 36 60  1  0  0  0  0
 36 66  1  0  0  0  0
 36 76  2  0  0  0  0
 37 61  1  0  0  0  0
 37 72  1  0  0  0  0
 37 77  2  0  0  0  0
 38 65  1  0  0  0  0
 38 67  1  0  0  0  0
 38 78  2  0  0  0  0
 39 43  1  0  0  0  0
 40 51  1  0  0  0  0
 41 47  1  0  0  0  0
 42 66  1  0  0  0  0
 43 45  1  0  0  0  0
 44 46  1  0  0  0  0
 44 48  1  0  0  0  0
 45 50  1  0  0  0  0
 46 52  1  0  0  0  0
 47 65  1  0  0  0  0
 48 67  1  0  0  0  0
 49 52  1  0  0  0  0
 49 67  1  0  0  0  0
 50 71  1  0  0  0  0
 51 66  1  0  0  0  0
 52 64  1  0  0  0  0
 53 61  1  0  0  0  0
 54 62  1  0  0  0  0
 55 62  1  0  0  0  0
 56 62  1  0  0  0  0
 57 73  1  0  0  0  0
 58 59  1  0  0  0  0
 58 70  1  0  0  0  0
 59 80  1  0  0  0  0
 60 62  1  0  0  0  0
 60 72  1  0  0  0  0
 61 73  1  0  0  0  0
 63 64  1  0  0  0  0
M  CHG  1  73   1
M  ISO  4  38 100  59 101  65 100  80 101
M  END
> <Batch ID>
0010

> <Smiles>
CNC(C)C(=O)NC(C(=O)N1Cc2cc([101O:1][101CH2:1]CNc3cccc4c3CC[100N:0]4[100C:0](=O)N3CCCC(n4nc(-c5ccc(Oc6ccc(F)cc6F)cc5)c(C(N)=O)c4N)C3)ccc2CC1C(=O)NC1CCCc2ccccc21)C(C)(C)C

> <Shape>
0.273

> <Color>
0.076

> <Negative vol penalty>
0.000

$$$$

  -OEChem-04042320403D

 86 95  0     1  0  0  0  0  0999 V2000
  -33.1895  -14.5161   20.5483 C   0  0  0  0  0  0  0  0  0  0  0  0
  -32.0431  -15.2508   20.8287 C   0  0  0  0  0  0  0  0  0  0  0  0
  -22.4296  -28.8715   22.0472 C   0  0  0  0  0  0  0  0  0  0  0  0
  -23.2257  -30.9121   23.0664 C   0  0  0  0  0  0  0  0  0  0  0  0
  -33.0782  -13.2400   20.0001 C   0  0  0  0  0  0  0  0  0  0  0  0
  -30.7847  -14.7052   20.5723 C   0  0  0  0  0  0  0  0  0  0  0  0
  -26.8805  -17.2639   22.1257 C   0  0  0  0  0  0  0  0  0  0  0  0
  -26.0596  -24.0971   20.6098 C   0  0  0  0  0  0  0  0  0  0  0  0
  -27.3126  -24.5731   20.2236 C   0  0  0  0  0  0  0  0  0  0  0  0
  -21.3333  -28.8684   22.9096 C   0  0  0  0  0  0  0  0  0  0  0  0
  -22.1294  -30.9091   23.9289 C   0  0  0  0  0  0  0  0  0  0  0  0
  -26.4670  -18.4498   21.5203 C   0  0  0  0  0  0  0  0  0  0  0  0
  -18.3502  -30.4415   23.1520 C   0  0  0  0  0  0  0  0  0  0  0  0
  -17.0957  -30.1720   22.6049 C   0  0  0  0  0  0  0  0  0  0  0  0
  -24.6697  -17.2621   20.4349 C   0  0  0  0  0  0  0  0  0  0  0  0
  -25.0978  -24.9789   18.5764 C   0  0  0  0  0  0  0  0  0  0  0  0
  -16.8773  -28.2501   24.0524 C   0  0  0  0  0  0  0  0  0  0  0  0
  -23.3758  -29.8933   22.1256 C   0  0  0  0  0  0  0  0  0  0  0  0
  -24.5904  -30.4993   19.9657 C   0  0  0  0  0  0  0  0  0  0  0  0
  -31.8178  -12.6842   19.7255 C   0  0  0  0  0  0  0  0  0  0  0  0
  -26.1970  -16.0641   21.8812 C   0  0  0  0  0  0  0  0  0  0  0  0
  -30.6510  -13.4095   20.0415 C   0  0  0  0  0  0  0  0  0  0  0  0
  -25.0749  -16.0628   21.0404 C   0  0  0  0  0  0  0  0  0  0  0  0
  -24.9522  -24.3000   19.7862 C   0  0  0  0  0  0  0  0  0  0  0  0
  -27.4582  -25.2519   19.0138 C   0  0  0  0  0  0  0  0  0  0  0  0
  -21.1832  -29.8872   23.8504 C   0  0  0  0  0  0  0  0  0  0  0  0
  -25.3633  -18.4485   20.6725 C   0  0  0  0  0  0  0  0  0  0  0  0
  -18.8682  -29.6153   24.1493 C   0  0  0  0  0  0  0  0  0  0  0  0
  -16.3593  -29.0763   23.0551 C   0  0  0  0  0  0  0  0  0  0  0  0
  -26.3508  -25.4549   18.1902 C   0  0  0  0  0  0  0  0  0  0  0  0
  -18.1318  -28.5195   24.5995 C   0  0  0  0  0  0  0  0  0  0  0  0
  -24.5088  -29.8968   21.2354 C   0  0  0  0  0  0  0  0  0  0  0  0
  -25.8638  -30.2191   19.5340 C   0  0  0  0  0  0  0  0  0  0  0  0
  -23.7769  -21.4065   21.0127 C   0  0  0  0  0  0  0  0  0  0  0  0
  -23.6034  -31.2456   19.2414 C   0  0  0  0  0  0  0  0  0  0  0  0
  -26.9711  -13.2647   20.5898 C   0  0  0  0  0  0  0  0  0  0  0  0
  -23.9908  -12.4324   21.5630 C   0  0  0  0  0  0  0  0  0  0  0  0
  -20.8368  -13.4241   22.4089 C   0  0  0  0  0  0  0  0  0  0  0  0
  -29.7159  -26.1340   19.5757 C   0  0  0  0  0  0  0  0  0  0  0  0
  -31.7551  -11.2958   19.1393 C   0  0  0  0  0  0  0  0  0  0  0  0
  -26.6394  -14.7984   22.5630 C   0  0  0  0  0  0  0  0  0  0  0  0
  -24.2946  -14.8052   20.7612 C   0  0  0  0  0  0  0  0  0  0  0  0
  -30.4087  -10.9830   18.4945 C   0  0  0  0  0  0  0  0  0  0  0  0
  -30.0948  -28.9385   21.7285 C   0  0  0  0  0  0  0  0  0  0  0  0
  -29.2795  -11.3431   19.4483 C   0  0  0  0  0  0  0  0  0  0  0  0
  -28.6865  -29.5314   21.7051 C   0  0  0  0  0  0  0  0  0  0  0  0
  -22.8568  -20.3268   19.0870 C   0  0  0  0  0  0  0  0  0  0  0  0
  -30.0720  -27.4098   21.7511 C   0  0  0  0  0  0  0  0  0  0  0  0
  -23.1967  -21.7680   18.7498 C   0  0  0  0  0  0  0  0  0  0  0  0
  -27.8612  -27.3975   20.6390 C   0  0  0  0  0  0  0  0  0  0  0  0
  -29.2724  -12.8486   19.7426 C   0  0  1  0  0  0  0  0  0  0  0  0
  -23.6459  -20.0478   20.3640 C   0  0  1  0  0  0  0  0  0  1  0  0
  -26.1802  -13.5372   21.8379 C   0  0  1  0  0  0  0  0  0  0  0  0
  -27.8539  -28.9320   20.5580 C   0  0  1  0  0  0  0  0  0  0  0  0
  -18.6104  -12.5129   23.1232 C   0  0  0  0  0  0  0  0  0  0  0  0
  -23.4415  -11.5358   18.6987 C   0  0  0  0  0  0  0  0  0  0  0  0
  -20.9970  -11.5417   19.2396 C   0  0  0  0  0  0  0  0  0  0  0  0
  -22.5392  -10.0081   20.4612 C   0  0  0  0  0  0  0  0  0  0  0  0
  -29.1576  -25.6060   17.2125 C   0  0  0  0  0  0  0  0  0  0  0  0
  -20.9266  -14.8972   24.9742 C   0  0  0  0  0  0  0  0  0  0  0  0
  -23.6033  -23.7888   20.2023 C   0  0  0  0  0  0  0  0  0  0  0  0
  -22.6119  -12.4874   20.9509 C   0  0  1  0  0  0  0  0  0  0  0  0
  -19.9497  -13.0641   23.5870 C   0  0  2  0  0  0  0  0  0  0  0  0
  -22.4130  -11.4167   19.8411 C   0  0  0  0  0  0  0  0  0  0  0  0
  -25.6402  -29.2802   21.5873 N   0  0  0  0  0  0  0  0  0  0  0  0
  -26.4448  -29.4938   20.5322 N   0  0  0  0  0  0  0  0  0  0  0  0
  -23.4920  -22.3559   20.0348 N   0  0  0  0  0  0  0  0  0  0  0  0
  -24.7702  -13.5920   21.4464 N   0  0  0  0  0  0  0  0  0  0  0  0
  -29.2334  -26.8851   20.6641 N   0  0  0  0  0  0  0  0  0  0  0  0
  -26.5321  -30.5249   18.4015 N   0  0  0  0  0  0  0  0  0  0  0  0
  -22.3471  -31.4402   19.8313 N   0  0  0  0  0  0  0  0  0  0  0  0
  -28.3282  -13.1175   20.8046 N   0  0  0  0  0  0  0  0  0  0  0  0
  -21.6689  -12.3818   22.0590 N   0  0  0  0  0  0  0  0  0  0  0  0
  -28.7565  -25.7440   18.6167 N   0  0  0  0  0  0  0  0  0  0  0  0
  -19.6963  -14.2661   24.4309 N   0  3  0  0  0  0  0  0  0  0  0  0
  -24.1238  -21.5951   22.1695 O   0  0  0  0  0  0  0  0  0  0  0  0
  -23.8235  -31.7116   18.0978 O   0  0  0  0  0  0  0  0  0  0  0  0
  -26.3928  -13.1917   19.5118 O   0  0  0  0  0  0  0  0  0  0  0  0
  -24.3599  -11.4010   22.1302 O   0  0  0  0  0  0  0  0  0  0  0  0
  -20.7931  -14.5189   21.8522 O   0  0  0  0  0  0  0  0  0  0  0  0
  -30.9152  -25.8558   19.4559 O   0  0  0  0  0  0  0  0  0  0  0  0
  -20.1135  -29.8846   24.6920 O   0  0  0  0  0  0  0  0  0  0  0  0
  -24.9581  -19.6045   20.0798 O   0  0  0  0  0  0  0  0  0  1  0  0
  -15.1540  -28.8185   22.5307 F   0  0  0  0  0  0  0  0  0  0  0  0
  -26.4788  -26.1073   17.0260 F   0  0  0  0  0  0  0  0  0  0  0  0
  -18.6238  -27.7228   25.5582 F   0  0  0  0  0  0  0  0  0  0  0  0
  1  2  1  0  0  0  0
  1  5  2  0  0  0  0
  2  6  2  0  0  0  0
  3 10  2  0  0  0  0
  3 18  1  0  0  0  0
  4 11  1  0  0  0  0
  4 18  2  0  0  0  0
  5 20  1  0  0  0  0
  6 22  1  0  0  0  0
  7 12  2  0  0  0  0
  7 21  1  0  0  0  0
  8  9  2  0  0  0  0
  8 24  1  0  0  0  0
  9 25  1  0  0  0  0
 10 26  1  0  0  0  0
 11 26  2  0  0  0  0
 12 27  1  0  0  0  0
 13 14  2  0  0  0  0
 13 28  1  0  0  0  0
 14 29  1  0  0  0  0
 15 23  1  0  0  0  0
 15 27  2  0  0  0  0
 16 24  2  0  0  0  0
 16 30  1  0  0  0  0
 17 29  2  0  0  0  0
 17 31  1  0  0  0  0
 18 32  1  0  0  0  0
 19 32  1  0  0  0  0
 19 33  2  0  0  0  0
 19 35  1  0  0  0  0
 20 22  2  0  0  0  0
 20 40  1  0  0  0  0
 21 23  2  0  0  0  0
 21 41  1  0  0  0  0
 22 51  1  0  0  0  0
 23 42  1  0  0  0  0
 24 61  1  0  0  0  0
 25 30  2  0  0  0  0
 25 74  1  0  0  0  0
 26 82  1  0  0  0  0
 27 83  1  0  0  0  0
 28 31  2  0  0  0  0
 28 82  1  0  0  0  0
 29 84  1  0  0  0  0
 30 85  1  0  0  0  0
 31 86  1  0  0  0  0
 32 65  2  0  0  0  0
 33 66  1  0  0  0  0
 33 70  1  0  0  0  0
 34 52  1  0  0  0  0
 34 67  1  0  0  0  0
 34 76  2  0  0  0  0
 35 71  1  0  0  0  0
 35 77  2  0  0  0  0
 36 53  1  0  0  0  0
 36 72  1  0  0  0  0
 36 78  2  0  0  0  0
 37 62  1  0  0  0  0
 37 68  1  0  0  0  0
 37 79  2  0  0  0  0
 38 63  1  0  0  0  0
 38 73  1  0  0  0  0
 38 80  2  0  0  0  0
 39 69  1  0  0  0  0
 39 74  1  0  0  0  0
 39 81  2  0  0  0  0
 40 43  1  0  0  0  0
 41 53  1  0  0  0  0
 42 68  1  0  0  0  0
 43 45  1  0  0  0  0
 44 46  1  0  0  0  0
 44 48  1  0  0  0  0
 45 51  1  0  0  0  0
 46 54  1  0  0  0  0
 47 49  1  0  0  0  0
 47 52  1  0  0  0  0
 48 69  1  0  0  0  0
 49 67  1  0  0  0  0
 50 54  1  0  0  0  0
 50 69  1  0  0  0  0
 51 72  1  0  0  0  0
 52 83  1  0  0  0  0
 53 68  1  0  0  0  0
 54 66  1  0  0  0  0
 55 63  1  0  0  0  0
 56 64  1  0  0  0  0
 57 64  1  0  0  0  0
 58 64  1  0  0  0  0
 59 74  1  0  0  0  0
 60 75  1  0  0  0  0
 61 67  1  0  0  0  0
 62 64  1  0  0  0  0
 62 73  1  0  0  0  0
 63 75  1  0  0  0  0
 65 66  1  0  0  0  0
M  CHG  1  75   1
M  ISO  4  39 100  52 101  74 100  83 101
M  END
> <Batch ID>
0010

> <Smiles>
CNC(C)C(=O)NC(C(=O)N1Cc2cc([101O:1][101CH:1]3CCN(Cc4ccc([100N:0](C)[100C:0](=O)N5CCCC(n6nc(-c7ccc(Oc8ccc(F)cc8F)cc7)c(C(N)=O)c6N)C5)c(F)c4)C3=O)ccc2CC1C(=O)NC1CCCc2ccccc21)C(C)(C)C

> <Shape>
0.265

> <Color>
0.059

> <Negative vol penalty>
0.000

$$$$

  -OEChem-04042320403D

 79 87  0     1  0  0  0  0  0999 V2000
  -18.4348  -32.7312   21.2254 C   0  0  0  0  0  0  0  0  0  0  0  0
  -19.7592  -32.6083   20.8176 C   0  0  0  0  0  0  0  0  0  0  0  0
  -26.1407  -13.7055   21.4639 C   0  0  0  0  0  0  0  0  0  0  0  0
  -26.2746  -13.9933   19.0689 C   0  0  0  0  0  0  0  0  0  0  0  0
  -17.9711  -31.9956   22.3152 C   0  0  0  0  0  0  0  0  0  0  0  0
  -20.6209  -31.7504   21.5001 C   0  0  0  0  0  0  0  0  0  0  0  0
  -25.1758  -28.4332   19.1010 C   0  0  0  0  0  0  0  0  0  0  0  0
  -24.9443  -13.0046   21.3129 C   0  0  0  0  0  0  0  0  0  0  0  0
  -25.0782  -13.2924   18.9178 C   0  0  0  0  0  0  0  0  0  0  0  0
  -26.5523  -28.6428   19.0301 C   0  0  0  0  0  0  0  0  0  0  0  0
  -30.6812  -27.2884   20.9302 C   0  0  0  0  0  0  0  0  0  0  0  0
  -23.9784   -9.8862   20.4322 C   0  0  0  0  0  0  0  0  0  0  0  0
  -31.5153  -26.1863   21.1179 C   0  0  0  0  0  0  0  0  0  0  0  0
  -23.8211   -8.7075   21.1612 C   0  0  0  0  0  0  0  0  0  0  0  0
  -26.8536  -27.2928   21.0064 C   0  0  0  0  0  0  0  0  0  0  0  0
  -29.2773  -25.9765   19.4658 C   0  0  0  0  0  0  0  0  0  0  0  0
  -21.8844   -9.6453   22.2598 C   0  0  0  0  0  0  0  0  0  0  0  0
  -26.8059  -14.2000   20.3419 C   0  0  0  0  0  0  0  0  0  0  0  0
  -29.3444  -14.3914   20.5060 C   0  0  0  0  0  0  0  0  0  0  0  0
  -18.8250  -31.1210   23.0054 C   0  0  0  0  0  0  0  0  0  0  0  0
  -24.6258  -27.6595   20.1332 C   0  0  0  0  0  0  0  0  0  0  0  0
  -20.1685  -31.0034   22.6010 C   0  0  0  0  0  0  0  0  0  0  0  0
  -25.4700  -27.0727   21.0867 C   0  0  0  0  0  0  0  0  0  0  0  0
  -30.1113  -24.8743   19.6535 C   0  0  0  0  0  0  0  0  0  0  0  0
  -24.4130  -12.7980   20.0398 C   0  0  0  0  0  0  0  0  0  0  0  0
  -27.3911  -28.0750   19.9846 C   0  0  0  0  0  0  0  0  0  0  0  0
  -29.5622  -27.1835   20.1041 C   0  0  0  0  0  0  0  0  0  1  0  0
  -23.0887  -10.9445   20.6170 C   0  0  0  0  0  0  0  0  0  0  0  0
  -22.7742   -8.5870   22.0750 C   0  0  0  0  0  0  0  0  0  0  0  0
  -31.2304  -24.9793   20.4796 C   0  0  0  0  0  0  0  0  0  0  0  0
  -22.0417  -10.8241   21.5308 C   0  0  0  0  0  0  0  0  0  0  0  0
  -28.0415  -14.9246   20.4974 C   0  0  0  0  0  0  0  0  0  0  0  0
  -30.1605  -15.4821   20.6818 C   0  0  0  0  0  0  0  0  0  0  0  0
  -29.7781  -13.0319   20.3673 C   0  0  0  0  0  0  0  0  0  0  0  0
  -22.5877  -28.2120   22.5090 C   0  0  0  0  0  0  0  0  0  0  0  0
  -22.8486  -25.0100   22.9580 C   0  0  0  0  0  0  0  0  0  0  0  0
  -24.6898  -22.1667   22.5428 C   0  0  0  0  0  0  0  0  0  0  0  0
  -29.3161  -21.3121   19.4664 C   0  0  0  0  0  0  0  0  0  0  0  0
  -18.2907  -30.3823   24.2069 C   0  0  0  0  0  0  0  0  0  0  0  0
  -23.1415  -27.4207   20.1802 C   0  0  0  0  0  0  0  0  0  0  0  0
  -24.9315  -26.2171   22.2031 C   0  0  0  0  0  0  0  0  0  0  0  0
  -19.1697  -29.2132   24.6436 C   0  0  0  0  0  0  0  0  0  0  0  0
  -30.2344  -19.8428   22.6283 C   0  0  0  0  0  0  0  0  0  0  0  0
  -20.6352  -29.6344   24.6876 C   0  0  0  0  0  0  0  0  0  0  0  0
  -29.8557  -18.3729   22.4513 C   0  0  0  0  0  0  0  0  0  0  0  0
  -29.2699  -20.7619   21.8856 C   0  0  0  0  0  0  0  0  0  0  0  0
  -28.7573  -18.9708   20.2466 C   0  0  0  0  0  0  0  0  0  0  0  0
  -21.1274  -30.0645   23.3004 C   0  0  1  0  0  0  0  0  0  0  0  0
  -22.6413  -27.0400   21.5703 C   0  0  1  0  0  0  0  0  0  0  0  0
  -29.7254  -18.0120   20.9608 C   0  0  2  0  0  0  0  0  0  0  0  0
  -24.6596  -19.7089   23.0484 C   0  0  0  0  0  0  0  0  0  0  0  0
  -23.5604  -25.6019   25.8653 C   0  0  0  0  0  0  0  0  0  0  0  0
  -24.4280  -23.2612   26.0566 C   0  0  0  0  0  0  0  0  0  0  0  0
  -22.0194  -23.6586   25.5434 C   0  0  0  0  0  0  0  0  0  0  0  0
  -24.7641  -21.4568   19.6706 C   0  0  0  0  0  0  0  0  0  0  0  0
  -29.8044  -23.5862   18.9678 C   0  0  0  0  0  0  0  0  0  0  0  0
  -23.7573  -24.1141   23.7645 C   0  0  1  0  0  0  0  0  0  0  0  0
  -24.3119  -20.7873   22.0340 C   0  0  2  0  0  0  0  0  0  0  0  0
  -23.4516  -24.1766   25.2877 C   0  0  0  0  0  0  0  0  0  0  0  0
  -28.0260  -16.2508   20.6554 N   0  0  0  0  0  0  0  0  0  0  0  0
  -29.3293  -16.5601   20.7650 N   0  0  0  0  0  0  0  0  0  0  0  0
  -23.4727  -26.0183   22.2099 N   0  0  0  0  0  0  0  0  0  0  0  0
  -29.1388  -20.3687   20.4832 N   0  0  0  0  0  0  0  0  0  0  0  0
  -31.5010  -15.6144   20.7719 N   0  0  0  0  0  0  0  0  0  0  0  0
  -28.8078  -12.0354   20.1941 N   0  0  0  0  0  0  0  0  0  0  0  0
  -21.3926  -28.9048   22.4762 N   0  0  0  0  0  0  0  0  0  0  0  0
  -23.6354  -22.7808   23.1849 N   0  0  0  0  0  0  0  0  0  0  0  0
  -25.0326  -20.4881   20.7644 N   0  3  0  0  0  0  0  0  0  0  0  0
  -30.9892  -12.7083   20.4126 O   0  0  0  0  0  0  0  0  0  0  0  0
  -23.5583  -28.4678   23.2121 O   0  0  0  0  0  0  0  0  0  0  0  0
  -21.6304  -24.8177   22.9849 O   0  0  0  0  0  0  0  0  0  0  0  0
  -25.8096  -22.6496   22.3894 O   0  0  0  0  0  0  0  0  0  0  0  0
  -29.2232  -21.0625   18.2658 O   0  0  0  0  0  0  0  0  0  0  0  0
  -23.2457  -12.1139   19.8920 O   0  0  0  0  0  0  0  0  0  0  0  0
  -28.7350  -28.2786   19.9181 O   0  0  0  0  0  0  0  0  0  1  0  0
  -29.6079  -22.5606   19.9482 O   0  0  0  0  0  0  0  0  0  0  0  0
  -22.6224   -7.4544   22.7738 F   0  0  0  0  0  0  0  0  0  0  0  0
  -32.0375  -23.9255   20.6659 F   0  0  0  0  0  0  0  0  0  0  0  0
  -21.1831  -11.8369   21.7118 F   0  0  0  0  0  0  0  0  0  0  0  0
  1  2  1  0  0  0  0
  1  5  2  0  0  0  0
  2  6  2  0  0  0  0
  3  8  2  0  0  0  0
  3 18  1  0  0  0  0
  4  9  1  0  0  0  0
  4 18  2  0  0  0  0
  5 20  1  0  0  0  0
  6 22  1  0  0  0  0
  7 10  2  0  0  0  0
  7 21  1  0  0  0  0
  8 25  1  0  0  0  0
  9 25  2  0  0  0  0
 10 26  1  0  0  0  0
 11 13  2  0  0  0  0
 11 27  1  0  0  0  0
 12 14  2  0  0  0  0
 12 28  1  0  0  0  0
 13 30  1  0  0  0  0
 14 29  1  0  0  0  0
 15 23  1  0  0  0  0
 15 26  2  0  0  0  0
 16 24  1  0  0  0  0
 16 27  2  0  0  0  0
 17 29  2  0  0  0  0
 17 31  1  0  0  0  0
 18 32  1  0  0  0  0
 19 32  1  0  0  0  0
 19 33  2  0  0  0  0
 19 34  1  0  0  0  0
 20 22  2  0  0  0  0
 20 39  1  0  0  0  0
 21 23  2  0  0  0  0
 21 40  1  0  0  0  0
 22 48  1  0  0  0  0
 23 41  1  0  0  0  0
 24 30  2  0  0  0  0
 24 56  1  0  0  0  0
 25 74  1  0  0  0  0
 26 75  1  0  0  0  0
 27 75  1  0  0  0  0
 28 31  2  0  0  0  0
 28 74  1  0  0  0  0
 29 77  1  0  0  0  0
 30 78  1  0  0  0  0
 31 79  1  0  0  0  0
 32 60  2  0  0  0  0
 33 61  1  0  0  0  0
 33 64  1  0  0  0  0
 34 65  1  0  0  0  0
 34 69  2  0  0  0  0
 35 49  1  0  0  0  0
 35 66  1  0  0  0  0
 35 70  2  0  0  0  0
 36 57  1  0  0  0  0
 36 62  1  0  0  0  0
 36 71  2  0  0  0  0
 37 58  1  0  0  0  0
 37 67  1  0  0  0  0
 37 72  2  0  0  0  0
 38 63  1  0  0  0  0
 38 73  2  0  0  0  0
 38 76  1  0  0  0  0
 39 42  1  0  0  0  0
 40 49  1  0  0  0  0
 41 62  1  0  0  0  0
 42 44  1  0  0  0  0
 43 45  1  0  0  0  0
 43 46  1  0  0  0  0
 44 48  1  0  0  0  0
 45 50  1  0  0  0  0
 46 63  1  0  0  0  0
 47 50  1  0  0  0  0
 47 63  1  0  0  0  0
 48 66  1  0  0  0  0
 49 62  1  0  0  0  0
 50 61  1  0  0  0  0
 51 58  1  0  0  0  0
 52 59  1  0  0  0  0
 53 59  1  0  0  0  0
 54 59  1  0  0  0  0
 55 68  1  0  0  0  0
 56 76  1  0  0  0  0
 57 59  1  0  0  0  0
 57 67  1  0  0  0  0
 58 68  1  0  0  0  0
 60 61  1  0  0  0  0
M  CHG  1  68   1
M  ISO  4  27 101  38 100  75 101  76 100
M  END
> <Batch ID>
0010

> <Smiles>
CNC(C)C(=O)NC(C(=O)N1Cc2cc([101O:1][101c:1]3ccc(F)c(C[100O:0][100C:0](=O)N4CCCC(n5nc(-c6ccc(Oc7ccc(F)cc7F)cc6)c(C(N)=O)c5N)C4)c3)ccc2CC1C(=O)NC1CCCc2ccccc21)C(C)(C)C

> <Shape>
0.267

> <Color>
0.081

> <Negative vol penalty>
0.000

$$$$

  -OEChem-04042320403D

 85 94  0     1  0  0  0  0  0999 V2000
  -24.3360  -32.8092   17.7727 C   0  0  0  0  0  0  0  0  0  0  0  0
  -24.4909  -31.5438   17.2159 C   0  0  0  0  0  0  0  0  0  0  0  0
  -22.6740  -10.1083   20.1519 C   0  0  0  0  0  0  0  0  0  0  0  0
  -24.3705   -9.2818   21.6604 C   0  0  0  0  0  0  0  0  0  0  0  0
  -24.4034  -32.9742   19.1555 C   0  0  0  0  0  0  0  0  0  0  0  0
  -24.7144  -30.4426   18.0416 C   0  0  0  0  0  0  0  0  0  0  0  0
  -23.3356  -23.4271   18.4867 C   0  0  0  0  0  0  0  0  0  0  0  0
  -21.9564   -8.9226   20.3093 C   0  0  0  0  0  0  0  0  0  0  0  0
  -23.6529   -8.0961   21.8179 C   0  0  0  0  0  0  0  0  0  0  0  0
  -23.9897  -22.2109   18.6789 C   0  0  0  0  0  0  0  0  0  0  0  0
  -20.9559   -7.0306   23.5533 C   0  0  0  0  0  0  0  0  0  0  0  0
  -20.8061   -6.5326   24.8475 C   0  0  0  0  0  0  0  0  0  0  0  0
  -24.0079  -22.6037   21.0589 C   0  0  0  0  0  0  0  0  0  0  0  0
  -29.1990  -18.4844   21.4168 C   0  0  0  0  0  0  0  0  0  0  0  0
  -28.5223  -19.0781   24.0503 C   0  0  0  0  0  0  0  0  0  0  0  0
  -21.9384   -4.5001   24.1965 C   0  0  0  0  0  0  0  0  0  0  0  0
  -23.8811  -10.2879   20.8274 C   0  0  0  0  0  0  0  0  0  0  0  0
  -24.1890  -12.8163   20.9693 C   0  0  0  0  0  0  0  0  0  0  0  0
  -24.6182  -31.8730   19.9992 C   0  0  0  0  0  0  0  0  0  0  0  0
  -23.0219  -24.2471   19.5801 C   0  0  0  0  0  0  0  0  0  0  0  0
  -24.7861  -30.5931   19.4369 C   0  0  0  0  0  0  0  0  0  0  0  0
  -23.3475  -23.8286   20.8782 C   0  0  0  0  0  0  0  0  0  0  0  0
  -29.8255  -17.7840   22.4617 C   0  0  0  0  0  0  0  0  0  0  0  0
  -29.4752  -18.0797   23.7934 C   0  0  0  0  0  0  0  0  0  0  0  0
  -22.4458   -7.9165   21.1423 C   0  0  0  0  0  0  0  0  0  0  0  0
  -24.3285  -21.8004   19.9648 C   0  0  0  0  0  0  0  0  0  0  0  0
  -21.5970   -6.2633   22.5806 C   0  0  0  0  0  0  0  0  0  0  0  0
  -28.2476  -19.4675   21.6863 C   0  0  0  0  0  0  0  0  0  0  0  0
  -21.2973   -5.2673   25.1692 C   0  0  0  0  0  0  0  0  0  0  0  0
  -22.0883   -4.9981   22.9022 C   0  0  0  0  0  0  0  0  0  0  0  0
  -27.9094  -19.7643   23.0027 C   0  0  0  0  0  0  0  0  0  0  0  0
  -24.6232  -11.5122   20.6648 C   0  0  0  0  0  0  0  0  0  0  0  0
  -25.2531  -13.6188   20.6374 C   0  0  0  0  0  0  0  0  0  0  0  0
  -22.9358  -13.2623   21.5044 C   0  0  0  0  0  0  0  0  0  0  0  0
  -23.8392  -27.1807   20.4912 C   0  0  0  0  0  0  0  0  0  0  0  0
  -21.6420  -26.6495   22.8177 C   0  0  0  0  0  0  0  0  0  0  0  0
  -19.9067  -24.3961   24.7039 C   0  0  0  0  0  0  0  0  0  0  0  0
  -30.7279  -14.7007   20.6669 C   0  0  0  0  0  0  0  0  0  0  0  0
  -24.7304  -32.1078   21.4848 C   0  0  0  0  0  0  0  0  0  0  0  0
  -22.2924  -25.5436   19.3583 C   0  0  0  0  0  0  0  0  0  0  0  0
  -30.1471  -17.4020   24.9618 C   0  0  0  0  0  0  0  0  0  0  0  0
  -23.0149  -24.6628   22.0872 C   0  0  0  0  0  0  0  0  0  0  0  0
  -24.5967  -30.8335   22.3146 C   0  0  0  0  0  0  0  0  0  0  0  0
  -30.8997  -16.1290   24.5821 C   0  0  0  0  0  0  0  0  0  0  0  0
  -29.4968  -12.5732   18.0911 C   0  0  0  0  0  0  0  0  0  0  0  0
  -25.4560  -29.7197   21.7248 C   0  0  0  0  0  0  0  0  0  0  0  0
  -31.7296  -16.3565   23.3237 C   0  0  0  0  0  0  0  0  0  0  0  0
  -28.0865  -12.2104   18.5592 C   0  0  0  0  0  0  0  0  0  0  0  0
  -30.4712  -12.6763   19.2624 C   0  0  0  0  0  0  0  0  0  0  0  0
  -28.6343  -13.2202   20.8129 C   0  0  0  0  0  0  0  0  0  0  0  0
  -25.0053  -29.3704   20.3012 C   0  0  1  0  0  0  0  0  0  0  0  0
  -30.8330  -16.7039   22.1281 C   0  0  1  0  0  0  0  0  0  0  0  0
  -22.4809  -26.5382   20.4997 C   0  0  1  0  0  0  0  0  0  0  0  0
  -27.6037  -13.1595   19.6725 C   0  0  2  0  0  0  0  0  0  0  0  0
  -18.2110  -24.2630   26.5490 C   0  0  0  0  0  0  0  0  0  0  0  0
  -23.7962  -27.3906   24.8476 C   0  0  0  0  0  0  0  0  0  0  0  0
  -22.3809  -26.3432   26.6276 C   0  0  0  0  0  0  0  0  0  0  0  0
  -21.5260  -28.3098   25.3531 C   0  0  0  0  0  0  0  0  0  0  0  0
  -17.9762  -22.9569   22.9832 C   0  0  0  0  0  0  0  0  0  0  0  0
  -25.8228  -20.1615   19.1064 C   0  0  0  0  0  0  0  0  0  1  0  0
  -26.9419  -19.3307   19.7037 C   0  0  0  0  0  0  0  0  0  0  0  0
  -21.6775  -26.0611   24.2075 C   0  0  1  0  0  0  0  0  0  0  0  0
  -18.4310  -24.2921   25.0445 C   0  0  2  0  0  0  0  0  0  0  0  0
  -22.3533  -27.0111   25.2362 C   0  0  0  0  0  0  0  0  0  0  0  0
  -25.8662  -11.4834   20.1768 N   0  0  0  0  0  0  0  0  0  0  0  0
  -26.2221  -12.7793   20.1721 N   0  0  0  0  0  0  0  0  0  0  0  0
  -22.3068  -25.9252   21.8181 N   0  0  0  0  0  0  0  0  0  0  0  0
  -29.9551  -13.5927   20.2822 N   0  0  0  0  0  0  0  0  0  0  0  0
  -25.4450  -14.9535   20.7011 N   0  0  0  0  0  0  0  0  0  0  0  0
  -22.7975  -13.3518   22.8962 N   0  0  0  0  0  0  0  0  0  0  0  0
  -23.8112  -28.5534   20.3353 N   0  0  0  0  0  0  0  0  0  0  0  0
  -20.3009  -25.7067   24.5360 N   0  0  0  0  0  0  0  0  0  0  0  0
  -30.1622  -15.5220   21.6344 N   0  0  0  0  0  0  0  0  0  0  0  0
  -17.8509  -23.0498   24.4606 N   0  3  0  0  0  0  0  0  0  0  0  0
  -21.9620  -13.5567   20.7705 O   0  0  0  0  0  0  0  0  0  0  0  0
  -24.8384  -26.4829   20.6183 O   0  0  0  0  0  0  0  0  0  0  0  0
  -21.0404  -27.7090   22.6247 O   0  0  0  0  0  0  0  0  0  0  0  0
  -20.6374  -23.4133   24.6010 O   0  0  0  0  0  0  0  0  0  0  0  0
  -31.8375  -14.9433   20.1800 O   0  0  0  0  0  0  0  0  0  0  0  0
  -21.7457   -6.7595   21.2963 O   0  0  0  0  0  0  0  0  0  0  0  0
  -24.9675  -20.6141   20.1552 O   0  0  0  0  0  0  0  0  0  1  0  0
  -27.6639  -20.1257   20.6365 O   0  0  0  0  0  0  0  0  0  0  0  0
  -21.1547   -4.7898   26.4125 F   0  0  0  0  0  0  0  0  0  0  0  0
  -22.7061   -4.2569   21.9724 F   0  0  0  0  0  0  0  0  0  0  0  0
  -26.7419  -20.9807   23.3680 Cl  0  0  0  0  0  0  0  0  0  0  0  0
  1  2  1  0  0  0  0
  1  5  2  0  0  0  0
  2  6  2  0  0  0  0
  3  8  2  0  0  0  0
  3 17  1  0  0  0  0
  4  9  1  0  0  0  0
  4 17  2  0  0  0  0
  5 19  1  0  0  0  0
  6 21  1  0  0  0  0
  7 10  2  0  0  0  0
  7 20  1  0  0  0  0
  8 25  1  0  0  0  0
  9 25  2  0  0  0  0
 10 26  1  0  0  0  0
 11 12  2  0  0  0  0
 11 27  1  0  0  0  0
 12 29  1  0  0  0  0
 13 22  1  0  0  0  0
 13 26  2  0  0  0  0
 14 23  2  0  0  0  0
 14 28  1  0  0  0  0
 15 24  2  0  0  0  0
 15 31  1  0  0  0  0
 16 29  2  0  0  0  0
 16 30  1  0  0  0  0
 17 32  1  0  0  0  0
 18 32  1  0  0  0  0
 18 33  2  0  0  0  0
 18 34  1  0  0  0  0
 19 21  2  0  0  0  0
 19 39  1  0  0  0  0
 20 22  2  0  0  0  0
 20 40  1  0  0  0  0
 21 51  1  0  0  0  0
 22 42  1  0  0  0  0
 23 24  1  0  0  0  0
 23 52  1  0  0  0  0
 24 41  1  0  0  0  0
 25 80  1  0  0  0  0
 26 81  1  0  0  0  0
 27 30  2  0  0  0  0
 27 80  1  0  0  0  0
 28 31  2  0  0  0  0
 28 82  1  0  0  0  0
 29 83  1  0  0  0  0
 30 84  1  0  0  0  0
 31 85  1  0  0  0  0
 32 65  2  0  0  0  0
 33 66  1  0  0  0  0
 33 69  1  0  0  0  0
 34 70  1  0  0  0  0
 34 75  2  0  0  0  0
 35 53  1  0  0  0  0
 35 71  1  0  0  0  0
 35 76  2  0  0  0  0
 36 62  1  0  0  0  0
 36 67  1  0  0  0  0
 36 77  2  0  0  0  0
 37 63  1  0  0  0  0
 37 72  1  0  0  0  0
 37 78  2  0  0  0  0
 38 68  1  0  0  0  0
 38 73  1  0  0  0  0
 38 79  2  0  0  0  0
 39 43  1  0  0  0  0
 40 53  1  0  0  0  0
 41 44  1  0  0  0  0
 42 67  1  0  0  0  0
 43 46  1  0  0  0  0
 44 47  1  0  0  0  0
 45 48  1  0  0  0  0
 45 49  1  0  0  0  0
 46 51  1  0  0  0  0
 47 52  1  0  0  0  0
 48 54  1  0  0  0  0
 49 68  1  0  0  0  0
 50 54  1  0  0  0  0
 50 68  1  0  0  0  0
 51 71  1  0  0  0  0
 52 73  1  0  0  0  0
 53 67  1  0  0  0  0
 54 66  1  0  0  0  0
 55 63  1  0  0  0  0
 56 64  1  0  0  0  0
 57 64  1  0  0  0  0
 58 64  1  0  0  0  0
 59 74  1  0  0  0  0
 60 61  1  0  0  0  0
 60 81  1  0  0  0  0
 61 82  1  0  0  0  0
 62 64  1  0  0  0  0
 62 72  1  0  0  0  0
 63 74  1  0  0  0  0
 65 66  1  0  0  0  0
M  CHG  1  74   1
M  ISO  4  38 100  60 101  73 100  81 101
M  END
> <Batch ID>
0010

> <Smiles>
CNC(C)C(=O)NC(C(=O)N1Cc2cc([101O:1][101CH2:1]COc3cc4c(cc3Cl)CCCC4[100NH:0][100C:0](=O)N3CCCC(n4nc(-c5ccc(Oc6ccc(F)cc6F)cc5)c(C(N)=O)c4N)C3)ccc2CC1C(=O)NC1CCCc2ccccc21)C(C)(C)C

> <Shape>
0.280

> <Color>
0.194

> <Negative vol penalty>
0.000

$$$$

  -OEChem-04042320403D

 77 85  0     1  0  0  0  0  0999 V2000
  -25.5318  -30.7932   28.0607 C   0  0  0  0  0  0  0  0  0  0  0  0
  -25.3487  -29.4204   27.9293 C   0  0  0  0  0  0  0  0  0  0  0  0
  -22.6376  -10.2137   20.2313 C   0  0  0  0  0  0  0  0  0  0  0  0
  -24.2448   -9.5173   21.8953 C   0  0  0  0  0  0  0  0  0  0  0  0
  -25.7423  -31.5788   26.9283 C   0  0  0  0  0  0  0  0  0  0  0  0
  -25.3751  -28.8325   26.6651 C   0  0  0  0  0  0  0  0  0  0  0  0
  -30.1238  -23.6520   25.0829 C   0  0  0  0  0  0  0  0  0  0  0  0
  -21.8911   -9.0598   20.4692 C   0  0  0  0  0  0  0  0  0  0  0  0
  -23.4982   -8.3633   22.1333 C   0  0  0  0  0  0  0  0  0  0  0  0
  -30.8609  -22.5100   24.7688 C   0  0  0  0  0  0  0  0  0  0  0  0
  -23.0345   -5.3504   20.6710 C   0  0  0  0  0  0  0  0  0  0  0  0
  -23.7231   -4.1412   20.7660 C   0  0  0  0  0  0  0  0  0  0  0  0
  -29.9672  -22.5381   22.5220 C   0  0  0  0  0  0  0  0  0  0  0  0
  -22.8965   -3.8472   23.0171 C   0  0  0  0  0  0  0  0  0  0  0  0
  -23.8145  -10.4425   20.9443 C   0  0  0  0  0  0  0  0  0  0  0  0
  -24.1629  -12.9679   20.8515 C   0  0  0  0  0  0  0  0  0  0  0  0
  -25.7809  -30.9989   25.6504 C   0  0  0  0  0  0  0  0  0  0  0  0
  -29.3165  -24.2510   24.1120 C   0  0  0  0  0  0  0  0  0  0  0  0
  -25.5850  -29.6112   25.5144 C   0  0  0  0  0  0  0  0  0  0  0  0
  -29.2362  -23.6893   22.8271 C   0  0  0  0  0  0  0  0  0  0  0  0
  -22.3214   -8.1345   21.4203 C   0  0  0  0  0  0  0  0  0  0  0  0
  -30.7826  -21.9543   23.4916 C   0  0  0  0  0  0  0  0  0  0  0  0
  -22.2768   -5.8081   21.7491 C   0  0  0  0  0  0  0  0  0  0  0  0
  -23.6541   -3.3895   21.9390 C   0  0  0  0  0  0  0  0  0  0  0  0
  -22.2078   -5.0565   22.9221 C   0  0  0  0  0  0  0  0  0  0  0  0
  -24.5864  -11.6341   20.6985 C   0  0  0  0  0  0  0  0  0  0  0  0
  -25.2565  -13.7184   20.4949 C   0  0  0  0  0  0  0  0  0  0  0  0
  -22.8944  -13.4824   21.2780 C   0  0  0  0  0  0  0  0  0  0  0  0
  -26.9542  -27.0346   23.2475 C   0  0  0  0  0  0  0  0  0  0  0  0
  -28.7887  -26.6369   20.8212 C   0  0  0  0  0  0  0  0  0  0  0  0
  -30.6881  -27.0179   18.0133 C   0  0  0  0  0  0  0  0  0  0  0  0
  -30.7432  -14.7207   20.6863 C   0  0  0  0  0  0  0  0  0  0  0  0
  -25.9644  -31.8954   24.4516 C   0  0  0  0  0  0  0  0  0  0  0  0
  -28.4576  -25.4463   24.4239 C   0  0  0  0  0  0  0  0  0  0  0  0
  -28.3279  -24.3476   21.8248 C   0  0  0  0  0  0  0  0  0  0  0  0
  -26.3516  -31.1424   23.1814 C   0  0  0  0  0  0  0  0  0  0  0  0
  -29.5958  -12.3656   18.2752 C   0  0  0  0  0  0  0  0  0  0  0  0
  -25.4643  -29.9155   22.9967 C   0  0  0  0  0  0  0  0  0  0  0  0
  -28.1582  -12.0710   18.7070 C   0  0  0  0  0  0  0  0  0  0  0  0
  -30.3911  -17.2576   23.3611 C   0  0  0  0  0  0  0  0  0  0  0  0
  -30.5468  -17.9767   20.9392 C   0  0  0  0  0  0  0  0  0  0  0  0
  -31.0508  -18.5662   23.7878 C   0  0  0  0  0  0  0  0  0  0  0  0
  -31.2050  -19.2835   21.3735 C   0  0  0  0  0  0  0  0  0  0  0  0
  -30.5153  -12.5708   19.4770 C   0  0  0  0  0  0  0  0  0  0  0  0
  -28.6175  -13.2917   20.8744 C   0  0  0  0  0  0  0  0  0  0  0  0
  -25.6316  -28.9331   24.1623 C   0  0  1  0  0  0  0  0  0  0  0  0
  -28.3222  -26.4181   23.2380 C   0  0  1  0  0  0  0  0  0  0  0  0
  -27.6412  -13.1326   19.6964 C   0  0  2  0  0  0  0  0  0  0  0  0
  -30.8152  -16.8549   21.9458 C   0  0  0  0  0  0  0  0  0  0  0  0
  -30.7828  -19.6863   22.7853 C   0  0  0  0  0  0  0  0  0  1  0  0
  -30.5602  -27.8375   15.6449 C   0  0  0  0  0  0  0  0  0  0  0  0
  -27.2900  -24.1012   20.0286 C   0  0  0  0  0  0  0  0  0  0  0  0
  -28.0199  -24.4933   17.6660 C   0  0  0  0  0  0  0  0  0  0  0  0
  -26.5661  -26.1641   18.8140 C   0  0  0  0  0  0  0  0  0  0  0  0
  -32.7492  -29.0864   18.4952 C   0  0  0  0  0  0  0  0  0  0  0  0
  -28.9946  -25.9635   19.4880 C   0  0  1  0  0  0  0  0  0  0  0  0
  -30.8872  -28.2021   17.0846 C   0  0  2  0  0  0  0  0  0  0  0  0
  -27.7368  -25.1783   19.0200 C   0  0  0  0  0  0  0  0  0  0  0  0
  -25.8504  -11.5395   20.2773 N   0  0  0  0  0  0  0  0  0  0  0  0
  -26.2305  -12.8234   20.1625 N   0  0  0  0  0  0  0  0  0  0  0  0
  -28.4677  -25.8100   21.9046 N   0  0  0  0  0  0  0  0  0  0  0  0
  -29.9687  -13.5910   20.3751 N   0  0  0  0  0  0  0  0  0  0  0  0
  -25.4704  -15.0500   20.4362 N   0  0  0  0  0  0  0  0  0  0  0  0
  -22.6920  -13.7115   22.6457 N   0  0  0  0  0  0  0  0  0  0  0  0
  -26.8581  -28.1791   24.0157 N   0  0  0  0  0  0  0  0  0  0  0  0
  -29.4244  -27.0083   18.5649 N   0  0  0  0  0  0  0  0  0  0  0  0
  -30.1478  -15.6418   21.5394 N   0  0  0  0  0  0  0  0  0  0  0  0
  -32.3001  -28.6727   17.1409 N   0  3  0  0  0  0  0  0  0  0  0  0
  -21.9622  -13.7162   20.4718 O   0  0  0  0  0  0  0  0  0  0  0  0
  -26.0516  -26.5120   22.6041 O   0  0  0  0  0  0  0  0  0  0  0  0
  -28.9031  -27.8632   20.9015 O   0  0  0  0  0  0  0  0  0  0  0  0
  -31.5645  -26.1827   18.2250 O   0  0  0  0  0  0  0  0  0  0  0  0
  -31.8790  -14.8982   20.2329 O   0  0  0  0  0  0  0  0  0  0  0  0
  -21.5931   -7.0085   21.6529 O   0  0  0  0  0  0  0  0  0  0  0  0
  -31.5083  -20.8420   23.1903 O   0  0  0  0  0  0  0  0  0  1  0  0
  -24.3143   -2.2276   22.0296 F   0  0  0  0  0  0  0  0  0  0  0  0
  -21.4806   -5.4905   23.9607 F   0  0  0  0  0  0  0  0  0  0  0  0
  1  2  1  0  0  0  0
  1  5  2  0  0  0  0
  2  6  2  0  0  0  0
  3  8  2  0  0  0  0
  3 15  1  0  0  0  0
  4  9  1  0  0  0  0
  4 15  2  0  0  0  0
  5 17  1  0  0  0  0
  6 19  1  0  0  0  0
  7 10  2  0  0  0  0
  7 18  1  0  0  0  0
  8 21  1  0  0  0  0
  9 21  2  0  0  0  0
 10 22  1  0  0  0  0
 11 12  2  0  0  0  0
 11 23  1  0  0  0  0
 12 24  1  0  0  0  0
 13 20  1  0  0  0  0
 13 22  2  0  0  0  0
 14 24  2  0  0  0  0
 14 25  1  0  0  0  0
 15 26  1  0  0  0  0
 16 26  1  0  0  0  0
 16 27  2  0  0  0  0
 16 28  1  0  0  0  0
 17 19  2  0  0  0  0
 17 33  1  0  0  0  0
 18 20  2  0  0  0  0
 18 34  1  0  0  0  0
 19 46  1  0  0  0  0
 20 35  1  0  0  0  0
 21 74  1  0  0  0  0
 22 75  1  0  0  0  0
 23 25  2  0  0  0  0
 23 74  1  0  0  0  0
 24 76  1  0  0  0  0
 25 77  1  0  0  0  0
 26 59  2  0  0  0  0
 27 60  1  0  0  0  0
 27 63  1  0  0  0  0
 28 64  1  0  0  0  0
 28 69  2  0  0  0  0
 29 47  1  0  0  0  0
 29 65  1  0  0  0  0
 29 70  2  0  0  0  0
 30 56  1  0  0  0  0
 30 61  1  0  0  0  0
 30 71  2  0  0  0  0
 31 57  1  0  0  0  0
 31 66  1  0  0  0  0
 31 72  2  0  0  0  0
 32 62  1  0  0  0  0
 32 67  1  0  0  0  0
 32 73  2  0  0  0  0
 33 36  1  0  0  0  0
 34 47  1  0  0  0  0
 35 61  1  0  0  0  0
 36 38  1  0  0  0  0
 37 39  1  0  0  0  0
 37 44  1  0  0  0  0
 38 46  1  0  0  0  0
 39 48  1  0  0  0  0
 40 42  1  0  0  0  0
 40 49  1  0  0  0  0
 41 43  1  0  0  0  0
 41 49  1  0  0  0  0
 42 50  1  0  0  0  0
 43 50  1  0  0  0  0
 44 62  1  0  0  0  0
 45 48  1  0  0  0  0
 45 62  1  0  0  0  0
 46 65  1  0  0  0  0
 47 61  1  0  0  0  0
 48 60  1  0  0  0  0
 49 67  1  0  0  0  0
 50 75  1  0  0  0  0
 51 57  1  0  0  0  0
 52 58  1  0  0  0  0
 53 58  1  0  0  0  0
 54 58  1  0  0  0  0
 55 68  1  0  0  0  0
 56 58  1  0  0  0  0
 56 66  1  0  0  0  0
 57 68  1  0  0  0  0
 59 60  1  0  0  0  0
M  CHG  1  68   1
M  ISO  4  32 100  50 101  67 100  75 101
M  END
> <Batch ID>
0010

> <Smiles>
CNC(C)C(=O)NC(C(=O)N1Cc2cc([101O:1][101CH:1]3CCC([100NH:0][100C:0](=O)N4CCCC(n5nc(-c6ccc(Oc7ccc(F)cc7F)cc6)c(C(N)=O)c5N)C4)CC3)ccc2CC1C(=O)NC1CCCc2ccccc21)C(C)(C)C

> <Shape>
0.284

> <Color>
0.184

> <Negative vol penalty>
0.000

$$$$

  -OEChem-04042320403D

 82 90  0     1  0  0  0  0  0999 V2000
  -20.0924  -21.7862   16.4175 C   0  0  0  0  0  0  0  0  0  0  0  0
  -21.4608  -21.6646   16.6365 C   0  0  0  0  0  0  0  0  0  0  0  0
  -22.7430  -30.6676   20.4039 C   0  0  0  0  0  0  0  0  0  0  0  0
  -22.9006  -29.4015   22.4555 C   0  0  0  0  0  0  0  0  0  0  0  0
  -19.1947  -21.0684   17.2068 C   0  0  0  0  0  0  0  0  0  0  0  0
  -21.9324  -20.8259   17.6458 C   0  0  0  0  0  0  0  0  0  0  0  0
  -27.0707  -17.4947   17.5631 C   0  0  0  0  0  0  0  0  0  0  0  0
  -21.4884  -31.1386   20.7909 C   0  0  0  0  0  0  0  0  0  0  0  0
  -21.6461  -29.8726   22.8426 C   0  0  0  0  0  0  0  0  0  0  0  0
  -28.3385  -17.7125   18.1008 C   0  0  0  0  0  0  0  0  0  0  0  0
  -32.5859  -22.5985   22.7117 C   0  0  0  0  0  0  0  0  0  0  0  0
  -18.4074  -29.1955   22.1471 C   0  0  0  0  0  0  0  0  0  0  0  0
  -32.3454  -23.9616   22.8836 C   0  0  0  0  0  0  0  0  0  0  0  0
  -17.5035  -28.2735   22.6746 C   0  0  0  0  0  0  0  0  0  0  0  0
  -27.7364  -16.4027   20.0351 C   0  0  0  0  0  0  0  0  0  0  0  0
  -30.8721  -22.5105   21.0111 C   0  0  0  0  0  0  0  0  0  0  0  0
  -17.4224  -29.5320   24.7354 C   0  0  0  0  0  0  0  0  0  0  0  0
  -23.4491  -29.7990   21.2362 C   0  0  0  0  0  0  0  0  0  0  0  0
  -25.9947  -29.9015   21.1048 C   0  0  0  0  0  0  0  0  0  0  0  0
  -19.6559  -20.2131   18.2199 C   0  0  0  0  0  0  0  0  0  0  0  0
  -26.1210  -16.7372   18.2635 C   0  0  0  0  0  0  0  0  0  0  0  0
  -21.0401  -20.0970   18.4503 C   0  0  0  0  0  0  0  0  0  0  0  0
  -26.4582  -16.1747   19.5029 C   0  0  0  0  0  0  0  0  0  0  0  0
  -30.6315  -23.8737   21.1830 C   0  0  0  0  0  0  0  0  0  0  0  0
  -20.9400  -30.7411   22.0102 C   0  0  0  0  0  0  0  0  0  0  0  0
  -28.6706  -17.1689   19.3383 C   0  0  0  0  0  0  0  0  0  0  0  0
  -31.8493  -21.8729   21.7754 C   0  0  0  0  0  0  0  0  0  0  0  0
  -18.8190  -30.2858   22.9138 C   0  0  0  0  0  0  0  0  0  0  0  0
  -17.0109  -28.4417   23.9687 C   0  0  0  0  0  0  0  0  0  0  0  0
  -31.3682  -24.5992   22.1193 C   0  0  0  0  0  0  0  0  0  0  0  0
  -18.3265  -30.4540   24.2079 C   0  0  0  0  0  0  0  0  0  0  0  0
  -24.7449  -29.3116   20.8367 C   0  0  0  0  0  0  0  0  0  0  0  0
  -26.9054  -29.0588   20.5158 C   0  0  0  0  0  0  0  0  0  0  0  0
  -26.3046  -31.1035   21.8222 C   0  0  0  0  0  0  0  0  0  0  0  0
  -23.2467  -17.3212   19.4886 C   0  0  0  0  0  0  0  0  0  0  0  0
  -23.2761  -14.1303   20.0714 C   0  0  0  0  0  0  0  0  0  0  0  0
  -25.1058  -11.2923   20.5664 C   0  0  0  0  0  0  0  0  0  0  0  0
  -28.8186  -23.9426   19.4352 C   0  0  0  0  0  0  0  0  0  0  0  0
  -18.6458  -19.4939   19.0785 C   0  0  0  0  0  0  0  0  0  0  0  0
  -24.7669  -16.4892   17.6576 C   0  0  0  0  0  0  0  0  0  0  0  0
  -25.4815  -15.3370   20.2856 C   0  0  0  0  0  0  0  0  0  0  0  0
  -19.2404  -18.3395   19.8810 C   0  0  0  0  0  0  0  0  0  0  0  0
  -26.2277  -25.1830   17.3314 C   0  0  0  0  0  0  0  0  0  0  0  0
  -20.5379  -18.7716   20.5567 C   0  0  0  0  0  0  0  0  0  0  0  0
  -25.7137  -26.4162   18.0779 C   0  0  0  0  0  0  0  0  0  0  0  0
  -26.6156  -24.0598   18.2914 C   0  0  0  0  0  0  0  0  0  0  0  0
  -27.0411  -25.6794   20.0983 C   0  0  0  0  0  0  0  0  0  0  0  0
  -21.5913  -19.1784   19.5191 C   0  0  1  0  0  0  0  0  0  0  0  0
  -23.7052  -16.1317   18.6932 C   0  0  1  0  0  0  0  0  0  0  0  0
  -26.6990  -26.8612   19.1764 C   0  0  2  0  0  0  0  0  0  0  0  0
  -24.8507   -8.8445   21.0569 C   0  0  0  0  0  0  0  0  0  0  0  0
  -22.6374  -14.7828   22.9828 C   0  0  0  0  0  0  0  0  0  0  0  0
  -23.3272  -12.4523   23.5837 C   0  0  0  0  0  0  0  0  0  0  0  0
  -21.3909  -12.8231   22.0553 C   0  0  0  0  0  0  0  0  0  0  0  0
  -26.4347  -10.5279   18.0348 C   0  0  0  0  0  0  0  0  0  0  0  0
  -31.1626  -18.3113   21.7038 C   0  0  0  0  0  0  0  0  0  0  0  0
  -30.0096  -17.4110   21.2887 C   0  0  0  0  0  0  0  0  0  1  0  0
  -30.9838  -19.7343   21.1982 C   0  0  0  0  0  0  0  0  0  0  0  0
  -23.7353  -13.2563   21.2135 C   0  0  1  0  0  0  0  0  0  0  0  0
  -24.9872   -9.9008   19.9714 C   0  0  2  0  0  0  0  0  0  0  0  0
  -22.7907  -13.3460   22.4452 C   0  0  0  0  0  0  0  0  0  0  0  0
  -24.8485  -28.1817   20.1320 N   0  0  0  0  0  0  0  0  0  0  0  0
  -26.1743  -28.0548   19.9524 N   0  0  0  0  0  0  0  0  0  0  0  0
  -24.1681  -15.1283   19.6540 N   0  0  0  0  0  0  0  0  0  0  0  0
  -27.5540  -24.5539   19.3014 N   0  0  0  0  0  0  0  0  0  0  0  0
  -28.2524  -29.0862   20.4301 N   0  0  0  0  0  0  0  0  0  0  0  0
  -25.2488  -31.8499   22.3631 N   0  0  0  0  0  0  0  0  0  0  0  0
  -29.6376  -24.5185   20.4058 N   0  0  0  0  0  0  0  0  0  0  0  0
  -22.1894  -18.0050   18.9194 N   0  0  0  0  0  0  0  0  0  0  0  0
  -23.8778  -11.9113   20.6665 N   0  0  0  0  0  0  0  0  0  0  0  0
  -26.1924   -9.5822   19.1546 N   0  3  0  0  0  0  0  0  0  0  0  0
  -27.4818  -31.5125   21.9650 O   0  0  0  0  0  0  0  0  0  0  0  0
  -23.8094  -17.5971   20.5417 O   0  0  0  0  0  0  0  0  0  0  0  0
  -22.1700  -13.9301   19.5635 O   0  0  0  0  0  0  0  0  0  0  0  0
  -26.1800  -11.7798   20.9115 O   0  0  0  0  0  0  0  0  0  0  0  0
  -29.1609  -22.9966   18.7211 O   0  0  0  0  0  0  0  0  0  0  0  0
  -19.7159  -31.2007   22.3883 O   0  0  0  0  0  0  0  0  0  0  0  0
  -29.9071  -17.3804   19.8657 O   0  0  0  0  0  0  0  0  0  1  0  0
  -32.0858  -20.5334   21.6068 O   0  0  0  0  0  0  0  0  0  0  0  0
  -16.1417  -27.5570   24.4746 F   0  0  0  0  0  0  0  0  0  0  0  0
  -31.1452  -25.9097   22.2934 F   0  0  0  0  0  0  0  0  0  0  0  0
  -18.7172  -31.5000   24.9488 F   0  0  0  0  0  0  0  0  0  0  0  0
  1  2  1  0  0  0  0
  1  5  2  0  0  0  0
  2  6  2  0  0  0  0
  3  8  2  0  0  0  0
  3 18  1  0  0  0  0
  4  9  1  0  0  0  0
  4 18  2  0  0  0  0
  5 20  1  0  0  0  0
  6 22  1  0  0  0  0
  7 10  2  0  0  0  0
  7 21  1  0  0  0  0
  8 25  1  0  0  0  0
  9 25  2  0  0  0  0
 10 26  1  0  0  0  0
 11 13  2  0  0  0  0
 11 27  1  0  0  0  0
 12 14  2  0  0  0  0
 12 28  1  0  0  0  0
 13 30  1  0  0  0  0
 14 29  1  0  0  0  0
 15 23  1  0  0  0  0
 15 26  2  0  0  0  0
 16 24  1  0  0  0  0
 16 27  2  0  0  0  0
 17 29  2  0  0  0  0
 17 31  1  0  0  0  0
 18 32  1  0  0  0  0
 19 32  1  0  0  0  0
 19 33  2  0  0  0  0
 19 34  1  0  0  0  0
 20 22  2  0  0  0  0
 20 39  1  0  0  0  0
 21 23  2  0  0  0  0
 21 40  1  0  0  0  0
 22 48  1  0  0  0  0
 23 41  1  0  0  0  0
 24 30  2  0  0  0  0
 24 68  1  0  0  0  0
 25 77  1  0  0  0  0
 26 78  1  0  0  0  0
 27 79  1  0  0  0  0
 28 31  2  0  0  0  0
 28 77  1  0  0  0  0
 29 80  1  0  0  0  0
 30 81  1  0  0  0  0
 31 82  1  0  0  0  0
 32 62  2  0  0  0  0
 33 63  1  0  0  0  0
 33 66  1  0  0  0  0
 34 67  1  0  0  0  0
 34 72  2  0  0  0  0
 35 49  1  0  0  0  0
 35 69  1  0  0  0  0
 35 73  2  0  0  0  0
 36 59  1  0  0  0  0
 36 64  1  0  0  0  0
 36 74  2  0  0  0  0
 37 60  1  0  0  0  0
 37 70  1  0  0  0  0
 37 75  2  0  0  0  0
 38 65  1  0  0  0  0
 38 68  1  0  0  0  0
 38 76  2  0  0  0  0
 39 42  1  0  0  0  0
 40 49  1  0  0  0  0
 41 64  1  0  0  0  0
 42 44  1  0  0  0  0
 43 45  1  0  0  0  0
 43 46  1  0  0  0  0
 44 48  1  0  0  0  0
 45 50  1  0  0  0  0
 46 65  1  0  0  0  0
 47 50  1  0  0  0  0
 47 65  1  0  0  0  0
 48 69  1  0  0  0  0
 49 64  1  0  0  0  0
 50 63  1  0  0  0  0
 51 60  1  0  0  0  0
 52 61  1  0  0  0  0
 53 61  1  0  0  0  0
 54 61  1  0  0  0  0
 55 71  1  0  0  0  0
 56 57  1  0  0  0  0
 56 58  1  0  0  0  0
 57 78  1  0  0  0  0
 58 79  1  0  0  0  0
 59 61  1  0  0  0  0
 59 70  1  0  0  0  0
 60 71  1  0  0  0  0
 62 63  1  0  0  0  0
M  CHG  1  71   1
M  ISO  4  38 100  57 101  68 100  78 101
M  END
> <Batch ID>
0010

> <Smiles>
CNC(C)C(=O)NC(C(=O)N1Cc2cc([101O:1][101CH2:1]CCOc3ccc(F)c([100NH:0][100C:0](=O)N4CCCC(n5nc(-c6ccc(Oc7ccc(F)cc7F)cc6)c(C(N)=O)c5N)C4)c3)ccc2CC1C(=O)NC1CCCc2ccccc21)C(C)(C)C

> <Shape>
0.234

> <Color>
0.085

> <Negative vol penalty>
0.000

$$$$

  -OEChem-04042320403D

 84 92  0     1  0  0  0  0  0999 V2000
  -23.8495  -21.7893   19.7033 C   0  0  0  0  0  0  0  0  0  0  0  0
  -24.9706  -21.7158   20.5239 C   0  0  0  0  0  0  0  0  0  0  0  0
  -23.0027   -9.8896   19.9839 C   0  0  0  0  0  0  0  0  0  0  0  0
  -23.7218   -9.9514   22.2896 C   0  0  0  0  0  0  0  0  0  0  0  0
  -23.4679  -23.0127   19.1543 C   0  0  0  0  0  0  0  0  0  0  0  0
  -25.7113  -22.8657   20.7950 C   0  0  0  0  0  0  0  0  0  0  0  0
  -26.9312  -23.2809   25.6924 C   0  0  0  0  0  0  0  0  0  0  0  0
  -22.2363   -8.7558   20.2532 C   0  0  0  0  0  0  0  0  0  0  0  0
  -22.9553   -8.8176   22.5590 C   0  0  0  0  0  0  0  0  0  0  0  0
  -27.9895  -22.4992   26.1534 C   0  0  0  0  0  0  0  0  0  0  0  0
  -23.2031   -5.4767   22.1026 C   0  0  0  0  0  0  0  0  0  0  0  0
  -23.7894   -4.4633   22.8608 C   0  0  0  0  0  0  0  0  0  0  0  0
  -29.4560  -24.4090   26.0072 C   0  0  0  0  0  0  0  0  0  0  0  0
  -32.0481  -16.5652   22.5617 C   0  0  0  0  0  0  0  0  0  0  0  0
  -29.8672  -17.4630   23.0859 C   0  0  0  0  0  0  0  0  0  0  0  0
  -22.0609   -4.7125   24.5303 C   0  0  0  0  0  0  0  0  0  0  0  0
  -23.7455  -10.4874   21.0021 C   0  0  0  0  0  0  0  0  0  0  0  0
  -31.8348  -18.3654   24.1589 C   0  0  0  0  0  0  0  0  0  0  0  0
  -24.1296  -13.0025   20.8158 C   0  0  0  0  0  0  0  0  0  0  0  0
  -24.1987  -24.1799   19.4267 C   0  0  0  0  0  0  0  0  0  0  0  0
  -27.1301  -24.6321   25.3744 C   0  0  0  0  0  0  0  0  0  0  0  0
  -25.3398  -24.1057   20.2481 C   0  0  0  0  0  0  0  0  0  0  0  0
  -28.3979  -25.2063   25.5448 C   0  0  0  0  0  0  0  0  0  0  0  0
  -30.6653  -16.5637   22.3788 C   0  0  0  0  0  0  0  0  0  0  0  0
  -22.2125   -8.2198   21.5408 C   0  0  0  0  0  0  0  0  0  0  0  0
  -29.2528  -23.0624   26.3081 C   0  0  0  0  0  0  0  0  0  0  0  0
  -22.0458   -6.1081   22.5583 C   0  0  0  0  0  0  0  0  0  0  0  0
  -23.2183   -4.0811   24.0746 C   0  0  0  0  0  0  0  0  0  0  0  0
  -32.6329  -17.4661   23.4518 C   0  0  0  0  0  0  0  0  0  0  0  0
  -30.4520  -18.3638   23.9760 C   0  0  0  0  0  0  0  0  0  0  0  0
  -21.4747   -5.7260   23.7721 C   0  0  0  0  0  0  0  0  0  0  0  0
  -24.5379  -11.6583   20.7243 C   0  0  0  0  0  0  0  0  0  0  0  0
  -25.2398  -13.7242   20.4512 C   0  0  0  0  0  0  0  0  0  0  0  0
  -32.4597  -19.3272   25.1092 C   0  0  0  0  0  0  0  0  0  0  0  0
  -22.8602  -13.5497   21.1966 C   0  0  0  0  0  0  0  0  0  0  0  0
  -26.8698  -26.3759   22.7296 C   0  0  0  0  0  0  0  0  0  0  0  0
  -27.4771  -28.8340   24.7572 C   0  0  0  0  0  0  0  0  0  0  0  0
  -28.8320  -29.8902   27.7060 C   0  0  0  0  0  0  0  0  0  0  0  0
  -30.7180  -14.6902   20.6954 C   0  0  0  0  0  0  0  0  0  0  0  0
  -23.7749  -25.4710   18.7723 C   0  0  0  0  0  0  0  0  0  0  0  0
  -25.9720  -25.4685   24.9037 C   0  0  0  0  0  0  0  0  0  0  0  0
  -28.6592  -26.6573   25.2367 C   0  0  0  0  0  0  0  0  0  0  0  0
  -24.3962  -26.7103   19.4113 C   0  0  0  0  0  0  0  0  0  0  0  0
  -29.6076  -12.2262   18.3775 C   0  0  0  0  0  0  0  0  0  0  0  0
  -25.8919  -26.5054   19.6297 C   0  0  0  0  0  0  0  0  0  0  0  0
  -28.1561  -11.9693   18.7889 C   0  0  0  0  0  0  0  0  0  0  0  0
  -30.5047  -12.4756   19.5886 C   0  0  0  0  0  0  0  0  0  0  0  0
  -28.5853  -13.2690   20.9135 C   0  0  0  0  0  0  0  0  0  0  0  0
  -26.1546  -25.3354   20.5856 C   0  0  1  0  0  0  0  0  0  0  0  0
  -26.4064  -26.7038   24.1208 C   0  0  1  0  0  0  0  0  0  0  0  0
  -27.6309  -13.0767   19.7236 C   0  0  2  0  0  0  0  0  0  0  0  0
  -33.7391  -18.9064   25.8040 C   0  0  0  0  0  0  0  0  0  0  0  0
  -29.2078  -31.9621   29.0711 C   0  0  0  0  0  0  0  0  0  0  0  0
  -29.7447  -29.6523   22.8867 C   0  0  0  0  0  0  0  0  0  0  0  0
  -30.6530  -31.0851   24.7278 C   0  0  0  0  0  0  0  0  0  0  0  0
  -28.3930  -31.5561   23.7827 C   0  0  0  0  0  0  0  0  0  0  0  0
  -27.2234  -28.8390   29.9569 C   0  0  0  0  0  0  0  0  0  0  0  0
  -32.4584  -21.4037   26.2488 C   0  0  0  0  0  0  0  0  0  0  0  0
  -31.5951  -22.6508   26.3046 C   0  0  0  0  0  0  0  0  0  1  0  0
  -28.7228  -29.5270   25.2544 C   0  0  1  0  0  0  0  0  0  0  0  0
  -28.2837  -30.7843   28.8035 C   0  0  2  0  0  0  0  0  0  0  0  0
  -29.3742  -30.4273   24.1669 C   0  0  0  0  0  0  0  0  0  0  0  0
  -25.8083  -11.5310   20.3321 N   0  0  0  0  0  0  0  0  0  0  0  0
  -31.8740  -20.4571   25.2949 N   0  0  0  0  0  0  0  0  0  0  0  0
  -26.2078  -12.8043   20.1738 N   0  0  0  0  0  0  0  0  0  0  0  0
  -27.4963  -27.4322   24.7733 N   0  0  0  0  0  0  0  0  0  0  0  0
  -29.9467  -13.5399   20.4257 N   0  0  0  0  0  0  0  0  0  0  0  0
  -25.4726  -15.0496   20.3438 N   0  0  0  0  0  0  0  0  0  0  0  0
  -21.8281  -12.6664   21.5413 N   0  0  0  0  0  0  0  0  0  0  0  0
  -30.0709  -15.6484   21.4750 N   0  0  0  0  0  0  0  0  0  0  0  0
  -25.9189  -25.7391   21.9552 N   0  0  0  0  0  0  0  0  0  0  0  0
  -28.3368  -30.2396   26.4675 N   0  0  0  0  0  0  0  0  0  0  0  0
  -28.1261  -30.0135   30.0692 N   0  3  0  0  0  0  0  0  0  0  0  0
  -22.6426  -14.7849   21.2142 O   0  0  0  0  0  0  0  0  0  0  0  0
  -28.0056  -26.6796   22.3838 O   0  0  0  0  0  0  0  0  0  0  0  0
  -26.5196  -29.5116   24.3755 O   0  0  0  0  0  0  0  0  0  0  0  0
  -29.6235  -28.9758   27.9250 O   0  0  0  0  0  0  0  0  0  0  0  0
  -31.8577  -14.8279   20.2438 O   0  0  0  0  0  0  0  0  0  0  0  0
  -21.4645   -7.1135   21.8040 O   0  0  0  0  0  0  0  0  0  0  0  0
  -30.2877  -22.3015   26.7574 O   0  0  0  0  0  0  0  0  0  1  0  0
  -23.7805   -3.1069   24.8019 F   0  0  0  0  0  0  0  0  0  0  0  0
  -33.9630  -17.4581   23.6199 F   0  0  0  0  0  0  0  0  0  0  0  0
  -29.6749  -19.2245   24.6493 F   0  0  0  0  0  0  0  0  0  0  0  0
  -20.3622   -6.3280   24.2145 F   0  0  0  0  0  0  0  0  0  0  0  0
  1  2  1  0  0  0  0
  1  5  2  0  0  0  0
  2  6  2  0  0  0  0
  3  8  2  0  0  0  0
  3 17  1  0  0  0  0
  4  9  1  0  0  0  0
  4 17  2  0  0  0  0
  5 20  1  0  0  0  0
  6 22  1  0  0  0  0
  7 10  2  0  0  0  0
  7 21  1  0  0  0  0
  8 25  1  0  0  0  0
  9 25  2  0  0  0  0
 10 26  1  0  0  0  0
 11 12  2  0  0  0  0
 11 27  1  0  0  0  0
 12 28  1  0  0  0  0
 13 23  1  0  0  0  0
 13 26  2  0  0  0  0
 14 24  1  0  0  0  0
 14 29  2  0  0  0  0
 15 24  2  0  0  0  0
 15 30  1  0  0  0  0
 16 28  2  0  0  0  0
 16 31  1  0  0  0  0
 17 32  1  0  0  0  0
 18 29  1  0  0  0  0
 18 30  2  0  0  0  0
 18 34  1  0  0  0  0
 19 32  1  0  0  0  0
 19 33  2  0  0  0  0
 19 35  1  0  0  0  0
 20 22  2  0  0  0  0
 20 40  1  0  0  0  0
 21 23  2  0  0  0  0
 21 41  1  0  0  0  0
 22 49  1  0  0  0  0
 23 42  1  0  0  0  0
 24 70  1  0  0  0  0
 25 79  1  0  0  0  0
 26 80  1  0  0  0  0
 27 31  2  0  0  0  0
 27 79  1  0  0  0  0
 28 81  1  0  0  0  0
 29 82  1  0  0  0  0
 30 83  1  0  0  0  0
 31 84  1  0  0  0  0
 32 63  2  0  0  0  0
 33 65  1  0  0  0  0
 33 68  1  0  0  0  0
 34 52  1  0  0  0  0
 34 64  2  0  0  0  0
 35 69  1  0  0  0  0
 35 74  2  0  0  0  0
 36 50  1  0  0  0  0
 36 71  1  0  0  0  0
 36 75  2  0  0  0  0
 37 60  1  0  0  0  0
 37 66  1  0  0  0  0
 37 76  2  0  0  0  0
 38 61  1  0  0  0  0
 38 72  1  0  0  0  0
 38 77  2  0  0  0  0
 39 67  1  0  0  0  0
 39 70  1  0  0  0  0
 39 78  2  0  0  0  0
 40 43  1  0  0  0  0
 41 50  1  0  0  0  0
 42 66  1  0  0  0  0
 43 45  1  0  0  0  0
 44 46  1  0  0  0  0
 44 47  1  0  0  0  0
 45 49  1  0  0  0  0
 46 51  1  0  0  0  0
 47 67  1  0  0  0  0
 48 51  1  0  0  0  0
 48 67  1  0  0  0  0
 49 71  1  0  0  0  0
 50 66  1  0  0  0  0
 51 65  1  0  0  0  0
 53 61  1  0  0  0  0
 54 62  1  0  0  0  0
 55 62  1  0  0  0  0
 56 62  1  0  0  0  0
 57 73  1  0  0  0  0
 58 59  1  0  0  0  0
 58 64  1  0  0  0  0
 59 80  1  0  0  0  0
 60 62  1  0  0  0  0
 60 72  1  0  0  0  0
 61 73  1  0  0  0  0
 63 65  1  0  0  0  0
M  CHG  1  73   1
M  ISO  4  39 100  59 101  70 100  80 101
M  END
> <Batch ID>
0010

> <Smiles>
CNC(C)C(=O)NC(C(=O)N1Cc2cc([101O:1][101CH2:1]CN=C(C)c3c(F)cc([100NH:0][100C:0](=O)N4CCCC(n5nc(-c6ccc(Oc7ccc(F)cc7F)cc6)c(C(N)=O)c5N)C4)cc3F)ccc2CC1C(=O)NC1CCCc2ccccc21)C(C)(C)C

> <Shape>
0.209

> <Color>
0.202

> <Negative vol penalty>
0.000

$$$$

  -OEChem-04042320403D

 87 96  0     1  0  0  0  0  0999 V2000
  -27.7120  -37.5194   19.7072 C   0  0  0  0  0  0  0  0  0  0  0  0
  -27.8093  -36.3194   19.0100 C   0  0  0  0  0  0  0  0  0  0  0  0
  -30.9863  -19.6873   20.0449 C   0  0  0  0  0  0  0  0  0  0  0  0
  -23.3944  -10.5344   21.3383 C   0  0  0  0  0  0  0  0  0  0  0  0
  -24.8926   -8.7153   21.8707 C   0  0  0  0  0  0  0  0  0  0  0  0
  -27.6138  -37.5102   21.0979 C   0  0  0  0  0  0  0  0  0  0  0  0
  -27.8096  -35.1096   19.7033 C   0  0  0  0  0  0  0  0  0  0  0  0
  -25.6791  -28.3013   19.0519 C   0  0  0  0  0  0  0  0  0  0  0  0
  -30.0014  -20.6854   20.0211 C   0  0  0  0  0  0  0  0  0  0  0  0
  -30.6812  -18.3731   19.6792 C   0  0  0  0  0  0  0  0  0  0  0  0
  -22.3271   -9.6383   21.2797 C   0  0  0  0  0  0  0  0  0  0  0  0
  -23.8252   -7.8192   21.8121 C   0  0  0  0  0  0  0  0  0  0  0  0
  -26.1754  -27.0026   19.1569 C   0  0  0  0  0  0  0  0  0  0  0  0
  -21.2560   -6.8752   23.7941 C   0  0  0  0  0  0  0  0  0  0  0  0
  -21.1513   -5.9270   24.8117 C   0  0  0  0  0  0  0  0  0  0  0  0
  -25.9210  -27.1057   21.5536 C   0  0  0  0  0  0  0  0  0  0  0  0
  -21.3281   -4.1551   23.1788 C   0  0  0  0  0  0  0  0  0  0  0  0
  -24.6772  -10.0729   21.6337 C   0  0  0  0  0  0  0  0  0  0  0  0
  -26.2368  -11.7042   22.8228 C   0  0  0  0  0  0  0  0  0  0  0  0
  -27.6031  -36.2993   21.8080 C   0  0  0  0  0  0  0  0  0  0  0  0
  -25.3096  -29.0170   20.1998 C   0  0  0  0  0  0  0  0  0  0  0  0
  -27.7125  -35.0843   21.1050 C   0  0  0  0  0  0  0  0  0  0  0  0
  -25.4179  -28.4123   21.4602 C   0  0  0  0  0  0  0  0  0  0  0  0
  -28.4007  -19.0759   19.2766 C   0  0  0  0  0  0  0  0  0  0  0  0
  -28.6965  -20.3829   19.6308 C   0  0  0  0  0  0  0  0  0  0  0  0
  -29.3801  -18.0813   19.2963 C   0  0  0  0  0  0  0  0  0  0  0  0
  -22.5425   -8.2807   21.5166 C   0  0  0  0  0  0  0  0  0  0  0  0
  -26.2992  -26.4057   20.4081 C   0  0  0  0  0  0  0  0  0  0  0  0
  -21.3966   -6.4634   22.4688 C   0  0  0  0  0  0  0  0  0  0  0  0
  -21.1874   -4.5670   24.5041 C   0  0  0  0  0  0  0  0  0  0  0  0
  -21.4327   -5.1034   22.1612 C   0  0  0  0  0  0  0  0  0  0  0  0
  -25.7802  -10.9980   21.6938 C   0  0  0  0  0  0  0  0  0  0  0  0
  -27.2987  -12.4422   22.3598 C   0  0  0  0  0  0  0  0  0  0  0  0
  -25.6642  -21.0812   23.0804 C   0  0  0  0  0  0  0  0  0  0  0  0
  -26.6455  -21.0813   22.1722 C   0  0  0  0  0  0  0  0  0  0  0  0
  -25.7452  -11.6941   24.1696 C   0  0  0  0  0  0  0  0  0  0  0  0
  -27.3881  -22.3392   21.8748 C   0  0  0  0  0  0  0  0  0  0  0  0
  -26.2939  -31.7057   21.5803 C   0  0  0  0  0  0  0  0  0  0  0  0
  -23.7680  -31.1640   23.5422 C   0  0  0  0  0  0  0  0  0  0  0  0
  -21.5805  -28.9222   24.8971 C   0  0  0  0  0  0  0  0  0  0  0  0
  -29.5773  -15.7367   18.4953 C   0  0  0  0  0  0  0  0  0  0  0  0
  -27.5428  -36.3415   23.3144 C   0  0  0  0  0  0  0  0  0  0  0  0
  -24.7509  -30.4072   20.0673 C   0  0  0  0  0  0  0  0  0  0  0  0
  -27.0981  -18.5478   18.7687 C   0  0  0  0  0  0  0  0  0  0  0  0
  -25.0160  -29.1306   22.7215 C   0  0  0  0  0  0  0  0  0  0  0  0
  -27.1727  -35.0024   23.9470 C   0  0  0  0  0  0  0  0  0  0  0  0
  -29.8144  -12.2477   17.9969 C   0  0  0  0  0  0  0  0  0  0  0  0
  -27.9843  -33.8733   23.3198 C   0  0  0  0  0  0  0  0  0  0  0  0
  -28.8020  -11.6613   18.9770 C   0  0  0  0  0  0  0  0  0  0  0  0
  -27.3632  -17.0370   18.7479 C   0  0  0  0  0  0  0  0  0  0  0  0
  -29.2902  -13.5412   17.3885 C   0  0  0  0  0  0  0  0  0  0  0  0
  -27.9536  -14.0224   19.4241 C   0  0  0  0  0  0  0  0  0  0  0  0
  -27.6911  -33.7505   21.8197 C   0  0  1  0  0  0  0  0  0  0  0  0
  -24.8881  -31.2305   21.3444 C   0  0  1  0  0  0  0  0  0  0  0  0
  -28.4270  -12.6947   20.0506 C   0  0  1  0  0  0  0  0  0  0  0  0
  -19.6528  -28.7712   26.4967 C   0  0  0  0  0  0  0  0  0  0  0  0
  -25.7014  -31.4015   25.8908 C   0  0  0  0  0  0  0  0  0  0  0  0
  -23.9659  -30.3238   27.3382 C   0  0  0  0  0  0  0  0  0  0  0  0
  -23.4896  -32.5142   26.2436 C   0  0  0  0  0  0  0  0  0  0  0  0
  -19.7563  -27.9334   22.7867 C   0  0  0  0  0  0  0  0  0  0  0  0
  -27.6612  -21.4528   19.5909 C   0  0  0  0  0  0  0  0  0  0  0  0
  -28.6403  -23.6596   20.1068 C   0  0  0  0  0  0  0  0  0  0  0  0
  -27.7185  -24.7152   19.5229 C   0  0  0  0  0  0  0  0  0  1  0  0
  -23.5610  -30.4150   24.8364 C   0  0  1  0  0  0  0  0  0  0  0  0
  -20.0700  -28.9524   25.0455 C   0  0  2  0  0  0  0  0  0  0  0  0
  -24.1889  -31.1505   26.0538 C   0  0  0  0  0  0  0  0  0  0  0  0
  -26.4935  -11.2636   20.5962 N   0  0  0  0  0  0  0  0  0  0  0  0
  -27.4090  -12.1449   21.0333 N   0  0  0  0  0  0  0  0  0  0  0  0
  -28.8267  -16.8431   18.8987 N   0  0  0  0  0  0  0  0  0  0  0  0
  -24.4812  -30.4903   22.5405 N   0  0  0  0  0  0  0  0  0  0  0  0
  -28.9041  -14.5086   18.4167 N   0  0  0  0  0  0  0  0  0  0  0  0
  -28.1394  -13.3099   22.9620 N   0  0  0  0  0  0  0  0  0  0  0  0
  -24.6463  -10.8790   24.4735 N   0  0  0  0  0  0  0  0  0  0  0  0
  -26.4262  -33.0810   21.6051 N   0  0  0  0  0  0  0  0  0  0  0  0
  -22.1244  -30.1881   24.9514 N   0  0  0  0  0  0  0  0  0  0  0  0
  -27.8964  -22.4824   20.5723 N   0  0  0  0  0  0  0  0  0  0  0  0
  -19.4484  -27.8646   24.2384 N   0  3  0  0  0  0  0  0  0  0  0  0
  -26.2546  -12.3997   25.0729 O   0  0  0  0  0  0  0  0  0  0  0  0
  -27.5501  -23.1775   22.7632 O   0  0  0  0  0  0  0  0  0  0  0  0
  -27.1918  -30.8854   21.7304 O   0  0  0  0  0  0  0  0  0  0  0  0
  -23.3076  -32.3020   23.4218 O   0  0  0  0  0  0  0  0  0  0  0  0
  -22.2148  -27.8796   24.7516 O   0  0  0  0  0  0  0  0  0  0  0  0
  -30.7620  -15.8302   18.1514 O   0  0  0  0  0  0  0  0  0  0  0  0
  -21.5012   -7.4060   21.4598 O   0  0  0  0  0  0  0  0  0  0  0  0
  -26.7873  -25.1296   20.5142 O   0  0  0  0  0  0  0  0  0  1  0  0
  -21.0884   -3.6565   25.4816 F   0  0  0  0  0  0  0  0  0  0  0  0
  -21.5689   -4.7017   20.8900 F   0  0  0  0  0  0  0  0  0  0  0  0
  1  2  1  0  0  0  0
  1  6  2  0  0  0  0
  2  7  2  0  0  0  0
  3  9  2  0  0  0  0
  3 10  1  0  0  0  0
  4 11  2  0  0  0  0
  4 18  1  0  0  0  0
  5 12  1  0  0  0  0
  5 18  2  0  0  0  0
  6 20  1  0  0  0  0
  7 22  1  0  0  0  0
  8 13  2  0  0  0  0
  8 21  1  0  0  0  0
  9 25  1  0  0  0  0
 10 26  2  0  0  0  0
 11 27  1  0  0  0  0
 12 27  2  0  0  0  0
 13 28  1  0  0  0  0
 14 15  2  0  0  0  0
 14 29  1  0  0  0  0
 15 30  1  0  0  0  0
 16 23  1  0  0  0  0
 16 28  2  0  0  0  0
 17 30  2  0  0  0  0
 17 31  1  0  0  0  0
 18 32  1  0  0  0  0
 19 32  1  0  0  0  0
 19 33  2  0  0  0  0
 19 36  1  0  0  0  0
 20 22  2  0  0  0  0
 20 42  1  0  0  0  0
 21 23  2  0  0  0  0
 21 43  1  0  0  0  0
 22 53  1  0  0  0  0
 23 45  1  0  0  0  0
 24 25  2  0  0  0  0
 24 26  1  0  0  0  0
 24 44  1  0  0  0  0
 25 61  1  0  0  0  0
 26 69  1  0  0  0  0
 27 84  1  0  0  0  0
 28 85  1  0  0  0  0
 29 31  2  0  0  0  0
 29 84  1  0  0  0  0
 30 86  1  0  0  0  0
 31 87  1  0  0  0  0
 32 67  2  0  0  0  0
 33 68  1  0  0  0  0
 33 72  1  0  0  0  0
 34 35  2  0  0  0  0
 35 37  1  0  0  0  0
 36 73  1  0  0  0  0
 36 78  2  0  0  0  0
 37 76  1  0  0  0  0
 37 79  2  0  0  0  0
 38 54  1  0  0  0  0
 38 74  1  0  0  0  0
 38 80  2  0  0  0  0
 39 64  1  0  0  0  0
 39 70  1  0  0  0  0
 39 81  2  0  0  0  0
 40 65  1  0  0  0  0
 40 75  1  0  0  0  0
 40 82  2  0  0  0  0
 41 69  1  0  0  0  0
 41 71  1  0  0  0  0
 41 83  2  0  0  0  0
 42 46  1  0  0  0  0
 43 54  1  0  0  0  0
 44 50  1  0  0  0  0
 45 70  1  0  0  0  0
 46 48  1  0  0  0  0
 47 49  1  0  0  0  0
 47 51  1  0  0  0  0
 48 53  1  0  0  0  0
 49 55  1  0  0  0  0
 50 69  1  0  0  0  0
 51 71  1  0  0  0  0
 52 55  1  0  0  0  0
 52 71  1  0  0  0  0
 53 74  1  0  0  0  0
 54 70  1  0  0  0  0
 55 68  1  0  0  0  0
 56 65  1  0  0  0  0
 57 66  1  0  0  0  0
 58 66  1  0  0  0  0
 59 66  1  0  0  0  0
 60 77  1  0  0  0  0
 61 76  1  0  0  0  0
 62 63  1  0  0  0  0
 62 76  1  0  0  0  0
 63 85  1  0  0  0  0
 64 66  1  0  0  0  0
 64 75  1  0  0  0  0
 65 77  1  0  0  0  0
 67 68  1  0  0  0  0
M  CHG  1  77   1
M  ISO  4  41 100  63 101  69 100  85 101
M  END
> <Batch ID>
0010

> <Smiles>
C=CC(=O)N(Cc1cccc2c1CC[100N:0]2[100C:0](=O)N1CCCC(n2nc(-c3ccc(Oc4ccc(F)cc4F)cc3)c(C(N)=O)c2N)C1)C[101CH2:1][101O:1]c1ccc2c(c1)CN(C(=O)C(NC(=O)C(C)NC)C(C)(C)C)C(C(=O)NC1CCCc3ccccc31)C2

> <Shape>
0.309

> <Color>
0.110

> <Negative vol penalty>
0.000

$$$$

  -OEChem-04042320403D

 81 89  0     1  0  0  0  0  0999 V2000
  -18.5612  -31.7701   26.1841 C   0  0  0  0  0  0  0  0  0  0  0  0
  -19.9107  -31.4553   26.3070 C   0  0  0  0  0  0  0  0  0  0  0  0
  -24.7319  -10.0490   22.3108 C   0  0  0  0  0  0  0  0  0  0  0  0
  -24.7893  -11.5537   24.2001 C   0  0  0  0  0  0  0  0  0  0  0  0
  -17.8139  -31.2336   25.1364 C   0  0  0  0  0  0  0  0  0  0  0  0
  -20.5135  -30.6027   25.3828 C   0  0  0  0  0  0  0  0  0  0  0  0
  -26.7800  -29.4526   22.1079 C   0  0  0  0  0  0  0  0  0  0  0  0
  -29.5781  -21.7501   20.9856 C   0  0  0  0  0  0  0  0  0  0  0  0
  -29.6142  -20.3776   20.7400 C   0  0  0  0  0  0  0  0  0  0  0  0
  -24.4175   -8.9906   23.1632 C   0  0  0  0  0  0  0  0  0  0  0  0
  -24.4749  -10.4953   25.0525 C   0  0  0  0  0  0  0  0  0  0  0  0
  -27.6998  -28.4322   21.8703 C   0  0  0  0  0  0  0  0  0  0  0  0
  -21.6829   -7.8074   24.7615 C   0  0  0  0  0  0  0  0  0  0  0  0
  -20.6640   -6.9396   24.3688 C   0  0  0  0  0  0  0  0  0  0  0  0
  -26.3292  -27.6276   20.0556 C   0  0  0  0  0  0  0  0  0  0  0  0
  -27.1630  -21.6932   20.9490 C   0  0  0  0  0  0  0  0  0  0  0  0
  -22.2225   -5.0938   24.4044 C   0  0  0  0  0  0  0  0  0  0  0  0
  -24.9179  -11.3305   22.8292 C   0  0  0  0  0  0  0  0  0  0  0  0
  -24.3424  -13.2836   21.2923 C   0  0  0  0  0  0  0  0  0  0  0  0
  -18.4102  -30.3817   24.1933 C   0  0  0  0  0  0  0  0  0  0  0  0
  -25.6205  -29.5619   21.3269 C   0  0  0  0  0  0  0  0  0  0  0  0
  -19.7732  -30.0532   24.3222 C   0  0  0  0  0  0  0  0  0  0  0  0
  -25.3975  -28.6518   20.2837 C   0  0  0  0  0  0  0  0  0  0  0  0
  -28.3525  -22.4080   21.0902 C   0  0  0  0  0  0  0  0  0  0  0  0
  -28.4248  -19.6628   20.5988 C   0  0  0  0  0  0  0  0  0  0  0  0
  -24.2890   -9.2138   24.5340 C   0  0  0  0  0  0  0  0  0  0  0  0
  -27.4730  -27.5177   20.8459 C   0  0  0  0  0  0  0  0  0  0  0  0
  -22.9716   -7.3185   24.9755 C   0  0  0  0  0  0  0  0  0  0  0  0
  -20.9338   -5.5827   24.1903 C   0  0  0  0  0  0  0  0  0  0  0  0
  -27.1991  -20.3206   20.7033 C   0  0  0  0  0  0  0  0  0  0  0  0
  -23.2414   -5.9617   24.7970 C   0  0  0  0  0  0  0  0  0  0  0  0
  -25.2432  -12.4241   21.9493 C   0  0  0  0  0  0  0  0  0  0  0  0
  -25.1441  -14.1445   20.5834 C   0  0  0  0  0  0  0  0  0  0  0  0
  -22.9090  -13.3022   21.3205 C   0  0  0  0  0  0  0  0  0  0  0  0
  -22.4997  -29.4135   21.9118 C   0  0  0  0  0  0  0  0  0  0  0  0
  -22.2696  -30.2698   18.7916 C   0  0  0  0  0  0  0  0  0  0  0  0
  -23.7074  -30.3579   15.6978 C   0  0  0  0  0  0  0  0  0  0  0  0
  -29.5977  -17.4663   20.2170 C   0  0  0  0  0  0  0  0  0  0  0  0
  -17.5507  -29.7884   23.1052 C   0  0  0  0  0  0  0  0  0  0  0  0
  -24.6515  -30.6843   21.5787 C   0  0  0  0  0  0  0  0  0  0  0  0
  -24.1784  -28.7377   19.4035 C   0  0  0  0  0  0  0  0  0  0  0  0
  -18.3535  -29.1913   21.9523 C   0  0  0  0  0  0  0  0  0  0  0  0
  -30.1143  -13.9915   19.6368 C   0  0  0  0  0  0  0  0  0  0  0  0
  -19.4890  -28.3234   22.4857 C   0  0  0  0  0  0  0  0  0  0  0  0
  -28.8190  -13.3447   20.1327 C   0  0  0  0  0  0  0  0  0  0  0  0
  -30.5243  -15.1788   20.5063 C   0  0  0  0  0  0  0  0  0  0  0  0
  -28.1880  -15.5497   21.1943 C   0  0  0  0  0  0  0  0  0  0  0  0
  -20.4689  -29.1518   23.3254 C   0  0  1  0  0  0  0  0  0  0  0  0
  -23.2493  -30.3924   21.0531 C   0  0  1  0  0  0  0  0  0  0  0  0
  -27.6999  -14.3894   20.3116 C   0  0  2  0  0  0  0  0  0  0  0  0
  -23.2610  -31.0857   13.3380 C   0  0  0  0  0  0  0  0  0  0  0  0
  -20.4562  -27.8489   18.3905 C   0  0  0  0  0  0  0  0  0  0  0  0
  -20.8185  -28.0738   15.9234 C   0  0  0  0  0  0  0  0  0  0  0  0
  -19.7163  -29.9163   17.1934 C   0  0  0  0  0  0  0  0  0  0  0  0
  -25.9838  -32.2489   15.7275 C   0  0  0  0  0  0  0  0  0  0  0  0
  -29.4981  -24.5873   21.4945 C   0  0  0  0  0  0  0  0  0  0  0  0
  -29.1094  -26.0369   21.7322 C   0  0  0  0  0  0  0  0  0  1  0  0
  -22.1974  -29.5243   17.4809 C   0  0  1  0  0  0  0  0  0  0  0  0
  -23.8489  -31.4792   14.6843 C   0  0  2  0  0  0  0  0  0  0  0  0
  -20.8192  -28.8378   17.2647 C   0  0  0  0  0  0  0  0  0  0  0  0
  -26.5196  -12.7126   21.6814 N   0  0  0  0  0  0  0  0  0  0  0  0
  -26.4265  -13.7629   20.8482 N   0  0  0  0  0  0  0  0  0  0  0  0
  -23.2572  -29.8490   19.6934 N   0  0  0  0  0  0  0  0  0  0  0  0
  -29.4162  -16.1286   20.6275 N   0  0  0  0  0  0  0  0  0  0  0  0
  -24.8702  -15.1830   19.7656 N   0  0  0  0  0  0  0  0  0  0  0  0
  -22.2436  -12.3468   22.1007 N   0  0  0  0  0  0  0  0  0  0  0  0
  -28.4649  -18.2686   20.3489 N   0  0  0  0  0  0  0  0  0  0  0  0
  -28.3167  -23.7708   21.3347 N   0  0  0  0  0  0  0  0  0  0  0  0
  -21.3421  -29.9239   22.4676 N   0  0  0  0  0  0  0  0  0  0  0  0
  -22.5550  -30.4862   16.4439 N   0  0  0  0  0  0  0  0  0  0  0  0
  -25.2859  -31.8214   14.4876 N   0  3  0  0  0  0  0  0  0  0  0  0
  -22.2378  -14.1309   20.6600 O   0  0  0  0  0  0  0  0  0  0  0  0
  -22.9383  -28.2786   22.0581 O   0  0  0  0  0  0  0  0  0  0  0  0
  -21.4834  -31.1963   19.0044 O   0  0  0  0  0  0  0  0  0  0  0  0
  -24.5345  -29.4561   15.8133 O   0  0  0  0  0  0  0  0  0  0  0  0
  -30.6706  -17.8635   19.7552 O   0  0  0  0  0  0  0  0  0  0  0  0
  -23.9819   -8.1813   25.3661 O   0  0  0  0  0  0  0  0  0  0  0  0
  -28.3689  -26.5203   20.6122 O   0  0  0  0  0  0  0  0  0  1  0  0
  -19.9549   -4.7491   23.8147 F   0  0  0  0  0  0  0  0  0  0  0  0
  -26.0498  -19.6435   20.5689 F   0  0  0  0  0  0  0  0  0  0  0  0
  -24.4773   -5.4860   25.0023 F   0  0  0  0  0  0  0  0  0  0  0  0
  1  2  1  0  0  0  0
  1  5  2  0  0  0  0
  2  6  2  0  0  0  0
  3 10  2  0  0  0  0
  3 18  1  0  0  0  0
  4 11  1  0  0  0  0
  4 18  2  0  0  0  0
  5 20  1  0  0  0  0
  6 22  1  0  0  0  0
  7 12  2  0  0  0  0
  7 21  1  0  0  0  0
  8  9  2  0  0  0  0
  8 24  1  0  0  0  0
  9 25  1  0  0  0  0
 10 26  1  0  0  0  0
 11 26  2  0  0  0  0
 12 27  1  0  0  0  0
 13 14  2  0  0  0  0
 13 28  1  0  0  0  0
 14 29  1  0  0  0  0
 15 23  1  0  0  0  0
 15 27  2  0  0  0  0
 16 24  2  0  0  0  0
 16 30  1  0  0  0  0
 17 29  2  0  0  0  0
 17 31  1  0  0  0  0
 18 32  1  0  0  0  0
 19 32  1  0  0  0  0
 19 33  2  0  0  0  0
 19 34  1  0  0  0  0
 20 22  2  0  0  0  0
 20 39  1  0  0  0  0
 21 23  2  0  0  0  0
 21 40  1  0  0  0  0
 22 48  1  0  0  0  0
 23 41  1  0  0  0  0
 24 68  1  0  0  0  0
 25 30  2  0  0  0  0
 25 67  1  0  0  0  0
 26 77  1  0  0  0  0
 27 78  1  0  0  0  0
 28 31  2  0  0  0  0
 28 77  1  0  0  0  0
 29 79  1  0  0  0  0
 30 80  1  0  0  0  0
 31 81  1  0  0  0  0
 32 61  2  0  0  0  0
 33 62  1  0  0  0  0
 33 65  1  0  0  0  0
 34 66  1  0  0  0  0
 34 72  2  0  0  0  0
 35 49  1  0  0  0  0
 35 69  1  0  0  0  0
 35 73  2  0  0  0  0
 36 58  1  0  0  0  0
 36 63  1  0  0  0  0
 36 74  2  0  0  0  0
 37 59  1  0  0  0  0
 37 70  1  0  0  0  0
 37 75  2  0  0  0  0
 38 64  1  0  0  0  0
 38 67  1  0  0  0  0
 38 76  2  0  0  0  0
 39 42  1  0  0  0  0
 40 49  1  0  0  0  0
 41 63  1  0  0  0  0
 42 44  1  0  0  0  0
 43 45  1  0  0  0  0
 43 46  1  0  0  0  0
 44 48  1  0  0  0  0
 45 50  1  0  0  0  0
 46 64  1  0  0  0  0
 47 50  1  0  0  0  0
 47 64  1  0  0  0  0
 48 69  1  0  0  0  0
 49 63  1  0  0  0  0
 50 62  1  0  0  0  0
 51 59  1  0  0  0  0
 52 60  1  0  0  0  0
 53 60  1  0  0  0  0
 54 60  1  0  0  0  0
 55 71  1  0  0  0  0
 56 57  1  0  0  0  0
 56 68  1  0  0  0  0
 57 78  1  0  0  0  0
 58 60  1  0  0  0  0
 58 70  1  0  0  0  0
 59 71  1  0  0  0  0
 61 62  1  0  0  0  0
M  CHG  1  71   1
M  ISO  4  38 100  57 101  67 100  78 101
M  END
> <Batch ID>
0010

> <Smiles>
CNC(C)C(=O)NC(C(=O)N1Cc2cc([101O:1][101CH2:1]CNc3ccc([100NH:0][100C:0](=O)N4CCCC(n5nc(-c6ccc(Oc7ccc(F)cc7F)cc6)c(C(N)=O)c5N)C4)c(F)c3)ccc2CC1C(=O)NC1CCCc2ccccc21)C(C)(C)C

> <Shape>
0.285

> <Color>
0.137

> <Negative vol penalty>
0.000

$$$$

  -OEChem-04042320403D

 85 94  0     1  0  0  0  0  0999 V2000
  -16.6367  -30.3162   23.1380 C   0  0  0  0  0  0  0  0  0  0  0  0
  -17.6575  -30.6485   22.2531 C   0  0  0  0  0  0  0  0  0  0  0  0
  -26.8477  -12.8161   20.0542 C   0  0  0  0  0  0  0  0  0  0  0  0
  -26.8828  -13.7834   22.2678 C   0  0  0  0  0  0  0  0  0  0  0  0
  -16.9337  -29.6418   24.3215 C   0  0  0  0  0  0  0  0  0  0  0  0
  -18.9761  -30.3074   22.5518 C   0  0  0  0  0  0  0  0  0  0  0  0
  -25.0984  -28.3714   19.3759 C   0  0  0  0  0  0  0  0  0  0  0  0
  -32.2245  -23.8827   18.6767 C   0  0  0  0  0  0  0  0  0  0  0  0
  -32.3828  -22.5885   19.1721 C   0  0  0  0  0  0  0  0  0  0  0  0
  -26.3454  -11.6267   20.5819 C   0  0  0  0  0  0  0  0  0  0  0  0
  -26.3804  -12.5940   22.7955 C   0  0  0  0  0  0  0  0  0  0  0  0
  -26.4465  -28.7237   19.3306 C   0  0  0  0  0  0  0  0  0  0  0  0
  -23.3633  -10.4341   21.6393 C   0  0  0  0  0  0  0  0  0  0  0  0
  -22.3012   -9.8258   20.9705 C   0  0  0  0  0  0  0  0  0  0  0  0
  -26.8314  -27.4892   21.3670 C   0  0  0  0  0  0  0  0  0  0  0  0
  -30.1482  -24.0947   19.8937 C   0  0  0  0  0  0  0  0  0  0  0  0
  -23.6482   -7.8495   20.6289 C   0  0  0  0  0  0  0  0  0  0  0  0
  -27.1165  -13.8945   20.8971 C   0  0  0  0  0  0  0  0  0  0  0  0
  -26.8960  -16.2249   19.8832 C   0  0  0  0  0  0  0  0  0  0  0  0
  -18.2555  -29.2838   24.6304 C   0  0  0  0  0  0  0  0  0  0  0  0
  -24.6036  -27.5830   20.4248 C   0  0  0  0  0  0  0  0  0  0  0  0
  -19.2913  -29.6288   23.7413 C   0  0  0  0  0  0  0  0  0  0  0  0
  -25.4771  -27.1261   21.4220 C   0  0  0  0  0  0  0  0  0  0  0  0
  -31.1073  -24.6359   19.0375 C   0  0  0  0  0  0  0  0  0  0  0  0
  -31.4237  -22.0473   20.0282 C   0  0  0  0  0  0  0  0  0  0  0  0
  -26.1117  -11.5156   21.9525 C   0  0  0  0  0  0  0  0  0  0  0  0
  -27.3127  -28.2851   20.3278 C   0  0  0  0  0  0  0  0  0  0  0  0
  -24.5680   -9.7502   21.8029 C   0  0  0  0  0  0  0  0  0  0  0  0
  -22.4436   -8.5335   20.4653 C   0  0  0  0  0  0  0  0  0  0  0  0
  -30.3064  -22.8004   20.3890 C   0  0  0  0  0  0  0  0  0  0  0  0
  -24.7104   -8.4578   21.2977 C   0  0  0  0  0  0  0  0  0  0  0  0
  -27.6360  -15.1232   20.3527 C   0  0  0  0  0  0  0  0  0  0  0  0
  -27.8466  -17.1280   19.4744 C   0  0  0  0  0  0  0  0  0  0  0  0
  -25.4761  -16.4150   19.8222 C   0  0  0  0  0  0  0  0  0  0  0  0
  -22.4508  -28.0046   22.7251 C   0  0  0  0  0  0  0  0  0  0  0  0
  -23.0350  -24.8679   23.3102 C   0  0  0  0  0  0  0  0  0  0  0  0
  -25.1773  -22.2235   23.0566 C   0  0  0  0  0  0  0  0  0  0  0  0
  -32.6371  -19.8527   20.2685 C   0  0  0  0  0  0  0  0  0  0  0  0
  -18.5336  -28.5972   25.9441 C   0  0  0  0  0  0  0  0  0  0  0  0
  -23.1520  -27.1894   20.4448 C   0  0  0  0  0  0  0  0  0  0  0  0
  -24.9999  -26.2608   22.5586 C   0  0  0  0  0  0  0  0  0  0  0  0
  -19.9102  -27.9407   26.0089 C   0  0  0  0  0  0  0  0  0  0  0  0
  -32.8408  -16.5955   18.8449 C   0  0  0  0  0  0  0  0  0  0  0  0
  -32.6768  -28.4673   20.3441 C   0  0  0  0  0  0  0  0  0  0  0  0
  -20.9811  -28.8937   25.4877 C   0  0  0  0  0  0  0  0  0  0  0  0
  -31.4440  -16.0128   19.0716 C   0  0  0  0  0  0  0  0  0  0  0  0
  -31.4697  -29.3337   20.0441 C   0  0  0  0  0  0  0  0  0  0  0  0
  -33.2884  -17.4679   20.0164 C   0  0  0  0  0  0  0  0  0  0  0  0
  -30.9490  -17.9448   20.6237 C   0  0  0  0  0  0  0  0  0  0  0  0
  -32.0919  -27.0757   20.4895 C   0  0  0  0  0  0  0  0  0  0  0  0
  -20.7311  -29.2541   24.0183 C   0  0  1  0  0  0  0  0  0  0  0  0
  -22.6549  -26.8103   21.8364 C   0  0  1  0  0  0  0  0  0  0  0  0
  -30.4282  -17.1114   19.4414 C   0  0  2  0  0  0  0  0  0  0  0  0
  -30.6832  -28.4831   19.0578 C   0  0  2  0  0  0  0  0  0  0  0  0
  -25.3921  -19.7974   23.6610 C   0  0  0  0  0  0  0  0  0  0  0  0
  -23.5961  -25.6419   26.2078 C   0  0  0  0  0  0  0  0  0  0  0  0
  -24.7001  -23.4160   26.5155 C   0  0  0  0  0  0  0  0  0  0  0  0
  -22.2788  -23.5346   25.9273 C   0  0  0  0  0  0  0  0  0  0  0  0
  -25.4090  -21.4174   20.2184 C   0  0  0  0  0  0  0  0  0  0  0  0
  -30.9363  -26.0277   18.5040 C   0  0  0  0  0  0  0  0  0  0  0  0
  -29.2071  -28.8303   18.9975 C   0  0  0  0  0  0  0  0  0  1  0  0
  -24.0096  -24.1051   24.1748 C   0  0  1  0  0  0  0  0  0  0  0  0
  -24.9620  -20.7934   22.5953 C   0  0  2  0  0  0  0  0  0  0  0  0
  -23.6551  -24.1923   25.6861 C   0  0  0  0  0  0  0  0  0  0  0  0
  -28.9550  -15.3074   20.2518 N   0  0  0  0  0  0  0  0  0  0  0  0
  -29.0513  -16.5353   19.7142 N   0  0  0  0  0  0  0  0  0  0  0  0
  -23.5706  -25.9080   22.5374 N   0  0  0  0  0  0  0  0  0  0  0  0
  -32.2790  -18.4884   20.3067 N   0  0  0  0  0  0  0  0  0  0  0  0
  -27.7612  -18.3633   18.9367 N   0  0  0  0  0  0  0  0  0  0  0  0
  -24.6439  -15.3862   20.2841 N   0  0  0  0  0  0  0  0  0  0  0  0
  -31.5868  -20.7320   20.5295 N   0  0  0  0  0  0  0  0  0  0  0  0
  -21.1478  -28.1705   23.1542 N   0  0  0  0  0  0  0  0  0  0  0  0
  -24.0458  -22.7455   23.6470 N   0  0  0  0  0  0  0  0  0  0  0  0
  -30.8730  -27.0662   19.5822 N   0  3  1  0  0  0  0  0  0  0  0  0
  -25.7466  -20.5249   21.3570 N   0  3  0  0  0  0  0  0  0  0  0  0
  -24.9606  -17.4593   19.3562 O   0  0  0  0  0  0  0  0  0  0  0  0
  -23.4052  -28.7216   23.0023 O   0  0  0  0  0  0  0  0  0  0  0  0
  -21.8437  -24.5480   23.3149 O   0  0  0  0  0  0  0  0  0  0  0  0
  -26.2438  -22.8168   22.9115 O   0  0  0  0  0  0  0  0  0  0  0  0
  -33.7844  -20.2150   19.9956 O   0  0  0  0  0  0  0  0  0  0  0  0
  -25.6213  -10.3552   22.4678 O   0  0  0  0  0  0  0  0  0  0  0  0
  -28.6290  -28.6281   20.2863 O   0  0  0  0  0  0  0  0  0  1  0  0
  -21.4230   -7.9488   19.8244 F   0  0  0  0  0  0  0  0  0  0  0  0
  -29.3776  -22.2898   21.2100 F   0  0  0  0  0  0  0  0  0  0  0  0
  -25.8648   -7.7953   21.4528 F   0  0  0  0  0  0  0  0  0  0  0  0
  1  2  1  0  0  0  0
  1  5  2  0  0  0  0
  2  6  2  0  0  0  0
  3 10  2  0  0  0  0
  3 18  1  0  0  0  0
  4 11  1  0  0  0  0
  4 18  2  0  0  0  0
  5 20  1  0  0  0  0
  6 22  1  0  0  0  0
  7 12  2  0  0  0  0
  7 21  1  0  0  0  0
  8  9  2  0  0  0  0
  8 24  1  0  0  0  0
  9 25  1  0  0  0  0
 10 26  1  0  0  0  0
 11 26  2  0  0  0  0
 12 27  1  0  0  0  0
 13 14  2  0  0  0  0
 13 28  1  0  0  0  0
 14 29  1  0  0  0  0
 15 23  1  0  0  0  0
 15 27  2  0  0  0  0
 16 24  2  0  0  0  0
 16 30  1  0  0  0  0
 17 29  2  0  0  0  0
 17 31  1  0  0  0  0
 18 32  1  0  0  0  0
 19 32  1  0  0  0  0
 19 33  2  0  0  0  0
 19 34  1  0  0  0  0
 20 22  2  0  0  0  0
 20 39  1  0  0  0  0
 21 23  2  0  0  0  0
 21 40  1  0  0  0  0
 22 51  1  0  0  0  0
 23 41  1  0  0  0  0
 24 60  1  0  0  0  0
 25 30  2  0  0  0  0
 25 71  1  0  0  0  0
 26 81  1  0  0  0  0
 27 82  1  0  0  0  0
 28 31  2  0  0  0  0
 28 81  1  0  0  0  0
 29 83  1  0  0  0  0
 30 84  1  0  0  0  0
 31 85  1  0  0  0  0
 32 65  2  0  0  0  0
 33 66  1  0  0  0  0
 33 69  1  0  0  0  0
 34 70  1  0  0  0  0
 34 76  2  0  0  0  0
 35 52  1  0  0  0  0
 35 72  1  0  0  0  0
 35 77  2  0  0  0  0
 36 62  1  0  0  0  0
 36 67  1  0  0  0  0
 36 78  2  0  0  0  0
 37 63  1  0  0  0  0
 37 73  1  0  0  0  0
 37 79  2  0  0  0  0
 38 68  1  0  0  0  0
 38 71  1  0  0  0  0
 38 80  2  0  0  0  0
 39 42  1  0  0  0  0
 40 52  1  0  0  0  0
 41 67  1  0  0  0  0
 42 45  1  0  0  0  0
 43 46  1  0  0  0  0
 43 48  1  0  0  0  0
 44 47  1  0  0  0  0
 44 50  1  0  0  0  0
 45 51  1  0  0  0  0
 46 53  1  0  0  0  0
 47 54  1  0  0  0  0
 48 68  1  0  0  0  0
 49 53  1  0  0  0  0
 49 68  1  0  0  0  0
 50 74  1  0  0  0  0
 51 72  1  0  0  0  0
 52 67  1  0  0  0  0
 53 66  1  0  0  0  0
 54 61  1  0  0  0  0
 54 74  1  0  0  0  0
 55 63  1  0  0  0  0
 56 64  1  0  0  0  0
 57 64  1  0  0  0  0
 58 64  1  0  0  0  0
 59 75  1  0  0  0  0
 60 74  1  0  0  0  0
 61 82  1  0  0  0  0
 62 64  1  0  0  0  0
 62 73  1  0  0  0  0
 63 75  1  0  0  0  0
 65 66  1  0  0  0  0
M  CHG  2  74   1  75   1
M  ISO  4  38 100  61 101  71 100  82 101
M  END
> <Batch ID>
0010

> <Smiles>
CNC(C)C(=O)NC(C(=O)N1Cc2cc([101O:1][101CH2:1]C3CCCN3Cc3ccc([100NH:0][100C:0](=O)N4CCCC(n5nc(-c6ccc(Oc7ccc(F)cc7F)cc6)c(C(N)=O)c5N)C4)c(F)c3)ccc2CC1C(=O)NC1CCCc2ccccc21)C(C)(C)C

> <Shape>
0.219

> <Color>
0.078

> <Negative vol penalty>
0.000

$$$$

  -OEChem-04042320403D

 80 88  0     1  0  0  0  0  0999 V2000
  -28.7191  -32.4205   25.8861 C   0  0  0  0  0  0  0  0  0  0  0  0
  -29.0373  -31.1451   25.4304 C   0  0  0  0  0  0  0  0  0  0  0  0
  -22.8692  -11.3821   18.9702 C   0  0  0  0  0  0  0  0  0  0  0  0
  -23.0887  -10.0258   20.9575 C   0  0  0  0  0  0  0  0  0  0  0  0
  -29.5651  -16.8605   18.6086 C   0  0  0  0  0  0  0  0  0  0  0  0
  -27.4013  -32.8719   25.8271 C   0  0  0  0  0  0  0  0  0  0  0  0
  -28.0376  -30.3200   24.9165 C   0  0  0  0  0  0  0  0  0  0  0  0
  -28.5897  -26.2704   20.3556 C   0  0  0  0  0  0  0  0  0  0  0  0
  -28.9222  -18.0924   18.7290 C   0  0  0  0  0  0  0  0  0  0  0  0
  -21.8615  -10.5373   18.5049 C   0  0  0  0  0  0  0  0  0  0  0  0
  -22.0810   -9.1809   20.4922 C   0  0  0  0  0  0  0  0  0  0  0  0
  -28.7769  -24.8889   20.3454 C   0  0  0  0  0  0  0  0  0  0  0  0
  -18.7056   -9.1878   20.3280 C   0  0  0  0  0  0  0  0  0  0  0  0
  -17.7184   -8.7991   21.2334 C   0  0  0  0  0  0  0  0  0  0  0  0
  -26.3985  -24.5745   20.0934 C   0  0  0  0  0  0  0  0  0  0  0  0
  -29.1245  -17.9630   21.1329 C   0  0  0  0  0  0  0  0  0  0  0  0
  -18.3276   -6.4845   20.9042 C   0  0  0  0  0  0  0  0  0  0  0  0
  -23.4829  -11.1263   20.1965 C   0  0  0  0  0  0  0  0  0  0  0  0
  -29.9877  -16.1797   19.7503 C   0  0  0  0  0  0  0  0  0  0  0  0
  -24.3698  -13.1459   21.4780 C   0  0  0  0  0  0  0  0  0  0  0  0
  -26.3865  -32.0555   25.3032 C   0  0  0  0  0  0  0  0  0  0  0  0
  -27.3021  -26.8150   20.2455 C   0  0  0  0  0  0  0  0  0  0  0  0
  -26.7047  -30.7605   24.8516 C   0  0  0  0  0  0  0  0  0  0  0  0
  -26.1979  -25.9633   20.0999 C   0  0  0  0  0  0  0  0  0  0  0  0
  -29.7674  -16.7309   21.0125 C   0  0  0  0  0  0  0  0  0  0  0  0
  -28.7019  -18.6437   19.9913 C   0  0  0  0  0  0  0  0  0  0  0  0
  -21.4674   -9.4367   19.2659 C   0  0  0  0  0  0  0  0  0  0  0  0
  -27.6810  -24.0406   20.2172 C   0  0  0  0  0  0  0  0  0  0  0  0
  -19.5038   -8.2248   19.7105 C   0  0  0  0  0  0  0  0  0  0  0  0
  -17.5294   -7.4475   21.5216 C   0  0  0  0  0  0  0  0  0  0  0  0
  -19.3148   -6.8732   19.9986 C   0  0  0  0  0  0  0  0  0  0  0  0
  -24.5242  -11.9983   20.6774 C   0  0  0  0  0  0  0  0  0  0  0  0
  -25.6485  -13.6141   21.6573 C   0  0  0  0  0  0  0  0  0  0  0  0
  -30.6625  -14.8846   19.5945 C   0  0  0  0  0  0  0  0  0  0  0  0
  -23.1771  -13.7359   22.0119 C   0  0  0  0  0  0  0  0  0  0  0  0
  -25.4639  -28.6209   22.1065 C   0  0  0  0  0  0  0  0  0  0  0  0
  -23.5144  -28.6249   19.5139 C   0  0  0  0  0  0  0  0  0  0  0  0
  -22.5206  -27.0870   16.6339 C   0  0  0  0  0  0  0  0  0  0  0  0
  -24.9686  -32.5695   25.3036 C   0  0  0  0  0  0  0  0  0  0  0  0
  -27.1197  -28.3080   20.2313 C   0  0  0  0  0  0  0  0  0  0  0  0
  -24.7970  -26.4982   19.9581 C   0  0  0  0  0  0  0  0  0  0  0  0
  -24.0318  -31.7731   24.3988 C   0  0  0  0  0  0  0  0  0  0  0  0
  -30.1210  -11.5029   20.6007 C   0  0  0  0  0  0  0  0  0  0  0  0
  -24.2236  -30.2757   24.6175 C   0  0  0  0  0  0  0  0  0  0  0  0
  -28.6019  -11.4159   20.7581 C   0  0  0  0  0  0  0  0  0  0  0  0
  -30.5164  -12.4215   19.4473 C   0  0  0  0  0  0  0  0  0  0  0  0
  -28.4104  -13.6935   19.6735 C   0  0  0  0  0  0  0  0  0  0  0  0
  -25.6523  -29.8451   24.2644 C   0  0  1  0  0  0  0  0  0  0  0  0
  -25.7124  -28.7418   20.6296 C   0  0  1  0  0  0  0  0  0  0  0  0
  -27.9703  -12.8172   20.8577 C   0  0  1  0  0  0  0  0  0  0  0  0
  -30.2103  -16.0231   22.2514 C   0  0  0  0  0  0  0  0  0  0  0  0
  -20.8798  -27.3075   14.7480 C   0  0  0  0  0  0  0  0  0  0  0  0
  -21.2776  -27.6583   21.3503 C   0  0  0  0  0  0  0  0  0  0  0  0
  -19.9834  -26.9984   19.3112 C   0  0  0  0  0  0  0  0  0  0  0  0
  -20.5847  -29.3904   19.6847 C   0  0  0  0  0  0  0  0  0  0  0  0
  -24.6824  -27.2812   14.6219 C   0  0  0  0  0  0  0  0  0  0  0  0
  -27.5938  -20.6384   18.9818 C   0  0  0  0  0  0  0  0  0  0  0  0
  -26.9254  -21.9171   19.4585 C   0  0  0  0  0  0  0  0  0  1  0  0
  -22.3886  -27.7478   19.0214 C   0  0  1  0  0  0  0  0  0  0  0  0
  -22.2854  -27.6251   15.2341 C   0  0  2  0  0  0  0  0  0  0  0  0
  -21.0846  -27.9383   19.8465 C   0  0  0  0  0  0  0  0  0  0  0  0
  -25.8004  -11.7525   20.3693 N   0  0  0  0  0  0  0  0  0  0  0  0
  -26.4595  -12.7522   20.9793 N   0  0  0  0  0  0  0  0  0  0  0  0
  -29.8770  -13.7295   19.5850 N   0  0  0  0  0  0  0  0  0  0  0  0
  -24.6696  -27.9649   19.9562 N   0  0  0  0  0  0  0  0  0  0  0  0
  -26.1470  -14.6749   22.3271 N   0  0  0  0  0  0  0  0  0  0  0  0
  -21.9466  -13.1264   21.7309 N   0  0  0  0  0  0  0  0  0  0  0  0
  -28.0634  -19.8671   20.1099 N   0  0  0  0  0  0  0  0  0  0  0  0
  -25.8104  -29.7465   22.8293 N   0  0  0  0  0  0  0  0  0  0  0  0
  -22.2421  -28.0325   17.5981 N   0  0  0  0  0  0  0  0  0  0  0  0
  -23.2597  -27.0265   14.2784 N   0  3  0  0  0  0  0  0  0  0  0  0
  -31.8881  -14.9189   19.4949 O   0  0  0  0  0  0  0  0  0  0  0  0
  -23.2002  -14.7822   22.7035 O   0  0  0  0  0  0  0  0  0  0  0  0
  -24.9913  -27.5838   22.5568 O   0  0  0  0  0  0  0  0  0  0  0  0
  -23.3766  -29.8506   19.4997 O   0  0  0  0  0  0  0  0  0  0  0  0
  -22.9089  -25.9412   16.8505 O   0  0  0  0  0  0  0  0  0  0  0  0
  -20.4840   -8.6123   18.8123 O   0  0  0  0  0  0  0  0  0  0  0  0
  -27.8609  -22.6918   20.2076 O   0  0  0  0  0  0  0  0  0  1  0  0
  -16.5823   -7.0746   22.3923 F   0  0  0  0  0  0  0  0  0  0  0  0
  -20.0793   -5.9435   19.4095 F   0  0  0  0  0  0  0  0  0  0  0  0
  1  2  1  0  0  0  0
  1  6  2  0  0  0  0
  2  7  2  0  0  0  0
  3 10  2  0  0  0  0
  3 18  1  0  0  0  0
  4 11  1  0  0  0  0
  4 18  2  0  0  0  0
  5  9  2  0  0  0  0
  5 19  1  0  0  0  0
  6 21  1  0  0  0  0
  7 23  1  0  0  0  0
  8 12  2  0  0  0  0
  8 22  1  0  0  0  0
  9 26  1  0  0  0  0
 10 27  1  0  0  0  0
 11 27  2  0  0  0  0
 12 28  1  0  0  0  0
 13 14  2  0  0  0  0
 13 29  1  0  0  0  0
 14 30  1  0  0  0  0
 15 24  1  0  0  0  0
 15 28  2  0  0  0  0
 16 25  1  0  0  0  0
 16 26  2  0  0  0  0
 17 30  2  0  0  0  0
 17 31  1  0  0  0  0
 18 32  1  0  0  0  0
 19 25  2  0  0  0  0
 19 34  1  0  0  0  0
 20 32  1  0  0  0  0
 20 33  2  0  0  0  0
 20 35  1  0  0  0  0
 21 23  2  0  0  0  0
 21 39  1  0  0  0  0
 22 24  2  0  0  0  0
 22 40  1  0  0  0  0
 23 48  1  0  0  0  0
 24 41  1  0  0  0  0
 25 51  1  0  0  0  0
 26 68  1  0  0  0  0
 27 77  1  0  0  0  0
 28 78  1  0  0  0  0
 29 31  2  0  0  0  0
 29 77  1  0  0  0  0
 30 79  1  0  0  0  0
 31 80  1  0  0  0  0
 32 62  2  0  0  0  0
 33 63  1  0  0  0  0
 33 66  1  0  0  0  0
 34 64  1  0  0  0  0
 34 72  2  0  0  0  0
 35 67  1  0  0  0  0
 35 73  2  0  0  0  0
 36 49  1  0  0  0  0
 36 69  1  0  0  0  0
 36 74  2  0  0  0  0
 37 59  1  0  0  0  0
 37 65  1  0  0  0  0
 37 75  2  0  0  0  0
 38 60  1  0  0  0  0
 38 70  1  0  0  0  0
 38 76  2  0  0  0  0
 39 42  1  0  0  0  0
 40 49  1  0  0  0  0
 41 65  1  0  0  0  0
 42 44  1  0  0  0  0
 43 45  1  0  0  0  0
 43 46  1  0  0  0  0
 44 48  1  0  0  0  0
 45 50  1  0  0  0  0
 46 64  1  0  0  0  0
 47 50  1  0  0  0  0
 47 64  1  0  0  0  0
 48 69  1  0  0  0  0
 49 65  1  0  0  0  0
 50 63  1  0  0  0  0
 52 60  1  0  0  0  0
 53 61  1  0  0  0  0
 54 61  1  0  0  0  0
 55 61  1  0  0  0  0
 56 71  1  0  0  0  0
 57 58  1  0  0  0  0
 57 68  1  0  0  0  0
 58 78  1  0  0  0  0
 59 61  1  0  0  0  0
 59 70  1  0  0  0  0
 60 71  1  0  0  0  0
 62 63  1  0  0  0  0
M  CHG  1  71   1
M  ISO  4  19 100  34 100  58 101  78 101
M  END
> <Batch ID>
0010

> <Smiles>
CNC(C)C(=O)NC(C(=O)N1Cc2cc([101O:1][101CH2:1]CNc3cc[100c:0]([100C:0](=O)N4CCCC(n5nc(-c6ccc(Oc7ccc(F)cc7F)cc6)c(C(N)=O)c5N)C4)c(C)c3)ccc2CC1C(=O)NC1CCCc2ccccc21)C(C)(C)C

> <Shape>
0.290

> <Color>
0.092

> <Negative vol penalty>
0.000

$$$$

  -OEChem-04042320403D

 82 90  0     1  0  0  0  0  0999 V2000
  -40.0633  -23.6973   19.7985 C   0  0  0  0  0  0  0  0  0  0  0  0
  -38.7050  -23.4670   19.9920 C   0  0  0  0  0  0  0  0  0  0  0  0
  -23.0959   -9.8268   19.9552 C   0  0  0  0  0  0  0  0  0  0  0  0
  -23.8450   -9.8732   22.2517 C   0  0  0  0  0  0  0  0  0  0  0  0
  -40.5675  -24.9946   19.8790 C   0  0  0  0  0  0  0  0  0  0  0  0
  -37.8503  -24.5339   20.2672 C   0  0  0  0  0  0  0  0  0  0  0  0
  -33.5601  -24.3281   17.5845 C   0  0  0  0  0  0  0  0  0  0  0  0
  -22.3662   -8.6671   20.2166 C   0  0  0  0  0  0  0  0  0  0  0  0
  -23.1152   -8.7136   22.5131 C   0  0  0  0  0  0  0  0  0  0  0  0
  -32.5787  -23.4389   18.0203 C   0  0  0  0  0  0  0  0  0  0  0  0
  -19.8952   -7.8806   23.1114 C   0  0  0  0  0  0  0  0  0  0  0  0
  -19.1334   -7.8456   24.2793 C   0  0  0  0  0  0  0  0  0  0  0  0
  -31.4001  -25.2635   19.0697 C   0  0  0  0  0  0  0  0  0  0  0  0
  -31.0639  -17.7684   20.5461 C   0  0  0  0  0  0  0  0  0  0  0  0
  -29.5741  -19.3503   22.2955 C   0  0  0  0  0  0  0  0  0  0  0  0
  -20.3970   -5.9344   25.0462 C   0  0  0  0  0  0  0  0  0  0  0  0
  -23.8353  -10.4298   20.9727 C   0  0  0  0  0  0  0  0  0  0  0  0
  -24.1442  -12.9576   20.8218 C   0  0  0  0  0  0  0  0  0  0  0  0
  -39.7171  -26.0792   20.1457 C   0  0  0  0  0  0  0  0  0  0  0  0
  -33.4744  -25.6923   17.8979 C   0  0  0  0  0  0  0  0  0  0  0  0
  -38.3439  -25.8468   20.3526 C   0  0  0  0  0  0  0  0  0  0  0  0
  -32.3804  -26.1683   18.6345 C   0  0  0  0  0  0  0  0  0  0  0  0
  -30.1674  -17.1728   21.4333 C   0  0  0  0  0  0  0  0  0  0  0  0
  -22.3759   -8.1105   21.4956 C   0  0  0  0  0  0  0  0  0  0  0  0
  -31.5000  -23.9061   18.7654 C   0  0  0  0  0  0  0  0  0  0  0  0
  -20.9078   -6.9425   22.9108 C   0  0  0  0  0  0  0  0  0  0  0  0
  -30.4706  -19.9459   21.4083 C   0  0  0  0  0  0  0  0  0  0  0  0
  -19.3843   -6.8725   25.2467 C   0  0  0  0  0  0  0  0  0  0  0  0
  -31.2155  -19.1550   20.5336 C   0  0  0  0  0  0  0  0  0  0  0  0
  -29.4225  -17.9637   22.3080 C   0  0  0  0  0  0  0  0  0  0  0  0
  -21.1587   -5.9694   23.8782 C   0  0  0  0  0  0  0  0  0  0  0  0
  -24.5897  -11.6275   20.7031 C   0  0  0  0  0  0  0  0  0  0  0  0
  -25.2280  -13.7168   20.4538 C   0  0  0  0  0  0  0  0  0  0  0  0
  -22.8650  -13.4617   21.2283 C   0  0  0  0  0  0  0  0  0  0  0  0
  -35.2702  -27.7323   19.5462 C   0  0  0  0  0  0  0  0  0  0  0  0
  -33.1470  -29.9091   18.4167 C   0  0  0  0  0  0  0  0  0  0  0  0
  -30.0229  -30.5484   17.2009 C   0  0  0  0  0  0  0  0  0  0  0  0
  -30.6790  -14.8373   20.6395 C   0  0  0  0  0  0  0  0  0  0  0  0
  -40.3159  -27.4578   20.2699 C   0  0  0  0  0  0  0  0  0  0  0  0
  -34.5274  -26.6427   17.3975 C   0  0  0  0  0  0  0  0  0  0  0  0
  -32.2313  -27.6267   18.9801 C   0  0  0  0  0  0  0  0  0  0  0  0
  -39.2832  -28.5795   20.1945 C   0  0  0  0  0  0  0  0  0  0  0  0
  -29.6077  -12.3787   18.2975 C   0  0  0  0  0  0  0  0  0  0  0  0
  -38.0861  -28.2638   21.0858 C   0  0  0  0  0  0  0  0  0  0  0  0
  -28.1701  -12.0735   18.7243 C   0  0  0  0  0  0  0  0  0  0  0  0
  -30.5141  -12.6350   19.5002 C   0  0  0  0  0  0  0  0  0  0  0  0
  -28.5913  -13.3517   20.8635 C   0  0  0  0  0  0  0  0  0  0  0  0
  -37.3810  -26.9811   20.6285 C   0  0  1  0  0  0  0  0  0  0  0  0
  -34.6066  -27.9298   18.2127 C   0  0  1  0  0  0  0  0  0  0  0  0
  -27.6263  -13.1504   19.6836 C   0  0  2  0  0  0  0  0  0  0  0  0
  -28.5673  -32.4295   16.4010 C   0  0  0  0  0  0  0  0  0  0  0  0
  -32.7107  -30.7957   21.3034 C   0  0  0  0  0  0  0  0  0  0  0  0
  -30.6228  -31.9585   20.5573 C   0  0  0  0  0  0  0  0  0  0  0  0
  -32.8349  -32.6641   19.6457 C   0  0  0  0  0  0  0  0  0  0  0  0
  -29.7537  -29.3494   14.5086 C   0  0  0  0  0  0  0  0  0  0  0  0
  -29.8739  -23.3603   20.4128 C   0  0  0  0  0  0  0  0  0  1  0  0
  -29.4565  -22.0750   21.1009 C   0  0  0  0  0  0  0  0  0  0  0  0
  -31.8300  -30.4678   18.8987 C   0  0  1  0  0  0  0  0  0  0  0  0
  -29.5542  -31.3453   15.9969 C   0  0  2  0  0  0  0  0  0  0  0  0
  -32.0031  -31.4437   20.0966 C   0  0  0  0  0  0  0  0  0  0  0  0
  -25.8577  -11.5431   20.2918 N   0  0  0  0  0  0  0  0  0  0  0  0
  -26.2181  -12.8299   20.1487 N   0  0  0  0  0  0  0  0  0  0  0  0
  -33.2901  -28.5155   18.4736 N   0  0  0  0  0  0  0  0  0  0  0  0
  -29.9374  -13.6695   20.3617 N   0  0  0  0  0  0  0  0  0  0  0  0
  -25.4211  -15.0499   20.3646 N   0  0  0  0  0  0  0  0  0  0  0  0
  -21.8637  -12.5436   21.5727 N   0  0  0  0  0  0  0  0  0  0  0  0
  -30.0156  -15.7640   21.4431 N   0  0  0  0  0  0  0  0  0  0  0  0
  -36.5599  -27.2428   19.4658 N   0  0  0  0  0  0  0  0  0  0  0  0
  -31.1872  -31.0622   17.7317 N   0  0  0  0  0  0  0  0  0  0  0  0
  -28.8893  -30.4489   15.0094 N   0  3  0  0  0  0  0  0  0  0  0  0
  -22.6122  -14.6897   21.2688 O   0  0  0  0  0  0  0  0  0  0  0  0
  -34.6580  -28.0053   20.5721 O   0  0  0  0  0  0  0  0  0  0  0  0
  -34.0142  -30.6802   17.9982 O   0  0  0  0  0  0  0  0  0  0  0  0
  -29.4149  -29.5703   17.6301 O   0  0  0  0  0  0  0  0  0  0  0  0
  -31.8079  -15.0150   20.1748 O   0  0  0  0  0  0  0  0  0  0  0  0
  -21.6638   -6.9791   21.7511 O   0  0  0  0  0  0  0  0  0  0  0  0
  -30.5410  -23.0402   19.1926 O   0  0  0  0  0  0  0  0  0  1  0  0
  -30.6174  -21.3080   21.3964 O   0  0  0  0  0  0  0  0  0  0  0  0
  -18.6537   -6.8400   26.3689 F   0  0  0  0  0  0  0  0  0  0  0  0
  -32.0780  -19.7218   19.6791 F   0  0  0  0  0  0  0  0  0  0  0  0
  -28.5584  -17.4016   23.1655 F   0  0  0  0  0  0  0  0  0  0  0  0
  -22.1310   -5.0663   23.6916 F   0  0  0  0  0  0  0  0  0  0  0  0
  1  2  1  0  0  0  0
  1  5  2  0  0  0  0
  2  6  2  0  0  0  0
  3  8  2  0  0  0  0
  3 17  1  0  0  0  0
  4  9  1  0  0  0  0
  4 17  2  0  0  0  0
  5 19  1  0  0  0  0
  6 21  1  0  0  0  0
  7 10  2  0  0  0  0
  7 20  1  0  0  0  0
  8 24  1  0  0  0  0
  9 24  2  0  0  0  0
 10 25  1  0  0  0  0
 11 12  2  0  0  0  0
 11 26  1  0  0  0  0
 12 28  1  0  0  0  0
 13 22  1  0  0  0  0
 13 25  2  0  0  0  0
 14 23  2  0  0  0  0
 14 29  1  0  0  0  0
 15 27  1  0  0  0  0
 15 30  2  0  0  0  0
 16 28  2  0  0  0  0
 16 31  1  0  0  0  0
 17 32  1  0  0  0  0
 18 32  1  0  0  0  0
 18 33  2  0  0  0  0
 18 34  1  0  0  0  0
 19 21  2  0  0  0  0
 19 39  1  0  0  0  0
 20 22  2  0  0  0  0
 20 40  1  0  0  0  0
 21 48  1  0  0  0  0
 22 41  1  0  0  0  0
 23 30  1  0  0  0  0
 23 67  1  0  0  0  0
 24 76  1  0  0  0  0
 25 77  1  0  0  0  0
 26 31  2  0  0  0  0
 26 76  1  0  0  0  0
 27 29  2  0  0  0  0
 27 78  1  0  0  0  0
 28 79  1  0  0  0  0
 29 80  1  0  0  0  0
 30 81  1  0  0  0  0
 31 82  1  0  0  0  0
 32 61  2  0  0  0  0
 33 62  1  0  0  0  0
 33 65  1  0  0  0  0
 34 66  1  0  0  0  0
 34 71  2  0  0  0  0
 35 49  1  0  0  0  0
 35 68  1  0  0  0  0
 35 72  2  0  0  0  0
 36 58  1  0  0  0  0
 36 63  1  0  0  0  0
 36 73  2  0  0  0  0
 37 59  1  0  0  0  0
 37 69  1  0  0  0  0
 37 74  2  0  0  0  0
 38 64  1  0  0  0  0
 38 67  1  0  0  0  0
 38 75  2  0  0  0  0
 39 42  1  0  0  0  0
 40 49  1  0  0  0  0
 41 63  1  0  0  0  0
 42 44  1  0  0  0  0
 43 45  1  0  0  0  0
 43 46  1  0  0  0  0
 44 48  1  0  0  0  0
 45 50  1  0  0  0  0
 46 64  1  0  0  0  0
 47 50  1  0  0  0  0
 47 64  1  0  0  0  0
 48 68  1  0  0  0  0
 49 63  1  0  0  0  0
 50 62  1  0  0  0  0
 51 59  1  0  0  0  0
 52 60  1  0  0  0  0
 53 60  1  0  0  0  0
 54 60  1  0  0  0  0
 55 70  1  0  0  0  0
 56 57  1  0  0  0  0
 56 77  1  0  0  0  0
 57 78  1  0  0  0  0
 58 60  1  0  0  0  0
 58 69  1  0  0  0  0
 59 70  1  0  0  0  0
 61 62  1  0  0  0  0
M  CHG  1  70   1
M  ISO  4  38 100  56 101  67 100  77 101
M  END
> <Batch ID>
0010

> <Smiles>
CNC(C)C(=O)NC(C(=O)N1Cc2cc([101O:1][101CH2:1]COc3cc(F)c([100NH:0][100C:0](=O)N4CCCC(n5nc(-c6ccc(Oc7ccc(F)cc7F)cc6)c(C(N)=O)c5N)C4)cc3F)ccc2CC1C(=O)NC1CCCc2ccccc21)C(C)(C)C

> <Shape>
0.216

> <Color>
0.197

> <Negative vol penalty>
0.000

$$$$

  -OEChem-04042320403D

 82 90  0     1  0  0  0  0  0999 V2000
  -24.5367  -23.1313   13.0288 C   0  0  0  0  0  0  0  0  0  0  0  0
  -24.5126  -22.7159   14.3563 C   0  0  0  0  0  0  0  0  0  0  0  0
  -30.5793  -19.6579   18.8402 C   0  0  0  0  0  0  0  0  0  0  0  0
  -29.1852  -19.9607   20.7901 C   0  0  0  0  0  0  0  0  0  0  0  0
  -24.7466  -24.4755   12.7239 C   0  0  0  0  0  0  0  0  0  0  0  0
  -24.6996  -23.6444   15.3797 C   0  0  0  0  0  0  0  0  0  0  0  0
  -21.3923  -23.0517   19.1686 C   0  0  0  0  0  0  0  0  0  0  0  0
  -25.7601  -16.3123   23.6846 C   0  0  0  0  0  0  0  0  0  0  0  0
  -26.1119  -16.2350   21.2956 C   0  0  0  0  0  0  0  0  0  0  0  0
  -30.2105  -20.9219   18.3802 C   0  0  0  0  0  0  0  0  0  0  0  0
  -28.8164  -21.2248   20.3301 C   0  0  0  0  0  0  0  0  0  0  0  0
  -21.6370  -22.0180   20.0715 C   0  0  0  0  0  0  0  0  0  0  0  0
  -25.2166  -17.5912   23.5633 C   0  0  0  0  0  0  0  0  0  0  0  0
  -25.5683  -17.5139   21.1743 C   0  0  0  0  0  0  0  0  0  0  0  0
  -27.7891  -24.6789   19.8478 C   0  0  0  0  0  0  0  0  0  0  0  0
  -27.7872  -25.7288   20.7660 C   0  0  0  0  0  0  0  0  0  0  0  0
  -22.5712  -23.6068   21.6279 C   0  0  0  0  0  0  0  0  0  0  0  0
  -30.1445  -25.3828   21.1667 C   0  0  0  0  0  0  0  0  0  0  0  0
  -30.0666  -19.1772   20.0452 C   0  0  0  0  0  0  0  0  0  0  0  0
  -31.5383  -17.5533   21.3507 C   0  0  0  0  0  0  0  0  0  0  0  0
  -24.9266  -25.4225   13.7444 C   0  0  0  0  0  0  0  0  0  0  0  0
  -21.7458  -24.3714   19.4846 C   0  0  0  0  0  0  0  0  0  0  0  0
  -24.9135  -25.0023   15.0881 C   0  0  0  0  0  0  0  0  0  0  0  0
  -22.3276  -24.6558   20.7283 C   0  0  0  0  0  0  0  0  0  0  0  0
  -26.2078  -15.6343   22.5508 C   0  0  0  0  0  0  0  0  0  0  0  0
  -29.3291  -21.7055   19.1251 C   0  0  0  0  0  0  0  0  0  0  0  0
  -25.1207  -18.1920   22.3081 C   0  0  0  0  0  0  0  0  0  0  0  0
  -22.2292  -22.2950   21.3002 C   0  0  0  0  0  0  0  0  0  0  0  0
  -28.9687  -23.9808   19.5891 C   0  0  0  0  0  0  0  0  0  0  0  0
  -28.9648  -26.0808   21.4255 C   0  0  0  0  0  0  0  0  0  0  0  0
  -30.1464  -24.3328   20.2485 C   0  0  0  0  0  0  0  0  0  0  0  0
  -30.4467  -17.8712   20.5206 C   0  0  0  0  0  0  0  0  0  0  0  0
  -31.4634  -16.1911   21.5098 C   0  0  0  0  0  0  0  0  0  0  0  0
  -32.5312  -18.4124   21.9266 C   0  0  0  0  0  0  0  0  0  0  0  0
  -23.7307  -26.5209   18.2421 C   0  0  0  0  0  0  0  0  0  0  0  0
  -22.3847  -28.4705   20.4579 C   0  0  0  0  0  0  0  0  0  0  0  0
  -20.7379  -28.7744   23.4316 C   0  0  0  0  0  0  0  0  0  0  0  0
  -26.5876  -12.5420   20.8398 C   0  0  0  0  0  0  0  0  0  0  0  0
  -25.1975  -26.8567   13.3643 C   0  0  0  0  0  0  0  0  0  0  0  0
  -21.4507  -25.4790   18.5106 C   0  0  0  0  0  0  0  0  0  0  0  0
  -22.7073  -26.0585   21.1240 C   0  0  0  0  0  0  0  0  0  0  0  0
  -25.0136  -27.8380   14.5191 C   0  0  0  0  0  0  0  0  0  0  0  0
  -29.9439  -12.2304   19.3101 C   0  0  0  0  0  0  0  0  0  0  0  0
  -25.6995  -27.3159   15.7776 C   0  0  0  0  0  0  0  0  0  0  0  0
  -30.5102  -13.6414   19.4593 C   0  0  0  0  0  0  0  0  0  0  0  0
  -28.4211  -12.2375   19.2159 C   0  0  0  0  0  0  0  0  0  0  0  0
  -28.3175  -14.3529   20.4919 C   0  0  0  0  0  0  0  0  0  0  0  0
  -25.0876  -25.9835   16.2270 C   0  0  1  0  0  0  0  0  0  0  0  0
  -22.3215  -26.7128   18.7270 C   0  0  1  0  0  0  0  0  0  0  0  0
  -29.8466  -14.3773   20.6363 C   0  0  2  0  0  0  0  0  0  0  0  0
  -19.8062  -30.4973   25.0003 C   0  0  0  0  0  0  0  0  0  0  0  0
  -25.2066  -29.1137   21.4238 C   0  0  0  0  0  0  0  0  0  0  0  0
  -24.2024  -30.0406   23.5215 C   0  0  0  0  0  0  0  0  0  0  0  0
  -23.6663  -31.0811   21.3186 C   0  0  0  0  0  0  0  0  0  0  0  0
  -24.7778  -12.8506   22.4857 C   0  0  0  0  0  0  0  0  0  0  0  0
  -17.9881  -27.7190   23.1424 C   0  0  0  0  0  0  0  0  0  0  0  0
  -26.7883  -14.2667   22.6803 C   0  0  0  0  0  0  0  0  0  0  0  0
  -24.1501  -20.0747   23.3892 C   0  0  0  0  0  0  0  0  0  0  0  0
  -23.5873  -21.4431   23.0568 C   0  0  0  0  0  0  0  0  0  1  0  0
  -22.6847  -28.8235   21.8947 C   0  0  1  0  0  0  0  0  0  0  0  0
  -19.5112  -29.5768   23.8263 C   0  0  2  0  0  0  0  0  0  0  0  0
  -23.9347  -29.7379   22.0317 C   0  0  0  0  0  0  0  0  0  0  0  0
  -29.7309  -16.7974   20.1762 N   0  0  0  0  0  0  0  0  0  0  0  0
  -30.3741  -15.7914   20.7929 N   0  0  0  0  0  0  0  0  0  0  0  0
  -22.4043  -27.1062   20.1351 N   0  0  0  0  0  0  0  0  0  0  0  0
  -27.8181  -12.9801   20.3231 N   0  0  0  0  0  0  0  0  0  0  0  0
  -32.2238  -15.3081   22.1914 N   0  0  0  0  0  0  0  0  0  0  0  0
  -32.4604  -19.7869   21.6616 N   0  0  0  0  0  0  0  0  0  0  0  0
  -23.8260  -26.2081   16.8996 N   0  0  0  0  0  0  0  0  0  0  0  0
  -21.4598  -29.4007   22.4376 N   0  0  0  0  0  0  0  0  0  0  0  0
  -26.0461  -13.2725   21.9083 N   0  0  0  0  0  0  0  0  0  0  0  0
  -18.3978  -28.6646   24.2125 N   0  3  0  0  0  0  0  0  0  0  0  0
  -33.4634  -17.9722   22.6413 O   0  0  0  0  0  0  0  0  0  0  0  0
  -24.6626  -26.6487   19.0276 O   0  0  0  0  0  0  0  0  0  0  0  0
  -22.1348  -29.3715   19.6533 O   0  0  0  0  0  0  0  0  0  0  0  0
  -21.0289  -27.7014   23.9555 O   0  0  0  0  0  0  0  0  0  0  0  0
  -26.0109  -11.5486   20.3788 O   0  0  0  0  0  0  0  0  0  0  0  0
  -28.9692  -22.9391   18.6766 O   0  0  0  0  0  0  0  0  0  0  0  0
  -24.5857  -19.4475   22.1890 O   0  0  0  0  0  0  0  0  0  0  0  0
  -22.4698  -21.2878   22.1831 O   0  0  0  0  0  0  0  0  0  1  0  0
  -28.9632  -27.0902   22.3060 F   0  0  0  0  0  0  0  0  0  0  0  0
  -31.2830  -23.6666   20.0032 F   0  0  0  0  0  0  0  0  0  0  0  0
  1  2  1  0  0  0  0
  1  5  2  0  0  0  0
  2  6  2  0  0  0  0
  3 10  2  0  0  0  0
  3 19  1  0  0  0  0
  4 11  1  0  0  0  0
  4 19  2  0  0  0  0
  5 21  1  0  0  0  0
  6 23  1  0  0  0  0
  7 12  2  0  0  0  0
  7 22  1  0  0  0  0
  8 13  2  0  0  0  0
  8 25  1  0  0  0  0
  9 14  1  0  0  0  0
  9 25  2  0  0  0  0
 10 26  1  0  0  0  0
 11 26  2  0  0  0  0
 12 28  1  0  0  0  0
 13 27  1  0  0  0  0
 14 27  2  0  0  0  0
 15 16  2  0  0  0  0
 15 29  1  0  0  0  0
 16 30  1  0  0  0  0
 17 24  1  0  0  0  0
 17 28  2  0  0  0  0
 18 30  2  0  0  0  0
 18 31  1  0  0  0  0
 19 32  1  0  0  0  0
 20 32  1  0  0  0  0
 20 33  2  0  0  0  0
 20 34  1  0  0  0  0
 21 23  2  0  0  0  0
 21 39  1  0  0  0  0
 22 24  2  0  0  0  0
 22 40  1  0  0  0  0
 23 48  1  0  0  0  0
 24 41  1  0  0  0  0
 25 57  1  0  0  0  0
 26 78  1  0  0  0  0
 27 79  1  0  0  0  0
 28 80  1  0  0  0  0
 29 31  2  0  0  0  0
 29 78  1  0  0  0  0
 30 81  1  0  0  0  0
 31 82  1  0  0  0  0
 32 63  2  0  0  0  0
 33 64  1  0  0  0  0
 33 67  1  0  0  0  0
 34 68  1  0  0  0  0
 34 73  2  0  0  0  0
 35 49  1  0  0  0  0
 35 69  1  0  0  0  0
 35 74  2  0  0  0  0
 36 60  1  0  0  0  0
 36 65  1  0  0  0  0
 36 75  2  0  0  0  0
 37 61  1  0  0  0  0
 37 70  1  0  0  0  0
 37 76  2  0  0  0  0
 38 66  1  0  0  0  0
 38 71  1  0  0  0  0
 38 77  2  0  0  0  0
 39 42  1  0  0  0  0
 40 49  1  0  0  0  0
 41 65  1  0  0  0  0
 42 44  1  0  0  0  0
 43 45  1  0  0  0  0
 43 46  1  0  0  0  0
 44 48  1  0  0  0  0
 45 50  1  0  0  0  0
 46 66  1  0  0  0  0
 47 50  1  0  0  0  0
 47 66  1  0  0  0  0
 48 69  1  0  0  0  0
 49 65  1  0  0  0  0
 50 64  1  0  0  0  0
 51 61  1  0  0  0  0
 52 62  1  0  0  0  0
 53 62  1  0  0  0  0
 54 62  1  0  0  0  0
 55 71  1  0  0  0  0
 56 72  1  0  0  0  0
 57 71  1  0  0  0  0
 58 59  1  0  0  0  0
 58 79  1  0  0  0  0
 59 80  1  0  0  0  0
 60 62  1  0  0  0  0
 60 70  1  0  0  0  0
 61 72  1  0  0  0  0
 63 64  1  0  0  0  0
M  CHG  1  72   1
M  ISO  4  38 100  59 101  71 100  80 101
M  END
> <Batch ID>
0010

> <Smiles>
CNC(C)C(=O)NC(C(=O)N1Cc2cc([101O:1][101CH2:1]COc3ccc(C[100N:0](C)[100C:0](=O)N4CCCC(n5nc(-c6ccc(Oc7ccc(F)cc7F)cc6)c(C(N)=O)c5N)C4)cc3)ccc2CC1C(=O)NC1CCCc2ccccc21)C(C)(C)C

> <Shape>
0.218

> <Color>
0.077

> <Negative vol penalty>
0.000

$$$$

  -OEChem-04042320403D

 83 91  0     1  0  0  0  0  0999 V2000
  -22.4599  -33.0193   25.2958 C   0  0  0  0  0  0  0  0  0  0  0  0
  -23.4694  -32.1716   24.8510 C   0  0  0  0  0  0  0  0  0  0  0  0
  -28.0457  -23.4507   24.3451 C   0  0  0  0  0  0  0  0  0  0  0  0
  -24.1300  -12.9423   20.1643 C   0  0  0  0  0  0  0  0  0  0  0  0
  -26.0482  -13.0810   21.6266 C   0  0  0  0  0  0  0  0  0  0  0  0
  -21.1297  -32.6049   25.2434 C   0  0  0  0  0  0  0  0  0  0  0  0
  -23.1492  -30.9085   24.3546 C   0  0  0  0  0  0  0  0  0  0  0  0
  -25.6500  -29.8054   20.0915 C   0  0  0  0  0  0  0  0  0  0  0  0
  -27.4658  -22.5384   23.4636 C   0  0  0  0  0  0  0  0  0  0  0  0
  -29.0600  -24.2999   23.9027 C   0  0  0  0  0  0  0  0  0  0  0  0
  -24.2701  -11.5555   20.1121 C   0  0  0  0  0  0  0  0  0  0  0  0
  -26.1883  -11.6942   21.5744 C   0  0  0  0  0  0  0  0  0  0  0  0
  -26.9811  -29.4103   20.2182 C   0  0  0  0  0  0  0  0  0  0  0  0
  -23.9041   -7.9459   19.8835 C   0  0  0  0  0  0  0  0  0  0  0  0
  -22.7522   -7.1720   20.0235 C   0  0  0  0  0  0  0  0  0  0  0  0
  -26.3125  -27.1043   19.9851 C   0  0  0  0  0  0  0  0  0  0  0  0
  -28.9148  -23.3243   21.6972 C   0  0  0  0  0  0  0  0  0  0  0  0
  -22.3770   -8.1261   22.2112 C   0  0  0  0  0  0  0  0  0  0  0  0
  -25.0191  -13.7051   20.9215 C   0  0  0  0  0  0  0  0  0  0  0  0
  -24.1174  -15.8818   21.8994 C   0  0  0  0  0  0  0  0  0  0  0  0
  -20.7923  -31.3398   24.7372 C   0  0  0  0  0  0  0  0  0  0  0  0
  -24.6373  -28.8505   19.9213 C   0  0  0  0  0  0  0  0  0  0  0  0
  -21.8134  -30.4762   24.2967 C   0  0  0  0  0  0  0  0  0  0  0  0
  -24.9697  -27.4900   19.8539 C   0  0  0  0  0  0  0  0  0  0  0  0
  -27.9004  -22.4751   22.1397 C   0  0  0  0  0  0  0  0  0  0  0  0
  -29.4945  -24.2366   22.5788 C   0  0  0  0  0  0  0  0  0  0  0  0
  -25.2993  -10.9314   20.8171 C   0  0  0  0  0  0  0  0  0  0  0  0
  -27.3122  -28.0594   20.1679 C   0  0  0  0  0  0  0  0  0  0  0  0
  -24.2926   -8.8099   20.9074 C   0  0  0  0  0  0  0  0  0  0  0  0
  -21.9886   -7.2621   21.1873 C   0  0  0  0  0  0  0  0  0  0  0  0
  -23.5290   -8.9000   22.0712 C   0  0  0  0  0  0  0  0  0  0  0  0
  -24.8753  -15.1377   20.9754 C   0  0  0  0  0  0  0  0  0  0  0  0
  -24.3085  -17.1897   21.5260 C   0  0  0  0  0  0  0  0  0  0  0  0
  -23.3126  -15.4311   22.9971 C   0  0  0  0  0  0  0  0  0  0  0  0
  -22.0731  -27.9793   21.5855 C   0  0  0  0  0  0  0  0  0  0  0  0
  -21.5070  -26.1120   18.9941 C   0  0  0  0  0  0  0  0  0  0  0  0
  -22.7584  -24.4749   16.2737 C   0  0  0  0  0  0  0  0  0  0  0  0
  -27.6250  -21.3560   19.8996 C   0  0  0  0  0  0  0  0  0  0  0  0
  -19.3444  -30.9175   24.7444 C   0  0  0  0  0  0  0  0  0  0  0  0
  -23.2094  -29.2947   19.7594 C   0  0  0  0  0  0  0  0  0  0  0  0
  -23.9222  -26.4267   19.6524 C   0  0  0  0  0  0  0  0  0  0  0  0
  -19.0579  -29.7094   23.8563 C   0  0  0  0  0  0  0  0  0  0  0  0
  -26.4305  -19.1525   17.3707 C   0  0  0  0  0  0  0  0  0  0  0  0
  -20.0968  -28.6171   24.0894 C   0  0  0  0  0  0  0  0  0  0  0  0
  -25.8570  -17.9728   18.1591 C   0  0  0  0  0  0  0  0  0  0  0  0
  -27.6862  -19.7191   18.0309 C   0  0  0  0  0  0  0  0  0  0  0  0
  -26.9632  -18.8935   20.2366 C   0  0  0  0  0  0  0  0  0  0  0  0
  -21.5040  -29.1082   23.7285 C   0  0  1  0  0  0  0  0  0  0  0  0
  -22.2012  -28.2031   20.1052 C   0  0  1  0  0  0  0  0  0  0  0  0
  -25.6604  -18.3306   19.6454 C   0  0  2  0  0  0  0  0  0  0  0  0
  -22.0578  -23.0026   14.3662 C   0  0  0  0  0  0  0  0  0  0  0  0
  -21.2963  -23.7418   20.9041 C   0  0  0  0  0  0  0  0  0  0  0  0
  -21.5506  -22.2198   18.9325 C   0  0  0  0  0  0  0  0  0  0  0  0
  -19.5935  -23.7602   19.0725 C   0  0  0  0  0  0  0  0  0  0  0  0
  -30.2533  -27.4175   22.7144 C   0  0  0  0  0  0  0  0  0  0  0  0
  -31.3750  -26.7064   20.5823 C   0  0  0  0  0  0  0  0  0  0  0  0
  -23.6551  -26.4543   14.2645 C   0  0  0  0  0  0  0  0  0  0  0  0
  -21.8854  -24.7093   18.5840 C   0  0  1  0  0  0  0  0  0  0  0  0
  -22.3023  -24.4313   14.8265 C   0  0  2  0  0  0  0  0  0  0  0  0
  -28.8765  -26.3909   20.8765 C   0  0  1  0  0  0  0  0  0  1  0  0
  -21.1012  -23.6274   19.3790 C   0  0  0  0  0  0  0  0  0  0  0  0
  -30.2499  -26.3922   21.5744 C   0  0  0  0  0  0  0  0  0  0  0  0
  -25.5011  -15.9088   20.0822 N   0  0  0  0  0  0  0  0  0  0  0  0
  -25.1367  -17.1510   20.4431 N   0  0  0  0  0  0  0  0  0  0  0  0
  -22.5395  -26.9108   19.5056 N   0  0  0  0  0  0  0  0  0  0  0  0
  -27.4234  -20.0388   19.4358 N   0  0  0  0  0  0  0  0  0  0  0  0
  -23.8471  -18.3576   22.0216 N   0  0  0  0  0  0  0  0  0  0  0  0
  -23.2258  -14.0536   23.2405 N   0  0  0  0  0  0  0  0  0  0  0  0
  -27.3112  -21.5481   21.2446 N   0  0  0  0  0  0  0  0  0  0  0  0
  -30.4985  -25.0766   22.1415 N   0  0  0  0  0  0  0  0  0  0  0  0
  -21.6887  -29.1022   22.2931 N   0  0  0  0  0  0  0  0  0  0  0  0
  -21.6978  -24.6420   17.1387 N   0  0  0  0  0  0  0  0  0  0  0  0
  -23.3333  -25.0408   13.9397 N   0  3  0  0  0  0  0  0  0  0  0  0
  -22.6759  -16.2254   23.7300 O   0  0  0  0  0  0  0  0  0  0  0  0
  -22.3043  -26.8695   22.0509 O   0  0  0  0  0  0  0  0  0  0  0  0
  -20.3398  -26.4875   18.8588 O   0  0  0  0  0  0  0  0  0  0  0  0
  -23.9374  -24.3676   16.6040 O   0  0  0  0  0  0  0  0  0  0  0  0
  -28.0192  -22.2542   19.1514 O   0  0  0  0  0  0  0  0  0  0  0  0
  -25.4361   -9.5782   20.7666 O   0  0  0  0  0  0  0  0  0  0  0  0
  -28.6105  -27.6711   20.2919 O   0  0  0  0  0  0  0  0  0  1  0  0
  -20.8815   -6.5200   21.3210 F   0  0  0  0  0  0  0  0  0  0  0  0
  -23.8966   -9.7291   23.0578 F   0  0  0  0  0  0  0  0  0  0  0  0
  -28.8898  -25.4635   19.8794 F   0  0  0  0  0  0  0  0  0  0  0  0
  1  2  1  0  0  0  0
  1  6  2  0  0  0  0
  2  7  2  0  0  0  0
  3  9  1  0  0  0  0
  3 10  2  0  0  0  0
  4 11  2  0  0  0  0
  4 19  1  0  0  0  0
  5 12  1  0  0  0  0
  5 19  2  0  0  0  0
  6 21  1  0  0  0  0
  7 23  1  0  0  0  0
  8 13  2  0  0  0  0
  8 22  1  0  0  0  0
  9 25  2  0  0  0  0
 10 26  1  0  0  0  0
 11 27  1  0  0  0  0
 12 27  2  0  0  0  0
 13 28  1  0  0  0  0
 14 15  2  0  0  0  0
 14 29  1  0  0  0  0
 15 30  1  0  0  0  0
 16 24  1  0  0  0  0
 16 28  2  0  0  0  0
 17 25  1  0  0  0  0
 17 26  2  0  0  0  0
 18 30  2  0  0  0  0
 18 31  1  0  0  0  0
 19 32  1  0  0  0  0
 20 32  1  0  0  0  0
 20 33  2  0  0  0  0
 20 34  1  0  0  0  0
 21 23  2  0  0  0  0
 21 39  1  0  0  0  0
 22 24  2  0  0  0  0
 22 40  1  0  0  0  0
 23 48  1  0  0  0  0
 24 41  1  0  0  0  0
 25 69  1  0  0  0  0
 26 70  1  0  0  0  0
 27 79  1  0  0  0  0
 28 80  1  0  0  0  0
 29 31  2  0  0  0  0
 29 79  1  0  0  0  0
 30 81  1  0  0  0  0
 31 82  1  0  0  0  0
 32 63  2  0  0  0  0
 33 64  1  0  0  0  0
 33 67  1  0  0  0  0
 34 68  1  0  0  0  0
 34 74  2  0  0  0  0
 35 49  1  0  0  0  0
 35 71  1  0  0  0  0
 35 75  2  0  0  0  0
 36 58  1  0  0  0  0
 36 65  1  0  0  0  0
 36 76  2  0  0  0  0
 37 59  1  0  0  0  0
 37 72  1  0  0  0  0
 37 77  2  0  0  0  0
 38 66  1  0  0  0  0
 38 69  1  0  0  0  0
 38 78  2  0  0  0  0
 39 42  1  0  0  0  0
 40 49  1  0  0  0  0
 41 65  1  0  0  0  0
 42 44  1  0  0  0  0
 43 45  1  0  0  0  0
 43 46  1  0  0  0  0
 44 48  1  0  0  0  0
 45 50  1  0  0  0  0
 46 66  1  0  0  0  0
 47 50  1  0  0  0  0
 47 66  1  0  0  0  0
 48 71  1  0  0  0  0
 49 65  1  0  0  0  0
 50 64  1  0  0  0  0
 51 59  1  0  0  0  0
 52 61  1  0  0  0  0
 53 61  1  0  0  0  0
 54 61  1  0  0  0  0
 55 62  1  0  0  0  0
 56 62  1  0  0  0  0
 57 73  1  0  0  0  0
 58 61  1  0  0  0  0
 58 72  1  0  0  0  0
 59 73  1  0  0  0  0
 60 62  1  0  0  0  0
 60 80  1  0  0  0  0
 60 83  1  0  0  0  0
 62 70  1  0  0  0  0
 63 64  1  0  0  0  0
M  CHG  1  73   1
M  ISO  4  38 100  60 101  69 100  80 101
M  END
> <Batch ID>
0010

> <Smiles>
CNC(C)C(=O)NC(C(=O)N1Cc2cc([101O:1][101CH:1](F)C(C)(C)Nc3cccc([100NH:0][100C:0](=O)N4CCCC(n5nc(-c6ccc(Oc7ccc(F)cc7F)cc6)c(C(N)=O)c5N)C4)c3)ccc2CC1C(=O)NC1CCCc2ccccc21)C(C)(C)C

> <Shape>
0.211

> <Color>
0.078

> <Negative vol penalty>
0.000

$$$$

  -OEChem-04042320403D

 82 90  0     1  0  0  0  0  0999 V2000
  -18.0794  -30.3601   24.3417 C   0  0  0  0  0  0  0  0  0  0  0  0
  -19.4653  -30.2556   24.2792 C   0  0  0  0  0  0  0  0  0  0  0  0
  -24.4900  -13.9154   20.7458 C   0  0  0  0  0  0  0  0  0  0  0  0
  -26.8379  -13.3778   20.5579 C   0  0  0  0  0  0  0  0  0  0  0  0
  -17.2806  -29.4167   23.6968 C   0  0  0  0  0  0  0  0  0  0  0  0
  -20.0531  -29.2070   23.5727 C   0  0  0  0  0  0  0  0  0  0  0  0
  -25.2761  -29.3906   20.3800 C   0  0  0  0  0  0  0  0  0  0  0  0
  -24.1626  -12.5983   20.4242 C   0  0  0  0  0  0  0  0  0  0  0  0
  -26.5105  -12.0606   20.2363 C   0  0  0  0  0  0  0  0  0  0  0  0
  -26.5782  -28.9993   20.6884 C   0  0  0  0  0  0  0  0  0  0  0  0
  -24.0630   -9.6030   21.9898 C   0  0  0  0  0  0  0  0  0  0  0  0
  -31.0661  -24.3522   23.3357 C   0  0  0  0  0  0  0  0  0  0  0  0
  -23.0830   -8.9729   22.7567 C   0  0  0  0  0  0  0  0  0  0  0  0
  -31.8219  -23.1840   23.2378 C   0  0  0  0  0  0  0  0  0  0  0  0
  -26.1955  -26.8842   19.5932 C   0  0  0  0  0  0  0  0  0  0  0  0
  -21.7360   -8.6572   20.7760 C   0  0  0  0  0  0  0  0  0  0  0  0
  -25.8276  -14.3052   20.8126 C   0  0  0  0  0  0  0  0  0  0  0  0
  -26.3911  -16.1972   22.4283 C   0  0  0  0  0  0  0  0  0  0  0  0
  -17.8590  -28.3614   22.9740 C   0  0  0  0  0  0  0  0  0  0  0  0
  -24.4189  -28.5260   19.6842 C   0  0  0  0  0  0  0  0  0  0  0  0
  -19.2613  -28.2478   22.9186 C   0  0  0  0  0  0  0  0  0  0  0  0
  -24.8838  -27.2680   19.2750 C   0  0  0  0  0  0  0  0  0  0  0  0
  -30.3340  -22.3655   21.5192 C   0  0  0  0  0  0  0  0  0  0  0  0
  -25.1728  -11.6708   20.1695 C   0  0  0  0  0  0  0  0  0  0  0  0
  -27.0371  -27.7448   20.2975 C   0  0  0  0  0  0  0  0  0  0  0  0
  -23.8795   -9.7603   20.6160 C   0  0  0  0  0  0  0  0  0  0  0  0
  -29.9442  -24.5271   22.5254 C   0  0  0  0  0  0  0  0  0  0  0  0
  -21.9195   -8.4999   22.1498 C   0  0  0  0  0  0  0  0  0  0  0  0
  -31.4559  -22.1906   22.3295 C   0  0  0  0  0  0  0  0  0  0  0  0
  -22.7160   -9.2873   20.0091 C   0  0  0  0  0  0  0  0  0  0  0  0
  -29.5782  -23.5338   21.6172 C   0  0  0  0  0  0  0  0  0  0  0  0
  -26.1665  -15.6659   21.1442 C   0  0  0  0  0  0  0  0  0  0  0  0
  -26.6776  -17.5220   22.2065 C   0  0  0  0  0  0  0  0  0  0  0  0
  -26.3450  -15.5510   23.7074 C   0  0  0  0  0  0  0  0  0  0  0  0
  -21.6459  -27.1144   20.3337 C   0  0  0  0  0  0  0  0  0  0  0  0
  -21.8372  -26.1856   17.2316 C   0  0  0  0  0  0  0  0  0  0  0  0
  -23.8006  -25.5483   14.5139 C   0  0  0  0  0  0  0  0  0  0  0  0
  -29.3112  -21.5281   19.3747 C   0  0  0  0  0  0  0  0  0  0  0  0
  -16.9544  -27.3391   22.3329 C   0  0  0  0  0  0  0  0  0  0  0  0
  -23.0258  -28.9735   19.3359 C   0  0  0  0  0  0  0  0  0  0  0  0
  -24.0098  -26.3105   18.5082 C   0  0  0  0  0  0  0  0  0  0  0  0
  -17.6573  -26.4712   21.2922 C   0  0  0  0  0  0  0  0  0  0  0  0
  -26.2466  -20.3284   18.0159 C   0  0  0  0  0  0  0  0  0  0  0  0
  -18.9938  -25.9699   21.8299 C   0  0  0  0  0  0  0  0  0  0  0  0
  -25.9711  -19.0521   18.8143 C   0  0  0  0  0  0  0  0  0  0  0  0
  -27.7377  -20.5141   17.7404 C   0  0  0  0  0  0  0  0  0  0  0  0
  -28.3249  -19.1787   19.7256 C   0  0  0  0  0  0  0  0  0  0  0  0
  -19.9364  -27.1386   22.1415 C   0  0  1  0  0  0  0  0  0  0  0  0
  -22.0730  -27.8114   19.0730 C   0  0  1  0  0  0  0  0  0  0  0  0
  -26.8427  -18.9821   20.0835 C   0  0  2  0  0  0  0  0  0  0  0  0
  -23.6747  -24.7672   12.1325 C   0  0  0  0  0  0  0  0  0  0  0  0
  -21.4367  -23.3185   18.1957 C   0  0  0  0  0  0  0  0  0  0  0  0
  -22.2571  -22.5281   15.9663 C   0  0  0  0  0  0  0  0  0  0  0  0
  -20.1815  -23.9038   16.1134 C   0  0  0  0  0  0  0  0  0  0  0  0
  -24.9256  -28.0905   13.4988 C   0  0  0  0  0  0  0  0  0  0  0  0
  -28.8844  -27.8965   21.7877 C   0  0  0  0  0  0  0  0  0  1  0  0
  -29.8774  -26.8979   22.3503 C   0  0  0  0  0  0  0  0  0  0  0  0
  -22.4256  -25.0004   16.5048 C   0  0  1  0  0  0  0  0  0  0  0  0
  -23.6780  -25.9714   13.0612 C   0  0  2  0  0  0  0  0  0  0  0  0
  -21.5913  -23.7048   16.7112 C   0  0  0  0  0  0  0  0  0  0  0  0
  -26.2987  -16.5787   20.1781 N   0  0  0  0  0  0  0  0  0  0  0  0
  -26.6094  -17.6970   20.8556 N   0  0  0  0  0  0  0  0  0  0  0  0
  -22.6536  -26.7916   18.1970 N   0  0  0  0  0  0  0  0  0  0  0  0
  -28.4998  -20.4402   18.9888 N   0  0  0  0  0  0  0  0  0  0  0  0
  -26.9785  -18.5428   23.0371 N   0  0  0  0  0  0  0  0  0  0  0  0
  -26.0352  -14.1849   23.7550 N   0  0  0  0  0  0  0  0  0  0  0  0
  -29.9624  -21.3570   20.5959 N   0  0  0  0  0  0  0  0  0  0  0  0
  -20.5194  -27.6566   20.9223 N   0  0  0  0  0  0  0  0  0  0  0  0
  -22.5656  -25.4052   15.1102 N   0  0  0  0  0  0  0  0  0  0  0  0
  -24.8163  -26.8550   12.6812 N   0  3  0  0  0  0  0  0  0  0  0  0
  -26.5557  -16.1703   24.7777 O   0  0  0  0  0  0  0  0  0  0  0  0
  -22.2898  -26.1548   20.7414 O   0  0  0  0  0  0  0  0  0  0  0  0
  -20.6980  -26.5642   16.9480 O   0  0  0  0  0  0  0  0  0  0  0  0
  -24.8836  -25.3597   15.0636 O   0  0  0  0  0  0  0  0  0  0  0  0
  -29.3990  -22.5483   18.6867 O   0  0  0  0  0  0  0  0  0  0  0  0
  -24.8537  -10.3854   19.8559 O   0  0  0  0  0  0  0  0  0  0  0  0
  -28.3074  -27.3601   20.5978 O   0  0  0  0  0  0  0  0  0  1  0  0
  -29.2032  -25.6754   22.6226 O   0  0  0  0  0  0  0  0  0  0  0  0
  -20.9792   -7.8935   22.8861 F   0  0  0  0  0  0  0  0  0  0  0  0
  -32.1894  -21.0718   22.2440 F   0  0  0  0  0  0  0  0  0  0  0  0
  -22.5347   -9.4345   18.6895 F   0  0  0  0  0  0  0  0  0  0  0  0
  -28.4989  -23.7073   20.8396 F   0  0  0  0  0  0  0  0  0  0  0  0
  1  2  1  0  0  0  0
  1  5  2  0  0  0  0
  2  6  2  0  0  0  0
  3  8  2  0  0  0  0
  3 17  1  0  0  0  0
  4  9  1  0  0  0  0
  4 17  2  0  0  0  0
  5 19  1  0  0  0  0
  6 21  1  0  0  0  0
  7 10  2  0  0  0  0
  7 20  1  0  0  0  0
  8 24  1  0  0  0  0
  9 24  2  0  0  0  0
 10 25  1  0  0  0  0
 11 13  2  0  0  0  0
 11 26  1  0  0  0  0
 12 14  2  0  0  0  0
 12 27  1  0  0  0  0
 13 28  1  0  0  0  0
 14 29  1  0  0  0  0
 15 22  1  0  0  0  0
 15 25  2  0  0  0  0
 16 28  2  0  0  0  0
 16 30  1  0  0  0  0
 17 32  1  0  0  0  0
 18 32  1  0  0  0  0
 18 33  2  0  0  0  0
 18 34  1  0  0  0  0
 19 21  2  0  0  0  0
 19 39  1  0  0  0  0
 20 22  2  0  0  0  0
 20 40  1  0  0  0  0
 21 48  1  0  0  0  0
 22 41  1  0  0  0  0
 23 29  2  0  0  0  0
 23 31  1  0  0  0  0
 23 67  1  0  0  0  0
 24 76  1  0  0  0  0
 25 77  1  0  0  0  0
 26 30  2  0  0  0  0
 26 76  1  0  0  0  0
 27 31  2  0  0  0  0
 27 78  1  0  0  0  0
 28 79  1  0  0  0  0
 29 80  1  0  0  0  0
 30 81  1  0  0  0  0
 31 82  1  0  0  0  0
 32 61  2  0  0  0  0
 33 62  1  0  0  0  0
 33 65  1  0  0  0  0
 34 66  1  0  0  0  0
 34 71  2  0  0  0  0
 35 49  1  0  0  0  0
 35 68  1  0  0  0  0
 35 72  2  0  0  0  0
 36 58  1  0  0  0  0
 36 63  1  0  0  0  0
 36 73  2  0  0  0  0
 37 59  1  0  0  0  0
 37 69  1  0  0  0  0
 37 74  2  0  0  0  0
 38 64  1  0  0  0  0
 38 67  1  0  0  0  0
 38 75  2  0  0  0  0
 39 42  1  0  0  0  0
 40 49  1  0  0  0  0
 41 63  1  0  0  0  0
 42 44  1  0  0  0  0
 43 45  1  0  0  0  0
 43 46  1  0  0  0  0
 44 48  1  0  0  0  0
 45 50  1  0  0  0  0
 46 64  1  0  0  0  0
 47 50  1  0  0  0  0
 47 64  1  0  0  0  0
 48 68  1  0  0  0  0
 49 63  1  0  0  0  0
 50 62  1  0  0  0  0
 51 59  1  0  0  0  0
 52 60  1  0  0  0  0
 53 60  1  0  0  0  0
 54 60  1  0  0  0  0
 55 70  1  0  0  0  0
 56 57  1  0  0  0  0
 56 77  1  0  0  0  0
 57 78  1  0  0  0  0
 58 60  1  0  0  0  0
 58 69  1  0  0  0  0
 59 70  1  0  0  0  0
 61 62  1  0  0  0  0
M  CHG  1  70   1
M  ISO  4  38 100  56 101  67 100  77 101
M  END
> <Batch ID>
0010

> <Smiles>
CNC(C)C(=O)NC(C(=O)N1Cc2cc([101O:1][101CH2:1]COc3ccc(F)c([100NH:0][100C:0](=O)N4CCCC(n5nc(-c6ccc(Oc7ccc(F)cc7F)cc6)c(C(N)=O)c5N)C4)c3F)ccc2CC1C(=O)NC1CCCc2ccccc21)C(C)(C)C

> <Shape>
0.245

> <Color>
0.093

> <Negative vol penalty>
0.000

$$$$

  -OEChem-04042320403D

 83 91  0     1  0  0  0  0  0999 V2000
  -25.5239  -22.2643   25.6222 C   0  0  0  0  0  0  0  0  0  0  0  0
  -25.0416  -23.4122   25.0016 C   0  0  0  0  0  0  0  0  0  0  0  0
  -29.3729  -17.7762   20.3915 C   0  0  0  0  0  0  0  0  0  0  0  0
  -27.1676  -18.3322   19.5764 C   0  0  0  0  0  0  0  0  0  0  0  0
  -25.4510  -21.0359   24.9668 C   0  0  0  0  0  0  0  0  0  0  0  0
  -24.4870  -23.3325   23.7247 C   0  0  0  0  0  0  0  0  0  0  0  0
  -20.1803  -25.9639   23.3093 C   0  0  0  0  0  0  0  0  0  0  0  0
  -25.6964  -29.9180   22.4005 C   0  0  0  0  0  0  0  0  0  0  0  0
  -24.3758  -30.3499   22.2780 C   0  0  0  0  0  0  0  0  0  0  0  0
  -28.9707  -16.4536   20.5778 C   0  0  0  0  0  0  0  0  0  0  0  0
  -26.7653  -17.0096   19.7627 C   0  0  0  0  0  0  0  0  0  0  0  0
  -20.2901  -27.3465   23.1674 C   0  0  0  0  0  0  0  0  0  0  0  0
  -28.4916  -13.7035   18.6699 C   0  0  0  0  0  0  0  0  0  0  0  0
  -29.3534  -12.6965   18.2353 C   0  0  0  0  0  0  0  0  0  0  0  0
  -19.9499  -27.1234   20.7897 C   0  0  0  0  0  0  0  0  0  0  0  0
  -24.5226  -30.1183   19.8776 C   0  0  0  0  0  0  0  0  0  0  0  0
  -29.4927  -11.8423   20.4910 C   0  0  0  0  0  0  0  0  0  0  0  0
  -28.4714  -18.7155   19.8909 C   0  0  0  0  0  0  0  0  0  0  0  0
  -29.4556  -20.6425   18.5398 C   0  0  0  0  0  0  0  0  0  0  0  0
  -24.8864  -20.9394   23.6851 C   0  0  0  0  0  0  0  0  0  0  0  0
  -19.9650  -25.1483   22.1891 C   0  0  0  0  0  0  0  0  0  0  0  0
  -24.4077  -22.1018   23.0510 C   0  0  0  0  0  0  0  0  0  0  0  0
  -19.8352  -25.7310   20.9204 C   0  0  0  0  0  0  0  0  0  0  0  0
  -26.4302  -29.5863   21.2615 C   0  0  0  0  0  0  0  0  0  0  0  0
  -23.7889  -30.4501   21.0166 C   0  0  0  0  0  0  0  0  0  0  0  0
  -27.6669  -16.0703   20.2633 C   0  0  0  0  0  0  0  0  0  0  0  0
  -20.1777  -27.9262   21.9071 C   0  0  0  0  0  0  0  0  0  0  0  0
  -28.1304  -13.7800   20.0150 C   0  0  0  0  0  0  0  0  0  0  0  0
  -29.8539  -11.7659   19.1458 C   0  0  0  0  0  0  0  0  0  0  0  0
  -25.8433  -29.6865   20.0001 C   0  0  0  0  0  0  0  0  0  0  0  0
  -28.6309  -12.8494   20.9255 C   0  0  0  0  0  0  0  0  0  0  0  0
  -28.8861  -20.0819   19.6988 C   0  0  0  0  0  0  0  0  0  0  0  0
  -29.6670  -21.9603   18.8641 C   0  0  0  0  0  0  0  0  0  0  0  0
  -29.7656  -20.0271   17.2825 C   0  0  0  0  0  0  0  0  0  0  0  0
  -21.5842  -22.8074   20.7743 C   0  0  0  0  0  0  0  0  0  0  0  0
  -18.9087  -22.5841   18.9538 C   0  0  0  0  0  0  0  0  0  0  0  0
  -16.1170  -24.1013   17.7084 C   0  0  0  0  0  0  0  0  0  0  0  0
  -27.8971  -26.6751   21.0053 C   0  0  0  0  0  0  0  0  0  0  0  0
  -24.8725  -19.5974   22.9971 C   0  0  0  0  0  0  0  0  0  0  0  0
  -19.8222  -23.6610   22.3625 C   0  0  0  0  0  0  0  0  0  0  0  0
  -19.5835  -24.9015   19.6887 C   0  0  0  0  0  0  0  0  0  0  0  0
  -23.9292  -19.5372   21.7984 C   0  0  0  0  0  0  0  0  0  0  0  0
  -29.4064  -24.3392   23.3211 C   0  0  0  0  0  0  0  0  0  0  0  0
  -24.1127  -20.7654   20.9126 C   0  0  0  0  0  0  0  0  0  0  0  0
  -29.4511  -23.0625   22.4795 C   0  0  0  0  0  0  0  0  0  0  0  0
  -28.1350  -25.1373   23.0477 C   0  0  0  0  0  0  0  0  0  0  0  0
  -27.9653  -24.2088   20.7711 C   0  0  0  0  0  0  0  0  0  0  0  0
  -23.7765  -22.0518   21.6765 C   0  0  1  0  0  0  0  0  0  0  0  0
  -20.1161  -22.8797   21.0856 C   0  0  1  0  0  0  0  0  0  0  0  0
  -29.2375  -23.3687   20.9852 C   0  0  2  0  0  0  0  0  0  0  0  0
  -14.1426  -23.6766   16.2188 C   0  0  0  0  0  0  0  0  0  0  0  0
  -20.7069  -22.8391   16.5019 C   0  0  0  0  0  0  0  0  0  0  0  0
  -18.6674  -23.3611   15.1469 C   0  0  0  0  0  0  0  0  0  0  0  0
  -18.8762  -21.1496   16.2819 C   0  0  0  0  0  0  0  0  0  0  0  0
  -21.8439  -30.9896   19.5722 C   0  0  0  0  0  0  0  0  0  0  0  0
  -14.2024  -24.5929   19.9110 C   0  0  0  0  0  0  0  0  0  0  0  0
  -27.8421  -29.1249   21.3959 C   0  0  0  0  0  0  0  0  0  0  0  0
  -21.6707  -31.2214   22.0551 C   0  0  0  0  0  0  0  0  0  0  0  0
  -21.1164  -29.9623   22.7004 C   0  0  0  0  0  0  0  0  0  1  0  0
  -18.4346  -23.2173   17.6680 C   0  0  1  0  0  0  0  0  0  0  0  0
  -14.6688  -23.6505   17.6454 C   0  0  2  0  0  0  0  0  0  0  0  0
  -19.1779  -22.6575   16.4224 C   0  0  0  0  0  0  0  0  0  0  0  0
  -28.7449  -20.9708   20.6857 N   0  0  0  0  0  0  0  0  0  0  0  0
  -29.2288  -22.1033   20.1477 N   0  0  0  0  0  0  0  0  0  0  0  0
  -19.4578  -23.4512   19.9091 N   0  0  0  0  0  0  0  0  0  0  0  0
  -28.0009  -25.4114   21.6100 N   0  0  0  0  0  0  0  0  0  0  0  0
  -30.1833  -22.9992   18.1737 N   0  0  0  0  0  0  0  0  0  0  0  0
  -29.4835  -18.6641   17.1182 N   0  0  0  0  0  0  0  0  0  0  0  0
  -22.3426  -22.2234   21.7709 N   0  0  0  0  0  0  0  0  0  0  0  0
  -16.9876  -23.0348   17.6324 N   0  0  0  0  0  0  0  0  0  0  0  0
  -27.9322  -27.7619   21.8704 N   0  0  0  0  0  0  0  0  0  0  0  0
  -22.4620  -30.8836   20.8942 N   0  0  3  0  0  0  0  0  0  0  0  0
  -13.8123  -24.5412   18.4785 N   0  3  0  0  0  0  0  0  0  0  0  0
  -30.2927  -20.6631   16.3385 O   0  0  0  0  0  0  0  0  0  0  0  0
  -21.9982  -23.2474   19.7081 O   0  0  0  0  0  0  0  0  0  0  0  0
  -18.7896  -21.3661   19.1079 O   0  0  0  0  0  0  0  0  0  0  0  0
  -16.4433  -25.2818   17.8107 O   0  0  0  0  0  0  0  0  0  0  0  0
  -27.7866  -26.8244   19.7836 O   0  0  0  0  0  0  0  0  0  0  0  0
  -27.2741  -14.7799   20.4447 O   0  0  0  0  0  0  0  0  0  0  0  0
  -20.2851  -29.2754   21.7657 O   0  0  0  0  0  0  0  0  0  1  0  0
  -30.6803  -10.7980   18.7281 F   0  0  0  0  0  0  0  0  0  0  0  0
  -26.5408  -29.3711   18.8998 F   0  0  0  0  0  0  0  0  0  0  0  0
  -28.2866  -12.9170   22.2189 F   0  0  0  0  0  0  0  0  0  0  0  0
  1  2  1  0  0  0  0
  1  5  2  0  0  0  0
  2  6  2  0  0  0  0
  3 10  2  0  0  0  0
  3 18  1  0  0  0  0
  4 11  1  0  0  0  0
  4 18  2  0  0  0  0
  5 20  1  0  0  0  0
  6 22  1  0  0  0  0
  7 12  2  0  0  0  0
  7 21  1  0  0  0  0
  8  9  2  0  0  0  0
  8 24  1  0  0  0  0
  9 25  1  0  0  0  0
 10 26  1  0  0  0  0
 11 26  2  0  0  0  0
 12 27  1  0  0  0  0
 13 14  2  0  0  0  0
 13 28  1  0  0  0  0
 14 29  1  0  0  0  0
 15 23  1  0  0  0  0
 15 27  2  0  0  0  0
 16 25  2  0  0  0  0
 16 30  1  0  0  0  0
 17 29  2  0  0  0  0
 17 31  1  0  0  0  0
 18 32  1  0  0  0  0
 19 32  1  0  0  0  0
 19 33  2  0  0  0  0
 19 34  1  0  0  0  0
 20 22  2  0  0  0  0
 20 39  1  0  0  0  0
 21 23  2  0  0  0  0
 21 40  1  0  0  0  0
 22 48  1  0  0  0  0
 23 41  1  0  0  0  0
 24 30  2  0  0  0  0
 24 57  1  0  0  0  0
 25 72  1  0  0  0  0
 26 79  1  0  0  0  0
 27 80  1  0  0  0  0
 28 31  2  0  0  0  0
 28 79  1  0  0  0  0
 29 81  1  0  0  0  0
 30 82  1  0  0  0  0
 31 83  1  0  0  0  0
 32 63  2  0  0  0  0
 33 64  1  0  0  0  0
 33 67  1  0  0  0  0
 34 68  1  0  0  0  0
 34 74  2  0  0  0  0
 35 49  1  0  0  0  0
 35 69  1  0  0  0  0
 35 75  2  0  0  0  0
 36 60  1  0  0  0  0
 36 65  1  0  0  0  0
 36 76  2  0  0  0  0
 37 61  1  0  0  0  0
 37 70  1  0  0  0  0
 37 77  2  0  0  0  0
 38 66  1  0  0  0  0
 38 71  1  0  0  0  0
 38 78  2  0  0  0  0
 39 42  1  0  0  0  0
 40 49  1  0  0  0  0
 41 65  1  0  0  0  0
 42 44  1  0  0  0  0
 43 45  1  0  0  0  0
 43 46  1  0  0  0  0
 44 48  1  0  0  0  0
 45 50  1  0  0  0  0
 46 66  1  0  0  0  0
 47 50  1  0  0  0  0
 47 66  1  0  0  0  0
 48 69  1  0  0  0  0
 49 65  1  0  0  0  0
 50 64  1  0  0  0  0
 51 61  1  0  0  0  0
 52 62  1  0  0  0  0
 53 62  1  0  0  0  0
 54 62  1  0  0  0  0
 55 72  1  0  0  0  0
 56 73  1  0  0  0  0
 57 71  1  0  0  0  0
 58 59  1  0  0  0  0
 58 72  1  0  0  0  0
 59 80  1  0  0  0  0
 60 62  1  0  0  0  0
 60 70  1  0  0  0  0
 61 73  1  0  0  0  0
 63 64  1  0  0  0  0
M  CHG  1  73   1
M  ISO  4  38 100  59 101  71 100  80 101
M  END
> <Batch ID>
0010

> <Smiles>
CNC(C)C(=O)NC(C(=O)N1Cc2cc([101O:1][101CH2:1]CN(C)c3ccc(C[100NH:0][100C:0](=O)N4CCCC(n5nc(-c6ccc(Oc7ccc(F)cc7F)cc6)c(C(N)=O)c5N)C4)c(F)c3)ccc2CC1C(=O)NC1CCCc2ccccc21)C(C)(C)C

> <Shape>
0.221

> <Color>
0.061

> <Negative vol penalty>
0.000

$$$$

  -OEChem-04042320403D

 82 90  0     1  0  0  0  0  0999 V2000
  -18.4796  -27.4214   23.2053 C   0  0  0  0  0  0  0  0  0  0  0  0
  -19.1340  -26.4242   22.4892 C   0  0  0  0  0  0  0  0  0  0  0  0
  -22.9027  -10.4155   21.1764 C   0  0  0  0  0  0  0  0  0  0  0  0
  -24.6886   -8.9402   21.8629 C   0  0  0  0  0  0  0  0  0  0  0  0
  -25.2718  -15.1430   16.0010 C   0  0  0  0  0  0  0  0  0  0  0  0
  -18.9405  -28.7360   23.1478 C   0  0  0  0  0  0  0  0  0  0  0  0
  -20.2490  -26.7413   21.7142 C   0  0  0  0  0  0  0  0  0  0  0  0
  -24.0327  -23.4280   22.3068 C   0  0  0  0  0  0  0  0  0  0  0  0
  -22.0308   -9.3288   21.1093 C   0  0  0  0  0  0  0  0  0  0  0  0
  -23.8167   -7.8535   21.7958 C   0  0  0  0  0  0  0  0  0  0  0  0
  -23.9230  -22.2099   21.6376 C   0  0  0  0  0  0  0  0  0  0  0  0
  -21.3693   -6.5049   23.6963 C   0  0  0  0  0  0  0  0  0  0  0  0
  -23.9674  -15.6365   16.0204 C   0  0  0  0  0  0  0  0  0  0  0  0
  -21.3914   -5.5922   24.7508 C   0  0  0  0  0  0  0  0  0  0  0  0
  -25.4025  -23.0286   19.9172 C   0  0  0  0  0  0  0  0  0  0  0  0
  -21.9928   -3.8291   23.2122 C   0  0  0  0  0  0  0  0  0  0  0  0
  -24.2316  -10.2212   21.5531 C   0  0  0  0  0  0  0  0  0  0  0  0
  -26.2338  -15.6812   16.8557 C   0  0  0  0  0  0  0  0  0  0  0  0
  -25.3835  -12.1651   22.7372 C   0  0  0  0  0  0  0  0  0  0  0  0
  -20.0675  -29.0677   22.3794 C   0  0  0  0  0  0  0  0  0  0  0  0
  -24.8208  -24.4612   21.7798 C   0  0  0  0  0  0  0  0  0  0  0  0
  -20.7246  -28.0618   21.6453 C   0  0  0  0  0  0  0  0  0  0  0  0
  -25.5226  -24.2580   20.5830 C   0  0  0  0  0  0  0  0  0  0  0  0
  -24.5869  -17.2065   17.7489 C   0  0  0  0  0  0  0  0  0  0  0  0
  -22.4878   -8.0478   21.4191 C   0  0  0  0  0  0  0  0  0  0  0  0
  -24.6056  -22.0110   20.4411 C   0  0  0  0  0  0  0  0  0  0  0  0
  -21.6588   -6.0797   22.3997 C   0  0  0  0  0  0  0  0  0  0  0  0
  -21.7032   -4.2543   24.5088 C   0  0  0  0  0  0  0  0  0  0  0  0
  -23.6249  -16.6683   16.8943 C   0  0  0  0  0  0  0  0  0  0  0  0
  -21.9706   -4.7419   22.1577 C   0  0  0  0  0  0  0  0  0  0  0  0
  -25.8914  -16.7129   17.7297 C   0  0  0  0  0  0  0  0  0  0  0  0
  -25.1329  -11.3433   21.6221 C   0  0  0  0  0  0  0  0  0  0  0  0
  -26.3090  -13.0766   22.2910 C   0  0  0  0  0  0  0  0  0  0  0  0
  -27.6058  -15.1576   16.8330 C   0  0  0  0  0  0  0  0  0  0  0  0
  -24.8292  -12.1096   24.0584 C   0  0  0  0  0  0  0  0  0  0  0  0
  -24.2539  -27.4183   20.7609 C   0  0  0  0  0  0  0  0  0  0  0  0
  -27.4869  -27.5393   20.5247 C   0  0  0  0  0  0  0  0  0  0  0  0
  -30.4317  -25.8499   20.1766 C   0  0  0  0  0  0  0  0  0  0  0  0
  -20.5001  -30.5109   22.3106 C   0  0  0  0  0  0  0  0  0  0  0  0
  -24.9500  -25.7599   22.5276 C   0  0  0  0  0  0  0  0  0  0  0  0
  -26.3980  -25.3282   19.9855 C   0  0  0  0  0  0  0  0  0  0  0  0
  -21.9129  -30.6979   21.7635 C   0  0  0  0  0  0  0  0  0  0  0  0
  -29.8529  -13.5798   19.1139 C   0  0  0  0  0  0  0  0  0  0  0  0
  -22.1148  -29.8559   20.5077 C   0  0  0  0  0  0  0  0  0  0  0  0
  -28.9221  -12.8870   20.1108 C   0  0  0  0  0  0  0  0  0  0  0  0
  -29.2798  -13.5585   17.6991 C   0  0  0  0  0  0  0  0  0  0  0  0
  -26.9765  -13.4129   18.5815 C   0  0  0  0  0  0  0  0  0  0  0  0
  -21.9523  -28.3620   20.8130 C   0  0  1  0  0  0  0  0  0  0  0  0
  -25.3711  -26.9237   21.6355 C   0  0  1  0  0  0  0  0  0  0  0  0
  -27.4935  -13.4569   20.0288 C   0  0  1  0  0  0  0  0  0  0  0  0
  -32.9052  -26.2232   19.9772 C   0  0  0  0  0  0  0  0  0  0  0  0
  -24.6919  -17.1824   20.7481 C   0  0  0  0  0  0  0  0  0  0  0  0
  -27.1171  -28.4265   17.6289 C   0  0  0  0  0  0  0  0  0  0  0  0
  -29.5233  -27.8662   17.2231 C   0  0  0  0  0  0  0  0  0  0  0  0
  -28.9180  -29.6396   18.8697 C   0  0  0  0  0  0  0  0  0  0  0  0
  -30.9797  -24.3147   22.6467 C   0  0  0  0  0  0  0  0  0  0  0  0
  -24.2764  -19.6599   20.5812 C   0  0  0  0  0  0  0  0  0  1  0  0
  -28.4930  -27.2151   19.4469 C   0  0  1  0  0  0  0  0  0  0  0  0
  -31.7476  -25.9544   20.9261 C   0  0  2  0  0  0  0  0  0  0  0  0
  -24.8820  -18.4339   19.9011 C   0  0  2  0  0  0  0  0  0  0  0  0
  -28.4949  -28.2672   18.3022 C   0  0  0  0  0  0  0  0  0  0  0  0
  -25.8419  -11.7011   20.5482 N   0  0  0  0  0  0  0  0  0  0  0  0
  -26.5470  -12.7579   20.9864 N   0  0  0  0  0  0  0  0  0  0  0  0
  -27.9195  -14.0950   17.6838 N   0  0  0  0  0  0  0  0  0  0  0  0
  -26.4871  -26.5827   20.7509 N   0  0  0  0  0  0  0  0  0  0  0  0
  -26.9342  -14.1116   22.8912 N   0  0  0  0  0  0  0  0  0  0  0  0
  -23.8909  -11.1095   24.3478 N   0  0  0  0  0  0  0  0  0  0  0  0
  -24.2464  -18.2293   18.6148 N   0  0  0  0  0  0  0  0  0  0  0  0
  -23.1404  -27.8459   21.4584 N   0  0  0  0  0  0  0  0  0  0  0  0
  -29.7780  -27.0627   20.1206 N   0  0  0  0  0  0  0  0  0  0  0  0
  -32.0268  -24.6886   21.6614 N   0  3  0  0  0  0  0  0  0  0  0  0
  -28.3869  -15.7135   16.0623 O   0  0  0  0  0  0  0  0  0  0  0  0
  -25.1441  -12.9328   24.9509 O   0  0  0  0  0  0  0  0  0  0  0  0
  -24.3926  -27.4137   19.5433 O   0  0  0  0  0  0  0  0  0  0  0  0
  -27.5887  -28.5989   21.1481 O   0  0  0  0  0  0  0  0  0  0  0  0
  -30.0260  -24.7984   19.6863 O   0  0  0  0  0  0  0  0  0  0  0  0
  -21.6372   -6.9872   21.3539 O   0  0  0  0  0  0  0  0  0  0  0  0
  -24.4998  -20.8232   19.7856 O   0  0  0  0  0  0  0  0  0  1  0  0
  -21.7259   -3.3782   25.5218 F   0  0  0  0  0  0  0  0  0  0  0  0
  -22.3684  -17.1356   16.9036 F   0  0  0  0  0  0  0  0  0  0  0  0
  -22.2508   -4.3277   20.9144 F   0  0  0  0  0  0  0  0  0  0  0  0
  -26.8165  -17.2309   18.5519 F   0  0  0  0  0  0  0  0  0  0  0  0
  1  2  1  0  0  0  0
  1  6  2  0  0  0  0
  2  7  2  0  0  0  0
  3  9  2  0  0  0  0
  3 17  1  0  0  0  0
  4 10  1  0  0  0  0
  4 17  2  0  0  0  0
  5 13  1  0  0  0  0
  5 18  2  0  0  0  0
  6 20  1  0  0  0  0
  7 22  1  0  0  0  0
  8 11  2  0  0  0  0
  8 21  1  0  0  0  0
  9 25  1  0  0  0  0
 10 25  2  0  0  0  0
 11 26  1  0  0  0  0
 12 14  2  0  0  0  0
 12 27  1  0  0  0  0
 13 29  2  0  0  0  0
 14 28  1  0  0  0  0
 15 23  1  0  0  0  0
 15 26  2  0  0  0  0
 16 28  2  0  0  0  0
 16 30  1  0  0  0  0
 17 32  1  0  0  0  0
 18 31  1  0  0  0  0
 18 34  1  0  0  0  0
 19 32  1  0  0  0  0
 19 33  2  0  0  0  0
 19 35  1  0  0  0  0
 20 22  2  0  0  0  0
 20 39  1  0  0  0  0
 21 23  2  0  0  0  0
 21 40  1  0  0  0  0
 22 48  1  0  0  0  0
 23 41  1  0  0  0  0
 24 29  1  0  0  0  0
 24 31  2  0  0  0  0
 24 68  1  0  0  0  0
 25 77  1  0  0  0  0
 26 78  1  0  0  0  0
 27 30  2  0  0  0  0
 27 77  1  0  0  0  0
 28 79  1  0  0  0  0
 29 80  1  0  0  0  0
 30 81  1  0  0  0  0
 31 82  1  0  0  0  0
 32 62  2  0  0  0  0
 33 63  1  0  0  0  0
 33 66  1  0  0  0  0
 34 64  1  0  0  0  0
 34 72  2  0  0  0  0
 35 67  1  0  0  0  0
 35 73  2  0  0  0  0
 36 49  1  0  0  0  0
 36 69  1  0  0  0  0
 36 74  2  0  0  0  0
 37 58  1  0  0  0  0
 37 65  1  0  0  0  0
 37 75  2  0  0  0  0
 38 59  1  0  0  0  0
 38 70  1  0  0  0  0
 38 76  2  0  0  0  0
 39 42  1  0  0  0  0
 40 49  1  0  0  0  0
 41 65  1  0  0  0  0
 42 44  1  0  0  0  0
 43 45  1  0  0  0  0
 43 46  1  0  0  0  0
 44 48  1  0  0  0  0
 45 50  1  0  0  0  0
 46 64  1  0  0  0  0
 47 50  1  0  0  0  0
 47 64  1  0  0  0  0
 48 69  1  0  0  0  0
 49 65  1  0  0  0  0
 50 63  1  0  0  0  0
 51 59  1  0  0  0  0
 52 60  1  0  0  0  0
 53 61  1  0  0  0  0
 54 61  1  0  0  0  0
 55 61  1  0  0  0  0
 56 71  1  0  0  0  0
 57 60  1  0  0  0  0
 57 78  1  0  0  0  0
 58 61  1  0  0  0  0
 58 70  1  0  0  0  0
 59 71  1  0  0  0  0
 60 68  1  0  0  0  0
 62 63  1  0  0  0  0
M  CHG  1  71   1
M  ISO  4  18 100  34 100  57 101  78 101
M  END
> <Batch ID>
0010

> <Smiles>
CNC(C)C(=O)NC(C(=O)N1Cc2cc([101O:1][101CH2:1]C(C)Nc3c(F)cc[100c:0]([100C:0](=O)N4CCCC(n5nc(-c6ccc(Oc7ccc(F)cc7F)cc6)c(C(N)=O)c5N)C4)c3F)ccc2CC1C(=O)NC1CCCc2ccccc21)C(C)(C)C

> <Shape>
0.242

> <Color>
0.116

> <Negative vol penalty>
0.000

$$$$

  -OEChem-04042320403D

 84 93  0     1  0  0  0  0  0999 V2000
  -28.1799  -33.0397   26.3048 C   0  0  0  0  0  0  0  0  0  0  0  0
  -28.7773  -31.8585   25.8767 C   0  0  0  0  0  0  0  0  0  0  0  0
  -23.1053   -9.8568   19.9608 C   0  0  0  0  0  0  0  0  0  0  0  0
  -23.8531   -9.9073   22.2576 C   0  0  0  0  0  0  0  0  0  0  0  0
  -26.9306  -33.4079   25.8071 C   0  0  0  0  0  0  0  0  0  0  0  0
  -28.1252  -31.0442   24.9514 C   0  0  0  0  0  0  0  0  0  0  0  0
  -30.7167  -27.6711   20.5455 C   0  0  0  0  0  0  0  0  0  0  0  0
  -31.2561  -19.1590   20.5179 C   0  0  0  0  0  0  0  0  0  0  0  0
  -31.1001  -17.7730   20.5341 C   0  0  0  0  0  0  0  0  0  0  0  0
  -22.3715   -8.7004   20.2251 C   0  0  0  0  0  0  0  0  0  0  0  0
  -23.1192   -8.7509   22.5220 C   0  0  0  0  0  0  0  0  0  0  0  0
  -31.0441  -26.3180   20.4702 C   0  0  0  0  0  0  0  0  0  0  0  0
  -19.8960   -7.9307   23.1206 C   0  0  0  0  0  0  0  0  0  0  0  0
  -19.1333   -7.9017   24.2881 C   0  0  0  0  0  0  0  0  0  0  0  0
  -28.9645  -25.8845   19.3271 C   0  0  0  0  0  0  0  0  0  0  0  0
  -29.6143  -19.3643   22.2784 C   0  0  0  0  0  0  0  0  0  0  0  0
  -20.3898   -5.9884   25.0612 C   0  0  0  0  0  0  0  0  0  0  0  0
  -23.8462  -10.4602   20.9770 C   0  0  0  0  0  0  0  0  0  0  0  0
  -24.1638  -12.9864   20.8190 C   0  0  0  0  0  0  0  0  0  0  0  0
  -26.2672  -32.6026   24.8679 C   0  0  0  0  0  0  0  0  0  0  0  0
  -29.5037  -28.1401   20.0209 C   0  0  0  0  0  0  0  0  0  0  0  0
  -26.8653  -31.4013   24.4417 C   0  0  0  0  0  0  0  0  0  0  0  0
  -28.6252  -27.2444   19.3947 C   0  0  0  0  0  0  0  0  0  0  0  0
  -30.5133  -19.9546   21.3901 C   0  0  0  0  0  0  0  0  0  0  0  0
  -30.2012  -17.1826   21.4223 C   0  0  0  0  0  0  0  0  0  0  0  0
  -22.3784   -8.1474   21.5057 C   0  0  0  0  0  0  0  0  0  0  0  0
  -30.1667  -25.4240   19.8635 C   0  0  0  0  0  0  0  0  0  0  0  0
  -20.9055   -6.9885   22.9233 C   0  0  0  0  0  0  0  0  0  0  0  0
  -19.3803   -6.9306   25.2584 C   0  0  0  0  0  0  0  0  0  0  0  0
  -29.4582  -17.9783   22.2945 C   0  0  0  0  0  0  0  0  0  0  0  0
  -21.1524   -6.0174   23.8937 C   0  0  0  0  0  0  0  0  0  0  0  0
  -24.6049  -11.6544   20.7045 C   0  0  0  0  0  0  0  0  0  0  0  0
  -25.2505  -13.7409   20.4495 C   0  0  0  0  0  0  0  0  0  0  0  0
  -31.5344  -22.1090   20.5387 C   0  0  0  0  0  0  0  0  0  0  0  0
  -22.8862  -13.4961   21.2233 C   0  0  0  0  0  0  0  0  0  0  0  0
  -26.9347  -29.5630   21.2372 C   0  0  0  0  0  0  0  0  0  0  0  0
  -26.0593  -29.7788   18.1212 C   0  0  0  0  0  0  0  0  0  0  0  0
  -26.3407  -28.5694   14.9424 C   0  0  0  0  0  0  0  0  0  0  0  0
  -30.7051  -14.8431   20.6355 C   0  0  0  0  0  0  0  0  0  0  0  0
  -24.8971  -33.0183   24.3942 C   0  0  0  0  0  0  0  0  0  0  0  0
  -29.1773  -29.6069   20.0864 C   0  0  0  0  0  0  0  0  0  0  0  0
  -27.3197  -27.7006   18.7980 C   0  0  0  0  0  0  0  0  0  0  0  0
  -24.4407  -32.2877   23.1339 C   0  0  0  0  0  0  0  0  0  0  0  0
  -29.6269  -12.3815   18.2999 C   0  0  0  0  0  0  0  0  0  0  0  0
  -24.7026  -30.7903   23.2605 C   0  0  0  0  0  0  0  0  0  0  0  0
  -28.1879  -12.0825   18.7267 C   0  0  0  0  0  0  0  0  0  0  0  0
  -30.5772  -23.5850   22.1619 C   0  0  0  0  0  0  0  0  0  0  0  0
  -30.5334  -12.6382   19.5025 C   0  0  0  0  0  0  0  0  0  0  0  0
  -29.8608  -22.2477   22.1985 C   0  0  0  0  0  0  0  0  0  0  0  0
  -28.6122  -13.3653   20.8624 C   0  0  0  0  0  0  0  0  0  0  0  0
  -26.2006  -30.5039   23.4205 C   0  0  1  0  0  0  0  0  0  0  0  0
  -31.2916  -23.5759   20.8223 C   0  0  2  0  0  0  0  0  0  1  0  0
  -27.6827  -29.8920   19.9763 C   0  0  1  0  0  0  0  0  0  0  0  0
  -27.6473  -13.1640   19.6826 C   0  0  2  0  0  0  0  0  0  0  0  0
  -25.4739  -28.9271   12.6147 C   0  0  0  0  0  0  0  0  0  0  0  0
  -23.4313  -28.4361   18.8963 C   0  0  0  0  0  0  0  0  0  0  0  0
  -23.0365  -27.9656   16.4691 C   0  0  0  0  0  0  0  0  0  0  0  0
  -23.1994  -30.3223   17.2705 C   0  0  0  0  0  0  0  0  0  0  0  0
  -29.0463  -29.1660   13.9018 C   0  0  0  0  0  0  0  0  0  0  0  0
  -25.2884  -28.9021   17.1642 C   0  0  1  0  0  0  0  0  0  0  0  0
  -26.5673  -29.2696   13.6147 C   0  0  2  0  0  0  0  0  0  0  0  0
  -23.7625  -28.8973   17.4629 C   0  0  0  0  0  0  0  0  0  0  0  0
  -25.8728  -11.5646   20.2942 N   0  0  0  0  0  0  0  0  0  0  0  0
  -26.2377  -12.8496   20.1476 N   0  0  0  0  0  0  0  0  0  0  0  0
  -30.6723  -21.3729   21.3734 N   0  0  0  0  0  0  0  0  0  0  0  0
  -27.0428  -29.1435   18.8926 N   0  0  0  0  0  0  0  0  0  0  0  0
  -29.9598  -13.6771   20.3606 N   0  0  0  0  0  0  0  0  0  0  0  0
  -25.4482  -15.0730   20.3566 N   0  0  0  0  0  0  0  0  0  0  0  0
  -21.8815  -12.5824   21.5697 N   0  0  0  0  0  0  0  0  0  0  0  0
  -30.0444  -15.7744   21.4360 N   0  0  0  0  0  0  0  0  0  0  0  0
  -26.8736  -30.6045   22.1433 N   0  0  0  0  0  0  0  0  0  0  0  0
  -25.6332  -29.3604   15.8227 N   0  0  0  0  0  0  0  0  0  0  0  0
  -27.8789  -28.8661   13.0334 N   0  3  0  0  0  0  0  0  0  0  0  0
  -32.3111  -21.7254   19.6757 O   0  0  0  0  0  0  0  0  0  0  0  0
  -22.6376  -14.7251   21.2601 O   0  0  0  0  0  0  0  0  0  0  0  0
  -26.4476  -28.4472   21.3771 O   0  0  0  0  0  0  0  0  0  0  0  0
  -25.8034  -30.9842   18.1771 O   0  0  0  0  0  0  0  0  0  0  0  0
  -26.7473  -27.4329   15.1740 O   0  0  0  0  0  0  0  0  0  0  0  0
  -31.8349  -15.0156   20.1711 O   0  0  0  0  0  0  0  0  0  0  0  0
  -21.6623   -7.0192   21.7640 O   0  0  0  0  0  0  0  0  0  0  0  0
  -30.4836  -24.1026   19.7893 O   0  0  0  0  0  0  0  0  0  1  0  0
  -18.6488   -6.9037   26.3802 F   0  0  0  0  0  0  0  0  0  0  0  0
  -28.5901  -17.4219   23.1515 F   0  0  0  0  0  0  0  0  0  0  0  0
  -22.1217   -5.1104   23.7103 F   0  0  0  0  0  0  0  0  0  0  0  0
  1  2  1  0  0  0  0
  1  5  2  0  0  0  0
  2  6  2  0  0  0  0
  3 10  2  0  0  0  0
  3 18  1  0  0  0  0
  4 11  1  0  0  0  0
  4 18  2  0  0  0  0
  5 20  1  0  0  0  0
  6 22  1  0  0  0  0
  7 12  2  0  0  0  0
  7 21  1  0  0  0  0
  8  9  2  0  0  0  0
  8 24  1  0  0  0  0
  9 25  1  0  0  0  0
 10 26  1  0  0  0  0
 11 26  2  0  0  0  0
 12 27  1  0  0  0  0
 13 14  2  0  0  0  0
 13 28  1  0  0  0  0
 14 29  1  0  0  0  0
 15 23  1  0  0  0  0
 15 27  2  0  0  0  0
 16 24  2  0  0  0  0
 16 30  1  0  0  0  0
 17 29  2  0  0  0  0
 17 31  1  0  0  0  0
 18 32  1  0  0  0  0
 19 32  1  0  0  0  0
 19 33  2  0  0  0  0
 19 35  1  0  0  0  0
 20 22  2  0  0  0  0
 20 40  1  0  0  0  0
 21 23  2  0  0  0  0
 21 41  1  0  0  0  0
 22 51  1  0  0  0  0
 23 42  1  0  0  0  0
 24 65  1  0  0  0  0
 25 30  2  0  0  0  0
 25 70  1  0  0  0  0
 26 80  1  0  0  0  0
 27 81  1  0  0  0  0
 28 31  2  0  0  0  0
 28 80  1  0  0  0  0
 29 82  1  0  0  0  0
 30 83  1  0  0  0  0
 31 84  1  0  0  0  0
 32 63  2  0  0  0  0
 33 64  1  0  0  0  0
 33 68  1  0  0  0  0
 34 52  1  0  0  0  0
 34 65  1  0  0  0  0
 34 74  2  0  0  0  0
 35 69  1  0  0  0  0
 35 75  2  0  0  0  0
 36 53  1  0  0  0  0
 36 71  1  0  0  0  0
 36 76  2  0  0  0  0
 37 60  1  0  0  0  0
 37 66  1  0  0  0  0
 37 77  2  0  0  0  0
 38 61  1  0  0  0  0
 38 72  1  0  0  0  0
 38 78  2  0  0  0  0
 39 67  1  0  0  0  0
 39 70  1  0  0  0  0
 39 79  2  0  0  0  0
 40 43  1  0  0  0  0
 41 53  1  0  0  0  0
 42 66  1  0  0  0  0
 43 45  1  0  0  0  0
 44 46  1  0  0  0  0
 44 48  1  0  0  0  0
 45 51  1  0  0  0  0
 46 54  1  0  0  0  0
 47 49  1  0  0  0  0
 47 52  1  0  0  0  0
 48 67  1  0  0  0  0
 49 65  1  0  0  0  0
 50 54  1  0  0  0  0
 50 67  1  0  0  0  0
 51 71  1  0  0  0  0
 52 81  1  0  0  0  0
 53 66  1  0  0  0  0
 54 64  1  0  0  0  0
 55 61  1  0  0  0  0
 56 62  1  0  0  0  0
 57 62  1  0  0  0  0
 58 62  1  0  0  0  0
 59 73  1  0  0  0  0
 60 62  1  0  0  0  0
 60 72  1  0  0  0  0
 61 73  1  0  0  0  0
 63 64  1  0  0  0  0
M  CHG  1  73   1
M  ISO  4  39 100  52 101  70 100  81 101
M  END
> <Batch ID>
0010

> <Smiles>
CNC(C)C(=O)NC(C(=O)N1Cc2cc([101O:1][101CH:1]3CCN(c4ccc([100NH:0][100C:0](=O)N5CCCC(n6nc(-c7ccc(Oc8ccc(F)cc8F)cc7)c(C(N)=O)c6N)C5)c(F)c4)C3=O)ccc2CC1C(=O)NC1CCCc2ccccc21)C(C)(C)C

> <Shape>
0.339

> <Color>
0.196

> <Negative vol penalty>
0.000

$$$$

  -OEChem-04042320403D

 84 93  0     1  0  0  0  0  0999 V2000
  -19.6002  -14.3232   36.3990 C   0  0  0  0  0  0  0  0  0  0  0  0
  -20.4563  -15.3479   36.0085 C   0  0  0  0  0  0  0  0  0  0  0  0
  -32.6548  -17.4873   23.4538 C   0  0  0  0  0  0  0  0  0  0  0  0
  -23.0734   -9.8699   19.9415 C   0  0  0  0  0  0  0  0  0  0  0  0
  -23.8316   -9.8779   22.2354 C   0  0  0  0  0  0  0  0  0  0  0  0
  -19.4420  -13.2010   35.5868 C   0  0  0  0  0  0  0  0  0  0  0  0
  -21.1556  -15.2505   34.8060 C   0  0  0  0  0  0  0  0  0  0  0  0
  -23.6953  -19.3127   29.4801 C   0  0  0  0  0  0  0  0  0  0  0  0
  -31.8591  -18.3565   24.2001 C   0  0  0  0  0  0  0  0  0  0  0  0
  -32.0646  -16.6035   22.5503 C   0  0  0  0  0  0  0  0  0  0  0  0
  -22.3284   -8.7176   20.1916 C   0  0  0  0  0  0  0  0  0  0  0  0
  -23.0865   -8.7255   22.4856 C   0  0  0  0  0  0  0  0  0  0  0  0
  -24.8762  -19.5557   28.7799 C   0  0  0  0  0  0  0  0  0  0  0  0
  -19.9408   -5.9793   20.3201 C   0  0  0  0  0  0  0  0  0  0  0  0
  -18.6354   -5.9321   19.8308 C   0  0  0  0  0  0  0  0  0  0  0  0
  -24.4636  -17.6067   27.4197 C   0  0  0  0  0  0  0  0  0  0  0  0
  -18.0709   -7.8764   21.1492 C   0  0  0  0  0  0  0  0  0  0  0  0
  -23.8251  -10.4500   20.9633 C   0  0  0  0  0  0  0  0  0  0  0  0
  -24.1692  -12.9748   20.8418 C   0  0  0  0  0  0  0  0  0  0  0  0
  -20.1323  -13.0943   34.3691 C   0  0  0  0  0  0  0  0  0  0  0  0
  -22.8940  -18.2068   29.1621 C   0  0  0  0  0  0  0  0  0  0  0  0
  -21.0075  -14.1253   33.9774 C   0  0  0  0  0  0  0  0  0  0  0  0
  -23.2718  -17.3533   28.1157 C   0  0  0  0  0  0  0  0  0  0  0  0
  -30.4732  -18.3418   24.0431 C   0  0  0  0  0  0  0  0  0  0  0  0
  -30.6786  -16.5887   22.3933 C   0  0  0  0  0  0  0  0  0  0  0  0
  -22.3349   -8.1454   21.4637 C   0  0  0  0  0  0  0  0  0  0  0  0
  -25.2620  -18.7010   27.7515 C   0  0  0  0  0  0  0  0  0  0  0  0
  -20.3112   -6.9751   21.2240 C   0  0  0  0  0  0  0  0  0  0  0  0
  -17.7005   -6.8806   20.2453 C   0  0  0  0  0  0  0  0  0  0  0  0
  -19.3763   -7.9236   21.6385 C   0  0  0  0  0  0  0  0  0  0  0  0
  -29.8829  -17.4579   23.1397 C   0  0  0  0  0  0  0  0  0  0  0  0
  -24.5954  -11.6401   20.7054 C   0  0  0  0  0  0  0  0  0  0  0  0
  -25.2623  -13.7231   20.4788 C   0  0  0  0  0  0  0  0  0  0  0  0
  -22.8988  -13.4920   21.2593 C   0  0  0  0  0  0  0  0  0  0  0  0
  -21.9337  -15.6096   30.7229 C   0  0  0  0  0  0  0  0  0  0  0  0
  -20.1554  -15.1368   28.0514 C   0  0  0  0  0  0  0  0  0  0  0  0
  -19.7242  -15.7221   24.7170 C   0  0  0  0  0  0  0  0  0  0  0  0
  -30.7292  -14.7641   20.6571 C   0  0  0  0  0  0  0  0  0  0  0  0
  -19.9652  -11.8406   33.5474 C   0  0  0  0  0  0  0  0  0  0  0  0
  -21.6095  -17.9736   29.9092 C   0  0  0  0  0  0  0  0  0  0  0  0
  -22.4363  -16.1637   27.7217 C   0  0  0  0  0  0  0  0  0  0  0  0
  -20.4560  -11.9851   32.1092 C   0  0  0  0  0  0  0  0  0  0  0  0
  -29.6146  -12.3496   18.2896 C   0  0  0  0  0  0  0  0  0  0  0  0
  -21.8266  -12.6539   32.0774 C   0  0  0  0  0  0  0  0  0  0  0  0
  -28.1743  -12.0596   18.7183 C   0  0  0  0  0  0  0  0  0  0  0  0
  -28.2333  -17.5507   27.8115 C   0  0  0  0  0  0  0  0  0  0  0  0
  -30.5289  -12.5785   19.4918 C   0  0  0  0  0  0  0  0  0  0  0  0
  -28.6215  -13.3055   20.8711 C   0  0  0  0  0  0  0  0  0  0  0  0
  -28.9021  -17.4774   26.4536 C   0  0  0  0  0  0  0  0  0  0  0  0
  -28.6620  -19.8191   27.1308 C   0  0  0  0  0  0  0  0  0  0  0  0
  -21.7644  -14.0676   32.6683 C   0  0  1  0  0  0  0  0  0  0  0  0
  -21.1331  -16.5259   29.8414 C   0  0  1  0  0  0  0  0  0  0  0  0
  -27.6495  -13.1323   19.6926 C   0  0  2  0  0  0  0  0  0  0  0  0
  -27.6268  -18.9433   27.8193 C   0  0  1  0  0  0  0  0  0  1  0  0
  -18.1997  -15.1711   22.8013 C   0  0  0  0  0  0  0  0  0  0  0  0
  -21.3858  -12.3501   27.8769 C   0  0  0  0  0  0  0  0  0  0  0  0
  -20.5905  -12.2235   25.5063 C   0  0  0  0  0  0  0  0  0  0  0  0
  -18.9400  -12.4447   27.3635 C   0  0  0  0  0  0  0  0  0  0  0  0
  -19.0258  -18.5681   24.3028 C   0  0  0  0  0  0  0  0  0  0  0  0
  -29.6204  -19.2782   24.8473 C   0  0  0  0  0  0  0  0  0  0  0  0
  -20.3714  -14.4314   26.7343 C   0  0  1  0  0  0  0  0  0  0  0  0
  -18.5073  -16.1550   23.9194 C   0  0  2  0  0  0  0  0  0  0  0  0
  -20.3389  -12.8836   26.8787 C   0  0  0  0  0  0  0  0  0  0  0  0
  -25.8605  -11.5429   20.2881 N   0  0  0  0  0  0  0  0  0  0  0  0
  -26.2386  -12.8260   20.1592 N   0  0  0  0  0  0  0  0  0  0  0  0
  -21.1924  -15.9743   28.4862 N   0  0  0  0  0  0  0  0  0  0  0  0
  -29.9702  -13.6104   20.3680 N   0  0  0  0  0  0  0  0  0  0  0  0
  -25.4739  -15.0543   20.4050 N   0  0  0  0  0  0  0  0  0  0  0  0
  -21.8858  -12.5839   21.5965 N   0  0  0  0  0  0  0  0  0  0  0  0
  -30.0820  -15.6903   21.4743 N   0  0  0  0  0  0  0  0  0  0  0  0
  -21.1926  -14.9906   31.7114 N   0  0  0  0  0  0  0  0  0  0  0  0
  -19.3725  -14.9670   25.8158 N   0  0  0  0  0  0  0  0  0  0  0  0
  -29.4804  -18.8620   26.2763 N   0  3  2  0  0  0  0  0  0  0  0  0
  -18.7353  -17.4977   23.3144 N   0  3  0  0  0  0  0  0  0  0  0  0
  -22.6636  -14.7229   21.3156 O   0  0  0  0  0  0  0  0  0  0  0  0
  -23.1345  -15.4729   30.5201 O   0  0  0  0  0  0  0  0  0  0  0  0
  -19.1023  -14.9572   28.6681 O   0  0  0  0  0  0  0  0  0  0  0  0
  -20.8722  -16.0205   24.3952 O   0  0  0  0  0  0  0  0  0  0  0  0
  -31.8588  -14.9316   20.1902 O   0  0  0  0  0  0  0  0  0  0  0  0
  -21.6078   -7.0211   21.7083 O   0  0  0  0  0  0  0  0  0  0  0  0
  -26.4144  -18.9356   27.0668 O   0  0  0  0  0  0  0  0  0  1  0  0
  -16.4474   -6.8361   19.7742 F   0  0  0  0  0  0  0  0  0  0  0  0
  -19.7266   -8.8833   22.5058 F   0  0  0  0  0  0  0  0  0  0  0  0
  -28.5499  -17.4454   22.9883 F   0  0  0  0  0  0  0  0  0  0  0  0
  1  2  1  0  0  0  0
  1  6  2  0  0  0  0
  2  7  2  0  0  0  0
  3  9  2  0  0  0  0
  3 10  1  0  0  0  0
  4 11  2  0  0  0  0
  4 18  1  0  0  0  0
  5 12  1  0  0  0  0
  5 18  2  0  0  0  0
  6 20  1  0  0  0  0
  7 22  1  0  0  0  0
  8 13  2  0  0  0  0
  8 21  1  0  0  0  0
  9 24  1  0  0  0  0
 10 25  2  0  0  0  0
 11 26  1  0  0  0  0
 12 26  2  0  0  0  0
 13 27  1  0  0  0  0
 14 15  2  0  0  0  0
 14 28  1  0  0  0  0
 15 29  1  0  0  0  0
 16 23  1  0  0  0  0
 16 27  2  0  0  0  0
 17 29  2  0  0  0  0
 17 30  1  0  0  0  0
 18 32  1  0  0  0  0
 19 32  1  0  0  0  0
 19 33  2  0  0  0  0
 19 34  1  0  0  0  0
 20 22  2  0  0  0  0
 20 39  1  0  0  0  0
 21 23  2  0  0  0  0
 21 40  1  0  0  0  0
 22 51  1  0  0  0  0
 23 41  1  0  0  0  0
 24 31  2  0  0  0  0
 24 60  1  0  0  0  0
 25 31  1  0  0  0  0
 25 70  1  0  0  0  0
 26 80  1  0  0  0  0
 27 81  1  0  0  0  0
 28 30  2  0  0  0  0
 28 80  1  0  0  0  0
 29 82  1  0  0  0  0
 30 83  1  0  0  0  0
 31 84  1  0  0  0  0
 32 64  2  0  0  0  0
 33 65  1  0  0  0  0
 33 68  1  0  0  0  0
 34 69  1  0  0  0  0
 34 75  2  0  0  0  0
 35 52  1  0  0  0  0
 35 71  1  0  0  0  0
 35 76  2  0  0  0  0
 36 61  1  0  0  0  0
 36 66  1  0  0  0  0
 36 77  2  0  0  0  0
 37 62  1  0  0  0  0
 37 72  1  0  0  0  0
 37 78  2  0  0  0  0
 38 67  1  0  0  0  0
 38 70  1  0  0  0  0
 38 79  2  0  0  0  0
 39 42  1  0  0  0  0
 40 52  1  0  0  0  0
 41 66  1  0  0  0  0
 42 44  1  0  0  0  0
 43 45  1  0  0  0  0
 43 47  1  0  0  0  0
 44 51  1  0  0  0  0
 45 53  1  0  0  0  0
 46 49  1  0  0  0  0
 46 54  1  0  0  0  0
 47 67  1  0  0  0  0
 48 53  1  0  0  0  0
 48 67  1  0  0  0  0
 49 73  1  0  0  0  0
 50 54  1  0  0  0  0
 50 73  1  0  0  0  0
 51 71  1  0  0  0  0
 52 66  1  0  0  0  0
 53 65  1  0  0  0  0
 54 81  1  0  0  0  0
 55 62  1  0  0  0  0
 56 63  1  0  0  0  0
 57 63  1  0  0  0  0
 58 63  1  0  0  0  0
 59 74  1  0  0  0  0
 60 73  1  0  0  0  0
 61 63  1  0  0  0  0
 61 72  1  0  0  0  0
 62 74  1  0  0  0  0
 64 65  1  0  0  0  0
M  CHG  2  73   1  74   1
M  ISO  4  38 100  54 101  70 100  81 101
M  END
> <Batch ID>
0010

> <Smiles>
CNC(C)C(=O)NC(C(=O)N1Cc2cc([101O:1][101CH:1]3CCN(Cc4cccc([100NH:0][100C:0](=O)N5CCCC(n6nc(-c7ccc(Oc8ccc(F)cc8F)cc7)c(C(N)=O)c6N)C5)c4F)C3)ccc2CC1C(=O)NC1CCCc2ccccc21)C(C)(C)C

> <Shape>
0.147

> <Color>
0.187

> <Negative vol penalty>
0.000

$$$$

  -OEChem-04042320403D

 83 91  0     1  0  0  0  0  0999 V2000
  -32.0418  -23.5754   18.0447 C   0  0  0  0  0  0  0  0  0  0  0  0
  -30.8106  -23.3853   18.6640 C   0  0  0  0  0  0  0  0  0  0  0  0
  -27.0748  -17.6544   19.0888 C   0  0  0  0  0  0  0  0  0  0  0  0
  -28.0122  -17.2376   21.2762 C   0  0  0  0  0  0  0  0  0  0  0  0
  -32.8279  -24.6764   18.3821 C   0  0  0  0  0  0  0  0  0  0  0  0
  -30.3654  -24.2956   19.6220 C   0  0  0  0  0  0  0  0  0  0  0  0
  -25.5022  -25.5584   18.9895 C   0  0  0  0  0  0  0  0  0  0  0  0
  -19.8813  -16.3134   20.9249 C   0  0  0  0  0  0  0  0  0  0  0  0
  -27.6447  -18.9275   19.0871 C   0  0  0  0  0  0  0  0  0  0  0  0
  -28.5822  -18.5107   21.2745 C   0  0  0  0  0  0  0  0  0  0  0  0
  -24.5449  -24.6430   19.4248 C   0  0  0  0  0  0  0  0  0  0  0  0
  -19.8901  -17.6703   21.2477 C   0  0  0  0  0  0  0  0  0  0  0  0
  -29.9840  -21.7842   22.0018 C   0  0  0  0  0  0  0  0  0  0  0  0
  -29.8681  -22.5480   23.1631 C   0  0  0  0  0  0  0  0  0  0  0  0
  -24.2346  -25.9343   21.4386 C   0  0  0  0  0  0  0  0  0  0  0  0
  -20.7248  -18.1899   19.0408 C   0  0  0  0  0  0  0  0  0  0  0  0
  -27.4605  -22.4566   22.9828 C   0  0  0  0  0  0  0  0  0  0  0  0
  -27.2585  -16.8095   20.1834 C   0  0  0  0  0  0  0  0  0  0  0  0
  -27.2487  -14.3026   19.7108 C   0  0  0  0  0  0  0  0  0  0  0  0
  -32.3877  -25.6058   19.3376 C   0  0  0  0  0  0  0  0  0  0  0  0
  -25.8414  -26.6645   19.7818 C   0  0  0  0  0  0  0  0  0  0  0  0
  -31.1469  -25.4093   19.9734 C   0  0  0  0  0  0  0  0  0  0  0  0
  -25.1947  -26.8636   21.0100 C   0  0  0  0  0  0  0  0  0  0  0  0
  -20.2944  -15.8947   19.6601 C   0  0  0  0  0  0  0  0  0  0  0  0
  -28.3985  -19.3556   20.1799 C   0  0  0  0  0  0  0  0  0  0  0  0
  -23.9130  -24.8293   20.6508 C   0  0  0  0  0  0  0  0  0  0  0  0
  -20.3118  -18.6086   20.3057 C   0  0  0  0  0  0  0  0  0  0  0  0
  -28.8382  -21.3566   21.3309 C   0  0  0  0  0  0  0  0  0  0  0  0
  -28.6064  -22.8842   23.6537 C   0  0  0  0  0  0  0  0  0  0  0  0
  -20.7161  -16.8330   18.7181 C   0  0  0  0  0  0  0  0  0  0  0  0
  -27.5765  -21.6928   21.8214 C   0  0  0  0  0  0  0  0  0  0  0  0
  -26.6695  -15.4945   20.1860 C   0  0  0  0  0  0  0  0  0  0  0  0
  -26.2935  -13.3422   19.9381 C   0  0  0  0  0  0  0  0  0  0  0  0
  -28.5352  -14.0832   19.1172 C   0  0  0  0  0  0  0  0  0  0  0  0
  -28.5005  -27.6790   21.1973 C   0  0  0  0  0  0  0  0  0  0  0  0
  -26.6831  -30.2786   21.8765 C   0  0  0  0  0  0  0  0  0  0  0  0
  -23.5682  -31.5992   22.3239 C   0  0  0  0  0  0  0  0  0  0  0  0
  -20.4843  -13.5027   20.3187 C   0  0  0  0  0  0  0  0  0  0  0  0
  -33.2935  -26.7548   19.7038 C   0  0  0  0  0  0  0  0  0  0  0  0
  -26.8567  -27.6572   19.2859 C   0  0  0  0  0  0  0  0  0  0  0  0
  -25.5083  -28.0459   21.8888 C   0  0  0  0  0  0  0  0  0  0  0  0
  -32.5815  -27.8757   20.4567 C   0  0  0  0  0  0  0  0  0  0  0  0
  -22.6599  -12.2792   22.8510 C   0  0  0  0  0  0  0  0  0  0  0  0
  -31.7101  -27.3018   21.5694 C   0  0  0  0  0  0  0  0  0  0  0  0
  -24.0004  -12.8644   22.4081 C   0  0  0  0  0  0  0  0  0  0  0  0
  -21.5080  -13.2620   22.6383 C   0  0  0  0  0  0  0  0  0  0  0  0
  -22.7561  -14.3749   20.8140 C   0  0  0  0  0  0  0  0  0  0  0  0
  -30.6184  -26.3881   20.9994 C   0  0  1  0  0  0  0  0  0  0  0  0
  -27.4957  -28.4696   20.4080 C   0  0  1  0  0  0  0  0  0  0  0  0
  -23.9241  -13.3875   20.9629 C   0  0  1  0  0  0  0  0  0  0  0  0
  -22.4031  -33.7434   22.9089 C   0  0  0  0  0  0  0  0  0  0  0  0
  -27.4468  -29.8917   24.8052 C   0  0  0  0  0  0  0  0  0  0  0  0
  -25.5561  -31.4107   25.4266 C   0  0  0  0  0  0  0  0  0  0  0  0
  -27.4390  -32.2710   24.0346 C   0  0  0  0  0  0  0  0  0  0  0  0
  -19.8224  -14.0875   17.9959 C   0  0  0  0  0  0  0  0  0  0  0  0
  -22.1520  -31.6736   19.7263 C   0  0  0  0  0  0  0  0  0  0  0  0
  -21.6520  -21.9331   20.8650 C   0  0  0  0  0  0  0  0  0  0  0  0
  -22.6946  -22.8328   20.2203 C   0  0  0  0  0  0  0  0  0  1  0  0
  -21.2977  -20.7482   19.9803 C   0  0  0  0  0  0  0  0  0  0  0  0
  -25.7669  -30.6763   23.0085 C   0  0  1  0  0  0  0  0  0  0  0  0
  -22.9225  -32.8623   21.7835 C   0  0  2  0  0  0  0  0  0  0  0  0
  -26.5475  -31.0390   24.3033 C   0  0  0  0  0  0  0  0  0  0  0  0
  -25.4413  -15.3106   20.6778 N   0  0  0  0  0  0  0  0  0  0  0  0
  -25.2410  -13.9920   20.5129 N   0  0  0  0  0  0  0  0  0  0  0  0
  -26.5127  -28.9851   21.3630 N   0  0  0  0  0  0  0  0  0  0  0  0
  -21.5002  -13.7646   21.2572 N   0  0  0  0  0  0  0  0  0  0  0  0
  -26.2595  -12.0138   19.7003 N   0  0  0  0  0  0  0  0  0  0  0  0
  -29.3932  -15.1799   18.9576 N   0  0  0  0  0  0  0  0  0  0  0  0
  -29.5411  -27.1761   20.4399 N   0  0  0  0  0  0  0  0  0  0  0  0
  -24.9277  -31.7536   22.4951 N   0  0  0  0  0  0  0  0  0  0  0  0
  -20.2843  -14.4891   19.3291 N   0  0  0  0  0  0  0  0  0  0  0  0
  -21.7802  -32.5187   20.8902 N   0  3  0  0  0  0  0  0  0  0  0  0
  -28.9063  -12.9512   18.7244 O   0  0  0  0  0  0  0  0  0  0  0  0
  -28.3441  -27.5370   22.4044 O   0  0  0  0  0  0  0  0  0  0  0  0
  -27.5145  -31.0884   21.4585 O   0  0  0  0  0  0  0  0  0  0  0  0
  -22.9299  -30.5790   22.5731 O   0  0  0  0  0  0  0  0  0  0  0  0
  -19.8245  -12.4568   20.3466 O   0  0  0  0  0  0  0  0  0  0  0  0
  -28.9550  -20.5977   20.1785 O   0  0  0  0  0  0  0  0  0  0  0  0
  -22.9787  -23.9371   21.0784 O   0  0  0  0  0  0  0  0  0  1  0  0
  -20.3192  -19.9421   20.6226 O   0  0  0  0  0  0  0  0  0  0  0  0
  -28.4952  -23.6164   24.7698 F   0  0  0  0  0  0  0  0  0  0  0  0
  -21.1157  -16.4418   17.4995 F   0  0  0  0  0  0  0  0  0  0  0  0
  -26.4721  -21.2840   21.1819 F   0  0  0  0  0  0  0  0  0  0  0  0
  1  2  1  0  0  0  0
  1  5  2  0  0  0  0
  2  6  2  0  0  0  0
  3  9  2  0  0  0  0
  3 18  1  0  0  0  0
  4 10  1  0  0  0  0
  4 18  2  0  0  0  0
  5 20  1  0  0  0  0
  6 22  1  0  0  0  0
  7 11  2  0  0  0  0
  7 21  1  0  0  0  0
  8 12  2  0  0  0  0
  8 24  1  0  0  0  0
  9 25  1  0  0  0  0
 10 25  2  0  0  0  0
 11 26  1  0  0  0  0
 12 27  1  0  0  0  0
 13 14  2  0  0  0  0
 13 28  1  0  0  0  0
 14 29  1  0  0  0  0
 15 23  1  0  0  0  0
 15 26  2  0  0  0  0
 16 27  2  0  0  0  0
 16 30  1  0  0  0  0
 17 29  2  0  0  0  0
 17 31  1  0  0  0  0
 18 32  1  0  0  0  0
 19 32  1  0  0  0  0
 19 33  2  0  0  0  0
 19 34  1  0  0  0  0
 20 22  2  0  0  0  0
 20 39  1  0  0  0  0
 21 23  2  0  0  0  0
 21 40  1  0  0  0  0
 22 48  1  0  0  0  0
 23 41  1  0  0  0  0
 24 30  2  0  0  0  0
 24 71  1  0  0  0  0
 25 78  1  0  0  0  0
 26 79  1  0  0  0  0
 27 80  1  0  0  0  0
 28 31  2  0  0  0  0
 28 78  1  0  0  0  0
 29 81  1  0  0  0  0
 30 82  1  0  0  0  0
 31 83  1  0  0  0  0
 32 63  2  0  0  0  0
 33 64  1  0  0  0  0
 33 67  1  0  0  0  0
 34 68  1  0  0  0  0
 34 73  2  0  0  0  0
 35 49  1  0  0  0  0
 35 69  1  0  0  0  0
 35 74  2  0  0  0  0
 36 60  1  0  0  0  0
 36 65  1  0  0  0  0
 36 75  2  0  0  0  0
 37 61  1  0  0  0  0
 37 70  1  0  0  0  0
 37 76  2  0  0  0  0
 38 66  1  0  0  0  0
 38 71  1  0  0  0  0
 38 77  2  0  0  0  0
 39 42  1  0  0  0  0
 40 49  1  0  0  0  0
 41 65  1  0  0  0  0
 42 44  1  0  0  0  0
 43 45  1  0  0  0  0
 43 46  1  0  0  0  0
 44 48  1  0  0  0  0
 45 50  1  0  0  0  0
 46 66  1  0  0  0  0
 47 50  1  0  0  0  0
 47 66  1  0  0  0  0
 48 69  1  0  0  0  0
 49 65  1  0  0  0  0
 50 64  1  0  0  0  0
 51 61  1  0  0  0  0
 52 62  1  0  0  0  0
 53 62  1  0  0  0  0
 54 62  1  0  0  0  0
 55 71  1  0  0  0  0
 56 72  1  0  0  0  0
 57 58  1  0  0  0  0
 57 59  1  0  0  0  0
 58 79  1  0  0  0  0
 59 80  1  0  0  0  0
 60 62  1  0  0  0  0
 60 70  1  0  0  0  0
 61 72  1  0  0  0  0
 63 64  1  0  0  0  0
M  CHG  1  72   1
M  ISO  4  38 100  58 101  71 100  79 101
M  END
> <Batch ID>
0010

> <Smiles>
CNC(C)C(=O)NC(C(=O)N1Cc2cc([101O:1][101CH2:1]CCOc3ccc([100N:0](C)[100C:0](=O)N4CCCC(n5nc(-c6ccc(Oc7ccc(F)cc7F)cc6)c(C(N)=O)c5N)C4)c(F)c3)ccc2CC1C(=O)NC1CCCc2ccccc21)C(C)(C)C

> <Shape>
0.251

> <Color>
0.064

> <Negative vol penalty>
0.000

$$$$

  -OEChem-04042320403D

 84 92  0     1  0  0  0  0  0999 V2000
  -29.6984  -35.9984   20.5968 C   0  0  0  0  0  0  0  0  0  0  0  0
  -29.7377  -34.6079   20.6128 C   0  0  0  0  0  0  0  0  0  0  0  0
  -26.4313  -12.7574   21.4589 C   0  0  0  0  0  0  0  0  0  0  0  0
  -26.3407  -13.2891   19.1039 C   0  0  0  0  0  0  0  0  0  0  0  0
  -28.7775  -36.6779   21.3931 C   0  0  0  0  0  0  0  0  0  0  0  0
  -28.8567  -33.8960   21.4261 C   0  0  0  0  0  0  0  0  0  0  0  0
  -26.7561  -29.9576   19.0340 C   0  0  0  0  0  0  0  0  0  0  0  0
  -29.0383  -22.4046   15.3454 C   0  0  0  0  0  0  0  0  0  0  0  0
  -25.1605  -12.1879   21.3793 C   0  0  0  0  0  0  0  0  0  0  0  0
  -25.0699  -12.7195   19.0242 C   0  0  0  0  0  0  0  0  0  0  0  0
  -27.5363  -28.8114   18.8881 C   0  0  0  0  0  0  0  0  0  0  0  0
  -23.7947   -9.2831   20.3164 C   0  0  0  0  0  0  0  0  0  0  0  0
  -29.1645  -21.0346   15.1157 C   0  0  0  0  0  0  0  0  0  0  0  0
  -23.5960   -8.0516   20.9403 C   0  0  0  0  0  0  0  0  0  0  0  0
  -26.3987  -27.8058   20.7626 C   0  0  0  0  0  0  0  0  0  0  0  0
  -29.6062  -22.0671   17.6694 C   0  0  0  0  0  0  0  0  0  0  0  0
  -21.8914   -9.0363   22.3410 C   0  0  0  0  0  0  0  0  0  0  0  0
  -27.0214  -13.3080   20.3213 C   0  0  0  0  0  0  0  0  0  0  0  0
  -29.5693  -13.2504   20.2094 C   0  0  0  0  0  0  0  0  0  0  0  0
  -27.8782  -35.9736   22.2093 C   0  0  0  0  0  0  0  0  0  0  0  0
  -25.7973  -30.0409   20.0539 C   0  0  0  0  0  0  0  0  0  0  0  0
  -27.9237  -34.5666   22.2351 C   0  0  0  0  0  0  0  0  0  0  0  0
  -25.6058  -28.9532   20.9177 C   0  0  0  0  0  0  0  0  0  0  0  0
  -29.2593  -22.9209   16.6223 C   0  0  0  0  0  0  0  0  0  0  0  0
  -29.7323  -20.6971   17.4396 C   0  0  0  0  0  0  0  0  0  0  0  0
  -24.4798  -12.1690   20.1619 C   0  0  0  0  0  0  0  0  0  0  0  0
  -27.3596  -27.7364   19.7543 C   0  0  0  0  0  0  0  0  0  0  0  0
  -23.0419  -10.3913   20.7047 C   0  0  0  0  0  0  0  0  0  0  0  0
  -22.6443   -7.9281   21.9526 C   0  0  0  0  0  0  0  0  0  0  0  0
  -29.5114  -20.1808   16.1628 C   0  0  0  0  0  0  0  0  0  0  0  0
  -22.0902  -10.2679   21.7170 C   0  0  0  0  0  0  0  0  0  0  0  0
  -28.3339  -13.8969   20.4031 C   0  0  0  0  0  0  0  0  0  0  0  0
  -30.5062  -14.2374   20.3953 C   0  0  0  0  0  0  0  0  0  0  0  0
  -29.8453  -11.8802   19.8899 C   0  0  0  0  0  0  0  0  0  0  0  0
  -25.3680  -31.9206   22.5810 C   0  0  0  0  0  0  0  0  0  0  0  0
  -22.5760  -30.2884   22.8324 C   0  0  0  0  0  0  0  0  0  0  0  0
  -28.7202  -24.7893   18.1363 C   0  0  0  0  0  0  0  0  0  0  0  0
  -20.8049  -27.4539   22.1429 C   0  0  0  0  0  0  0  0  0  0  0  0
  -30.3388  -20.1836   19.8302 C   0  0  0  0  0  0  0  0  0  0  0  0
  -26.9325  -36.7530   23.0884 C   0  0  0  0  0  0  0  0  0  0  0  0
  -24.9453  -31.2739   20.1812 C   0  0  0  0  0  0  0  0  0  0  0  0
  -24.5759  -28.9846   22.0162 C   0  0  0  0  0  0  0  0  0  0  0  0
  -25.7820  -35.9144   23.6392 C   0  0  0  0  0  0  0  0  0  0  0  0
  -31.1992  -18.3460   22.7560 C   0  0  0  0  0  0  0  0  0  0  0  0
  -26.3022  -34.5899   24.1885 C   0  0  0  0  0  0  0  0  0  0  0  0
  -30.6799  -16.9363   22.4645 C   0  0  0  0  0  0  0  0  0  0  0  0
  -30.2698  -19.4203   22.1940 C   0  0  0  0  0  0  0  0  0  0  0  0
  -29.4264  -17.8675   20.4774 C   0  0  0  0  0  0  0  0  0  0  0  0
  -26.9678  -33.7583   23.0853 C   0  0  1  0  0  0  0  0  0  0  0  0
  -24.3543  -31.4504   21.5765 C   0  0  1  0  0  0  0  0  0  0  0  0
  -30.3626  -16.7509   20.9676 C   0  0  2  0  0  0  0  0  0  0  0  0
  -30.8611  -25.6778   15.7713 C   0  0  0  0  0  0  0  0  0  0  0  0
  -18.5594  -26.3957   22.5109 C   0  0  0  0  0  0  0  0  0  0  0  0
  -23.3466  -29.6624   25.7176 C   0  0  0  0  0  0  0  0  0  0  0  0
  -21.5986  -27.8700   25.7221 C   0  0  0  0  0  0  0  0  0  0  0  0
  -20.9391  -30.2521   25.3853 C   0  0  0  0  0  0  0  0  0  0  0  0
  -20.2633  -27.3182   19.2365 C   0  0  0  0  0  0  0  0  0  0  0  0
  -28.5663  -26.2947   18.2978 C   0  0  0  0  0  0  0  0  0  1  0  0
  -29.4241  -25.2808   15.7658 C   0  0  0  0  0  0  0  0  0  0  0  0
  -22.1363  -29.0230   23.5284 C   0  0  1  0  0  0  0  0  0  0  0  0
  -19.4089  -27.2497   21.5826 C   0  0  2  0  0  0  0  0  0  0  0  0
  -22.0260  -29.2017   25.0689 C   0  0  0  0  0  0  0  0  0  0  0  0
  -28.4703  -15.1942   20.6902 N   0  0  0  0  0  0  0  0  0  0  0  0
  -29.8024  -15.3708   20.6784 N   0  0  0  0  0  0  0  0  0  0  0  0
  -23.7718  -30.2148   22.1040 N   0  0  0  0  0  0  0  0  0  0  0  0
  -30.0175  -19.1825   20.7711 N   0  0  0  0  0  0  0  0  0  0  0  0
  -31.8552  -14.2375   20.3428 N   0  0  0  0  0  0  0  0  0  0  0  0
  -28.7659  -11.0001   19.7335 N   0  0  0  0  0  0  0  0  0  0  0  0
  -30.0852  -19.8319   18.5049 N   0  0  0  0  0  0  0  0  0  0  0  0
  -25.9654  -33.1236   22.2565 N   0  0  0  0  0  0  0  0  0  0  0  0
  -20.8933  -28.6134   22.8838 N   0  0  0  0  0  0  0  0  0  0  0  0
  -29.1281  -24.3440   16.8607 N   0  0  0  0  0  0  0  0  0  0  0  0
  -19.4771  -26.5758   20.2551 N   0  3  0  0  0  0  0  0  0  0  0  0
  -31.0152  -11.4454   19.7635 O   0  0  0  0  0  0  0  0  0  0  0  0
  -25.5906  -31.2428   23.5774 O   0  0  0  0  0  0  0  0  0  0  0  0
  -21.8803  -31.3028   22.9254 O   0  0  0  0  0  0  0  0  0  0  0  0
  -28.4571  -24.0595   19.0955 O   0  0  0  0  0  0  0  0  0  0  0  0
  -21.7240  -26.6620   21.9463 O   0  0  0  0  0  0  0  0  0  0  0  0
  -30.8299  -21.2623   20.1725 O   0  0  0  0  0  0  0  0  0  0  0  0
  -23.2398  -11.6131   20.0837 O   0  0  0  0  0  0  0  0  0  0  0  0
  -28.1202  -26.6167   19.6145 O   0  0  0  0  0  0  0  0  0  1  0  0
  -22.4525   -6.7450   22.5507 F   0  0  0  0  0  0  0  0  0  0  0  0
  -29.6294  -18.8660   15.9301 F   0  0  0  0  0  0  0  0  0  0  0  0
  -21.3631  -11.3287   22.0936 F   0  0  0  0  0  0  0  0  0  0  0  0
  1  2  1  0  0  0  0
  1  5  2  0  0  0  0
  2  6  2  0  0  0  0
  3  9  2  0  0  0  0
  3 18  1  0  0  0  0
  4 10  1  0  0  0  0
  4 18  2  0  0  0  0
  5 20  1  0  0  0  0
  6 22  1  0  0  0  0
  7 11  2  0  0  0  0
  7 21  1  0  0  0  0
  8 13  2  0  0  0  0
  8 24  1  0  0  0  0
  9 26  1  0  0  0  0
 10 26  2  0  0  0  0
 11 27  1  0  0  0  0
 12 14  2  0  0  0  0
 12 28  1  0  0  0  0
 13 30  1  0  0  0  0
 14 29  1  0  0  0  0
 15 23  1  0  0  0  0
 15 27  2  0  0  0  0
 16 24  2  0  0  0  0
 16 25  1  0  0  0  0
 17 29  2  0  0  0  0
 17 31  1  0  0  0  0
 18 32  1  0  0  0  0
 19 32  1  0  0  0  0
 19 33  2  0  0  0  0
 19 34  1  0  0  0  0
 20 22  2  0  0  0  0
 20 40  1  0  0  0  0
 21 23  2  0  0  0  0
 21 41  1  0  0  0  0
 22 49  1  0  0  0  0
 23 42  1  0  0  0  0
 24 72  1  0  0  0  0
 25 30  2  0  0  0  0
 25 69  1  0  0  0  0
 26 80  1  0  0  0  0
 27 81  1  0  0  0  0
 28 31  2  0  0  0  0
 28 80  1  0  0  0  0
 29 82  1  0  0  0  0
 30 83  1  0  0  0  0
 31 84  1  0  0  0  0
 32 63  2  0  0  0  0
 33 64  1  0  0  0  0
 33 67  1  0  0  0  0
 34 68  1  0  0  0  0
 34 74  2  0  0  0  0
 35 50  1  0  0  0  0
 35 70  1  0  0  0  0
 35 75  2  0  0  0  0
 36 60  1  0  0  0  0
 36 65  1  0  0  0  0
 36 76  2  0  0  0  0
 37 58  1  0  0  0  0
 37 72  1  0  0  0  0
 37 77  2  0  0  0  0
 38 61  1  0  0  0  0
 38 71  1  0  0  0  0
 38 78  2  0  0  0  0
 39 66  1  0  0  0  0
 39 69  1  0  0  0  0
 39 79  2  0  0  0  0
 40 43  1  0  0  0  0
 41 50  1  0  0  0  0
 42 65  1  0  0  0  0
 43 45  1  0  0  0  0
 44 46  1  0  0  0  0
 44 47  1  0  0  0  0
 45 49  1  0  0  0  0
 46 51  1  0  0  0  0
 47 66  1  0  0  0  0
 48 51  1  0  0  0  0
 48 66  1  0  0  0  0
 49 70  1  0  0  0  0
 50 65  1  0  0  0  0
 51 64  1  0  0  0  0
 52 59  1  0  0  0  0
 53 61  1  0  0  0  0
 54 62  1  0  0  0  0
 55 62  1  0  0  0  0
 56 62  1  0  0  0  0
 57 73  1  0  0  0  0
 58 81  1  0  0  0  0
 59 72  1  0  0  0  0
 60 62  1  0  0  0  0
 60 71  1  0  0  0  0
 61 73  1  0  0  0  0
 63 64  1  0  0  0  0
M  CHG  1  73   1
M  ISO  4  39 100  58 101  69 100  81 101
M  END
> <Batch ID>
0010

> <Smiles>
CCN(C(=O)[101CH2:1][101O:1]c1ccc2c(c1)CN(C(=O)C(NC(=O)C(C)NC)C(C)(C)C)C(C(=O)NC1CCCc3ccccc31)C2)c1ccc(F)c([100NH:0][100C:0](=O)N2CCCC(n3nc(-c4ccc(Oc5ccc(F)cc5F)cc4)c(C(N)=O)c3N)C2)c1

> <Shape>
0.332

> <Color>
0.104

> <Negative vol penalty>
0.000

$$$$

  -OEChem-04042320403D

 83 91  0     1  0  0  0  0  0999 V2000
  -30.1050  -36.0985   22.1843 C   0  0  0  0  0  0  0  0  0  0  0  0
  -30.0680  -34.9459   21.4061 C   0  0  0  0  0  0  0  0  0  0  0  0
  -23.5521   -9.7224   21.0850 C   0  0  0  0  0  0  0  0  0  0  0  0
  -24.1516  -10.5674   23.2675 C   0  0  0  0  0  0  0  0  0  0  0  0
  -29.5507  -36.0926   23.4636 C   0  0  0  0  0  0  0  0  0  0  0  0
  -29.4776  -33.7863   21.9073 C   0  0  0  0  0  0  0  0  0  0  0  0
  -26.3381  -29.5891   18.7399 C   0  0  0  0  0  0  0  0  0  0  0  0
  -22.9589   -8.6086   21.6791 C   0  0  0  0  0  0  0  0  0  0  0  0
  -23.5583   -9.4536   23.8617 C   0  0  0  0  0  0  0  0  0  0  0  0
  -26.6982  -28.3507   18.2103 C   0  0  0  0  0  0  0  0  0  0  0  0
  -20.0591   -7.8746   23.2557 C   0  0  0  0  0  0  0  0  0  0  0  0
  -18.8057   -7.4807   22.7874 C   0  0  0  0  0  0  0  0  0  0  0  0
  -25.8190  -27.2615   20.1750 C   0  0  0  0  0  0  0  0  0  0  0  0
  -29.8554  -19.6984   18.5893 C   0  0  0  0  0  0  0  0  0  0  0  0
  -29.1646  -20.4104   20.7922 C   0  0  0  0  0  0  0  0  0  0  0  0
  -19.7126   -5.3278   22.1711 C   0  0  0  0  0  0  0  0  0  0  0  0
  -24.1485  -10.7018   21.8792 C   0  0  0  0  0  0  0  0  0  0  0  0
  -24.1474  -13.0812   20.9592 C   0  0  0  0  0  0  0  0  0  0  0  0
  -28.9446  -34.9351   23.9770 C   0  0  0  0  0  0  0  0  0  0  0  0
  -25.7245  -29.6739   19.9980 C   0  0  0  0  0  0  0  0  0  0  0  0
  -28.9158  -33.7645   23.1952 C   0  0  0  0  0  0  0  0  0  0  0  0
  -25.4497  -28.5020   20.7172 C   0  0  0  0  0  0  0  0  0  0  0  0
  -29.5494  -18.0675   20.3453 C   0  0  0  0  0  0  0  0  0  0  0  0
  -22.9619   -8.4742   23.0675 C   0  0  0  0  0  0  0  0  0  0  0  0
  -26.4413  -27.1869   18.9291 C   0  0  0  0  0  0  0  0  0  0  0  0
  -21.1393   -6.9952   23.1816 C   0  0  0  0  0  0  0  0  0  0  0  0
  -29.4968  -20.7167   19.4725 C   0  0  0  0  0  0  0  0  0  0  0  0
  -18.6324   -6.2072   22.2452 C   0  0  0  0  0  0  0  0  0  0  0  0
  -29.8816  -18.3738   19.0257 C   0  0  0  0  0  0  0  0  0  0  0  0
  -29.1908  -19.0858   21.2286 C   0  0  0  0  0  0  0  0  0  0  0  0
  -20.9660   -5.7218   22.6394 C   0  0  0  0  0  0  0  0  0  0  0  0
  -24.7620  -11.8524   21.2660 C   0  0  0  0  0  0  0  0  0  0  0  0
  -25.1478  -13.8338   20.3940 C   0  0  0  0  0  0  0  0  0  0  0  0
  -22.7934  -13.5046   21.1667 C   0  0  0  0  0  0  0  0  0  0  0  0
  -26.4843  -31.0137   22.7785 C   0  0  0  0  0  0  0  0  0  0  0  0
  -23.4945  -30.0673   23.6077 C   0  0  0  0  0  0  0  0  0  0  0  0
  -20.8762  -27.9437   23.0771 C   0  0  0  0  0  0  0  0  0  0  0  0
  -30.3951  -15.6946   20.3224 C   0  0  0  0  0  0  0  0  0  0  0  0
  -28.4008  -34.9632   25.3835 C   0  0  0  0  0  0  0  0  0  0  0  0
  -25.3179  -31.0154   20.5435 C   0  0  0  0  0  0  0  0  0  0  0  0
  -24.7747  -28.5374   22.0631 C   0  0  0  0  0  0  0  0  0  0  0  0
  -27.4609  -33.8018   25.6965 C   0  0  0  0  0  0  0  0  0  0  0  0
  -29.7808  -12.5177   18.8369 C   0  0  0  0  0  0  0  0  0  0  0  0
  -28.0607  -32.4848   25.2143 C   0  0  0  0  0  0  0  0  0  0  0  0
  -28.3698  -12.1625   19.3112 C   0  0  0  0  0  0  0  0  0  0  0  0
  -30.5749  -13.2495   19.9175 C   0  0  0  0  0  0  0  0  0  0  0  0
  -28.4999  -14.0758   20.9572 C   0  0  0  0  0  0  0  0  0  0  0  0
  -28.2622  -32.4941   23.6941 C   0  0  1  0  0  0  0  0  0  0  0  0
  -25.1640  -31.0215   22.0613 C   0  0  1  0  0  0  0  0  0  0  0  0
  -27.6396  -13.3948   19.8803 C   0  0  2  0  0  0  0  0  0  0  0  0
  -18.5849  -27.3882   23.9367 C   0  0  0  0  0  0  0  0  0  0  0  0
  -24.7398  -28.6732   26.0192 C   0  0  0  0  0  0  0  0  0  0  0  0
  -22.6107  -27.3830   26.2850 C   0  0  0  0  0  0  0  0  0  0  0  0
  -22.5957  -29.8684   26.4975 C   0  0  0  0  0  0  0  0  0  0  0  0
  -19.6207  -28.5665   20.4704 C   0  0  0  0  0  0  0  0  0  0  0  0
  -28.1276  -23.9897   18.7149 C   0  0  0  0  0  0  0  0  0  0  0  0
  -27.1301  -24.9490   19.3451 C   0  0  0  0  0  0  0  0  0  1  0  0
  -28.5369  -22.8832   19.6743 C   0  0  0  0  0  0  0  0  0  0  0  0
  -22.8977  -28.8213   24.2162 C   0  0  1  0  0  0  0  0  0  0  0  0
  -19.3869  -28.1980   22.9298 C   0  0  2  0  0  0  0  0  0  0  0  0
  -23.2255  -28.6856   25.7300 C   0  0  0  0  0  0  0  0  0  0  0  0
  -26.0527  -11.8218   20.9238 N   0  0  0  0  0  0  0  0  0  0  0  0
  -26.2574  -13.0407   20.3962 N   0  0  0  0  0  0  0  0  0  0  0  0
  -24.4021  -29.8734   22.5568 N   0  0  0  0  0  0  0  0  0  0  0  0
  -29.8232  -14.4075   20.4062 N   0  0  0  0  0  0  0  0  0  0  0  0
  -25.1776  -15.0899   19.9003 N   0  0  0  0  0  0  0  0  0  0  0  0
  -21.8960  -12.6063   21.7601 N   0  0  0  0  0  0  0  0  0  0  0  0
  -29.5745  -16.7216   20.7877 N   0  0  0  0  0  0  0  0  0  0  0  0
  -27.0030  -32.2722   23.0161 N   0  0  0  0  0  0  0  0  0  0  0  0
  -21.4708  -28.8631   23.9152 N   0  0  0  0  0  0  0  0  0  0  0  0
  -18.9313  -27.8283   21.5598 N   0  3  0  0  0  0  0  0  0  0  0  0
  -22.3871  -14.6398   20.8207 O   0  0  0  0  0  0  0  0  0  0  0  0
  -26.9939  -29.9449   23.0944 O   0  0  0  0  0  0  0  0  0  0  0  0
  -23.1620  -31.1722   24.0439 O   0  0  0  0  0  0  0  0  0  0  0  0
  -21.4536  -27.0195   22.5088 O   0  0  0  0  0  0  0  0  0  0  0  0
  -31.5186  -15.8758   19.8459 O   0  0  0  0  0  0  0  0  0  0  0  0
  -22.3829   -7.3875   23.6476 O   0  0  0  0  0  0  0  0  0  0  0  0
  -26.7924  -25.9769   18.4148 O   0  0  0  0  0  0  0  0  0  1  0  0
  -29.4706  -22.0178   19.0425 O   0  0  0  0  0  0  0  0  0  0  0  0
  -17.4283   -5.8285   21.7970 F   0  0  0  0  0  0  0  0  0  0  0  0
  -30.2261  -17.4029   18.1678 F   0  0  0  0  0  0  0  0  0  0  0  0
  -28.8671  -18.8030   22.4985 F   0  0  0  0  0  0  0  0  0  0  0  0
  -21.9998   -4.8721   22.5666 F   0  0  0  0  0  0  0  0  0  0  0  0
  1  2  1  0  0  0  0
  1  5  2  0  0  0  0
  2  6  2  0  0  0  0
  3  8  2  0  0  0  0
  3 17  1  0  0  0  0
  4  9  1  0  0  0  0
  4 17  2  0  0  0  0
  5 19  1  0  0  0  0
  6 21  1  0  0  0  0
  7 10  2  0  0  0  0
  7 20  1  0  0  0  0
  8 24  1  0  0  0  0
  9 24  2  0  0  0  0
 10 25  1  0  0  0  0
 11 12  2  0  0  0  0
 11 26  1  0  0  0  0
 12 28  1  0  0  0  0
 13 22  1  0  0  0  0
 13 25  2  0  0  0  0
 14 27  1  0  0  0  0
 14 29  2  0  0  0  0
 15 27  2  0  0  0  0
 15 30  1  0  0  0  0
 16 28  2  0  0  0  0
 16 31  1  0  0  0  0
 17 32  1  0  0  0  0
 18 32  1  0  0  0  0
 18 33  2  0  0  0  0
 18 34  1  0  0  0  0
 19 21  2  0  0  0  0
 19 39  1  0  0  0  0
 20 22  2  0  0  0  0
 20 40  1  0  0  0  0
 21 48  1  0  0  0  0
 22 41  1  0  0  0  0
 23 29  1  0  0  0  0
 23 30  2  0  0  0  0
 23 68  1  0  0  0  0
 24 77  1  0  0  0  0
 25 78  1  0  0  0  0
 26 31  2  0  0  0  0
 26 77  1  0  0  0  0
 27 79  1  0  0  0  0
 28 80  1  0  0  0  0
 29 81  1  0  0  0  0
 30 82  1  0  0  0  0
 31 83  1  0  0  0  0
 32 62  2  0  0  0  0
 33 63  1  0  0  0  0
 33 66  1  0  0  0  0
 34 67  1  0  0  0  0
 34 72  2  0  0  0  0
 35 49  1  0  0  0  0
 35 69  1  0  0  0  0
 35 73  2  0  0  0  0
 36 59  1  0  0  0  0
 36 64  1  0  0  0  0
 36 74  2  0  0  0  0
 37 60  1  0  0  0  0
 37 70  1  0  0  0  0
 37 75  2  0  0  0  0
 38 65  1  0  0  0  0
 38 68  1  0  0  0  0
 38 76  2  0  0  0  0
 39 42  1  0  0  0  0
 40 49  1  0  0  0  0
 41 64  1  0  0  0  0
 42 44  1  0  0  0  0
 43 45  1  0  0  0  0
 43 46  1  0  0  0  0
 44 48  1  0  0  0  0
 45 50  1  0  0  0  0
 46 65  1  0  0  0  0
 47 50  1  0  0  0  0
 47 65  1  0  0  0  0
 48 69  1  0  0  0  0
 49 64  1  0  0  0  0
 50 63  1  0  0  0  0
 51 60  1  0  0  0  0
 52 61  1  0  0  0  0
 53 61  1  0  0  0  0
 54 61  1  0  0  0  0
 55 71  1  0  0  0  0
 56 57  1  0  0  0  0
 56 58  1  0  0  0  0
 57 78  1  0  0  0  0
 58 79  1  0  0  0  0
 59 61  1  0  0  0  0
 59 70  1  0  0  0  0
 60 71  1  0  0  0  0
 62 63  1  0  0  0  0
M  CHG  1  71   1
M  ISO  4  38 100  57 101  68 100  78 101
M  END
> <Batch ID>
0010

> <Smiles>
CNC(C)C(=O)NC(C(=O)N1Cc2cc([101O:1][101CH2:1]CCOc3cc(F)c([100NH:0][100C:0](=O)N4CCCC(n5nc(-c6ccc(Oc7ccc(F)cc7F)cc6)c(C(N)=O)c5N)C4)c(F)c3)ccc2CC1C(=O)NC1CCCc2ccccc21)C(C)(C)C

> <Shape>
0.345

> <Color>
0.176

> <Negative vol penalty>
0.000

$$$$

  -OEChem-04042320403D

 82 90  0     1  0  0  0  0  0999 V2000
  -31.6739  -31.7672   16.8399 C   0  0  0  0  0  0  0  0  0  0  0  0
  -31.4202  -30.7000   17.6955 C   0  0  0  0  0  0  0  0  0  0  0  0
  -24.6767   -8.7855   21.2933 C   0  0  0  0  0  0  0  0  0  0  0  0
  -22.8971  -10.1375   20.3755 C   0  0  0  0  0  0  0  0  0  0  0  0
  -30.9529  -32.9530   16.9736 C   0  0  0  0  0  0  0  0  0  0  0  0
  -30.4460  -30.8184   18.6861 C   0  0  0  0  0  0  0  0  0  0  0  0
  -27.4595  -26.7387   18.9712 C   0  0  0  0  0  0  0  0  0  0  0  0
  -23.7715   -7.7492   21.5219 C   0  0  0  0  0  0  0  0  0  0  0  0
  -21.9919   -9.1011   20.6041 C   0  0  0  0  0  0  0  0  0  0  0  0
  -27.9736  -25.6174   19.6209 C   0  0  0  0  0  0  0  0  0  0  0  0
  -21.3995   -6.9719   23.8009 C   0  0  0  0  0  0  0  0  0  0  0  0
  -21.4559   -6.3236   25.0346 C   0  0  0  0  0  0  0  0  0  0  0  0
  -26.7340  -26.2061   21.6049 C   0  0  0  0  0  0  0  0  0  0  0  0
  -21.9156   -4.2327   23.9149 C   0  0  0  0  0  0  0  0  0  0  0  0
  -24.2395   -9.9797   20.7201 C   0  0  0  0  0  0  0  0  0  0  0  0
  -26.3242  -11.0123   19.6735 C   0  0  0  0  0  0  0  0  0  0  0  0
  -29.9626  -33.0826   17.9601 C   0  0  0  0  0  0  0  0  0  0  0  0
  -26.5858  -27.6096   19.6381 C   0  0  0  0  0  0  0  0  0  0  0  0
  -29.7120  -32.0075   18.8340 C   0  0  0  0  0  0  0  0  0  0  0  0
  -26.2082  -27.3364   20.9605 C   0  0  0  0  0  0  0  0  0  0  0  0
  -22.4292   -7.9070   21.1773 C   0  0  0  0  0  0  0  0  0  0  0  0
  -27.6132  -25.3525   20.9389 C   0  0  0  0  0  0  0  0  0  0  0  0
  -21.6011   -6.2506   22.6241 C   0  0  0  0  0  0  0  0  0  0  0  0
  -21.7139   -4.9541   25.0916 C   0  0  0  0  0  0  0  0  0  0  0  0
  -21.8592   -4.8811   22.6811 C   0  0  0  0  0  0  0  0  0  0  0  0
  -25.1740  -11.0508   20.4842 C   0  0  0  0  0  0  0  0  0  0  0  0
  -26.8635  -12.2708   19.7827 C   0  0  0  0  0  0  0  0  0  0  0  0
  -26.8574   -9.9353   18.8915 C   0  0  0  0  0  0  0  0  0  0  0  0
  -25.8375  -21.1186   21.2860 C   0  0  0  0  0  0  0  0  0  0  0  0
  -26.6744  -30.6777   20.4641 C   0  0  0  0  0  0  0  0  0  0  0  0
  -23.6153  -30.1157   21.3853 C   0  0  0  0  0  0  0  0  0  0  0  0
  -21.2583  -27.8584   22.3833 C   0  0  0  0  0  0  0  0  0  0  0  0
  -24.2198  -17.4700   21.2769 C   0  0  0  0  0  0  0  0  0  0  0  0
  -29.2421  -34.4005   18.0966 C   0  0  0  0  0  0  0  0  0  0  0  0
  -26.0190  -28.8002   18.9145 C   0  0  0  0  0  0  0  0  0  0  0  0
  -25.2576  -28.2290   21.7143 C   0  0  0  0  0  0  0  0  0  0  0  0
  -27.9664  -34.3137   18.9305 C   0  0  0  0  0  0  0  0  0  0  0  0
  -26.3272  -15.1561   23.5093 C   0  0  0  0  0  0  0  0  0  0  0  0
  -28.2199  -33.5291   20.2139 C   0  0  0  0  0  0  0  0  0  0  0  0
  -27.0695  -14.5372   22.3286 C   0  0  0  0  0  0  0  0  0  0  0  0
  -22.2438  -19.9534   22.0626 C   0  0  0  0  0  0  0  0  0  0  0  0
  -25.6637  -16.4701   23.1088 C   0  0  0  0  0  0  0  0  0  0  0  0
  -24.7981  -15.0563   21.2449 C   0  0  0  0  0  0  0  0  0  0  0  0
  -21.5618  -21.2531   21.6633 C   0  0  0  0  0  0  0  0  0  0  0  0
  -23.7774  -22.4103   21.5552 C   0  0  0  0  0  0  0  0  0  0  0  0
  -28.6459  -32.0888   19.9050 C   0  0  1  0  0  0  0  0  0  0  0  0
  -24.4904  -21.1192   21.9458 C   0  0  1  0  0  0  0  0  0  0  0  0
  -25.5409  -29.9003   19.8572 C   0  0  1  0  0  0  0  0  0  0  0  0
  -26.1806  -14.4025   21.0730 C   0  0  2  0  0  0  0  0  0  0  0  0
  -23.6800  -19.8813   21.5323 C   0  0  1  0  0  0  0  0  0  0  0  0
  -18.8590  -27.7032   23.1019 C   0  0  0  0  0  0  0  0  0  0  0  0
  -24.3639  -31.2429   24.1201 C   0  0  0  0  0  0  0  0  0  0  0  0
  -22.2797  -30.2054   25.0408 C   0  0  0  0  0  0  0  0  0  0  0  0
  -22.1222  -31.9597   23.2744 C   0  0  0  0  0  0  0  0  0  0  0  0
  -20.5721  -26.0882   20.1130 C   0  0  0  0  0  0  0  0  0  0  0  0
  -28.1945  -21.8562   21.5742 C   0  0  0  0  0  0  0  0  0  0  0  0
  -28.4235  -23.1230   20.7694 C   0  0  0  0  0  0  0  0  0  1  0  0
  -22.9503  -29.6517   22.6587 C   0  0  1  0  0  0  0  0  0  0  0  0
  -19.8272  -27.6300   21.9314 C   0  0  2  0  0  0  0  0  0  0  0  0
  -22.9485  -30.7490   23.7602 C   0  0  0  0  0  0  0  0  0  0  0  0
  -24.9925  -12.2395   21.0656 N   0  0  0  0  0  0  0  0  0  0  0  0
  -26.0359  -12.9596   20.6198 N   0  0  0  0  0  0  0  0  0  0  0  0
  -24.7353  -29.3841   20.9657 N   0  0  0  0  0  0  0  0  0  0  0  0
  -24.8995  -16.3818   21.8580 N   0  0  0  0  0  0  0  0  0  0  0  0
  -27.9602  -12.8442   19.2434 N   0  0  0  0  0  0  0  0  0  0  0  0
  -26.4373   -9.8039   17.5609 N   0  0  0  0  0  0  0  0  0  0  0  0
  -27.4967  -31.2897   19.5374 N   0  0  0  0  0  0  0  0  0  0  0  0
  -26.8311  -21.7451   22.0205 N   0  0  0  0  0  0  0  0  0  0  0  0
  -21.6216  -29.1844   22.2784 N   0  0  0  0  0  0  0  0  0  0  0  0
  -24.3184  -18.6658   21.9836 N   0  0  0  0  0  0  0  0  0  0  0  0
  -22.3955  -22.4042   22.1173 N   0  3  0  0  0  0  0  0  0  0  0  0
  -19.6931  -26.2899   21.2935 N   0  3  0  0  0  0  0  0  0  0  0  0
  -27.6696   -9.1041   19.3639 O   0  0  0  0  0  0  0  0  0  0  0  0
  -25.9730  -20.5881   20.1897 O   0  0  0  0  0  0  0  0  0  0  0  0
  -26.7932  -30.7205   21.6831 O   0  0  0  0  0  0  0  0  0  0  0  0
  -23.1536  -31.0871   20.7812 O   0  0  0  0  0  0  0  0  0  0  0  0
  -21.9805  -26.9518   22.7922 O   0  0  0  0  0  0  0  0  0  0  0  0
  -23.5805  -17.3821   20.2242 O   0  0  0  0  0  0  0  0  0  0  0  0
  -21.5457   -6.8959   21.4001 O   0  0  0  0  0  0  0  0  0  0  0  0
  -28.1140  -24.2591   21.5756 O   0  0  0  0  0  0  0  0  0  1  0  0
  -21.7695   -4.3319   26.2765 F   0  0  0  0  0  0  0  0  0  0  0  0
  -22.0549   -4.1830   21.5541 F   0  0  0  0  0  0  0  0  0  0  0  0
  1  2  1  0  0  0  0
  1  5  2  0  0  0  0
  2  6  2  0  0  0  0
  3  8  2  0  0  0  0
  3 15  1  0  0  0  0
  4  9  1  0  0  0  0
  4 15  2  0  0  0  0
  5 17  1  0  0  0  0
  6 19  1  0  0  0  0
  7 10  2  0  0  0  0
  7 18  1  0  0  0  0
  8 21  1  0  0  0  0
  9 21  2  0  0  0  0
 10 22  1  0  0  0  0
 11 12  2  0  0  0  0
 11 23  1  0  0  0  0
 12 24  1  0  0  0  0
 13 20  1  0  0  0  0
 13 22  2  0  0  0  0
 14 24  2  0  0  0  0
 14 25  1  0  0  0  0
 15 26  1  0  0  0  0
 16 26  1  0  0  0  0
 16 27  2  0  0  0  0
 16 28  1  0  0  0  0
 17 19  2  0  0  0  0
 17 34  1  0  0  0  0
 18 20  2  0  0  0  0
 18 35  1  0  0  0  0
 19 46  1  0  0  0  0
 20 36  1  0  0  0  0
 21 79  1  0  0  0  0
 22 80  1  0  0  0  0
 23 25  2  0  0  0  0
 23 79  1  0  0  0  0
 24 81  1  0  0  0  0
 25 82  1  0  0  0  0
 26 61  2  0  0  0  0
 27 62  1  0  0  0  0
 27 65  1  0  0  0  0
 28 66  1  0  0  0  0
 28 73  2  0  0  0  0
 29 47  1  0  0  0  0
 29 68  1  0  0  0  0
 29 74  2  0  0  0  0
 30 48  1  0  0  0  0
 30 67  1  0  0  0  0
 30 75  2  0  0  0  0
 31 58  1  0  0  0  0
 31 63  1  0  0  0  0
 31 76  2  0  0  0  0
 32 59  1  0  0  0  0
 32 69  1  0  0  0  0
 32 77  2  0  0  0  0
 33 64  1  0  0  0  0
 33 70  1  0  0  0  0
 33 78  2  0  0  0  0
 34 37  1  0  0  0  0
 35 48  1  0  0  0  0
 36 63  1  0  0  0  0
 37 39  1  0  0  0  0
 38 40  1  0  0  0  0
 38 42  1  0  0  0  0
 39 46  1  0  0  0  0
 40 49  1  0  0  0  0
 41 44  1  0  0  0  0
 41 50  1  0  0  0  0
 42 64  1  0  0  0  0
 43 49  1  0  0  0  0
 43 64  1  0  0  0  0
 44 71  1  0  0  0  0
 45 47  1  0  0  0  0
 45 71  1  0  0  0  0
 46 67  1  0  0  0  0
 47 50  1  0  0  0  0
 48 63  1  0  0  0  0
 49 62  1  0  0  0  0
 50 70  1  0  0  0  0
 51 59  1  0  0  0  0
 52 60  1  0  0  0  0
 53 60  1  0  0  0  0
 54 60  1  0  0  0  0
 55 72  1  0  0  0  0
 56 57  1  0  0  0  0
 56 68  1  0  0  0  0
 57 80  1  0  0  0  0
 58 60  1  0  0  0  0
 58 69  1  0  0  0  0
 59 72  1  0  0  0  0
 61 62  1  0  0  0  0
M  CHG  2  71   1  72   1
M  ISO  4  33 100  57 101  70 100  80 101
M  END
> <Batch ID>
0010

> <Smiles>
CNC(C)C(=O)NC(C(=O)N1Cc2cc([101O:1][101CH2:1]CNC(=O)C3CNCCC3[100NH:0][100C:0](=O)N3CCCC(n4nc(-c5ccc(Oc6ccc(F)cc6F)cc5)c(C(N)=O)c4N)C3)ccc2CC1C(=O)NC1CCCc2ccccc21)C(C)(C)C

> <Shape>
0.253

> <Color>
0.094

> <Negative vol penalty>
0.000

$$$$

  -OEChem-04042320403D

 82 90  0     1  0  0  0  0  0999 V2000
  -17.9092  -31.7599   19.6568 C   0  0  0  0  0  0  0  0  0  0  0  0
  -19.2415  -31.6350   19.2763 C   0  0  0  0  0  0  0  0  0  0  0  0
  -24.9946  -13.8077   19.5613 C   0  0  0  0  0  0  0  0  0  0  0  0
  -25.9411  -12.8487   21.5667 C   0  0  0  0  0  0  0  0  0  0  0  0
  -17.5428  -31.5537   20.9861 C   0  0  0  0  0  0  0  0  0  0  0  0
  -20.2084  -31.3049   20.2252 C   0  0  0  0  0  0  0  0  0  0  0  0
  -25.2050  -27.8736   19.3498 C   0  0  0  0  0  0  0  0  0  0  0  0
  -30.7510  -24.8036   17.9445 C   0  0  0  0  0  0  0  0  0  0  0  0
  -24.5682  -12.5425   19.1575 C   0  0  0  0  0  0  0  0  0  0  0  0
  -25.5147  -11.5835   21.1629 C   0  0  0  0  0  0  0  0  0  0  0  0
  -26.5392  -28.2025   19.1141 C   0  0  0  0  0  0  0  0  0  0  0  0
  -30.7649  -23.4147   18.0727 C   0  0  0  0  0  0  0  0  0  0  0  0
  -22.6336   -9.8172   21.1411 C   0  0  0  0  0  0  0  0  0  0  0  0
  -22.0191   -9.0068   22.0956 C   0  0  0  0  0  0  0  0  0  0  0  0
  -27.0081  -27.9614   21.4681 C   0  0  0  0  0  0  0  0  0  0  0  0
  -31.0782  -25.0270   20.3278 C   0  0  0  0  0  0  0  0  0  0  0  0
  -23.7429   -7.3415   21.7916 C   0  0  0  0  0  0  0  0  0  0  0  0
  -25.6811  -13.9608   20.7659 C   0  0  0  0  0  0  0  0  0  0  0  0
  -25.4089  -16.1962   21.9644 C   0  0  0  0  0  0  0  0  0  0  0  0
  -18.5043  -31.2114   21.9500 C   0  0  0  0  0  0  0  0  0  0  0  0
  -24.7592  -27.5964   20.6501 C   0  0  0  0  0  0  0  0  0  0  0  0
  -19.8548  -31.0952   21.5689 C   0  0  0  0  0  0  0  0  0  0  0  0
  -25.6683  -27.6268   21.7172 C   0  0  0  0  0  0  0  0  0  0  0  0
  -30.9077  -25.6097   19.0720 C   0  0  0  0  0  0  0  0  0  0  0  0
  -24.8282  -11.4304   19.9583 C   0  0  0  0  0  0  0  0  0  0  0  0
  -27.4404  -28.2492   20.1738 C   0  0  0  0  0  0  0  0  0  0  0  0
  -23.8027   -9.3897   20.5116 C   0  0  0  0  0  0  0  0  0  0  0  0
  -30.9354  -22.8319   19.3285 C   0  0  0  0  0  0  0  0  0  0  0  0
  -22.5737   -7.7690   22.4209 C   0  0  0  0  0  0  0  0  0  0  0  0
  -31.0920  -23.6381   20.4561 C   0  0  0  0  0  0  0  0  0  0  0  0
  -24.3574   -8.1518   20.8369 C   0  0  0  0  0  0  0  0  0  0  0  0
  -26.1223  -15.2674   21.1833 C   0  0  0  0  0  0  0  0  0  0  0  0
  -26.2564  -17.2709   22.0793 C   0  0  0  0  0  0  0  0  0  0  0  0
  -24.0974  -16.0964   22.5351 C   0  0  0  0  0  0  0  0  0  0  0  0
  -22.6417  -28.9102   22.6233 C   0  0  0  0  0  0  0  0  0  0  0  0
  -23.3441  -26.3349   24.4663 C   0  0  0  0  0  0  0  0  0  0  0  0
  -25.5690  -23.8816   25.2896 C   0  0  0  0  0  0  0  0  0  0  0  0
  -29.6922  -20.8725   19.6800 C   0  0  0  0  0  0  0  0  0  0  0  0
  -18.0675  -31.0446   23.3838 C   0  0  0  0  0  0  0  0  0  0  0  0
  -23.3226  -27.2172   20.8838 C   0  0  0  0  0  0  0  0  0  0  0  0
  -25.2444  -27.3176   23.1290 C   0  0  0  0  0  0  0  0  0  0  0  0
  -19.0974  -30.3303   24.2552 C   0  0  0  0  0  0  0  0  0  0  0  0
  -31.1418  -17.7679   20.9025 C   0  0  0  0  0  0  0  0  0  0  0  0
  -20.4890  -30.9093   24.0203 C   0  0  0  0  0  0  0  0  0  0  0  0
  -29.8976  -16.9047   21.1101 C   0  0  0  0  0  0  0  0  0  0  0  0
  -30.9857  -18.6993   19.7038 C   0  0  0  0  0  0  0  0  0  0  0  0
  -28.5201  -18.7041   19.9802 C   0  0  0  0  0  0  0  0  0  0  0  0
  -20.9291  -30.7142   22.5643 C   0  0  1  0  0  0  0  0  0  0  0  0
  -22.8676  -27.4560   22.3202 C   0  0  1  0  0  0  0  0  0  0  0  0
  -28.6313  -17.7745   21.2000 C   0  0  1  0  0  0  0  0  0  0  0  0
  -25.8785  -21.9491   26.8602 C   0  0  0  0  0  0  0  0  0  0  0  0
  -23.9388  -28.2810   26.7398 C   0  0  0  0  0  0  0  0  0  0  0  0
  -25.1238  -26.4227   27.9275 C   0  0  0  0  0  0  0  0  0  0  0  0
  -22.6882  -26.2267   27.4254 C   0  0  0  0  0  0  0  0  0  0  0  0
  -30.7154  -27.6183   17.6267 C   0  0  0  0  0  0  0  0  0  0  0  0
  -25.7688  -21.9490   23.0571 C   0  0  0  0  0  0  0  0  0  0  0  0
  -31.0400  -27.8683   20.0926 C   0  0  0  0  0  0  0  0  0  0  0  0
  -29.7147  -28.0021   20.8237 C   0  0  0  0  0  0  0  0  0  1  0  0
  -24.3617  -26.0343   25.5401 C   0  0  1  0  0  0  0  0  0  0  0  0
  -25.3928  -22.3868   25.4872 C   0  0  2  0  0  0  0  0  0  0  0  0
  -24.0360  -26.7489   26.8820 C   0  0  0  0  0  0  0  0  0  0  0  0
  -27.3300  -15.7131   20.8270 N   0  0  0  0  0  0  0  0  0  0  0  0
  -27.3819  -16.9338   21.3867 N   0  0  0  0  0  0  0  0  0  0  0  0
  -23.8279  -26.9583   23.3074 N   0  0  0  0  0  0  0  0  0  0  0  0
  -29.7485  -19.4802   19.8012 N   0  0  0  0  0  0  0  0  0  0  0  0
  -26.1412  -18.4620   22.7042 N   0  0  0  0  0  0  0  0  0  0  0  0
  -23.3626  -14.9226   22.3197 N   0  0  0  0  0  0  0  0  0  0  0  0
  -21.3617  -29.3506   22.3456 N   0  0  0  0  0  0  0  0  0  0  0  0
  -24.4330  -24.5805   25.6394 N   0  0  0  0  0  0  0  0  0  0  0  0
  -30.8940  -27.0049   18.9431 N   0  0  3  0  0  0  0  0  0  0  0  0
  -26.1600  -21.6338   24.4551 N   0  3  0  0  0  0  0  0  0  0  0  0
  -23.5857  -17.0274   23.2022 O   0  0  0  0  0  0  0  0  0  0  0  0
  -23.5603  -29.5826   23.0770 O   0  0  0  0  0  0  0  0  0  0  0  0
  -22.1646  -26.0215   24.6461 O   0  0  0  0  0  0  0  0  0  0  0  0
  -26.6115  -24.3797   24.8706 O   0  0  0  0  0  0  0  0  0  0  0  0
  -28.6570  -21.5330   19.7609 O   0  0  0  0  0  0  0  0  0  0  0  0
  -24.4121  -10.1957   19.5647 O   0  0  0  0  0  0  0  0  0  0  0  0
  -30.9500  -21.4392   19.4554 O   0  0  0  0  0  0  0  0  0  0  0  0
  -28.7431  -28.5706   19.9467 O   0  0  0  0  0  0  0  0  0  1  0  0
  -21.9844   -6.9916   23.3388 F   0  0  0  0  0  0  0  0  0  0  0  0
  -31.2571  -23.0840   21.6651 F   0  0  0  0  0  0  0  0  0  0  0  0
  -25.4810   -7.7363   20.2365 F   0  0  0  0  0  0  0  0  0  0  0  0
  1  2  1  0  0  0  0
  1  5  2  0  0  0  0
  2  6  2  0  0  0  0
  3  9  2  0  0  0  0
  3 18  1  0  0  0  0
  4 10  1  0  0  0  0
  4 18  2  0  0  0  0
  5 20  1  0  0  0  0
  6 22  1  0  0  0  0
  7 11  2  0  0  0  0
  7 21  1  0  0  0  0
  8 12  2  0  0  0  0
  8 24  1  0  0  0  0
  9 25  1  0  0  0  0
 10 25  2  0  0  0  0
 11 26  1  0  0  0  0
 12 28  1  0  0  0  0
 13 14  2  0  0  0  0
 13 27  1  0  0  0  0
 14 29  1  0  0  0  0
 15 23  1  0  0  0  0
 15 26  2  0  0  0  0
 16 24  2  0  0  0  0
 16 30  1  0  0  0  0
 17 29  2  0  0  0  0
 17 31  1  0  0  0  0
 18 32  1  0  0  0  0
 19 32  1  0  0  0  0
 19 33  2  0  0  0  0
 19 34  1  0  0  0  0
 20 22  2  0  0  0  0
 20 39  1  0  0  0  0
 21 23  2  0  0  0  0
 21 40  1  0  0  0  0
 22 48  1  0  0  0  0
 23 41  1  0  0  0  0
 24 70  1  0  0  0  0
 25 77  1  0  0  0  0
 26 79  1  0  0  0  0
 27 31  2  0  0  0  0
 27 77  1  0  0  0  0
 28 30  2  0  0  0  0
 28 78  1  0  0  0  0
 29 80  1  0  0  0  0
 30 81  1  0  0  0  0
 31 82  1  0  0  0  0
 32 62  2  0  0  0  0
 33 63  1  0  0  0  0
 33 66  1  0  0  0  0
 34 67  1  0  0  0  0
 34 72  2  0  0  0  0
 35 49  1  0  0  0  0
 35 68  1  0  0  0  0
 35 73  2  0  0  0  0
 36 59  1  0  0  0  0
 36 64  1  0  0  0  0
 36 74  2  0  0  0  0
 37 60  1  0  0  0  0
 37 69  1  0  0  0  0
 37 75  2  0  0  0  0
 38 65  1  0  0  0  0
 38 76  2  0  0  0  0
 38 78  1  0  0  0  0
 39 42  1  0  0  0  0
 40 49  1  0  0  0  0
 41 64  1  0  0  0  0
 42 44  1  0  0  0  0
 43 45  1  0  0  0  0
 43 46  1  0  0  0  0
 44 48  1  0  0  0  0
 45 50  1  0  0  0  0
 46 65  1  0  0  0  0
 47 50  1  0  0  0  0
 47 65  1  0  0  0  0
 48 68  1  0  0  0  0
 49 64  1  0  0  0  0
 50 63  1  0  0  0  0
 51 60  1  0  0  0  0
 52 61  1  0  0  0  0
 53 61  1  0  0  0  0
 54 61  1  0  0  0  0
 55 70  1  0  0  0  0
 56 71  1  0  0  0  0
 57 58  1  0  0  0  0
 57 70  1  0  0  0  0
 58 79  1  0  0  0  0
 59 61  1  0  0  0  0
 59 69  1  0  0  0  0
 60 71  1  0  0  0  0
 62 63  1  0  0  0  0
M  CHG  1  71   1
M  ISO  4  38 100  58 101  78 100  79 101
M  END
> <Batch ID>
0010

> <Smiles>
CNC(C)C(=O)NC(C(=O)N1Cc2cc([101O:1][101CH2:1]CN(C)c3ccc([100O:0][100C:0](=O)N4CCCC(n5nc(-c6ccc(Oc7ccc(F)cc7F)cc6)c(C(N)=O)c5N)C4)c(F)c3)ccc2CC1C(=O)NC1CCCc2ccccc21)C(C)(C)C

> <Shape>
0.232

> <Color>
0.085

> <Negative vol penalty>
0.000

$$$$

  -OEChem-04042320403D

 86 95  0     1  0  0  0  0  0999 V2000
  -25.1174  -30.1873   23.0919 C   0  0  0  0  0  0  0  0  0  0  0  0
  -24.3271  -29.0475   23.2010 C   0  0  0  0  0  0  0  0  0  0  0  0
  -28.9339  -12.8403   20.8585 C   0  0  0  0  0  0  0  0  0  0  0  0
  -28.2608  -11.6788   18.8498 C   0  0  0  0  0  0  0  0  0  0  0  0
  -25.9240  -30.3701   21.9694 C   0  0  0  0  0  0  0  0  0  0  0  0
  -24.3421  -28.0904   22.1870 C   0  0  0  0  0  0  0  0  0  0  0  0
  -23.7909  -22.0261   22.8402 C   0  0  0  0  0  0  0  0  0  0  0  0
  -30.2728  -12.6856   20.4993 C   0  0  0  0  0  0  0  0  0  0  0  0
  -29.5997  -11.5241   18.4905 C   0  0  0  0  0  0  0  0  0  0  0  0
  -22.7066  -21.1618   22.6953 C   0  0  0  0  0  0  0  0  0  0  0  0
  -32.0423  -13.4123   17.1162 C   0  0  0  0  0  0  0  0  0  0  0  0
  -32.3920  -13.6815   15.7931 C   0  0  0  0  0  0  0  0  0  0  0  0
  -18.0643  -15.5444   18.7677 C   0  0  0  0  0  0  0  0  0  0  0  0
  -23.4062  -20.6723   20.4391 C   0  0  0  0  0  0  0  0  0  0  0  0
  -18.1749  -15.1213   21.1392 C   0  0  0  0  0  0  0  0  0  0  0  0
  -33.1779  -11.4111   15.5388 C   0  0  0  0  0  0  0  0  0  0  0  0
  -27.9279  -12.3369   20.0337 C   0  0  0  0  0  0  0  0  0  0  0  0
  -25.8536  -13.7047   20.6116 C   0  0  0  0  0  0  0  0  0  0  0  0
  -25.9562  -29.4101   20.9457 C   0  0  0  0  0  0  0  0  0  0  0  0
  -24.6863  -22.2287   21.7803 C   0  0  0  0  0  0  0  0  0  0  0  0
  -25.1489  -28.2612   21.0491 C   0  0  0  0  0  0  0  0  0  0  0  0
  -18.1774  -14.1710   18.4992 C   0  0  0  0  0  0  0  0  0  0  0  0
  -24.5025  -21.5377   20.5741 C   0  0  0  0  0  0  0  0  0  0  0  0
  -18.2774  -13.2626   19.5707 C   0  0  0  0  0  0  0  0  0  0  0  0
  -18.0675  -16.0163   20.0796 C   0  0  0  0  0  0  0  0  0  0  0  0
  -30.6057  -12.0275   19.3153 C   0  0  0  0  0  0  0  0  0  0  0  0
  -22.5124  -20.4870   21.4936 C   0  0  0  0  0  0  0  0  0  0  0  0
  -32.2605  -12.1425   17.6508 C   0  0  0  0  0  0  0  0  0  0  0  0
  -32.9598  -12.6809   15.0043 C   0  0  0  0  0  0  0  0  0  0  0  0
  -18.2790  -13.7538   20.8874 C   0  0  0  0  0  0  0  0  0  0  0  0
  -32.8282  -11.1419   16.8621 C   0  0  0  0  0  0  0  0  0  0  0  0
  -26.5446  -12.4958   20.4045 C   0  0  0  0  0  0  0  0  0  0  0  0
  -24.5779  -13.3185   20.9431 C   0  0  0  0  0  0  0  0  0  0  0  0
  -26.3228  -15.0559   20.5131 C   0  0  0  0  0  0  0  0  0  0  0  0
  -25.5597  -24.7336   20.0292 C   0  0  0  0  0  0  0  0  0  0  0  0
  -27.7119  -22.6366   18.8075 C   0  0  0  0  0  0  0  0  0  0  0  0
  -28.5669  -19.3902   18.1935 C   0  0  0  0  0  0  0  0  0  0  0  0
  -20.0922  -10.1063   20.1027 C   0  0  0  0  0  0  0  0  0  0  0  0
  -26.8080  -29.6742   19.7294 C   0  0  0  0  0  0  0  0  0  0  0  0
  -25.8661  -23.1439   21.9617 C   0  0  0  0  0  0  0  0  0  0  0  0
  -18.1171  -13.7060   17.0653 C   0  0  0  0  0  0  0  0  0  0  0  0
  -25.4467  -21.7048   19.4126 C   0  0  0  0  0  0  0  0  0  0  0  0
  -27.0503  -28.4331   18.8743 C   0  0  0  0  0  0  0  0  0  0  0  0
  -18.5779  -12.2639   16.8687 C   0  0  0  0  0  0  0  0  0  0  0  0
  -22.7139   -8.7610   22.1011 C   0  0  0  0  0  0  0  0  0  0  0  0
  -25.7455  -27.6749   18.6521 C   0  0  0  0  0  0  0  0  0  0  0  0
  -17.9647  -11.3594   17.9317 C   0  0  0  0  0  0  0  0  0  0  0  0
  -23.8883   -9.7085   21.8500 C   0  0  0  0  0  0  0  0  0  0  0  0
  -21.8761   -8.5543   20.8411 C   0  0  0  0  0  0  0  0  0  0  0  0
  -22.5756  -10.7436   19.9515 C   0  0  0  0  0  0  0  0  0  0  0  0
  -25.1567  -27.1885   19.9818 C   0  0  1  0  0  0  0  0  0  0  0  0
  -18.4209  -11.7734   19.3368 C   0  0  1  0  0  0  0  0  0  0  0  0
  -26.4240  -23.6684   20.6422 C   0  0  1  0  0  0  0  0  0  0  0  0
  -23.4174  -11.0271   21.2075 C   0  0  2  0  0  0  0  0  0  0  0  0
  -30.3681  -17.9919   17.1459 C   0  0  0  0  0  0  0  0  0  0  0  0
  -26.6680  -23.3723   16.0364 C   0  0  0  0  0  0  0  0  0  0  0  0
  -27.7881  -21.3181   15.1455 C   0  0  0  0  0  0  0  0  0  0  0  0
  -29.1527  -23.1294   16.1846 C   0  0  0  0  0  0  0  0  0  0  0  0
  -29.1626  -18.0315   20.7544 C   0  0  0  0  0  0  0  0  0  0  0  0
  -17.9478  -17.4879   20.3486 C   0  0  0  0  0  0  0  0  0  0  0  0
  -19.0539  -19.5083   21.3147 C   0  0  0  0  0  0  0  0  0  0  0  0
  -20.2770  -19.9441   22.0970 C   0  0  0  0  0  0  0  0  0  1  0  0
  -27.7176  -21.6586   17.6575 C   0  0  1  0  0  0  0  0  0  0  0  0
  -29.8572  -18.6264   18.4301 C   0  0  2  0  0  0  0  0  0  0  0  0
  -27.8125  -22.3677   16.2770 C   0  0  0  0  0  0  0  0  0  0  0  0
  -25.7720  -11.4221   20.5891 N   0  0  0  0  0  0  0  0  0  0  0  0
  -24.5823  -11.9549   20.9158 N   0  0  0  0  0  0  0  0  0  0  0  0
  -26.5816  -22.6154   19.6369 N   0  0  0  0  0  0  0  0  0  0  0  0
  -21.4602   -9.8430   20.2824 N   0  0  0  0  0  0  0  0  0  0  0  0
  -23.4640  -14.0157   21.2524 N   0  0  0  0  0  0  0  0  0  0  0  0
  -26.2251  -15.7087   19.2767 N   0  0  0  0  0  0  0  0  0  0  0  0
  -25.8634  -26.0149   20.4482 N   0  0  0  0  0  0  0  0  0  0  0  0
  -28.8035  -20.7215   17.9238 N   0  0  0  0  0  0  0  0  0  0  0  0
  -19.7841  -11.3537   19.5737 N   0  0  0  0  0  0  0  0  0  0  0  0
  -29.6434  -17.5468   19.4350 N   0  3  0  0  0  0  0  0  0  0  0  0
  -19.1151  -18.0427   21.0858 N   0  3  0  0  0  0  0  0  0  0  0  0
  -26.8293  -15.6608   21.4883 O   0  0  0  0  0  0  0  0  0  0  0  0
  -24.6831  -24.4168   19.2337 O   0  0  0  0  0  0  0  0  0  0  0  0
  -28.6780  -23.3865   18.9684 O   0  0  0  0  0  0  0  0  0  0  0  0
  -27.4599  -18.8582   18.2394 O   0  0  0  0  0  0  0  0  0  0  0  0
  -19.2104   -9.2923   20.3973 O   0  0  0  0  0  0  0  0  0  0  0  0
  -31.9121  -11.8766   18.9644 O   0  0  0  0  0  0  0  0  0  0  0  0
  -21.4545  -19.6433   21.3492 O   0  0  0  0  0  0  0  0  0  1  0  0
  -33.2941  -12.9391   13.7332 F   0  0  0  0  0  0  0  0  0  0  0  0
  -18.3641  -12.9162   21.9300 F   0  0  0  0  0  0  0  0  0  0  0  0
  -33.0391   -9.9198   17.3697 F   0  0  0  0  0  0  0  0  0  0  0  0
  1  2  1  0  0  0  0
  1  5  2  0  0  0  0
  2  6  2  0  0  0  0
  3  8  2  0  0  0  0
  3 17  1  0  0  0  0
  4  9  1  0  0  0  0
  4 17  2  0  0  0  0
  5 19  1  0  0  0  0
  6 21  1  0  0  0  0
  7 10  2  0  0  0  0
  7 20  1  0  0  0  0
  8 26  1  0  0  0  0
  9 26  2  0  0  0  0
 10 27  1  0  0  0  0
 11 12  2  0  0  0  0
 11 28  1  0  0  0  0
 12 29  1  0  0  0  0
 13 22  1  0  0  0  0
 13 25  2  0  0  0  0
 14 23  1  0  0  0  0
 14 27  2  0  0  0  0
 15 25  1  0  0  0  0
 15 30  2  0  0  0  0
 16 29  2  0  0  0  0
 16 31  1  0  0  0  0
 17 32  1  0  0  0  0
 18 32  1  0  0  0  0
 18 33  2  0  0  0  0
 18 34  1  0  0  0  0
 19 21  2  0  0  0  0
 19 39  1  0  0  0  0
 20 23  2  0  0  0  0
 20 40  1  0  0  0  0
 21 51  1  0  0  0  0
 22 24  2  0  0  0  0
 22 41  1  0  0  0  0
 23 42  1  0  0  0  0
 24 30  1  0  0  0  0
 24 52  1  0  0  0  0
 25 60  1  0  0  0  0
 26 82  1  0  0  0  0
 27 83  1  0  0  0  0
 28 31  2  0  0  0  0
 28 82  1  0  0  0  0
 29 84  1  0  0  0  0
 30 85  1  0  0  0  0
 31 86  1  0  0  0  0
 32 66  2  0  0  0  0
 33 67  1  0  0  0  0
 33 70  1  0  0  0  0
 34 71  1  0  0  0  0
 34 77  2  0  0  0  0
 35 53  1  0  0  0  0
 35 72  1  0  0  0  0
 35 78  2  0  0  0  0
 36 63  1  0  0  0  0
 36 68  1  0  0  0  0
 36 79  2  0  0  0  0
 37 64  1  0  0  0  0
 37 73  1  0  0  0  0
 37 80  2  0  0  0  0
 38 69  1  0  0  0  0
 38 74  1  0  0  0  0
 38 81  2  0  0  0  0
 39 43  1  0  0  0  0
 40 53  1  0  0  0  0
 41 44  1  0  0  0  0
 42 68  1  0  0  0  0
 43 46  1  0  0  0  0
 44 47  1  0  0  0  0
 45 48  1  0  0  0  0
 45 49  1  0  0  0  0
 46 51  1  0  0  0  0
 47 52  1  0  0  0  0
 48 54  1  0  0  0  0
 49 69  1  0  0  0  0
 50 54  1  0  0  0  0
 50 69  1  0  0  0  0
 51 72  1  0  0  0  0
 52 74  1  0  0  0  0
 53 68  1  0  0  0  0
 54 67  1  0  0  0  0
 55 64  1  0  0  0  0
 56 65  1  0  0  0  0
 57 65  1  0  0  0  0
 58 65  1  0  0  0  0
 59 75  1  0  0  0  0
 60 76  1  0  0  0  0
 61 62  1  0  0  0  0
 61 76  1  0  0  0  0
 62 83  1  0  0  0  0
 63 65  1  0  0  0  0
 63 73  1  0  0  0  0
 64 75  1  0  0  0  0
 66 67  1  0  0  0  0
M  CHG  2  75   1  76   1
M  ISO  4  38 100  62 101  74 100  83 101
M  END
> <Batch ID>
0010

> <Smiles>
CNC(C)C(=O)NC(C(=O)N1Cc2cc([101O:1][101CH2:1]CNCc3cc(F)c4c(c3)CCCC4[100NH:0][100C:0](=O)N3CCCC(n4nc(-c5ccc(Oc6ccc(F)cc6F)cc5)c(C(N)=O)c4N)C3)ccc2CC1C(=O)NC1CCCc2ccccc21)C(C)(C)C

> <Shape>
0.194

> <Color>
0.101

> <Negative vol penalty>
0.000

$$$$

  -OEChem-04042320403D

 82 90  0     1  0  0  0  0  0999 V2000
  -18.0948  -27.7092   23.0812 C   0  0  0  0  0  0  0  0  0  0  0  0
  -18.8435  -26.6925   22.4972 C   0  0  0  0  0  0  0  0  0  0  0  0
  -24.4244  -14.4901   23.2835 C   0  0  0  0  0  0  0  0  0  0  0  0
  -23.3799  -15.3080   21.2644 C   0  0  0  0  0  0  0  0  0  0  0  0
  -18.6015  -29.0073   23.1286 C   0  0  0  0  0  0  0  0  0  0  0  0
  -20.0989  -26.9734   21.9592 C   0  0  0  0  0  0  0  0  0  0  0  0
  -23.5801  -23.5290   23.2483 C   0  0  0  0  0  0  0  0  0  0  0  0
  -23.8285  -15.5212   24.0095 C   0  0  0  0  0  0  0  0  0  0  0  0
  -22.7840  -16.3392   21.9904 C   0  0  0  0  0  0  0  0  0  0  0  0
  -23.5634  -22.3177   22.5581 C   0  0  0  0  0  0  0  0  0  0  0  0
  -20.6981  -18.9753   23.3756 C   0  0  0  0  0  0  0  0  0  0  0  0
  -26.6251  -20.2194   21.5887 C   0  0  0  0  0  0  0  0  0  0  0  0
  -19.3505  -19.2434   23.1359 C   0  0  0  0  0  0  0  0  0  0  0  0
  -27.8501  -19.6049   21.3290 C   0  0  0  0  0  0  0  0  0  0  0  0
  -25.3784  -23.0908   21.1697 C   0  0  0  0  0  0  0  0  0  0  0  0
  -25.9254  -19.7842   19.3176 C   0  0  0  0  0  0  0  0  0  0  0  0
  -18.7828  -16.9942   23.8109 C   0  0  0  0  0  0  0  0  0  0  0  0
  -24.2002  -14.3835   21.9109 C   0  0  0  0  0  0  0  0  0  0  0  0
  -24.2884  -12.0371   20.9137 C   0  0  0  0  0  0  0  0  0  0  0  0
  -19.8678  -29.3024   22.5996 C   0  0  0  0  0  0  0  0  0  0  0  0
  -24.4903  -24.5361   22.8966 C   0  0  0  0  0  0  0  0  0  0  0  0
  -20.6224  -28.2769   21.9984 C   0  0  0  0  0  0  0  0  0  0  0  0
  -25.4063  -24.3129   21.8587 C   0  0  0  0  0  0  0  0  0  0  0  0
  -23.0083  -16.4458   23.3630 C   0  0  0  0  0  0  0  0  0  0  0  0
  -24.4607  -22.0996   21.5168 C   0  0  0  0  0  0  0  0  0  0  0  0
  -25.6628  -20.3091   20.5830 C   0  0  0  0  0  0  0  0  0  1  0  0
  -21.0881  -17.7165   23.8329 C   0  0  0  0  0  0  0  0  0  0  0  0
  -18.3928  -18.2529   23.3536 C   0  0  0  0  0  0  0  0  0  0  0  0
  -27.1503  -19.1697   19.0579 C   0  0  0  0  0  0  0  0  0  0  0  0
  -20.1305  -16.7260   24.0506 C   0  0  0  0  0  0  0  0  0  0  0  0
  -28.1127  -19.0800   20.0636 C   0  0  0  0  0  0  0  0  0  0  0  0
  -24.8159  -13.3188   21.1603 C   0  0  0  0  0  0  0  0  0  0  0  0
  -25.2502  -11.4090   20.1607 C   0  0  0  0  0  0  0  0  0  0  0  0
  -23.0406  -11.4654   21.3281 C   0  0  0  0  0  0  0  0  0  0  0  0
  -24.2333  -27.5146   21.8166 C   0  0  0  0  0  0  0  0  0  0  0  0
  -27.4519  -27.5243   22.2203 C   0  0  0  0  0  0  0  0  0  0  0  0
  -30.3498  -25.7352   22.4391 C   0  0  0  0  0  0  0  0  0  0  0  0
  -28.8273  -15.6864   19.1637 C   0  0  0  0  0  0  0  0  0  0  0  0
  -20.3533  -30.7300   22.6317 C   0  0  0  0  0  0  0  0  0  0  0  0
  -24.5134  -25.8269   23.6685 C   0  0  0  0  0  0  0  0  0  0  0  0
  -26.4171  -25.3542   21.4555 C   0  0  0  0  0  0  0  0  0  0  0  0
  -21.8514  -30.8698   22.3743 C   0  0  0  0  0  0  0  0  0  0  0  0
  -29.9962  -12.1552   20.0033 C   0  0  0  0  0  0  0  0  0  0  0  0
  -22.2679  -30.0258   21.1739 C   0  0  0  0  0  0  0  0  0  0  0  0
  -28.6445  -11.4627   20.1289 C   0  0  0  0  0  0  0  0  0  0  0  0
  -29.8508  -13.6481   20.2728 C   0  0  0  0  0  0  0  0  0  0  0  0
  -28.0354  -13.4214   18.5690 C   0  0  0  0  0  0  0  0  0  0  0  0
  -21.9990  -28.5373   21.4261 C   0  0  1  0  0  0  0  0  0  0  0  0
  -25.1399  -26.9785   22.8883 C   0  0  1  0  0  0  0  0  0  0  0  0
  -27.5628  -12.1251   19.2537 C   0  0  2  0  0  0  0  0  0  0  0  0
  -32.8253  -26.0232   22.7325 C   0  0  0  0  0  0  0  0  0  0  0  0
  -27.6876  -28.4340   19.3174 C   0  0  0  0  0  0  0  0  0  0  0  0
  -30.1066  -27.7921   19.3856 C   0  0  0  0  0  0  0  0  0  0  0  0
  -29.2492  -29.5796   20.8997 C   0  0  0  0  0  0  0  0  0  0  0  0
  -29.2749  -16.3751   21.6366 C   0  0  0  0  0  0  0  0  0  0  0  0
  -30.3508  -24.1732   24.9529 C   0  0  0  0  0  0  0  0  0  0  0  0
  -28.6387  -27.1692   21.3575 C   0  0  1  0  0  0  0  0  0  0  0  0
  -31.4957  -25.7914   23.4332 C   0  0  2  0  0  0  0  0  0  0  0  0
  -28.9003  -28.2246   20.2461 C   0  0  0  0  0  0  0  0  0  0  0  0
  -26.0195  -13.4959   20.6088 N   0  0  0  0  0  0  0  0  0  0  0  0
  -26.2563  -12.3172   20.0083 N   0  0  0  0  0  0  0  0  0  0  0  0
  -26.3958  -26.6022   22.2362 N   0  0  0  0  0  0  0  0  0  0  0  0
  -28.8532  -14.2961   19.4163 N   0  0  0  0  0  0  0  0  0  0  0  0
  -25.3251  -10.1740   19.6208 N   0  0  0  0  0  0  0  0  0  0  0  0
  -22.1693  -12.2490   22.0971 N   0  0  0  0  0  0  0  0  0  0  0  0
  -23.0193  -27.9781   22.2867 N   0  0  0  0  0  0  0  0  0  0  0  0
  -29.7606  -26.9701   22.2685 N   0  0  0  0  0  0  0  0  0  0  0  0
  -29.3321  -16.6275   20.1645 N   0  0  0  0  0  0  0  0  0  0  0  0
  -31.5828  -24.5141   24.1960 N   0  3  0  0  0  0  0  0  0  0  0  0
  -22.7152  -10.2889   21.0393 O   0  0  0  0  0  0  0  0  0  0  0  0
  -24.6081  -27.5095   20.6499 O   0  0  0  0  0  0  0  0  0  0  0  0
  -27.4646  -28.5776   22.8623 O   0  0  0  0  0  0  0  0  0  0  0  0
  -30.0135  -24.7001   21.8681 O   0  0  0  0  0  0  0  0  0  0  0  0
  -28.3905  -16.1143   18.0920 O   0  0  0  0  0  0  0  0  0  0  0  0
  -30.6409  -18.8356   20.6760 O   0  0  0  0  0  0  0  0  0  0  0  0
  -29.9105  -18.4208   18.3132 O   0  0  0  0  0  0  0  0  0  0  0  0
  -22.4264  -17.4520   24.0712 O   0  0  0  0  0  0  0  0  0  0  0  0
  -24.4462  -20.9184   20.8410 O   0  0  0  0  0  0  0  0  0  1  0  0
  -17.0985  -18.5111   23.1248 F   0  0  0  0  0  0  0  0  0  0  0  0
  -27.3914  -18.6688   17.8382 F   0  0  0  0  0  0  0  0  0  0  0  0
  -20.4990  -15.5152   24.4910 F   0  0  0  0  0  0  0  0  0  0  0  0
  -29.6704  -18.2997   19.7390 S   0  0  0  0  0  0  0  0  0  0  0  0
  1  2  1  0  0  0  0
  1  5  2  0  0  0  0
  2  6  2  0  0  0  0
  3  8  2  0  0  0  0
  3 18  1  0  0  0  0
  4  9  1  0  0  0  0
  4 18  2  0  0  0  0
  5 20  1  0  0  0  0
  6 22  1  0  0  0  0
  7 10  2  0  0  0  0
  7 21  1  0  0  0  0
  8 24  1  0  0  0  0
  9 24  2  0  0  0  0
 10 25  1  0  0  0  0
 11 13  2  0  0  0  0
 11 27  1  0  0  0  0
 12 14  2  0  0  0  0
 12 26  1  0  0  0  0
 13 28  1  0  0  0  0
 14 31  1  0  0  0  0
 15 23  1  0  0  0  0
 15 25  2  0  0  0  0
 16 26  2  0  0  0  0
 16 29  1  0  0  0  0
 17 28  2  0  0  0  0
 17 30  1  0  0  0  0
 18 32  1  0  0  0  0
 19 32  1  0  0  0  0
 19 33  2  0  0  0  0
 19 34  1  0  0  0  0
 20 22  2  0  0  0  0
 20 39  1  0  0  0  0
 21 23  2  0  0  0  0
 21 40  1  0  0  0  0
 22 48  1  0  0  0  0
 23 41  1  0  0  0  0
 24 77  1  0  0  0  0
 25 78  1  0  0  0  0
 26 78  1  0  0  0  0
 27 30  2  0  0  0  0
 27 77  1  0  0  0  0
 28 79  1  0  0  0  0
 29 31  2  0  0  0  0
 29 80  1  0  0  0  0
 30 81  1  0  0  0  0
 31 82  1  0  0  0  0
 32 60  2  0  0  0  0
 33 61  1  0  0  0  0
 33 64  1  0  0  0  0
 34 65  1  0  0  0  0
 34 70  2  0  0  0  0
 35 49  1  0  0  0  0
 35 66  1  0  0  0  0
 35 71  2  0  0  0  0
 36 57  1  0  0  0  0
 36 62  1  0  0  0  0
 36 72  2  0  0  0  0
 37 58  1  0  0  0  0
 37 67  1  0  0  0  0
 37 73  2  0  0  0  0
 38 63  1  0  0  0  0
 38 68  1  0  0  0  0
 38 74  2  0  0  0  0
 39 42  1  0  0  0  0
 40 49  1  0  0  0  0
 41 62  1  0  0  0  0
 42 44  1  0  0  0  0
 43 45  1  0  0  0  0
 43 46  1  0  0  0  0
 44 48  1  0  0  0  0
 45 50  1  0  0  0  0
 46 63  1  0  0  0  0
 47 50  1  0  0  0  0
 47 63  1  0  0  0  0
 48 66  1  0  0  0  0
 49 62  1  0  0  0  0
 50 61  1  0  0  0  0
 51 58  1  0  0  0  0
 52 59  1  0  0  0  0
 53 59  1  0  0  0  0
 54 59  1  0  0  0  0
 55 68  1  0  0  0  0
 56 69  1  0  0  0  0
 57 59  1  0  0  0  0
 57 67  1  0  0  0  0
 58 69  1  0  0  0  0
 60 61  1  0  0  0  0
 68 82  1  0  0  0  0
 75 82  2  0  0  0  0
 76 82  2  0  0  0  0
M  CHG  1  69   1
M  ISO  4  26 101  38 100  68 100  78 101
M  END
> <Batch ID>
0010

> <Smiles>
CNC(C)C(=O)NC(C(=O)N1Cc2cc([101O:1][101c:1]3ccc(S(=O)(=O)[100N:0](C)[100C:0](=O)N4CCCC(n5nc(-c6ccc(Oc7ccc(F)cc7F)cc6)c(C(N)=O)c5N)C4)c(F)c3)ccc2CC1C(=O)NC1CCCc2ccccc21)C(C)(C)C

> <Shape>
0.222

> <Color>
0.075

> <Negative vol penalty>
0.000

$$$$

  -OEChem-04042320403D

 88 97  0     1  0  0  0  0  0999 V2000
  -29.3243  -35.0229   24.6701 C   0  0  0  0  0  0  0  0  0  0  0  0
  -29.3500  -33.7121   24.2047 C   0  0  0  0  0  0  0  0  0  0  0  0
  -23.1355   -9.8602   20.1523 C   0  0  0  0  0  0  0  0  0  0  0  0
  -24.8252   -8.3757   21.0346 C   0  0  0  0  0  0  0  0  0  0  0  0
  -28.1541  -35.5428   25.2217 C   0  0  0  0  0  0  0  0  0  0  0  0
  -28.2057  -32.9200   24.2917 C   0  0  0  0  0  0  0  0  0  0  0  0
  -27.3088  -30.3281   20.0346 C   0  0  0  0  0  0  0  0  0  0  0  0
  -30.6599  -21.5100   19.1551 C   0  0  0  0  0  0  0  0  0  0  0  0
  -22.2574   -9.4592   21.1592 C   0  0  0  0  0  0  0  0  0  0  0  0
  -23.9471   -7.9748   22.0416 C   0  0  0  0  0  0  0  0  0  0  0  0
  -28.0746  -29.1846   19.8121 C   0  0  0  0  0  0  0  0  0  0  0  0
  -30.6455  -22.8941   18.9831 C   0  0  0  0  0  0  0  0  0  0  0  0
  -21.3072   -5.8864   22.3591 C   0  0  0  0  0  0  0  0  0  0  0  0
  -21.2131   -4.5217   22.6313 C   0  0  0  0  0  0  0  0  0  0  0  0
  -26.2473  -27.8163   20.5918 C   0  0  0  0  0  0  0  0  0  0  0  0
  -28.4242  -22.7542   18.0432 C   0  0  0  0  0  0  0  0  0  0  0  0
  -21.9335   -4.9249   24.9019 C   0  0  0  0  0  0  0  0  0  0  0  0
  -24.4194   -9.3184   20.0900 C   0  0  0  0  0  0  0  0  0  0  0  0
  -25.1406   -9.6061   17.6600 C   0  0  0  0  0  0  0  0  0  0  0  0
  -26.9921  -34.7597   25.3067 C   0  0  0  0  0  0  0  0  0  0  0  0
  -26.0082  -30.2248   20.5486 C   0  0  0  0  0  0  0  0  0  0  0  0
  -27.0192  -33.4295   24.8462 C   0  0  0  0  0  0  0  0  0  0  0  0
  -25.4661  -28.9599   20.8176 C   0  0  0  0  0  0  0  0  0  0  0  0
  -29.5565  -20.7479   18.7711 C   0  0  0  0  0  0  0  0  0  0  0  0
  -22.6632   -8.5165   22.1039 C   0  0  0  0  0  0  0  0  0  0  0  0
  -27.5450  -27.9286   20.0934 C   0  0  0  0  0  0  0  0  0  0  0  0
  -29.5277  -23.5162   18.4271 C   0  0  0  0  0  0  0  0  0  0  0  0
  -21.7146   -6.7705   23.3583 C   0  0  0  0  0  0  0  0  0  0  0  0
  -21.5262   -4.0409   23.9027 C   0  0  0  0  0  0  0  0  0  0  0  0
  -28.4386  -21.3700   18.2152 C   0  0  0  0  0  0  0  0  0  0  0  0
  -22.0277   -6.2897   24.6297 C   0  0  0  0  0  0  0  0  0  0  0  0
  -25.3267   -9.7317   19.0498 C   0  0  0  0  0  0  0  0  0  0  0  0
  -26.2789  -10.1442   17.1112 C   0  0  0  0  0  0  0  0  0  0  0  0
  -24.0374   -9.0526   16.9305 C   0  0  0  0  0  0  0  0  0  0  0  0
  -24.5521  -31.2354   23.1872 C   0  0  0  0  0  0  0  0  0  0  0  0
  -21.9133  -30.0555   21.7152 C   0  0  0  0  0  0  0  0  0  0  0  0
  -19.6208  -28.3947   19.8091 C   0  0  0  0  0  0  0  0  0  0  0  0
  -30.2013  -14.1257   19.6213 C   0  0  0  0  0  0  0  0  0  0  0  0
  -25.7645  -35.3502   25.9541 C   0  0  0  0  0  0  0  0  0  0  0  0
  -25.1853  -31.4664   20.7578 C   0  0  0  0  0  0  0  0  0  0  0  0
  -24.0676  -28.7937   21.3515 C   0  0  0  0  0  0  0  0  0  0  0  0
  -24.4872  -34.5651   25.6672 C   0  0  0  0  0  0  0  0  0  0  0  0
  -30.9136  -10.8618   18.0271 C   0  0  0  0  0  0  0  0  0  0  0  0
  -24.7225  -33.0713   25.8672 C   0  0  0  0  0  0  0  0  0  0  0  0
  -29.5517  -10.1704   18.0608 C   0  0  0  0  0  0  0  0  0  0  0  0
  -30.6323  -17.1712   18.5262 C   0  0  0  0  0  0  0  0  0  0  0  0
  -28.3024  -17.3016   19.4330 C   0  0  0  0  0  0  0  0  0  0  0  0
  -31.0711  -11.8605   19.1697 C   0  0  0  0  0  0  0  0  0  0  0  0
  -30.8514  -18.6419   18.8808 C   0  0  0  0  0  0  0  0  0  0  0  0
  -28.5273  -18.7698   19.7913 C   0  0  0  0  0  0  0  0  0  0  0  0
  -28.6216  -12.1826   19.2717 C   0  0  0  0  0  0  0  0  0  0  0  0
  -25.7911  -32.5469   24.9006 C   0  0  1  0  0  0  0  0  0  0  0  0
  -24.0588  -31.2733   21.7684 C   0  0  1  0  0  0  0  0  0  0  0  0
  -28.4128  -11.2038   18.1064 C   0  0  2  0  0  0  0  0  0  0  0  0
  -29.6111  -16.5137   19.4525 C   0  0  0  0  0  0  0  0  0  0  0  0
  -17.2029  -27.7240   19.7745 C   0  0  0  0  0  0  0  0  0  0  0  0
  -22.4949  -27.8623   23.7552 C   0  0  0  0  0  0  0  0  0  0  0  0
  -20.4229  -26.6894   22.9812 C   0  0  0  0  0  0  0  0  0  0  0  0
  -20.2606  -28.9567   24.0086 C   0  0  0  0  0  0  0  0  0  0  0  0
  -28.4991  -14.9245   17.9281 C   0  0  0  0  0  0  0  0  0  0  0  0
  -19.1109  -29.9283   17.3298 C   0  0  0  0  0  0  0  0  0  0  0  0
  -29.6078  -26.9983   19.3616 C   0  0  0  0  0  0  0  0  0  1  0  0
  -30.2684  -25.6446   19.1867 C   0  0  0  0  0  0  0  0  0  0  0  0
  -21.2171  -28.7164   21.6806 C   0  0  1  0  0  0  0  0  0  0  0  0
  -18.2216  -28.7736   19.3583 C   0  0  2  0  0  0  0  0  0  0  0  0
  -21.1196  -28.0627   23.0880 C   0  0  0  0  0  0  0  0  0  0  0  0
  -26.4916  -10.3045   19.3643 N   0  0  0  0  0  0  0  0  0  0  0  0
  -27.0478  -10.5435   18.1645 N   0  0  0  0  0  0  0  0  0  0  0  0
  -29.5735  -19.3582   18.9448 N   0  0  0  0  0  0  0  0  0  0  0  0
  -23.3049  -30.0380   21.5453 N   0  0  0  0  0  0  0  0  0  0  0  0
  -29.9534  -12.8038   19.2163 N   0  0  0  0  0  0  0  0  0  0  0  0
  -26.6871  -10.3098   15.8351 N   0  0  0  0  0  0  0  0  0  0  0  0
  -24.0606   -7.6864   16.6187 N   0  0  0  0  0  0  0  0  0  0  0  0
  -25.2333  -32.3728   23.5765 N   0  0  0  0  0  0  0  0  0  0  0  0
  -19.9279  -28.9430   21.0364 N   0  0  0  0  0  0  0  0  0  0  0  0
  -29.3855  -15.1265   19.0722 N   0  0  0  0  0  0  0  0  0  0  0  0
  -18.1749  -28.9116   17.8751 N   0  3  0  0  0  0  0  0  0  0  0  0
  -23.0677   -9.7524   16.5515 O   0  0  0  0  0  0  0  0  0  0  0  0
  -24.3297  -30.2480   23.8780 O   0  0  0  0  0  0  0  0  0  0  0  0
  -21.2460  -31.0798   21.8795 O   0  0  0  0  0  0  0  0  0  0  0  0
  -20.3653  -27.6804   19.1412 O   0  0  0  0  0  0  0  0  0  0  0  0
  -31.1067  -14.3969   20.4204 O   0  0  0  0  0  0  0  0  0  0  0  0
  -21.8068   -8.1252   23.0867 O   0  0  0  0  0  0  0  0  0  0  0  0
  -28.2907  -26.8108   19.8777 O   0  0  0  0  0  0  0  0  0  1  0  0
  -29.5135  -24.8757   18.2581 O   0  0  0  0  0  0  0  0  0  0  0  0
  -21.4343   -2.7305   24.1644 F   0  0  0  0  0  0  0  0  0  0  0  0
  -27.3726  -20.6473   17.8428 F   0  0  0  0  0  0  0  0  0  0  0  0
  -22.4184   -7.1343   25.5939 F   0  0  0  0  0  0  0  0  0  0  0  0
  1  2  1  0  0  0  0
  1  5  2  0  0  0  0
  2  6  2  0  0  0  0
  3  9  2  0  0  0  0
  3 18  1  0  0  0  0
  4 10  1  0  0  0  0
  4 18  2  0  0  0  0
  5 20  1  0  0  0  0
  6 22  1  0  0  0  0
  7 11  2  0  0  0  0
  7 21  1  0  0  0  0
  8 12  2  0  0  0  0
  8 24  1  0  0  0  0
  9 25  1  0  0  0  0
 10 25  2  0  0  0  0
 11 26  1  0  0  0  0
 12 27  1  0  0  0  0
 13 14  2  0  0  0  0
 13 28  1  0  0  0  0
 14 29  1  0  0  0  0
 15 23  1  0  0  0  0
 15 26  2  0  0  0  0
 16 27  2  0  0  0  0
 16 30  1  0  0  0  0
 17 29  2  0  0  0  0
 17 31  1  0  0  0  0
 18 32  1  0  0  0  0
 19 32  1  0  0  0  0
 19 33  2  0  0  0  0
 19 34  1  0  0  0  0
 20 22  2  0  0  0  0
 20 39  1  0  0  0  0
 21 23  2  0  0  0  0
 21 40  1  0  0  0  0
 22 52  1  0  0  0  0
 23 41  1  0  0  0  0
 24 30  2  0  0  0  0
 24 69  1  0  0  0  0
 25 83  1  0  0  0  0
 26 84  1  0  0  0  0
 27 85  1  0  0  0  0
 28 31  2  0  0  0  0
 28 83  1  0  0  0  0
 29 86  1  0  0  0  0
 30 87  1  0  0  0  0
 31 88  1  0  0  0  0
 32 67  2  0  0  0  0
 33 68  1  0  0  0  0
 33 72  1  0  0  0  0
 34 73  1  0  0  0  0
 34 78  2  0  0  0  0
 35 53  1  0  0  0  0
 35 74  1  0  0  0  0
 35 79  2  0  0  0  0
 36 64  1  0  0  0  0
 36 70  1  0  0  0  0
 36 80  2  0  0  0  0
 37 65  1  0  0  0  0
 37 75  1  0  0  0  0
 37 81  2  0  0  0  0
 38 71  1  0  0  0  0
 38 76  1  0  0  0  0
 38 82  2  0  0  0  0
 39 42  1  0  0  0  0
 40 53  1  0  0  0  0
 41 70  1  0  0  0  0
 42 44  1  0  0  0  0
 43 45  1  0  0  0  0
 43 48  1  0  0  0  0
 44 52  1  0  0  0  0
 45 54  1  0  0  0  0
 46 49  1  0  0  0  0
 46 55  1  0  0  0  0
 47 50  1  0  0  0  0
 47 55  1  0  0  0  0
 48 71  1  0  0  0  0
 49 69  1  0  0  0  0
 50 69  1  0  0  0  0
 51 54  1  0  0  0  0
 51 71  1  0  0  0  0
 52 74  1  0  0  0  0
 53 70  1  0  0  0  0
 54 68  1  0  0  0  0
 55 76  1  0  0  0  0
 56 65  1  0  0  0  0
 57 66  1  0  0  0  0
 58 66  1  0  0  0  0
 59 66  1  0  0  0  0
 60 76  1  0  0  0  0
 61 77  1  0  0  0  0
 62 63  1  0  0  0  0
 62 84  1  0  0  0  0
 63 85  1  0  0  0  0
 64 66  1  0  0  0  0
 64 75  1  0  0  0  0
 65 77  1  0  0  0  0
 67 68  1  0  0  0  0
M  CHG  1  77   1
M  ISO  4  38 100  62 101  76 100  84 101
M  END
> <Batch ID>
0010

> <Smiles>
CNC(C)C(=O)NC(C(=O)N1Cc2cc([101O:1][101CH2:1]COc3ccc(N4CCC([100N:0](C)[100C:0](=O)N5CCCC(n6nc(-c7ccc(Oc8ccc(F)cc8F)cc7)c(C(N)=O)c6N)C5)CC4)c(F)c3)ccc2CC1C(=O)NC1CCCc2ccccc21)C(C)(C)C

> <Shape>
0.346

> <Color>
0.095

> <Negative vol penalty>
0.000

$$$$

  -OEChem-04042320403D

 84 92  0     1  0  0  0  0  0999 V2000
  -27.9765  -23.2037   18.7099 C   0  0  0  0  0  0  0  0  0  0  0  0
  -26.8304  -23.5410   19.4227 C   0  0  0  0  0  0  0  0  0  0  0  0
  -26.6586  -13.0820   19.6247 C   0  0  0  0  0  0  0  0  0  0  0  0
  -24.6799  -13.6947   20.8681 C   0  0  0  0  0  0  0  0  0  0  0  0
  -24.4488  -24.0292   23.7391 C   0  0  0  0  0  0  0  0  0  0  0  0
  -29.1821  -23.8476   18.9853 C   0  0  0  0  0  0  0  0  0  0  0  0
  -26.8895  -24.5217   20.4122 C   0  0  0  0  0  0  0  0  0  0  0  0
  -23.0157  -27.7734   20.1585 C   0  0  0  0  0  0  0  0  0  0  0  0
  -25.4147  -23.0604   23.4671 C   0  0  0  0  0  0  0  0  0  0  0  0
  -26.5198  -11.7621   20.0541 C   0  0  0  0  0  0  0  0  0  0  0  0
  -24.5410  -12.3749   21.2975 C   0  0  0  0  0  0  0  0  0  0  0  0
  -21.7902  -27.3448   20.6666 C   0  0  0  0  0  0  0  0  0  0  0  0
  -23.3914   -9.4562   20.0404 C   0  0  0  0  0  0  0  0  0  0  0  0
  -22.1176   -8.8903   19.9890 C   0  0  0  0  0  0  0  0  0  0  0  0
  -22.8333  -22.2911   24.1931 C   0  0  0  0  0  0  0  0  0  0  0  0
  -22.2089  -28.5760   22.6984 C   0  0  0  0  0  0  0  0  0  0  0  0
  -22.1823   -8.5277   22.3768 C   0  0  0  0  0  0  0  0  0  0  0  0
  -25.7387  -14.0483   20.0318 C   0  0  0  0  0  0  0  0  0  0  0  0
  -23.1581  -23.6446   24.1022 C   0  0  0  0  0  0  0  0  0  0  0  0
  -25.3326  -15.9914   18.4296 C   0  0  0  0  0  0  0  0  0  0  0  0
  -29.2539  -24.8435   19.9720 C   0  0  0  0  0  0  0  0  0  0  0  0
  -23.8533  -28.5991   20.9221 C   0  0  0  0  0  0  0  0  0  0  0  0
  -28.0975  -25.1786   20.7020 C   0  0  0  0  0  0  0  0  0  0  0  0
  -23.4434  -29.0158   22.1966 C   0  0  0  0  0  0  0  0  0  0  0  0
  -25.0900  -21.7070   23.5580 C   0  0  0  0  0  0  0  0  0  0  0  0
  -25.4610  -11.4086   20.8905 C   0  0  0  0  0  0  0  0  0  0  0  0
  -21.3880  -27.7437   21.9379 C   0  0  0  0  0  0  0  0  0  0  0  0
  -24.0607   -9.5579   21.2600 C   0  0  0  0  0  0  0  0  0  0  0  0
  -21.5130   -8.4260   21.1572 C   0  0  0  0  0  0  0  0  0  0  0  0
  -23.7992  -21.3223   23.9210 C   0  0  0  0  0  0  0  0  0  0  0  0
  -23.4562   -9.0937   22.4282 C   0  0  0  0  0  0  0  0  0  0  0  0
  -25.8820  -15.4119   19.5890 C   0  0  0  0  0  0  0  0  0  0  0  0
  -25.7575  -17.2971   18.4640 C   0  0  0  0  0  0  0  0  0  0  0  0
  -22.1293  -24.6765   24.3917 C   0  0  0  0  0  0  0  0  0  0  0  0
  -24.5116  -15.4022   17.4126 C   0  0  0  0  0  0  0  0  0  0  0  0
  -26.7817  -28.3235   22.1272 C   0  0  0  0  0  0  0  0  0  0  0  0
  -26.3158  -31.4277   22.9451 C   0  0  0  0  0  0  0  0  0  0  0  0
  -24.1149  -33.9438   23.6325 C   0  0  0  0  0  0  0  0  0  0  0  0
  -27.3995  -20.9400   22.9067 C   0  0  0  0  0  0  0  0  0  0  0  0
  -30.5898  -25.4784   20.2669 C   0  0  0  0  0  0  0  0  0  0  0  0
  -25.1601  -29.0746   20.3489 C   0  0  0  0  0  0  0  0  0  0  0  0
  -24.2968  -29.9183   23.0485 C   0  0  0  0  0  0  0  0  0  0  0  0
  -30.4855  -26.7707   21.0726 C   0  0  0  0  0  0  0  0  0  0  0  0
  -29.3502  -20.0249   20.0722 C   0  0  0  0  0  0  0  0  0  0  0  0
  -29.5319  -26.5905   22.2495 C   0  0  0  0  0  0  0  0  0  0  0  0
  -28.6287  -18.7945   19.5175 C   0  0  0  0  0  0  0  0  0  0  0  0
  -29.3204  -20.0594   21.5992 C   0  0  0  0  0  0  0  0  0  0  0  0
  -27.2635  -18.7043   21.6424 C   0  0  0  0  0  0  0  0  0  0  0  0
  -28.1160  -26.2547   21.7659 C   0  0  1  0  0  0  0  0  0  0  0  0
  -26.1637  -29.4952   21.4181 C   0  0  1  0  0  0  0  0  0  0  0  0
  -27.2108  -18.6594   20.1066 C   0  0  2  0  0  0  0  0  0  0  0  0
  -24.0327  -36.3598   24.3059 C   0  0  0  0  0  0  0  0  0  0  0  0
  -27.0406  -30.6525   25.8058 C   0  0  0  0  0  0  0  0  0  0  0  0
  -26.0386  -32.8153   26.5718 C   0  0  0  0  0  0  0  0  0  0  0  0
  -28.0060  -32.8281   25.0381 C   0  0  0  0  0  0  0  0  0  0  0  0
  -22.6915  -34.7067   21.1524 C   0  0  0  0  0  0  0  0  0  0  0  0
  -18.8937  -25.4264   23.1164 C   0  0  0  0  0  0  0  0  0  0  0  0
  -19.7032  -25.1961   24.3854 C   0  0  0  0  0  0  0  0  0  0  0  0
  -19.7132  -26.0562   21.9966 C   0  0  0  0  0  0  0  0  0  1  0  0
  -25.7423  -32.1428   24.1446 C   0  0  1  0  0  0  0  0  0  0  0  0
  -24.0412  -35.3791   23.1437 C   0  0  2  0  0  0  0  0  0  0  0  0
  -26.6914  -32.0911   25.3751 C   0  0  0  0  0  0  0  0  0  0  0  0
  -26.6011  -16.2784   20.3074 N   0  0  0  0  0  0  0  0  0  0  0  0
  -26.5067  -17.4156   19.5975 N   0  0  0  0  0  0  0  0  0  0  0  0
  -25.5687  -30.3512   22.4464 N   0  0  0  0  0  0  0  0  0  0  0  0
  -27.9449  -19.9309   22.0852 N   0  0  0  0  0  0  0  0  0  0  0  0
  -25.5598  -18.3439   17.6348 N   0  0  0  0  0  0  0  0  0  0  0  0
  -24.1684  -14.0486   17.5320 N   0  0  0  0  0  0  0  0  0  0  0  0
  -26.0733  -20.7253   23.2804 N   0  0  0  0  0  0  0  0  0  0  0  0
  -20.8080  -24.3022   24.1745 N   0  0  0  0  0  0  0  0  0  0  0  0
  -27.4478  -27.4476   21.2914 N   0  0  0  0  0  0  0  0  0  0  0  0
  -25.4163  -33.4927   23.6978 N   0  0  0  0  0  0  0  0  0  0  0  0
  -22.8030  -35.5902   22.3416 N   0  3  0  0  0  0  0  0  0  0  0  0
  -22.4852  -25.7866   24.7785 O   0  0  0  0  0  0  0  0  0  0  0  0
  -24.1083  -16.0524   16.4186 O   0  0  0  0  0  0  0  0  0  0  0  0
  -26.6641  -28.2224   23.3428 O   0  0  0  0  0  0  0  0  0  0  0  0
  -27.3836  -31.8147   22.4639 O   0  0  0  0  0  0  0  0  0  0  0  0
  -23.1181  -33.2895   23.9304 O   0  0  0  0  0  0  0  0  0  0  0  0
  -28.0516  -21.9359   23.2308 O   0  0  0  0  0  0  0  0  0  0  0  0
  -25.3250  -10.1207   21.3095 O   0  0  0  0  0  0  0  0  0  0  0  0
  -20.1926  -27.3262   22.4366 O   0  0  0  0  0  0  0  0  0  1  0  0
  -20.2891   -7.8839   21.1079 F   0  0  0  0  0  0  0  0  0  0  0  0
  -23.4753  -20.0242   24.0111 F   0  0  0  0  0  0  0  0  0  0  0  0
  -24.0938   -9.1897   23.6029 F   0  0  0  0  0  0  0  0  0  0  0  0
  1  2  1  0  0  0  0
  1  6  2  0  0  0  0
  2  7  2  0  0  0  0
  3 10  2  0  0  0  0
  3 18  1  0  0  0  0
  4 11  1  0  0  0  0
  4 18  2  0  0  0  0
  5  9  2  0  0  0  0
  5 19  1  0  0  0  0
  6 21  1  0  0  0  0
  7 23  1  0  0  0  0
  8 12  2  0  0  0  0
  8 22  1  0  0  0  0
  9 25  1  0  0  0  0
 10 26  1  0  0  0  0
 11 26  2  0  0  0  0
 12 27  1  0  0  0  0
 13 14  2  0  0  0  0
 13 28  1  0  0  0  0
 14 29  1  0  0  0  0
 15 19  2  0  0  0  0
 15 30  1  0  0  0  0
 16 24  1  0  0  0  0
 16 27  2  0  0  0  0
 17 29  2  0  0  0  0
 17 31  1  0  0  0  0
 18 32  1  0  0  0  0
 19 34  1  0  0  0  0
 20 32  1  0  0  0  0
 20 33  2  0  0  0  0
 20 35  1  0  0  0  0
 21 23  2  0  0  0  0
 21 40  1  0  0  0  0
 22 24  2  0  0  0  0
 22 41  1  0  0  0  0
 23 49  1  0  0  0  0
 24 42  1  0  0  0  0
 25 30  2  0  0  0  0
 25 69  1  0  0  0  0
 26 80  1  0  0  0  0
 27 81  1  0  0  0  0
 28 31  2  0  0  0  0
 28 80  1  0  0  0  0
 29 82  1  0  0  0  0
 30 83  1  0  0  0  0
 31 84  1  0  0  0  0
 32 63  2  0  0  0  0
 33 64  1  0  0  0  0
 33 67  1  0  0  0  0
 34 70  1  0  0  0  0
 34 74  2  0  0  0  0
 35 68  1  0  0  0  0
 35 75  2  0  0  0  0
 36 50  1  0  0  0  0
 36 71  1  0  0  0  0
 36 76  2  0  0  0  0
 37 60  1  0  0  0  0
 37 65  1  0  0  0  0
 37 77  2  0  0  0  0
 38 61  1  0  0  0  0
 38 72  1  0  0  0  0
 38 78  2  0  0  0  0
 39 66  1  0  0  0  0
 39 69  1  0  0  0  0
 39 79  2  0  0  0  0
 40 43  1  0  0  0  0
 41 50  1  0  0  0  0
 42 65  1  0  0  0  0
 43 45  1  0  0  0  0
 44 46  1  0  0  0  0
 44 47  1  0  0  0  0
 45 49  1  0  0  0  0
 46 51  1  0  0  0  0
 47 66  1  0  0  0  0
 48 51  1  0  0  0  0
 48 66  1  0  0  0  0
 49 71  1  0  0  0  0
 50 65  1  0  0  0  0
 51 64  1  0  0  0  0
 52 61  1  0  0  0  0
 53 62  1  0  0  0  0
 54 62  1  0  0  0  0
 55 62  1  0  0  0  0
 56 73  1  0  0  0  0
 57 58  1  0  0  0  0
 57 59  1  0  0  0  0
 58 70  1  0  0  0  0
 59 81  1  0  0  0  0
 60 62  1  0  0  0  0
 60 72  1  0  0  0  0
 61 73  1  0  0  0  0
 63 64  1  0  0  0  0
M  CHG  1  73   1
M  ISO  4  39 100  59 101  69 100  81 101
M  END
> <Batch ID>
0010

> <Smiles>
CNC(C)C(=O)NC(C(=O)N1Cc2cc([101O:1][101CH2:1]CCNC(=O)c3ccc([100NH:0][100C:0](=O)N4CCCC(n5nc(-c6ccc(Oc7ccc(F)cc7F)cc6)c(C(N)=O)c5N)C4)c(F)c3)ccc2CC1C(=O)NC1CCCc2ccccc21)C(C)(C)C

> <Shape>
0.280

> <Color>
0.067

> <Negative vol penalty>
0.000

$$$$

  -OEChem-04042320403D

 75 82  0     1  0  0  0  0  0999 V2000
  -32.6757  -26.9307   24.1935 C   0  0  0  0  0  0  0  0  0  0  0  0
  -33.2702  -25.6961   23.9527 C   0  0  0  0  0  0  0  0  0  0  0  0
  -23.1714   -9.8811   19.9137 C   0  0  0  0  0  0  0  0  0  0  0  0
  -23.5557  -10.0089   22.2955 C   0  0  0  0  0  0  0  0  0  0  0  0
  -31.2939  -27.0727   24.0744 C   0  0  0  0  0  0  0  0  0  0  0  0
  -32.4830  -24.6026   23.5938 C   0  0  0  0  0  0  0  0  0  0  0  0
  -34.0021  -20.0717   19.7637 C   0  0  0  0  0  0  0  0  0  0  0  0
  -22.3855   -8.7442   20.1014 C   0  0  0  0  0  0  0  0  0  0  0  0
  -22.7697   -8.8720   22.4833 C   0  0  0  0  0  0  0  0  0  0  0  0
  -34.4800  -18.7802   19.9813 C   0  0  0  0  0  0  0  0  0  0  0  0
  -21.1601   -5.7946   23.5550 C   0  0  0  0  0  0  0  0  0  0  0  0
  -21.6407   -4.8094   24.4175 C   0  0  0  0  0  0  0  0  0  0  0  0
  -32.2307  -17.9255   19.8106 C   0  0  0  0  0  0  0  0  0  0  0  0
  -23.5927   -4.5381   23.0199 C   0  0  0  0  0  0  0  0  0  0  0  0
  -23.7566  -10.5135   21.0107 C   0  0  0  0  0  0  0  0  0  0  0  0
  -24.1389  -13.0281   20.8149 C   0  0  0  0  0  0  0  0  0  0  0  0
  -30.4903  -25.9827   23.7044 C   0  0  0  0  0  0  0  0  0  0  0  0
  -32.6312  -20.3016   19.5785 C   0  0  0  0  0  0  0  0  0  0  0  0
  -31.0889  -24.7299   23.4710 C   0  0  0  0  0  0  0  0  0  0  0  0
  -31.7382  -19.2206   19.5883 C   0  0  0  0  0  0  0  0  0  0  0  0
  -22.1846   -8.2396   21.3862 C   0  0  0  0  0  0  0  0  0  0  0  0
  -33.5940  -17.7072   20.0076 C   0  0  0  0  0  0  0  0  0  0  0  0
  -21.8957   -6.1515   22.4248 C   0  0  0  0  0  0  0  0  0  0  0  0
  -22.8571   -4.1812   24.1500 C   0  0  0  0  0  0  0  0  0  0  0  0
  -23.1120   -5.5233   22.1573 C   0  0  0  0  0  0  0  0  0  0  0  0
  -24.5690  -11.6876   20.8173 C   0  0  0  0  0  0  0  0  0  0  0  0
  -25.2825  -13.7553   20.5922 C   0  0  0  0  0  0  0  0  0  0  0  0
  -22.8231  -13.5676   20.9979 C   0  0  0  0  0  0  0  0  0  0  0  0
  -30.4033  -21.9519   21.1331 C   0  0  0  0  0  0  0  0  0  0  0  0
  -28.5643  -21.1105   18.5969 C   0  0  0  0  0  0  0  0  0  0  0  0
  -27.9950  -18.9426   16.0234 C   0  0  0  0  0  0  0  0  0  0  0  0
  -30.8946  -12.8120   21.6977 C   0  0  0  0  0  0  0  0  0  0  0  0
  -28.9959  -26.1732   23.6345 C   0  0  0  0  0  0  0  0  0  0  0  0
  -32.1347  -21.6974   19.3183 C   0  0  0  0  0  0  0  0  0  0  0  0
  -30.2595  -19.4115   19.3746 C   0  0  0  0  0  0  0  0  0  0  0  0
  -28.2739  -25.0566   22.8848 C   0  0  0  0  0  0  0  0  0  0  0  0
  -29.5634  -13.4701   18.4935 C   0  0  0  0  0  0  0  0  0  0  0  0
  -28.7751  -23.6921   23.3473 C   0  0  0  0  0  0  0  0  0  0  0  0
  -28.0758  -13.2078   18.7242 C   0  0  0  0  0  0  0  0  0  0  0  0
  -30.4457  -12.4569   19.2251 C   0  0  0  0  0  0  0  0  0  0  0  0
  -28.6659  -12.0818   20.9026 C   0  0  0  0  0  0  0  0  0  0  0  0
  -30.2714  -23.5261   23.0554 C   0  0  1  0  0  0  0  0  0  0  0  0
  -30.6576  -21.8785   19.6540 C   0  0  1  0  0  0  0  0  0  0  0  0
  -27.7589  -13.1219   20.2273 C   0  0  2  0  0  0  0  0  0  0  0  0
  -26.3932  -18.4922   14.1448 C   0  0  0  0  0  0  0  0  0  0  0  0
  -26.5394  -20.0021   20.5923 C   0  0  0  0  0  0  0  0  0  0  0  0
  -25.4680  -18.7534   18.7052 C   0  0  0  0  0  0  0  0  0  0  0  0
  -25.5353  -21.2467   18.6695 C   0  0  0  0  0  0  0  0  0  0  0  0
  -32.9464  -11.7573   20.6572 C   0  0  0  0  0  0  0  0  0  0  0  0
  -30.1157  -19.2623   13.9840 C   0  0  0  0  0  0  0  0  0  0  0  0
  -34.0098  -14.5134   21.6426 C   0  0  0  0  0  0  0  0  0  0  0  0
  -33.1585  -13.4978   22.3926 C   0  0  0  0  0  0  0  0  0  0  0  0
  -33.1773  -15.5314   20.8726 C   0  0  0  0  0  0  0  0  0  1  0  0
  -27.6645  -19.9435   18.2691 C   0  0  1  0  0  0  0  0  0  0  0  0
  -27.6858  -19.1798   14.5562 C   0  0  2  0  0  0  0  0  0  0  0  0
  -26.3294  -19.9827   19.0650 C   0  0  0  0  0  0  0  0  0  0  0  0
  -25.8833  -11.5675   20.6121 N   0  0  0  0  0  0  0  0  0  0  0  0
  -26.2889  -12.8418   20.4787 N   0  0  0  0  0  0  0  0  0  0  0  0
  -29.8221  -20.7959   19.1303 N   0  0  0  0  0  0  0  0  0  0  0  0
  -30.0786  -12.3718   20.6452 N   0  0  0  0  0  0  0  0  0  0  0  0
  -25.5154  -15.0806   20.4843 N   0  0  0  0  0  0  0  0  0  0  0  0
  -21.7612  -12.6794   21.2161 N   0  0  0  0  0  0  0  0  0  0  0  0
  -30.4832  -23.2289   21.6549 N   0  0  0  0  0  0  0  0  0  0  0  0
  -27.4967  -19.9518   16.8199 N   0  0  0  0  0  0  0  0  0  0  0  0
  -32.2827  -12.7457   21.5051 N   0  0  0  0  0  0  0  0  0  0  0  0
  -28.7893  -18.6552   13.7029 N   0  3  0  0  0  0  0  0  0  0  0  0
  -22.5933  -14.7999   20.9523 O   0  0  0  0  0  0  0  0  0  0  0  0
  -30.1517  -20.9261   21.7545 O   0  0  0  0  0  0  0  0  0  0  0  0
  -28.1685  -22.2586   18.3806 O   0  0  0  0  0  0  0  0  0  0  0  0
  -28.6131  -17.9585   16.4232 O   0  0  0  0  0  0  0  0  0  0  0  0
  -30.4107  -13.2342   22.7559 O   0  0  0  0  0  0  0  0  0  0  0  0
  -21.4176   -7.1304   21.5699 O   0  0  0  0  0  0  0  0  0  0  0  0
  -34.0578  -16.4457   20.2205 O   0  0  0  0  0  0  0  0  0  1  0  0
  -23.3193   -3.2362   24.9792 F   0  0  0  0  0  0  0  0  0  0  0  0
  -23.8238   -5.8629   21.0738 F   0  0  0  0  0  0  0  0  0  0  0  0
  1  2  1  0  0  0  0
  1  5  2  0  0  0  0
  2  6  2  0  0  0  0
  3  8  2  0  0  0  0
  3 15  1  0  0  0  0
  4  9  1  0  0  0  0
  4 15  2  0  0  0  0
  5 17  1  0  0  0  0
  6 19  1  0  0  0  0
  7 10  2  0  0  0  0
  7 18  1  0  0  0  0
  8 21  1  0  0  0  0
  9 21  2  0  0  0  0
 10 22  1  0  0  0  0
 11 12  2  0  0  0  0
 11 23  1  0  0  0  0
 12 24  1  0  0  0  0
 13 20  1  0  0  0  0
 13 22  2  0  0  0  0
 14 24  2  0  0  0  0
 14 25  1  0  0  0  0
 15 26  1  0  0  0  0
 16 26  1  0  0  0  0
 16 27  2  0  0  0  0
 16 28  1  0  0  0  0
 17 19  2  0  0  0  0
 17 33  1  0  0  0  0
 18 20  2  0  0  0  0
 18 34  1  0  0  0  0
 19 42  1  0  0  0  0
 20 35  1  0  0  0  0
 21 72  1  0  0  0  0
 22 73  1  0  0  0  0
 23 25  2  0  0  0  0
 23 72  1  0  0  0  0
 24 74  1  0  0  0  0
 25 75  1  0  0  0  0
 26 57  2  0  0  0  0
 27 58  1  0  0  0  0
 27 61  1  0  0  0  0
 28 62  1  0  0  0  0
 28 67  2  0  0  0  0
 29 43  1  0  0  0  0
 29 63  1  0  0  0  0
 29 68  2  0  0  0  0
 30 54  1  0  0  0  0
 30 59  1  0  0  0  0
 30 69  2  0  0  0  0
 31 55  1  0  0  0  0
 31 64  1  0  0  0  0
 31 70  2  0  0  0  0
 32 60  1  0  0  0  0
 32 65  1  0  0  0  0
 32 71  2  0  0  0  0
 33 36  1  0  0  0  0
 34 43  1  0  0  0  0
 35 59  1  0  0  0  0
 36 38  1  0  0  0  0
 37 39  1  0  0  0  0
 37 40  1  0  0  0  0
 38 42  1  0  0  0  0
 39 44  1  0  0  0  0
 40 60  1  0  0  0  0
 41 44  1  0  0  0  0
 41 60  1  0  0  0  0
 42 63  1  0  0  0  0
 43 59  1  0  0  0  0
 44 58  1  0  0  0  0
 45 55  1  0  0  0  0
 46 56  1  0  0  0  0
 47 56  1  0  0  0  0
 48 56  1  0  0  0  0
 49 65  1  0  0  0  0
 50 66  1  0  0  0  0
 51 52  1  0  0  0  0
 51 53  1  0  0  0  0
 52 65  1  0  0  0  0
 53 73  1  0  0  0  0
 54 56  1  0  0  0  0
 54 64  1  0  0  0  0
 55 66  1  0  0  0  0
 57 58  1  0  0  0  0
M  CHG  1  66   1
M  ISO  4  32 100  53 101  65 100  73 101
M  END
> <Batch ID>
0010

> <Smiles>
CNC(C)C(=O)NC(C(=O)N1Cc2cc([101O:1][101CH2:1]CC[100N:0](C)[100C:0](=O)N3CCCC(n4nc(-c5ccc(Oc6ccc(F)cc6F)cc5)c(C(N)=O)c4N)C3)ccc2CC1C(=O)NC1CCCc2ccccc21)C(C)(C)C

> <Shape>
0.188

> <Color>
0.204

> <Negative vol penalty>
0.000

$$$$

  -OEChem-04042320403D

 96106  0     1  0  0  0  0  0999 V2000
  -17.0219  -30.4427   23.1990 C   0  0  0  0  0  0  0  0  0  0  0  0
  -18.3063  -30.6522   23.6907 C   0  0  0  0  0  0  0  0  0  0  0  0
  -30.9323  -23.5422   15.7897 C   0  0  0  0  0  0  0  0  0  0  0  0
  -25.4526  -17.7904   22.9334 C   0  0  0  0  0  0  0  0  0  0  0  0
  -23.2081  -11.2910   18.3188 C   0  0  0  0  0  0  0  0  0  0  0  0
  -23.1942  -13.6777   17.9440 C   0  0  0  0  0  0  0  0  0  0  0  0
  -16.6434  -29.1752   22.7585 C   0  0  0  0  0  0  0  0  0  0  0  0
  -19.2128  -29.5938   23.7431 C   0  0  0  0  0  0  0  0  0  0  0  0
  -25.5117  -29.9306   20.2644 C   0  0  0  0  0  0  0  0  0  0  0  0
  -31.1453  -24.9201   15.7490 C   0  0  0  0  0  0  0  0  0  0  0  0
  -30.7232  -22.9047   17.0126 C   0  0  0  0  0  0  0  0  0  0  0  0
  -26.4142  -18.1876   22.0044 C   0  0  0  0  0  0  0  0  0  0  0  0
  -22.3729  -11.1129   17.2159 C   0  0  0  0  0  0  0  0  0  0  0  0
  -22.3590  -13.4996   16.8411 C   0  0  0  0  0  0  0  0  0  0  0  0
  -26.8251  -30.0046   19.8000 C   0  0  0  0  0  0  0  0  0  0  0  0
  -19.9328  -13.7073   14.1429 C   0  0  0  0  0  0  0  0  0  0  0  0
  -25.6907  -16.6896   23.7564 C   0  0  0  0  0  0  0  0  0  0  0  0
  -18.8413  -14.5656   14.0109 C   0  0  0  0  0  0  0  0  0  0  0  0
  -27.2313  -27.7439   20.5567 C   0  0  0  0  0  0  0  0  0  0  0  0
  -30.9404  -25.0229   18.1541 C   0  0  0  0  0  0  0  0  0  0  0  0
  -27.8521  -16.3833   22.7214 C   0  0  0  0  0  0  0  0  0  0  0  0
  -17.9819  -13.7993   16.1349 C   0  0  0  0  0  0  0  0  0  0  0  0
  -23.6187  -12.5734   18.6828 C   0  0  0  0  0  0  0  0  0  0  0  0
  -24.2146  -12.3988   21.1571 C   0  0  0  0  0  0  0  0  0  0  0  0
  -17.5488  -28.1030   22.7965 C   0  0  0  0  0  0  0  0  0  0  0  0
  -25.0480  -28.7561   20.8636 C   0  0  0  0  0  0  0  0  0  0  0  0
  -18.8457  -28.3105   23.3039 C   0  0  0  0  0  0  0  0  0  0  0  0
  -25.9130  -27.6596   21.0126 C   0  0  0  0  0  0  0  0  0  0  0  0
  -31.1494  -25.6604   16.9311 C   0  0  0  0  0  0  0  0  0  0  0  0
  -30.7273  -23.6450   18.1948 C   0  0  0  0  0  0  0  0  0  0  0  0
  -27.6140  -17.4841   21.8984 C   0  0  0  0  0  0  0  0  0  0  0  0
  -21.9484  -12.2172   16.4771 C   0  0  0  0  0  0  0  0  0  0  0  0
  -27.6828  -28.9140   19.9460 C   0  0  0  0  0  0  0  0  0  0  0  0
  -20.0489  -12.8948   15.2708 C   0  0  0  0  0  0  0  0  0  0  0  0
  -26.8905  -15.9861   23.6504 C   0  0  0  0  0  0  0  0  0  0  0  0
  -17.8659  -14.6116   15.0069 C   0  0  0  0  0  0  0  0  0  0  0  0
  -19.0735  -12.9409   16.2668 C   0  0  0  0  0  0  0  0  0  0  0  0
  -24.4811  -12.7581   19.8223 C   0  0  0  0  0  0  0  0  0  0  0  0
  -25.3389  -12.7820   21.8468 C   0  0  0  0  0  0  0  0  0  0  0  0
  -23.0546  -11.7744   21.7230 C   0  0  0  0  0  0  0  0  0  0  0  0
  -22.1780  -26.9499   22.4689 C   0  0  0  0  0  0  0  0  0  0  0  0
  -23.6104  -24.9227   20.6664 C   0  0  0  0  0  0  0  0  0  0  0  0
  -25.2119  -23.1199   18.2534 C   0  0  0  0  0  0  0  0  0  0  0  0
  -29.5051  -17.0004   20.3232 C   0  0  0  0  0  0  0  0  0  0  0  0
  -17.0790  -26.7401   22.3533 C   0  0  0  0  0  0  0  0  0  0  0  0
  -23.6595  -28.6531   21.4338 C   0  0  0  0  0  0  0  0  0  0  0  0
  -25.3810  -26.4288   21.6946 C   0  0  0  0  0  0  0  0  0  0  0  0
  -18.2182  -25.7579   22.0934 C   0  0  0  0  0  0  0  0  0  0  0  0
  -30.0377  -13.4733   21.3074 C   0  0  0  0  0  0  0  0  0  0  0  0
  -19.2316  -25.8022   23.2326 C   0  0  0  0  0  0  0  0  0  0  0  0
  -28.6664  -12.8438   21.0690 C   0  0  0  0  0  0  0  0  0  0  0  0
  -28.8342  -21.2570   19.1840 C   0  0  0  0  0  0  0  0  0  0  0  0
  -30.6202  -21.1202   20.9674 C   0  0  0  0  0  0  0  0  0  0  0  0
  -28.5284  -19.7707   19.3742 C   0  0  0  0  0  0  0  0  0  0  0  0
  -30.3159  -19.6339   21.1596 C   0  0  0  0  0  0  0  0  0  0  0  0
  -30.2885  -14.6544   20.3748 C   0  0  0  0  0  0  0  0  0  0  0  0
  -27.8519  -15.0732   20.2044 C   0  0  0  0  0  0  0  0  0  0  0  0
  -19.8653  -27.1933   23.3536 C   0  0  1  0  0  0  0  0  0  0  0  0
  -23.0480  -27.2486   21.2834 C   0  0  1  0  0  0  0  0  0  0  0  0
  -27.5587  -13.9063   21.1592 C   0  0  1  0  0  0  0  0  0  0  0  0
  -30.2862  -21.5761   19.5459 C   0  0  0  0  0  0  0  0  0  0  0  0
  -28.8655  -19.3079   20.7936 C   0  0  0  0  0  0  0  0  0  0  0  0
  -25.2258  -20.8572   17.1685 C   0  0  0  0  0  0  0  0  0  0  0  0
  -25.0039  -23.7599   23.1179 C   0  0  0  0  0  0  0  0  0  0  0  0
  -25.8194  -21.8827   21.6760 C   0  0  0  0  0  0  0  0  0  0  0  0
  -23.3712  -22.2187   22.0164 C   0  0  0  0  0  0  0  0  0  0  0  0
  -24.5854  -24.2621   15.5960 C   0  0  0  0  0  0  0  0  0  0  0  0
  -29.2375  -27.9193   15.8821 C   0  0  0  0  0  0  0  0  0  0  0  0
  -31.3793  -27.1424   16.8870 C   0  0  0  0  0  0  0  0  0  0  0  0
  -30.3955  -29.3212   17.5837 C   0  0  0  0  0  0  0  0  0  0  0  0
  -29.1962  -29.8323   18.3574 C   0  0  0  0  0  0  0  0  0  1  0  0
  -24.6542  -23.8397   20.5611 C   0  0  1  0  0  0  0  0  0  0  0  0
  -24.6824  -22.2762   17.1079 C   0  0  2  0  0  0  0  0  0  0  0  0
  -24.7180  -22.9523   21.8361 C   0  0  0  0  0  0  0  0  0  0  0  0
  -25.6804  -13.3260   19.6708 N   0  0  0  0  0  0  0  0  0  0  0  0
  -26.1776  -13.3266   20.9194 N   0  0  0  0  0  0  0  0  0  0  0  0
  -24.0178  -26.1419   21.2215 N   0  0  0  0  0  0  0  0  0  0  0  0
  -29.1970  -15.6284   20.4267 N   0  0  0  0  0  0  0  0  0  0  0  0
  -25.6819  -12.7029   23.1501 N   0  0  0  0  0  0  0  0  0  0  0  0
  -22.0142  -12.5919   22.1853 N   0  0  0  0  0  0  0  0  0  0  0  0
  -30.5154  -23.0003   19.4313 N   0  0  0  0  0  0  0  0  0  0  0  0
  -20.8722  -27.3807   22.3312 N   0  0  0  0  0  0  0  0  0  0  0  0
  -24.3580  -23.1051   19.3359 N   0  0  0  0  0  0  0  0  0  0  0  0
  -28.6087  -17.8953   20.9381 N   0  0  0  0  0  0  0  0  0  0  0  0
  -25.0740  -22.8741   15.8001 N   0  3  0  0  0  0  0  0  0  0  0  0
  -30.1194  -27.9429   17.1060 N   0  3  1  0  0  0  0  0  0  0  0  0
  -22.9509  -10.5290   21.8309 O   0  0  0  0  0  0  0  0  0  0  0  0
  -22.6548  -26.3700   23.4374 O   0  0  0  0  0  0  0  0  0  0  0  0
  -22.4630  -24.6948   20.2731 O   0  0  0  0  0  0  0  0  0  0  0  0
  -26.2784  -23.7280   18.1953 O   0  0  0  0  0  0  0  0  0  0  0  0
  -30.4812  -17.4052   19.6798 O   0  0  0  0  0  0  0  0  0  0  0  0
  -21.1335  -12.0438   15.4007 O   0  0  0  0  0  0  0  0  0  0  0  0
  -28.9624  -28.9914   19.4864 O   0  0  0  0  0  0  0  0  0  1  0  0
  -27.1185  -14.9292   24.4413 F   0  0  0  0  0  0  0  0  0  0  0  0
  -16.8185  -15.4371   14.8808 F   0  0  0  0  0  0  0  0  0  0  0  0
  -19.1801  -12.1637   17.3533 F   0  0  0  0  0  0  0  0  0  0  0  0
  1  2  1  0  0  0  0
  1  7  2  0  0  0  0
  2  8  2  0  0  0  0
  3 10  2  0  0  0  0
  3 11  1  0  0  0  0
  4 12  2  0  0  0  0
  4 17  1  0  0  0  0
  5 13  2  0  0  0  0
  5 23  1  0  0  0  0
  6 14  1  0  0  0  0
  6 23  2  0  0  0  0
  7 25  1  0  0  0  0
  8 27  1  0  0  0  0
  9 15  2  0  0  0  0
  9 26  1  0  0  0  0
 10 29  1  0  0  0  0
 11 30  2  0  0  0  0
 12 31  1  0  0  0  0
 13 32  1  0  0  0  0
 14 32  2  0  0  0  0
 15 33  1  0  0  0  0
 16 18  2  0  0  0  0
 16 34  1  0  0  0  0
 17 35  2  0  0  0  0
 18 36  1  0  0  0  0
 19 28  1  0  0  0  0
 19 33  2  0  0  0  0
 20 29  2  0  0  0  0
 20 30  1  0  0  0  0
 21 31  2  0  0  0  0
 21 35  1  0  0  0  0
 22 36  2  0  0  0  0
 22 37  1  0  0  0  0
 23 38  1  0  0  0  0
 24 38  1  0  0  0  0
 24 39  2  0  0  0  0
 24 40  1  0  0  0  0
 25 27  2  0  0  0  0
 25 45  1  0  0  0  0
 26 28  2  0  0  0  0
 26 46  1  0  0  0  0
 27 58  1  0  0  0  0
 28 47  1  0  0  0  0
 29 69  1  0  0  0  0
 30 81  1  0  0  0  0
 31 84  1  0  0  0  0
 32 92  1  0  0  0  0
 33 93  1  0  0  0  0
 34 37  2  0  0  0  0
 34 92  1  0  0  0  0
 35 94  1  0  0  0  0
 36 95  1  0  0  0  0
 37 96  1  0  0  0  0
 38 75  2  0  0  0  0
 39 76  1  0  0  0  0
 39 79  1  0  0  0  0
 40 80  1  0  0  0  0
 40 87  2  0  0  0  0
 41 59  1  0  0  0  0
 41 82  1  0  0  0  0
 41 88  2  0  0  0  0
 42 72  1  0  0  0  0
 42 77  1  0  0  0  0
 42 89  2  0  0  0  0
 43 73  1  0  0  0  0
 43 83  1  0  0  0  0
 43 90  2  0  0  0  0
 44 78  1  0  0  0  0
 44 84  1  0  0  0  0
 44 91  2  0  0  0  0
 45 48  1  0  0  0  0
 46 59  1  0  0  0  0
 47 77  1  0  0  0  0
 48 50  1  0  0  0  0
 49 51  1  0  0  0  0
 49 56  1  0  0  0  0
 50 58  1  0  0  0  0
 51 60  1  0  0  0  0
 52 54  1  0  0  0  0
 52 61  1  0  0  0  0
 53 55  1  0  0  0  0
 53 61  1  0  0  0  0
 54 62  1  0  0  0  0
 55 62  1  0  0  0  0
 56 78  1  0  0  0  0
 57 60  1  0  0  0  0
 57 78  1  0  0  0  0
 58 82  1  0  0  0  0
 59 77  1  0  0  0  0
 60 76  1  0  0  0  0
 61 81  1  0  0  0  0
 62 84  1  0  0  0  0
 63 73  1  0  0  0  0
 64 74  1  0  0  0  0
 65 74  1  0  0  0  0
 66 74  1  0  0  0  0
 67 85  1  0  0  0  0
 68 86  1  0  0  0  0
 69 86  1  0  0  0  0
 70 71  1  0  0  0  0
 70 86  1  0  0  0  0
 71 93  1  0  0  0  0
 72 74  1  0  0  0  0
 72 83  1  0  0  0  0
 73 85  1  0  0  0  0
 75 76  1  0  0  0  0
M  CHG  2  85   1  86   1
M  ISO  4  44 100  71 101  84 100  93 101
M  END
> <Batch ID>
0010

> <Smiles>
CNC(C)C(=O)NC(C(=O)N1Cc2cc([101O:1][101CH2:1]CN(C)Cc3cccc(NC4CCC([100N:0](c5cccc(F)c5)[100C:0](=O)N5CCCC(n6nc(-c7ccc(Oc8ccc(F)cc8F)cc7)c(C(N)=O)c6N)C5)CC4)c3)ccc2CC1C(=O)NC1CCCc2ccccc21)C(C)(C)C

> <Shape>
0.234

> <Color>
0.086

> <Negative vol penalty>
0.000

$$$$

  -OEChem-04042320403D

 83 91  0     1  0  0  0  0  0999 V2000
  -27.1077  -37.8808   20.9535 C   0  0  0  0  0  0  0  0  0  0  0  0
  -27.8758  -36.7355   21.1374 C   0  0  0  0  0  0  0  0  0  0  0  0
  -22.2125  -10.4606   20.3741 C   0  0  0  0  0  0  0  0  0  0  0  0
  -23.8800   -9.9922   22.0585 C   0  0  0  0  0  0  0  0  0  0  0  0
  -25.8140  -37.9415   21.4699 C   0  0  0  0  0  0  0  0  0  0  0  0
  -27.3509  -35.6506   21.8388 C   0  0  0  0  0  0  0  0  0  0  0  0
  -26.8068  -29.1594   18.7631 C   0  0  0  0  0  0  0  0  0  0  0  0
  -27.7163  -19.8746   19.5456 C   0  0  0  0  0  0  0  0  0  0  0  0
  -21.8539   -9.1128   20.3543 C   0  0  0  0  0  0  0  0  0  0  0  0
  -23.5213   -8.6444   22.0388 C   0  0  0  0  0  0  0  0  0  0  0  0
  -26.8649  -27.8394   18.3156 C   0  0  0  0  0  0  0  0  0  0  0  0
  -27.9763  -21.1413   19.0226 C   0  0  0  0  0  0  0  0  0  0  0  0
  -21.0573   -6.7056   23.2996 C   0  0  0  0  0  0  0  0  0  0  0  0
  -20.9022   -6.0597   24.5262 C   0  0  0  0  0  0  0  0  0  0  0  0
  -25.8059  -27.0898   20.3563 C   0  0  0  0  0  0  0  0  0  0  0  0
  -27.4145  -20.8419   21.7388 C   0  0  0  0  0  0  0  0  0  0  0  0
  -22.6427   -4.4964   23.9231 C   0  0  0  0  0  0  0  0  0  0  0  0
  -23.2257  -10.9003   21.2262 C   0  0  0  0  0  0  0  0  0  0  0  0
  -23.0571  -13.3043   22.0629 C   0  0  0  0  0  0  0  0  0  0  0  0
  -25.2695  -36.8531   22.1696 C   0  0  0  0  0  0  0  0  0  0  0  0
  -26.2334  -29.4516   20.0037 C   0  0  0  0  0  0  0  0  0  0  0  0
  -26.0492  -35.6973   22.3661 C   0  0  0  0  0  0  0  0  0  0  0  0
  -25.7336  -28.4115   20.8044 C   0  0  0  0  0  0  0  0  0  0  0  0
  -27.4354  -19.7249   20.9037 C   0  0  0  0  0  0  0  0  0  0  0  0
  -22.5082   -8.2047   21.1866 C   0  0  0  0  0  0  0  0  0  0  0  0
  -26.3658  -26.8071   19.1104 C   0  0  0  0  0  0  0  0  0  0  0  0
  -22.0050   -6.2468   22.3848 C   0  0  0  0  0  0  0  0  0  0  0  0
  -27.9554  -22.2583   19.8578 C   0  0  0  0  0  0  0  0  0  0  0  0
  -21.6949   -4.9552   24.8380 C   0  0  0  0  0  0  0  0  0  0  0  0
  -27.6745  -22.1086   21.2159 C   0  0  0  0  0  0  0  0  0  0  0  0
  -22.7977   -5.1422   22.6965 C   0  0  0  0  0  0  0  0  0  0  0  0
  -23.5970  -12.2924   21.2467 C   0  0  0  0  0  0  0  0  0  0  0  0
  -23.7419  -14.4388   21.7016 C   0  0  0  0  0  0  0  0  0  0  0  0
  -22.0285  -13.2258   23.0587 C   0  0  0  0  0  0  0  0  0  0  0  0
  -25.2935  -32.0831   22.5073 C   0  0  0  0  0  0  0  0  0  0  0  0
  -22.9871  -30.0621   22.4304 C   0  0  0  0  0  0  0  0  0  0  0  0
  -20.4881  -27.8448   21.7404 C   0  0  0  0  0  0  0  0  0  0  0  0
  -28.8553  -16.6829   20.6371 C   0  0  0  0  0  0  0  0  0  0  0  0
  -23.8836  -36.9832   22.7501 C   0  0  0  0  0  0  0  0  0  0  0  0
  -26.2053  -30.8522   20.5527 C   0  0  0  0  0  0  0  0  0  0  0  0
  -25.1570  -28.7692   22.1469 C   0  0  0  0  0  0  0  0  0  0  0  0
  -23.2661  -35.6480   23.1577 C   0  0  0  0  0  0  0  0  0  0  0  0
  -26.8563  -15.3331   17.8293 C   0  0  0  0  0  0  0  0  0  0  0  0
  -24.2701  -34.8145   23.9476 C   0  0  0  0  0  0  0  0  0  0  0  0
  -25.8338  -14.4501   18.5426 C   0  0  0  0  0  0  0  0  0  0  0  0
  -28.1570  -15.4460   18.6187 C   0  0  0  0  0  0  0  0  0  0  0  0
  -26.9497  -15.0241   20.7349 C   0  0  0  0  0  0  0  0  0  0  0  0
  -25.5061  -34.4903   23.0999 C   0  0  1  0  0  0  0  0  0  0  0  0
  -24.9456  -31.1485   21.3862 C   0  0  1  0  0  0  0  0  0  0  0  0
  -25.6107  -14.9272   19.9883 C   0  0  2  0  0  0  0  0  0  0  0  0
  -18.1455  -27.2456   22.4117 C   0  0  0  0  0  0  0  0  0  0  0  0
  -24.0508  -28.7833   24.9872 C   0  0  0  0  0  0  0  0  0  0  0  0
  -21.9435  -27.4369   25.1063 C   0  0  0  0  0  0  0  0  0  0  0  0
  -21.8399  -29.9260   25.2336 C   0  0  0  0  0  0  0  0  0  0  0  0
  -29.2452  -17.9553   22.7128 C   0  0  0  0  0  0  0  0  0  0  0  0
  -19.4540  -28.3482   19.0135 C   0  0  0  0  0  0  0  0  0  0  0  0
  -27.1596  -18.3701   21.4621 C   0  0  0  0  0  0  0  0  0  0  0  0
  -27.4995  -25.1827   17.7937 C   0  0  0  0  0  0  0  0  0  1  0  0
  -27.8499  -23.7197   17.9845 C   0  0  0  0  0  0  0  0  0  0  0  0
  -22.3742  -28.8190   23.0242 C   0  0  1  0  0  0  0  0  0  0  0  0
  -19.0114  -28.0484   21.4533 C   0  0  2  0  0  0  0  0  0  0  0  0
  -22.5687  -28.7401   24.5648 C   0  0  0  0  0  0  0  0  0  0  0  0
  -24.5512  -12.7441   20.4284 N   0  0  0  0  0  0  0  0  0  0  0  0
  -24.6161  -14.0525   20.7286 N   0  0  0  0  0  0  0  0  0  0  0  0
  -24.3264  -29.9781   22.0310 N   0  0  0  0  0  0  0  0  0  0  0  0
  -27.9122  -15.8592   20.0009 N   0  0  0  0  0  0  0  0  0  0  0  0
  -23.6755  -15.7191   22.1245 N   0  0  0  0  0  0  0  0  0  0  0  0
  -21.4299  -11.9826   23.3044 N   0  0  0  0  0  0  0  0  0  0  0  0
  -25.2146  -33.4208   22.1696 N   0  0  0  0  0  0  0  0  0  0  0  0
  -20.9793  -28.8075   22.5967 N   0  0  0  0  0  0  0  0  0  0  0  0
  -28.3748  -17.5721   21.6103 N   0  0  0  0  0  0  0  0  0  0  0  0
  -18.6909  -27.6228   20.0615 N   0  3  0  0  0  0  0  0  0  0  0  0
  -21.6400  -14.2317   23.6996 O   0  0  0  0  0  0  0  0  0  0  0  0
  -25.6091  -31.6257   23.5994 O   0  0  0  0  0  0  0  0  0  0  0  0
  -22.3010  -31.0828   22.3276 O   0  0  0  0  0  0  0  0  0  0  0  0
  -21.1397  -26.9218   21.2566 O   0  0  0  0  0  0  0  0  0  0  0  0
  -30.0570  -16.6336   20.3446 O   0  0  0  0  0  0  0  0  0  0  0  0
  -22.1584   -6.8895   21.1678 O   0  0  0  0  0  0  0  0  0  0  0  0
  -26.4216  -25.5211   18.6655 O   0  0  0  0  0  0  0  0  0  1  0  0
  -28.2115  -23.5018   19.3429 O   0  0  0  0  0  0  0  0  0  0  0  0
  -21.5469   -4.3360   26.0165 F   0  0  0  0  0  0  0  0  0  0  0  0
  -27.6533  -23.1780   22.0232 F   0  0  0  0  0  0  0  0  0  0  0  0
  -23.7107   -4.6976   21.8221 F   0  0  0  0  0  0  0  0  0  0  0  0
  1  2  1  0  0  0  0
  1  5  2  0  0  0  0
  2  6  2  0  0  0  0
  3  9  2  0  0  0  0
  3 18  1  0  0  0  0
  4 10  1  0  0  0  0
  4 18  2  0  0  0  0
  5 20  1  0  0  0  0
  6 22  1  0  0  0  0
  7 11  2  0  0  0  0
  7 21  1  0  0  0  0
  8 12  2  0  0  0  0
  8 24  1  0  0  0  0
  9 25  1  0  0  0  0
 10 25  2  0  0  0  0
 11 26  1  0  0  0  0
 12 28  1  0  0  0  0
 13 14  2  0  0  0  0
 13 27  1  0  0  0  0
 14 29  1  0  0  0  0
 15 23  1  0  0  0  0
 15 26  2  0  0  0  0
 16 24  2  0  0  0  0
 16 30  1  0  0  0  0
 17 29  2  0  0  0  0
 17 31  1  0  0  0  0
 18 32  1  0  0  0  0
 19 32  1  0  0  0  0
 19 33  2  0  0  0  0
 19 34  1  0  0  0  0
 20 22  2  0  0  0  0
 20 39  1  0  0  0  0
 21 23  2  0  0  0  0
 21 40  1  0  0  0  0
 22 48  1  0  0  0  0
 23 41  1  0  0  0  0
 24 57  1  0  0  0  0
 25 78  1  0  0  0  0
 26 79  1  0  0  0  0
 27 31  2  0  0  0  0
 27 78  1  0  0  0  0
 28 30  2  0  0  0  0
 28 80  1  0  0  0  0
 29 81  1  0  0  0  0
 30 82  1  0  0  0  0
 31 83  1  0  0  0  0
 32 63  2  0  0  0  0
 33 64  1  0  0  0  0
 33 67  1  0  0  0  0
 34 68  1  0  0  0  0
 34 73  2  0  0  0  0
 35 49  1  0  0  0  0
 35 69  1  0  0  0  0
 35 74  2  0  0  0  0
 36 60  1  0  0  0  0
 36 65  1  0  0  0  0
 36 75  2  0  0  0  0
 37 61  1  0  0  0  0
 37 70  1  0  0  0  0
 37 76  2  0  0  0  0
 38 66  1  0  0  0  0
 38 71  1  0  0  0  0
 38 77  2  0  0  0  0
 39 42  1  0  0  0  0
 40 49  1  0  0  0  0
 41 65  1  0  0  0  0
 42 44  1  0  0  0  0
 43 45  1  0  0  0  0
 43 46  1  0  0  0  0
 44 48  1  0  0  0  0
 45 50  1  0  0  0  0
 46 66  1  0  0  0  0
 47 50  1  0  0  0  0
 47 66  1  0  0  0  0
 48 69  1  0  0  0  0
 49 65  1  0  0  0  0
 50 64  1  0  0  0  0
 51 61  1  0  0  0  0
 52 62  1  0  0  0  0
 53 62  1  0  0  0  0
 54 62  1  0  0  0  0
 55 71  1  0  0  0  0
 56 72  1  0  0  0  0
 57 71  1  0  0  0  0
 58 59  1  0  0  0  0
 58 79  1  0  0  0  0
 59 80  1  0  0  0  0
 60 62  1  0  0  0  0
 60 70  1  0  0  0  0
 61 72  1  0  0  0  0
 63 64  1  0  0  0  0
M  CHG  1  72   1
M  ISO  4  38 100  58 101  71 100  79 101
M  END
> <Batch ID>
0010

> <Smiles>
CNC(C)C(=O)NC(C(=O)N1Cc2cc([101O:1][101CH2:1]COc3ccc(C[100N:0](C)[100C:0](=O)N4CCCC(n5nc(-c6ccc(Oc7ccc(F)cc7F)cc6)c(C(N)=O)c5N)C4)cc3F)ccc2CC1C(=O)NC1CCCc2ccccc21)C(C)(C)C

> <Shape>
0.337

> <Color>
0.102

> <Negative vol penalty>
0.000

$$$$

  -OEChem-04042320403D

 81 89  0     1  0  0  0  0  0999 V2000
  -17.8540  -29.6878   23.1857 C   0  0  0  0  0  0  0  0  0  0  0  0
  -19.1649  -29.7684   22.7269 C   0  0  0  0  0  0  0  0  0  0  0  0
  -31.7303  -21.4327   15.9982 C   0  0  0  0  0  0  0  0  0  0  0  0
  -26.5309  -12.8368   21.6530 C   0  0  0  0  0  0  0  0  0  0  0  0
  -26.1580  -13.8986   19.5151 C   0  0  0  0  0  0  0  0  0  0  0  0
  -17.4210  -28.5458   23.8584 C   0  0  0  0  0  0  0  0  0  0  0  0
  -20.0440  -28.7074   22.9415 C   0  0  0  0  0  0  0  0  0  0  0  0
  -24.5117  -26.8148   19.2048 C   0  0  0  0  0  0  0  0  0  0  0  0
  -31.6956  -22.8046   16.2476 C   0  0  0  0  0  0  0  0  0  0  0  0
  -31.6002  -20.5287   17.0525 C   0  0  0  0  0  0  0  0  0  0  0  0
  -25.2611  -12.2631   21.5896 C   0  0  0  0  0  0  0  0  0  0  0  0
  -24.8881  -13.3249   19.4516 C   0  0  0  0  0  0  0  0  0  0  0  0
  -25.8862  -27.0482   19.1927 C   0  0  0  0  0  0  0  0  0  0  0  0
  -23.7851   -9.6450   20.0403 C   0  0  0  0  0  0  0  0  0  0  0  0
  -23.6654   -8.2966   20.3767 C   0  0  0  0  0  0  0  0  0  0  0  0
  -26.2427  -24.9745   20.3724 C   0  0  0  0  0  0  0  0  0  0  0  0
  -31.4006  -22.3685   18.6056 C   0  0  0  0  0  0  0  0  0  0  0  0
  -22.1382   -8.8763   22.1569 C   0  0  0  0  0  0  0  0  0  0  0  0
  -26.9793  -13.6546   20.6158 C   0  0  0  0  0  0  0  0  0  0  0  0
  -29.4957  -13.7021   20.1994 C   0  0  0  0  0  0  0  0  0  0  0  0
  -18.2925  -27.4664   24.0728 C   0  0  0  0  0  0  0  0  0  0  0  0
  -23.9907  -25.6628   19.8115 C   0  0  0  0  0  0  0  0  0  0  0  0
  -19.6226  -27.5505   23.6189 C   0  0  0  0  0  0  0  0  0  0  0  0
  -24.8615  -24.7275   20.3887 C   0  0  0  0  0  0  0  0  0  0  0  0
  -31.5307  -23.2726   17.5512 C   0  0  0  0  0  0  0  0  0  0  0  0
  -31.4353  -20.9966   18.3561 C   0  0  0  0  0  0  0  0  0  0  0  0
  -24.4397  -12.5071   20.4889 C   0  0  0  0  0  0  0  0  0  0  0  0
  -26.7517  -26.1294   19.7791 C   0  0  0  0  0  0  0  0  0  0  0  0
  -23.0814  -10.6091   20.7623 C   0  0  0  0  0  0  0  0  0  0  0  0
  -22.8420   -7.9123   21.4350 C   0  0  0  0  0  0  0  0  0  0  0  0
  -22.2580  -10.2247   21.8205 C   0  0  0  0  0  0  0  0  0  0  0  0
  -28.2907  -14.2480   20.6810 C   0  0  0  0  0  0  0  0  0  0  0  0
  -30.4457  -14.6468   20.5020 C   0  0  0  0  0  0  0  0  0  0  0  0
  -29.7348  -12.4528   19.5377 C   0  0  0  0  0  0  0  0  0  0  0  0
  -22.0279  -25.1033   22.2483 C   0  0  0  0  0  0  0  0  0  0  0  0
  -22.2909  -22.0289   21.2477 C   0  0  0  0  0  0  0  0  0  0  0  0
  -24.1085  -19.6701   19.5806 C   0  0  0  0  0  0  0  0  0  0  0  0
  -31.1319  -20.3750   20.7785 C   0  0  0  0  0  0  0  0  0  0  0  0
  -17.7924  -26.2723   24.8466 C   0  0  0  0  0  0  0  0  0  0  0  0
  -22.5077  -25.4125   19.7927 C   0  0  0  0  0  0  0  0  0  0  0  0
  -24.3542  -23.4652   21.0350 C   0  0  0  0  0  0  0  0  0  0  0  0
  -18.6801  -25.0387   24.7039 C   0  0  0  0  0  0  0  0  0  0  0  0
  -30.7288  -18.4002   23.7136 C   0  0  0  0  0  0  0  0  0  0  0  0
  -20.1477  -25.4133   24.8847 C   0  0  0  0  0  0  0  0  0  0  0  0
  -30.1768  -17.0742   23.1854 C   0  0  0  0  0  0  0  0  0  0  0  0
  -30.1776  -19.5940   22.9359 C   0  0  0  0  0  0  0  0  0  0  0  0
  -29.7887  -18.1883   20.9505 C   0  0  0  0  0  0  0  0  0  0  0  0
  -20.5990  -26.4103   23.8106 C   0  0  1  0  0  0  0  0  0  0  0  0
  -22.0487  -24.4586   20.8912 C   0  0  1  0  0  0  0  0  0  0  0  0
  -30.3655  -16.9527   21.6605 C   0  0  2  0  0  0  0  0  0  0  0  0
  -24.0850  -17.2376   18.9640 C   0  0  0  0  0  0  0  0  0  0  0  0
  -23.0930  -21.3006   24.1001 C   0  0  0  0  0  0  0  0  0  0  0  0
  -23.9578  -19.1198   23.2259 C   0  0  0  0  0  0  0  0  0  0  0  0
  -21.5361  -19.6769   23.0074 C   0  0  0  0  0  0  0  0  0  0  0  0
  -24.0927  -20.2848   16.6856 C   0  0  0  0  0  0  0  0  0  0  0  0
  -31.4934  -24.7483   17.8189 C   0  0  0  0  0  0  0  0  0  0  0  0
  -30.0622  -26.7014   18.4321 C   0  0  0  0  0  0  0  0  0  0  0  0
  -28.6190  -27.0994   18.6708 C   0  0  0  0  0  0  0  0  0  1  0  0
  -23.2206  -20.8801   21.5559 C   0  0  1  0  0  0  0  0  0  0  0  0
  -23.7104  -18.6469   18.5322 C   0  0  2  0  0  0  0  0  0  0  0  0
  -22.9616  -20.2690   22.9619 C   0  0  0  0  0  0  0  0  0  0  0  0
  -28.4573  -15.4464   21.2466 N   0  0  0  0  0  0  0  0  0  0  0  0
  -29.7781  -15.6614   21.1225 N   0  0  0  0  0  0  0  0  0  0  0  0
  -22.8956  -23.2687   20.9967 N   0  0  0  0  0  0  0  0  0  0  0  0
  -30.3957  -19.4110   21.4993 N   0  0  0  0  0  0  0  0  0  0  0  0
  -31.7787  -14.7002   20.2952 N   0  0  0  0  0  0  0  0  0  0  0  0
  -28.6466  -11.6008   19.3052 N   0  0  0  0  0  0  0  0  0  0  0  0
  -31.3025  -20.0780   19.4268 N   0  0  0  0  0  0  0  0  0  0  0  0
  -20.8349  -25.7290   22.5557 N   0  0  0  0  0  0  0  0  0  0  0  0
  -23.0763  -19.9320   20.4565 N   0  0  0  0  0  0  0  0  0  0  0  0
  -24.3909  -18.9387   17.2389 N   0  3  0  0  0  0  0  0  0  0  0  0
  -30.1237  -25.2546   18.1043 N   0  3  0  0  0  0  0  0  0  0  0  0
  -30.8822  -12.0952   19.1784 O   0  0  0  0  0  0  0  0  0  0  0  0
  -23.0203  -25.0366   22.9641 O   0  0  0  0  0  0  0  0  0  0  0  0
  -21.0734  -21.8318   21.2233 O   0  0  0  0  0  0  0  0  0  0  0  0
  -25.2248  -20.1827   19.6208 O   0  0  0  0  0  0  0  0  0  0  0  0
  -31.6015  -21.3758   21.3262 O   0  0  0  0  0  0  0  0  0  0  0  0
  -23.2007  -11.9472   20.4266 O   0  0  0  0  0  0  0  0  0  0  0  0
  -28.0936  -26.3552   19.7692 O   0  0  0  0  0  0  0  0  0  1  0  0
  -22.7259   -6.6173   21.7569 F   0  0  0  0  0  0  0  0  0  0  0  0
  -21.5785  -11.1462   22.5169 F   0  0  0  0  0  0  0  0  0  0  0  0
  1  2  1  0  0  0  0
  1  6  2  0  0  0  0
  2  7  2  0  0  0  0
  3  9  2  0  0  0  0
  3 10  1  0  0  0  0
  4 11  2  0  0  0  0
  4 19  1  0  0  0  0
  5 12  1  0  0  0  0
  5 19  2  0  0  0  0
  6 21  1  0  0  0  0
  7 23  1  0  0  0  0
  8 13  2  0  0  0  0
  8 22  1  0  0  0  0
  9 25  1  0  0  0  0
 10 26  2  0  0  0  0
 11 27  1  0  0  0  0
 12 27  2  0  0  0  0
 13 28  1  0  0  0  0
 14 15  2  0  0  0  0
 14 29  1  0  0  0  0
 15 30  1  0  0  0  0
 16 24  1  0  0  0  0
 16 28  2  0  0  0  0
 17 25  2  0  0  0  0
 17 26  1  0  0  0  0
 18 30  2  0  0  0  0
 18 31  1  0  0  0  0
 19 32  1  0  0  0  0
 20 32  1  0  0  0  0
 20 33  2  0  0  0  0
 20 34  1  0  0  0  0
 21 23  2  0  0  0  0
 21 39  1  0  0  0  0
 22 24  2  0  0  0  0
 22 40  1  0  0  0  0
 23 48  1  0  0  0  0
 24 41  1  0  0  0  0
 25 56  1  0  0  0  0
 26 68  1  0  0  0  0
 27 78  1  0  0  0  0
 28 79  1  0  0  0  0
 29 31  2  0  0  0  0
 29 78  1  0  0  0  0
 30 80  1  0  0  0  0
 31 81  1  0  0  0  0
 32 62  2  0  0  0  0
 33 63  1  0  0  0  0
 33 66  1  0  0  0  0
 34 67  1  0  0  0  0
 34 73  2  0  0  0  0
 35 49  1  0  0  0  0
 35 69  1  0  0  0  0
 35 74  2  0  0  0  0
 36 59  1  0  0  0  0
 36 64  1  0  0  0  0
 36 75  2  0  0  0  0
 37 60  1  0  0  0  0
 37 70  1  0  0  0  0
 37 76  2  0  0  0  0
 38 65  1  0  0  0  0
 38 68  1  0  0  0  0
 38 77  2  0  0  0  0
 39 42  1  0  0  0  0
 40 49  1  0  0  0  0
 41 64  1  0  0  0  0
 42 44  1  0  0  0  0
 43 45  1  0  0  0  0
 43 46  1  0  0  0  0
 44 48  1  0  0  0  0
 45 50  1  0  0  0  0
 46 65  1  0  0  0  0
 47 50  1  0  0  0  0
 47 65  1  0  0  0  0
 48 69  1  0  0  0  0
 49 64  1  0  0  0  0
 50 63  1  0  0  0  0
 51 60  1  0  0  0  0
 52 61  1  0  0  0  0
 53 61  1  0  0  0  0
 54 61  1  0  0  0  0
 55 71  1  0  0  0  0
 56 72  1  0  0  0  0
 57 58  1  0  0  0  0
 57 72  1  0  0  0  0
 58 79  1  0  0  0  0
 59 61  1  0  0  0  0
 59 70  1  0  0  0  0
 60 71  1  0  0  0  0
 62 63  1  0  0  0  0
M  CHG  2  71   1  72   1
M  ISO  4  38 100  58 101  68 100  79 101
M  END
> <Batch ID>
0010

> <Smiles>
CNC(C)C(=O)NC(C(=O)N1Cc2cc([101O:1][101CH2:1]CNCc3cccc([100NH:0][100C:0](=O)N4CCCC(n5nc(-c6ccc(Oc7ccc(F)cc7F)cc6)c(C(N)=O)c5N)C4)c3)ccc2CC1C(=O)NC1CCCc2ccccc21)C(C)(C)C

> <Shape>
0.226

> <Color>
0.070

> <Negative vol penalty>
0.000

$$$$

  -OEChem-04042320403D

 82 90  0     1  0  0  0  0  0999 V2000
  -27.8938  -27.4801   18.2003 C   0  0  0  0  0  0  0  0  0  0  0  0
  -27.8743  -26.5855   19.2656 C   0  0  0  0  0  0  0  0  0  0  0  0
  -23.2885   -9.8001   19.9102 C   0  0  0  0  0  0  0  0  0  0  0  0
  -23.7426   -9.9359   22.2792 C   0  0  0  0  0  0  0  0  0  0  0  0
  -28.5863  -27.1582   17.0338 C   0  0  0  0  0  0  0  0  0  0  0  0
  -28.5464  -25.3679   19.1644 C   0  0  0  0  0  0  0  0  0  0  0  0
  -31.4239  -22.3667   23.6609 C   0  0  0  0  0  0  0  0  0  0  0  0
  -31.1408  -14.2685   26.1242 C   0  0  0  0  0  0  0  0  0  0  0  0
  -32.6924  -15.3634   24.6305 C   0  0  0  0  0  0  0  0  0  0  0  0
  -30.6496  -13.5126   25.0599 C   0  0  0  0  0  0  0  0  0  0  0  0
  -32.2011  -14.6074   23.5662 C   0  0  0  0  0  0  0  0  0  0  0  0
  -22.5640   -8.6261   20.1163 C   0  0  0  0  0  0  0  0  0  0  0  0
  -23.0180   -8.7619   22.4854 C   0  0  0  0  0  0  0  0  0  0  0  0
  -31.0395  -21.3003   24.4726 C   0  0  0  0  0  0  0  0  0  0  0  0
  -19.7725   -7.8461   22.7054 C   0  0  0  0  0  0  0  0  0  0  0  0
  -18.8717   -7.8209   23.7700 C   0  0  0  0  0  0  0  0  0  0  0  0
  -32.1587  -19.7696   22.9815 C   0  0  0  0  0  0  0  0  0  0  0  0
  -20.0813   -5.9730   24.7496 C   0  0  0  0  0  0  0  0  0  0  0  0
  -23.8779  -10.4549   20.9916 C   0  0  0  0  0  0  0  0  0  0  0  0
  -24.1337  -12.9857   20.7984 C   0  0  0  0  0  0  0  0  0  0  0  0
  -29.2753  -25.9402   16.9219 C   0  0  0  0  0  0  0  0  0  0  0  0
  -32.1705  -22.1410   22.4956 C   0  0  0  0  0  0  0  0  0  0  0  0
  -29.2476  -25.0289   17.9948 C   0  0  0  0  0  0  0  0  0  0  0  0
  -32.5535  -20.8351   22.1580 C   0  0  0  0  0  0  0  0  0  0  0  0
  -32.1622  -15.1940   25.9095 C   0  0  0  0  0  0  0  0  0  0  0  0
  -31.1797  -13.6820   23.7809 C   0  0  0  0  0  0  0  0  0  0  0  0
  -22.4287   -8.1071   21.4039 C   0  0  0  0  0  0  0  0  0  0  0  0
  -31.4045  -20.0013   24.1314 C   0  0  0  0  0  0  0  0  0  0  0  0
  -20.8276   -6.9348   22.6627 C   0  0  0  0  0  0  0  0  0  0  0  0
  -19.0261   -6.8843   24.7921 C   0  0  0  0  0  0  0  0  0  0  0  0
  -20.9820   -5.9983   23.6848 C   0  0  0  0  0  0  0  0  0  0  0  0
  -24.6269  -11.6673   20.7793 C   0  0  0  0  0  0  0  0  0  0  0  0
  -25.2337  -13.7676   20.5436 C   0  0  0  0  0  0  0  0  0  0  0  0
  -22.8003  -13.4611   21.0262 C   0  0  0  0  0  0  0  0  0  0  0  0
  -31.6886  -22.6327   19.3924 C   0  0  0  0  0  0  0  0  0  0  0  0
  -34.7753  -21.6637   19.1572 C   0  0  0  0  0  0  0  0  0  0  0  0
  -37.3730  -19.9115   20.5095 C   0  0  0  0  0  0  0  0  0  0  0  0
  -31.0963  -12.9591   21.3691 C   0  0  0  0  0  0  0  0  0  0  0  0
  -29.9704  -25.6160   15.6234 C   0  0  0  0  0  0  0  0  0  0  0  0
  -32.6001  -23.3047   21.6448 C   0  0  0  0  0  0  0  0  0  0  0  0
  -33.3721  -20.5415   20.9283 C   0  0  0  0  0  0  0  0  0  0  0  0
  -30.9690  -24.4670   15.7373 C   0  0  0  0  0  0  0  0  0  0  0  0
  -29.4575  -13.6684   18.2888 C   0  0  0  0  0  0  0  0  0  0  0  0
  -30.3538  -23.2990   16.5016 C   0  0  0  0  0  0  0  0  0  0  0  0
  -27.9870  -13.3615   18.5814 C   0  0  0  0  0  0  0  0  0  0  0  0
  -30.3930  -12.6928   19.0006 C   0  0  0  0  0  0  0  0  0  0  0  0
  -28.7029  -12.2586   20.7397 C   0  0  0  0  0  0  0  0  0  0  0  0
  -29.9852  -23.7089   17.9325 C   0  0  1  0  0  0  0  0  0  0  0  0
  -32.9207  -22.9077   20.2072 C   0  0  1  0  0  0  0  0  0  0  0  0
  -27.7243  -13.2547   20.0964 C   0  0  2  0  0  0  0  0  0  0  0  0
  -39.7589  -19.2713   20.0682 C   0  0  0  0  0  0  0  0  0  0  0  0
  -33.8411  -19.6015   17.1116 C   0  0  0  0  0  0  0  0  0  0  0  0
  -36.0192  -18.4072   17.4243 C   0  0  0  0  0  0  0  0  0  0  0  0
  -35.9932  -20.7389   16.5380 C   0  0  0  0  0  0  0  0  0  0  0  0
  -38.3157  -21.2861   22.9550 C   0  0  0  0  0  0  0  0  0  0  0  0
  -33.5470  -18.2699   27.6431 C   0  0  0  0  0  0  0  0  0  0  0  0
  -32.6905  -16.0070   27.0544 C   0  0  0  0  0  0  0  0  0  0  0  0
  -31.1368  -17.9523   27.1031 C   0  0  0  0  0  0  0  0  0  0  0  0
  -30.8786  -19.2219   26.3159 C   0  0  0  0  0  0  0  0  0  1  0  0
  -35.4678  -20.3344   18.9778 C   0  0  1  0  0  0  0  0  0  0  0  0
  -38.8297  -20.2781   20.7283 C   0  0  2  0  0  0  0  0  0  0  0  0
  -35.3133  -19.7755   17.5352 C   0  0  0  0  0  0  0  0  0  0  0  0
  -25.9382  -11.6110   20.5317 N   0  0  0  0  0  0  0  0  0  0  0  0
  -26.2783  -12.9037   20.3929 N   0  0  0  0  0  0  0  0  0  0  0  0
  -33.7623  -21.7122   20.1253 N   0  0  0  0  0  0  0  0  0  0  0  0
  -30.0883  -12.6472   20.4324 N   0  0  0  0  0  0  0  0  0  0  0  0
  -25.3998  -15.1030   20.4360 N   0  0  0  0  0  0  0  0  0  0  0  0
  -21.7893  -12.5223   21.2731 N   0  0  0  0  0  0  0  0  0  0  0  0
  -30.6811  -12.9140   22.6995 N   0  0  0  0  0  0  0  0  0  0  0  0
  -31.1669  -23.7491   18.7671 N   0  0  0  0  0  0  0  0  0  0  0  0
  -36.8511  -20.5350   19.3959 N   0  0  0  0  0  0  0  0  0  0  0  0
  -39.1403  -20.3194   22.1852 N   0  3  0  0  0  0  0  0  0  0  0  0
  -32.5256  -17.4927   26.8501 N   0  3  1  0  0  0  0  0  0  0  0  0
  -22.5108  -14.6812   20.9951 O   0  0  0  0  0  0  0  0  0  0  0  0
  -31.2449  -21.4919   19.3341 O   0  0  0  0  0  0  0  0  0  0  0  0
  -35.1253  -22.6257   18.4688 O   0  0  0  0  0  0  0  0  0  0  0  0
  -36.7604  -19.1455   21.2502 O   0  0  0  0  0  0  0  0  0  0  0  0
  -32.2363  -13.2717   21.0157 O   0  0  0  0  0  0  0  0  0  0  0  0
  -21.7216   -6.9617   21.6055 O   0  0  0  0  0  0  0  0  0  0  0  0
  -31.0301  -18.9585   24.9217 O   0  0  0  0  0  0  0  0  0  1  0  0
  -18.1619   -6.8612   25.8153 F   0  0  0  0  0  0  0  0  0  0  0  0
  -21.9945   -5.1210   23.6500 F   0  0  0  0  0  0  0  0  0  0  0  0
  1  2  1  0  0  0  0
  1  5  2  0  0  0  0
  2  6  2  0  0  0  0
  3 12  2  0  0  0  0
  3 19  1  0  0  0  0
  4 13  1  0  0  0  0
  4 19  2  0  0  0  0
  5 21  1  0  0  0  0
  6 23  1  0  0  0  0
  7 14  2  0  0  0  0
  7 22  1  0  0  0  0
  8 10  2  0  0  0  0
  8 25  1  0  0  0  0
  9 11  1  0  0  0  0
  9 25  2  0  0  0  0
 10 26  1  0  0  0  0
 11 26  2  0  0  0  0
 12 27  1  0  0  0  0
 13 27  2  0  0  0  0
 14 28  1  0  0  0  0
 15 16  2  0  0  0  0
 15 29  1  0  0  0  0
 16 30  1  0  0  0  0
 17 24  1  0  0  0  0
 17 28  2  0  0  0  0
 18 30  2  0  0  0  0
 18 31  1  0  0  0  0
 19 32  1  0  0  0  0
 20 32  1  0  0  0  0
 20 33  2  0  0  0  0
 20 34  1  0  0  0  0
 21 23  2  0  0  0  0
 21 39  1  0  0  0  0
 22 24  2  0  0  0  0
 22 40  1  0  0  0  0
 23 48  1  0  0  0  0
 24 41  1  0  0  0  0
 25 57  1  0  0  0  0
 26 69  1  0  0  0  0
 27 79  1  0  0  0  0
 28 80  1  0  0  0  0
 29 31  2  0  0  0  0
 29 79  1  0  0  0  0
 30 81  1  0  0  0  0
 31 82  1  0  0  0  0
 32 63  2  0  0  0  0
 33 64  1  0  0  0  0
 33 67  1  0  0  0  0
 34 68  1  0  0  0  0
 34 74  2  0  0  0  0
 35 49  1  0  0  0  0
 35 70  1  0  0  0  0
 35 75  2  0  0  0  0
 36 60  1  0  0  0  0
 36 65  1  0  0  0  0
 36 76  2  0  0  0  0
 37 61  1  0  0  0  0
 37 71  1  0  0  0  0
 37 77  2  0  0  0  0
 38 66  1  0  0  0  0
 38 69  1  0  0  0  0
 38 78  2  0  0  0  0
 39 42  1  0  0  0  0
 40 49  1  0  0  0  0
 41 65  1  0  0  0  0
 42 44  1  0  0  0  0
 43 45  1  0  0  0  0
 43 46  1  0  0  0  0
 44 48  1  0  0  0  0
 45 50  1  0  0  0  0
 46 66  1  0  0  0  0
 47 50  1  0  0  0  0
 47 66  1  0  0  0  0
 48 70  1  0  0  0  0
 49 65  1  0  0  0  0
 50 64  1  0  0  0  0
 51 61  1  0  0  0  0
 52 62  1  0  0  0  0
 53 62  1  0  0  0  0
 54 62  1  0  0  0  0
 55 72  1  0  0  0  0
 56 73  1  0  0  0  0
 57 73  1  0  0  0  0
 58 59  1  0  0  0  0
 58 73  1  0  0  0  0
 59 80  1  0  0  0  0
 60 62  1  0  0  0  0
 60 71  1  0  0  0  0
 61 72  1  0  0  0  0
 63 64  1  0  0  0  0
M  CHG  2  72   1  73   1
M  ISO  4  38 100  59 101  69 100  80 101
M  END
> <Batch ID>
0010

> <Smiles>
CNC(C)C(=O)NC(C(=O)N1Cc2cc([101O:1][101CH2:1]CN(C)Cc3ccc([100NH:0][100C:0](=O)N4CCCC(n5nc(-c6ccc(Oc7ccc(F)cc7F)cc6)c(C(N)=O)c5N)C4)cc3)ccc2CC1C(=O)NC1CCCc2ccccc21)C(C)(C)C

> <Shape>
0.177

> <Color>
0.174

> <Negative vol penalty>
0.000

$$$$

  -OEChem-04042320403D

 81 89  0     1  0  0  0  0  0999 V2000
  -17.7155  -33.3419   18.0836 C   0  0  0  0  0  0  0  0  0  0  0  0
  -18.9138  -32.9824   17.4751 C   0  0  0  0  0  0  0  0  0  0  0  0
  -24.8012  -10.2786   22.6259 C   0  0  0  0  0  0  0  0  0  0  0  0
  -24.4888  -11.7693   24.5013 C   0  0  0  0  0  0  0  0  0  0  0  0
  -17.7254  -33.9232   19.3508 C   0  0  0  0  0  0  0  0  0  0  0  0
  -20.1229  -33.2051   18.1332 C   0  0  0  0  0  0  0  0  0  0  0  0
  -24.6112  -27.7615   19.5870 C   0  0  0  0  0  0  0  0  0  0  0  0
  -29.5131  -20.7821   21.9189 C   0  0  0  0  0  0  0  0  0  0  0  0
  -24.3855   -9.2034   23.4112 C   0  0  0  0  0  0  0  0  0  0  0  0
  -24.0729  -10.6941   25.2866 C   0  0  0  0  0  0  0  0  0  0  0  0
  -25.6185  -26.8047   19.7133 C   0  0  0  0  0  0  0  0  0  0  0  0
  -29.3851  -22.1504   22.1577 C   0  0  0  0  0  0  0  0  0  0  0  0
  -21.4645   -7.9153   24.5255 C   0  0  0  0  0  0  0  0  0  0  0  0
  -20.5567   -7.0164   23.9656 C   0  0  0  0  0  0  0  0  0  0  0  0
  -27.0248  -28.4182   20.8389 C   0  0  0  0  0  0  0  0  0  0  0  0
  -27.1423  -20.6374   21.4769 C   0  0  0  0  0  0  0  0  0  0  0  0
  -22.1505   -5.2245   24.2582 C   0  0  0  0  0  0  0  0  0  0  0  0
  -24.8529  -11.5615   23.1710 C   0  0  0  0  0  0  0  0  0  0  0  0
  -24.4755  -13.5061   21.5635 C   0  0  0  0  0  0  0  0  0  0  0  0
  -18.9346  -34.1443   20.0288 C   0  0  0  0  0  0  0  0  0  0  0  0
  -24.8012  -29.0475   20.1004 C   0  0  0  0  0  0  0  0  0  0  0  0
  -20.1490  -33.7912   19.4101 C   0  0  0  0  0  0  0  0  0  0  0  0
  -26.0146  -29.3772   20.7264 C   0  0  0  0  0  0  0  0  0  0  0  0
  -28.3917  -20.0256   21.5784 C   0  0  0  0  0  0  0  0  0  0  0  0
  -24.0213   -9.4111   24.7416 C   0  0  0  0  0  0  0  0  0  0  0  0
  -26.8224  -27.1323   20.3375 C   0  0  0  0  0  0  0  0  0  0  0  0
  -22.7154   -7.4688   24.9517 C   0  0  0  0  0  0  0  0  0  0  0  0
  -28.1357  -22.7621   22.0562 C   0  0  0  0  0  0  0  0  0  0  0  0
  -20.8997   -5.6710   23.8320 C   0  0  0  0  0  0  0  0  0  0  0  0
  -27.0143  -22.0057   21.7158 C   0  0  0  0  0  0  0  0  0  0  0  0
  -23.0584   -6.1234   24.8181 C   0  0  0  0  0  0  0  0  0  0  0  0
  -25.2829  -12.6725   22.3604 C   0  0  0  0  0  0  0  0  0  0  0  0
  -25.3542  -14.3993   21.0010 C   0  0  0  0  0  0  0  0  0  0  0  0
  -23.0579  -13.4758   21.3509 C   0  0  0  0  0  0  0  0  0  0  0  0
  -23.3724  -32.4735   20.6455 C   0  0  0  0  0  0  0  0  0  0  0  0
  -24.8881  -31.7227   23.2046 C   0  0  0  0  0  0  0  0  0  0  0  0
  -26.3005  -30.3471   25.9886 C   0  0  0  0  0  0  0  0  0  0  0  0
  -29.6878  -17.8733   21.3941 C   0  0  0  0  0  0  0  0  0  0  0  0
  -18.8980  -34.8190   21.3772 C   0  0  0  0  0  0  0  0  0  0  0  0
  -23.7676  -30.1278   19.9324 C   0  0  0  0  0  0  0  0  0  0  0  0
  -26.1880  -30.7830   21.2329 C   0  0  0  0  0  0  0  0  0  0  0  0
  -20.1981  -34.6777   22.1645 C   0  0  0  0  0  0  0  0  0  0  0  0
  -30.4150  -14.4228   20.9013 C   0  0  0  0  0  0  0  0  0  0  0  0
  -21.3979  -34.9814   21.2727 C   0  0  0  0  0  0  0  0  0  0  0  0
  -29.0782  -13.7284   21.1714 C   0  0  0  0  0  0  0  0  0  0  0  0
  -30.6319  -15.6163   21.8299 C   0  0  0  0  0  0  0  0  0  0  0  0
  -28.2019  -15.9022   22.1169 C   0  0  0  0  0  0  0  0  0  0  0  0
  -21.4794  -33.9940   20.1023 C   0  0  1  0  0  0  0  0  0  0  0  0
  -23.7025  -31.0923   21.1301 C   0  0  1  0  0  0  0  0  0  0  0  0
  -27.9093  -14.7331   21.1623 C   0  0  2  0  0  0  0  0  0  0  0  0
  -26.8460  -30.8668   28.3823 C   0  0  0  0  0  0  0  0  0  0  0  0
  -27.2368  -33.4417   22.2923 C   0  0  0  0  0  0  0  0  0  0  0  0
  -28.2509  -33.1347   24.5607 C   0  0  0  0  0  0  0  0  0  0  0  0
  -26.0517  -34.2882   24.3254 C   0  0  0  0  0  0  0  0  0  0  0  0
  -24.5818  -28.1504   26.9783 C   0  0  0  0  0  0  0  0  0  0  0  0
  -28.6649  -26.3010   21.5911 C   0  0  0  0  0  0  0  0  0  1  0  0
  -29.1408  -24.9163   21.9857 C   0  0  0  0  0  0  0  0  0  0  0  0
  -26.1840  -31.7882   23.9726 C   0  0  1  0  0  0  0  0  0  0  0  0
  -25.8232  -30.2708   27.4276 C   0  0  2  0  0  0  0  0  0  0  0  0
  -26.9242  -33.1407   23.7717 C   0  0  0  0  0  0  0  0  0  0  0  0
  -26.5752  -13.0063   22.3111 N   0  0  0  0  0  0  0  0  0  0  0  0
  -26.5866  -14.0595   21.4764 N   0  0  0  0  0  0  0  0  0  0  0  0
  -24.9536  -31.2347   21.8939 N   0  0  0  0  0  0  0  0  0  0  0  0
  -29.4868  -16.5270   21.7655 N   0  0  0  0  0  0  0  0  0  0  0  0
  -25.1853  -15.4344   20.1511 N   0  0  0  0  0  0  0  0  0  0  0  0
  -22.3048  -12.4921   22.0063 N   0  0  0  0  0  0  0  0  0  0  0  0
  -28.5216  -18.6356   21.3358 N   0  0  0  0  0  0  0  0  0  0  0  0
  -22.0175  -32.7263   20.5470 N   0  0  0  0  0  0  0  0  0  0  0  0
  -25.8510  -31.4898   25.3613 N   0  0  0  0  0  0  0  0  0  0  0  0
  -25.5846  -28.8529   27.8197 N   0  3  0  0  0  0  0  0  0  0  0  0
  -22.4784  -14.2864   20.5889 O   0  0  0  0  0  0  0  0  0  0  0  0
  -24.2795  -33.2539   20.3813 O   0  0  0  0  0  0  0  0  0  0  0  0
  -23.8455  -32.0986   23.7477 O   0  0  0  0  0  0  0  0  0  0  0  0
  -27.0049  -29.4816   25.4736 O   0  0  0  0  0  0  0  0  0  0  0  0
  -30.8084  -18.3104   21.1197 O   0  0  0  0  0  0  0  0  0  0  0  0
  -23.6153   -8.3622   25.5081 O   0  0  0  0  0  0  0  0  0  0  0  0
  -27.7998  -26.1921   20.4615 O   0  0  0  0  0  0  0  0  0  1  0  0
  -28.0119  -24.1064   22.2905 O   0  0  0  0  0  0  0  0  0  0  0  0
  -20.0272   -4.8077   23.2957 F   0  0  0  0  0  0  0  0  0  0  0  0
  -25.8115  -22.5881   21.6156 F   0  0  0  0  0  0  0  0  0  0  0  0
  -24.2582   -5.6883   25.2268 F   0  0  0  0  0  0  0  0  0  0  0  0
  1  2  1  0  0  0  0
  1  5  2  0  0  0  0
  2  6  2  0  0  0  0
  3  9  2  0  0  0  0
  3 18  1  0  0  0  0
  4 10  1  0  0  0  0
  4 18  2  0  0  0  0
  5 20  1  0  0  0  0
  6 22  1  0  0  0  0
  7 11  2  0  0  0  0
  7 21  1  0  0  0  0
  8 12  2  0  0  0  0
  8 24  1  0  0  0  0
  9 25  1  0  0  0  0
 10 25  2  0  0  0  0
 11 26  1  0  0  0  0
 12 28  1  0  0  0  0
 13 14  2  0  0  0  0
 13 27  1  0  0  0  0
 14 29  1  0  0  0  0
 15 23  1  0  0  0  0
 15 26  2  0  0  0  0
 16 24  2  0  0  0  0
 16 30  1  0  0  0  0
 17 29  2  0  0  0  0
 17 31  1  0  0  0  0
 18 32  1  0  0  0  0
 19 32  1  0  0  0  0
 19 33  2  0  0  0  0
 19 34  1  0  0  0  0
 20 22  2  0  0  0  0
 20 39  1  0  0  0  0
 21 23  2  0  0  0  0
 21 40  1  0  0  0  0
 22 48  1  0  0  0  0
 23 41  1  0  0  0  0
 24 67  1  0  0  0  0
 25 76  1  0  0  0  0
 26 77  1  0  0  0  0
 27 31  2  0  0  0  0
 27 76  1  0  0  0  0
 28 30  2  0  0  0  0
 28 78  1  0  0  0  0
 29 79  1  0  0  0  0
 30 80  1  0  0  0  0
 31 81  1  0  0  0  0
 32 61  2  0  0  0  0
 33 62  1  0  0  0  0
 33 65  1  0  0  0  0
 34 66  1  0  0  0  0
 34 71  2  0  0  0  0
 35 49  1  0  0  0  0
 35 68  1  0  0  0  0
 35 72  2  0  0  0  0
 36 58  1  0  0  0  0
 36 63  1  0  0  0  0
 36 73  2  0  0  0  0
 37 59  1  0  0  0  0
 37 69  1  0  0  0  0
 37 74  2  0  0  0  0
 38 64  1  0  0  0  0
 38 67  1  0  0  0  0
 38 75  2  0  0  0  0
 39 42  1  0  0  0  0
 40 49  1  0  0  0  0
 41 63  1  0  0  0  0
 42 44  1  0  0  0  0
 43 45  1  0  0  0  0
 43 46  1  0  0  0  0
 44 48  1  0  0  0  0
 45 50  1  0  0  0  0
 46 64  1  0  0  0  0
 47 50  1  0  0  0  0
 47 64  1  0  0  0  0
 48 68  1  0  0  0  0
 49 63  1  0  0  0  0
 50 62  1  0  0  0  0
 51 59  1  0  0  0  0
 52 60  1  0  0  0  0
 53 60  1  0  0  0  0
 54 60  1  0  0  0  0
 55 70  1  0  0  0  0
 56 57  1  0  0  0  0
 56 77  1  0  0  0  0
 57 78  1  0  0  0  0
 58 60  1  0  0  0  0
 58 69  1  0  0  0  0
 59 70  1  0  0  0  0
 61 62  1  0  0  0  0
M  CHG  1  70   1
M  ISO  4  38 100  56 101  67 100  77 101
M  END
> <Batch ID>
0010

> <Smiles>
CNC(C)C(=O)NC(C(=O)N1Cc2cc([101O:1][101CH2:1]COc3ccc([100NH:0][100C:0](=O)N4CCCC(n5nc(-c6ccc(Oc7ccc(F)cc7F)cc6)c(C(N)=O)c5N)C4)cc3F)ccc2CC1C(=O)NC1CCCc2ccccc21)C(C)(C)C

> <Shape>
0.265

> <Color>
0.145

> <Negative vol penalty>
0.000

$$$$

  -OEChem-04042320403D

 82 90  0     1  0  0  0  0  0999 V2000
  -19.9718  -28.8396   25.1160 C   0  0  0  0  0  0  0  0  0  0  0  0
  -19.9023  -27.8938   24.0981 C   0  0  0  0  0  0  0  0  0  0  0  0
  -23.7096  -15.8855   21.6585 C   0  0  0  0  0  0  0  0  0  0  0  0
  -23.0042  -15.1455   19.4694 C   0  0  0  0  0  0  0  0  0  0  0  0
  -20.9122  -29.8667   25.0487 C   0  0  0  0  0  0  0  0  0  0  0  0
  -20.7727  -27.9753   23.0117 C   0  0  0  0  0  0  0  0  0  0  0  0
  -25.2293  -22.5456   21.4153 C   0  0  0  0  0  0  0  0  0  0  0  0
  -31.1108  -16.0547   20.2067 C   0  0  0  0  0  0  0  0  0  0  0  0
  -22.8777  -16.9998   21.5499 C   0  0  0  0  0  0  0  0  0  0  0  0
  -22.1723  -16.2599   19.3608 C   0  0  0  0  0  0  0  0  0  0  0  0
  -25.9616  -21.4666   20.9197 C   0  0  0  0  0  0  0  0  0  0  0  0
  -30.8253  -17.3552   19.7912 C   0  0  0  0  0  0  0  0  0  0  0  0
  -20.6676  -19.8506   22.0006 C   0  0  0  0  0  0  0  0  0  0  0  0
  -19.8840  -20.1851   23.1050 C   0  0  0  0  0  0  0  0  0  0  0  0
  -26.8402  -22.8617   19.1506 C   0  0  0  0  0  0  0  0  0  0  0  0
  -29.7801  -17.8066   21.9221 C   0  0  0  0  0  0  0  0  0  0  0  0
  -18.8011  -18.0284   22.9898 C   0  0  0  0  0  0  0  0  0  0  0  0
  -23.7728  -14.9583   20.6182 C   0  0  0  0  0  0  0  0  0  0  0  0
  -24.3008  -12.5470   21.2622 C   0  0  0  0  0  0  0  0  0  0  0  0
  -21.8010  -29.9552   23.9657 C   0  0  0  0  0  0  0  0  0  0  0  0
  -25.3118  -23.7922   20.7887 C   0  0  0  0  0  0  0  0  0  0  0  0
  -21.7250  -29.0053   22.9292 C   0  0  0  0  0  0  0  0  0  0  0  0
  -26.1187  -23.9493   19.6499 C   0  0  0  0  0  0  0  0  0  0  0  0
  -30.7309  -15.6301   21.4799 C   0  0  0  0  0  0  0  0  0  0  0  0
  -22.1091  -17.1871   20.4010 C   0  0  0  0  0  0  0  0  0  0  0  0
  -26.7648  -21.6242   19.7900 C   0  0  0  0  0  0  0  0  0  0  0  0
  -30.1600  -18.2312   20.6489 C   0  0  0  0  0  0  0  0  0  0  0  0
  -20.5178  -18.6051   21.3907 C   0  0  0  0  0  0  0  0  0  0  0  0
  -18.9508  -19.2740   23.5997 C   0  0  0  0  0  0  0  0  0  0  0  0
  -30.0655  -16.5060   22.3376 C   0  0  0  0  0  0  0  0  0  0  0  0
  -19.5846  -17.6940   21.8854 C   0  0  0  0  0  0  0  0  0  0  0  0
  -24.6324  -13.8073   20.7296 C   0  0  0  0  0  0  0  0  0  0  0  0
  -25.4524  -11.8087   21.1397 C   0  0  0  0  0  0  0  0  0  0  0  0
  -23.0624  -12.0851   21.8179 C   0  0  0  0  0  0  0  0  0  0  0  0
  -24.2246  -27.3827   20.7446 C   0  0  0  0  0  0  0  0  0  0  0  0
  -27.2131  -27.3481   20.0532 C   0  0  0  0  0  0  0  0  0  0  0  0
  -30.5823  -26.9125   19.7437 C   0  0  0  0  0  0  0  0  0  0  0  0
  -31.1003  -13.2206   20.9805 C   0  0  0  0  0  0  0  0  0  0  0  0
  -22.7689  -31.1106   23.9135 C   0  0  0  0  0  0  0  0  0  0  0  0
  -24.4929  -24.9666   21.2514 C   0  0  0  0  0  0  0  0  0  0  0  0
  -26.1498  -25.2998   18.9880 C   0  0  0  0  0  0  0  0  0  0  0  0
  -23.9043  -30.9093   22.9131 C   0  0  0  0  0  0  0  0  0  0  0  0
  -29.3816  -11.4026   18.4538 C   0  0  0  0  0  0  0  0  0  0  0  0
  -23.3587  -30.4048   21.5809 C   0  0  0  0  0  0  0  0  0  0  0  0
  -27.9242  -11.7035   18.8017 C   0  0  0  0  0  0  0  0  0  0  0  0
  -30.2797  -12.6254   18.6441 C   0  0  0  0  0  0  0  0  0  0  0  0
  -28.7235  -13.5412   20.3364 C   0  0  0  0  0  0  0  0  0  0  0  0
  -22.6684  -29.0456   21.7466 C   0  0  1  0  0  0  0  0  0  0  0  0
  -25.2202  -26.3128   21.0842 C   0  0  1  0  0  0  0  0  0  0  0  0
  -27.8072  -12.3141   20.2094 C   0  0  1  0  0  0  0  0  0  0  0  0
  -32.7090  -28.1941   19.3800 C   0  0  0  0  0  0  0  0  0  0  0  0
  -26.5120  -27.6667   17.1018 C   0  0  0  0  0  0  0  0  0  0  0  0
  -28.9431  -28.0449   16.6382 C   0  0  0  0  0  0  0  0  0  0  0  0
  -27.6954  -29.6253   18.1106 C   0  0  0  0  0  0  0  0  0  0  0  0
  -31.4933  -14.0715   23.2820 C   0  0  0  0  0  0  0  0  0  0  0  0
  -31.6993  -26.0208   22.3352 C   0  0  0  0  0  0  0  0  0  0  0  0
  -28.7094  -20.8629   18.6513 C   0  0  0  0  0  0  0  0  0  1  0  0
  -29.6687  -19.7051   18.8483 C   0  0  0  0  0  0  0  0  0  0  0  0
  -28.2603  -27.3153   18.9689 C   0  0  1  0  0  0  0  0  0  0  0  0
  -31.7539  -27.6110   20.4099 C   0  0  2  0  0  0  0  0  0  0  0  0
  -27.8440  -28.1393   17.7178 C   0  0  0  0  0  0  0  0  0  0  0  0
  -25.8958  -13.8696   20.3008 N   0  0  0  0  0  0  0  0  0  0  0  0
  -26.3683  -12.6393   20.5640 N   0  0  0  0  0  0  0  0  0  0  0  0
  -26.2246  -26.3575   20.0080 N   0  0  0  0  0  0  0  0  0  0  0  0
  -30.1038  -13.1973   19.9865 N   0  0  0  0  0  0  0  0  0  0  0  0
  -25.7609  -10.5365   21.4696 N   0  0  0  0  0  0  0  0  0  0  0  0
  -21.9796  -12.9736   21.8673 N   0  0  0  0  0  0  0  0  0  0  0  0
  -23.6515  -27.9883   21.8466 N   0  0  0  0  0  0  0  0  0  0  0  0
  -29.5042  -27.7582   19.5893 N   0  0  0  0  0  0  0  0  0  0  0  0
  -31.0279  -14.2830   21.9071 N   0  0  0  0  0  0  0  0  0  0  0  0
  -32.5112  -26.6524   21.2634 N   0  3  0  0  0  0  0  0  0  0  0  0
  -22.9251  -10.9241   22.2726 O   0  0  0  0  0  0  0  0  0  0  0  0
  -23.9935  -27.6419   19.5694 O   0  0  0  0  0  0  0  0  0  0  0  0
  -27.2644  -28.2303   20.9148 O   0  0  0  0  0  0  0  0  0  0  0  0
  -30.6210  -25.7356   19.3918 O   0  0  0  0  0  0  0  0  0  0  0  0
  -31.9718  -12.3457   21.0510 O   0  0  0  0  0  0  0  0  0  0  0  0
  -21.2971  -18.2742   20.2948 O   0  0  0  0  0  0  0  0  0  0  0  0
  -27.4806  -20.5678   19.3141 O   0  0  0  0  0  0  0  0  0  1  0  0
  -29.8806  -19.5090   20.2411 O   0  0  0  0  0  0  0  0  0  0  0  0
  -18.1995  -19.5947   24.6612 F   0  0  0  0  0  0  0  0  0  0  0  0
  -29.6953  -16.1085   23.5633 F   0  0  0  0  0  0  0  0  0  0  0  0
  -19.4371  -16.4954   21.3044 F   0  0  0  0  0  0  0  0  0  0  0  0
  1  2  1  0  0  0  0
  1  5  2  0  0  0  0
  2  6  2  0  0  0  0
  3  9  2  0  0  0  0
  3 18  1  0  0  0  0
  4 10  1  0  0  0  0
  4 18  2  0  0  0  0
  5 20  1  0  0  0  0
  6 22  1  0  0  0  0
  7 11  2  0  0  0  0
  7 21  1  0  0  0  0
  8 12  2  0  0  0  0
  8 24  1  0  0  0  0
  9 25  1  0  0  0  0
 10 25  2  0  0  0  0
 11 26  1  0  0  0  0
 12 27  1  0  0  0  0
 13 14  2  0  0  0  0
 13 28  1  0  0  0  0
 14 29  1  0  0  0  0
 15 23  1  0  0  0  0
 15 26  2  0  0  0  0
 16 27  2  0  0  0  0
 16 30  1  0  0  0  0
 17 29  2  0  0  0  0
 17 31  1  0  0  0  0
 18 32  1  0  0  0  0
 19 32  1  0  0  0  0
 19 33  2  0  0  0  0
 19 34  1  0  0  0  0
 20 22  2  0  0  0  0
 20 39  1  0  0  0  0
 21 23  2  0  0  0  0
 21 40  1  0  0  0  0
 22 48  1  0  0  0  0
 23 41  1  0  0  0  0
 24 30  2  0  0  0  0
 24 70  1  0  0  0  0
 25 77  1  0  0  0  0
 26 78  1  0  0  0  0
 27 79  1  0  0  0  0
 28 31  2  0  0  0  0
 28 77  1  0  0  0  0
 29 80  1  0  0  0  0
 30 81  1  0  0  0  0
 31 82  1  0  0  0  0
 32 62  2  0  0  0  0
 33 63  1  0  0  0  0
 33 66  1  0  0  0  0
 34 67  1  0  0  0  0
 34 72  2  0  0  0  0
 35 49  1  0  0  0  0
 35 68  1  0  0  0  0
 35 73  2  0  0  0  0
 36 59  1  0  0  0  0
 36 64  1  0  0  0  0
 36 74  2  0  0  0  0
 37 60  1  0  0  0  0
 37 69  1  0  0  0  0
 37 75  2  0  0  0  0
 38 65  1  0  0  0  0
 38 70  1  0  0  0  0
 38 76  2  0  0  0  0
 39 42  1  0  0  0  0
 40 49  1  0  0  0  0
 41 64  1  0  0  0  0
 42 44  1  0  0  0  0
 43 45  1  0  0  0  0
 43 46  1  0  0  0  0
 44 48  1  0  0  0  0
 45 50  1  0  0  0  0
 46 65  1  0  0  0  0
 47 50  1  0  0  0  0
 47 65  1  0  0  0  0
 48 68  1  0  0  0  0
 49 64  1  0  0  0  0
 50 63  1  0  0  0  0
 51 60  1  0  0  0  0
 52 61  1  0  0  0  0
 53 61  1  0  0  0  0
 54 61  1  0  0  0  0
 55 70  1  0  0  0  0
 56 71  1  0  0  0  0
 57 58  1  0  0  0  0
 57 78  1  0  0  0  0
 58 79  1  0  0  0  0
 59 61  1  0  0  0  0
 59 69  1  0  0  0  0
 60 71  1  0  0  0  0
 62 63  1  0  0  0  0
M  CHG  1  71   1
M  ISO  4  38 100  57 101  70 100  78 101
M  END
> <Batch ID>
0010

> <Smiles>
CNC(C)C(=O)NC(C(=O)N1Cc2cc([101O:1][101CH2:1]COc3ccc([100N:0](C)[100C:0](=O)N4CCCC(n5nc(-c6ccc(Oc7ccc(F)cc7F)cc6)c(C(N)=O)c5N)C4)c(F)c3)ccc2CC1C(=O)NC1CCCc2ccccc21)C(C)(C)C

> <Shape>
0.265

> <Color>
0.084

> <Negative vol penalty>
0.000

$$$$

  -OEChem-04042320403D

 82 90  0     1  0  0  0  0  0999 V2000
  -23.0372   -7.0064   24.6339 C   0  0  0  0  0  0  0  0  0  0  0  0
  -24.1084   -7.8606   24.8752 C   0  0  0  0  0  0  0  0  0  0  0  0
  -22.2886  -28.2261   21.0096 C   0  0  0  0  0  0  0  0  0  0  0  0
  -23.5192  -27.5256   22.9672 C   0  0  0  0  0  0  0  0  0  0  0  0
  -22.3874   -7.0362   23.4007 C   0  0  0  0  0  0  0  0  0  0  0  0
  -24.5311   -8.7445   23.8830 C   0  0  0  0  0  0  0  0  0  0  0  0
  -26.7769  -14.3845   24.6902 C   0  0  0  0  0  0  0  0  0  0  0  0
  -30.8096  -21.9910   23.1749 C   0  0  0  0  0  0  0  0  0  0  0  0
  -30.2424  -22.9853   22.3779 C   0  0  0  0  0  0  0  0  0  0  0  0
  -21.0902  -28.0613   21.7040 C   0  0  0  0  0  0  0  0  0  0  0  0
  -22.3208  -27.3609   23.6616 C   0  0  0  0  0  0  0  0  0  0  0  0
  -28.0798  -14.8798   24.7209 C   0  0  0  0  0  0  0  0  0  0  0  0
  -19.2873  -29.7668   24.0005 C   0  0  0  0  0  0  0  0  0  0  0  0
  -18.3289  -30.7738   23.8874 C   0  0  0  0  0  0  0  0  0  0  0  0
  -27.8997  -15.4816   22.3919 C   0  0  0  0  0  0  0  0  0  0  0  0
  -30.4225  -21.5417   20.4489 C   0  0  0  0  0  0  0  0  0  0  0  0
  -16.7651  -29.1816   22.9620 C   0  0  0  0  0  0  0  0  0  0  0  0
  -23.5032  -27.9581   21.6412 C   0  0  0  0  0  0  0  0  0  0  0  0
  -25.5269  -29.2933   20.8478 C   0  0  0  0  0  0  0  0  0  0  0  0
  -22.7962   -7.9276   22.3962 C   0  0  0  0  0  0  0  0  0  0  0  0
  -26.0282  -14.4242   23.5051 C   0  0  0  0  0  0  0  0  0  0  0  0
  -23.8870   -8.7853   22.6347 C   0  0  0  0  0  0  0  0  0  0  0  0
  -26.5866  -14.9885   22.3493 C   0  0  0  0  0  0  0  0  0  0  0  0
  -31.1833  -20.7721   22.6090 C   0  0  0  0  0  0  0  0  0  0  0  0
  -30.0488  -22.7606   21.0149 C   0  0  0  0  0  0  0  0  0  0  0  0
  -21.1063  -27.6288   23.0300 C   0  0  0  0  0  0  0  0  0  0  0  0
  -28.6424  -15.4258   23.5710 C   0  0  0  0  0  0  0  0  0  0  0  0
  -18.9847  -28.4671   23.5943 C   0  0  0  0  0  0  0  0  0  0  0  0
  -17.0678  -30.4812   23.3681 C   0  0  0  0  0  0  0  0  0  0  0  0
  -30.9897  -20.5474   21.2460 C   0  0  0  0  0  0  0  0  0  0  0  0
  -17.7236  -28.1745   23.0751 C   0  0  0  0  0  0  0  0  0  0  0  0
  -24.7415  -28.1275   20.9242 C   0  0  0  0  0  0  0  0  0  0  0  0
  -26.5903  -28.9395   20.0538 C   0  0  0  0  0  0  0  0  0  0  0  0
  -25.3143  -30.5809   21.4416 C   0  0  0  0  0  0  0  0  0  0  0  0
  -24.7102  -12.2387   21.6104 C   0  0  0  0  0  0  0  0  0  0  0  0
  -23.4920  -14.8419   20.1065 C   0  0  0  0  0  0  0  0  0  0  0  0
  -23.7524  -18.1733   19.4131 C   0  0  0  0  0  0  0  0  0  0  0  0
  -29.2139  -23.7107   18.8363 C   0  0  0  0  0  0  0  0  0  0  0  0
  -22.0931   -7.8904   21.0625 C   0  0  0  0  0  0  0  0  0  0  0  0
  -24.6147  -13.9101   23.4954 C   0  0  0  0  0  0  0  0  0  0  0  0
  -25.8176  -15.0731   21.0571 C   0  0  0  0  0  0  0  0  0  0  0  0
  -22.3636   -9.1183   20.1968 C   0  0  0  0  0  0  0  0  0  0  0  0
  -27.7771  -25.9698   16.4891 C   0  0  0  0  0  0  0  0  0  0  0  0
  -23.8538   -9.4439   20.1830 C   0  0  0  0  0  0  0  0  0  0  0  0
  -26.9119  -26.8894   17.3538 C   0  0  0  0  0  0  0  0  0  0  0  0
  -27.7570  -24.5293   16.9971 C   0  0  0  0  0  0  0  0  0  0  0  0
  -27.2303  -25.2864   19.2815 C   0  0  0  0  0  0  0  0  0  0  0  0
  -24.3591   -9.7755   21.5923 C   0  0  1  0  0  0  0  0  0  0  0  0
  -24.1256  -13.5333   22.1003 C   0  0  1  0  0  0  0  0  0  0  0  0
  -27.2708  -26.7607   18.8472 C   0  0  2  0  0  0  0  0  0  0  0  0
  -22.6294  -20.0110   18.1249 C   0  0  0  0  0  0  0  0  0  0  0  0
  -24.6625  -13.7368   17.5144 C   0  0  0  0  0  0  0  0  0  0  0  0
  -24.3554  -16.0015   16.4920 C   0  0  0  0  0  0  0  0  0  0  0  0
  -22.3723  -14.7163   17.2907 C   0  0  0  0  0  0  0  0  0  0  0  0
  -23.2224  -19.7316   21.8728 C   0  0  0  0  0  0  0  0  0  0  0  0
  -31.7913  -19.7046   23.4702 C   0  0  0  0  0  0  0  0  0  0  0  0
  -31.4411  -17.4908   24.5727 C   0  0  0  0  0  0  0  0  0  0  0  0
  -30.3809  -16.4402   24.8377 C   0  0  0  0  0  0  0  0  0  1  0  0
  -23.9499  -15.7384   18.9814 C   0  0  1  0  0  0  0  0  0  0  0  0
  -22.7311  -19.2954   19.4629 C   0  0  2  0  0  0  0  0  0  0  0  0
  -23.8504  -15.0450   17.5933 C   0  0  0  0  0  0  0  0  0  0  0  0
  -25.2614  -27.1093   20.2336 N   0  0  0  0  0  0  0  0  0  0  0  0
  -26.3850  -27.6342   19.7157 N   0  0  0  0  0  0  0  0  0  0  0  0
  -24.4414  -14.5514   21.0964 N   0  0  0  0  0  0  0  0  0  0  0  0
  -28.1110  -24.4848   18.4175 N   0  0  0  0  0  0  0  0  0  0  0  0
  -27.6715  -29.6206   19.6187 N   0  0  0  0  0  0  0  0  0  0  0  0
  -24.1706  -30.7732   22.2284 N   0  0  0  0  0  0  0  0  0  0  0  0
  -29.4744  -23.7714   20.2048 N   0  0  0  0  0  0  0  0  0  0  0  0
  -23.9772  -11.1215   21.9624 N   0  0  0  0  0  0  0  0  0  0  0  0
  -23.1689  -16.9655   19.0937 N   0  0  0  0  0  0  0  0  0  0  0  0
  -23.1092  -20.2941   20.5025 N   0  3  0  0  0  0  0  0  0  0  0  0
  -30.8501  -18.5923   23.7715 N   0  3  0  0  0  0  0  0  0  0  0  0
  -26.1065  -31.5375   21.2657 O   0  0  0  0  0  0  0  0  0  0  0  0
  -25.7485  -12.2526   20.9598 O   0  0  0  0  0  0  0  0  0  0  0  0
  -22.3326  -14.4209   20.1106 O   0  0  0  0  0  0  0  0  0  0  0  0
  -24.9487  -18.3512   19.6317 O   0  0  0  0  0  0  0  0  0  0  0  0
  -29.8948  -23.0648   18.0356 O   0  0  0  0  0  0  0  0  0  0  0  0
  -19.9370  -27.4682   23.7080 O   0  0  0  0  0  0  0  0  0  0  0  0
  -29.9142  -15.9093   23.5981 O   0  0  0  0  0  0  0  0  0  1  0  0
  -16.1470  -31.4481   23.2610 F   0  0  0  0  0  0  0  0  0  0  0  0
  -31.3455  -19.3795   20.6931 F   0  0  0  0  0  0  0  0  0  0  0  0
  -17.4266  -26.9275   22.6843 F   0  0  0  0  0  0  0  0  0  0  0  0
  1  2  1  0  0  0  0
  1  5  2  0  0  0  0
  2  6  2  0  0  0  0
  3 10  2  0  0  0  0
  3 18  1  0  0  0  0
  4 11  1  0  0  0  0
  4 18  2  0  0  0  0
  5 20  1  0  0  0  0
  6 22  1  0  0  0  0
  7 12  2  0  0  0  0
  7 21  1  0  0  0  0
  8  9  2  0  0  0  0
  8 24  1  0  0  0  0
  9 25  1  0  0  0  0
 10 26  1  0  0  0  0
 11 26  2  0  0  0  0
 12 27  1  0  0  0  0
 13 14  2  0  0  0  0
 13 28  1  0  0  0  0
 14 29  1  0  0  0  0
 15 23  1  0  0  0  0
 15 27  2  0  0  0  0
 16 25  2  0  0  0  0
 16 30  1  0  0  0  0
 17 29  2  0  0  0  0
 17 31  1  0  0  0  0
 18 32  1  0  0  0  0
 19 32  1  0  0  0  0
 19 33  2  0  0  0  0
 19 34  1  0  0  0  0
 20 22  2  0  0  0  0
 20 39  1  0  0  0  0
 21 23  2  0  0  0  0
 21 40  1  0  0  0  0
 22 48  1  0  0  0  0
 23 41  1  0  0  0  0
 24 30  2  0  0  0  0
 24 56  1  0  0  0  0
 25 68  1  0  0  0  0
 26 78  1  0  0  0  0
 27 79  1  0  0  0  0
 28 31  2  0  0  0  0
 28 78  1  0  0  0  0
 29 80  1  0  0  0  0
 30 81  1  0  0  0  0
 31 82  1  0  0  0  0
 32 62  2  0  0  0  0
 33 63  1  0  0  0  0
 33 66  1  0  0  0  0
 34 67  1  0  0  0  0
 34 73  2  0  0  0  0
 35 49  1  0  0  0  0
 35 69  1  0  0  0  0
 35 74  2  0  0  0  0
 36 59  1  0  0  0  0
 36 64  1  0  0  0  0
 36 75  2  0  0  0  0
 37 60  1  0  0  0  0
 37 70  1  0  0  0  0
 37 76  2  0  0  0  0
 38 65  1  0  0  0  0
 38 68  1  0  0  0  0
 38 77  2  0  0  0  0
 39 42  1  0  0  0  0
 40 49  1  0  0  0  0
 41 64  1  0  0  0  0
 42 44  1  0  0  0  0
 43 45  1  0  0  0  0
 43 46  1  0  0  0  0
 44 48  1  0  0  0  0
 45 50  1  0  0  0  0
 46 65  1  0  0  0  0
 47 50  1  0  0  0  0
 47 65  1  0  0  0  0
 48 69  1  0  0  0  0
 49 64  1  0  0  0  0
 50 63  1  0  0  0  0
 51 60  1  0  0  0  0
 52 61  1  0  0  0  0
 53 61  1  0  0  0  0
 54 61  1  0  0  0  0
 55 71  1  0  0  0  0
 56 72  1  0  0  0  0
 57 58  1  0  0  0  0
 57 72  1  0  0  0  0
 58 79  1  0  0  0  0
 59 61  1  0  0  0  0
 59 70  1  0  0  0  0
 60 71  1  0  0  0  0
 62 63  1  0  0  0  0
M  CHG  2  71   1  72   1
M  ISO  4  38 100  58 101  68 100  79 101
M  END
> <Batch ID>
0010

> <Smiles>
CNC(C)C(=O)NC(C(=O)N1Cc2cc([101O:1][101CH2:1]CNCc3ccc([100NH:0][100C:0](=O)N4CCCC(n5nc(-c6ccc(Oc7ccc(F)cc7F)cc6)c(C(N)=O)c5N)C4)cc3F)ccc2CC1C(=O)NC1CCCc2ccccc21)C(C)(C)C

> <Shape>
0.242

> <Color>
0.081

> <Negative vol penalty>
0.000

$$$$

  -OEChem-04042320403D

 83 91  0     1  0  0  0  0  0999 V2000
  -38.7987  -25.6810   10.1636 C   0  0  0  0  0  0  0  0  0  0  0  0
  -38.1459  -24.7451   10.9595 C   0  0  0  0  0  0  0  0  0  0  0  0
  -23.0676   -9.8693   19.9656 C   0  0  0  0  0  0  0  0  0  0  0  0
  -23.8379   -9.8937   22.2554 C   0  0  0  0  0  0  0  0  0  0  0  0
  -39.1595  -26.9176   10.6972 C   0  0  0  0  0  0  0  0  0  0  0  0
  -37.8544  -25.0449   12.2897 C   0  0  0  0  0  0  0  0  0  0  0  0
  -33.1448  -23.7164   13.5936 C   0  0  0  0  0  0  0  0  0  0  0  0
  -29.7441  -16.4604   18.3825 C   0  0  0  0  0  0  0  0  0  0  0  0
  -22.3172   -8.7236   20.2302 C   0  0  0  0  0  0  0  0  0  0  0  0
  -23.0875   -8.7481   22.5201 C   0  0  0  0  0  0  0  0  0  0  0  0
  -32.9132  -22.3666   13.8546 C   0  0  0  0  0  0  0  0  0  0  0  0
  -29.9963  -17.2184   17.2391 C   0  0  0  0  0  0  0  0  0  0  0  0
  -19.8569   -7.9778   23.1448 C   0  0  0  0  0  0  0  0  0  0  0  0
  -19.1050   -7.9544   24.3194 C   0  0  0  0  0  0  0  0  0  0  0  0
  -33.0482  -22.8074   16.2224 C   0  0  0  0  0  0  0  0  0  0  0  0
  -29.7435  -19.2464   18.5278 C   0  0  0  0  0  0  0  0  0  0  0  0
  -20.3369   -6.0161   25.0694 C   0  0  0  0  0  0  0  0  0  0  0  0
  -23.8280  -10.4543   20.9782 C   0  0  0  0  0  0  0  0  0  0  0  0
  -24.1860  -12.9758   20.8317 C   0  0  0  0  0  0  0  0  0  0  0  0
  -38.8637  -27.2364   12.0319 C   0  0  0  0  0  0  0  0  0  0  0  0
  -33.3411  -24.6215   14.6466 C   0  0  0  0  0  0  0  0  0  0  0  0
  -38.2127  -26.2864   12.8420 C   0  0  0  0  0  0  0  0  0  0  0  0
  -33.2796  -24.1686   15.9722 C   0  0  0  0  0  0  0  0  0  0  0  0
  -29.4916  -17.0954   19.5986 C   0  0  0  0  0  0  0  0  0  0  0  0
  -22.3272   -8.1630   21.5075 C   0  0  0  0  0  0  0  0  0  0  0  0
  -32.8677  -21.9114   15.1690 C   0  0  0  0  0  0  0  0  0  0  0  0
  -29.9960  -18.6114   17.3117 C   0  0  0  0  0  0  0  0  0  0  0  0
  -20.8487   -7.0203   22.9324 C   0  0  0  0  0  0  0  0  0  0  0  0
  -19.3450   -6.9736   25.2817 C   0  0  0  0  0  0  0  0  0  0  0  0
  -29.4913  -18.4883   19.6712 C   0  0  0  0  0  0  0  0  0  0  0  0
  -21.0887   -6.0394   23.8947 C   0  0  0  0  0  0  0  0  0  0  0  0
  -24.6038  -11.6374   20.7053 C   0  0  0  0  0  0  0  0  0  0  0  0
  -25.2814  -13.7144   20.4562 C   0  0  0  0  0  0  0  0  0  0  0  0
  -22.9209  -13.5042   21.2512 C   0  0  0  0  0  0  0  0  0  0  0  0
  -35.7282  -26.5073   15.5680 C   0  0  0  0  0  0  0  0  0  0  0  0
  -33.5491  -27.5543   17.7309 C   0  0  0  0  0  0  0  0  0  0  0  0
  -30.7097  -26.9292   19.5180 C   0  0  0  0  0  0  0  0  0  0  0  0
  -30.8948  -14.3958   21.0421 C   0  0  0  0  0  0  0  0  0  0  0  0
  -39.3156  -28.5678   12.5776 C   0  0  0  0  0  0  0  0  0  0  0  0
  -33.5633  -26.0790   14.3490 C   0  0  0  0  0  0  0  0  0  0  0  0
  -33.4637  -25.1033   17.1388 C   0  0  0  0  0  0  0  0  0  0  0  0
  -38.6363  -28.9504   13.8900 C   0  0  0  0  0  0  0  0  0  0  0  0
  -29.6085  -12.3314   18.2518 C   0  0  0  0  0  0  0  0  0  0  0  0
  -38.6403  -27.7706   14.8569 C   0  0  0  0  0  0  0  0  0  0  0  0
  -28.1797  -12.0233   18.6965 C   0  0  0  0  0  0  0  0  0  0  0  0
  -30.5379  -12.5511   19.4416 C   0  0  0  0  0  0  0  0  0  0  0  0
  -28.6334  -13.2834   20.8383 C   0  0  0  0  0  0  0  0  0  0  0  0
  -37.8571  -26.5839   14.2825 C   0  0  1  0  0  0  0  0  0  0  0  0
  -34.2611  -26.8211   15.4848 C   0  0  1  0  0  0  0  0  0  0  0  0
  -27.6612  -13.1026   19.6628 C   0  0  2  0  0  0  0  0  0  0  0  0
  -29.1941  -27.9597   21.2321 C   0  0  0  0  0  0  0  0  0  0  0  0
  -35.6052  -26.9566   19.9046 C   0  0  0  0  0  0  0  0  0  0  0  0
  -33.7585  -27.0881   21.5901 C   0  0  0  0  0  0  0  0  0  0  0  0
  -34.3415  -29.0912   20.2225 C   0  0  0  0  0  0  0  0  0  0  0  0
  -31.3327  -16.5997   22.0572 C   0  0  0  0  0  0  0  0  0  0  0  0
  -28.3906  -26.8557   17.6808 C   0  0  0  0  0  0  0  0  0  0  0  0
  -29.2227  -16.2818   20.8191 C   0  0  0  0  0  0  0  0  0  0  0  0
  -31.8456  -19.8756   14.4858 C   0  0  0  0  0  0  0  0  0  1  0  0
  -31.0977  -18.7732   15.2103 C   0  0  0  0  0  0  0  0  0  0  0  0
  -33.1501  -27.1479   19.1289 C   0  0  1  0  0  0  0  0  0  0  0  0
  -29.4608  -27.7609   19.7482 C   0  0  2  0  0  0  0  0  0  0  0  0
  -34.2122  -27.5528   20.1897 C   0  0  0  0  0  0  0  0  0  0  0  0
  -25.8661  -11.5290   20.2823 N   0  0  0  0  0  0  0  0  0  0  0  0
  -26.2509  -12.8087   20.1396 N   0  0  0  0  0  0  0  0  0  0  0  0
  -33.6846  -26.5180   16.7962 N   0  0  0  0  0  0  0  0  0  0  0  0
  -30.0002  -13.5501   20.3657 N   0  0  0  0  0  0  0  0  0  0  0  0
  -25.5003  -15.0436   20.3691 N   0  0  0  0  0  0  0  0  0  0  0  0
  -21.9045  -12.6052   21.6020 N   0  0  0  0  0  0  0  0  0  0  0  0
  -36.4333  -26.8052   14.4175 N   0  0  0  0  0  0  0  0  0  0  0  0
  -31.8279  -27.7202   19.3586 N   0  0  0  0  0  0  0  0  0  0  0  0
  -30.4379  -15.6822   21.3661 N   0  0  0  0  0  0  0  0  0  0  0  0
  -28.2744  -27.0924   19.1428 N   0  3  0  0  0  0  0  0  0  0  0  0
  -22.6931  -14.7369   21.2975 O   0  0  0  0  0  0  0  0  0  0  0  0
  -36.1867  -26.0317   16.6001 O   0  0  0  0  0  0  0  0  0  0  0  0
  -33.7270  -28.7480   17.4756 O   0  0  0  0  0  0  0  0  0  0  0  0
  -30.6955  -25.7007   19.4867 O   0  0  0  0  0  0  0  0  0  0  0  0
  -32.0400  -14.0255   21.3308 O   0  0  0  0  0  0  0  0  0  0  0  0
  -21.5949   -7.0453   21.7661 O   0  0  0  0  0  0  0  0  0  0  0  0
  -32.6425  -20.5942   15.4265 O   0  0  0  0  0  0  0  0  0  1  0  0
  -30.2450  -19.3555   16.1886 O   0  0  0  0  0  0  0  0  0  0  0  0
  -18.6240   -6.9522   26.4104 F   0  0  0  0  0  0  0  0  0  0  0  0
  -29.2484  -19.1073   20.8350 F   0  0  0  0  0  0  0  0  0  0  0  0
  -22.0410   -5.1176   23.6969 F   0  0  0  0  0  0  0  0  0  0  0  0
  1  2  1  0  0  0  0
  1  5  2  0  0  0  0
  2  6  2  0  0  0  0
  3  9  2  0  0  0  0
  3 18  1  0  0  0  0
  4 10  1  0  0  0  0
  4 18  2  0  0  0  0
  5 20  1  0  0  0  0
  6 22  1  0  0  0  0
  7 11  2  0  0  0  0
  7 21  1  0  0  0  0
  8 12  2  0  0  0  0
  8 24  1  0  0  0  0
  9 25  1  0  0  0  0
 10 25  2  0  0  0  0
 11 26  1  0  0  0  0
 12 27  1  0  0  0  0
 13 14  2  0  0  0  0
 13 28  1  0  0  0  0
 14 29  1  0  0  0  0
 15 23  1  0  0  0  0
 15 26  2  0  0  0  0
 16 27  2  0  0  0  0
 16 30  1  0  0  0  0
 17 29  2  0  0  0  0
 17 31  1  0  0  0  0
 18 32  1  0  0  0  0
 19 32  1  0  0  0  0
 19 33  2  0  0  0  0
 19 34  1  0  0  0  0
 20 22  2  0  0  0  0
 20 39  1  0  0  0  0
 21 23  2  0  0  0  0
 21 40  1  0  0  0  0
 22 48  1  0  0  0  0
 23 41  1  0  0  0  0
 24 30  2  0  0  0  0
 24 57  1  0  0  0  0
 25 78  1  0  0  0  0
 26 79  1  0  0  0  0
 27 80  1  0  0  0  0
 28 31  2  0  0  0  0
 28 78  1  0  0  0  0
 29 81  1  0  0  0  0
 30 82  1  0  0  0  0
 31 83  1  0  0  0  0
 32 63  2  0  0  0  0
 33 64  1  0  0  0  0
 33 67  1  0  0  0  0
 34 68  1  0  0  0  0
 34 73  2  0  0  0  0
 35 49  1  0  0  0  0
 35 69  1  0  0  0  0
 35 74  2  0  0  0  0
 36 60  1  0  0  0  0
 36 65  1  0  0  0  0
 36 75  2  0  0  0  0
 37 61  1  0  0  0  0
 37 70  1  0  0  0  0
 37 76  2  0  0  0  0
 38 66  1  0  0  0  0
 38 71  1  0  0  0  0
 38 77  2  0  0  0  0
 39 42  1  0  0  0  0
 40 49  1  0  0  0  0
 41 65  1  0  0  0  0
 42 44  1  0  0  0  0
 43 45  1  0  0  0  0
 43 46  1  0  0  0  0
 44 48  1  0  0  0  0
 45 50  1  0  0  0  0
 46 66  1  0  0  0  0
 47 50  1  0  0  0  0
 47 66  1  0  0  0  0
 48 69  1  0  0  0  0
 49 65  1  0  0  0  0
 50 64  1  0  0  0  0
 51 61  1  0  0  0  0
 52 62  1  0  0  0  0
 53 62  1  0  0  0  0
 54 62  1  0  0  0  0
 55 71  1  0  0  0  0
 56 72  1  0  0  0  0
 57 71  1  0  0  0  0
 58 59  1  0  0  0  0
 58 79  1  0  0  0  0
 59 80  1  0  0  0  0
 60 62  1  0  0  0  0
 60 70  1  0  0  0  0
 61 72  1  0  0  0  0
 63 64  1  0  0  0  0
M  CHG  1  72   1
M  ISO  4  38 100  58 101  71 100  79 101
M  END
> <Batch ID>
0010

> <Smiles>
CNC(C)C(=O)NC(C(=O)N1Cc2cc([101O:1][101CH2:1]COc3ccc(C[100N:0](C)[100C:0](=O)N4CCCC(n5nc(-c6ccc(Oc7ccc(F)cc7F)cc6)c(C(N)=O)c5N)C4)c(F)c3)ccc2CC1C(=O)NC1CCCc2ccccc21)C(C)(C)C

> <Shape>
0.230

> <Color>
0.200

> <Negative vol penalty>
0.000

$$$$

  -OEChem-04042320403D

 83 91  0     1  0  0  0  0  0999 V2000
  -25.0181  -21.4806   23.7799 C   0  0  0  0  0  0  0  0  0  0  0  0
  -26.3458  -21.2341   23.4454 C   0  0  0  0  0  0  0  0  0  0  0  0
  -23.2847   -9.7975   19.9085 C   0  0  0  0  0  0  0  0  0  0  0  0
  -23.7179   -9.9392   22.2811 C   0  0  0  0  0  0  0  0  0  0  0  0
  -24.5607  -21.1986   25.0665 C   0  0  0  0  0  0  0  0  0  0  0  0
  -27.2172  -20.7064   24.3976 C   0  0  0  0  0  0  0  0  0  0  0  0
  -30.0902  -16.9711   22.5434 C   0  0  0  0  0  0  0  0  0  0  0  0
  -22.5518   -8.6283   20.1121 C   0  0  0  0  0  0  0  0  0  0  0  0
  -22.9850   -8.7700   22.4847 C   0  0  0  0  0  0  0  0  0  0  0  0
  -31.1821  -17.3376   21.7579 C   0  0  0  0  0  0  0  0  0  0  0  0
  -36.6271  -13.2907   20.2537 C   0  0  0  0  0  0  0  0  0  0  0  0
  -20.2638   -5.8040   20.0506 C   0  0  0  0  0  0  0  0  0  0  0  0
  -37.1912  -12.1375   20.7990 C   0  0  0  0  0  0  0  0  0  0  0  0
  -19.0410   -5.6820   19.3909 C   0  0  0  0  0  0  0  0  0  0  0  0
  -32.6428  -17.0216   23.6515 C   0  0  0  0  0  0  0  0  0  0  0  0
  -35.2394  -11.8414   22.1918 C   0  0  0  0  0  0  0  0  0  0  0  0
  -18.2340   -7.6590   20.5210 C   0  0  0  0  0  0  0  0  0  0  0  0
  -23.8678  -10.4529   20.9930 C   0  0  0  0  0  0  0  0  0  0  0  0
  -24.1393  -12.9816   20.7932 C   0  0  0  0  0  0  0  0  0  0  0  0
  -25.4245  -20.6582   26.0321 C   0  0  0  0  0  0  0  0  0  0  0  0
  -30.2652  -16.6370   23.8940 C   0  0  0  0  0  0  0  0  0  0  0  0
  -26.7712  -20.4182   25.6986 C   0  0  0  0  0  0  0  0  0  0  0  0
  -31.5518  -16.6487   24.4513 C   0  0  0  0  0  0  0  0  0  0  0  0
  -34.6753  -12.9948   21.6465 C   0  0  0  0  0  0  0  0  0  0  0  0
  -22.4019   -8.1145   21.4002 C   0  0  0  0  0  0  0  0  0  0  0  0
  -32.4583  -17.3658   22.3126 C   0  0  0  0  0  0  0  0  0  0  0  0
  -35.3692  -13.7194   20.6775 C   0  0  0  0  0  0  0  0  0  0  0  0
  -20.4718   -6.8535   20.9456 C   0  0  0  0  0  0  0  0  0  0  0  0
  -36.4973  -11.4128   21.7680 C   0  0  0  0  0  0  0  0  0  0  0  0
  -18.0260   -6.6095   19.6260 C   0  0  0  0  0  0  0  0  0  0  0  0
  -19.4568   -7.7810   21.1808 C   0  0  0  0  0  0  0  0  0  0  0  0
  -24.6254  -11.6604   20.7832 C   0  0  0  0  0  0  0  0  0  0  0  0
  -25.2460  -13.7565   20.5458 C   0  0  0  0  0  0  0  0  0  0  0  0
  -22.8066  -13.4650   21.0072 C   0  0  0  0  0  0  0  0  0  0  0  0
  -29.2312  -17.8313   26.6523 C   0  0  0  0  0  0  0  0  0  0  0  0
  -30.6847  -15.2069   27.8861 C   0  0  0  0  0  0  0  0  0  0  0  0
  -33.0539  -12.7751   27.5395 C   0  0  0  0  0  0  0  0  0  0  0  0
  -30.9940  -12.8327   21.5268 C   0  0  0  0  0  0  0  0  0  0  0  0
  -24.8961  -20.4140   27.4234 C   0  0  0  0  0  0  0  0  0  0  0  0
  -29.0807  -16.2179   24.7209 C   0  0  0  0  0  0  0  0  0  0  0  0
  -31.7959  -16.2792   25.8909 C   0  0  0  0  0  0  0  0  0  0  0  0
  -25.7903  -19.5061   28.2639 C   0  0  0  0  0  0  0  0  0  0  0  0
  -29.4883  -13.6289   18.3336 C   0  0  0  0  0  0  0  0  0  0  0  0
  -27.2493  -19.9352   28.1449 C   0  0  0  0  0  0  0  0  0  0  0  0
  -28.0129  -13.3353   18.6114 C   0  0  0  0  0  0  0  0  0  0  0  0
  -30.3943  -12.6240   19.0389 C   0  0  0  0  0  0  0  0  0  0  0  0
  -28.7048  -12.2333   20.7901 C   0  0  0  0  0  0  0  0  0  0  0  0
  -27.7408  -19.8232   26.6966 C   0  0  1  0  0  0  0  0  0  0  0  0
  -29.3057  -16.3944   26.2195 C   0  0  1  0  0  0  0  0  0  0  0  0
  -27.7378  -13.2283   20.1230 C   0  0  2  0  0  0  0  0  0  0  0  0
  -34.0323  -10.7941   28.7295 C   0  0  0  0  0  0  0  0  0  0  0  0
  -32.2145  -17.0819   29.7446 C   0  0  0  0  0  0  0  0  0  0  0  0
  -33.8091  -15.2083   30.2083 C   0  0  0  0  0  0  0  0  0  0  0  0
  -31.4028  -14.9769   30.8237 C   0  0  0  0  0  0  0  0  0  0  0  0
  -32.2550  -10.9297   25.3680 C   0  0  0  0  0  0  0  0  0  0  0  0
  -33.3279  -13.4387   22.1123 C   0  0  0  0  0  0  0  0  0  0  0  0
  -34.8529  -17.2046   19.6013 C   0  0  0  0  0  0  0  0  0  0  0  0
  -33.4541  -17.4291   20.1539 C   0  0  0  0  0  0  0  0  0  1  0  0
  -35.5655  -16.0600   20.3045 C   0  0  0  0  0  0  0  0  0  0  0  0
  -32.0729  -14.8900   28.3875 C   0  0  1  0  0  0  0  0  0  0  0  0
  -32.9887  -11.2706   27.7311 C   0  0  2  0  0  0  0  0  0  0  0  0
  -32.3703  -15.5482   29.7644 C   0  0  0  0  0  0  0  0  0  0  0  0
  -25.9386  -11.5960   20.5478 N   0  0  0  0  0  0  0  0  0  0  0  0
  -26.2870  -12.8863   20.4076 N   0  0  0  0  0  0  0  0  0  0  0  0
  -30.6049  -15.8825   26.6601 N   0  0  0  0  0  0  0  0  0  0  0  0
  -30.0940  -12.5843   20.4771 N   0  0  0  0  0  0  0  0  0  0  0  0
  -25.4204  -15.0906   20.4350 N   0  0  0  0  0  0  0  0  0  0  0  0
  -21.7882  -12.5327   21.2481 N   0  0  0  0  0  0  0  0  0  0  0  0
  -28.0262  -18.4437   26.3651 N   0  0  0  0  0  0  0  0  0  0  0  0
  -32.1863  -13.4356   28.3835 N   0  0  0  0  0  0  0  0  0  0  0  0
  -32.2915  -13.1515   21.1455 N   0  0  0  0  0  0  0  0  0  0  0  0
  -33.2244  -10.5727   26.4357 N   0  3  0  0  0  0  0  0  0  0  0  0
  -22.5241  -14.6866   20.9692 O   0  0  0  0  0  0  0  0  0  0  0  0
  -30.1950  -18.3458   27.2073 O   0  0  0  0  0  0  0  0  0  0  0  0
  -29.7070  -14.8612   28.5540 O   0  0  0  0  0  0  0  0  0  0  0  0
  -33.8025  -13.3110   26.7253 O   0  0  0  0  0  0  0  0  0  0  0  0
  -30.6641  -12.7797   22.7166 O   0  0  0  0  0  0  0  0  0  0  0  0
  -21.6867   -6.9738   21.5993 O   0  0  0  0  0  0  0  0  0  0  0  0
  -33.5257  -17.7238   21.5482 O   0  0  0  0  0  0  0  0  0  1  0  0
  -34.8305  -14.8558   20.1323 O   0  0  0  0  0  0  0  0  0  0  0  0
  -37.0387  -10.3052   22.2921 F   0  0  0  0  0  0  0  0  0  0  0  0
  -16.8523   -6.4930   18.9912 F   0  0  0  0  0  0  0  0  0  0  0  0
  -19.6511   -8.7921   22.0386 F   0  0  0  0  0  0  0  0  0  0  0  0
  1  2  1  0  0  0  0
  1  5  2  0  0  0  0
  2  6  2  0  0  0  0
  3  8  2  0  0  0  0
  3 18  1  0  0  0  0
  4  9  1  0  0  0  0
  4 18  2  0  0  0  0
  5 20  1  0  0  0  0
  6 22  1  0  0  0  0
  7 10  2  0  0  0  0
  7 21  1  0  0  0  0
  8 25  1  0  0  0  0
  9 25  2  0  0  0  0
 10 26  1  0  0  0  0
 11 13  2  0  0  0  0
 11 27  1  0  0  0  0
 12 14  2  0  0  0  0
 12 28  1  0  0  0  0
 13 29  1  0  0  0  0
 14 30  1  0  0  0  0
 15 23  1  0  0  0  0
 15 26  2  0  0  0  0
 16 24  1  0  0  0  0
 16 29  2  0  0  0  0
 17 30  2  0  0  0  0
 17 31  1  0  0  0  0
 18 32  1  0  0  0  0
 19 32  1  0  0  0  0
 19 33  2  0  0  0  0
 19 34  1  0  0  0  0
 20 22  2  0  0  0  0
 20 39  1  0  0  0  0
 21 23  2  0  0  0  0
 21 40  1  0  0  0  0
 22 48  1  0  0  0  0
 23 41  1  0  0  0  0
 24 27  2  0  0  0  0
 24 56  1  0  0  0  0
 25 78  1  0  0  0  0
 26 79  1  0  0  0  0
 27 80  1  0  0  0  0
 28 31  2  0  0  0  0
 28 78  1  0  0  0  0
 29 81  1  0  0  0  0
 30 82  1  0  0  0  0
 31 83  1  0  0  0  0
 32 63  2  0  0  0  0
 33 64  1  0  0  0  0
 33 67  1  0  0  0  0
 34 68  1  0  0  0  0
 34 73  2  0  0  0  0
 35 49  1  0  0  0  0
 35 69  1  0  0  0  0
 35 74  2  0  0  0  0
 36 60  1  0  0  0  0
 36 65  1  0  0  0  0
 36 75  2  0  0  0  0
 37 61  1  0  0  0  0
 37 70  1  0  0  0  0
 37 76  2  0  0  0  0
 38 66  1  0  0  0  0
 38 71  1  0  0  0  0
 38 77  2  0  0  0  0
 39 42  1  0  0  0  0
 40 49  1  0  0  0  0
 41 65  1  0  0  0  0
 42 44  1  0  0  0  0
 43 45  1  0  0  0  0
 43 46  1  0  0  0  0
 44 48  1  0  0  0  0
 45 50  1  0  0  0  0
 46 66  1  0  0  0  0
 47 50  1  0  0  0  0
 47 66  1  0  0  0  0
 48 69  1  0  0  0  0
 49 65  1  0  0  0  0
 50 64  1  0  0  0  0
 51 61  1  0  0  0  0
 52 62  1  0  0  0  0
 53 62  1  0  0  0  0
 54 62  1  0  0  0  0
 55 72  1  0  0  0  0
 56 71  1  0  0  0  0
 57 58  1  0  0  0  0
 57 59  1  0  0  0  0
 58 79  1  0  0  0  0
 59 80  1  0  0  0  0
 60 62  1  0  0  0  0
 60 70  1  0  0  0  0
 61 72  1  0  0  0  0
 63 64  1  0  0  0  0
M  CHG  1  72   1
M  ISO  4  38 100  58 101  71 100  79 101
M  END
> <Batch ID>
0010

> <Smiles>
CNC(C)C(=O)NC(C(=O)N1Cc2cc([101O:1][101CH2:1]CCOc3ccc(F)cc3C[100NH:0][100C:0](=O)N3CCCC(n4nc(-c5ccc(Oc6ccc(F)cc6F)cc5)c(C(N)=O)c4N)C3)ccc2CC1C(=O)NC1CCCc2ccccc21)C(C)(C)C

> <Shape>
0.135

> <Color>
0.177

> <Negative vol penalty>
0.000

$$$$

  -OEChem-04042320403D

 81 88  0     1  0  0  0  0  0999 V2000
  -18.4322  -25.1005   19.9448 C   0  0  0  0  0  0  0  0  0  0  0  0
  -18.4137  -23.7177   19.7931 C   0  0  0  0  0  0  0  0  0  0  0  0
  -28.4117  -26.6479   18.7996 C   0  0  0  0  0  0  0  0  0  0  0  0
  -29.4160  -25.9050   20.8676 C   0  0  0  0  0  0  0  0  0  0  0  0
  -19.6484  -25.7710   20.0673 C   0  0  0  0  0  0  0  0  0  0  0  0
  -19.6117  -23.0047   19.7627 C   0  0  0  0  0  0  0  0  0  0  0  0
  -22.3906  -16.6750   21.6411 C   0  0  0  0  0  0  0  0  0  0  0  0
  -27.9016  -27.7710   19.4508 C   0  0  0  0  0  0  0  0  0  0  0  0
  -28.9059  -27.0281   21.5188 C   0  0  0  0  0  0  0  0  0  0  0  0
  -23.1188  -15.6156   21.1014 C   0  0  0  0  0  0  0  0  0  0  0  0
  -25.3101  -28.5023   21.4938 C   0  0  0  0  0  0  0  0  0  0  0  0
  -23.9824  -28.8486   21.2432 C   0  0  0  0  0  0  0  0  0  0  0  0
  -25.1565  -16.8712   21.4017 C   0  0  0  0  0  0  0  0  0  0  0  0
  -24.7015  -30.9952   20.3995 C   0  0  0  0  0  0  0  0  0  0  0  0
  -29.1689  -25.7148   19.5081 C   0  0  0  0  0  0  0  0  0  0  0  0
  -30.9409  -24.4382   18.1898 C   0  0  0  0  0  0  0  0  0  0  0  0
  -20.8615  -25.0648   20.0480 C   0  0  0  0  0  0  0  0  0  0  0  0
  -23.0398  -17.8467   22.0557 C   0  0  0  0  0  0  0  0  0  0  0  0
  -20.8454  -23.6666   19.8837 C   0  0  0  0  0  0  0  0  0  0  0  0
  -24.4346  -17.9430   21.9487 C   0  0  0  0  0  0  0  0  0  0  0  0
  -28.1487  -27.9611   20.8104 C   0  0  0  0  0  0  0  0  0  0  0  0
  -24.5016  -15.7147   20.9790 C   0  0  0  0  0  0  0  0  0  0  0  0
  -26.3336  -29.4026   21.1974 C   0  0  0  0  0  0  0  0  0  0  0  0
  -23.6781  -30.0950   20.6960 C   0  0  0  0  0  0  0  0  0  0  0  0
  -26.0292  -30.6490   20.6502 C   0  0  0  0  0  0  0  0  0  0  0  0
  -29.6956  -24.5542   18.8361 C   0  0  0  0  0  0  0  0  0  0  0  0
  -30.9634  -23.1489   17.7167 C   0  0  0  0  0  0  0  0  0  0  0  0
  -31.9840  -25.4089   18.0315 C   0  0  0  0  0  0  0  0  0  0  0  0
  -22.9208  -20.9031   21.1910 C   0  0  0  0  0  0  0  0  0  0  0  0
  -29.2634  -17.9303   19.3578 C   0  0  0  0  0  0  0  0  0  0  0  0
  -24.9004  -21.2950   23.7307 C   0  0  0  0  0  0  0  0  0  0  0  0
  -27.1853  -19.9224   25.8619 C   0  0  0  0  0  0  0  0  0  0  0  0
  -22.1532  -25.8384   20.1365 C   0  0  0  0  0  0  0  0  0  0  0  0
  -22.2429  -18.9699   22.6605 C   0  0  0  0  0  0  0  0  0  0  0  0
  -25.1815  -19.1713   22.3978 C   0  0  0  0  0  0  0  0  0  0  0  0
  -23.3624  -24.9685   20.4705 C   0  0  0  0  0  0  0  0  0  0  0  0
  -27.5429  -19.7357   16.7106 C   0  0  0  0  0  0  0  0  0  0  0  0
  -23.3690  -23.7099   19.6088 C   0  0  0  0  0  0  0  0  0  0  0  0
  -28.0260  -21.1652   16.9517 C   0  0  0  0  0  0  0  0  0  0  0  0
  -27.3691  -18.9734   18.0216 C   0  0  0  0  0  0  0  0  0  0  0  0
  -29.0794  -20.3860   19.1187 C   0  0  0  0  0  0  0  0  0  0  0  0
  -22.1229  -22.8554   19.8709 C   0  0  1  0  0  0  0  0  0  0  0  0
  -22.9510  -20.3185   22.5749 C   0  0  1  0  0  0  0  0  0  0  0  0
  -29.2966  -21.1795   17.8194 C   0  0  2  0  0  0  0  0  0  0  0  0
  -28.6564  -20.5001   27.8111 C   0  0  0  0  0  0  0  0  0  0  0  0
  -26.4662  -12.6859   18.1494 C   0  0  0  0  0  0  0  0  0  0  0  0
  -26.8264  -22.7299   21.8488 C   0  0  0  0  0  0  0  0  0  0  0  0
  -28.6195  -22.4339   23.5708 C   0  0  0  0  0  0  0  0  0  0  0  0
  -26.5914  -23.7848   24.1041 C   0  0  0  0  0  0  0  0  0  0  0  0
  -24.2938  -10.7031   21.4313 C   0  0  0  0  0  0  0  0  0  0  0  0
  -26.3660  -10.0215   20.4243 C   0  0  0  0  0  0  0  0  0  0  0  0
  -25.8355  -17.9546   27.6126 C   0  0  0  0  0  0  0  0  0  0  0  0
  -28.6744  -16.5747   19.0591 C   0  0  0  0  0  0  0  0  0  0  0  0
  -29.5071  -15.4657   19.6937 C   0  0  0  0  0  0  0  0  0  0  0  0
  -28.9706  -14.0796   19.3591 C   0  0  0  0  0  0  0  0  0  0  0  0
  -24.6947  -13.3678   20.6464 C   0  0  0  0  0  0  0  0  0  1  0  0
  -26.3960  -21.2699   23.9342 C   0  0  1  0  0  0  0  0  0  0  0  0
  -27.3025  -19.9622   27.3749 C   0  0  2  0  0  0  0  0  0  0  0  0
  -25.8486  -12.3574   20.6449 C   0  0  2  0  0  0  0  0  0  0  0  0
  -26.9437  -12.6396   19.5974 C   0  0  2  0  0  0  0  0  0  0  0  0
  -27.0944  -22.5321   23.3541 C   0  0  0  0  0  0  0  0  0  0  0  0
  -28.9788  -23.4285   18.7803 N   0  0  0  0  0  0  0  0  0  0  0  0
  -29.7763  -22.5929   18.0934 N   0  0  0  0  0  0  0  0  0  0  0  0
  -24.3572  -20.2451   22.9767 N   0  0  0  0  0  0  0  0  0  0  0  0
  -28.5919  -19.0340   18.8313 N   0  0  0  0  0  0  0  0  0  0  0  0
  -31.8825  -22.4480   17.0194 N   0  0  0  0  0  0  0  0  0  0  0  0
  -31.7978  -26.6853   18.5796 N   0  0  0  0  0  0  0  0  0  0  0  0
  -22.2669  -22.1176   21.1075 N   0  0  0  0  0  0  0  0  0  0  0  0
  -26.6102  -21.0723   25.3638 N   0  0  0  0  0  0  0  0  0  0  0  0
  -25.2962  -11.0150   20.4166 N   0  0  0  0  0  0  0  0  0  0  0  0
  -27.1345  -18.5949   27.9435 N   0  3  0  0  0  0  0  0  0  0  0  0
  -27.5970  -13.9468   19.9056 N   0  3  0  0  0  0  0  0  0  0  0  0
  -33.0429  -25.1572   17.4077 O   0  0  0  0  0  0  0  0  0  0  0  0
  -23.4526  -20.2979   20.2677 O   0  0  0  0  0  0  0  0  0  0  0  0
  -30.2910  -18.0039   20.0366 O   0  0  0  0  0  0  0  0  0  0  0  0
  -24.2376  -22.2085   24.2285 O   0  0  0  0  0  0  0  0  0  0  0  0
  -27.5693  -18.9684   25.1889 O   0  0  0  0  0  0  0  0  0  0  0  0
  -27.6513  -29.0570   21.4461 O   0  0  0  0  0  0  0  0  0  0  0  0
  -25.2147  -14.6824   20.4520 O   0  0  0  0  0  0  0  0  0  1  0  0
  -22.4031  -30.4268   20.4539 F   0  0  0  0  0  0  0  0  0  0  0  0
  -27.0082  -31.5176   20.3622 F   0  0  0  0  0  0  0  0  0  0  0  0
  1  2  1  0  0  0  0
  1  5  2  0  0  0  0
  2  6  2  0  0  0  0
  3  8  2  0  0  0  0
  3 15  1  0  0  0  0
  4  9  1  0  0  0  0
  4 15  2  0  0  0  0
  5 17  1  0  0  0  0
  6 19  1  0  0  0  0
  7 10  2  0  0  0  0
  7 18  1  0  0  0  0
  8 21  1  0  0  0  0
  9 21  2  0  0  0  0
 10 22  1  0  0  0  0
 11 12  2  0  0  0  0
 11 23  1  0  0  0  0
 12 24  1  0  0  0  0
 13 20  1  0  0  0  0
 13 22  2  0  0  0  0
 14 24  2  0  0  0  0
 14 25  1  0  0  0  0
 15 26  1  0  0  0  0
 16 26  1  0  0  0  0
 16 27  2  0  0  0  0
 16 28  1  0  0  0  0
 17 19  2  0  0  0  0
 17 33  1  0  0  0  0
 18 20  2  0  0  0  0
 18 34  1  0  0  0  0
 19 42  1  0  0  0  0
 20 35  1  0  0  0  0
 21 78  1  0  0  0  0
 22 79  1  0  0  0  0
 23 25  2  0  0  0  0
 23 78  1  0  0  0  0
 24 80  1  0  0  0  0
 25 81  1  0  0  0  0
 26 62  2  0  0  0  0
 27 63  1  0  0  0  0
 27 66  1  0  0  0  0
 28 67  1  0  0  0  0
 28 73  2  0  0  0  0
 29 43  1  0  0  0  0
 29 68  1  0  0  0  0
 29 74  2  0  0  0  0
 30 53  1  0  0  0  0
 30 65  1  0  0  0  0
 30 75  2  0  0  0  0
 31 57  1  0  0  0  0
 31 64  1  0  0  0  0
 31 76  2  0  0  0  0
 32 58  1  0  0  0  0
 32 69  1  0  0  0  0
 32 77  2  0  0  0  0
 33 36  1  0  0  0  0
 34 43  1  0  0  0  0
 35 64  1  0  0  0  0
 36 38  1  0  0  0  0
 37 39  1  0  0  0  0
 37 40  1  0  0  0  0
 38 42  1  0  0  0  0
 39 44  1  0  0  0  0
 40 65  1  0  0  0  0
 41 44  1  0  0  0  0
 41 65  1  0  0  0  0
 42 68  1  0  0  0  0
 43 64  1  0  0  0  0
 44 63  1  0  0  0  0
 45 58  1  0  0  0  0
 46 60  1  0  0  0  0
 47 61  1  0  0  0  0
 48 61  1  0  0  0  0
 49 61  1  0  0  0  0
 50 70  1  0  0  0  0
 51 70  1  0  0  0  0
 52 71  1  0  0  0  0
 53 54  1  0  0  0  0
 54 55  1  0  0  0  0
 55 72  1  0  0  0  0
 56 59  1  0  0  0  0
 56 79  1  0  0  0  0
 57 61  1  0  0  0  0
 57 69  1  0  0  0  0
 58 71  1  0  0  0  0
 59 60  1  0  0  0  0
 59 70  1  0  0  0  0
 60 72  1  0  0  0  0
 62 63  1  0  0  0  0
M  CHG  2  71   1  72   1
M  ISO  4  30 100  53 100  56 101  79 101
M  END
> <Batch ID>
0010

> <Smiles>
CNC(C)C(=O)NC(C(=O)N1Cc2cc([101O:1][101CH2:1]C(C(C)NCC[100CH2:0][100C:0](=O)N3CCCC(n4nc(-c5ccc(Oc6ccc(F)cc6F)cc5)c(C(N)=O)c4N)C3)N(C)C)ccc2CC1C(=O)NC1CCCc2ccccc21)C(C)(C)C

> <Shape>
0.201

> <Color>
0.064

> <Negative vol penalty>
0.000

$$$$

  -OEChem-04042320403D

 86 95  0     1  0  0  0  0  0999 V2000
  -18.4739  -29.9257   18.3470 C   0  0  0  0  0  0  0  0  0  0  0  0
  -19.7060  -29.3266   18.1053 C   0  0  0  0  0  0  0  0  0  0  0  0
  -22.6084  -10.3106   20.2456 C   0  0  0  0  0  0  0  0  0  0  0  0
  -24.4112   -9.4287   21.5907 C   0  0  0  0  0  0  0  0  0  0  0  0
  -18.1243  -30.2997   19.6438 C   0  0  0  0  0  0  0  0  0  0  0  0
  -20.5897  -29.1021   19.1603 C   0  0  0  0  0  0  0  0  0  0  0  0
  -24.4407  -24.3828   19.7960 C   0  0  0  0  0  0  0  0  0  0  0  0
  -30.0727  -18.3617   21.0172 C   0  0  0  0  0  0  0  0  0  0  0  0
  -30.3367  -19.7086   21.2858 C   0  0  0  0  0  0  0  0  0  0  0  0
  -21.9005   -9.1206   20.4143 C   0  0  0  0  0  0  0  0  0  0  0  0
  -23.7033   -8.2388   21.7594 C   0  0  0  0  0  0  0  0  0  0  0  0
  -25.8026  -24.2415   19.5331 C   0  0  0  0  0  0  0  0  0  0  0  0
  -21.1415   -7.1137   23.6547 C   0  0  0  0  0  0  0  0  0  0  0  0
  -21.0882   -6.5694   24.9379 C   0  0  0  0  0  0  0  0  0  0  0  0
  -29.1578  -18.1048   23.2215 C   0  0  0  0  0  0  0  0  0  0  0  0
  -26.2924  -24.7178   21.8466 C   0  0  0  0  0  0  0  0  0  0  0  0
  -22.1607   -4.5607   24.1304 C   0  0  0  0  0  0  0  0  0  0  0  0
  -23.8638  -10.4646   20.8338 C   0  0  0  0  0  0  0  0  0  0  0  0
  -24.1906  -12.9860   21.0427 C   0  0  0  0  0  0  0  0  0  0  0  0
  -19.0002  -30.0708   20.7167 C   0  0  0  0  0  0  0  0  0  0  0  0
  -23.9944  -24.7040   21.0860 C   0  0  0  0  0  0  0  0  0  0  0  0
  -20.2521  -29.4745   20.4725 C   0  0  0  0  0  0  0  0  0  0  0  0
  -29.4087  -19.4610   23.4941 C   0  0  0  0  0  0  0  0  0  0  0  0
  -24.9242  -24.8601   22.1238 C   0  0  0  0  0  0  0  0  0  0  0  0
  -29.4864  -17.5588   21.9860 C   0  0  0  0  0  0  0  0  0  0  0  0
  -30.0256  -20.2941   22.5289 C   0  0  0  0  0  0  0  0  0  0  0  0
  -22.4479   -8.0847   21.1712 C   0  0  0  0  0  0  0  0  0  0  0  0
  -26.7289  -24.4118   20.5579 C   0  0  0  0  0  0  0  0  0  0  0  0
  -21.7044   -6.3815   22.6093 C   0  0  0  0  0  0  0  0  0  0  0  0
  -21.5978   -5.2930   25.1757 C   0  0  0  0  0  0  0  0  0  0  0  0
  -22.2140   -5.1050   22.8472 C   0  0  0  0  0  0  0  0  0  0  0  0
  -24.5959  -11.6934   20.6595 C   0  0  0  0  0  0  0  0  0  0  0  0
  -25.2295  -13.7990   20.6602 C   0  0  0  0  0  0  0  0  0  0  0  0
  -22.9832  -13.4135   21.6868 C   0  0  0  0  0  0  0  0  0  0  0  0
  -22.3950  -27.1345   22.3659 C   0  0  0  0  0  0  0  0  0  0  0  0
  -22.4616  -25.2723   25.0211 C   0  0  0  0  0  0  0  0  0  0  0  0
  -23.9817  -22.7603   26.7607 C   0  0  0  0  0  0  0  0  0  0  0  0
  -30.8695  -14.5111   20.6755 C   0  0  0  0  0  0  0  0  0  0  0  0
  -18.5979  -30.5353   22.0940 C   0  0  0  0  0  0  0  0  0  0  0  0
  -22.5203  -24.8266   21.3590 C   0  0  0  0  0  0  0  0  0  0  0  0
  -29.0447  -19.9936   24.8590 C   0  0  0  0  0  0  0  0  0  0  0  0
  -24.4953  -25.1854   23.5305 C   0  0  0  0  0  0  0  0  0  0  0  0
  -19.4359  -29.9217   23.2127 C   0  0  0  0  0  0  0  0  0  0  0  0
  -28.9217  -21.5105   24.8429 C   0  0  0  0  0  0  0  0  0  0  0  0
  -29.2645  -12.8748   17.7689 C   0  0  0  0  0  0  0  0  0  0  0  0
  -20.9201  -29.9903   22.8670 C   0  0  0  0  0  0  0  0  0  0  0  0
  -27.9013  -12.4686   18.3262 C   0  0  0  0  0  0  0  0  0  0  0  0
  -30.1492  -22.1181   24.1808 C   0  0  0  0  0  0  0  0  0  0  0  0
  -30.3299  -12.9290   18.8596 C   0  0  0  0  0  0  0  0  0  0  0  0
  -28.6049  -13.3917   20.5697 C   0  0  0  0  0  0  0  0  0  0  0  0
  -21.2275  -29.1918   21.5944 C   0  0  1  0  0  0  0  0  0  0  0  0
  -22.2095  -25.6615   22.5974 C   0  0  1  0  0  0  0  0  0  0  0  0
  -27.4986  -13.3727   19.5042 C   0  0  2  0  0  0  0  0  0  0  0  0
  -23.8305  -21.4860   28.9172 C   0  0  0  0  0  0  0  0  0  0  0  0
  -23.6552  -27.6537   26.5091 C   0  0  0  0  0  0  0  0  0  0  0  0
  -24.3497  -26.0800   28.3283 C   0  0  0  0  0  0  0  0  0  0  0  0
  -21.9311  -26.3777   27.7951 C   0  0  0  0  0  0  0  0  0  0  0  0
  -31.3217  -15.5721   22.8548 C   0  0  0  0  0  0  0  0  0  0  0  0
  -23.5582  -20.1938   25.3490 C   0  0  0  0  0  0  0  0  0  0  0  0
  -29.2104  -16.1216   21.7033 C   0  0  0  0  0  0  0  0  0  0  0  0
  -30.0406  -23.0125   20.7912 C   0  0  0  0  0  0  0  0  0  0  0  0
  -30.9931  -22.4830   21.8564 C   0  0  0  0  0  0  0  0  0  0  0  0
  -28.8800  -23.8101   21.3743 C   0  0  0  0  0  0  0  0  0  1  0  0
  -23.4075  -25.1042   26.1856 C   0  0  1  0  0  0  0  0  0  0  0  0
  -23.4201  -21.5319   27.4536 C   0  0  2  0  0  0  0  0  0  0  0  0
  -23.3444  -26.2997   27.1777 C   0  0  0  0  0  0  0  0  0  0  0  0
  -25.7983  -11.6811   20.0781 N   0  0  0  0  0  0  0  0  0  0  0  0
  -26.1575  -12.9760   20.0930 N   0  0  0  0  0  0  0  0  0  0  0  0
  -30.2847  -21.6376   22.8066 N   0  0  3  0  0  0  0  0  0  0  0  0
  -23.0435  -25.3014   23.7458 N   0  0  0  0  0  0  0  0  0  0  0  0
  -29.9034  -13.7600   19.9860 N   0  0  0  0  0  0  0  0  0  0  0  0
  -25.4305  -15.1304   20.7570 N   0  0  0  0  0  0  0  0  0  0  0  0
  -22.9510  -13.4529   23.0875 N   0  0  0  0  0  0  0  0  0  0  0  0
  -21.2689  -27.7746   21.8846 N   0  0  0  0  0  0  0  0  0  0  0  0
  -23.0910  -23.8126   26.7855 N   0  0  0  0  0  0  0  0  0  0  0  0
  -30.4212  -15.3044   21.7424 N   0  0  0  0  0  0  0  0  0  0  0  0
  -23.9116  -20.2920   26.7886 N   0  3  0  0  0  0  0  0  0  0  0  0
  -21.9577  -13.7350   21.0399 O   0  0  0  0  0  0  0  0  0  0  0  0
  -23.4791  -27.6522   22.6075 O   0  0  0  0  0  0  0  0  0  0  0  0
  -21.2504  -25.3669   25.2346 O   0  0  0  0  0  0  0  0  0  0  0  0
  -25.1001  -22.7851   26.2518 O   0  0  0  0  0  0  0  0  0  0  0  0
  -32.0632  -14.4821   20.3495 O   0  0  0  0  0  0  0  0  0  0  0  0
  -21.7573   -6.9235   21.3362 O   0  0  0  0  0  0  0  0  0  0  0  0
  -28.0588  -24.2751   20.3039 O   0  0  0  0  0  0  0  0  0  1  0  0
  -21.5480   -4.7710   26.4083 F   0  0  0  0  0  0  0  0  0  0  0  0
  -22.7570   -4.3973   21.8472 F   0  0  0  0  0  0  0  0  0  0  0  0
  1  2  1  0  0  0  0
  1  5  2  0  0  0  0
  2  6  2  0  0  0  0
  3 10  2  0  0  0  0
  3 18  1  0  0  0  0
  4 11  1  0  0  0  0
  4 18  2  0  0  0  0
  5 20  1  0  0  0  0
  6 22  1  0  0  0  0
  7 12  2  0  0  0  0
  7 21  1  0  0  0  0
  8  9  2  0  0  0  0
  8 25  1  0  0  0  0
  9 26  1  0  0  0  0
 10 27  1  0  0  0  0
 11 27  2  0  0  0  0
 12 28  1  0  0  0  0
 13 14  2  0  0  0  0
 13 29  1  0  0  0  0
 14 30  1  0  0  0  0
 15 23  1  0  0  0  0
 15 25  2  0  0  0  0
 16 24  1  0  0  0  0
 16 28  2  0  0  0  0
 17 30  2  0  0  0  0
 17 31  1  0  0  0  0
 18 32  1  0  0  0  0
 19 32  1  0  0  0  0
 19 33  2  0  0  0  0
 19 34  1  0  0  0  0
 20 22  2  0  0  0  0
 20 39  1  0  0  0  0
 21 24  2  0  0  0  0
 21 40  1  0  0  0  0
 22 51  1  0  0  0  0
 23 26  2  0  0  0  0
 23 41  1  0  0  0  0
 24 42  1  0  0  0  0
 25 60  1  0  0  0  0
 26 69  1  0  0  0  0
 27 83  1  0  0  0  0
 28 84  1  0  0  0  0
 29 31  2  0  0  0  0
 29 83  1  0  0  0  0
 30 85  1  0  0  0  0
 31 86  1  0  0  0  0
 32 67  2  0  0  0  0
 33 68  1  0  0  0  0
 33 72  1  0  0  0  0
 34 73  1  0  0  0  0
 34 78  2  0  0  0  0
 35 52  1  0  0  0  0
 35 74  1  0  0  0  0
 35 79  2  0  0  0  0
 36 64  1  0  0  0  0
 36 70  1  0  0  0  0
 36 80  2  0  0  0  0
 37 65  1  0  0  0  0
 37 75  1  0  0  0  0
 37 81  2  0  0  0  0
 38 71  1  0  0  0  0
 38 76  1  0  0  0  0
 38 82  2  0  0  0  0
 39 43  1  0  0  0  0
 40 52  1  0  0  0  0
 41 44  1  0  0  0  0
 42 70  1  0  0  0  0
 43 46  1  0  0  0  0
 44 48  1  0  0  0  0
 45 47  1  0  0  0  0
 45 49  1  0  0  0  0
 46 51  1  0  0  0  0
 47 53  1  0  0  0  0
 48 69  1  0  0  0  0
 49 71  1  0  0  0  0
 50 53  1  0  0  0  0
 50 71  1  0  0  0  0
 51 74  1  0  0  0  0
 52 70  1  0  0  0  0
 53 68  1  0  0  0  0
 54 65  1  0  0  0  0
 55 66  1  0  0  0  0
 56 66  1  0  0  0  0
 57 66  1  0  0  0  0
 58 76  1  0  0  0  0
 59 77  1  0  0  0  0
 60 76  1  0  0  0  0
 61 62  1  0  0  0  0
 61 63  1  0  0  0  0
 62 69  1  0  0  0  0
 63 84  1  0  0  0  0
 64 66  1  0  0  0  0
 64 75  1  0  0  0  0
 65 77  1  0  0  0  0
 67 68  1  0  0  0  0
M  CHG  1  77   1
M  ISO  4  38 100  63 101  76 100  84 101
M  END
> <Batch ID>
0010

> <Smiles>
CNC(C)C(=O)NC(C(=O)N1Cc2cc([101O:1][101CH2:1]CCN3CCCc4cc(C[100N:0](C)[100C:0](=O)N5CCCC(n6nc(-c7ccc(Oc8ccc(F)cc8F)cc7)c(C(N)=O)c6N)C5)ccc43)ccc2CC1C(=O)NC1CCCc2ccccc21)C(C)(C)C

> <Shape>
0.250

> <Color>
0.181

> <Negative vol penalty>
0.000

$$$$

  -OEChem-04042320403D

 87 96  0     1  0  0  0  0  0999 V2000
  -30.7769  -38.9986   24.8041 C   0  0  0  0  0  0  0  0  0  0  0  0
  -31.1093  -37.7892   24.2022 C   0  0  0  0  0  0  0  0  0  0  0  0
  -24.5431   -9.1453   22.0553 C   0  0  0  0  0  0  0  0  0  0  0  0
  -23.4602   -9.4809   19.9218 C   0  0  0  0  0  0  0  0  0  0  0  0
  -29.8558  -39.0253   25.8504 C   0  0  0  0  0  0  0  0  0  0  0  0
  -30.5216  -36.6055   24.6472 C   0  0  0  0  0  0  0  0  0  0  0  0
  -28.9991  -31.7458   21.2456 C   0  0  0  0  0  0  0  0  0  0  0  0
  -29.1446  -22.4236   19.1923 C   0  0  0  0  0  0  0  0  0  0  0  0
  -29.5192  -23.7473   19.4232 C   0  0  0  0  0  0  0  0  0  0  0  0
  -23.4274   -8.4432   22.5112 C   0  0  0  0  0  0  0  0  0  0  0  0
  -22.3445   -8.7788   20.3777 C   0  0  0  0  0  0  0  0  0  0  0  0
  -29.6383  -30.5298   21.0080 C   0  0  0  0  0  0  0  0  0  0  0  0
  -22.1290   -5.3394   22.1746 C   0  0  0  0  0  0  0  0  0  0  0  0
  -22.3504   -4.1459   22.8617 C   0  0  0  0  0  0  0  0  0  0  0  0
  -28.3146  -29.5019   22.7430 C   0  0  0  0  0  0  0  0  0  0  0  0
  -21.2319   -5.0548   24.8008 C   0  0  0  0  0  0  0  0  0  0  0  0
  -24.5595   -9.6643   20.7606 C   0  0  0  0  0  0  0  0  0  0  0  0
  -26.8394   -9.8616   19.6333 C   0  0  0  0  0  0  0  0  0  0  0  0
  -29.2493  -37.8426   26.3020 C   0  0  0  0  0  0  0  0  0  0  0  0
  -28.0188  -31.8518   22.2428 C   0  0  0  0  0  0  0  0  0  0  0  0
  -29.5926  -36.6163   25.7015 C   0  0  0  0  0  0  0  0  0  0  0  0
  -27.6626  -30.7197   22.9896 C   0  0  0  0  0  0  0  0  0  0  0  0
  -27.8121  -22.0394   19.3431 C   0  0  0  0  0  0  0  0  0  0  0  0
  -28.5614  -24.6867   19.8049 C   0  0  0  0  0  0  0  0  0  0  0  0
  -22.3281   -8.2599   21.6724 C   0  0  0  0  0  0  0  0  0  0  0  0
  -29.2981  -29.4083   21.7587 C   0  0  0  0  0  0  0  0  0  0  0  0
  -21.4591   -6.3907   22.8006 C   0  0  0  0  0  0  0  0  0  0  0  0
  -21.9018   -4.0036   24.1748 C   0  0  0  0  0  0  0  0  0  0  0  0
  -21.0105   -6.2483   24.1137 C   0  0  0  0  0  0  0  0  0  0  0  0
  -26.8543  -22.9789   19.7249 C   0  0  0  0  0  0  0  0  0  0  0  0
  -27.2289  -24.3025   19.9558 C   0  0  0  0  0  0  0  0  0  0  0  0
  -25.7115  -10.3901   20.2892 C   0  0  0  0  0  0  0  0  0  0  0  0
  -27.6412  -10.9514   19.3969 C   0  0  0  0  0  0  0  0  0  0  0  0
  -27.1359   -8.5066   19.2702 C   0  0  0  0  0  0  0  0  0  0  0  0
  -27.7251  -33.5225   24.9309 C   0  0  0  0  0  0  0  0  0  0  0  0
  -24.7469  -32.2370   24.9453 C   0  0  0  0  0  0  0  0  0  0  0  0
  -22.6705  -29.7252   23.9321 C   0  0  0  0  0  0  0  0  0  0  0  0
  -26.6211  -16.5896   18.6235 C   0  0  0  0  0  0  0  0  0  0  0  0
  -28.2950  -37.9154   27.4676 C   0  0  0  0  0  0  0  0  0  0  0  0
  -27.3197  -33.1642   22.4686 C   0  0  0  0  0  0  0  0  0  0  0  0
  -26.6024  -30.7759   24.0579 C   0  0  0  0  0  0  0  0  0  0  0  0
  -27.4361  -36.6640   27.6307 C   0  0  0  0  0  0  0  0  0  0  0  0
  -28.7019  -15.2763   21.1305 C   0  0  0  0  0  0  0  0  0  0  0  0
  -28.2953  -35.4086   27.5193 C   0  0  0  0  0  0  0  0  0  0  0  0
  -28.2783  -13.8078   21.1384 C   0  0  0  0  0  0  0  0  0  0  0  0
  -27.5065  -16.2166   20.9681 C   0  0  0  0  0  0  0  0  0  0  0  0
  -28.1869  -19.9147   18.1295 C   0  0  0  0  0  0  0  0  0  0  0  0
  -26.8075  -19.9736   20.2127 C   0  0  0  0  0  0  0  0  0  0  0  0
  -27.3637  -18.7262   17.6400 C   0  0  0  0  0  0  0  0  0  0  0  0
  -26.0016  -18.7936   19.6812 C   0  0  0  0  0  0  0  0  0  0  0  0
  -26.2353  -14.4445   19.8012 C   0  0  0  0  0  0  0  0  0  0  0  0
  -28.9579  -35.3142   26.1395 C   0  0  1  0  0  0  0  0  0  0  0  0
  -26.7011  -33.2804   23.8583 C   0  0  1  0  0  0  0  0  0  0  0  0
  -27.4217  -13.4734   19.9043 C   0  0  2  0  0  0  0  0  0  0  0  0
  -20.3000  -28.9270   24.1338 C   0  0  0  0  0  0  0  0  0  0  0  0
  -25.3228  -31.2488   27.7740 C   0  0  0  0  0  0  0  0  0  0  0  0
  -23.3699  -29.6975   27.5548 C   0  0  0  0  0  0  0  0  0  0  0  0
  -23.0201  -32.1646   27.4375 C   0  0  0  0  0  0  0  0  0  0  0  0
  -22.2294  -29.9345   21.0131 C   0  0  0  0  0  0  0  0  0  0  0  0
  -30.2906  -26.4829   19.9005 C   0  0  0  0  0  0  0  0  0  0  0  0
  -30.3752  -27.9701   20.2007 C   0  0  0  0  0  0  0  0  0  1  0  0
  -24.1291  -30.9766   25.5009 C   0  0  1  0  0  0  0  0  0  0  0  0
  -21.2828  -29.7518   23.3173 C   0  0  2  0  0  0  0  0  0  0  0  0
  -23.9819  -31.0210   27.0481 C   0  0  0  0  0  0  0  0  0  0  0  0
  -25.7863  -11.7129   20.4588 N   0  0  0  0  0  0  0  0  0  0  0  0
  -26.9710  -12.0247   19.9060 N   0  0  0  0  0  0  0  0  0  0  0  0
  -27.4383  -20.7100   19.1087 N   0  0  0  0  0  0  0  0  0  0  0  0
  -25.9520  -32.0833   24.2454 N   0  0  0  0  0  0  0  0  0  0  0  0
  -26.6976  -15.8340   19.8031 N   0  0  0  0  0  0  0  0  0  0  0  0
  -26.7823  -17.9784   18.7483 N   0  0  0  0  0  0  0  0  0  0  0  0
  -28.8470  -11.0868   18.8053 N   0  0  0  0  0  0  0  0  0  0  0  0
  -26.2028   -7.5103   19.5879 N   0  0  0  0  0  0  0  0  0  0  0  0
  -28.9428  -26.0245   20.0376 N   0  0  0  0  0  0  0  0  0  0  0  0
  -28.0043  -34.8578   25.1512 N   0  0  0  0  0  0  0  0  0  0  0  0
  -22.8712  -30.7891   24.7860 N   0  0  0  0  0  0  0  0  0  0  0  0
  -21.3194  -29.2035   21.9321 N   0  3  0  0  0  0  0  0  0  0  0  0
  -28.2043   -8.1865   18.6960 O   0  0  0  0  0  0  0  0  0  0  0  0
  -28.2237  -32.5685   25.5165 O   0  0  0  0  0  0  0  0  0  0  0  0
  -24.1773  -33.3173   25.1195 O   0  0  0  0  0  0  0  0  0  0  0  0
  -23.4928  -28.8465   23.6829 O   0  0  0  0  0  0  0  0  0  0  0  0
  -26.4240  -16.0575   17.5240 O   0  0  0  0  0  0  0  0  0  0  0  0
  -21.2393   -7.5747   22.1168 O   0  0  0  0  0  0  0  0  0  0  0  0
  -29.9254  -28.2120   21.5277 O   0  0  0  0  0  0  0  0  0  1  0  0
  -22.1131   -2.8569   24.8340 F   0  0  0  0  0  0  0  0  0  0  0  0
  -20.3653   -7.2543   24.7199 F   0  0  0  0  0  0  0  0  0  0  0  0
  -25.5710  -22.6210   19.8728 F   0  0  0  0  0  0  0  0  0  0  0  0
  -26.3002  -25.1965   20.3240 F   0  0  0  0  0  0  0  0  0  0  0  0
  1  2  1  0  0  0  0
  1  5  2  0  0  0  0
  2  6  2  0  0  0  0
  3 10  2  0  0  0  0
  3 17  1  0  0  0  0
  4 11  1  0  0  0  0
  4 17  2  0  0  0  0
  5 19  1  0  0  0  0
  6 21  1  0  0  0  0
  7 12  2  0  0  0  0
  7 20  1  0  0  0  0
  8  9  2  0  0  0  0
  8 23  1  0  0  0  0
  9 24  1  0  0  0  0
 10 25  1  0  0  0  0
 11 25  2  0  0  0  0
 12 26  1  0  0  0  0
 13 14  2  0  0  0  0
 13 27  1  0  0  0  0
 14 28  1  0  0  0  0
 15 22  1  0  0  0  0
 15 26  2  0  0  0  0
 16 28  2  0  0  0  0
 16 29  1  0  0  0  0
 17 32  1  0  0  0  0
 18 32  1  0  0  0  0
 18 33  2  0  0  0  0
 18 34  1  0  0  0  0
 19 21  2  0  0  0  0
 19 39  1  0  0  0  0
 20 22  2  0  0  0  0
 20 40  1  0  0  0  0
 21 52  1  0  0  0  0
 22 41  1  0  0  0  0
 23 30  2  0  0  0  0
 23 67  1  0  0  0  0
 24 31  2  0  0  0  0
 24 73  1  0  0  0  0
 25 82  1  0  0  0  0
 26 83  1  0  0  0  0
 27 29  2  0  0  0  0
 27 82  1  0  0  0  0
 28 84  1  0  0  0  0
 29 85  1  0  0  0  0
 30 31  1  0  0  0  0
 30 86  1  0  0  0  0
 31 87  1  0  0  0  0
 32 65  2  0  0  0  0
 33 66  1  0  0  0  0
 33 71  1  0  0  0  0
 34 72  1  0  0  0  0
 34 77  2  0  0  0  0
 35 53  1  0  0  0  0
 35 74  1  0  0  0  0
 35 78  2  0  0  0  0
 36 62  1  0  0  0  0
 36 68  1  0  0  0  0
 36 79  2  0  0  0  0
 37 63  1  0  0  0  0
 37 75  1  0  0  0  0
 37 80  2  0  0  0  0
 38 69  1  0  0  0  0
 38 70  1  0  0  0  0
 38 81  2  0  0  0  0
 39 42  1  0  0  0  0
 40 53  1  0  0  0  0
 41 68  1  0  0  0  0
 42 44  1  0  0  0  0
 43 45  1  0  0  0  0
 43 46  1  0  0  0  0
 44 52  1  0  0  0  0
 45 54  1  0  0  0  0
 46 69  1  0  0  0  0
 47 49  1  0  0  0  0
 47 67  1  0  0  0  0
 48 50  1  0  0  0  0
 48 67  1  0  0  0  0
 49 70  1  0  0  0  0
 50 70  1  0  0  0  0
 51 54  1  0  0  0  0
 51 69  1  0  0  0  0
 52 74  1  0  0  0  0
 53 68  1  0  0  0  0
 54 66  1  0  0  0  0
 55 63  1  0  0  0  0
 56 64  1  0  0  0  0
 57 64  1  0  0  0  0
 58 64  1  0  0  0  0
 59 76  1  0  0  0  0
 60 61  1  0  0  0  0
 60 73  1  0  0  0  0
 61 83  1  0  0  0  0
 62 64  1  0  0  0  0
 62 75  1  0  0  0  0
 63 76  1  0  0  0  0
 65 66  1  0  0  0  0
M  CHG  1  76   1
M  ISO  4  38 100  61 101  70 100  83 101
M  END
> <Batch ID>
0010

> <Smiles>
CNC(C)C(=O)NC(C(=O)N1Cc2cc([101O:1][101CH2:1]CNc3ccc(N4CC[100N:0]([100C:0](=O)N5CCCC(n6nc(-c7ccc(Oc8ccc(F)cc8F)cc7)c(C(N)=O)c6N)C5)CC4)c(F)c3F)ccc2CC1C(=O)NC1CCCc2ccccc21)C(C)(C)C

> <Shape>
0.283

> <Color>
0.097

> <Negative vol penalty>
0.000

$$$$

  -OEChem-04042320403D

 82 91  0     1  0  0  0  0  0999 V2000
  -31.7551  -26.2651   20.6493 C   0  0  0  0  0  0  0  0  0  0  0  0
  -30.8682  -25.8073   21.6184 C   0  0  0  0  0  0  0  0  0  0  0  0
  -26.5400  -28.8341   22.9873 C   0  0  0  0  0  0  0  0  0  0  0  0
  -25.2827  -30.8868   23.1950 C   0  0  0  0  0  0  0  0  0  0  0  0
  -19.0647  -24.0438   24.7391 C   0  0  0  0  0  0  0  0  0  0  0  0
  -31.8238  -25.6267   19.4117 C   0  0  0  0  0  0  0  0  0  0  0  0
  -30.0486  -24.7116   21.3501 C   0  0  0  0  0  0  0  0  0  0  0  0
  -28.2372  -20.4106   25.3158 C   0  0  0  0  0  0  0  0  0  0  0  0
  -19.6592  -22.9910   25.4347 C   0  0  0  0  0  0  0  0  0  0  0  0
  -27.6232  -29.5493   22.4766 C   0  0  0  0  0  0  0  0  0  0  0  0
  -26.3660  -31.6019   22.6844 C   0  0  0  0  0  0  0  0  0  0  0  0
  -27.0588  -20.2401   26.0411 C   0  0  0  0  0  0  0  0  0  0  0  0
  -30.5909  -30.7910   20.7813 C   0  0  0  0  0  0  0  0  0  0  0  0
  -31.2406  -30.2743   19.6603 C   0  0  0  0  0  0  0  0  0  0  0  0
  -19.8154  -23.0880   22.6511 C   0  0  0  0  0  0  0  0  0  0  0  0
  -26.2281  -18.7552   24.3310 C   0  0  0  0  0  0  0  0  0  0  0  0
  -29.1816  -30.4112   18.4039 C   0  0  0  0  0  0  0  0  0  0  0  0
  -25.3697  -29.5029   23.3464 C   0  0  0  0  0  0  0  0  0  0  0  0
  -19.1428  -24.0922   23.3472 C   0  0  0  0  0  0  0  0  0  0  0  0
  -24.2263  -27.9722   25.0367 C   0  0  0  0  0  0  0  0  0  0  0  0
  -31.0115  -24.5165   19.1315 C   0  0  0  0  0  0  0  0  0  0  0  0
  -28.4157  -19.7622   24.0852 C   0  0  0  0  0  0  0  0  0  0  0  0
  -30.1056  -24.0585   20.1071 C   0  0  0  0  0  0  0  0  0  0  0  0
  -27.4107  -18.9172   23.5932 C   0  0  0  0  0  0  0  0  0  0  0  0
  -20.3318  -21.9867   24.7385 C   0  0  0  0  0  0  0  0  0  0  0  0
  -27.5362  -30.9331   22.3251 C   0  0  0  0  0  0  0  0  0  0  0  0
  -26.0529  -19.4146   25.5474 C   0  0  0  0  0  0  0  0  0  0  0  0
  -29.2365  -31.1177   20.7136 C   0  0  0  0  0  0  0  0  0  0  0  0
  -30.5360  -30.0845   18.4716 C   0  0  0  0  0  0  0  0  0  0  0  0
  -20.4099  -22.0353   23.3467 C   0  0  0  0  0  0  0  0  0  0  0  0
  -28.5319  -30.9279   19.5249 C   0  0  0  0  0  0  0  0  0  0  0  0
  -24.2502  -28.7647   23.8735 C   0  0  0  0  0  0  0  0  0  0  0  0
  -22.9412  -27.4913   25.0983 C   0  0  0  0  0  0  0  0  0  0  0  0
  -18.5155  -25.1995   22.6142 C   0  0  0  0  0  0  0  0  0  0  0  0
  -25.2722  -27.6955   25.9776 C   0  0  0  0  0  0  0  0  0  0  0  0
  -28.8568  -20.7219   21.0872 C   0  0  0  0  0  0  0  0  0  0  0  0
  -29.2739  -17.5511   20.5452 C   0  0  0  0  0  0  0  0  0  0  0  0
  -28.6774  -14.3397   21.5341 C   0  0  0  0  0  0  0  0  0  0  0  0
  -31.0875  -23.8885   17.7624 C   0  0  0  0  0  0  0  0  0  0  0  0
  -29.7036  -19.9355   23.3278 C   0  0  0  0  0  0  0  0  0  0  0  0
  -27.5615  -18.1825   22.2871 C   0  0  0  0  0  0  0  0  0  0  0  0
  -30.4523  -22.5022   17.6921 C   0  0  0  0  0  0  0  0  0  0  0  0
  -18.8091  -28.7540   22.4699 C   0  0  0  0  0  0  0  0  0  0  0  0
  -29.0888  -22.5045   18.3760 C   0  0  0  0  0  0  0  0  0  0  0  0
  -20.2549  -29.0107   22.8986 C   0  0  0  0  0  0  0  0  0  0  0  0
  -18.6830  -27.4706   21.6529 C   0  0  0  0  0  0  0  0  0  0  0  0
  -20.6900  -26.5236   22.7392 C   0  0  0  0  0  0  0  0  0  0  0  0
  -22.7061  -20.1916   27.0809 C   0  0  0  0  0  0  0  0  0  0  0  0
  -23.4033  -21.0465   25.3073 C   0  0  0  0  0  0  0  0  0  0  0  0
  -29.2178  -22.8576   19.8627 C   0  0  1  0  0  0  0  0  0  0  0  0
  -29.5667  -19.6318   21.8391 C   0  0  1  0  0  0  0  0  0  0  0  0
  -20.8529  -27.7814   23.6083 C   0  0  1  0  0  0  0  0  0  0  0  0
  -24.1197  -20.4228   26.5178 C   0  0  0  0  0  0  0  0  0  1  0  0
  -29.1149  -11.9600   20.8684 C   0  0  0  0  0  0  0  0  0  0  0  0
  -27.1429  -17.7697   18.3724 C   0  0  0  0  0  0  0  0  0  0  0  0
  -26.9439  -15.2743   18.4140 C   0  0  0  0  0  0  0  0  0  0  0  0
  -29.1048  -16.3409   17.7694 C   0  0  0  0  0  0  0  0  0  0  0  0
  -30.1627  -13.7913   24.0345 C   0  0  0  0  0  0  0  0  0  0  0  0
  -20.9704  -20.8555   25.4891 C   0  0  0  0  0  0  0  0  0  0  0  0
  -28.3663  -16.3993   20.1866 C   0  0  1  0  0  0  0  0  0  0  0  0
  -29.6013  -13.1450   21.6881 C   0  0  2  0  0  0  0  0  0  0  0  0
  -27.8855  -16.4613   18.7093 C   0  0  0  0  0  0  0  0  0  0  0  0
  -23.0737  -28.7884   23.2415 N   0  0  0  0  0  0  0  0  0  0  0  0
  -22.2986  -28.0048   24.0104 N   0  0  0  0  0  0  0  0  0  0  0  0
  -19.2799  -26.3422   22.3666 N   0  0  0  0  0  0  0  0  0  0  0  0
  -28.8364  -18.3893   21.5804 N   0  0  0  0  0  0  0  0  0  0  0  0
  -22.3095  -26.6836   25.9763 N   0  0  0  0  0  0  0  0  0  0  0  0
  -26.5324  -28.2705   25.7639 N   0  0  0  0  0  0  0  0  0  0  0  0
  -29.6926  -21.7154   20.6140 N   0  0  0  0  0  0  0  0  0  0  0  0
  -29.0965  -15.1829   20.5268 N   0  0  0  0  0  0  0  0  0  0  0  0
  -22.2241  -21.2463   26.1701 N   0  3  0  0  0  0  0  0  0  0  0  0
  -29.6762  -12.7289   23.1171 N   0  3  0  0  0  0  0  0  0  0  0  0
  -17.3429  -25.0353   22.2808 O   0  0  0  0  0  0  0  0  0  0  0  0
  -25.0991  -26.9470   26.9692 O   0  0  0  0  0  0  0  0  0  0  0  0
  -27.6409  -20.6651   20.9456 O   0  0  0  0  0  0  0  0  0  0  0  0
  -30.3355  -17.6974   19.9342 O   0  0  0  0  0  0  0  0  0  0  0  0
  -27.6814  -14.5061   22.2346 O   0  0  0  0  0  0  0  0  0  0  0  0
  -28.5931  -31.6313   21.8271 O   0  0  0  0  0  0  0  0  0  0  0  0
  -24.9015  -19.2469   26.2531 O   0  0  0  0  0  0  0  0  0  1  0  0
  -31.1604  -29.5898   17.3948 F   0  0  0  0  0  0  0  0  0  0  0  0
  -21.0542  -21.0748   22.6693 F   0  0  0  0  0  0  0  0  0  0  0  0
  -27.2309  -31.2410   19.4534 F   0  0  0  0  0  0  0  0  0  0  0  0
  1  2  1  0  0  0  0
  1  6  2  0  0  0  0
  2  7  2  0  0  0  0
  3 10  2  0  0  0  0
  3 18  1  0  0  0  0
  4 11  1  0  0  0  0
  4 18  2  0  0  0  0
  5  9  2  0  0  0  0
  5 19  1  0  0  0  0
  6 21  1  0  0  0  0
  7 23  1  0  0  0  0
  8 12  2  0  0  0  0
  8 22  1  0  0  0  0
  9 25  1  0  0  0  0
 10 26  1  0  0  0  0
 11 26  2  0  0  0  0
 12 27  1  0  0  0  0
 13 14  2  0  0  0  0
 13 28  1  0  0  0  0
 14 29  1  0  0  0  0
 15 19  2  0  0  0  0
 15 30  1  0  0  0  0
 16 24  1  0  0  0  0
 16 27  2  0  0  0  0
 17 29  2  0  0  0  0
 17 31  1  0  0  0  0
 18 32  1  0  0  0  0
 19 34  1  0  0  0  0
 20 32  1  0  0  0  0
 20 33  2  0  0  0  0
 20 35  1  0  0  0  0
 21 23  2  0  0  0  0
 21 39  1  0  0  0  0
 22 24  2  0  0  0  0
 22 40  1  0  0  0  0
 23 50  1  0  0  0  0
 24 41  1  0  0  0  0
 25 30  2  0  0  0  0
 25 59  1  0  0  0  0
 26 78  1  0  0  0  0
 27 79  1  0  0  0  0
 28 31  2  0  0  0  0
 28 78  1  0  0  0  0
 29 80  1  0  0  0  0
 30 81  1  0  0  0  0
 31 82  1  0  0  0  0
 32 63  2  0  0  0  0
 33 64  1  0  0  0  0
 33 67  1  0  0  0  0
 34 65  1  0  0  0  0
 34 73  2  0  0  0  0
 35 68  1  0  0  0  0
 35 74  2  0  0  0  0
 36 51  1  0  0  0  0
 36 69  1  0  0  0  0
 36 75  2  0  0  0  0
 37 60  1  0  0  0  0
 37 66  1  0  0  0  0
 37 76  2  0  0  0  0
 38 61  1  0  0  0  0
 38 70  1  0  0  0  0
 38 77  2  0  0  0  0
 39 42  1  0  0  0  0
 40 51  1  0  0  0  0
 41 66  1  0  0  0  0
 42 44  1  0  0  0  0
 43 45  1  0  0  0  0
 43 46  1  0  0  0  0
 44 50  1  0  0  0  0
 45 52  1  0  0  0  0
 46 65  1  0  0  0  0
 47 52  1  0  0  0  0
 47 65  1  0  0  0  0
 48 53  1  0  0  0  0
 48 71  1  0  0  0  0
 49 53  1  0  0  0  0
 49 71  1  0  0  0  0
 50 69  1  0  0  0  0
 51 66  1  0  0  0  0
 52 64  1  0  0  0  0
 53 79  1  0  0  0  0
 54 61  1  0  0  0  0
 55 62  1  0  0  0  0
 56 62  1  0  0  0  0
 57 62  1  0  0  0  0
 58 72  1  0  0  0  0
 59 71  1  0  0  0  0
 60 62  1  0  0  0  0
 60 70  1  0  0  0  0
 61 72  1  0  0  0  0
 63 64  1  0  0  0  0
M  CHG  2  71   1  72   1
M  ISO  4  19 100  34 100  53 101  79 101
M  END
> <Batch ID>
0010

> <Smiles>
CNC(C)C(=O)NC(C(=O)N1Cc2cc([101O:1][101CH:1]3CN(Cc4cc[100c:0]([100C:0](=O)N5CCCC(n6nc(-c7ccc(Oc8ccc(F)cc8F)cc7)c(C(N)=O)c6N)C5)cc4F)C3)ccc2CC1C(=O)NC1CCCc2ccccc21)C(C)(C)C

> <Shape>
0.186

> <Color>
0.052

> <Negative vol penalty>
0.000

$$$$

  -OEChem-04042320403D

 82 90  0     1  0  0  0  0  0999 V2000
  -17.7884  -32.9572   22.0745 C   0  0  0  0  0  0  0  0  0  0  0  0
  -19.0679  -33.0660   21.5393 C   0  0  0  0  0  0  0  0  0  0  0  0
  -23.0494  -13.0811   20.9633 C   0  0  0  0  0  0  0  0  0  0  0  0
  -23.3095  -14.7257   22.7139 C   0  0  0  0  0  0  0  0  0  0  0  0
  -17.5254  -32.0090   23.0622 C   0  0  0  0  0  0  0  0  0  0  0  0
  -20.0855  -32.2273   21.9923 C   0  0  0  0  0  0  0  0  0  0  0  0
  -25.9928  -28.8798   19.7086 C   0  0  0  0  0  0  0  0  0  0  0  0
  -30.7187  -21.5213   19.2402 C   0  0  0  0  0  0  0  0  0  0  0  0
  -22.3650  -12.2476   21.8479 C   0  0  0  0  0  0  0  0  0  0  0  0
  -22.6251  -13.8922   23.5986 C   0  0  0  0  0  0  0  0  0  0  0  0
  -27.3401  -28.7304   20.0343 C   0  0  0  0  0  0  0  0  0  0  0  0
  -31.0304  -22.8750   19.3659 C   0  0  0  0  0  0  0  0  0  0  0  0
  -19.2524  -12.0144   23.1479 C   0  0  0  0  0  0  0  0  0  0  0  0
  -18.0840  -11.4044   22.6914 C   0  0  0  0  0  0  0  0  0  0  0  0
  -26.7506  -27.0760   21.6880 C   0  0  0  0  0  0  0  0  0  0  0  0
  -28.3985  -22.0891   18.8780 C   0  0  0  0  0  0  0  0  0  0  0  0
  -19.0627   -9.2317   23.0901 C   0  0  0  0  0  0  0  0  0  0  0  0
  -23.5217  -14.3201   21.3963 C   0  0  0  0  0  0  0  0  0  0  0  0
  -23.6765  -16.1650   19.6413 C   0  0  0  0  0  0  0  0  0  0  0  0
  -18.5381  -31.1516   23.5207 C   0  0  0  0  0  0  0  0  0  0  0  0
  -25.0116  -28.1352   20.3788 C   0  0  0  0  0  0  0  0  0  0  0  0
  -19.8362  -31.2675   22.9881 C   0  0  0  0  0  0  0  0  0  0  0  0
  -25.3917  -27.2160   21.3671 C   0  0  0  0  0  0  0  0  0  0  0  0
  -29.4028  -21.1283   18.9962 C   0  0  0  0  0  0  0  0  0  0  0  0
  -22.1529  -12.6532   23.1656 C   0  0  0  0  0  0  0  0  0  0  0  0
  -27.7190  -27.8305   21.0261 C   0  0  0  0  0  0  0  0  0  0  0  0
  -20.3259  -11.2331   23.5754 C   0  0  0  0  0  0  0  0  0  0  0  0
  -30.0261  -23.8358   19.2478 C   0  0  0  0  0  0  0  0  0  0  0  0
  -17.9891  -10.0130   22.6625 C   0  0  0  0  0  0  0  0  0  0  0  0
  -28.7101  -23.4429   19.0038 C   0  0  0  0  0  0  0  0  0  0  0  0
  -20.2311   -9.8418   23.5465 C   0  0  0  0  0  0  0  0  0  0  0  0
  -24.2292  -15.1813   20.4831 C   0  0  0  0  0  0  0  0  0  0  0  0
  -24.7565  -16.6982   18.9811 C   0  0  0  0  0  0  0  0  0  0  0  0
  -22.3091  -16.5615   19.4714 C   0  0  0  0  0  0  0  0  0  0  0  0
  -22.5237  -28.8496   22.2236 C   0  0  0  0  0  0  0  0  0  0  0  0
  -21.9611  -25.6608   22.0310 C   0  0  0  0  0  0  0  0  0  0  0  0
  -23.2027  -22.5268   21.4987 C   0  0  0  0  0  0  0  0  0  0  0  0
  -29.9627  -18.6724   18.9586 C   0  0  0  0  0  0  0  0  0  0  0  0
  -18.2175  -30.1742   24.6236 C   0  0  0  0  0  0  0  0  0  0  0  0
  -23.5648  -28.2885   19.9972 C   0  0  0  0  0  0  0  0  0  0  0  0
  -24.3790  -26.3779   22.1023 C   0  0  0  0  0  0  0  0  0  0  0  0
  -19.2605  -29.0708   24.7819 C   0  0  0  0  0  0  0  0  0  0  0  0
  -29.5667  -15.1408   18.7393 C   0  0  0  0  0  0  0  0  0  0  0  0
  -20.6673  -29.6603   24.7690 C   0  0  0  0  0  0  0  0  0  0  0  0
  -28.0973  -14.9174   19.1042 C   0  0  0  0  0  0  0  0  0  0  0  0
  -30.1886  -16.2712   19.5572 C   0  0  0  0  0  0  0  0  0  0  0  0
  -27.9828  -17.3179   19.8864 C   0  0  0  0  0  0  0  0  0  0  0  0
  -20.9606  -30.3590   23.4358 C   0  0  1  0  0  0  0  0  0  0  0  0
  -22.6063  -27.8538   21.1015 C   0  0  1  0  0  0  0  0  0  0  0  0
  -27.2952  -16.2321   19.0426 C   0  0  2  0  0  0  0  0  0  0  0  0
  -22.5085  -20.1158   21.4447 C   0  0  0  0  0  0  0  0  0  0  0  0
  -21.8853  -25.6167   25.0810 C   0  0  0  0  0  0  0  0  0  0  0  0
  -22.1454  -23.1286   24.9821 C   0  0  0  0  0  0  0  0  0  0  0  0
  -20.1375  -24.2120   23.9736 C   0  0  0  0  0  0  0  0  0  0  0  0
  -23.9756  -22.2477   18.6556 C   0  0  0  0  0  0  0  0  0  0  0  0
  -31.2263  -27.0652   20.5521 C   0  0  0  0  0  0  0  0  0  0  0  0
  -29.9844  -27.9077   20.3065 C   0  0  0  0  0  0  0  0  0  1  0  0
  -30.9048  -25.5799   20.6049 C   0  0  0  0  0  0  0  0  0  0  0  0
  -22.3801  -24.4510   22.8310 C   0  0  1  0  0  0  0  0  0  0  0  0
  -22.7121  -21.3832   20.6292 C   0  0  2  0  0  0  0  0  0  0  0  0
  -21.6562  -24.3691   24.2046 C   0  0  0  0  0  0  0  0  0  0  0  0
  -25.5571  -15.0925   20.3698 N   0  0  0  0  0  0  0  0  0  0  0  0
  -25.8478  -16.0273   19.4491 N   0  0  0  0  0  0  0  0  0  0  0  0
  -22.9764  -26.5685   21.6976 N   0  0  0  0  0  0  0  0  0  0  0  0
  -29.3772  -17.4856   19.4479 N   0  0  0  0  0  0  0  0  0  0  0  0
  -24.8695  -17.6707   18.0517 N   0  0  0  0  0  0  0  0  0  0  0  0
  -21.3257  -15.9102   20.2283 N   0  0  0  0  0  0  0  0  0  0  0  0
  -29.0861  -19.7531   18.8684 N   0  0  0  0  0  0  0  0  0  0  0  0
  -21.2630  -29.3839   22.4100 N   0  0  0  0  0  0  0  0  0  0  0  0
  -22.1587  -23.2950   21.9691 N   0  0  0  0  0  0  0  0  0  0  0  0
  -23.6976  -21.0940   19.5493 N   0  3  0  0  0  0  0  0  0  0  0  0
  -21.9678  -17.4552   18.6600 O   0  0  0  0  0  0  0  0  0  0  0  0
  -23.5289  -29.1126   22.8733 O   0  0  0  0  0  0  0  0  0  0  0  0
  -20.7780  -25.7917   21.7075 O   0  0  0  0  0  0  0  0  0  0  0  0
  -24.3927  -22.7171   21.7399 O   0  0  0  0  0  0  0  0  0  0  0  0
  -31.1473  -18.7188   18.6172 O   0  0  0  0  0  0  0  0  0  0  0  0
  -21.4849  -11.8402   24.0290 O   0  0  0  0  0  0  0  0  0  0  0  0
  -29.0334  -27.6831   21.3464 O   0  0  0  0  0  0  0  0  0  1  0  0
  -30.3344  -25.1657   19.3709 O   0  0  0  0  0  0  0  0  0  0  0  0
  -16.8665   -9.4274   22.2256 F   0  0  0  0  0  0  0  0  0  0  0  0
  -27.7413  -24.3614   18.8881 F   0  0  0  0  0  0  0  0  0  0  0  0
  -21.2587   -9.0859   23.9571 F   0  0  0  0  0  0  0  0  0  0  0  0
  1  2  1  0  0  0  0
  1  5  2  0  0  0  0
  2  6  2  0  0  0  0
  3  9  2  0  0  0  0
  3 18  1  0  0  0  0
  4 10  1  0  0  0  0
  4 18  2  0  0  0  0
  5 20  1  0  0  0  0
  6 22  1  0  0  0  0
  7 11  2  0  0  0  0
  7 21  1  0  0  0  0
  8 12  2  0  0  0  0
  8 24  1  0  0  0  0
  9 25  1  0  0  0  0
 10 25  2  0  0  0  0
 11 26  1  0  0  0  0
 12 28  1  0  0  0  0
 13 14  2  0  0  0  0
 13 27  1  0  0  0  0
 14 29  1  0  0  0  0
 15 23  1  0  0  0  0
 15 26  2  0  0  0  0
 16 24  2  0  0  0  0
 16 30  1  0  0  0  0
 17 29  2  0  0  0  0
 17 31  1  0  0  0  0
 18 32  1  0  0  0  0
 19 32  1  0  0  0  0
 19 33  2  0  0  0  0
 19 34  1  0  0  0  0
 20 22  2  0  0  0  0
 20 39  1  0  0  0  0
 21 23  2  0  0  0  0
 21 40  1  0  0  0  0
 22 48  1  0  0  0  0
 23 41  1  0  0  0  0
 24 68  1  0  0  0  0
 25 77  1  0  0  0  0
 26 78  1  0  0  0  0
 27 31  2  0  0  0  0
 27 77  1  0  0  0  0
 28 30  2  0  0  0  0
 28 79  1  0  0  0  0
 29 80  1  0  0  0  0
 30 81  1  0  0  0  0
 31 82  1  0  0  0  0
 32 62  2  0  0  0  0
 33 63  1  0  0  0  0
 33 66  1  0  0  0  0
 34 67  1  0  0  0  0
 34 72  2  0  0  0  0
 35 49  1  0  0  0  0
 35 69  1  0  0  0  0
 35 73  2  0  0  0  0
 36 59  1  0  0  0  0
 36 64  1  0  0  0  0
 36 74  2  0  0  0  0
 37 60  1  0  0  0  0
 37 70  1  0  0  0  0
 37 75  2  0  0  0  0
 38 65  1  0  0  0  0
 38 68  1  0  0  0  0
 38 76  2  0  0  0  0
 39 42  1  0  0  0  0
 40 49  1  0  0  0  0
 41 64  1  0  0  0  0
 42 44  1  0  0  0  0
 43 45  1  0  0  0  0
 43 46  1  0  0  0  0
 44 48  1  0  0  0  0
 45 50  1  0  0  0  0
 46 65  1  0  0  0  0
 47 50  1  0  0  0  0
 47 65  1  0  0  0  0
 48 69  1  0  0  0  0
 49 64  1  0  0  0  0
 50 63  1  0  0  0  0
 51 60  1  0  0  0  0
 52 61  1  0  0  0  0
 53 61  1  0  0  0  0
 54 61  1  0  0  0  0
 55 71  1  0  0  0  0
 56 57  1  0  0  0  0
 56 58  1  0  0  0  0
 57 78  1  0  0  0  0
 58 79  1  0  0  0  0
 59 61  1  0  0  0  0
 59 70  1  0  0  0  0
 60 71  1  0  0  0  0
 62 63  1  0  0  0  0
M  CHG  1  71   1
M  ISO  4  38 100  57 101  68 100  78 101
M  END
> <Batch ID>
0010

> <Smiles>
CNC(C)C(=O)NC(C(=O)N1Cc2cc([101O:1][101CH2:1]CCOc3ccc([100NH:0][100C:0](=O)N4CCCC(n5nc(-c6ccc(Oc7ccc(F)cc7F)cc6)c(C(N)=O)c5N)C4)cc3F)ccc2CC1C(=O)NC1CCCc2ccccc21)C(C)(C)C

> <Shape>
0.201

> <Color>
0.083

> <Negative vol penalty>
0.000

$$$$

  -OEChem-04042320403D

 85 93  0     1  0  0  0  0  0999 V2000
  -18.0809  -16.5157   17.8395 C   0  0  0  0  0  0  0  0  0  0  0  0
  -19.2588  -17.2265   18.0464 C   0  0  0  0  0  0  0  0  0  0  0  0
  -23.8696  -30.9478   23.0006 C   0  0  0  0  0  0  0  0  0  0  0  0
  -23.8884  -28.7169   23.9279 C   0  0  0  0  0  0  0  0  0  0  0  0
  -17.8716  -15.3074   18.5029 C   0  0  0  0  0  0  0  0  0  0  0  0
  -20.2277  -16.7298   18.9177 C   0  0  0  0  0  0  0  0  0  0  0  0
  -24.9079  -17.0630   17.0126 C   0  0  0  0  0  0  0  0  0  0  0  0
  -29.3824  -23.1840   21.6127 C   0  0  0  0  0  0  0  0  0  0  0  0
  -22.4751  -30.9470   23.0269 C   0  0  0  0  0  0  0  0  0  0  0  0
  -22.4938  -28.7161   23.9543 C   0  0  0  0  0  0  0  0  0  0  0  0
  -25.5238  -18.3132   17.0519 C   0  0  0  0  0  0  0  0  0  0  0  0
  -29.3514  -21.7975   21.4635 C   0  0  0  0  0  0  0  0  0  0  0  0
  -19.9609  -28.2671   21.7603 C   0  0  0  0  0  0  0  0  0  0  0  0
  -19.3046  -27.1256   21.2999 C   0  0  0  0  0  0  0  0  0  0  0  0
  -26.7659  -17.6332   19.0048 C   0  0  0  0  0  0  0  0  0  0  0  0
  -30.2831  -23.4040   19.3817 C   0  0  0  0  0  0  0  0  0  0  0  0
  -18.2759  -26.8427   23.4675 C   0  0  0  0  0  0  0  0  0  0  0  0
  -24.5763  -29.8327   23.4511 C   0  0  0  0  0  0  0  0  0  0  0  0
  -26.8867  -30.2636   24.4433 C   0  0  0  0  0  0  0  0  0  0  0  0
  -18.8425  -14.7909   19.3753 C   0  0  0  0  0  0  0  0  0  0  0  0
  -25.2088  -16.0907   17.9772 C   0  0  0  0  0  0  0  0  0  0  0  0
  -20.0305  -15.5141   19.5943 C   0  0  0  0  0  0  0  0  0  0  0  0
  -26.1543  -16.3706   18.9741 C   0  0  0  0  0  0  0  0  0  0  0  0
  -30.2522  -22.0175   19.2325 C   0  0  0  0  0  0  0  0  0  0  0  0
  -29.8482  -23.9872   20.5718 C   0  0  0  0  0  0  0  0  0  0  0  0
  -21.7871  -29.8312   23.5038 C   0  0  0  0  0  0  0  0  0  0  0  0
  -26.4508  -18.5994   18.0498 C   0  0  0  0  0  0  0  0  0  0  0  0
  -29.7863  -21.2142   20.2734 C   0  0  0  0  0  0  0  0  0  0  0  0
  -19.7747  -28.6963   23.0744 C   0  0  0  0  0  0  0  0  0  0  0  0
  -18.4621  -26.4134   22.1534 C   0  0  0  0  0  0  0  0  0  0  0  0
  -18.9321  -27.9841   23.9280 C   0  0  0  0  0  0  0  0  0  0  0  0
  -26.0170  -29.8326   23.4236 C   0  0  0  0  0  0  0  0  0  0  0  0
  -28.1445  -30.0601   23.9305 C   0  0  0  0  0  0  0  0  0  0  0  0
  -26.5845  -30.7998   25.7382 C   0  0  0  0  0  0  0  0  0  0  0  0
  -23.5454  -14.5539   20.2078 C   0  0  0  0  0  0  0  0  0  0  0  0
  -26.3129  -12.9035   20.5810 C   0  0  0  0  0  0  0  0  0  0  0  0
  -29.7057  -12.8172   20.2227 C   0  0  0  0  0  0  0  0  0  0  0  0
  -30.3116  -26.3367   19.7898 C   0  0  0  0  0  0  0  0  0  0  0  0
  -18.5509  -13.5042   20.1061 C   0  0  0  0  0  0  0  0  0  0  0  0
  -24.5555  -14.7377   17.9052 C   0  0  0  0  0  0  0  0  0  0  0  0
  -26.5273  -15.3542   20.0211 C   0  0  0  0  0  0  0  0  0  0  0  0
  -19.7893  -12.8613   20.7253 C   0  0  0  0  0  0  0  0  0  0  0  0
  -30.5102  -29.8916   19.7700 C   0  0  0  0  0  0  0  0  0  0  0  0
  -20.6176  -13.9048   21.4681 C   0  0  0  0  0  0  0  0  0  0  0  0
  -29.4639  -30.3189   20.8019 C   0  0  0  0  0  0  0  0  0  0  0  0
  -30.0554  -28.6698   18.9737 C   0  0  0  0  0  0  0  0  0  0  0  0
  -28.5900  -27.9476   20.8176 C   0  0  0  0  0  0  0  0  0  0  0  0
  -21.1159  -14.9958   20.5127 C   0  0  1  0  0  0  0  0  0  0  0  0
  -24.5555  -14.0023   19.2418 C   0  0  1  0  0  0  0  0  0  0  0  0
  -29.0309  -29.1351   21.6889 C   0  0  2  0  0  0  0  0  0  0  0  0
  -30.9533  -17.8070   20.4171 C   0  0  0  0  0  0  0  0  0  0  0  0
  -31.6953  -11.3495   20.6523 C   0  0  0  0  0  0  0  0  0  0  0  0
  -26.1785  -13.5945   23.5499 C   0  0  0  0  0  0  0  0  0  0  0  0
  -28.5911  -12.9520   23.7374 C   0  0  0  0  0  0  0  0  0  0  0  0
  -26.8985  -11.2510   23.0559 C   0  0  0  0  0  0  0  0  0  0  0  0
  -30.3854  -12.6984   17.3447 C   0  0  0  0  0  0  0  0  0  0  0  0
  -30.2045  -19.9121   16.0231 C   0  0  0  0  0  0  0  0  0  0  0  0
  -30.7237  -21.4071   17.9456 C   0  0  0  0  0  0  0  0  0  0  0  0
  -28.4433  -21.4120   16.9453 C   0  0  0  0  0  0  0  0  0  0  0  0
  -30.5156  -19.0977   21.0761 C   0  0  0  0  0  0  0  0  0  0  0  0
  -27.2424  -20.4921   16.8468 C   0  0  0  0  0  0  0  0  0  1  0  0
  -27.5518  -13.0710   21.4272 C   0  0  1  0  0  0  0  0  0  0  0  0
  -30.6312  -11.7608   19.6467 C   0  0  2  0  0  0  0  0  0  0  0  0
  -27.2967  -12.7372   22.9242 C   0  0  0  0  0  0  0  0  0  0  0  0
  -26.6672  -29.3891   22.3445 N   0  0  0  0  0  0  0  0  0  0  0  0
  -27.9589  -29.5402   22.6833 N   0  0  0  0  0  0  0  0  0  0  0  0
  -25.8566  -14.0480   19.9120 N   0  0  0  0  0  0  0  0  0  0  0  0
  -29.6648  -27.5875   19.8797 N   0  0  0  0  0  0  0  0  0  0  0  0
  -29.3800  -30.2770   24.4292 N   0  0  0  0  0  0  0  0  0  0  0  0
  -25.2394  -30.9419   26.1053 N   0  0  0  0  0  0  0  0  0  0  0  0
  -29.8794  -25.3957   20.7237 N   0  0  0  0  0  0  0  0  0  0  0  0
  -22.2445  -14.5171   19.7435 N   0  0  0  0  0  0  0  0  0  0  0  0
  -28.5871  -12.2557   20.8012 N   0  0  0  0  0  0  0  0  0  0  0  0
  -31.3128  -12.2787   18.4267 N   0  3  0  0  0  0  0  0  0  0  0  0
  -29.6543  -20.6067   17.2442 N   0  3  1  0  0  0  0  0  0  0  0  0
  -27.4807  -31.1581   26.5395 O   0  0  0  0  0  0  0  0  0  0  0  0
  -23.9186  -14.9799   21.2945 O   0  0  0  0  0  0  0  0  0  0  0  0
  -25.7741  -11.7961   20.5104 O   0  0  0  0  0  0  0  0  0  0  0  0
  -29.9523  -14.0200   20.1684 O   0  0  0  0  0  0  0  0  0  0  0  0
  -31.2037  -26.1253   18.9643 O   0  0  0  0  0  0  0  0  0  0  0  0
  -20.4263  -29.8302   23.5298 O   0  0  0  0  0  0  0  0  0  0  0  0
  -27.0530  -19.8191   18.0908 O   0  0  0  0  0  0  0  0  0  1  0  0
  -29.7493  -19.8583   20.1444 O   0  0  0  0  0  0  0  0  0  0  0  0
  -17.8308  -25.3182   21.7106 F   0  0  0  0  0  0  0  0  0  0  0  0
  -18.7484  -28.3923   25.1911 F   0  0  0  0  0  0  0  0  0  0  0  0
  1  2  1  0  0  0  0
  1  5  2  0  0  0  0
  2  6  2  0  0  0  0
  3  9  2  0  0  0  0
  3 18  1  0  0  0  0
  4 10  1  0  0  0  0
  4 18  2  0  0  0  0
  5 20  1  0  0  0  0
  6 22  1  0  0  0  0
  7 11  2  0  0  0  0
  7 21  1  0  0  0  0
  8 12  2  0  0  0  0
  8 25  1  0  0  0  0
  9 26  1  0  0  0  0
 10 26  2  0  0  0  0
 11 27  1  0  0  0  0
 12 28  1  0  0  0  0
 13 14  2  0  0  0  0
 13 29  1  0  0  0  0
 14 30  1  0  0  0  0
 15 23  1  0  0  0  0
 15 27  2  0  0  0  0
 16 24  1  0  0  0  0
 16 25  2  0  0  0  0
 17 30  2  0  0  0  0
 17 31  1  0  0  0  0
 18 32  1  0  0  0  0
 19 32  1  0  0  0  0
 19 33  2  0  0  0  0
 19 34  1  0  0  0  0
 20 22  2  0  0  0  0
 20 39  1  0  0  0  0
 21 23  2  0  0  0  0
 21 40  1  0  0  0  0
 22 48  1  0  0  0  0
 23 41  1  0  0  0  0
 24 28  2  0  0  0  0
 24 58  1  0  0  0  0
 25 71  1  0  0  0  0
 26 81  1  0  0  0  0
 27 82  1  0  0  0  0
 28 83  1  0  0  0  0
 29 31  2  0  0  0  0
 29 81  1  0  0  0  0
 30 84  1  0  0  0  0
 31 85  1  0  0  0  0
 32 65  2  0  0  0  0
 33 66  1  0  0  0  0
 33 69  1  0  0  0  0
 34 70  1  0  0  0  0
 34 76  2  0  0  0  0
 35 49  1  0  0  0  0
 35 72  1  0  0  0  0
 35 77  2  0  0  0  0
 36 62  1  0  0  0  0
 36 67  1  0  0  0  0
 36 78  2  0  0  0  0
 37 63  1  0  0  0  0
 37 73  1  0  0  0  0
 37 79  2  0  0  0  0
 38 68  1  0  0  0  0
 38 71  1  0  0  0  0
 38 80  2  0  0  0  0
 39 42  1  0  0  0  0
 40 49  1  0  0  0  0
 41 67  1  0  0  0  0
 42 44  1  0  0  0  0
 43 45  1  0  0  0  0
 43 46  1  0  0  0  0
 44 48  1  0  0  0  0
 45 50  1  0  0  0  0
 46 68  1  0  0  0  0
 47 50  1  0  0  0  0
 47 68  1  0  0  0  0
 48 72  1  0  0  0  0
 49 67  1  0  0  0  0
 50 66  1  0  0  0  0
 51 60  1  0  0  0  0
 52 63  1  0  0  0  0
 53 64  1  0  0  0  0
 54 64  1  0  0  0  0
 55 64  1  0  0  0  0
 56 74  1  0  0  0  0
 57 75  1  0  0  0  0
 58 75  1  0  0  0  0
 59 61  1  0  0  0  0
 59 75  1  0  0  0  0
 60 83  1  0  0  0  0
 61 82  1  0  0  0  0
 62 64  1  0  0  0  0
 62 73  1  0  0  0  0
 63 74  1  0  0  0  0
 65 66  1  0  0  0  0
M  CHG  2  74   1  75   1
M  ISO  4  38 100  61 101  71 100  82 101
M  END
> <Batch ID>
0010

> <Smiles>
CCOc1ccc([100NH:0][100C:0](=O)N2CCCC(n3nc(-c4ccc(Oc5ccc(F)cc5F)cc4)c(C(N)=O)c3N)C2)cc1CN(C)C[101CH2:1][101O:1]c1ccc2c(c1)CN(C(=O)C(NC(=O)C(C)NC)C(C)(C)C)C(C(=O)NC1CCCc3ccccc31)C2

> <Shape>
0.278

> <Color>
0.055

> <Negative vol penalty>
0.000

$$$$
