
  -OEChem-04042320433D

 82 90  0     1  0  0  0  0  0999 V2000
  -17.7884  -32.9572   22.0745 C   0  0  0  0  0  0  0  0  0  0  0  0
  -19.0679  -33.0660   21.5393 C   0  0  0  0  0  0  0  0  0  0  0  0
  -23.0494  -13.0811   20.9633 C   0  0  0  0  0  0  0  0  0  0  0  0
  -23.3095  -14.7257   22.7139 C   0  0  0  0  0  0  0  0  0  0  0  0
  -17.5254  -32.0090   23.0622 C   0  0  0  0  0  0  0  0  0  0  0  0
  -20.0855  -32.2273   21.9923 C   0  0  0  0  0  0  0  0  0  0  0  0
  -25.9928  -28.8798   19.7086 C   0  0  0  0  0  0  0  0  0  0  0  0
  -30.7187  -21.5213   19.2402 C   0  0  0  0  0  0  0  0  0  0  0  0
  -22.3650  -12.2476   21.8479 C   0  0  0  0  0  0  0  0  0  0  0  0
  -22.6251  -13.8922   23.5986 C   0  0  0  0  0  0  0  0  0  0  0  0
  -27.3401  -28.7304   20.0343 C   0  0  0  0  0  0  0  0  0  0  0  0
  -31.0304  -22.8750   19.3659 C   0  0  0  0  0  0  0  0  0  0  0  0
  -19.2524  -12.0144   23.1479 C   0  0  0  0  0  0  0  0  0  0  0  0
  -18.0840  -11.4044   22.6914 C   0  0  0  0  0  0  0  0  0  0  0  0
  -26.7506  -27.0760   21.6880 C   0  0  0  0  0  0  0  0  0  0  0  0
  -28.3985  -22.0891   18.8780 C   0  0  0  0  0  0  0  0  0  0  0  0
  -19.0627   -9.2317   23.0901 C   0  0  0  0  0  0  0  0  0  0  0  0
  -23.5217  -14.3201   21.3963 C   0  0  0  0  0  0  0  0  0  0  0  0
  -23.6765  -16.1650   19.6413 C   0  0  0  0  0  0  0  0  0  0  0  0
  -18.5381  -31.1516   23.5207 C   0  0  0  0  0  0  0  0  0  0  0  0
  -25.0116  -28.1352   20.3788 C   0  0  0  0  0  0  0  0  0  0  0  0
  -19.8362  -31.2675   22.9881 C   0  0  0  0  0  0  0  0  0  0  0  0
  -25.3917  -27.2160   21.3671 C   0  0  0  0  0  0  0  0  0  0  0  0
  -29.4028  -21.1283   18.9962 C   0  0  0  0  0  0  0  0  0  0  0  0
  -22.1529  -12.6532   23.1656 C   0  0  0  0  0  0  0  0  0  0  0  0
  -27.7190  -27.8305   21.0261 C   0  0  0  0  0  0  0  0  0  0  0  0
  -20.3259  -11.2331   23.5754 C   0  0  0  0  0  0  0  0  0  0  0  0
  -30.0261  -23.8358   19.2478 C   0  0  0  0  0  0  0  0  0  0  0  0
  -17.9891  -10.0130   22.6625 C   0  0  0  0  0  0  0  0  0  0  0  0
  -28.7101  -23.4429   19.0038 C   0  0  0  0  0  0  0  0  0  0  0  0
  -20.2311   -9.8418   23.5465 C   0  0  0  0  0  0  0  0  0  0  0  0
  -24.2292  -15.1813   20.4831 C   0  0  0  0  0  0  0  0  0  0  0  0
  -24.7565  -16.6982   18.9811 C   0  0  0  0  0  0  0  0  0  0  0  0
  -22.3091  -16.5615   19.4714 C   0  0  0  0  0  0  0  0  0  0  0  0
  -22.5237  -28.8496   22.2236 C   0  0  0  0  0  0  0  0  0  0  0  0
  -21.9611  -25.6608   22.0310 C   0  0  0  0  0  0  0  0  0  0  0  0
  -23.2027  -22.5268   21.4987 C   0  0  0  0  0  0  0  0  0  0  0  0
  -29.9627  -18.6724   18.9586 C   0  0  0  0  0  0  0  0  0  0  0  0
  -18.2175  -30.1742   24.6236 C   0  0  0  0  0  0  0  0  0  0  0  0
  -23.5648  -28.2885   19.9972 C   0  0  0  0  0  0  0  0  0  0  0  0
  -24.3790  -26.3779   22.1023 C   0  0  0  0  0  0  0  0  0  0  0  0
  -19.2605  -29.0708   24.7819 C   0  0  0  0  0  0  0  0  0  0  0  0
  -29.5667  -15.1408   18.7393 C   0  0  0  0  0  0  0  0  0  0  0  0
  -20.6673  -29.6603   24.7690 C   0  0  0  0  0  0  0  0  0  0  0  0
  -28.0973  -14.9174   19.1042 C   0  0  0  0  0  0  0  0  0  0  0  0
  -30.1886  -16.2712   19.5572 C   0  0  0  0  0  0  0  0  0  0  0  0
  -27.9828  -17.3179   19.8864 C   0  0  0  0  0  0  0  0  0  0  0  0
  -20.9606  -30.3590   23.4358 C   0  0  1  0  0  0  0  0  0  0  0  0
  -22.6063  -27.8538   21.1015 C   0  0  1  0  0  0  0  0  0  0  0  0
  -27.2952  -16.2321   19.0426 C   0  0  2  0  0  0  0  0  0  0  0  0
  -22.5085  -20.1158   21.4447 C   0  0  0  0  0  0  0  0  0  0  0  0
  -21.8853  -25.6167   25.0810 C   0  0  0  0  0  0  0  0  0  0  0  0
  -22.1454  -23.1286   24.9821 C   0  0  0  0  0  0  0  0  0  0  0  0
  -20.1375  -24.2120   23.9736 C   0  0  0  0  0  0  0  0  0  0  0  0
  -23.9756  -22.2477   18.6556 C   0  0  0  0  0  0  0  0  0  0  0  0
  -31.2263  -27.0652   20.5521 C   0  0  0  0  0  0  0  0  0  0  0  0
  -29.9844  -27.9077   20.3065 C   0  0  0  0  0  0  0  0  0  1  0  0
  -30.9048  -25.5799   20.6049 C   0  0  0  0  0  0  0  0  0  0  0  0
  -22.3801  -24.4510   22.8310 C   0  0  1  0  0  0  0  0  0  0  0  0
  -22.7121  -21.3832   20.6292 C   0  0  2  0  0  0  0  0  0  0  0  0
  -21.6562  -24.3691   24.2046 C   0  0  0  0  0  0  0  0  0  0  0  0
  -25.5571  -15.0925   20.3698 N   0  0  0  0  0  0  0  0  0  0  0  0
  -25.8478  -16.0273   19.4491 N   0  0  0  0  0  0  0  0  0  0  0  0
  -22.9764  -26.5685   21.6976 N   0  0  0  0  0  0  0  0  0  0  0  0
  -29.3772  -17.4856   19.4479 N   0  0  0  0  0  0  0  0  0  0  0  0
  -24.8695  -17.6707   18.0517 N   0  0  0  0  0  0  0  0  0  0  0  0
  -21.3257  -15.9102   20.2283 N   0  0  0  0  0  0  0  0  0  0  0  0
  -29.0861  -19.7531   18.8684 N   0  0  0  0  0  0  0  0  0  0  0  0
  -21.2630  -29.3839   22.4100 N   0  0  0  0  0  0  0  0  0  0  0  0
  -22.1587  -23.2950   21.9691 N   0  0  0  0  0  0  0  0  0  0  0  0
  -23.6976  -21.0940   19.5493 N   0  3  0  0  0  0  0  0  0  0  0  0
  -21.9678  -17.4552   18.6600 O   0  0  0  0  0  0  0  0  0  0  0  0
  -23.5289  -29.1126   22.8733 O   0  0  0  0  0  0  0  0  0  0  0  0
  -20.7780  -25.7917   21.7075 O   0  0  0  0  0  0  0  0  0  0  0  0
  -24.3927  -22.7171   21.7399 O   0  0  0  0  0  0  0  0  0  0  0  0
  -31.1473  -18.7188   18.6172 O   0  0  0  0  0  0  0  0  0  0  0  0
  -21.4849  -11.8402   24.0290 O   0  0  0  0  0  0  0  0  0  0  0  0
  -29.0334  -27.6831   21.3464 O   0  0  0  0  0  0  0  0  0  1  0  0
  -30.3344  -25.1657   19.3709 O   0  0  0  0  0  0  0  0  0  0  0  0
  -16.8665   -9.4274   22.2256 F   0  0  0  0  0  0  0  0  0  0  0  0
  -27.7413  -24.3614   18.8881 F   0  0  0  0  0  0  0  0  0  0  0  0
  -21.2587   -9.0859   23.9571 F   0  0  0  0  0  0  0  0  0  0  0  0
  1  2  1  0  0  0  0
  1  5  2  0  0  0  0
  2  6  2  0  0  0  0
  3  9  2  0  0  0  0
  3 18  1  0  0  0  0
  4 10  1  0  0  0  0
  4 18  2  0  0  0  0
  5 20  1  0  0  0  0
  6 22  1  0  0  0  0
  7 11  2  0  0  0  0
  7 21  1  0  0  0  0
  8 12  2  0  0  0  0
  8 24  1  0  0  0  0
  9 25  1  0  0  0  0
 10 25  2  0  0  0  0
 11 26  1  0  0  0  0
 12 28  1  0  0  0  0
 13 14  2  0  0  0  0
 13 27  1  0  0  0  0
 14 29  1  0  0  0  0
 15 23  1  0  0  0  0
 15 26  2  0  0  0  0
 16 24  2  0  0  0  0
 16 30  1  0  0  0  0
 17 29  2  0  0  0  0
 17 31  1  0  0  0  0
 18 32  1  0  0  0  0
 19 32  1  0  0  0  0
 19 33  2  0  0  0  0
 19 34  1  0  0  0  0
 20 22  2  0  0  0  0
 20 39  1  0  0  0  0
 21 23  2  0  0  0  0
 21 40  1  0  0  0  0
 22 48  1  0  0  0  0
 23 41  1  0  0  0  0
 24 68  1  0  0  0  0
 25 77  1  0  0  0  0
 26 78  1  0  0  0  0
 27 31  2  0  0  0  0
 27 77  1  0  0  0  0
 28 30  2  0  0  0  0
 28 79  1  0  0  0  0
 29 80  1  0  0  0  0
 30 81  1  0  0  0  0
 31 82  1  0  0  0  0
 32 62  2  0  0  0  0
 33 63  1  0  0  0  0
 33 66  1  0  0  0  0
 34 67  1  0  0  0  0
 34 72  2  0  0  0  0
 35 49  1  0  0  0  0
 35 69  1  0  0  0  0
 35 73  2  0  0  0  0
 36 59  1  0  0  0  0
 36 64  1  0  0  0  0
 36 74  2  0  0  0  0
 37 60  1  0  0  0  0
 37 70  1  0  0  0  0
 37 75  2  0  0  0  0
 38 65  1  0  0  0  0
 38 68  1  0  0  0  0
 38 76  2  0  0  0  0
 39 42  1  0  0  0  0
 40 49  1  0  0  0  0
 41 64  1  0  0  0  0
 42 44  1  0  0  0  0
 43 45  1  0  0  0  0
 43 46  1  0  0  0  0
 44 48  1  0  0  0  0
 45 50  1  0  0  0  0
 46 65  1  0  0  0  0
 47 50  1  0  0  0  0
 47 65  1  0  0  0  0
 48 69  1  0  0  0  0
 49 64  1  0  0  0  0
 50 63  1  0  0  0  0
 51 60  1  0  0  0  0
 52 61  1  0  0  0  0
 53 61  1  0  0  0  0
 54 61  1  0  0  0  0
 55 71  1  0  0  0  0
 56 57  1  0  0  0  0
 56 58  1  0  0  0  0
 57 78  1  0  0  0  0
 58 79  1  0  0  0  0
 59 61  1  0  0  0  0
 59 70  1  0  0  0  0
 60 71  1  0  0  0  0
 62 63  1  0  0  0  0
M  CHG  1  71   1
M  ISO  4  38 100  57 101  68 100  78 101
M  END
> <Batch ID>
0011

> <Smiles>
CNC(C)C(=O)NC(C(=O)N1Cc2cc([101O:1][101CH2:1]CCOc3ccc([100NH:0][100C:0](=O)N4CCCC(n5nc(-c6ccc(Oc7ccc(F)cc7F)cc6)c(C(N)=O)c5N)C4)cc3F)ccc2CC1C(=O)NC1CCCc2ccccc21)C(C)(C)C

> <Shape>
0.201

> <Color>
0.083

> <Negative vol penalty>
0.000

$$$$

  -OEChem-04042320433D

 84 93  0     1  0  0  0  0  0999 V2000
  -28.1379  -33.0036   26.2383 C   0  0  0  0  0  0  0  0  0  0  0  0
  -28.2691  -31.8499   25.4720 C   0  0  0  0  0  0  0  0  0  0  0  0
  -23.8703   -8.9864   21.2185 C   0  0  0  0  0  0  0  0  0  0  0  0
  -23.0686  -11.2055   20.6989 C   0  0  0  0  0  0  0  0  0  0  0  0
  -26.8824  -33.3892   26.7062 C   0  0  0  0  0  0  0  0  0  0  0  0
  -27.1449  -31.0805   25.1740 C   0  0  0  0  0  0  0  0  0  0  0  0
  -27.0029  -29.6469   20.3192 C   0  0  0  0  0  0  0  0  0  0  0  0
  -27.0812  -19.9520   18.5368 C   0  0  0  0  0  0  0  0  0  0  0  0
  -22.6608   -8.4469   20.7809 C   0  0  0  0  0  0  0  0  0  0  0  0
  -21.8590  -10.6659   20.2612 C   0  0  0  0  0  0  0  0  0  0  0  0
  -27.8217  -28.5822   19.9455 C   0  0  0  0  0  0  0  0  0  0  0  0
  -27.0969  -18.5592   18.6094 C   0  0  0  0  0  0  0  0  0  0  0  0
  -19.5208   -8.0784   21.9762 C   0  0  0  0  0  0  0  0  0  0  0  0
  -18.9244   -7.0983   22.7695 C   0  0  0  0  0  0  0  0  0  0  0  0
  -25.9265  -27.0938   20.0561 C   0  0  0  0  0  0  0  0  0  0  0  0
  -28.2657  -20.0750   20.6390 C   0  0  0  0  0  0  0  0  0  0  0  0
  -19.0510   -5.5344   20.9323 C   0  0  0  0  0  0  0  0  0  0  0  0
  -24.0742  -10.3657   21.1775 C   0  0  0  0  0  0  0  0  0  0  0  0
  -25.8852  -10.8178   22.9164 C   0  0  0  0  0  0  0  0  0  0  0  0
  -25.7408  -32.6294   26.4057 C   0  0  0  0  0  0  0  0  0  0  0  0
  -25.6397  -29.4408   20.5752 C   0  0  0  0  0  0  0  0  0  0  0  0
  -25.8731  -31.4557   25.6395 C   0  0  0  0  0  0  0  0  0  0  0  0
  -25.0920  -28.1581   20.4304 C   0  0  0  0  0  0  0  0  0  0  0  0
  -27.6657  -20.7099   19.5516 C   0  0  0  0  0  0  0  0  0  0  0  0
  -21.6551   -9.2866   20.3022 C   0  0  0  0  0  0  0  0  0  0  0  0
  -27.2841  -27.3048   19.8167 C   0  0  0  0  0  0  0  0  0  0  0  0
  -19.8822   -7.7866   20.6609 C   0  0  0  0  0  0  0  0  0  0  0  0
  -27.6969  -17.9242   19.6968 C   0  0  0  0  0  0  0  0  0  0  0  0
  -18.6896   -5.8263   22.2476 C   0  0  0  0  0  0  0  0  0  0  0  0
  -28.2813  -18.6821   20.7116 C   0  0  0  0  0  0  0  0  0  0  0  0
  -19.6473   -6.5145   20.1390 C   0  0  0  0  0  0  0  0  0  0  0  0
  -25.3232  -10.9237   21.6300 C   0  0  0  0  0  0  0  0  0  0  0  0
  -27.0664  -11.5137   22.8334 C   0  0  0  0  0  0  0  0  0  0  0  0
  -25.3844  -10.1499   24.0820 C   0  0  0  0  0  0  0  0  0  0  0  0
  -23.7565  -29.7863   23.1124 C   0  0  0  0  0  0  0  0  0  0  0  0
  -21.4161  -29.0552   20.9886 C   0  0  0  0  0  0  0  0  0  0  0  0
  -19.4986  -27.9608   18.3863 C   0  0  0  0  0  0  0  0  0  0  0  0
  -28.8307  -15.9371   19.1722 C   0  0  0  0  0  0  0  0  0  0  0  0
  -24.4117  -33.0606   26.9735 C   0  0  0  0  0  0  0  0  0  0  0  0
  -24.7644  -30.6047   20.9514 C   0  0  0  0  0  0  0  0  0  0  0  0
  -23.6305  -27.8877   20.6741 C   0  0  0  0  0  0  0  0  0  0  0  0
  -23.2159  -32.3935   26.2987 C   0  0  0  0  0  0  0  0  0  0  0  0
  -30.4693  -12.7809   19.7297 C   0  0  0  0  0  0  0  0  0  0  0  0
  -23.4519  -30.8932   26.1562 C   0  0  0  0  0  0  0  0  0  0  0  0
  -29.3720  -11.9268   20.3642 C   0  0  0  0  0  0  0  0  0  0  0  0
  -28.1922  -24.1843   18.2673 C   0  0  0  0  0  0  0  0  0  0  0  0
  -27.5367  -24.2590   20.6781 C   0  0  0  0  0  0  0  0  0  0  0  0
  -29.8985  -13.7478   18.6972 C   0  0  0  0  0  0  0  0  0  0  0  0
  -27.6567  -22.7589   18.1632 C   0  0  0  0  0  0  0  0  0  0  0  0
  -26.9963  -22.8361   20.5754 C   0  0  0  0  0  0  0  0  0  0  0  0
  -27.7119  -13.7762   19.8677 C   0  0  0  0  0  0  0  0  0  0  0  0
  -24.6737  -30.6082   25.2744 C   0  0  1  0  0  0  0  0  0  0  0  0
  -23.4958  -30.1850   21.6874 C   0  0  1  0  0  0  0  0  0  0  0  0
  -28.2473  -12.8080   20.9366 C   0  0  1  0  0  0  0  0  0  0  0  0
  -27.4662  -24.9860   19.3401 C   0  0  0  0  0  0  0  0  0  1  0  0
  -17.1341  -27.3608   17.7976 C   0  0  0  0  0  0  0  0  0  0  0  0
  -21.7164  -26.4133   22.4853 C   0  0  0  0  0  0  0  0  0  0  0  0
  -19.8235  -25.5054   21.1211 C   0  0  0  0  0  0  0  0  0  0  0  0
  -19.4447  -27.4476   22.6400 C   0  0  0  0  0  0  0  0  0  0  0  0
  -19.3552  -30.0723   16.3175 C   0  0  0  0  0  0  0  0  0  0  0  0
  -20.7668  -27.7789   20.5107 C   0  0  1  0  0  0  0  0  0  0  0  0
  -18.1809  -28.4637   17.8248 C   0  0  2  0  0  0  0  0  0  0  0  0
  -20.4611  -26.7968   21.6766 C   0  0  0  0  0  0  0  0  0  0  0  0
  -26.0847  -11.6314   20.7913 N   0  0  0  0  0  0  0  0  0  0  0  0
  -27.1372  -11.9765   21.5523 N   0  0  0  0  0  0  0  0  0  0  0  0
  -27.6502  -22.1087   19.4784 N   0  0  0  0  0  0  0  0  0  0  0  0
  -22.8171  -29.0571   21.0459 N   0  0  0  0  0  0  0  0  0  0  0  0
  -28.8093  -14.5417   19.2640 N   0  0  0  0  0  0  0  0  0  0  0  0
  -28.0410  -11.7689   23.7319 N   0  0  0  0  0  0  0  0  0  0  0  0
  -24.5676  -10.8692   24.9650 N   0  0  0  0  0  0  0  0  0  0  0  0
  -24.3392  -30.7791   23.8768 N   0  0  0  0  0  0  0  0  0  0  0  0
  -19.5922  -28.1807   19.7443 N   0  0  0  0  0  0  0  0  0  0  0  0
  -18.3687  -28.9678   16.4350 N   0  3  0  0  0  0  0  0  0  0  0  0
  -25.6666   -8.9556   24.3417 O   0  0  0  0  0  0  0  0  0  0  0  0
  -23.4502  -28.6618   23.4909 O   0  0  0  0  0  0  0  0  0  0  0  0
  -20.7068  -30.0174   21.2929 O   0  0  0  0  0  0  0  0  0  0  0  0
  -20.3572  -27.4231   17.6905 O   0  0  0  0  0  0  0  0  0  0  0  0
  -29.7283  -16.5814   18.6308 O   0  0  0  0  0  0  0  0  0  0  0  0
  -20.4748   -8.7605   19.8748 O   0  0  0  0  0  0  0  0  0  0  0  0
  -27.7125  -16.5275   19.7679 O   0  0  0  0  0  0  0  0  0  0  0  0
  -28.0812  -26.2637   19.4527 O   0  0  0  0  0  0  0  0  0  1  0  0
  -18.1183   -4.8847   23.0100 F   0  0  0  0  0  0  0  0  0  0  0  0
  -28.8600  -18.0777   21.7585 F   0  0  0  0  0  0  0  0  0  0  0  0
  -19.9934   -6.2278   18.8765 F   0  0  0  0  0  0  0  0  0  0  0  0
  1  2  1  0  0  0  0
  1  5  2  0  0  0  0
  2  6  2  0  0  0  0
  3  9  2  0  0  0  0
  3 18  1  0  0  0  0
  4 10  1  0  0  0  0
  4 18  2  0  0  0  0
  5 20  1  0  0  0  0
  6 22  1  0  0  0  0
  7 11  2  0  0  0  0
  7 21  1  0  0  0  0
  8 12  2  0  0  0  0
  8 24  1  0  0  0  0
  9 25  1  0  0  0  0
 10 25  2  0  0  0  0
 11 26  1  0  0  0  0
 12 28  1  0  0  0  0
 13 14  2  0  0  0  0
 13 27  1  0  0  0  0
 14 29  1  0  0  0  0
 15 23  1  0  0  0  0
 15 26  2  0  0  0  0
 16 24  2  0  0  0  0
 16 30  1  0  0  0  0
 17 29  2  0  0  0  0
 17 31  1  0  0  0  0
 18 32  1  0  0  0  0
 19 32  1  0  0  0  0
 19 33  2  0  0  0  0
 19 34  1  0  0  0  0
 20 22  2  0  0  0  0
 20 39  1  0  0  0  0
 21 23  2  0  0  0  0
 21 40  1  0  0  0  0
 22 52  1  0  0  0  0
 23 41  1  0  0  0  0
 24 66  1  0  0  0  0
 25 79  1  0  0  0  0
 26 81  1  0  0  0  0
 27 31  2  0  0  0  0
 27 79  1  0  0  0  0
 28 30  2  0  0  0  0
 28 80  1  0  0  0  0
 29 82  1  0  0  0  0
 30 83  1  0  0  0  0
 31 84  1  0  0  0  0
 32 64  2  0  0  0  0
 33 65  1  0  0  0  0
 33 69  1  0  0  0  0
 34 70  1  0  0  0  0
 34 74  2  0  0  0  0
 35 53  1  0  0  0  0
 35 71  1  0  0  0  0
 35 75  2  0  0  0  0
 36 61  1  0  0  0  0
 36 67  1  0  0  0  0
 36 76  2  0  0  0  0
 37 62  1  0  0  0  0
 37 72  1  0  0  0  0
 37 77  2  0  0  0  0
 38 68  1  0  0  0  0
 38 78  2  0  0  0  0
 38 80  1  0  0  0  0
 39 42  1  0  0  0  0
 40 53  1  0  0  0  0
 41 67  1  0  0  0  0
 42 44  1  0  0  0  0
 43 45  1  0  0  0  0
 43 48  1  0  0  0  0
 44 52  1  0  0  0  0
 45 54  1  0  0  0  0
 46 49  1  0  0  0  0
 46 55  1  0  0  0  0
 47 50  1  0  0  0  0
 47 55  1  0  0  0  0
 48 68  1  0  0  0  0
 49 66  1  0  0  0  0
 50 66  1  0  0  0  0
 51 54  1  0  0  0  0
 51 68  1  0  0  0  0
 52 71  1  0  0  0  0
 53 67  1  0  0  0  0
 54 65  1  0  0  0  0
 55 81  1  0  0  0  0
 56 62  1  0  0  0  0
 57 63  1  0  0  0  0
 58 63  1  0  0  0  0
 59 63  1  0  0  0  0
 60 73  1  0  0  0  0
 61 63  1  0  0  0  0
 61 72  1  0  0  0  0
 62 73  1  0  0  0  0
 64 65  1  0  0  0  0
M  CHG  1  73   1
M  ISO  4  38 100  55 101  80 100  81 101
M  END
> <Batch ID>
0011

> <Smiles>
CNC(C)C(=O)NC(C(=O)N1Cc2cc([101O:1][101CH:1]3CCN(c4ccc([100O:0][100C:0](=O)N5CCCC(n6nc(-c7ccc(Oc8ccc(F)cc8F)cc7)c(C(N)=O)c6N)C5)c(F)c4)CC3)ccc2CC1C(=O)NC1CCCc2ccccc21)C(C)(C)C

> <Shape>
0.294

> <Color>
0.099

> <Negative vol penalty>
0.000

$$$$

  -OEChem-04042320433D

 81 89  0     1  0  0  0  0  0999 V2000
  -17.7155  -33.3419   18.0836 C   0  0  0  0  0  0  0  0  0  0  0  0
  -18.9138  -32.9824   17.4751 C   0  0  0  0  0  0  0  0  0  0  0  0
  -24.8012  -10.2786   22.6259 C   0  0  0  0  0  0  0  0  0  0  0  0
  -24.4888  -11.7693   24.5013 C   0  0  0  0  0  0  0  0  0  0  0  0
  -17.7254  -33.9232   19.3508 C   0  0  0  0  0  0  0  0  0  0  0  0
  -20.1229  -33.2051   18.1332 C   0  0  0  0  0  0  0  0  0  0  0  0
  -24.6112  -27.7615   19.5870 C   0  0  0  0  0  0  0  0  0  0  0  0
  -29.5131  -20.7821   21.9189 C   0  0  0  0  0  0  0  0  0  0  0  0
  -24.3855   -9.2034   23.4112 C   0  0  0  0  0  0  0  0  0  0  0  0
  -24.0729  -10.6941   25.2866 C   0  0  0  0  0  0  0  0  0  0  0  0
  -25.6185  -26.8047   19.7133 C   0  0  0  0  0  0  0  0  0  0  0  0
  -29.3851  -22.1504   22.1577 C   0  0  0  0  0  0  0  0  0  0  0  0
  -21.4645   -7.9153   24.5255 C   0  0  0  0  0  0  0  0  0  0  0  0
  -20.5567   -7.0164   23.9656 C   0  0  0  0  0  0  0  0  0  0  0  0
  -27.0248  -28.4182   20.8389 C   0  0  0  0  0  0  0  0  0  0  0  0
  -27.1423  -20.6374   21.4769 C   0  0  0  0  0  0  0  0  0  0  0  0
  -22.1505   -5.2245   24.2582 C   0  0  0  0  0  0  0  0  0  0  0  0
  -24.8529  -11.5615   23.1710 C   0  0  0  0  0  0  0  0  0  0  0  0
  -24.4755  -13.5061   21.5635 C   0  0  0  0  0  0  0  0  0  0  0  0
  -18.9346  -34.1443   20.0288 C   0  0  0  0  0  0  0  0  0  0  0  0
  -24.8012  -29.0475   20.1004 C   0  0  0  0  0  0  0  0  0  0  0  0
  -20.1490  -33.7912   19.4101 C   0  0  0  0  0  0  0  0  0  0  0  0
  -26.0146  -29.3772   20.7264 C   0  0  0  0  0  0  0  0  0  0  0  0
  -28.3917  -20.0256   21.5784 C   0  0  0  0  0  0  0  0  0  0  0  0
  -24.0213   -9.4111   24.7416 C   0  0  0  0  0  0  0  0  0  0  0  0
  -26.8224  -27.1323   20.3375 C   0  0  0  0  0  0  0  0  0  0  0  0
  -22.7154   -7.4688   24.9517 C   0  0  0  0  0  0  0  0  0  0  0  0
  -28.1357  -22.7621   22.0562 C   0  0  0  0  0  0  0  0  0  0  0  0
  -20.8997   -5.6710   23.8320 C   0  0  0  0  0  0  0  0  0  0  0  0
  -27.0143  -22.0057   21.7158 C   0  0  0  0  0  0  0  0  0  0  0  0
  -23.0584   -6.1234   24.8181 C   0  0  0  0  0  0  0  0  0  0  0  0
  -25.2829  -12.6725   22.3604 C   0  0  0  0  0  0  0  0  0  0  0  0
  -25.3542  -14.3993   21.0010 C   0  0  0  0  0  0  0  0  0  0  0  0
  -23.0579  -13.4758   21.3509 C   0  0  0  0  0  0  0  0  0  0  0  0
  -23.3724  -32.4735   20.6455 C   0  0  0  0  0  0  0  0  0  0  0  0
  -24.8881  -31.7227   23.2046 C   0  0  0  0  0  0  0  0  0  0  0  0
  -26.3005  -30.3471   25.9886 C   0  0  0  0  0  0  0  0  0  0  0  0
  -29.6878  -17.8733   21.3941 C   0  0  0  0  0  0  0  0  0  0  0  0
  -18.8980  -34.8190   21.3772 C   0  0  0  0  0  0  0  0  0  0  0  0
  -23.7676  -30.1278   19.9324 C   0  0  0  0  0  0  0  0  0  0  0  0
  -26.1880  -30.7830   21.2329 C   0  0  0  0  0  0  0  0  0  0  0  0
  -20.1981  -34.6777   22.1645 C   0  0  0  0  0  0  0  0  0  0  0  0
  -30.4150  -14.4228   20.9013 C   0  0  0  0  0  0  0  0  0  0  0  0
  -21.3979  -34.9814   21.2727 C   0  0  0  0  0  0  0  0  0  0  0  0
  -29.0782  -13.7284   21.1714 C   0  0  0  0  0  0  0  0  0  0  0  0
  -30.6319  -15.6163   21.8299 C   0  0  0  0  0  0  0  0  0  0  0  0
  -28.2019  -15.9022   22.1169 C   0  0  0  0  0  0  0  0  0  0  0  0
  -21.4794  -33.9940   20.1023 C   0  0  1  0  0  0  0  0  0  0  0  0
  -23.7025  -31.0923   21.1301 C   0  0  1  0  0  0  0  0  0  0  0  0
  -27.9093  -14.7331   21.1623 C   0  0  2  0  0  0  0  0  0  0  0  0
  -26.8460  -30.8668   28.3823 C   0  0  0  0  0  0  0  0  0  0  0  0
  -27.2368  -33.4417   22.2923 C   0  0  0  0  0  0  0  0  0  0  0  0
  -28.2509  -33.1347   24.5607 C   0  0  0  0  0  0  0  0  0  0  0  0
  -26.0517  -34.2882   24.3254 C   0  0  0  0  0  0  0  0  0  0  0  0
  -24.5818  -28.1504   26.9783 C   0  0  0  0  0  0  0  0  0  0  0  0
  -28.6649  -26.3010   21.5911 C   0  0  0  0  0  0  0  0  0  1  0  0
  -29.1408  -24.9163   21.9857 C   0  0  0  0  0  0  0  0  0  0  0  0
  -26.1840  -31.7882   23.9726 C   0  0  1  0  0  0  0  0  0  0  0  0
  -25.8232  -30.2708   27.4276 C   0  0  2  0  0  0  0  0  0  0  0  0
  -26.9242  -33.1407   23.7717 C   0  0  0  0  0  0  0  0  0  0  0  0
  -26.5752  -13.0063   22.3111 N   0  0  0  0  0  0  0  0  0  0  0  0
  -26.5866  -14.0595   21.4764 N   0  0  0  0  0  0  0  0  0  0  0  0
  -24.9536  -31.2347   21.8939 N   0  0  0  0  0  0  0  0  0  0  0  0
  -29.4868  -16.5270   21.7655 N   0  0  0  0  0  0  0  0  0  0  0  0
  -25.1853  -15.4344   20.1511 N   0  0  0  0  0  0  0  0  0  0  0  0
  -22.3048  -12.4921   22.0063 N   0  0  0  0  0  0  0  0  0  0  0  0
  -28.5216  -18.6356   21.3358 N   0  0  0  0  0  0  0  0  0  0  0  0
  -22.0175  -32.7263   20.5470 N   0  0  0  0  0  0  0  0  0  0  0  0
  -25.8510  -31.4898   25.3613 N   0  0  0  0  0  0  0  0  0  0  0  0
  -25.5846  -28.8529   27.8197 N   0  3  0  0  0  0  0  0  0  0  0  0
  -22.4784  -14.2864   20.5889 O   0  0  0  0  0  0  0  0  0  0  0  0
  -24.2795  -33.2539   20.3813 O   0  0  0  0  0  0  0  0  0  0  0  0
  -23.8455  -32.0986   23.7477 O   0  0  0  0  0  0  0  0  0  0  0  0
  -27.0049  -29.4816   25.4736 O   0  0  0  0  0  0  0  0  0  0  0  0
  -30.8084  -18.3104   21.1197 O   0  0  0  0  0  0  0  0  0  0  0  0
  -23.6153   -8.3622   25.5081 O   0  0  0  0  0  0  0  0  0  0  0  0
  -27.7998  -26.1921   20.4615 O   0  0  0  0  0  0  0  0  0  1  0  0
  -28.0119  -24.1064   22.2905 O   0  0  0  0  0  0  0  0  0  0  0  0
  -20.0272   -4.8077   23.2957 F   0  0  0  0  0  0  0  0  0  0  0  0
  -25.8115  -22.5881   21.6156 F   0  0  0  0  0  0  0  0  0  0  0  0
  -24.2582   -5.6883   25.2268 F   0  0  0  0  0  0  0  0  0  0  0  0
  1  2  1  0  0  0  0
  1  5  2  0  0  0  0
  2  6  2  0  0  0  0
  3  9  2  0  0  0  0
  3 18  1  0  0  0  0
  4 10  1  0  0  0  0
  4 18  2  0  0  0  0
  5 20  1  0  0  0  0
  6 22  1  0  0  0  0
  7 11  2  0  0  0  0
  7 21  1  0  0  0  0
  8 12  2  0  0  0  0
  8 24  1  0  0  0  0
  9 25  1  0  0  0  0
 10 25  2  0  0  0  0
 11 26  1  0  0  0  0
 12 28  1  0  0  0  0
 13 14  2  0  0  0  0
 13 27  1  0  0  0  0
 14 29  1  0  0  0  0
 15 23  1  0  0  0  0
 15 26  2  0  0  0  0
 16 24  2  0  0  0  0
 16 30  1  0  0  0  0
 17 29  2  0  0  0  0
 17 31  1  0  0  0  0
 18 32  1  0  0  0  0
 19 32  1  0  0  0  0
 19 33  2  0  0  0  0
 19 34  1  0  0  0  0
 20 22  2  0  0  0  0
 20 39  1  0  0  0  0
 21 23  2  0  0  0  0
 21 40  1  0  0  0  0
 22 48  1  0  0  0  0
 23 41  1  0  0  0  0
 24 67  1  0  0  0  0
 25 76  1  0  0  0  0
 26 77  1  0  0  0  0
 27 31  2  0  0  0  0
 27 76  1  0  0  0  0
 28 30  2  0  0  0  0
 28 78  1  0  0  0  0
 29 79  1  0  0  0  0
 30 80  1  0  0  0  0
 31 81  1  0  0  0  0
 32 61  2  0  0  0  0
 33 62  1  0  0  0  0
 33 65  1  0  0  0  0
 34 66  1  0  0  0  0
 34 71  2  0  0  0  0
 35 49  1  0  0  0  0
 35 68  1  0  0  0  0
 35 72  2  0  0  0  0
 36 58  1  0  0  0  0
 36 63  1  0  0  0  0
 36 73  2  0  0  0  0
 37 59  1  0  0  0  0
 37 69  1  0  0  0  0
 37 74  2  0  0  0  0
 38 64  1  0  0  0  0
 38 67  1  0  0  0  0
 38 75  2  0  0  0  0
 39 42  1  0  0  0  0
 40 49  1  0  0  0  0
 41 63  1  0  0  0  0
 42 44  1  0  0  0  0
 43 45  1  0  0  0  0
 43 46  1  0  0  0  0
 44 48  1  0  0  0  0
 45 50  1  0  0  0  0
 46 64  1  0  0  0  0
 47 50  1  0  0  0  0
 47 64  1  0  0  0  0
 48 68  1  0  0  0  0
 49 63  1  0  0  0  0
 50 62  1  0  0  0  0
 51 59  1  0  0  0  0
 52 60  1  0  0  0  0
 53 60  1  0  0  0  0
 54 60  1  0  0  0  0
 55 70  1  0  0  0  0
 56 57  1  0  0  0  0
 56 77  1  0  0  0  0
 57 78  1  0  0  0  0
 58 60  1  0  0  0  0
 58 69  1  0  0  0  0
 59 70  1  0  0  0  0
 61 62  1  0  0  0  0
M  CHG  1  70   1
M  ISO  4  38 100  56 101  67 100  77 101
M  END
> <Batch ID>
0011

> <Smiles>
CNC(C)C(=O)NC(C(=O)N1Cc2cc([101O:1][101CH2:1]COc3ccc([100NH:0][100C:0](=O)N4CCCC(n5nc(-c6ccc(Oc7ccc(F)cc7F)cc6)c(C(N)=O)c5N)C4)cc3F)ccc2CC1C(=O)NC1CCCc2ccccc21)C(C)(C)C

> <Shape>
0.265

> <Color>
0.145

> <Negative vol penalty>
0.000

$$$$

  -OEChem-04042320433D

 82 91  0     1  0  0  0  0  0999 V2000
  -27.5295  -34.3096   25.5324 C   0  0  0  0  0  0  0  0  0  0  0  0
  -28.0544  -33.0424   25.2994 C   0  0  0  0  0  0  0  0  0  0  0  0
  -23.1631   -9.7550   19.9109 C   0  0  0  0  0  0  0  0  0  0  0  0
  -23.9110   -9.7778   22.2081 C   0  0  0  0  0  0  0  0  0  0  0  0
  -26.2139  -34.5953   25.1699 C   0  0  0  0  0  0  0  0  0  0  0  0
  -27.2635  -32.0599   24.7047 C   0  0  0  0  0  0  0  0  0  0  0  0
  -29.1147  -27.6823   20.8427 C   0  0  0  0  0  0  0  0  0  0  0  0
  -30.9460  -19.3519   20.6994 C   0  0  0  0  0  0  0  0  0  0  0  0
  -29.2994  -19.4448   22.4649 C   0  0  0  0  0  0  0  0  0  0  0  0
  -30.8455  -17.9608   20.6788 C   0  0  0  0  0  0  0  0  0  0  0  0
  -29.1988  -18.0537   22.4443 C   0  0  0  0  0  0  0  0  0  0  0  0
  -22.4749   -8.5649   20.1468 C   0  0  0  0  0  0  0  0  0  0  0  0
  -23.2227   -8.5877   22.4440 C   0  0  0  0  0  0  0  0  0  0  0  0
  -29.4318  -26.3378   21.0313 C   0  0  0  0  0  0  0  0  0  0  0  0
  -20.0343   -7.6289   23.0228 C   0  0  0  0  0  0  0  0  0  0  0  0
  -19.2747   -7.5416   24.1894 C   0  0  0  0  0  0  0  0  0  0  0  0
  -27.1952  -25.7235   20.3684 C   0  0  0  0  0  0  0  0  0  0  0  0
  -20.6051   -5.6599   24.9149 C   0  0  0  0  0  0  0  0  0  0  0  0
  -23.8812  -10.3614   20.9416 C   0  0  0  0  0  0  0  0  0  0  0  0
  -24.1007  -12.9011   20.8458 C   0  0  0  0  0  0  0  0  0  0  0  0
  -25.4096  -33.6187   24.5617 C   0  0  0  0  0  0  0  0  0  0  0  0
  -27.8299  -28.0588   20.4253 C   0  0  0  0  0  0  0  0  0  0  0  0
  -25.9355  -32.3325   24.3350 C   0  0  0  0  0  0  0  0  0  0  0  0
  -26.8651  -27.0732   20.1728 C   0  0  0  0  0  0  0  0  0  0  0  0
  -30.1729  -20.0939   21.5925 C   0  0  0  0  0  0  0  0  0  0  0  0
  -29.9719  -17.3117   21.5512 C   0  0  0  0  0  0  0  0  0  0  0  0
  -22.5047   -7.9812   21.4133 C   0  0  0  0  0  0  0  0  0  0  0  0
  -28.4712  -25.3583   20.7969 C   0  0  0  0  0  0  0  0  0  0  0  0
  -21.0793   -6.7316   22.8022 C   0  0  0  0  0  0  0  0  0  0  0  0
  -19.5601   -6.5572   25.1355 C   0  0  0  0  0  0  0  0  0  0  0  0
  -21.3647   -5.7472   23.7483 C   0  0  0  0  0  0  0  0  0  0  0  0
  -24.5928  -11.5904   20.6984 C   0  0  0  0  0  0  0  0  0  0  0  0
  -25.1569  -13.7059   20.4949 C   0  0  0  0  0  0  0  0  0  0  0  0
  -22.8048  -13.3509   21.2628 C   0  0  0  0  0  0  0  0  0  0  0  0
  -25.4880  -29.8073   21.6749 C   0  0  0  0  0  0  0  0  0  0  0  0
  -24.1132  -29.3323   18.7755 C   0  0  0  0  0  0  0  0  0  0  0  0
  -23.8761  -27.4178   15.9603 C   0  0  0  0  0  0  0  0  0  0  0  0
  -30.5651  -15.0135   20.7069 C   0  0  0  0  0  0  0  0  0  0  0  0
  -23.9783  -33.9603   24.2306 C   0  0  0  0  0  0  0  0  0  0  0  0
  -27.5117  -29.5116   20.2008 C   0  0  0  0  0  0  0  0  0  0  0  0
  -25.4773  -27.4237   19.7040 C   0  0  0  0  0  0  0  0  0  0  0  0
  -23.3253  -32.9759   23.2638 C   0  0  0  0  0  0  0  0  0  0  0  0
  -29.5802  -12.5703   18.3116 C   0  0  0  0  0  0  0  0  0  0  0  0
  -23.6115  -31.5395   23.6900 C   0  0  0  0  0  0  0  0  0  0  0  0
  -28.1544  -12.2054   18.7311 C   0  0  0  0  0  0  0  0  0  0  0  0
  -31.1337  -23.6452   21.3375 C   0  0  0  0  0  0  0  0  0  0  0  0
  -30.4775  -12.8322   19.5199 C   0  0  0  0  0  0  0  0  0  0  0  0
  -31.1586  -22.2369   20.7435 C   0  0  0  0  0  0  0  0  0  0  0  0
  -28.5312  -13.4507   20.8977 C   0  0  0  0  0  0  0  0  0  0  0  0
  -29.5018  -22.3327   22.5089 C   0  0  0  0  0  0  0  0  0  0  0  0
  -25.1168  -31.2476   23.6696 C   0  0  1  0  0  0  0  0  0  0  0  0
  -26.0179  -29.8135   20.2689 C   0  0  1  0  0  0  0  0  0  0  0  0
  -27.5735  -13.2413   19.7134 C   0  0  2  0  0  0  0  0  0  0  0  0
  -29.7534  -23.7407   21.9711 C   0  0  2  0  0  0  0  0  0  1  0  0
  -22.6381  -27.2611   13.7831 C   0  0  0  0  0  0  0  0  0  0  0  0
  -21.6540  -28.2914   20.2515 C   0  0  0  0  0  0  0  0  0  0  0  0
  -20.8693  -27.2905   18.0950 C   0  0  0  0  0  0  0  0  0  0  0  0
  -21.1500  -29.7613   18.2920 C   0  0  0  0  0  0  0  0  0  0  0  0
  -26.3719  -27.6695   14.3897 C   0  0  0  0  0  0  0  0  0  0  0  0
  -23.2001  -28.2857   18.1838 C   0  0  1  0  0  0  0  0  0  0  0  0
  -23.8788  -27.7871   14.4878 C   0  0  2  0  0  0  0  0  0  0  0  0
  -21.7439  -28.4004   18.7163 C   0  0  0  0  0  0  0  0  0  0  0  0
  -25.8628  -11.5598   20.2858 N   0  0  0  0  0  0  0  0  0  0  0  0
  -26.1776  -12.8613   20.1709 N   0  0  0  0  0  0  0  0  0  0  0  0
  -30.2736  -21.4691   21.6143 N   0  0  3  0  0  0  0  0  0  0  0  0
  -25.2128  -28.8583   19.5050 N   0  0  0  0  0  0  0  0  0  0  0  0
  -29.8651  -13.8267   20.4035 N   0  0  0  0  0  0  0  0  0  0  0  0
  -25.3029  -15.0467   20.4348 N   0  0  0  0  0  0  0  0  0  0  0  0
  -21.8366  -12.3907   21.5868 N   0  0  0  0  0  0  0  0  0  0  0  0
  -29.8698  -15.8986   21.5302 N   0  0  0  0  0  0  0  0  0  0  0  0
  -25.5711  -31.0303   22.3128 N   0  0  0  0  0  0  0  0  0  0  0  0
  -23.3185  -28.4126   16.7353 N   0  0  0  0  0  0  0  0  0  0  0  0
  -25.0795  -27.2175   13.8132 N   0  3  0  0  0  0  0  0  0  0  0  0
  -22.5089  -14.5681   21.3299 O   0  0  0  0  0  0  0  0  0  0  0  0
  -25.0358  -28.7702   22.1456 O   0  0  0  0  0  0  0  0  0  0  0  0
  -23.8642  -30.5262   18.5909 O   0  0  0  0  0  0  0  0  0  0  0  0
  -24.3205  -26.3517   16.3805 O   0  0  0  0  0  0  0  0  0  0  0  0
  -31.6869  -15.2410   20.2467 O   0  0  0  0  0  0  0  0  0  0  0  0
  -21.8330   -6.8201   21.6439 O   0  0  0  0  0  0  0  0  0  0  0  0
  -28.7779  -24.0453   20.9808 O   0  0  0  0  0  0  0  0  0  1  0  0
  -18.8315   -6.4744   26.2564 F   0  0  0  0  0  0  0  0  0  0  0  0
  -22.3681   -4.8832   23.5424 F   0  0  0  0  0  0  0  0  0  0  0  0
  1  2  1  0  0  0  0
  1  5  2  0  0  0  0
  2  6  2  0  0  0  0
  3 12  2  0  0  0  0
  3 19  1  0  0  0  0
  4 13  1  0  0  0  0
  4 19  2  0  0  0  0
  5 21  1  0  0  0  0
  6 23  1  0  0  0  0
  7 14  2  0  0  0  0
  7 22  1  0  0  0  0
  8 10  2  0  0  0  0
  8 25  1  0  0  0  0
  9 11  1  0  0  0  0
  9 25  2  0  0  0  0
 10 26  1  0  0  0  0
 11 26  2  0  0  0  0
 12 27  1  0  0  0  0
 13 27  2  0  0  0  0
 14 28  1  0  0  0  0
 15 16  2  0  0  0  0
 15 29  1  0  0  0  0
 16 30  1  0  0  0  0
 17 24  1  0  0  0  0
 17 28  2  0  0  0  0
 18 30  2  0  0  0  0
 18 31  1  0  0  0  0
 19 32  1  0  0  0  0
 20 32  1  0  0  0  0
 20 33  2  0  0  0  0
 20 34  1  0  0  0  0
 21 23  2  0  0  0  0
 21 39  1  0  0  0  0
 22 24  2  0  0  0  0
 22 40  1  0  0  0  0
 23 51  1  0  0  0  0
 24 41  1  0  0  0  0
 25 65  1  0  0  0  0
 26 70  1  0  0  0  0
 27 79  1  0  0  0  0
 28 80  1  0  0  0  0
 29 31  2  0  0  0  0
 29 79  1  0  0  0  0
 30 81  1  0  0  0  0
 31 82  1  0  0  0  0
 32 63  2  0  0  0  0
 33 64  1  0  0  0  0
 33 68  1  0  0  0  0
 34 69  1  0  0  0  0
 34 74  2  0  0  0  0
 35 52  1  0  0  0  0
 35 71  1  0  0  0  0
 35 75  2  0  0  0  0
 36 60  1  0  0  0  0
 36 66  1  0  0  0  0
 36 76  2  0  0  0  0
 37 61  1  0  0  0  0
 37 72  1  0  0  0  0
 37 77  2  0  0  0  0
 38 67  1  0  0  0  0
 38 70  1  0  0  0  0
 38 78  2  0  0  0  0
 39 42  1  0  0  0  0
 40 52  1  0  0  0  0
 41 66  1  0  0  0  0
 42 44  1  0  0  0  0
 43 45  1  0  0  0  0
 43 47  1  0  0  0  0
 44 51  1  0  0  0  0
 45 53  1  0  0  0  0
 46 48  1  0  0  0  0
 46 54  1  0  0  0  0
 47 67  1  0  0  0  0
 48 65  1  0  0  0  0
 49 53  1  0  0  0  0
 49 67  1  0  0  0  0
 50 54  1  0  0  0  0
 50 65  1  0  0  0  0
 51 71  1  0  0  0  0
 52 66  1  0  0  0  0
 53 64  1  0  0  0  0
 54 80  1  0  0  0  0
 55 61  1  0  0  0  0
 56 62  1  0  0  0  0
 57 62  1  0  0  0  0
 58 62  1  0  0  0  0
 59 73  1  0  0  0  0
 60 62  1  0  0  0  0
 60 72  1  0  0  0  0
 61 73  1  0  0  0  0
 63 64  1  0  0  0  0
M  CHG  1  73   1
M  ISO  4  38 100  54 101  70 100  80 101
M  END
> <Batch ID>
0011

> <Smiles>
CNC(C)C(=O)NC(C(=O)N1Cc2cc([101O:1][101CH:1]3CCN(c4ccc([100NH:0][100C:0](=O)N5CCCC(n6nc(-c7ccc(Oc8ccc(F)cc8F)cc7)c(C(N)=O)c6N)C5)cc4)C3)ccc2CC1C(=O)NC1CCCc2ccccc21)C(C)(C)C

> <Shape>
0.353

> <Color>
0.208

> <Negative vol penalty>
0.000

$$$$

  -OEChem-04042320433D

 83 92  0     1  0  0  0  0  0999 V2000
  -27.5490  -34.3165   25.5178 C   0  0  0  0  0  0  0  0  0  0  0  0
  -28.0726  -33.0487   25.2858 C   0  0  0  0  0  0  0  0  0  0  0  0
  -23.1626   -9.7560   19.9100 C   0  0  0  0  0  0  0  0  0  0  0  0
  -23.9124   -9.7760   22.2066 C   0  0  0  0  0  0  0  0  0  0  0  0
  -26.2331  -34.6028   25.1569 C   0  0  0  0  0  0  0  0  0  0  0  0
  -27.2802  -32.0660   24.6937 C   0  0  0  0  0  0  0  0  0  0  0  0
  -29.1225  -27.6817   20.8350 C   0  0  0  0  0  0  0  0  0  0  0  0
  -30.9477  -19.3500   20.7005 C   0  0  0  0  0  0  0  0  0  0  0  0
  -30.8454  -17.9591   20.6808 C   0  0  0  0  0  0  0  0  0  0  0  0
  -22.4747   -8.5656   20.1449 C   0  0  0  0  0  0  0  0  0  0  0  0
  -23.2244   -8.5855   22.4416 C   0  0  0  0  0  0  0  0  0  0  0  0
  -29.4390  -26.3372   21.0250 C   0  0  0  0  0  0  0  0  0  0  0  0
  -20.0366   -7.6256   23.0218 C   0  0  0  0  0  0  0  0  0  0  0  0
  -19.2780   -7.5367   24.1889 C   0  0  0  0  0  0  0  0  0  0  0  0
  -27.2010  -25.7236   20.3661 C   0  0  0  0  0  0  0  0  0  0  0  0
  -29.3027  -19.4461   22.4673 C   0  0  0  0  0  0  0  0  0  0  0  0
  -20.6093   -5.6543   24.9109 C   0  0  0  0  0  0  0  0  0  0  0  0
  -23.8815  -10.3613   20.9409 C   0  0  0  0  0  0  0  0  0  0  0  0
  -24.1006  -12.9011   20.8482 C   0  0  0  0  0  0  0  0  0  0  0  0
  -25.4271  -33.6259   24.5512 C   0  0  0  0  0  0  0  0  0  0  0  0
  -27.8375  -28.0585   20.4190 C   0  0  0  0  0  0  0  0  0  0  0  0
  -25.9518  -32.3390   24.3255 C   0  0  0  0  0  0  0  0  0  0  0  0
  -26.8715  -27.0733   20.1692 C   0  0  0  0  0  0  0  0  0  0  0  0
  -30.1764  -20.0935   21.5938 C   0  0  0  0  0  0  0  0  0  0  0  0
  -29.9717  -17.3116   21.5544 C   0  0  0  0  0  0  0  0  0  0  0  0
  -22.5056   -7.9803   21.4107 C   0  0  0  0  0  0  0  0  0  0  0  0
  -28.4773  -25.3581   20.7933 C   0  0  0  0  0  0  0  0  0  0  0  0
  -21.0815   -6.7288   22.7992 C   0  0  0  0  0  0  0  0  0  0  0  0
  -19.5643   -6.5511   25.1335 C   0  0  0  0  0  0  0  0  0  0  0  0
  -29.2004  -18.0551   22.4476 C   0  0  0  0  0  0  0  0  0  0  0  0
  -21.3679   -5.7432   23.7437 C   0  0  0  0  0  0  0  0  0  0  0  0
  -24.5927  -11.5907   20.6987 C   0  0  0  0  0  0  0  0  0  0  0  0
  -25.1564  -13.7065   20.4974 C   0  0  0  0  0  0  0  0  0  0  0  0
  -22.8049  -13.3502   21.2668 C   0  0  0  0  0  0  0  0  0  0  0  0
  -25.4986  -29.8105   21.6695 C   0  0  0  0  0  0  0  0  0  0  0  0
  -24.1193  -29.3325   18.7727 C   0  0  0  0  0  0  0  0  0  0  0  0
  -23.8767  -27.4143   15.9605 C   0  0  0  0  0  0  0  0  0  0  0  0
  -30.5646  -15.0146   20.7066 C   0  0  0  0  0  0  0  0  0  0  0  0
  -23.9957  -33.9680   24.2217 C   0  0  0  0  0  0  0  0  0  0  0  0
  -27.5200  -29.5113   20.1929 C   0  0  0  0  0  0  0  0  0  0  0  0
  -25.4834  -27.4242   19.7019 C   0  0  0  0  0  0  0  0  0  0  0  0
  -23.3405  -32.9828   23.2571 C   0  0  0  0  0  0  0  0  0  0  0  0
  -29.5780  -12.5743   18.3089 C   0  0  0  0  0  0  0  0  0  0  0  0
  -23.6263  -31.5468   23.6849 C   0  0  0  0  0  0  0  0  0  0  0  0
  -28.1526  -12.2087   18.7292 C   0  0  0  0  0  0  0  0  0  0  0  0
  -31.1393  -23.6438   21.3325 C   0  0  0  0  0  0  0  0  0  0  0  0
  -30.4762  -12.8348   19.5168 C   0  0  0  0  0  0  0  0  0  0  0  0
  -31.1624  -22.2347   20.7404 C   0  0  0  0  0  0  0  0  0  0  0  0
  -28.5310  -13.4513   20.8971 C   0  0  0  0  0  0  0  0  0  0  0  0
  -29.5082  -22.3341   22.5080 C   0  0  0  0  0  0  0  0  0  0  0  0
  -25.1313  -31.2538   23.6627 C   0  0  1  0  0  0  0  0  0  0  0  0
  -26.0265  -29.8144   20.2627 C   0  0  1  0  0  0  0  0  0  0  0  0
  -27.5723  -13.2433   19.7133 C   0  0  2  0  0  0  0  0  0  0  0  0
  -29.7600  -23.7412   21.9679 C   0  0  2  0  0  0  0  0  0  1  0  0
  -22.6355  -27.2556   13.7853 C   0  0  0  0  0  0  0  0  0  0  0  0
  -21.6615  -28.2954   20.2537 C   0  0  0  0  0  0  0  0  0  0  0  0
  -20.8730  -27.2921   18.0997 C   0  0  0  0  0  0  0  0  0  0  0  0
  -21.1558  -29.7630   18.2929 C   0  0  0  0  0  0  0  0  0  0  0  0
  -26.3705  -27.6620   14.3860 C   0  0  0  0  0  0  0  0  0  0  0  0
  -23.2046  -28.2858   18.1838 C   0  0  1  0  0  0  0  0  0  0  0  0
  -23.8776  -27.7815   14.4875 C   0  0  2  0  0  0  0  0  0  0  0  0
  -21.7492  -28.4023   18.7182 C   0  0  0  0  0  0  0  0  0  0  0  0
  -25.8624  -11.5608   20.2850 N   0  0  0  0  0  0  0  0  0  0  0  0
  -26.1769  -12.8624   20.1714 N   0  0  0  0  0  0  0  0  0  0  0  0
  -30.2780  -21.4687   21.6135 N   0  0  3  0  0  0  0  0  0  0  0  0
  -25.2196  -28.8587   19.5013 N   0  0  0  0  0  0  0  0  0  0  0  0
  -29.8644  -13.8280   20.4023 N   0  0  0  0  0  0  0  0  0  0  0  0
  -25.3021  -15.0473   20.4389 N   0  0  0  0  0  0  0  0  0  0  0  0
  -21.8371  -12.3895   21.5904 N   0  0  0  0  0  0  0  0  0  0  0  0
  -29.8698  -15.8985   21.5316 N   0  0  0  0  0  0  0  0  0  0  0  0
  -25.5836  -31.0343   22.3056 N   0  0  0  0  0  0  0  0  0  0  0  0
  -23.3210  -28.4106   16.7349 N   0  0  0  0  0  0  0  0  0  0  0  0
  -25.0769  -27.2102   13.8120 N   0  3  0  0  0  0  0  0  0  0  0  0
  -22.5089  -14.5673   21.3357 O   0  0  0  0  0  0  0  0  0  0  0  0
  -25.0463  -28.7744   22.1423 O   0  0  0  0  0  0  0  0  0  0  0  0
  -23.8709  -30.5263   18.5869 O   0  0  0  0  0  0  0  0  0  0  0  0
  -24.3210  -26.3485   16.3815 O   0  0  0  0  0  0  0  0  0  0  0  0
  -31.6859  -15.2428   20.2457 O   0  0  0  0  0  0  0  0  0  0  0  0
  -21.8343   -6.8188   21.6403 O   0  0  0  0  0  0  0  0  0  0  0  0
  -28.7834  -24.0452   20.9786 O   0  0  0  0  0  0  0  0  0  1  0  0
  -18.8367   -6.4668   26.2549 F   0  0  0  0  0  0  0  0  0  0  0  0
  -28.3571  -17.4432   23.2914 F   0  0  0  0  0  0  0  0  0  0  0  0
  -22.3713   -4.8795   23.5360 F   0  0  0  0  0  0  0  0  0  0  0  0
  1  2  1  0  0  0  0
  1  5  2  0  0  0  0
  2  6  2  0  0  0  0
  3 10  2  0  0  0  0
  3 18  1  0  0  0  0
  4 11  1  0  0  0  0
  4 18  2  0  0  0  0
  5 20  1  0  0  0  0
  6 22  1  0  0  0  0
  7 12  2  0  0  0  0
  7 21  1  0  0  0  0
  8  9  2  0  0  0  0
  8 24  1  0  0  0  0
  9 25  1  0  0  0  0
 10 26  1  0  0  0  0
 11 26  2  0  0  0  0
 12 27  1  0  0  0  0
 13 14  2  0  0  0  0
 13 28  1  0  0  0  0
 14 29  1  0  0  0  0
 15 23  1  0  0  0  0
 15 27  2  0  0  0  0
 16 24  2  0  0  0  0
 16 30  1  0  0  0  0
 17 29  2  0  0  0  0
 17 31  1  0  0  0  0
 18 32  1  0  0  0  0
 19 32  1  0  0  0  0
 19 33  2  0  0  0  0
 19 34  1  0  0  0  0
 20 22  2  0  0  0  0
 20 39  1  0  0  0  0
 21 23  2  0  0  0  0
 21 40  1  0  0  0  0
 22 51  1  0  0  0  0
 23 41  1  0  0  0  0
 24 65  1  0  0  0  0
 25 30  2  0  0  0  0
 25 70  1  0  0  0  0
 26 79  1  0  0  0  0
 27 80  1  0  0  0  0
 28 31  2  0  0  0  0
 28 79  1  0  0  0  0
 29 81  1  0  0  0  0
 30 82  1  0  0  0  0
 31 83  1  0  0  0  0
 32 63  2  0  0  0  0
 33 64  1  0  0  0  0
 33 68  1  0  0  0  0
 34 69  1  0  0  0  0
 34 74  2  0  0  0  0
 35 52  1  0  0  0  0
 35 71  1  0  0  0  0
 35 75  2  0  0  0  0
 36 60  1  0  0  0  0
 36 66  1  0  0  0  0
 36 76  2  0  0  0  0
 37 61  1  0  0  0  0
 37 72  1  0  0  0  0
 37 77  2  0  0  0  0
 38 67  1  0  0  0  0
 38 70  1  0  0  0  0
 38 78  2  0  0  0  0
 39 42  1  0  0  0  0
 40 52  1  0  0  0  0
 41 66  1  0  0  0  0
 42 44  1  0  0  0  0
 43 45  1  0  0  0  0
 43 47  1  0  0  0  0
 44 51  1  0  0  0  0
 45 53  1  0  0  0  0
 46 48  1  0  0  0  0
 46 54  1  0  0  0  0
 47 67  1  0  0  0  0
 48 65  1  0  0  0  0
 49 53  1  0  0  0  0
 49 67  1  0  0  0  0
 50 54  1  0  0  0  0
 50 65  1  0  0  0  0
 51 71  1  0  0  0  0
 52 66  1  0  0  0  0
 53 64  1  0  0  0  0
 54 80  1  0  0  0  0
 55 61  1  0  0  0  0
 56 62  1  0  0  0  0
 57 62  1  0  0  0  0
 58 62  1  0  0  0  0
 59 73  1  0  0  0  0
 60 62  1  0  0  0  0
 60 72  1  0  0  0  0
 61 73  1  0  0  0  0
 63 64  1  0  0  0  0
M  CHG  1  73   1
M  ISO  4  38 100  54 101  70 100  80 101
M  END
> <Batch ID>
0011

> <Smiles>
CNC(C)C(=O)NC(C(=O)N1Cc2cc([101O:1][101CH:1]3CCN(c4ccc([100NH:0][100C:0](=O)N5CCCC(n6nc(-c7ccc(Oc8ccc(F)cc8F)cc7)c(C(N)=O)c6N)C5)c(F)c4)C3)ccc2CC1C(=O)NC1CCCc2ccccc21)C(C)(C)C

> <Shape>
0.353

> <Color>
0.208

> <Negative vol penalty>
0.000

$$$$

  -OEChem-04042320433D

 83 91  0     1  0  0  0  0  0999 V2000
  -30.8366  -24.7640   18.2704 C   0  0  0  0  0  0  0  0  0  0  0  0
  -29.4550  -24.6631   18.3982 C   0  0  0  0  0  0  0  0  0  0  0  0
  -26.3035  -12.8957   19.7361 C   0  0  0  0  0  0  0  0  0  0  0  0
  -24.1278  -13.5653   20.5454 C   0  0  0  0  0  0  0  0  0  0  0  0
  -31.5751  -25.4593   19.2270 C   0  0  0  0  0  0  0  0  0  0  0  0
  -28.8111  -25.2566   19.4834 C   0  0  0  0  0  0  0  0  0  0  0  0
  -23.2558  -27.8341   19.5084 C   0  0  0  0  0  0  0  0  0  0  0  0
  -26.3592  -11.8991   20.7103 C   0  0  0  0  0  0  0  0  0  0  0  0
  -24.1835  -12.5686   21.5197 C   0  0  0  0  0  0  0  0  0  0  0  0
  -22.0052  -27.3635   19.9065 C   0  0  0  0  0  0  0  0  0  0  0  0
  -27.0269  -11.6832   24.0167 C   0  0  0  0  0  0  0  0  0  0  0  0
  -28.2174  -11.5404   24.7293 C   0  0  0  0  0  0  0  0  0  0  0  0
  -22.3021  -28.4129   22.0582 C   0  0  0  0  0  0  0  0  0  0  0  0
  -23.6339  -23.0176   20.9699 C   0  0  0  0  0  0  0  0  0  0  0  0
  -21.0641  -22.1328   21.5993 C   0  0  0  0  0  0  0  0  0  0  0  0
  -28.4241   -9.2701   23.9292 C   0  0  0  0  0  0  0  0  0  0  0  0
  -25.1878  -13.7289   19.6536 C   0  0  0  0  0  0  0  0  0  0  0  0
  -24.6100  -14.6461   17.3444 C   0  0  0  0  0  0  0  0  0  0  0  0
  -30.9389  -26.0698   20.3194 C   0  0  0  0  0  0  0  0  0  0  0  0
  -24.0449  -28.5896   20.3875 C   0  0  0  0  0  0  0  0  0  0  0  0
  -29.5419  -25.9596   20.4563 C   0  0  0  0  0  0  0  0  0  0  0  0
  -23.5612  -28.8940   21.6679 C   0  0  0  0  0  0  0  0  0  0  0  0
  -23.1560  -21.8232   20.4308 C   0  0  0  0  0  0  0  0  0  0  0  0
  -25.2993  -11.7355   21.6021 C   0  0  0  0  0  0  0  0  0  0  0  0
  -21.5294  -27.6505   21.1825 C   0  0  0  0  0  0  0  0  0  0  0  0
  -26.5349  -10.6194   23.2604 C   0  0  0  0  0  0  0  0  0  0  0  0
  -21.5421  -23.3272   22.1385 C   0  0  0  0  0  0  0  0  0  0  0  0
  -28.9161  -10.3339   24.6856 C   0  0  0  0  0  0  0  0  0  0  0  0
  -22.8269  -23.7696   21.8238 C   0  0  0  0  0  0  0  0  0  0  0  0
  -21.8711  -21.3808   20.7455 C   0  0  0  0  0  0  0  0  0  0  0  0
  -27.2335   -9.4129   23.2166 C   0  0  0  0  0  0  0  0  0  0  0  0
  -25.1299  -14.7589   18.6478 C   0  0  0  0  0  0  0  0  0  0  0  0
  -24.7881  -15.8921   16.7947 C   0  0  0  0  0  0  0  0  0  0  0  0
  -24.0190  -13.5160   16.6892 C   0  0  0  0  0  0  0  0  0  0  0  0
  -26.9010  -28.2084   21.7295 C   0  0  0  0  0  0  0  0  0  0  0  0
  -26.3757  -31.2299   22.7862 C   0  0  0  0  0  0  0  0  0  0  0  0
  -24.1282  -33.6779   23.5628 C   0  0  0  0  0  0  0  0  0  0  0  0
  -25.2761  -21.3616   19.1508 C   0  0  0  0  0  0  0  0  0  0  0  0
  -31.7845  -26.7705   21.3532 C   0  0  0  0  0  0  0  0  0  0  0  0
  -25.3802  -29.1124   19.9334 C   0  0  0  0  0  0  0  0  0  0  0  0
  -24.3607  -29.7184   22.6424 C   0  0  0  0  0  0  0  0  0  0  0  0
  -30.9847  -27.6894   22.2731 C   0  0  0  0  0  0  0  0  0  0  0  0
  -27.6451  -19.7267   17.0552 C   0  0  0  0  0  0  0  0  0  0  0  0
  -29.7283  -26.9831   22.7722 C   0  0  0  0  0  0  0  0  0  0  0  0
  -27.2180  -18.2578   17.1023 C   0  0  0  0  0  0  0  0  0  0  0  0
  -27.4499  -20.4176   18.4036 C   0  0  0  0  0  0  0  0  0  0  0  0
  -25.6762  -18.8241   19.0230 C   0  0  0  0  0  0  0  0  0  0  0  0
  -28.8045  -26.6108   21.6061 C   0  0  1  0  0  0  0  0  0  0  0  0
  -26.3194  -29.4378   21.0908 C   0  0  1  0  0  0  0  0  0  0  0  0
  -25.7935  -18.1031   17.6702 C   0  0  2  0  0  0  0  0  0  0  0  0
  -23.9972  -36.0262   24.4379 C   0  0  0  0  0  0  0  0  0  0  0  0
  -26.9397  -30.2082   25.6054 C   0  0  0  0  0  0  0  0  0  0  0  0
  -25.8862  -32.2967   26.4980 C   0  0  0  0  0  0  0  0  0  0  0  0
  -27.9377  -32.4418   25.0862 C   0  0  0  0  0  0  0  0  0  0  0  0
  -22.8452  -34.6547   21.0811 C   0  0  0  0  0  0  0  0  0  0  0  0
  -19.1023  -25.8159   23.1459 C   0  0  0  0  0  0  0  0  0  0  0  0
  -20.1334  -26.9185   22.9634 C   0  0  0  0  0  0  0  0  0  1  0  0
  -19.5139  -24.5305   22.4455 C   0  0  0  0  0  0  0  0  0  0  0  0
  -25.7316  -31.8382   24.0086 C   0  0  1  0  0  0  0  0  0  0  0  0
  -24.0762  -35.1504   23.1972 C   0  0  2  0  0  0  0  0  0  0  0  0
  -26.6093  -31.6790   25.2821 C   0  0  0  0  0  0  0  0  0  0  0  0
  -25.6028  -15.9801   18.9104 N   0  0  0  0  0  0  0  0  0  0  0  0
  -25.3809  -16.6461   17.7643 N   0  0  0  0  0  0  0  0  0  0  0  0
  -25.6629  -30.2014   22.1539 N   0  0  0  0  0  0  0  0  0  0  0  0
  -26.0765  -20.2323   18.8771 N   0  0  0  0  0  0  0  0  0  0  0  0
  -24.4938  -16.4054   15.5813 N   0  0  0  0  0  0  0  0  0  0  0  0
  -23.9133  -12.3121   17.3989 N   0  0  0  0  0  0  0  0  0  0  0  0
  -23.9782  -21.0621   19.5634 N   0  0  0  0  0  0  0  0  0  0  0  0
  -28.0764  -27.7742   21.1470 N   0  0  0  0  0  0  0  0  0  0  0  0
  -25.4257  -33.2221   23.6629 N   0  0  0  0  0  0  0  0  0  0  0  0
  -22.8848  -35.4312   22.3470 N   0  3  0  0  0  0  0  0  0  0  0  0
  -23.6120  -13.5676   15.5038 O   0  0  0  0  0  0  0  0  0  0  0  0
  -26.3267  -27.6928   22.6814 O   0  0  0  0  0  0  0  0  0  0  0  0
  -27.4675  -31.6567   22.4023 O   0  0  0  0  0  0  0  0  0  0  0  0
  -23.1189  -33.0008   23.7452 O   0  0  0  0  0  0  0  0  0  0  0  0
  -25.7016  -22.5100   19.0022 O   0  0  0  0  0  0  0  0  0  0  0  0
  -25.3532  -10.7629   22.5528 O   0  0  0  0  0  0  0  0  0  0  0  0
  -20.3094  -27.1919   21.5739 O   0  0  0  0  0  0  0  0  0  1  0  0
  -20.7475  -24.0656   22.9764 O   0  0  0  0  0  0  0  0  0  0  0  0
  -30.0601  -10.1975   25.3687 F   0  0  0  0  0  0  0  0  0  0  0  0
  -23.2910  -24.9163   22.3386 F   0  0  0  0  0  0  0  0  0  0  0  0
  -21.4019  -20.2339   20.2334 F   0  0  0  0  0  0  0  0  0  0  0  0
  -26.7665   -8.3877   22.4908 F   0  0  0  0  0  0  0  0  0  0  0  0
  1  2  1  0  0  0  0
  1  5  2  0  0  0  0
  2  6  2  0  0  0  0
  3  8  2  0  0  0  0
  3 17  1  0  0  0  0
  4  9  1  0  0  0  0
  4 17  2  0  0  0  0
  5 19  1  0  0  0  0
  6 21  1  0  0  0  0
  7 10  2  0  0  0  0
  7 20  1  0  0  0  0
  8 24  1  0  0  0  0
  9 24  2  0  0  0  0
 10 25  1  0  0  0  0
 11 12  2  0  0  0  0
 11 26  1  0  0  0  0
 12 28  1  0  0  0  0
 13 22  1  0  0  0  0
 13 25  2  0  0  0  0
 14 23  2  0  0  0  0
 14 29  1  0  0  0  0
 15 27  1  0  0  0  0
 15 30  2  0  0  0  0
 16 28  2  0  0  0  0
 16 31  1  0  0  0  0
 17 32  1  0  0  0  0
 18 32  1  0  0  0  0
 18 33  2  0  0  0  0
 18 34  1  0  0  0  0
 19 21  2  0  0  0  0
 19 39  1  0  0  0  0
 20 22  2  0  0  0  0
 20 40  1  0  0  0  0
 21 48  1  0  0  0  0
 22 41  1  0  0  0  0
 23 30  1  0  0  0  0
 23 68  1  0  0  0  0
 24 77  1  0  0  0  0
 25 78  1  0  0  0  0
 26 31  2  0  0  0  0
 26 77  1  0  0  0  0
 27 29  2  0  0  0  0
 27 79  1  0  0  0  0
 28 80  1  0  0  0  0
 29 81  1  0  0  0  0
 30 82  1  0  0  0  0
 31 83  1  0  0  0  0
 32 62  2  0  0  0  0
 33 63  1  0  0  0  0
 33 66  1  0  0  0  0
 34 67  1  0  0  0  0
 34 72  2  0  0  0  0
 35 49  1  0  0  0  0
 35 69  1  0  0  0  0
 35 73  2  0  0  0  0
 36 59  1  0  0  0  0
 36 64  1  0  0  0  0
 36 74  2  0  0  0  0
 37 60  1  0  0  0  0
 37 70  1  0  0  0  0
 37 75  2  0  0  0  0
 38 65  1  0  0  0  0
 38 68  1  0  0  0  0
 38 76  2  0  0  0  0
 39 42  1  0  0  0  0
 40 49  1  0  0  0  0
 41 64  1  0  0  0  0
 42 44  1  0  0  0  0
 43 45  1  0  0  0  0
 43 46  1  0  0  0  0
 44 48  1  0  0  0  0
 45 50  1  0  0  0  0
 46 65  1  0  0  0  0
 47 50  1  0  0  0  0
 47 65  1  0  0  0  0
 48 69  1  0  0  0  0
 49 64  1  0  0  0  0
 50 63  1  0  0  0  0
 51 60  1  0  0  0  0
 52 61  1  0  0  0  0
 53 61  1  0  0  0  0
 54 61  1  0  0  0  0
 55 71  1  0  0  0  0
 56 57  1  0  0  0  0
 56 58  1  0  0  0  0
 57 78  1  0  0  0  0
 58 79  1  0  0  0  0
 59 61  1  0  0  0  0
 59 70  1  0  0  0  0
 60 71  1  0  0  0  0
 62 63  1  0  0  0  0
M  CHG  1  71   1
M  ISO  4  38 100  57 101  68 100  78 101
M  END
> <Batch ID>
0011

> <Smiles>
CNC(C)C(=O)NC(C(=O)N1Cc2cc([101O:1][101CH2:1]CCOc3cc(F)c([100NH:0][100C:0](=O)N4CCCC(n5nc(-c6ccc(Oc7ccc(F)cc7F)cc6)c(C(N)=O)c5N)C4)cc3F)ccc2CC1C(=O)NC1CCCc2ccccc21)C(C)(C)C

> <Shape>
0.219

> <Color>
0.063

> <Negative vol penalty>
0.000

$$$$

  -OEChem-04042320433D

 89 98  0     1  0  0  0  0  0999 V2000
  -27.3711  -19.0021   26.4442 C   0  0  0  0  0  0  0  0  0  0  0  0
  -27.6698  -19.8563   25.3876 C   0  0  0  0  0  0  0  0  0  0  0  0
  -22.9355  -10.5283   21.9141 C   0  0  0  0  0  0  0  0  0  0  0  0
  -24.3110   -9.3311   20.3293 C   0  0  0  0  0  0  0  0  0  0  0  0
  -26.0453  -18.6642   26.7125 C   0  0  0  0  0  0  0  0  0  0  0  0
  -26.6429  -20.3723   24.5980 C   0  0  0  0  0  0  0  0  0  0  0  0
  -27.1927  -25.3235   23.6877 C   0  0  0  0  0  0  0  0  0  0  0  0
  -29.4200  -18.2755   18.8844 C   0  0  0  0  0  0  0  0  0  0  0  0
  -27.5885  -19.6265   19.6951 C   0  0  0  0  0  0  0  0  0  0  0  0
  -29.7653  -19.2836   17.9844 C   0  0  0  0  0  0  0  0  0  0  0  0
  -27.9338  -20.6346   18.7951 C   0  0  0  0  0  0  0  0  0  0  0  0
  -22.3118   -9.3340   22.2751 C   0  0  0  0  0  0  0  0  0  0  0  0
  -23.6874   -8.1367   20.6903 C   0  0  0  0  0  0  0  0  0  0  0  0
  -28.1183  -25.6927   22.7126 C   0  0  0  0  0  0  0  0  0  0  0  0
  -19.9064   -7.3075   21.0374 C   0  0  0  0  0  0  0  0  0  0  0  0
  -18.5168   -7.3135   21.1575 C   0  0  0  0  0  0  0  0  0  0  0  0
  -26.3239  -25.9770   21.1256 C   0  0  0  0  0  0  0  0  0  0  0  0
  -18.7143   -6.6591   23.4748 C   0  0  0  0  0  0  0  0  0  0  0  0
  -23.9351  -10.5268   20.9412 C   0  0  0  0  0  0  0  0  0  0  0  0
  -23.9695  -12.9077   20.0259 C   0  0  0  0  0  0  0  0  0  0  0  0
  -25.0009  -19.1840   25.9318 C   0  0  0  0  0  0  0  0  0  0  0  0
  -25.8245  -25.2677   23.3855 C   0  0  0  0  0  0  0  0  0  0  0  0
  -25.3020  -20.0400   24.8552 C   0  0  0  0  0  0  0  0  0  0  0  0
  -25.3827  -25.6093   22.0994 C   0  0  0  0  0  0  0  0  0  0  0  0
  -28.3316  -18.4469   19.7397 C   0  0  0  0  0  0  0  0  0  0  0  0
  -29.0222  -20.4632   17.9397 C   0  0  0  0  0  0  0  0  0  0  0  0
  -22.6878   -8.1382   21.6632 C   0  0  0  0  0  0  0  0  0  0  0  0
  -27.6842  -26.0167   21.4305 C   0  0  0  0  0  0  0  0  0  0  0  0
  -20.7000   -6.9773   22.1359 C   0  0  0  0  0  0  0  0  0  0  0  0
  -17.9207   -6.9893   22.3762 C   0  0  0  0  0  0  0  0  0  0  0  0
  -20.1040   -6.6531   23.3547 C   0  0  0  0  0  0  0  0  0  0  0  0
  -24.5793  -11.7603   20.5675 C   0  0  0  0  0  0  0  0  0  0  0  0
  -25.0031  -13.7947   19.8489 C   0  0  0  0  0  0  0  0  0  0  0  0
  -22.5919  -13.1502   19.7110 C   0  0  0  0  0  0  0  0  0  0  0  0
  -23.6248  -22.9733   23.3599 C   0  0  0  0  0  0  0  0  0  0  0  0
  -29.9289  -23.5346   18.1684 C   0  0  0  0  0  0  0  0  0  0  0  0
  -21.6160  -25.4440   22.7415 C   0  0  0  0  0  0  0  0  0  0  0  0
  -21.2007  -28.6059   21.5264 C   0  0  0  0  0  0  0  0  0  0  0  0
  -29.5951  -16.1677   22.2152 C   0  0  0  0  0  0  0  0  0  0  0  0
  -23.5869  -18.7525   26.2307 C   0  0  0  0  0  0  0  0  0  0  0  0
  -24.8363  -24.8934   24.4560 C   0  0  0  0  0  0  0  0  0  0  0  0
  -23.9229  -25.5848   21.7297 C   0  0  0  0  0  0  0  0  0  0  0  0
  -22.5289  -19.6393   25.5793 C   0  0  0  0  0  0  0  0  0  0  0  0
  -30.2972  -22.5928   15.1992 C   0  0  0  0  0  0  0  0  0  0  0  0
  -30.0035  -13.1466   20.1158 C   0  0  0  0  0  0  0  0  0  0  0  0
  -22.8769  -19.8992   24.1170 C   0  0  0  0  0  0  0  0  0  0  0  0
  -29.1948  -23.4554   15.7955 C   0  0  0  0  0  0  0  0  0  0  0  0
  -28.5854  -12.5802   20.0677 C   0  0  0  0  0  0  0  0  0  0  0  0
  -29.9995  -21.2039   15.7566 C   0  0  0  0  0  0  0  0  0  0  0  0
  -30.2563  -13.9349   21.3973 C   0  0  0  0  0  0  0  0  0  0  0  0
  -27.8460  -14.4497   21.5970 C   0  0  0  0  0  0  0  0  0  0  0  0
  -24.2138  -20.6398   23.9913 C   0  0  1  0  0  0  0  0  0  0  0  0
  -23.5164  -24.3731   23.8951 C   0  0  1  0  0  0  0  0  0  0  0  0
  -29.0016  -22.8723   17.1972 C   0  0  1  0  0  0  0  0  0  0  0  0
  -27.5437  -13.6890   20.2972 C   0  0  2  0  0  0  0  0  0  0  0  0
  -19.4366  -30.3432   21.1174 C   0  0  0  0  0  0  0  0  0  0  0  0
  -20.6448  -23.8814   20.3073 C   0  0  0  0  0  0  0  0  0  0  0  0
  -19.6309  -25.9995   19.4392 C   0  0  0  0  0  0  0  0  0  0  0  0
  -18.8375  -25.0322   21.5973 C   0  0  0  0  0  0  0  0  0  0  0  0
  -29.2199  -18.5948   22.4341 C   0  0  0  0  0  0  0  0  0  0  0  0
  -22.5156  -30.5360   23.3442 C   0  0  0  0  0  0  0  0  0  0  0  0
  -27.9614  -17.3694   20.7020 C   0  0  0  0  0  0  0  0  0  0  0  0
  -30.5081  -25.7275   19.1872 C   0  0  0  0  0  0  0  0  0  0  0  0
  -29.8929  -25.8128   20.5726 C   0  0  0  0  0  0  0  0  0  1  0  0
  -21.1141  -26.1268   21.4922 C   0  0  1  0  0  0  0  0  0  0  0  0
  -20.4783  -29.8155   22.0917 C   0  0  2  0  0  0  0  0  0  0  0  0
  -20.0846  -25.2587   20.7151 C   0  0  0  0  0  0  0  0  0  0  0  0
  -25.8981  -11.9025   20.7241 N   0  0  0  0  0  0  0  0  0  0  0  0
  -26.1255  -13.1497   20.2782 N   0  0  0  0  0  0  0  0  0  0  0  0
  -29.3650  -21.4628   17.0497 N   0  0  3  0  0  0  0  0  0  0  0  0
  -22.9961  -25.2063   22.8092 N   0  0  0  0  0  0  0  0  0  0  0  0
  -29.2277  -14.9531   21.6132 N   0  0  0  0  0  0  0  0  0  0  0  0
  -25.0523  -15.0557   19.3693 N   0  0  0  0  0  0  0  0  0  0  0  0
  -22.1323  -12.8236   18.4279 N   0  0  0  0  0  0  0  0  0  0  0  0
  -24.0437  -22.0448   24.2937 N   0  0  0  0  0  0  0  0  0  0  0  0
  -29.7291  -24.8986   18.3061 N   0  0  0  0  0  0  0  0  0  0  0  0
  -20.6021  -27.4260   21.9147 N   0  0  0  0  0  0  0  0  0  0  0  0
  -28.8689  -17.3101   21.8458 N   0  0  0  0  0  0  0  0  0  0  0  0
  -21.4480  -30.9095   22.3810 N   0  3  0  0  0  0  0  0  0  0  0  0
  -21.7961  -13.6570   20.5376 O   0  0  0  0  0  0  0  0  0  0  0  0
  -23.3474  -22.7517   22.1871 O   0  0  0  0  0  0  0  0  0  0  0  0
  -30.7681  -22.8628   18.7566 O   0  0  0  0  0  0  0  0  0  0  0  0
  -20.8140  -25.1393   23.6279 O   0  0  0  0  0  0  0  0  0  0  0  0
  -22.1942  -28.6986   20.8088 O   0  0  0  0  0  0  0  0  0  0  0  0
  -30.5257  -16.2294   23.0289 O   0  0  0  0  0  0  0  0  0  0  0  0
  -22.0796   -6.9726   22.0153 O   0  0  0  0  0  0  0  0  0  0  0  0
  -28.5855  -26.3768   20.4767 O   0  0  0  0  0  0  0  0  0  1  0  0
  -16.5863   -6.9966   22.4918 F   0  0  0  0  0  0  0  0  0  0  0  0
  -20.8612   -6.3362   24.4139 F   0  0  0  0  0  0  0  0  0  0  0  0
  1  2  1  0  0  0  0
  1  5  2  0  0  0  0
  2  6  2  0  0  0  0
  3 12  2  0  0  0  0
  3 19  1  0  0  0  0
  4 13  1  0  0  0  0
  4 19  2  0  0  0  0
  5 21  1  0  0  0  0
  6 23  1  0  0  0  0
  7 14  2  0  0  0  0
  7 22  1  0  0  0  0
  8 10  2  0  0  0  0
  8 25  1  0  0  0  0
  9 11  1  0  0  0  0
  9 25  2  0  0  0  0
 10 26  1  0  0  0  0
 11 26  2  0  0  0  0
 12 27  1  0  0  0  0
 13 27  2  0  0  0  0
 14 28  1  0  0  0  0
 15 16  2  0  0  0  0
 15 29  1  0  0  0  0
 16 30  1  0  0  0  0
 17 24  1  0  0  0  0
 17 28  2  0  0  0  0
 18 30  2  0  0  0  0
 18 31  1  0  0  0  0
 19 32  1  0  0  0  0
 20 32  1  0  0  0  0
 20 33  2  0  0  0  0
 20 34  1  0  0  0  0
 21 23  2  0  0  0  0
 21 40  1  0  0  0  0
 22 24  2  0  0  0  0
 22 41  1  0  0  0  0
 23 52  1  0  0  0  0
 24 42  1  0  0  0  0
 25 62  1  0  0  0  0
 26 70  1  0  0  0  0
 27 86  1  0  0  0  0
 28 87  1  0  0  0  0
 29 31  2  0  0  0  0
 29 86  1  0  0  0  0
 30 88  1  0  0  0  0
 31 89  1  0  0  0  0
 32 68  2  0  0  0  0
 33 69  1  0  0  0  0
 33 73  1  0  0  0  0
 34 74  1  0  0  0  0
 34 80  2  0  0  0  0
 35 53  1  0  0  0  0
 35 75  1  0  0  0  0
 35 81  2  0  0  0  0
 36 54  1  0  0  0  0
 36 76  1  0  0  0  0
 36 82  2  0  0  0  0
 37 65  1  0  0  0  0
 37 71  1  0  0  0  0
 37 83  2  0  0  0  0
 38 66  1  0  0  0  0
 38 77  1  0  0  0  0
 38 84  2  0  0  0  0
 39 72  1  0  0  0  0
 39 78  1  0  0  0  0
 39 85  2  0  0  0  0
 40 43  1  0  0  0  0
 41 53  1  0  0  0  0
 42 71  1  0  0  0  0
 43 46  1  0  0  0  0
 44 47  1  0  0  0  0
 44 49  1  0  0  0  0
 45 48  1  0  0  0  0
 45 50  1  0  0  0  0
 46 52  1  0  0  0  0
 47 54  1  0  0  0  0
 48 55  1  0  0  0  0
 49 70  1  0  0  0  0
 50 72  1  0  0  0  0
 51 55  1  0  0  0  0
 51 72  1  0  0  0  0
 52 75  1  0  0  0  0
 53 71  1  0  0  0  0
 54 70  1  0  0  0  0
 55 69  1  0  0  0  0
 56 66  1  0  0  0  0
 57 67  1  0  0  0  0
 58 67  1  0  0  0  0
 59 67  1  0  0  0  0
 60 78  1  0  0  0  0
 61 79  1  0  0  0  0
 62 78  1  0  0  0  0
 63 64  1  0  0  0  0
 63 76  1  0  0  0  0
 64 87  1  0  0  0  0
 65 67  1  0  0  0  0
 65 77  1  0  0  0  0
 66 79  1  0  0  0  0
 68 69  1  0  0  0  0
M  CHG  1  79   1
M  ISO  4  39 100  64 101  78 100  87 101
M  END
> <Batch ID>
0011

> <Smiles>
CNC(C)C(=O)NC(C(=O)N1Cc2cc([101O:1][101CH2:1]CNC(=O)C3CCCN3c3ccc(C[100N:0](C)[100C:0](=O)N4CCCC(n5nc(-c6ccc(Oc7ccc(F)cc7F)cc6)c(C(N)=O)c5N)C4)cc3)ccc2CC1C(=O)NC1CCCc2ccccc21)C(C)(C)C

> <Shape>
0.246

> <Color>
0.101

> <Negative vol penalty>
0.000

$$$$

  -OEChem-04042320433D

 83 92  0     1  0  0  0  0  0999 V2000
  -29.2153  -36.1897   23.6536 C   0  0  0  0  0  0  0  0  0  0  0  0
  -29.4490  -34.9064   23.1699 C   0  0  0  0  0  0  0  0  0  0  0  0
  -23.7456   -9.9699   22.2956 C   0  0  0  0  0  0  0  0  0  0  0  0
  -23.1722   -9.8157   19.9537 C   0  0  0  0  0  0  0  0  0  0  0  0
  -28.0559  -36.4595   24.3794 C   0  0  0  0  0  0  0  0  0  0  0  0
  -28.5238  -33.8918   23.4128 C   0  0  0  0  0  0  0  0  0  0  0  0
  -27.0812  -29.2544   19.6820 C   0  0  0  0  0  0  0  0  0  0  0  0
  -24.6163  -20.0124   18.3439 C   0  0  0  0  0  0  0  0  0  0  0  0
  -22.7609  -21.4552   18.9035 C   0  0  0  0  0  0  0  0  0  0  0  0
  -25.4866  -20.8712   19.0150 C   0  0  0  0  0  0  0  0  0  0  0  0
  -23.6313  -22.3140   19.5747 C   0  0  0  0  0  0  0  0  0  0  0  0
  -23.5770   -8.5916   22.4276 C   0  0  0  0  0  0  0  0  0  0  0  0
  -23.0036   -8.4374   20.0857 C   0  0  0  0  0  0  0  0  0  0  0  0
  -27.4937  -27.9234   19.6372 C   0  0  0  0  0  0  0  0  0  0  0  0
  -21.0098   -6.4151   22.7388 C   0  0  0  0  0  0  0  0  0  0  0  0
  -20.2960   -5.9533   23.8445 C   0  0  0  0  0  0  0  0  0  0  0  0
  -25.5377  -27.2812   20.8944 C   0  0  0  0  0  0  0  0  0  0  0  0
  -22.2307   -4.7018   24.5708 C   0  0  0  0  0  0  0  0  0  0  0  0
  -23.5431  -10.5820   21.0586 C   0  0  0  0  0  0  0  0  0  0  0  0
  -24.9006  -12.6896   20.5866 C   0  0  0  0  0  0  0  0  0  0  0  0
  -27.1114  -35.4500   24.6231 C   0  0  0  0  0  0  0  0  0  0  0  0
  -25.8974  -29.6109   20.3438 C   0  0  0  0  0  0  0  0  0  0  0  0
  -27.3513  -34.1480   24.1438 C   0  0  0  0  0  0  0  0  0  0  0  0
  -25.1110  -28.6171   20.9440 C   0  0  0  0  0  0  0  0  0  0  0  0
  -23.2534  -20.3044   18.2881 C   0  0  0  0  0  0  0  0  0  0  0  0
  -24.9942  -22.0221   19.6304 C   0  0  0  0  0  0  0  0  0  0  0  0
  -23.2061   -7.8253   21.3227 C   0  0  0  0  0  0  0  0  0  0  0  0
  -26.7234  -26.9369   20.2460 C   0  0  0  0  0  0  0  0  0  0  0  0
  -22.3341   -6.0203   22.5490 C   0  0  0  0  0  0  0  0  0  0  0  0
  -20.9064   -5.0966   24.7606 C   0  0  0  0  0  0  0  0  0  0  0  0
  -22.9446   -5.1636   23.4650 C   0  0  0  0  0  0  0  0  0  0  0  0
  -23.7166  -12.0058   20.9217 C   0  0  0  0  0  0  0  0  0  0  0  0
  -24.5428  -14.0157   20.5861 C   0  0  0  0  0  0  0  0  0  0  0  0
  -26.2070  -12.1724   20.3012 C   0  0  0  0  0  0  0  0  0  0  0  0
  -25.1876  -31.4544   22.8341 C   0  0  0  0  0  0  0  0  0  0  0  0
  -22.1351  -30.7964   21.9555 C   0  0  0  0  0  0  0  0  0  0  0  0
  -19.9686  -28.7004   20.3557 C   0  0  0  0  0  0  0  0  0  0  0  0
  -20.9903  -18.0974   19.2204 C   0  0  0  0  0  0  0  0  0  0  0  0
  -25.8958  -35.7782   25.4533 C   0  0  0  0  0  0  0  0  0  0  0  0
  -25.4525  -31.0476   20.3601 C   0  0  0  0  0  0  0  0  0  0  0  0
  -23.8215  -28.9449   21.6497 C   0  0  0  0  0  0  0  0  0  0  0  0
  -24.7855  -34.7361   25.3461 C   0  0  0  0  0  0  0  0  0  0  0  0
  -20.3281  -16.2892   22.2152 C   0  0  0  0  0  0  0  0  0  0  0  0
  -25.3584  -33.3294   25.4869 C   0  0  0  0  0  0  0  0  0  0  0  0
  -21.2433  -15.0676   22.1148 C   0  0  0  0  0  0  0  0  0  0  0  0
  -27.7419  -23.6671   21.4589 C   0  0  0  0  0  0  0  0  0  0  0  0
  -19.7688  -16.6889   20.8515 C   0  0  0  0  0  0  0  0  0  0  0  0
  -27.2926  -22.6499   20.4101 C   0  0  0  0  0  0  0  0  0  0  0  0
  -21.6997  -15.6765   19.7024 C   0  0  0  0  0  0  0  0  0  0  0  0
  -25.4342  -24.1019   20.9657 C   0  0  0  0  0  0  0  0  0  0  0  0
  -26.3596  -33.0267   24.3655 C   0  0  1  0  0  0  0  0  0  0  0  0
  -24.4941  -31.3633   21.5043 C   0  0  1  0  0  0  0  0  0  0  0  0
  -22.3324  -15.2693   21.0441 C   0  0  2  0  0  0  0  0  0  0  0  0
  -26.7480  -24.8081   21.2980 C   0  0  2  0  0  0  0  0  0  1  0  0
  -17.5303  -28.4073   19.8395 C   0  0  0  0  0  0  0  0  0  0  0  0
  -21.6418  -29.8726   24.8214 C   0  0  0  0  0  0  0  0  0  0  0  0
  -19.5592  -28.7356   24.0225 C   0  0  0  0  0  0  0  0  0  0  0  0
  -19.7813  -31.2121   23.8222 C   0  0  0  0  0  0  0  0  0  0  0  0
  -20.4516  -28.8302   17.4388 C   0  0  0  0  0  0  0  0  0  0  0  0
  -22.3221  -19.3869   17.5704 C   0  0  0  0  0  0  0  0  0  0  0  0
  -21.1337  -29.7190   22.2947 C   0  0  1  0  0  0  0  0  0  0  0  0
  -18.8579  -28.9707   19.3569 C   0  0  2  0  0  0  0  0  0  0  0  0
  -20.5542  -29.8786   23.7286 C   0  0  0  0  0  0  0  0  0  0  0  0
  -22.6839  -12.8294   21.1199 N   0  0  0  0  0  0  0  0  0  0  0  0
  -23.2179  -14.0444   20.9087 N   0  0  0  0  0  0  0  0  0  0  0  0
  -25.8541  -22.8705   20.2956 N   0  0  3  0  0  0  0  0  0  0  0  0
  -23.4322  -30.3647   21.6440 N   0  0  0  0  0  0  0  0  0  0  0  0
  -20.8529  -16.8662   19.8824 N   0  0  0  0  0  0  0  0  0  0  0  0
  -25.2354  -15.1483   20.3412 N   0  0  0  0  0  0  0  0  0  0  0  0
  -26.4007  -10.7850   20.3459 N   0  0  0  0  0  0  0  0  0  0  0  0
  -25.6625  -32.7165   23.1357 N   0  0  0  0  0  0  0  0  0  0  0  0
  -20.1287  -29.7483   21.2375 N   0  0  0  0  0  0  0  0  0  0  0  0
  -22.0476  -18.1831   18.3229 N   0  0  0  0  0  0  0  0  0  0  0  0
  -19.1817  -28.3495   18.0415 N   0  3  0  0  0  0  0  0  0  0  0  0
  -27.1778  -12.9194   20.0312 O   0  0  0  0  0  0  0  0  0  0  0  0
  -25.2834  -30.4539   23.5352 O   0  0  0  0  0  0  0  0  0  0  0  0
  -21.7779  -31.9771   21.9596 O   0  0  0  0  0  0  0  0  0  0  0  0
  -20.6257  -27.6617   20.3563 O   0  0  0  0  0  0  0  0  0  0  0  0
  -20.2305  -19.0515   19.4188 O   0  0  0  0  0  0  0  0  0  0  0  0
  -23.0417   -6.4803   21.4511 O   0  0  0  0  0  0  0  0  0  0  0  0
  -27.1241  -25.6371   20.2043 O   0  0  0  0  0  0  0  0  0  1  0  0
  -20.2213   -4.6544   25.8232 F   0  0  0  0  0  0  0  0  0  0  0  0
  -24.2169   -4.7817   23.2886 F   0  0  0  0  0  0  0  0  0  0  0  0
  1  2  1  0  0  0  0
  1  5  2  0  0  0  0
  2  6  2  0  0  0  0
  3 12  2  0  0  0  0
  3 19  1  0  0  0  0
  4 13  1  0  0  0  0
  4 19  2  0  0  0  0
  5 21  1  0  0  0  0
  6 23  1  0  0  0  0
  7 14  2  0  0  0  0
  7 22  1  0  0  0  0
  8 10  2  0  0  0  0
  8 25  1  0  0  0  0
  9 11  1  0  0  0  0
  9 25  2  0  0  0  0
 10 26  1  0  0  0  0
 11 26  2  0  0  0  0
 12 27  1  0  0  0  0
 13 27  2  0  0  0  0
 14 28  1  0  0  0  0
 15 16  2  0  0  0  0
 15 29  1  0  0  0  0
 16 30  1  0  0  0  0
 17 24  1  0  0  0  0
 17 28  2  0  0  0  0
 18 30  2  0  0  0  0
 18 31  1  0  0  0  0
 19 32  1  0  0  0  0
 20 32  1  0  0  0  0
 20 33  2  0  0  0  0
 20 34  1  0  0  0  0
 21 23  2  0  0  0  0
 21 39  1  0  0  0  0
 22 24  2  0  0  0  0
 22 40  1  0  0  0  0
 23 51  1  0  0  0  0
 24 41  1  0  0  0  0
 25 60  1  0  0  0  0
 26 66  1  0  0  0  0
 27 80  1  0  0  0  0
 28 81  1  0  0  0  0
 29 31  2  0  0  0  0
 29 80  1  0  0  0  0
 30 82  1  0  0  0  0
 31 83  1  0  0  0  0
 32 64  2  0  0  0  0
 33 65  1  0  0  0  0
 33 69  1  0  0  0  0
 34 70  1  0  0  0  0
 34 75  2  0  0  0  0
 35 52  1  0  0  0  0
 35 71  1  0  0  0  0
 35 76  2  0  0  0  0
 36 61  1  0  0  0  0
 36 67  1  0  0  0  0
 36 77  2  0  0  0  0
 37 62  1  0  0  0  0
 37 72  1  0  0  0  0
 37 78  2  0  0  0  0
 38 68  1  0  0  0  0
 38 73  1  0  0  0  0
 38 79  2  0  0  0  0
 39 42  1  0  0  0  0
 40 52  1  0  0  0  0
 41 67  1  0  0  0  0
 42 44  1  0  0  0  0
 43 45  1  0  0  0  0
 43 47  1  0  0  0  0
 44 51  1  0  0  0  0
 45 53  1  0  0  0  0
 46 48  1  0  0  0  0
 46 54  1  0  0  0  0
 47 68  1  0  0  0  0
 48 66  1  0  0  0  0
 49 53  1  0  0  0  0
 49 68  1  0  0  0  0
 50 54  1  0  0  0  0
 50 66  1  0  0  0  0
 51 71  1  0  0  0  0
 52 67  1  0  0  0  0
 53 65  1  0  0  0  0
 54 81  1  0  0  0  0
 55 62  1  0  0  0  0
 56 63  1  0  0  0  0
 57 63  1  0  0  0  0
 58 63  1  0  0  0  0
 59 74  1  0  0  0  0
 60 73  1  0  0  0  0
 61 63  1  0  0  0  0
 61 72  1  0  0  0  0
 62 74  1  0  0  0  0
 64 65  1  0  0  0  0
M  CHG  1  74   1
M  ISO  4  38 100  54 101  73 100  81 101
M  END
> <Batch ID>
0011

> <Smiles>
CNC(C)C(=O)NC(C(=O)N1Cc2cc([101O:1][101CH:1]3CCN(c4ccc(C[100NH:0][100C:0](=O)N5CCCC(n6nc(-c7ccc(Oc8ccc(F)cc8F)cc7)c(C(N)=O)c6N)C5)cc4)C3)ccc2CC1C(=O)NC1CCCc2ccccc21)C(C)(C)C

> <Shape>
0.265

> <Color>
0.125

> <Negative vol penalty>
0.000

$$$$

  -OEChem-04042320433D

 77 84  0     1  0  0  0  0  0999 V2000
  -20.9075  -22.9710   22.9657 C   0  0  0  0  0  0  0  0  0  0  0  0
  -22.0320  -23.4401   22.2942 C   0  0  0  0  0  0  0  0  0  0  0  0
  -23.9907  -14.1846   20.7680 C   0  0  0  0  0  0  0  0  0  0  0  0
  -26.1996  -14.1661   21.7466 C   0  0  0  0  0  0  0  0  0  0  0  0
  -19.8883  -23.8546   23.3182 C   0  0  0  0  0  0  0  0  0  0  0  0
  -22.1374  -24.7932   21.9739 C   0  0  0  0  0  0  0  0  0  0  0  0
  -26.7239  -26.6804   22.9973 C   0  0  0  0  0  0  0  0  0  0  0  0
  -24.1127  -12.8281   20.4670 C   0  0  0  0  0  0  0  0  0  0  0  0
  -26.3216  -12.8096   21.4457 C   0  0  0  0  0  0  0  0  0  0  0  0
  -27.7463  -26.3943   22.0936 C   0  0  0  0  0  0  0  0  0  0  0  0
  -23.6983   -9.2854   19.7650 C   0  0  0  0  0  0  0  0  0  0  0  0
  -22.6107   -8.4585   20.0458 C   0  0  0  0  0  0  0  0  0  0  0  0
  -27.4752  -28.5778   21.1047 C   0  0  0  0  0  0  0  0  0  0  0  0
  -22.7627   -9.0521   22.3828 C   0  0  0  0  0  0  0  0  0  0  0  0
  -25.0342  -14.8536   21.4077 C   0  0  0  0  0  0  0  0  0  0  0  0
  -24.3911  -16.8212   22.8986 C   0  0  0  0  0  0  0  0  0  0  0  0
  -19.9857  -25.2208   23.0106 C   0  0  0  0  0  0  0  0  0  0  0  0
  -26.0610  -27.9154   22.9543 C   0  0  0  0  0  0  0  0  0  0  0  0
  -21.1179  -25.6957   22.3214 C   0  0  0  0  0  0  0  0  0  0  0  0
  -26.4465  -28.8782   22.0106 C   0  0  0  0  0  0  0  0  0  0  0  0
  -25.2781  -12.1405   20.8059 C   0  0  0  0  0  0  0  0  0  0  0  0
  -28.1201  -27.3419   21.1453 C   0  0  0  0  0  0  0  0  0  0  0  0
  -24.3182   -9.9956   20.7931 C   0  0  0  0  0  0  0  0  0  0  0  0
  -22.1428   -8.3418   21.3547 C   0  0  0  0  0  0  0  0  0  0  0  0
  -23.8504   -9.8790   22.1020 C   0  0  0  0  0  0  0  0  0  0  0  0
  -24.9090  -16.2550   21.7184 C   0  0  0  0  0  0  0  0  0  0  0  0
  -24.4906  -18.1768   22.7016 C   0  0  0  0  0  0  0  0  0  0  0  0
  -23.8669  -16.1791   24.0685 C   0  0  0  0  0  0  0  0  0  0  0  0
  -23.0631  -28.8352   22.4340 C   0  0  0  0  0  0  0  0  0  0  0  0
  -28.1464  -21.3528   19.2630 C   0  0  0  0  0  0  0  0  0  0  0  0
  -24.2355  -31.7569   23.2159 C   0  0  0  0  0  0  0  0  0  0  0  0
  -29.8329  -25.6248   18.4742 C   0  0  0  0  0  0  0  0  0  0  0  0
  -26.9376  -33.8295   23.4390 C   0  0  0  0  0  0  0  0  0  0  0  0
  -18.8369  -26.1296   23.3701 C   0  0  0  0  0  0  0  0  0  0  0  0
  -24.9783  -28.2188   23.9533 C   0  0  0  0  0  0  0  0  0  0  0  0
  -25.7801  -30.2268   21.9359 C   0  0  0  0  0  0  0  0  0  0  0  0
  -19.1964  -27.6125   23.3256 C   0  0  0  0  0  0  0  0  0  0  0  0
  -24.5116  -21.4746   19.2450 C   0  0  0  0  0  0  0  0  0  0  0  0
  -19.9603  -27.9385   22.0462 C   0  0  0  0  0  0  0  0  0  0  0  0
  -24.1586  -20.1749   19.9670 C   0  0  0  0  0  0  0  0  0  0  0  0
  -25.7617  -21.3165   18.3834 C   0  0  0  0  0  0  0  0  0  0  0  0
  -26.6009  -19.5145   19.8575 C   0  0  0  0  0  0  0  0  0  0  0  0
  -21.2801  -27.1607   21.9783 C   0  0  1  0  0  0  0  0  0  0  0  0
  -24.0236  -29.3132   23.4859 C   0  0  1  0  0  0  0  0  0  0  0  0
  -25.3631  -19.6402   20.7613 C   0  0  2  0  0  0  0  0  0  0  0  0
  -27.5770  -36.1709   24.0768 C   0  0  0  0  0  0  0  0  0  0  0  0
  -23.0783  -32.7864   20.5870 C   0  0  0  0  0  0  0  0  0  0  0  0
  -24.5290  -34.8133   20.8228 C   0  0  0  0  0  0  0  0  0  0  0  0
  -22.7792  -34.3282   22.5333 C   0  0  0  0  0  0  0  0  0  0  0  0
  -30.5630  -24.1581   16.5854 C   0  0  0  0  0  0  0  0  0  0  0  0
  -28.7290  -32.8773   25.5938 C   0  0  0  0  0  0  0  0  0  0  0  0
  -28.3699  -22.6278   18.4896 C   0  0  0  0  0  0  0  0  0  0  0  0
  -29.2919  -25.6992   19.8865 C   0  0  0  0  0  0  0  0  0  1  0  0
  -29.7906  -23.1312   18.6871 C   0  0  0  0  0  0  0  0  0  0  0  0
  -24.8620  -32.8973   22.4505 C   0  0  1  0  0  0  0  0  0  0  0  0
  -27.4223  -34.7359   24.5562 C   0  0  2  0  0  0  0  0  0  0  0  0
  -23.8236  -33.6802   21.5983 C   0  0  0  0  0  0  0  0  0  0  0  0
  -25.3078  -17.1757   20.8367 N   0  0  0  0  0  0  0  0  0  0  0  0
  -25.0404  -18.3341   21.4633 N   0  0  0  0  0  0  0  0  0  0  0  0
  -24.7227  -30.4736   22.9302 N   0  0  0  0  0  0  0  0  0  0  0  0
  -26.8781  -20.7791   19.1703 N   0  0  0  0  0  0  0  0  0  0  0  0
  -24.1605  -19.2377   23.4684 N   0  0  0  0  0  0  0  0  0  0  0  0
  -23.8380  -14.7783   24.1056 N   0  0  0  0  0  0  0  0  0  0  0  0
  -22.2730  -27.7744   22.8338 N   0  0  0  0  0  0  0  0  0  0  0  0
  -25.5636  -33.7134   23.4354 N   0  0  0  0  0  0  0  0  0  0  0  0
  -30.0535  -24.3564   17.9366 N   0  0  0  0  0  0  0  0  0  0  0  0
  -28.7408  -34.2669   25.0685 N   0  3  0  0  0  0  0  0  0  0  0  0
  -23.4218  -16.8284   25.0452 O   0  0  0  0  0  0  0  0  0  0  0  0
  -23.0395  -29.3888   21.3410 O   0  0  0  0  0  0  0  0  0  0  0  0
  -29.0716  -20.8839   19.9310 O   0  0  0  0  0  0  0  0  0  0  0  0
  -23.3516  -31.9966   24.0423 O   0  0  0  0  0  0  0  0  0  0  0  0
  -30.0456  -26.6773   17.8644 O   0  0  0  0  0  0  0  0  0  0  0  0
  -27.7011  -33.2825   22.6464 O   0  0  0  0  0  0  0  0  0  0  0  0
  -25.3974  -10.8168   20.5126 O   0  0  0  0  0  0  0  0  0  0  0  0
  -29.1173  -27.0649   20.2617 O   0  0  0  0  0  0  0  0  0  1  0  0
  -21.0974   -7.5489   21.6239 F   0  0  0  0  0  0  0  0  0  0  0  0
  -24.4411  -10.5597   23.0937 F   0  0  0  0  0  0  0  0  0  0  0  0
  1  2  1  0  0  0  0
  1  5  2  0  0  0  0
  2  6  2  0  0  0  0
  3  8  2  0  0  0  0
  3 15  1  0  0  0  0
  4  9  1  0  0  0  0
  4 15  2  0  0  0  0
  5 17  1  0  0  0  0
  6 19  1  0  0  0  0
  7 10  2  0  0  0  0
  7 18  1  0  0  0  0
  8 21  1  0  0  0  0
  9 21  2  0  0  0  0
 10 22  1  0  0  0  0
 11 12  2  0  0  0  0
 11 23  1  0  0  0  0
 12 24  1  0  0  0  0
 13 20  1  0  0  0  0
 13 22  2  0  0  0  0
 14 24  2  0  0  0  0
 14 25  1  0  0  0  0
 15 26  1  0  0  0  0
 16 26  1  0  0  0  0
 16 27  2  0  0  0  0
 16 28  1  0  0  0  0
 17 19  2  0  0  0  0
 17 34  1  0  0  0  0
 18 20  2  0  0  0  0
 18 35  1  0  0  0  0
 19 43  1  0  0  0  0
 20 36  1  0  0  0  0
 21 74  1  0  0  0  0
 22 75  1  0  0  0  0
 23 25  2  0  0  0  0
 23 74  1  0  0  0  0
 24 76  1  0  0  0  0
 25 77  1  0  0  0  0
 26 58  2  0  0  0  0
 27 59  1  0  0  0  0
 27 62  1  0  0  0  0
 28 63  1  0  0  0  0
 28 68  2  0  0  0  0
 29 44  1  0  0  0  0
 29 64  1  0  0  0  0
 29 69  2  0  0  0  0
 30 52  1  0  0  0  0
 30 61  1  0  0  0  0
 30 70  2  0  0  0  0
 31 55  1  0  0  0  0
 31 60  1  0  0  0  0
 31 71  2  0  0  0  0
 32 53  1  0  0  0  0
 32 66  1  0  0  0  0
 32 72  2  0  0  0  0
 33 56  1  0  0  0  0
 33 65  1  0  0  0  0
 33 73  2  0  0  0  0
 34 37  1  0  0  0  0
 35 44  1  0  0  0  0
 36 60  1  0  0  0  0
 37 39  1  0  0  0  0
 38 40  1  0  0  0  0
 38 41  1  0  0  0  0
 39 43  1  0  0  0  0
 40 45  1  0  0  0  0
 41 61  1  0  0  0  0
 42 45  1  0  0  0  0
 42 61  1  0  0  0  0
 43 64  1  0  0  0  0
 44 60  1  0  0  0  0
 45 59  1  0  0  0  0
 46 56  1  0  0  0  0
 47 57  1  0  0  0  0
 48 57  1  0  0  0  0
 49 57  1  0  0  0  0
 50 66  1  0  0  0  0
 51 67  1  0  0  0  0
 52 54  1  0  0  0  0
 53 75  1  0  0  0  0
 54 66  1  0  0  0  0
 55 57  1  0  0  0  0
 55 65  1  0  0  0  0
 56 67  1  0  0  0  0
 58 59  1  0  0  0  0
M  CHG  1  67   1
M  ISO  4  30 100  52 100  53 101  75 101
M  END
> <Batch ID>
0011

> <Smiles>
CNC(C)C(=O)NC(C(=O)N1Cc2cc([101O:1][101CH2:1]C(=O)N(C)C[100CH2:0][100C:0](=O)N3CCCC(n4nc(-c5ccc(Oc6ccc(F)cc6F)cc5)c(C(N)=O)c4N)C3)ccc2CC1C(=O)NC1CCCc2ccccc21)C(C)(C)C

> <Shape>
0.251

> <Color>
0.098

> <Negative vol penalty>
0.000

$$$$

  -OEChem-04042320433D

 82 90  0     1  0  0  0  0  0999 V2000
  -24.6122  -34.0114   28.0639 C   0  0  0  0  0  0  0  0  0  0  0  0
  -25.4919  -33.1965   27.3586 C   0  0  0  0  0  0  0  0  0  0  0  0
  -24.2567   -9.1059   21.4812 C   0  0  0  0  0  0  0  0  0  0  0  0
  -24.7683  -10.3935   23.4604 C   0  0  0  0  0  0  0  0  0  0  0  0
  -23.2367  -33.8149   27.9481 C   0  0  0  0  0  0  0  0  0  0  0  0
  -24.9966  -32.1839   26.5377 C   0  0  0  0  0  0  0  0  0  0  0  0
  -27.3828  -30.2386   21.2437 C   0  0  0  0  0  0  0  0  0  0  0  0
  -30.2159  -18.8786   20.0778 C   0  0  0  0  0  0  0  0  0  0  0  0
  -23.9218   -8.0121   22.2793 C   0  0  0  0  0  0  0  0  0  0  0  0
  -24.4333   -9.2997   24.2585 C   0  0  0  0  0  0  0  0  0  0  0  0
  -28.1972  -29.1529   20.9246 C   0  0  0  0  0  0  0  0  0  0  0  0
  -30.3965  -20.2134   20.4399 C   0  0  0  0  0  0  0  0  0  0  0  0
  -21.2944   -7.0103   24.1570 C   0  0  0  0  0  0  0  0  0  0  0  0
  -20.1253   -6.3155   23.8470 C   0  0  0  0  0  0  0  0  0  0  0  0
  -26.2451  -27.8791   20.3032 C   0  0  0  0  0  0  0  0  0  0  0  0
  -28.0127  -20.4509   20.7535 C   0  0  0  0  0  0  0  0  0  0  0  0
  -21.4143   -4.3017   23.4998 C   0  0  0  0  0  0  0  0  0  0  0  0
  -24.6800  -10.2966   22.0717 C   0  0  0  0  0  0  0  0  0  0  0  0
  -24.1683  -12.4504   20.8040 C   0  0  0  0  0  0  0  0  0  0  0  0
  -22.7241  -32.8057   27.1179 C   0  0  0  0  0  0  0  0  0  0  0  0
  -25.9903  -30.1489   21.1050 C   0  0  0  0  0  0  0  0  0  0  0  0
  -23.6130  -31.9729   26.4117 C   0  0  0  0  0  0  0  0  0  0  0  0
  -25.4155  -28.9660   20.6188 C   0  0  0  0  0  0  0  0  0  0  0  0
  -28.9336  -18.3299   20.0534 C   0  0  0  0  0  0  0  0  0  0  0  0
  -24.0101   -8.1090   23.6679 C   0  0  0  0  0  0  0  0  0  0  0  0
  -27.6281  -27.9719   20.4571 C   0  0  0  0  0  0  0  0  0  0  0  0
  -29.2950  -20.9996   20.7778 C   0  0  0  0  0  0  0  0  0  0  0  0
  -22.5234   -6.3509   24.1383 C   0  0  0  0  0  0  0  0  0  0  0  0
  -20.1853   -4.9612   23.5185 C   0  0  0  0  0  0  0  0  0  0  0  0
  -27.8321  -19.1160   20.3913 C   0  0  0  0  0  0  0  0  0  0  0  0
  -22.5834   -4.9966   23.8098 C   0  0  0  0  0  0  0  0  0  0  0  0
  -25.0267  -11.4267   21.2478 C   0  0  0  0  0  0  0  0  0  0  0  0
  -24.9747  -13.2760   20.0594 C   0  0  0  0  0  0  0  0  0  0  0  0
  -22.7672  -12.6382   21.0434 C   0  0  0  0  0  0  0  0  0  0  0  0
  -23.5206  -30.3437   23.0966 C   0  0  0  0  0  0  0  0  0  0  0  0
  -21.7957  -30.1726   20.3547 C   0  0  0  0  0  0  0  0  0  0  0  0
  -21.6387  -29.2028   17.0865 C   0  0  0  0  0  0  0  0  0  0  0  0
  -29.7411  -16.0584   19.3221 C   0  0  0  0  0  0  0  0  0  0  0  0
  -21.2309  -32.6009   27.0614 C   0  0  0  0  0  0  0  0  0  0  0  0
  -25.1278  -31.3381   21.4281 C   0  0  0  0  0  0  0  0  0  0  0  0
  -23.9275  -28.8254   20.4328 C   0  0  0  0  0  0  0  0  0  0  0  0
  -20.7774  -31.7478   25.8795 C   0  0  0  0  0  0  0  0  0  0  0  0
  -29.7068  -12.6236   18.3850 C   0  0  0  0  0  0  0  0  0  0  0  0
  -21.6503  -30.5032   25.7534 C   0  0  0  0  0  0  0  0  0  0  0  0
  -28.4155  -12.0902   19.0097 C   0  0  0  0  0  0  0  0  0  0  0  0
  -30.3849  -13.6587   19.2809 C   0  0  0  0  0  0  0  0  0  0  0  0
  -28.2331  -14.2360   20.3323 C   0  0  0  0  0  0  0  0  0  0  0  0
  -23.1136  -30.8799   25.4919 C   0  0  1  0  0  0  0  0  0  0  0  0
  -23.6820  -30.9615   21.7365 C   0  0  1  0  0  0  0  0  0  0  0  0
  -27.4802  -13.2383   19.4372 C   0  0  2  0  0  0  0  0  0  0  0  0
  -20.0851  -29.1624   15.1161 C   0  0  0  0  0  0  0  0  0  0  0  0
  -20.2767  -27.8395   21.6034 C   0  0  0  0  0  0  0  0  0  0  0  0
  -19.4426  -27.2500   19.3175 C   0  0  0  0  0  0  0  0  0  0  0  0
  -18.8500  -29.4513   20.3303 C   0  0  0  0  0  0  0  0  0  0  0  0
  -23.4541  -30.8939   15.4731 C   0  0  0  0  0  0  0  0  0  0  0  0
  -28.9589  -24.6088   20.6297 C   0  0  0  0  0  0  0  0  0  0  0  0
  -27.8587  -25.6093   20.3123 C   0  0  0  0  0  0  0  0  0  1  0  0
  -28.4097  -23.2060   20.8371 C   0  0  0  0  0  0  0  0  0  0  0  0
  -21.2136  -29.0531   19.5260 C   0  0  1  0  0  0  0  0  0  0  0  0
  -21.1770  -29.9352   15.8395 C   0  0  2  0  0  0  0  0  0  0  0  0
  -19.9736  -28.4001   20.1995 C   0  0  0  0  0  0  0  0  0  0  0  0
  -26.2823  -11.5853   20.8207 N   0  0  0  0  0  0  0  0  0  0  0  0
  -26.2187  -12.7183   20.1006 N   0  0  0  0  0  0  0  0  0  0  0  0
  -23.1260  -30.0139   20.7684 N   0  0  0  0  0  0  0  0  0  0  0  0
  -29.4398  -14.7176   19.6419 N   0  0  0  0  0  0  0  0  0  0  0  0
  -24.7340  -14.4175   19.3799 N   0  0  0  0  0  0  0  0  0  0  0  0
  -22.0916  -11.6955   21.8304 N   0  0  0  0  0  0  0  0  0  0  0  0
  -28.7535  -16.9736   19.6850 N   0  0  0  0  0  0  0  0  0  0  0  0
  -23.2983  -31.2591   24.1075 N   0  0  0  0  0  0  0  0  0  0  0  0
  -20.9493  -29.6168   18.2066 N   0  0  0  0  0  0  0  0  0  0  0  0
  -22.3176  -30.1280   14.8999 N   0  3  0  0  0  0  0  0  0  0  0  0
  -22.1296  -13.6042   20.5598 O   0  0  0  0  0  0  0  0  0  0  0  0
  -23.5911  -29.1265   23.2195 O   0  0  0  0  0  0  0  0  0  0  0  0
  -21.0982  -31.1551   20.6191 O   0  0  0  0  0  0  0  0  0  0  0  0
  -22.5198  -28.3462   17.0680 O   0  0  0  0  0  0  0  0  0  0  0  0
  -30.7851  -16.3685   18.7427 O   0  0  0  0  0  0  0  0  0  0  0  0
  -23.6831   -7.0420   24.4471 O   0  0  0  0  0  0  0  0  0  0  0  0
  -28.4206  -26.9104   20.1455 O   0  0  0  0  0  0  0  0  0  1  0  0
  -29.4727  -22.3109   21.1348 O   0  0  0  0  0  0  0  0  0  0  0  0
  -19.0624   -4.2937   23.2223 F   0  0  0  0  0  0  0  0  0  0  0  0
  -26.5952  -18.5992   20.3709 F   0  0  0  0  0  0  0  0  0  0  0  0
  -23.7611   -4.3575   23.7913 F   0  0  0  0  0  0  0  0  0  0  0  0
  1  2  1  0  0  0  0
  1  5  2  0  0  0  0
  2  6  2  0  0  0  0
  3  9  2  0  0  0  0
  3 18  1  0  0  0  0
  4 10  1  0  0  0  0
  4 18  2  0  0  0  0
  5 20  1  0  0  0  0
  6 22  1  0  0  0  0
  7 11  2  0  0  0  0
  7 21  1  0  0  0  0
  8 12  2  0  0  0  0
  8 24  1  0  0  0  0
  9 25  1  0  0  0  0
 10 25  2  0  0  0  0
 11 26  1  0  0  0  0
 12 27  1  0  0  0  0
 13 14  2  0  0  0  0
 13 28  1  0  0  0  0
 14 29  1  0  0  0  0
 15 23  1  0  0  0  0
 15 26  2  0  0  0  0
 16 27  2  0  0  0  0
 16 30  1  0  0  0  0
 17 29  2  0  0  0  0
 17 31  1  0  0  0  0
 18 32  1  0  0  0  0
 19 32  1  0  0  0  0
 19 33  2  0  0  0  0
 19 34  1  0  0  0  0
 20 22  2  0  0  0  0
 20 39  1  0  0  0  0
 21 23  2  0  0  0  0
 21 40  1  0  0  0  0
 22 48  1  0  0  0  0
 23 41  1  0  0  0  0
 24 30  2  0  0  0  0
 24 68  1  0  0  0  0
 25 77  1  0  0  0  0
 26 78  1  0  0  0  0
 27 79  1  0  0  0  0
 28 31  2  0  0  0  0
 28 77  1  0  0  0  0
 29 80  1  0  0  0  0
 30 81  1  0  0  0  0
 31 82  1  0  0  0  0
 32 62  2  0  0  0  0
 33 63  1  0  0  0  0
 33 66  1  0  0  0  0
 34 67  1  0  0  0  0
 34 72  2  0  0  0  0
 35 49  1  0  0  0  0
 35 69  1  0  0  0  0
 35 73  2  0  0  0  0
 36 59  1  0  0  0  0
 36 64  1  0  0  0  0
 36 74  2  0  0  0  0
 37 60  1  0  0  0  0
 37 70  1  0  0  0  0
 37 75  2  0  0  0  0
 38 65  1  0  0  0  0
 38 68  1  0  0  0  0
 38 76  2  0  0  0  0
 39 42  1  0  0  0  0
 40 49  1  0  0  0  0
 41 64  1  0  0  0  0
 42 44  1  0  0  0  0
 43 45  1  0  0  0  0
 43 46  1  0  0  0  0
 44 48  1  0  0  0  0
 45 50  1  0  0  0  0
 46 65  1  0  0  0  0
 47 50  1  0  0  0  0
 47 65  1  0  0  0  0
 48 69  1  0  0  0  0
 49 64  1  0  0  0  0
 50 63  1  0  0  0  0
 51 60  1  0  0  0  0
 52 61  1  0  0  0  0
 53 61  1  0  0  0  0
 54 61  1  0  0  0  0
 55 71  1  0  0  0  0
 56 57  1  0  0  0  0
 56 58  1  0  0  0  0
 57 78  1  0  0  0  0
 58 79  1  0  0  0  0
 59 61  1  0  0  0  0
 59 70  1  0  0  0  0
 60 71  1  0  0  0  0
 62 63  1  0  0  0  0
M  CHG  1  71   1
M  ISO  4  38 100  57 101  68 100  78 101
M  END
> <Batch ID>
0011

> <Smiles>
CNC(C)C(=O)NC(C(=O)N1Cc2cc([101O:1][101CH2:1]CCOc3ccc([100NH:0][100C:0](=O)N4CCCC(n5nc(-c6ccc(Oc7ccc(F)cc7F)cc6)c(C(N)=O)c5N)C4)c(F)c3)ccc2CC1C(=O)NC1CCCc2ccccc21)C(C)(C)C

> <Shape>
0.303

> <Color>
0.145

> <Negative vol penalty>
0.000

$$$$

  -OEChem-04042320433D

 75 82  0     1  0  0  0  0  0999 V2000
  -32.6757  -26.9307   24.1935 C   0  0  0  0  0  0  0  0  0  0  0  0
  -33.2702  -25.6961   23.9527 C   0  0  0  0  0  0  0  0  0  0  0  0
  -23.1714   -9.8811   19.9137 C   0  0  0  0  0  0  0  0  0  0  0  0
  -23.5557  -10.0089   22.2955 C   0  0  0  0  0  0  0  0  0  0  0  0
  -31.2939  -27.0727   24.0744 C   0  0  0  0  0  0  0  0  0  0  0  0
  -32.4830  -24.6026   23.5938 C   0  0  0  0  0  0  0  0  0  0  0  0
  -34.0021  -20.0717   19.7637 C   0  0  0  0  0  0  0  0  0  0  0  0
  -22.3855   -8.7442   20.1014 C   0  0  0  0  0  0  0  0  0  0  0  0
  -22.7697   -8.8720   22.4833 C   0  0  0  0  0  0  0  0  0  0  0  0
  -34.4800  -18.7802   19.9813 C   0  0  0  0  0  0  0  0  0  0  0  0
  -21.1601   -5.7946   23.5550 C   0  0  0  0  0  0  0  0  0  0  0  0
  -21.6407   -4.8094   24.4175 C   0  0  0  0  0  0  0  0  0  0  0  0
  -32.2307  -17.9255   19.8106 C   0  0  0  0  0  0  0  0  0  0  0  0
  -23.5927   -4.5381   23.0199 C   0  0  0  0  0  0  0  0  0  0  0  0
  -23.7566  -10.5135   21.0107 C   0  0  0  0  0  0  0  0  0  0  0  0
  -24.1389  -13.0281   20.8149 C   0  0  0  0  0  0  0  0  0  0  0  0
  -30.4903  -25.9827   23.7044 C   0  0  0  0  0  0  0  0  0  0  0  0
  -32.6312  -20.3016   19.5785 C   0  0  0  0  0  0  0  0  0  0  0  0
  -31.0889  -24.7299   23.4710 C   0  0  0  0  0  0  0  0  0  0  0  0
  -31.7382  -19.2206   19.5883 C   0  0  0  0  0  0  0  0  0  0  0  0
  -22.1846   -8.2396   21.3862 C   0  0  0  0  0  0  0  0  0  0  0  0
  -33.5940  -17.7072   20.0076 C   0  0  0  0  0  0  0  0  0  0  0  0
  -21.8957   -6.1515   22.4248 C   0  0  0  0  0  0  0  0  0  0  0  0
  -22.8571   -4.1812   24.1500 C   0  0  0  0  0  0  0  0  0  0  0  0
  -23.1120   -5.5233   22.1573 C   0  0  0  0  0  0  0  0  0  0  0  0
  -24.5690  -11.6876   20.8173 C   0  0  0  0  0  0  0  0  0  0  0  0
  -25.2825  -13.7553   20.5922 C   0  0  0  0  0  0  0  0  0  0  0  0
  -22.8231  -13.5676   20.9979 C   0  0  0  0  0  0  0  0  0  0  0  0
  -30.4033  -21.9519   21.1331 C   0  0  0  0  0  0  0  0  0  0  0  0
  -28.5643  -21.1105   18.5969 C   0  0  0  0  0  0  0  0  0  0  0  0
  -27.9950  -18.9426   16.0234 C   0  0  0  0  0  0  0  0  0  0  0  0
  -30.8946  -12.8120   21.6977 C   0  0  0  0  0  0  0  0  0  0  0  0
  -28.9959  -26.1732   23.6345 C   0  0  0  0  0  0  0  0  0  0  0  0
  -32.1347  -21.6974   19.3183 C   0  0  0  0  0  0  0  0  0  0  0  0
  -30.2595  -19.4115   19.3746 C   0  0  0  0  0  0  0  0  0  0  0  0
  -28.2739  -25.0566   22.8848 C   0  0  0  0  0  0  0  0  0  0  0  0
  -29.5634  -13.4701   18.4935 C   0  0  0  0  0  0  0  0  0  0  0  0
  -28.7751  -23.6921   23.3473 C   0  0  0  0  0  0  0  0  0  0  0  0
  -28.0758  -13.2078   18.7242 C   0  0  0  0  0  0  0  0  0  0  0  0
  -30.4457  -12.4569   19.2251 C   0  0  0  0  0  0  0  0  0  0  0  0
  -28.6659  -12.0818   20.9026 C   0  0  0  0  0  0  0  0  0  0  0  0
  -30.2714  -23.5261   23.0554 C   0  0  1  0  0  0  0  0  0  0  0  0
  -30.6576  -21.8785   19.6540 C   0  0  1  0  0  0  0  0  0  0  0  0
  -27.7589  -13.1219   20.2273 C   0  0  2  0  0  0  0  0  0  0  0  0
  -26.3932  -18.4922   14.1448 C   0  0  0  0  0  0  0  0  0  0  0  0
  -26.5394  -20.0021   20.5923 C   0  0  0  0  0  0  0  0  0  0  0  0
  -25.4680  -18.7534   18.7052 C   0  0  0  0  0  0  0  0  0  0  0  0
  -25.5353  -21.2467   18.6695 C   0  0  0  0  0  0  0  0  0  0  0  0
  -32.9464  -11.7573   20.6572 C   0  0  0  0  0  0  0  0  0  0  0  0
  -30.1157  -19.2623   13.9840 C   0  0  0  0  0  0  0  0  0  0  0  0
  -34.0098  -14.5134   21.6426 C   0  0  0  0  0  0  0  0  0  0  0  0
  -33.1585  -13.4978   22.3926 C   0  0  0  0  0  0  0  0  0  0  0  0
  -33.1773  -15.5314   20.8726 C   0  0  0  0  0  0  0  0  0  1  0  0
  -27.6645  -19.9435   18.2691 C   0  0  1  0  0  0  0  0  0  0  0  0
  -27.6858  -19.1798   14.5562 C   0  0  2  0  0  0  0  0  0  0  0  0
  -26.3294  -19.9827   19.0650 C   0  0  0  0  0  0  0  0  0  0  0  0
  -25.8833  -11.5675   20.6121 N   0  0  0  0  0  0  0  0  0  0  0  0
  -26.2889  -12.8418   20.4787 N   0  0  0  0  0  0  0  0  0  0  0  0
  -29.8221  -20.7959   19.1303 N   0  0  0  0  0  0  0  0  0  0  0  0
  -30.0786  -12.3718   20.6452 N   0  0  0  0  0  0  0  0  0  0  0  0
  -25.5154  -15.0806   20.4843 N   0  0  0  0  0  0  0  0  0  0  0  0
  -21.7612  -12.6794   21.2161 N   0  0  0  0  0  0  0  0  0  0  0  0
  -30.4832  -23.2289   21.6549 N   0  0  0  0  0  0  0  0  0  0  0  0
  -27.4967  -19.9518   16.8199 N   0  0  0  0  0  0  0  0  0  0  0  0
  -32.2827  -12.7457   21.5051 N   0  0  0  0  0  0  0  0  0  0  0  0
  -28.7893  -18.6552   13.7029 N   0  3  0  0  0  0  0  0  0  0  0  0
  -22.5933  -14.7999   20.9523 O   0  0  0  0  0  0  0  0  0  0  0  0
  -30.1517  -20.9261   21.7545 O   0  0  0  0  0  0  0  0  0  0  0  0
  -28.1685  -22.2586   18.3806 O   0  0  0  0  0  0  0  0  0  0  0  0
  -28.6131  -17.9585   16.4232 O   0  0  0  0  0  0  0  0  0  0  0  0
  -30.4107  -13.2342   22.7559 O   0  0  0  0  0  0  0  0  0  0  0  0
  -21.4176   -7.1304   21.5699 O   0  0  0  0  0  0  0  0  0  0  0  0
  -34.0578  -16.4457   20.2205 O   0  0  0  0  0  0  0  0  0  1  0  0
  -23.3193   -3.2362   24.9792 F   0  0  0  0  0  0  0  0  0  0  0  0
  -23.8238   -5.8629   21.0738 F   0  0  0  0  0  0  0  0  0  0  0  0
  1  2  1  0  0  0  0
  1  5  2  0  0  0  0
  2  6  2  0  0  0  0
  3  8  2  0  0  0  0
  3 15  1  0  0  0  0
  4  9  1  0  0  0  0
  4 15  2  0  0  0  0
  5 17  1  0  0  0  0
  6 19  1  0  0  0  0
  7 10  2  0  0  0  0
  7 18  1  0  0  0  0
  8 21  1  0  0  0  0
  9 21  2  0  0  0  0
 10 22  1  0  0  0  0
 11 12  2  0  0  0  0
 11 23  1  0  0  0  0
 12 24  1  0  0  0  0
 13 20  1  0  0  0  0
 13 22  2  0  0  0  0
 14 24  2  0  0  0  0
 14 25  1  0  0  0  0
 15 26  1  0  0  0  0
 16 26  1  0  0  0  0
 16 27  2  0  0  0  0
 16 28  1  0  0  0  0
 17 19  2  0  0  0  0
 17 33  1  0  0  0  0
 18 20  2  0  0  0  0
 18 34  1  0  0  0  0
 19 42  1  0  0  0  0
 20 35  1  0  0  0  0
 21 72  1  0  0  0  0
 22 73  1  0  0  0  0
 23 25  2  0  0  0  0
 23 72  1  0  0  0  0
 24 74  1  0  0  0  0
 25 75  1  0  0  0  0
 26 57  2  0  0  0  0
 27 58  1  0  0  0  0
 27 61  1  0  0  0  0
 28 62  1  0  0  0  0
 28 67  2  0  0  0  0
 29 43  1  0  0  0  0
 29 63  1  0  0  0  0
 29 68  2  0  0  0  0
 30 54  1  0  0  0  0
 30 59  1  0  0  0  0
 30 69  2  0  0  0  0
 31 55  1  0  0  0  0
 31 64  1  0  0  0  0
 31 70  2  0  0  0  0
 32 60  1  0  0  0  0
 32 65  1  0  0  0  0
 32 71  2  0  0  0  0
 33 36  1  0  0  0  0
 34 43  1  0  0  0  0
 35 59  1  0  0  0  0
 36 38  1  0  0  0  0
 37 39  1  0  0  0  0
 37 40  1  0  0  0  0
 38 42  1  0  0  0  0
 39 44  1  0  0  0  0
 40 60  1  0  0  0  0
 41 44  1  0  0  0  0
 41 60  1  0  0  0  0
 42 63  1  0  0  0  0
 43 59  1  0  0  0  0
 44 58  1  0  0  0  0
 45 55  1  0  0  0  0
 46 56  1  0  0  0  0
 47 56  1  0  0  0  0
 48 56  1  0  0  0  0
 49 65  1  0  0  0  0
 50 66  1  0  0  0  0
 51 52  1  0  0  0  0
 51 53  1  0  0  0  0
 52 65  1  0  0  0  0
 53 73  1  0  0  0  0
 54 56  1  0  0  0  0
 54 64  1  0  0  0  0
 55 66  1  0  0  0  0
 57 58  1  0  0  0  0
M  CHG  1  66   1
M  ISO  4  32 100  53 101  65 100  73 101
M  END
> <Batch ID>
0011

> <Smiles>
CNC(C)C(=O)NC(C(=O)N1Cc2cc([101O:1][101CH2:1]CC[100N:0](C)[100C:0](=O)N3CCCC(n4nc(-c5ccc(Oc6ccc(F)cc6F)cc5)c(C(N)=O)c4N)C3)ccc2CC1C(=O)NC1CCCc2ccccc21)C(C)(C)C

> <Shape>
0.188

> <Color>
0.204

> <Negative vol penalty>
0.000

$$$$

  -OEChem-04042320433D

 81 89  0     1  0  0  0  0  0999 V2000
  -16.6897  -29.4611   23.1319 C   0  0  0  0  0  0  0  0  0  0  0  0
  -17.6537  -29.5874   22.1369 C   0  0  0  0  0  0  0  0  0  0  0  0
  -26.5850  -12.6865   21.9931 C   0  0  0  0  0  0  0  0  0  0  0  0
  -25.7693  -14.3575   20.4506 C   0  0  0  0  0  0  0  0  0  0  0  0
  -17.0736  -29.1677   24.4398 C   0  0  0  0  0  0  0  0  0  0  0  0
  -19.0025  -29.4214   22.4495 C   0  0  0  0  0  0  0  0  0  0  0  0
  -25.1332  -27.0212   19.6262 C   0  0  0  0  0  0  0  0  0  0  0  0
  -28.8220  -22.0323   20.5317 C   0  0  0  0  0  0  0  0  0  0  0  0
  -30.6671  -22.6487   21.9643 C   0  0  0  0  0  0  0  0  0  0  0  0
  -25.3403  -12.0575   21.9700 C   0  0  0  0  0  0  0  0  0  0  0  0
  -24.5245  -13.7284   20.4274 C   0  0  0  0  0  0  0  0  0  0  0  0
  -26.4510  -27.4234   19.4131 C   0  0  0  0  0  0  0  0  0  0  0  0
  -29.1192  -23.1028   19.6883 C   0  0  0  0  0  0  0  0  0  0  0  0
  -30.9644  -23.7192   21.1209 C   0  0  0  0  0  0  0  0  0  0  0  0
  -22.4870   -9.8060   22.0365 C   0  0  0  0  0  0  0  0  0  0  0  0
  -22.4646   -8.4169   21.9129 C   0  0  0  0  0  0  0  0  0  0  0  0
  -26.9909  -26.8404   21.6907 C   0  0  0  0  0  0  0  0  0  0  0  0
  -23.6152   -8.5868   19.7952 C   0  0  0  0  0  0  0  0  0  0  0  0
  -26.7995  -13.8366   21.2335 C   0  0  0  0  0  0  0  0  0  0  0  0
  -29.1797  -14.2381   20.4083 C   0  0  0  0  0  0  0  0  0  0  0  0
  -18.4270  -28.9886   24.7666 C   0  0  0  0  0  0  0  0  0  0  0  0
  -24.7311  -26.5350   20.8786 C   0  0  0  0  0  0  0  0  0  0  0  0
  -19.4050  -29.1267   23.7632 C   0  0  0  0  0  0  0  0  0  0  0  0
  -25.6680  -26.4303   21.9165 C   0  0  0  0  0  0  0  0  0  0  0  0
  -29.5959  -21.8053   21.6698 C   0  0  0  0  0  0  0  0  0  0  0  0
  -24.3101  -12.5784   21.1871 C   0  0  0  0  0  0  0  0  0  0  0  0
  -30.1904  -23.9462   19.9829 C   0  0  0  0  0  0  0  0  0  0  0  0
  -27.3794  -27.3357   20.4462 C   0  0  0  0  0  0  0  0  0  0  0  0
  -23.0734  -10.5856   21.0395 C   0  0  0  0  0  0  0  0  0  0  0  0
  -23.0288   -7.8072   20.7923 C   0  0  0  0  0  0  0  0  0  0  0  0
  -23.6375   -9.9760   19.9189 C   0  0  0  0  0  0  0  0  0  0  0  0
  -28.0849  -14.4872   21.2574 C   0  0  0  0  0  0  0  0  0  0  0  0
  -30.1515  -15.1091   20.8365 C   0  0  0  0  0  0  0  0  0  0  0  0
  -29.3069  -13.3031   19.3288 C   0  0  0  0  0  0  0  0  0  0  0  0
  -22.6340  -27.4660   23.0784 C   0  0  0  0  0  0  0  0  0  0  0  0
  -23.4563  -24.6625   24.4878 C   0  0  0  0  0  0  0  0  0  0  0  0
  -25.7688  -22.1825   24.8734 C   0  0  0  0  0  0  0  0  0  0  0  0
  -29.9615  -20.3528   23.6953 C   0  0  0  0  0  0  0  0  0  0  0  0
  -18.7973  -28.7192   26.2036 C   0  0  0  0  0  0  0  0  0  0  0  0
  -23.3122  -26.0803   21.0845 C   0  0  0  0  0  0  0  0  0  0  0  0
  -25.2918  -25.8963   23.2735 C   0  0  0  0  0  0  0  0  0  0  0  0
  -20.2180  -28.1885   26.3773 C   0  0  0  0  0  0  0  0  0  0  0  0
  -31.6554  -17.4075   24.7596 C   0  0  0  0  0  0  0  0  0  0  0  0
  -21.2010  -29.0149   25.5542 C   0  0  0  0  0  0  0  0  0  0  0  0
  -31.0359  -16.3026   23.9007 C   0  0  0  0  0  0  0  0  0  0  0  0
  -30.6229  -18.4591   25.1620 C   0  0  0  0  0  0  0  0  0  0  0  0
  -29.2429  -17.9355   23.1896 C   0  0  0  0  0  0  0  0  0  0  0  0
  -20.8762  -28.9294   24.0580 C   0  0  1  0  0  0  0  0  0  0  0  0
  -22.8907  -26.0828   22.5507 C   0  0  1  0  0  0  0  0  0  0  0  0
  -30.2581  -16.8873   22.7054 C   0  0  2  0  0  0  0  0  0  0  0  0
  -26.7383  -20.0040   25.6554 C   0  0  0  0  0  0  0  0  0  0  0  0
  -24.0606  -26.2563   27.0185 C   0  0  0  0  0  0  0  0  0  0  0  0
  -25.3278  -24.2761   27.8794 C   0  0  0  0  0  0  0  0  0  0  0  0
  -22.8855  -24.0837   27.4097 C   0  0  0  0  0  0  0  0  0  0  0  0
  -24.6824  -20.7270   22.5367 C   0  0  0  0  0  0  0  0  0  0  0  0
  -30.6908  -27.3904   18.9728 C   0  0  0  0  0  0  0  0  0  0  0  0
  -31.0716  -26.1434   19.7552 C   0  0  0  0  0  0  0  0  0  0  0  0
  -29.1843  -27.5901   18.9186 C   0  0  0  0  0  0  0  0  0  1  0  0
  -24.5109  -24.2332   25.4790 C   0  0  1  0  0  0  0  0  0  0  0  0
  -25.6386  -20.6703   24.8434 C   0  0  2  0  0  0  0  0  0  0  0  0
  -24.2031  -24.7242   26.9218 C   0  0  0  0  0  0  0  0  0  0  0  0
  -28.3369  -15.4416   22.1572 N   0  0  0  0  0  0  0  0  0  0  0  0
  -29.6013  -15.7998   21.8759 N   0  0  0  0  0  0  0  0  0  0  0  0
  -23.8910  -25.4702   23.4273 N   0  0  0  0  0  0  0  0  0  0  0  0
  -29.9288  -18.9709   23.9784 N   0  0  0  0  0  0  0  0  0  0  0  0
  -31.4146  -15.3439   20.4217 N   0  0  0  0  0  0  0  0  0  0  0  0
  -28.2117  -12.4841   19.0219 N   0  0  0  0  0  0  0  0  0  0  0  0
  -29.2941  -20.7179   22.5266 N   0  0  0  0  0  0  0  0  0  0  0  0
  -21.3380  -27.6713   23.5117 N   0  0  0  0  0  0  0  0  0  0  0  0
  -24.6244  -22.7842   25.3524 N   0  0  0  0  0  0  0  0  0  0  0  0
  -25.7210  -20.1710   23.4417 N   0  3  0  0  0  0  0  0  0  0  0  0
  -30.3659  -13.1856   18.6670 O   0  0  0  0  0  0  0  0  0  0  0  0
  -23.5446  -28.2859   23.0928 O   0  0  0  0  0  0  0  0  0  0  0  0
  -22.2912  -24.2890   24.6446 O   0  0  0  0  0  0  0  0  0  0  0  0
  -26.7855  -22.7708   24.5118 O   0  0  0  0  0  0  0  0  0  0  0  0
  -30.5621  -21.1498   24.4207 O   0  0  0  0  0  0  0  0  0  0  0  0
  -23.0954  -11.9646   21.1640 O   0  0  0  0  0  0  0  0  0  0  0  0
  -30.4825  -24.9982   19.1542 O   0  0  0  0  0  0  0  0  0  0  0  0
  -28.6662  -27.7281   20.2411 O   0  0  0  0  0  0  0  0  0  1  0  0
  -23.0086   -6.4731   20.6744 F   0  0  0  0  0  0  0  0  0  0  0  0
  -24.2034  -10.7197   18.9583 F   0  0  0  0  0  0  0  0  0  0  0  0
  1  2  1  0  0  0  0
  1  5  2  0  0  0  0
  2  6  2  0  0  0  0
  3 10  2  0  0  0  0
  3 19  1  0  0  0  0
  4 11  1  0  0  0  0
  4 19  2  0  0  0  0
  5 21  1  0  0  0  0
  6 23  1  0  0  0  0
  7 12  2  0  0  0  0
  7 22  1  0  0  0  0
  8 13  2  0  0  0  0
  8 25  1  0  0  0  0
  9 14  1  0  0  0  0
  9 25  2  0  0  0  0
 10 26  1  0  0  0  0
 11 26  2  0  0  0  0
 12 28  1  0  0  0  0
 13 27  1  0  0  0  0
 14 27  2  0  0  0  0
 15 16  2  0  0  0  0
 15 29  1  0  0  0  0
 16 30  1  0  0  0  0
 17 24  1  0  0  0  0
 17 28  2  0  0  0  0
 18 30  2  0  0  0  0
 18 31  1  0  0  0  0
 19 32  1  0  0  0  0
 20 32  1  0  0  0  0
 20 33  2  0  0  0  0
 20 34  1  0  0  0  0
 21 23  2  0  0  0  0
 21 39  1  0  0  0  0
 22 24  2  0  0  0  0
 22 40  1  0  0  0  0
 23 48  1  0  0  0  0
 24 41  1  0  0  0  0
 25 68  1  0  0  0  0
 26 77  1  0  0  0  0
 27 78  1  0  0  0  0
 28 79  1  0  0  0  0
 29 31  2  0  0  0  0
 29 77  1  0  0  0  0
 30 80  1  0  0  0  0
 31 81  1  0  0  0  0
 32 62  2  0  0  0  0
 33 63  1  0  0  0  0
 33 66  1  0  0  0  0
 34 67  1  0  0  0  0
 34 72  2  0  0  0  0
 35 49  1  0  0  0  0
 35 69  1  0  0  0  0
 35 73  2  0  0  0  0
 36 59  1  0  0  0  0
 36 64  1  0  0  0  0
 36 74  2  0  0  0  0
 37 60  1  0  0  0  0
 37 70  1  0  0  0  0
 37 75  2  0  0  0  0
 38 65  1  0  0  0  0
 38 68  1  0  0  0  0
 38 76  2  0  0  0  0
 39 42  1  0  0  0  0
 40 49  1  0  0  0  0
 41 64  1  0  0  0  0
 42 44  1  0  0  0  0
 43 45  1  0  0  0  0
 43 46  1  0  0  0  0
 44 48  1  0  0  0  0
 45 50  1  0  0  0  0
 46 65  1  0  0  0  0
 47 50  1  0  0  0  0
 47 65  1  0  0  0  0
 48 69  1  0  0  0  0
 49 64  1  0  0  0  0
 50 63  1  0  0  0  0
 51 60  1  0  0  0  0
 52 61  1  0  0  0  0
 53 61  1  0  0  0  0
 54 61  1  0  0  0  0
 55 71  1  0  0  0  0
 56 57  1  0  0  0  0
 56 58  1  0  0  0  0
 57 78  1  0  0  0  0
 58 79  1  0  0  0  0
 59 61  1  0  0  0  0
 59 70  1  0  0  0  0
 60 71  1  0  0  0  0
 62 63  1  0  0  0  0
M  CHG  1  71   1
M  ISO  4  38 100  58 101  68 100  79 101
M  END
> <Batch ID>
0011

> <Smiles>
CNC(C)C(=O)NC(C(=O)N1Cc2cc([101O:1][101CH2:1]CCOc3ccc([100NH:0][100C:0](=O)N4CCCC(n5nc(-c6ccc(Oc7ccc(F)cc7F)cc6)c(C(N)=O)c5N)C4)cc3)ccc2CC1C(=O)NC1CCCc2ccccc21)C(C)(C)C

> <Shape>
0.239

> <Color>
0.096

> <Negative vol penalty>
0.000

$$$$

  -OEChem-04042320433D

 82 90  0     1  0  0  0  0  0999 V2000
  -24.6122  -34.0114   28.0639 C   0  0  0  0  0  0  0  0  0  0  0  0
  -25.4919  -33.1965   27.3586 C   0  0  0  0  0  0  0  0  0  0  0  0
  -24.2567   -9.1059   21.4812 C   0  0  0  0  0  0  0  0  0  0  0  0
  -24.7683  -10.3935   23.4604 C   0  0  0  0  0  0  0  0  0  0  0  0
  -23.2367  -33.8149   27.9481 C   0  0  0  0  0  0  0  0  0  0  0  0
  -24.9966  -32.1839   26.5377 C   0  0  0  0  0  0  0  0  0  0  0  0
  -27.3828  -30.2386   21.2437 C   0  0  0  0  0  0  0  0  0  0  0  0
  -30.2159  -18.8786   20.0778 C   0  0  0  0  0  0  0  0  0  0  0  0
  -23.9218   -8.0121   22.2793 C   0  0  0  0  0  0  0  0  0  0  0  0
  -24.4333   -9.2997   24.2585 C   0  0  0  0  0  0  0  0  0  0  0  0
  -28.1972  -29.1529   20.9246 C   0  0  0  0  0  0  0  0  0  0  0  0
  -30.3965  -20.2134   20.4399 C   0  0  0  0  0  0  0  0  0  0  0  0
  -21.2944   -7.0103   24.1570 C   0  0  0  0  0  0  0  0  0  0  0  0
  -20.1253   -6.3155   23.8470 C   0  0  0  0  0  0  0  0  0  0  0  0
  -26.2451  -27.8791   20.3032 C   0  0  0  0  0  0  0  0  0  0  0  0
  -28.0127  -20.4509   20.7535 C   0  0  0  0  0  0  0  0  0  0  0  0
  -21.4143   -4.3017   23.4998 C   0  0  0  0  0  0  0  0  0  0  0  0
  -24.6800  -10.2966   22.0717 C   0  0  0  0  0  0  0  0  0  0  0  0
  -24.1683  -12.4504   20.8040 C   0  0  0  0  0  0  0  0  0  0  0  0
  -22.7241  -32.8057   27.1179 C   0  0  0  0  0  0  0  0  0  0  0  0
  -25.9903  -30.1489   21.1050 C   0  0  0  0  0  0  0  0  0  0  0  0
  -23.6130  -31.9729   26.4117 C   0  0  0  0  0  0  0  0  0  0  0  0
  -25.4155  -28.9660   20.6188 C   0  0  0  0  0  0  0  0  0  0  0  0
  -28.9336  -18.3299   20.0534 C   0  0  0  0  0  0  0  0  0  0  0  0
  -24.0101   -8.1090   23.6679 C   0  0  0  0  0  0  0  0  0  0  0  0
  -27.6281  -27.9719   20.4571 C   0  0  0  0  0  0  0  0  0  0  0  0
  -29.2950  -20.9996   20.7778 C   0  0  0  0  0  0  0  0  0  0  0  0
  -22.5234   -6.3509   24.1383 C   0  0  0  0  0  0  0  0  0  0  0  0
  -20.1853   -4.9612   23.5185 C   0  0  0  0  0  0  0  0  0  0  0  0
  -27.8321  -19.1160   20.3913 C   0  0  0  0  0  0  0  0  0  0  0  0
  -22.5834   -4.9966   23.8098 C   0  0  0  0  0  0  0  0  0  0  0  0
  -25.0267  -11.4267   21.2478 C   0  0  0  0  0  0  0  0  0  0  0  0
  -24.9747  -13.2760   20.0594 C   0  0  0  0  0  0  0  0  0  0  0  0
  -22.7672  -12.6382   21.0434 C   0  0  0  0  0  0  0  0  0  0  0  0
  -23.5206  -30.3437   23.0966 C   0  0  0  0  0  0  0  0  0  0  0  0
  -21.7957  -30.1726   20.3547 C   0  0  0  0  0  0  0  0  0  0  0  0
  -21.6387  -29.2028   17.0865 C   0  0  0  0  0  0  0  0  0  0  0  0
  -29.7411  -16.0584   19.3221 C   0  0  0  0  0  0  0  0  0  0  0  0
  -21.2309  -32.6009   27.0614 C   0  0  0  0  0  0  0  0  0  0  0  0
  -25.1278  -31.3381   21.4281 C   0  0  0  0  0  0  0  0  0  0  0  0
  -23.9275  -28.8254   20.4328 C   0  0  0  0  0  0  0  0  0  0  0  0
  -20.7774  -31.7478   25.8795 C   0  0  0  0  0  0  0  0  0  0  0  0
  -29.7068  -12.6236   18.3850 C   0  0  0  0  0  0  0  0  0  0  0  0
  -21.6503  -30.5032   25.7534 C   0  0  0  0  0  0  0  0  0  0  0  0
  -28.4155  -12.0902   19.0097 C   0  0  0  0  0  0  0  0  0  0  0  0
  -30.3849  -13.6587   19.2809 C   0  0  0  0  0  0  0  0  0  0  0  0
  -28.2331  -14.2360   20.3323 C   0  0  0  0  0  0  0  0  0  0  0  0
  -23.1136  -30.8799   25.4919 C   0  0  1  0  0  0  0  0  0  0  0  0
  -23.6820  -30.9615   21.7365 C   0  0  1  0  0  0  0  0  0  0  0  0
  -27.4802  -13.2383   19.4372 C   0  0  2  0  0  0  0  0  0  0  0  0
  -20.0851  -29.1624   15.1161 C   0  0  0  0  0  0  0  0  0  0  0  0
  -20.2767  -27.8395   21.6034 C   0  0  0  0  0  0  0  0  0  0  0  0
  -19.4426  -27.2500   19.3175 C   0  0  0  0  0  0  0  0  0  0  0  0
  -18.8500  -29.4513   20.3303 C   0  0  0  0  0  0  0  0  0  0  0  0
  -23.4541  -30.8939   15.4731 C   0  0  0  0  0  0  0  0  0  0  0  0
  -28.9589  -24.6088   20.6297 C   0  0  0  0  0  0  0  0  0  0  0  0
  -27.8587  -25.6093   20.3123 C   0  0  0  0  0  0  0  0  0  1  0  0
  -28.4097  -23.2060   20.8371 C   0  0  0  0  0  0  0  0  0  0  0  0
  -21.2136  -29.0531   19.5260 C   0  0  1  0  0  0  0  0  0  0  0  0
  -21.1770  -29.9352   15.8395 C   0  0  2  0  0  0  0  0  0  0  0  0
  -19.9736  -28.4001   20.1995 C   0  0  0  0  0  0  0  0  0  0  0  0
  -26.2823  -11.5853   20.8207 N   0  0  0  0  0  0  0  0  0  0  0  0
  -26.2187  -12.7183   20.1006 N   0  0  0  0  0  0  0  0  0  0  0  0
  -23.1260  -30.0139   20.7684 N   0  0  0  0  0  0  0  0  0  0  0  0
  -29.4398  -14.7176   19.6419 N   0  0  0  0  0  0  0  0  0  0  0  0
  -24.7340  -14.4175   19.3799 N   0  0  0  0  0  0  0  0  0  0  0  0
  -22.0916  -11.6955   21.8304 N   0  0  0  0  0  0  0  0  0  0  0  0
  -28.7535  -16.9736   19.6850 N   0  0  0  0  0  0  0  0  0  0  0  0
  -23.2983  -31.2591   24.1075 N   0  0  0  0  0  0  0  0  0  0  0  0
  -20.9493  -29.6168   18.2066 N   0  0  0  0  0  0  0  0  0  0  0  0
  -22.3176  -30.1280   14.8999 N   0  3  0  0  0  0  0  0  0  0  0  0
  -22.1296  -13.6042   20.5598 O   0  0  0  0  0  0  0  0  0  0  0  0
  -23.5911  -29.1265   23.2195 O   0  0  0  0  0  0  0  0  0  0  0  0
  -21.0982  -31.1551   20.6191 O   0  0  0  0  0  0  0  0  0  0  0  0
  -22.5198  -28.3462   17.0680 O   0  0  0  0  0  0  0  0  0  0  0  0
  -30.7851  -16.3685   18.7427 O   0  0  0  0  0  0  0  0  0  0  0  0
  -23.6831   -7.0420   24.4471 O   0  0  0  0  0  0  0  0  0  0  0  0
  -28.4206  -26.9104   20.1455 O   0  0  0  0  0  0  0  0  0  1  0  0
  -29.4727  -22.3109   21.1348 O   0  0  0  0  0  0  0  0  0  0  0  0
  -19.0624   -4.2937   23.2223 F   0  0  0  0  0  0  0  0  0  0  0  0
  -26.5952  -18.5992   20.3709 F   0  0  0  0  0  0  0  0  0  0  0  0
  -23.7611   -4.3575   23.7913 F   0  0  0  0  0  0  0  0  0  0  0  0
  1  2  1  0  0  0  0
  1  5  2  0  0  0  0
  2  6  2  0  0  0  0
  3  9  2  0  0  0  0
  3 18  1  0  0  0  0
  4 10  1  0  0  0  0
  4 18  2  0  0  0  0
  5 20  1  0  0  0  0
  6 22  1  0  0  0  0
  7 11  2  0  0  0  0
  7 21  1  0  0  0  0
  8 12  2  0  0  0  0
  8 24  1  0  0  0  0
  9 25  1  0  0  0  0
 10 25  2  0  0  0  0
 11 26  1  0  0  0  0
 12 27  1  0  0  0  0
 13 14  2  0  0  0  0
 13 28  1  0  0  0  0
 14 29  1  0  0  0  0
 15 23  1  0  0  0  0
 15 26  2  0  0  0  0
 16 27  2  0  0  0  0
 16 30  1  0  0  0  0
 17 29  2  0  0  0  0
 17 31  1  0  0  0  0
 18 32  1  0  0  0  0
 19 32  1  0  0  0  0
 19 33  2  0  0  0  0
 19 34  1  0  0  0  0
 20 22  2  0  0  0  0
 20 39  1  0  0  0  0
 21 23  2  0  0  0  0
 21 40  1  0  0  0  0
 22 48  1  0  0  0  0
 23 41  1  0  0  0  0
 24 30  2  0  0  0  0
 24 68  1  0  0  0  0
 25 77  1  0  0  0  0
 26 78  1  0  0  0  0
 27 79  1  0  0  0  0
 28 31  2  0  0  0  0
 28 77  1  0  0  0  0
 29 80  1  0  0  0  0
 30 81  1  0  0  0  0
 31 82  1  0  0  0  0
 32 62  2  0  0  0  0
 33 63  1  0  0  0  0
 33 66  1  0  0  0  0
 34 67  1  0  0  0  0
 34 72  2  0  0  0  0
 35 49  1  0  0  0  0
 35 69  1  0  0  0  0
 35 73  2  0  0  0  0
 36 59  1  0  0  0  0
 36 64  1  0  0  0  0
 36 74  2  0  0  0  0
 37 60  1  0  0  0  0
 37 70  1  0  0  0  0
 37 75  2  0  0  0  0
 38 65  1  0  0  0  0
 38 68  1  0  0  0  0
 38 76  2  0  0  0  0
 39 42  1  0  0  0  0
 40 49  1  0  0  0  0
 41 64  1  0  0  0  0
 42 44  1  0  0  0  0
 43 45  1  0  0  0  0
 43 46  1  0  0  0  0
 44 48  1  0  0  0  0
 45 50  1  0  0  0  0
 46 65  1  0  0  0  0
 47 50  1  0  0  0  0
 47 65  1  0  0  0  0
 48 69  1  0  0  0  0
 49 64  1  0  0  0  0
 50 63  1  0  0  0  0
 51 60  1  0  0  0  0
 52 61  1  0  0  0  0
 53 61  1  0  0  0  0
 54 61  1  0  0  0  0
 55 71  1  0  0  0  0
 56 57  1  0  0  0  0
 56 58  1  0  0  0  0
 57 78  1  0  0  0  0
 58 79  1  0  0  0  0
 59 61  1  0  0  0  0
 59 70  1  0  0  0  0
 60 71  1  0  0  0  0
 62 63  1  0  0  0  0
M  CHG  1  71   1
M  ISO  4  38 100  57 101  68 100  78 101
M  END
> <Batch ID>
0011

> <Smiles>
CNC(C)C(=O)NC(C(=O)N1Cc2cc([101O:1][101CH2:1]CCOc3ccc([100NH:0][100C:0](=O)N4CCCC(n5nc(-c6ccc(Oc7ccc(F)cc7F)cc6)c(C(N)=O)c5N)C4)c(F)c3)ccc2CC1C(=O)NC1CCCc2ccccc21)C(C)(C)C

> <Shape>
0.303

> <Color>
0.145

> <Negative vol penalty>
0.000

$$$$

  -OEChem-04042320433D

 87 96  0     1  0  0  0  0  0999 V2000
  -30.2870  -19.2544   20.7003 C   0  0  0  0  0  0  0  0  0  0  0  0
  -30.2536  -18.0622   20.8408 C   0  0  0  0  0  0  0  0  0  0  0  0
  -27.2294  -31.4626   23.6895 C   0  0  0  0  0  0  0  0  0  0  0  0
  -27.7000  -30.1546   23.6345 C   0  0  0  0  0  0  0  0  0  0  0  0
  -20.2738  -16.5613   19.7965 C   0  0  0  0  0  0  0  0  0  0  0  0
  -19.4643  -15.3898   21.7483 C   0  0  0  0  0  0  0  0  0  0  0  0
  -26.1818  -31.8607   22.8600 C   0  0  0  0  0  0  0  0  0  0  0  0
  -27.1226  -29.2436   22.7507 C   0  0  0  0  0  0  0  0  0  0  0  0
  -29.9590  -24.7186   19.7531 C   0  0  0  0  0  0  0  0  0  0  0  0
  -18.9963  -17.0760   19.5756 C   0  0  0  0  0  0  0  0  0  0  0  0
  -18.1869  -15.9045   21.5274 C   0  0  0  0  0  0  0  0  0  0  0  0
  -30.0703  -23.3519   20.0052 C   0  0  0  0  0  0  0  0  0  0  0  0
  -17.0611  -19.5557   20.8160 C   0  0  0  0  0  0  0  0  0  0  0  0
  -16.9531  -20.9113   20.5057 C   0  0  0  0  0  0  0  0  0  0  0  0
  -28.2191  -22.9327   18.5163 C   0  0  0  0  0  0  0  0  0  0  0  0
  -15.9209  -20.3461   18.3957 C   0  0  0  0  0  0  0  0  0  0  0  0
  -20.5078  -15.7182   20.8828 C   0  0  0  0  0  0  0  0  0  0  0  0
  -22.8542  -15.7613   21.8829 C   0  0  0  0  0  0  0  0  0  0  0  0
  -25.5977  -30.9568   21.9588 C   0  0  0  0  0  0  0  0  0  0  0  0
  -28.9682  -25.2044   18.8877 C   0  0  0  0  0  0  0  0  0  0  0  0
  -26.0653  -29.6297   21.9093 C   0  0  0  0  0  0  0  0  0  0  0  0
  -28.0990  -24.3057   18.2530 C   0  0  0  0  0  0  0  0  0  0  0  0
  -17.9529  -16.7476   20.4411 C   0  0  0  0  0  0  0  0  0  0  0  0
  -29.1984  -22.4590   19.3890 C   0  0  0  0  0  0  0  0  0  0  0  0
  -16.5990  -18.5953   19.9161 C   0  0  0  0  0  0  0  0  0  0  0  0
  -16.3830  -21.3065   19.2955 C   0  0  0  0  0  0  0  0  0  0  0  0
  -16.0289  -18.9905   18.7060 C   0  0  0  0  0  0  0  0  0  0  0  0
  -21.8271  -15.1857   21.1112 C   0  0  0  0  0  0  0  0  0  0  0  0
  -23.8972  -14.8732   21.7834 C   0  0  0  0  0  0  0  0  0  0  0  0
  -22.8646  -16.9889   22.6235 C   0  0  0  0  0  0  0  0  0  0  0  0
  -26.4742  -27.1502   19.2005 C   0  0  0  0  0  0  0  0  0  0  0  0
  -26.2869  -26.7930   15.9818 C   0  0  0  0  0  0  0  0  0  0  0  0
  -26.9978  -24.9036   13.2302 C   0  0  0  0  0  0  0  0  0  0  0  0
  -27.0484  -11.6896   18.3247 C   0  0  0  0  0  0  0  0  0  0  0  0
  -24.4362  -31.4205   21.1158 C   0  0  0  0  0  0  0  0  0  0  0  0
  -28.8784  -26.6791   18.6056 C   0  0  0  0  0  0  0  0  0  0  0  0
  -27.0312  -24.7745   17.2998 C   0  0  0  0  0  0  0  0  0  0  0  0
  -24.1285  -30.4954   19.9411 C   0  0  0  0  0  0  0  0  0  0  0  0
  -24.0930  -10.1778   19.9322 C   0  0  0  0  0  0  0  0  0  0  0  0
  -24.1126  -29.0401   20.3977 C   0  0  0  0  0  0  0  0  0  0  0  0
  -23.2941  -11.3994   20.3853 C   0  0  0  0  0  0  0  0  0  0  0  0
  -29.2403  -11.7736   20.8688 C   0  0  0  0  0  0  0  0  0  0  0  0
  -30.1239  -11.6346   19.6113 C   0  0  0  0  0  0  0  0  0  0  0  0
  -28.4392  -14.1715   20.6541 C   0  0  0  0  0  0  0  0  0  0  0  0
  -24.9310  -10.4743   18.6914 C   0  0  0  0  0  0  0  0  0  0  0  0
  -25.0245  -12.8686   19.2833 C   0  0  0  0  0  0  0  0  0  0  0  0
  -25.4813  -28.6190   20.9462 C   0  0  1  0  0  0  0  0  0  0  0  0
  -27.5027  -27.1092   18.1058 C   0  0  1  0  0  0  0  0  0  0  0  0
  -24.2137  -12.6202   20.5632 C   0  0  1  0  0  0  0  0  0  0  0  0
  -28.0800  -12.6890   20.4379 C   0  0  1  0  0  0  0  0  0  0  0  0
  -29.4058  -12.4694   18.5370 C   0  0  2  0  0  0  0  0  0  0  0  0
  -29.7396  -14.5761   19.9388 C   0  0  1  0  0  0  0  0  0  0  0  0
  -29.8510  -13.9432   18.5410 C   0  0  1  0  0  0  0  0  0  0  0  0
  -26.6840  -24.8526   10.7410 C   0  0  0  0  0  0  0  0  0  0  0  0
  -31.2142  -15.6077   16.2919 C   0  0  0  0  0  0  0  0  0  0  0  0
  -32.5398  -13.4672   16.1786 C   0  0  0  0  0  0  0  0  0  0  0  0
  -23.3742  -25.9702   16.3683 C   0  0  0  0  0  0  0  0  0  0  0  0
  -23.4017  -25.0389   14.0445 C   0  0  0  0  0  0  0  0  0  0  0  0
  -23.7822  -27.4764   14.4140 C   0  0  0  0  0  0  0  0  0  0  0  0
  -29.9171  -24.9370   12.7450 C   0  0  0  0  0  0  0  0  0  0  0  0
  -30.3296  -20.7063   20.5311 C   0  0  0  0  0  0  0  0  0  1  0  0
  -30.2131  -16.6108   21.0150 C   0  0  0  0  0  0  0  0  0  0  0  0
  -25.5908  -25.8289   15.0519 C   0  0  1  0  0  0  0  0  0  0  0  0
  -27.5962  -25.2699   11.8840 C   0  0  2  0  0  0  0  0  0  0  0  0
  -31.2683  -14.1371   16.6768 C   0  0  0  0  0  0  0  0  0  0  0  0
  -24.0560  -26.0696   14.9891 C   0  0  0  0  0  0  0  0  0  0  0  0
  -22.1851  -14.0221   20.5619 N   0  0  0  0  0  0  0  0  0  0  0  0
  -23.4489  -13.8593   20.9888 N   0  0  0  0  0  0  0  0  0  0  0  0
  -26.9794  -26.2264   17.0612 N   0  0  0  0  0  0  0  0  0  0  0  0
  -25.7607  -11.6657   18.8784 N   0  0  0  0  0  0  0  0  0  0  0  0
  -28.0239  -12.4252   18.9987 N   0  0  0  0  0  0  0  0  0  0  0  0
  -25.1449  -14.8684   22.2988 N   0  0  0  0  0  0  0  0  0  0  0  0
  -21.7088  -17.7817   22.6190 N   0  0  0  0  0  0  0  0  0  0  0  0
  -26.4035  -28.3619   19.8608 N   0  0  0  0  0  0  0  0  0  0  0  0
  -26.2668  -25.9437   13.7642 N   0  0  0  0  0  0  0  0  0  0  0  0
  -28.9140  -24.5980   11.7029 N   0  3  0  0  0  0  0  0  0  0  0  0
  -23.8746  -17.3796   23.2566 O   0  0  0  0  0  0  0  0  0  0  0  0
  -25.7942  -26.1565   19.4281 O   0  0  0  0  0  0  0  0  0  0  0  0
  -26.2246  -28.0039   15.7547 O   0  0  0  0  0  0  0  0  0  0  0  0
  -27.1594  -23.8035   13.7539 O   0  0  0  0  0  0  0  0  0  0  0  0
  -27.3157  -11.0635   17.2909 O   0  0  0  0  0  0  0  0  0  0  0  0
  -16.7063  -17.2499   20.2260 O   0  0  0  0  0  0  0  0  0  0  0  0
  -29.3053  -21.1146   19.6356 O   0  0  0  0  0  0  0  0  0  1  0  0
  -29.7915  -15.9951   19.8076 O   0  0  0  0  0  0  0  0  0  0  0  0
  -31.2018  -14.0213   18.0897 O   0  0  0  0  0  0  0  0  0  0  0  0
  -16.2779  -22.6084   18.9984 F   0  0  0  0  0  0  0  0  0  0  0  0
  -15.5822  -18.0724   17.8380 F   0  0  0  0  0  0  0  0  0  0  0  0
  1  2  3  0  0  0  0
  1 61  1  0  0  0  0
  2 62  1  0  0  0  0
  3  4  1  0  0  0  0
  3  7  2  0  0  0  0
  4  8  2  0  0  0  0
  5 10  2  0  0  0  0
  5 17  1  0  0  0  0
  6 11  1  0  0  0  0
  6 17  2  0  0  0  0
  7 19  1  0  0  0  0
  8 21  1  0  0  0  0
  9 12  2  0  0  0  0
  9 20  1  0  0  0  0
 10 23  1  0  0  0  0
 11 23  2  0  0  0  0
 12 24  1  0  0  0  0
 13 14  2  0  0  0  0
 13 25  1  0  0  0  0
 14 26  1  0  0  0  0
 15 22  1  0  0  0  0
 15 24  2  0  0  0  0
 16 26  2  0  0  0  0
 16 27  1  0  0  0  0
 17 28  1  0  0  0  0
 18 28  1  0  0  0  0
 18 29  2  0  0  0  0
 18 30  1  0  0  0  0
 19 21  2  0  0  0  0
 19 35  1  0  0  0  0
 20 22  2  0  0  0  0
 20 36  1  0  0  0  0
 21 47  1  0  0  0  0
 22 37  1  0  0  0  0
 23 82  1  0  0  0  0
 24 83  1  0  0  0  0
 25 27  2  0  0  0  0
 25 82  1  0  0  0  0
 26 86  1  0  0  0  0
 27 87  1  0  0  0  0
 28 67  2  0  0  0  0
 29 68  1  0  0  0  0
 29 72  1  0  0  0  0
 30 73  1  0  0  0  0
 30 77  2  0  0  0  0
 31 48  1  0  0  0  0
 31 74  1  0  0  0  0
 31 78  2  0  0  0  0
 32 63  1  0  0  0  0
 32 69  1  0  0  0  0
 32 79  2  0  0  0  0
 33 64  1  0  0  0  0
 33 75  1  0  0  0  0
 33 80  2  0  0  0  0
 34 70  1  0  0  0  0
 34 71  1  0  0  0  0
 34 81  2  0  0  0  0
 35 38  1  0  0  0  0
 36 48  1  0  0  0  0
 37 69  1  0  0  0  0
 38 40  1  0  0  0  0
 39 41  1  0  0  0  0
 39 45  1  0  0  0  0
 40 47  1  0  0  0  0
 41 49  1  0  0  0  0
 42 43  1  0  0  0  0
 42 50  1  0  0  0  0
 43 51  1  0  0  0  0
 44 50  1  0  0  0  0
 44 52  1  0  0  0  0
 45 70  1  0  0  0  0
 46 49  1  0  0  0  0
 46 70  1  0  0  0  0
 47 74  1  0  0  0  0
 48 69  1  0  0  0  0
 49 68  1  0  0  0  0
 50 71  1  0  0  0  0
 51 53  1  0  0  0  0
 51 71  1  0  0  0  0
 52 53  1  0  0  0  0
 52 84  1  0  0  0  0
 53 85  1  0  0  0  0
 54 64  1  0  0  0  0
 55 65  1  0  0  0  0
 56 65  1  0  0  0  0
 57 66  1  0  0  0  0
 58 66  1  0  0  0  0
 59 66  1  0  0  0  0
 60 76  1  0  0  0  0
 61 83  1  0  0  0  0
 62 84  1  0  0  0  0
 63 66  1  0  0  0  0
 63 75  1  0  0  0  0
 64 76  1  0  0  0  0
 65 85  1  0  0  0  0
 67 68  1  0  0  0  0
M  CHG  1  76   1
M  ISO  4  34 100  61 101  71 100  83 101
M  END
> <Batch ID>
0011

> <Smiles>
CNC(C)C(=O)NC(C(=O)N1Cc2cc([101O:1][101CH2:1]C#CCOC3CC4CCC(C3OC(C)C)[100N:0]4[100C:0](=O)N3CCCC(n4nc(-c5ccc(Oc6ccc(F)cc6F)cc5)c(C(N)=O)c4N)C3)ccc2CC1C(=O)NC1CCCc2ccccc21)C(C)(C)C

> <Shape>
0.215

> <Color>
0.082

> <Negative vol penalty>
0.000

$$$$

  -OEChem-04042320433D

 83 92  0     1  0  0  0  0  0999 V2000
  -26.5894  -37.1224   25.0791 C   0  0  0  0  0  0  0  0  0  0  0  0
  -27.5370  -36.2130   24.6206 C   0  0  0  0  0  0  0  0  0  0  0  0
  -22.7971  -10.2862   20.2388 C   0  0  0  0  0  0  0  0  0  0  0  0
  -24.5634   -9.2301   21.5043 C   0  0  0  0  0  0  0  0  0  0  0  0
  -25.4234  -36.6637   25.6906 C   0  0  0  0  0  0  0  0  0  0  0  0
  -27.3197  -34.8442   24.7742 C   0  0  0  0  0  0  0  0  0  0  0  0
  -27.2062  -29.1650   19.4113 C   0  0  0  0  0  0  0  0  0  0  0  0
  -25.7538  -19.6294   19.0661 C   0  0  0  0  0  0  0  0  0  0  0  0
  -28.0683  -20.2157   19.4351 C   0  0  0  0  0  0  0  0  0  0  0  0
  -26.0604  -18.2854   19.2783 C   0  0  0  0  0  0  0  0  0  0  0  0
  -28.3749  -18.8716   19.6473 C   0  0  0  0  0  0  0  0  0  0  0  0
  -21.8498   -9.7389   21.1040 C   0  0  0  0  0  0  0  0  0  0  0  0
  -23.6162   -8.6828   22.3697 C   0  0  0  0  0  0  0  0  0  0  0  0
  -27.0052  -28.0981   18.5353 C   0  0  0  0  0  0  0  0  0  0  0  0
  -21.4503   -6.0866   22.3724 C   0  0  0  0  0  0  0  0  0  0  0  0
  -21.5905   -4.7433   22.7207 C   0  0  0  0  0  0  0  0  0  0  0  0
  -25.5498  -27.0346   20.1475 C   0  0  0  0  0  0  0  0  0  0  0  0
  -21.7805   -5.3664   25.0473 C   0  0  0  0  0  0  0  0  0  0  0  0
  -24.1539  -10.0318   20.4389 C   0  0  0  0  0  0  0  0  0  0  0  0
  -25.2365  -10.3882   18.1567 C   0  0  0  0  0  0  0  0  0  0  0  0
  -25.1871  -35.2884   25.8431 C   0  0  0  0  0  0  0  0  0  0  0  0
  -26.5668  -29.1782   20.6540 C   0  0  0  0  0  0  0  0  0  0  0  0
  -26.1500  -34.3667   25.3895 C   0  0  0  0  0  0  0  0  0  0  0  0
  -25.7375  -28.1066   21.0240 C   0  0  0  0  0  0  0  0  0  0  0  0
  -26.7578  -20.5946   19.1445 C   0  0  0  0  0  0  0  0  0  0  0  0
  -27.3709  -17.9064   19.5689 C   0  0  0  0  0  0  0  0  0  0  0  0
  -22.2594   -8.9372   22.1695 C   0  0  0  0  0  0  0  0  0  0  0  0
  -26.1793  -27.0354   18.9026 C   0  0  0  0  0  0  0  0  0  0  0  0
  -21.4754   -7.0699   23.3615 C   0  0  0  0  0  0  0  0  0  0  0  0
  -21.7555   -4.3831   24.0582 C   0  0  0  0  0  0  0  0  0  0  0  0
  -21.6404   -6.7097   24.6989 C   0  0  0  0  0  0  0  0  0  0  0  0
  -25.1329  -10.5965   19.5451 C   0  0  0  0  0  0  0  0  0  0  0  0
  -26.3211  -11.1404   17.7767 C   0  0  0  0  0  0  0  0  0  0  0  0
  -24.4249   -9.5866   17.2881 C   0  0  0  0  0  0  0  0  0  0  0  0
  -25.9702  -30.9990   23.8797 C   0  0  0  0  0  0  0  0  0  0  0  0
  -23.2787  -29.8048   23.0196 C   0  0  0  0  0  0  0  0  0  0  0  0
  -20.4324  -28.6839   21.5098 C   0  0  0  0  0  0  0  0  0  0  0  0
  -28.9309  -15.9961   20.0824 C   0  0  0  0  0  0  0  0  0  0  0  0
  -23.9337  -34.8414   26.5529 C   0  0  0  0  0  0  0  0  0  0  0  0
  -26.8028  -30.2771   21.6543 C   0  0  0  0  0  0  0  0  0  0  0  0
  -25.0976  -28.1469   22.3849 C   0  0  0  0  0  0  0  0  0  0  0  0
  -23.6067  -33.3655   26.3404 C   0  0  0  0  0  0  0  0  0  0  0  0
  -30.4687  -12.8465   19.4563 C   0  0  0  0  0  0  0  0  0  0  0  0
  -24.8537  -32.5090   26.5359 C   0  0  0  0  0  0  0  0  0  0  0  0
  -29.2843  -11.8943   19.2756 C   0  0  0  0  0  0  0  0  0  0  0  0
  -25.5203  -23.7138   17.4900 C   0  0  0  0  0  0  0  0  0  0  0  0
  -26.9107  -24.3019   19.4820 C   0  0  0  0  0  0  0  0  0  0  0  0
  -30.1907  -13.9007   20.5264 C   0  0  0  0  0  0  0  0  0  0  0  0
  -25.3497  -22.2946   18.0248 C   0  0  0  0  0  0  0  0  0  0  0  0
  -26.7376  -22.8854   20.0213 C   0  0  0  0  0  0  0  0  0  0  0  0
  -27.7620  -13.7064   20.1621 C   0  0  0  0  0  0  0  0  0  0  0  0
  -25.9389  -32.8735   25.5156 C   0  0  1  0  0  0  0  0  0  0  0  0
  -25.5547  -30.6094   22.4915 C   0  0  1  0  0  0  0  0  0  0  0  0
  -27.9698  -12.6665   19.0489 C   0  0  2  0  0  0  0  0  0  0  0  0
  -25.7309  -24.7215   18.6128 C   0  0  0  0  0  0  0  0  0  1  0  0
  -17.9491  -28.5451   21.8437 C   0  0  0  0  0  0  0  0  0  0  0  0
  -23.6773  -27.5280   25.0099 C   0  0  0  0  0  0  0  0  0  0  0  0
  -21.3128  -26.8289   24.5753 C   0  0  0  0  0  0  0  0  0  0  0  0
  -21.7878  -29.0728   25.5561 C   0  0  0  0  0  0  0  0  0  0  0  0
  -19.8998  -30.3050   19.0917 C   0  0  0  0  0  0  0  0  0  0  0  0
  -22.3184  -28.6469   23.1211 C   0  0  1  0  0  0  0  0  0  0  0  0
  -19.0946  -29.3553   21.2569 C   0  0  2  0  0  0  0  0  0  0  0  0
  -22.2927  -28.0212   24.5442 C   0  0  0  0  0  0  0  0  0  0  0  0
  -26.0764  -11.4166   20.0153 N   0  0  0  0  0  0  0  0  0  0  0  0
  -26.7833  -11.7302   18.9162 N   0  0  0  0  0  0  0  0  0  0  0  0
  -26.4504  -21.9442   18.9296 N   0  0  0  0  0  0  0  0  0  0  0  0
  -24.5992  -29.5023   22.6658 N   0  0  0  0  0  0  0  0  0  0  0  0
  -28.9323  -14.5944   20.2436 N   0  0  0  0  0  0  0  0  0  0  0  0
  -26.9150  -11.3482   16.5823 N   0  0  0  0  0  0  0  0  0  0  0  0
  -23.3503   -8.8784   17.8430 N   0  0  0  0  0  0  0  0  0  0  0  0
  -27.6823  -16.5410   19.7844 N   0  0  0  0  0  0  0  0  0  0  0  0
  -25.6342  -32.2942   24.2249 N   0  0  0  0  0  0  0  0  0  0  0  0
  -21.0260  -29.1471   22.6649 N   0  0  0  0  0  0  0  0  0  0  0  0
  -18.8604  -29.5085   19.7932 N   0  3  0  0  0  0  0  0  0  0  0  0
  -24.6561   -9.4879   16.0591 O   0  0  0  0  0  0  0  0  0  0  0  0
  -26.5518  -30.1849   24.5872 O   0  0  0  0  0  0  0  0  0  0  0  0
  -22.8731  -30.9470   23.2528 O   0  0  0  0  0  0  0  0  0  0  0  0
  -20.9020  -27.8310   20.7598 O   0  0  0  0  0  0  0  0  0  0  0  0
  -29.9663  -16.6608   20.1730 O   0  0  0  0  0  0  0  0  0  0  0  0
  -21.3353   -8.4031   23.0142 O   0  0  0  0  0  0  0  0  0  0  0  0
  -25.9839  -25.9992   18.0408 O   0  0  0  0  0  0  0  0  0  1  0  0
  -21.8885   -3.0929   24.3927 F   0  0  0  0  0  0  0  0  0  0  0  0
  -21.6641   -7.6498   25.6537 F   0  0  0  0  0  0  0  0  0  0  0  0
  1  2  1  0  0  0  0
  1  5  2  0  0  0  0
  2  6  2  0  0  0  0
  3 12  2  0  0  0  0
  3 19  1  0  0  0  0
  4 13  1  0  0  0  0
  4 19  2  0  0  0  0
  5 21  1  0  0  0  0
  6 23  1  0  0  0  0
  7 14  2  0  0  0  0
  7 22  1  0  0  0  0
  8 10  2  0  0  0  0
  8 25  1  0  0  0  0
  9 11  1  0  0  0  0
  9 25  2  0  0  0  0
 10 26  1  0  0  0  0
 11 26  2  0  0  0  0
 12 27  1  0  0  0  0
 13 27  2  0  0  0  0
 14 28  1  0  0  0  0
 15 16  2  0  0  0  0
 15 29  1  0  0  0  0
 16 30  1  0  0  0  0
 17 24  1  0  0  0  0
 17 28  2  0  0  0  0
 18 30  2  0  0  0  0
 18 31  1  0  0  0  0
 19 32  1  0  0  0  0
 20 32  1  0  0  0  0
 20 33  2  0  0  0  0
 20 34  1  0  0  0  0
 21 23  2  0  0  0  0
 21 39  1  0  0  0  0
 22 24  2  0  0  0  0
 22 40  1  0  0  0  0
 23 52  1  0  0  0  0
 24 41  1  0  0  0  0
 25 66  1  0  0  0  0
 26 71  1  0  0  0  0
 27 80  1  0  0  0  0
 28 81  1  0  0  0  0
 29 31  2  0  0  0  0
 29 80  1  0  0  0  0
 30 82  1  0  0  0  0
 31 83  1  0  0  0  0
 32 64  2  0  0  0  0
 33 65  1  0  0  0  0
 33 69  1  0  0  0  0
 34 70  1  0  0  0  0
 34 75  2  0  0  0  0
 35 53  1  0  0  0  0
 35 72  1  0  0  0  0
 35 76  2  0  0  0  0
 36 61  1  0  0  0  0
 36 67  1  0  0  0  0
 36 77  2  0  0  0  0
 37 62  1  0  0  0  0
 37 73  1  0  0  0  0
 37 78  2  0  0  0  0
 38 68  1  0  0  0  0
 38 71  1  0  0  0  0
 38 79  2  0  0  0  0
 39 42  1  0  0  0  0
 40 53  1  0  0  0  0
 41 67  1  0  0  0  0
 42 44  1  0  0  0  0
 43 45  1  0  0  0  0
 43 48  1  0  0  0  0
 44 52  1  0  0  0  0
 45 54  1  0  0  0  0
 46 49  1  0  0  0  0
 46 55  1  0  0  0  0
 47 50  1  0  0  0  0
 47 55  1  0  0  0  0
 48 68  1  0  0  0  0
 49 66  1  0  0  0  0
 50 66  1  0  0  0  0
 51 54  1  0  0  0  0
 51 68  1  0  0  0  0
 52 72  1  0  0  0  0
 53 67  1  0  0  0  0
 54 65  1  0  0  0  0
 55 81  1  0  0  0  0
 56 62  1  0  0  0  0
 57 63  1  0  0  0  0
 58 63  1  0  0  0  0
 59 63  1  0  0  0  0
 60 74  1  0  0  0  0
 61 63  1  0  0  0  0
 61 73  1  0  0  0  0
 62 74  1  0  0  0  0
 64 65  1  0  0  0  0
M  CHG  1  74   1
M  ISO  4  38 100  55 101  71 100  81 101
M  END
> <Batch ID>
0011

> <Smiles>
CNC(C)C(=O)NC(C(=O)N1Cc2cc([101O:1][101CH:1]3CCN(c4ccc([100NH:0][100C:0](=O)N5CCCC(n6nc(-c7ccc(Oc8ccc(F)cc8F)cc7)c(C(N)=O)c6N)C5)cc4)CC3)ccc2CC1C(=O)NC1CCCc2ccccc21)C(C)(C)C

> <Shape>
0.309

> <Color>
0.105

> <Negative vol penalty>
0.000

$$$$

  -OEChem-04042320433D

 86 95  0     1  0  0  0  0  0999 V2000
  -20.8866  -32.5742   16.9787 C   0  0  0  0  0  0  0  0  0  0  0  0
  -21.6758  -32.1417   15.9177 C   0  0  0  0  0  0  0  0  0  0  0  0
  -22.6909  -10.1982   20.1655 C   0  0  0  0  0  0  0  0  0  0  0  0
  -24.3952   -9.4290   21.6955 C   0  0  0  0  0  0  0  0  0  0  0  0
  -21.3834  -32.5255   18.2805 C   0  0  0  0  0  0  0  0  0  0  0  0
  -22.9627  -31.6614   16.1579 C   0  0  0  0  0  0  0  0  0  0  0  0
  -26.1748  -24.7979   14.2599 C   0  0  0  0  0  0  0  0  0  0  0  0
  -21.9854   -9.0098   20.3539 C   0  0  0  0  0  0  0  0  0  0  0  0
  -23.6896   -8.2406   21.8839 C   0  0  0  0  0  0  0  0  0  0  0  0
  -26.8036  -23.5608   14.1183 C   0  0  0  0  0  0  0  0  0  0  0  0
  -21.0030   -7.1935   23.6463 C   0  0  0  0  0  0  0  0  0  0  0  0
  -20.8576   -6.7281   24.9532 C   0  0  0  0  0  0  0  0  0  0  0  0
  -28.1904  -24.0334   16.0422 C   0  0  0  0  0  0  0  0  0  0  0  0
  -29.4470  -19.5733   18.9688 C   0  0  0  0  0  0  0  0  0  0  0  0
  -29.6953  -17.6867   17.4802 C   0  0  0  0  0  0  0  0  0  0  0  0
  -22.0110   -4.6908   24.3559 C   0  0  0  0  0  0  0  0  0  0  0  0
  -23.8959  -10.4078   20.8363 C   0  0  0  0  0  0  0  0  0  0  0  0
  -24.1778  -12.9420   20.9118 C   0  0  0  0  0  0  0  0  0  0  0  0
  -22.6734  -32.0353   18.5378 C   0  0  0  0  0  0  0  0  0  0  0  0
  -26.5411  -25.6521   15.3038 C   0  0  0  0  0  0  0  0  0  0  0  0
  -23.4776  -31.6074   17.4643 C   0  0  0  0  0  0  0  0  0  0  0  0
  -27.5553  -25.2686   16.1966 C   0  0  0  0  0  0  0  0  0  0  0  0
  -29.3056  -17.3230   19.8367 C   0  0  0  0  0  0  0  0  0  0  0  0
  -29.6597  -19.0657   17.6872 C   0  0  0  0  0  0  0  0  0  0  0  0
  -22.4847   -8.0310   21.2131 C   0  0  0  0  0  0  0  0  0  0  0  0
  -27.8091  -23.1796   15.0071 C   0  0  0  0  0  0  0  0  0  0  0  0
  -21.6522   -6.4075   22.6942 C   0  0  0  0  0  0  0  0  0  0  0  0
  -21.3617   -5.4768   25.3080 C   0  0  0  0  0  0  0  0  0  0  0  0
  -29.2700  -18.7020   20.0436 C   0  0  0  0  0  0  0  0  0  0  0  0
  -29.5183  -16.8154   18.5550 C   0  0  0  0  0  0  0  0  0  0  0  0
  -22.1562   -5.1563   23.0490 C   0  0  0  0  0  0  0  0  0  0  0  0
  -24.6255  -11.6349   20.6416 C   0  0  0  0  0  0  0  0  0  0  0  0
  -25.2339  -13.7463   20.5591 C   0  0  0  0  0  0  0  0  0  0  0  0
  -22.9200  -13.3892   21.4348 C   0  0  0  0  0  0  0  0  0  0  0  0
  -25.9884  -28.9292   17.0447 C   0  0  0  0  0  0  0  0  0  0  0  0
  -26.4153  -26.8198   19.2307 C   0  0  0  0  0  0  0  0  0  0  0  0
  -26.5131  -24.1313   21.3282 C   0  0  0  0  0  0  0  0  0  0  0  0
  -30.8480  -14.5470   20.9568 C   0  0  0  0  0  0  0  0  0  0  0  0
  -23.1845  -32.0462   19.9568 C   0  0  0  0  0  0  0  0  0  0  0  0
  -25.9335  -27.0199   15.4578 C   0  0  0  0  0  0  0  0  0  0  0  0
  -27.9406  -26.2343   17.2837 C   0  0  0  0  0  0  0  0  0  0  0  0
  -24.4194  -31.1736   20.1661 C   0  0  0  0  0  0  0  0  0  0  0  0
  -29.4882  -12.7105   18.0447 C   0  0  0  0  0  0  0  0  0  0  0  0
  -25.4421  -31.4221   19.0619 C   0  0  0  0  0  0  0  0  0  0  0  0
  -28.0909  -12.3178   18.5214 C   0  0  0  0  0  0  0  0  0  0  0  0
  -30.4841  -20.7683   14.5216 C   0  0  0  0  0  0  0  0  0  0  0  0
  -30.4664  -12.8482   19.2074 C   0  0  0  0  0  0  0  0  0  0  0  0
  -30.0631  -19.4920   15.2499 C   0  0  0  0  0  0  0  0  0  0  0  0
  -28.6106  -13.3876   20.7499 C   0  0  0  0  0  0  0  0  0  0  0  0
  -29.8088  -21.3857   16.7398 C   0  0  0  0  0  0  0  0  0  0  0  0
  -24.8694  -31.0567   17.6871 C   0  0  1  0  0  0  0  0  0  0  0  0
  -25.7764  -27.4484   16.9278 C   0  0  1  0  0  0  0  0  0  0  0  0
  -27.5893  -13.2859   19.6069 C   0  0  2  0  0  0  0  0  0  0  0  0
  -29.7702  -21.8701   15.2910 C   0  0  2  0  0  0  0  0  0  1  0  0
  -26.4408  -23.5290   23.7632 C   0  0  0  0  0  0  0  0  0  0  0  0
  -29.2997  -27.7605   19.5453 C   0  0  0  0  0  0  0  0  0  0  0  0
  -29.4723  -26.3199   21.5856 C   0  0  0  0  0  0  0  0  0  0  0  0
  -27.8363  -28.2020   21.5247 C   0  0  0  0  0  0  0  0  0  0  0  0
  -31.2731  -16.6600   22.1541 C   0  0  0  0  0  0  0  0  0  0  0  0
  -24.0548  -22.5213   20.9761 C   0  0  0  0  0  0  0  0  0  0  0  0
  -29.1166  -16.3920   20.9865 C   0  0  0  0  0  0  0  0  0  0  0  0
  -27.3920  -26.1285   20.1480 C   0  0  1  0  0  0  0  0  0  0  0  0
  -25.6274  -23.7302   22.4941 C   0  0  2  0  0  0  0  0  0  0  0  0
  -28.4927  -27.0915   20.6758 C   0  0  0  0  0  0  0  0  0  0  0  0
  -25.8689  -11.6060   20.1548 N   0  0  0  0  0  0  0  0  0  0  0  0
  -26.2116  -12.9049   20.1161 N   0  0  0  0  0  0  0  0  0  0  0  0
  -29.8350  -19.9271   16.6246 N   0  0  3  0  0  0  0  0  0  0  0  0
  -26.7341  -26.8410   17.8675 N   0  0  0  0  0  0  0  0  0  0  0  0
  -29.9458  -13.7399   20.2443 N   0  0  0  0  0  0  0  0  0  0  0  0
  -25.4122  -15.0842   20.5877 N   0  0  0  0  0  0  0  0  0  0  0  0
  -22.7803  -13.5137   22.8238 N   0  0  0  0  0  0  0  0  0  0  0  0
  -24.8825  -29.6217   17.4994 N   0  0  0  0  0  0  0  0  0  0  0  0
  -26.5941  -25.5014   21.1960 N   0  0  0  0  0  0  0  0  0  0  0  0
  -30.3721  -15.7828   21.4202 N   0  0  0  0  0  0  0  0  0  0  0  0
  -24.9121  -22.4592   22.1878 N   0  3  0  0  0  0  0  0  0  0  0  0
  -21.9435  -13.6542   20.6933 O   0  0  0  0  0  0  0  0  0  0  0  0
  -27.0756  -29.4094   16.7461 O   0  0  0  0  0  0  0  0  0  0  0  0
  -25.3992  -27.3329   19.7079 O   0  0  0  0  0  0  0  0  0  0  0  0
  -27.0796  -23.3112   20.6091 O   0  0  0  0  0  0  0  0  0  0  0  0
  -32.0151  -14.1878   21.1583 O   0  0  0  0  0  0  0  0  0  0  0  0
  -21.7964   -6.8713   21.3974 O   0  0  0  0  0  0  0  0  0  0  0  0
  -28.4158  -21.9685   14.8657 O   0  0  0  0  0  0  0  0  0  1  0  0
  -21.2234   -5.0306   26.5634 F   0  0  0  0  0  0  0  0  0  0  0  0
  -29.0675  -19.1997   21.2716 F   0  0  0  0  0  0  0  0  0  0  0  0
  -29.5553  -15.4918   18.3469 F   0  0  0  0  0  0  0  0  0  0  0  0
  -22.7819   -4.3972   22.1390 F   0  0  0  0  0  0  0  0  0  0  0  0
  1  2  1  0  0  0  0
  1  5  2  0  0  0  0
  2  6  2  0  0  0  0
  3  8  2  0  0  0  0
  3 17  1  0  0  0  0
  4  9  1  0  0  0  0
  4 17  2  0  0  0  0
  5 19  1  0  0  0  0
  6 21  1  0  0  0  0
  7 10  2  0  0  0  0
  7 20  1  0  0  0  0
  8 25  1  0  0  0  0
  9 25  2  0  0  0  0
 10 26  1  0  0  0  0
 11 12  2  0  0  0  0
 11 27  1  0  0  0  0
 12 28  1  0  0  0  0
 13 22  1  0  0  0  0
 13 26  2  0  0  0  0
 14 24  1  0  0  0  0
 14 29  2  0  0  0  0
 15 24  2  0  0  0  0
 15 30  1  0  0  0  0
 16 28  2  0  0  0  0
 16 31  1  0  0  0  0
 17 32  1  0  0  0  0
 18 32  1  0  0  0  0
 18 33  2  0  0  0  0
 18 34  1  0  0  0  0
 19 21  2  0  0  0  0
 19 39  1  0  0  0  0
 20 22  2  0  0  0  0
 20 40  1  0  0  0  0
 21 51  1  0  0  0  0
 22 41  1  0  0  0  0
 23 29  1  0  0  0  0
 23 30  2  0  0  0  0
 23 61  1  0  0  0  0
 24 67  1  0  0  0  0
 25 81  1  0  0  0  0
 26 82  1  0  0  0  0
 27 31  2  0  0  0  0
 27 81  1  0  0  0  0
 28 83  1  0  0  0  0
 29 84  1  0  0  0  0
 30 85  1  0  0  0  0
 31 86  1  0  0  0  0
 32 65  2  0  0  0  0
 33 66  1  0  0  0  0
 33 70  1  0  0  0  0
 34 71  1  0  0  0  0
 34 76  2  0  0  0  0
 35 52  1  0  0  0  0
 35 72  1  0  0  0  0
 35 77  2  0  0  0  0
 36 62  1  0  0  0  0
 36 68  1  0  0  0  0
 36 78  2  0  0  0  0
 37 63  1  0  0  0  0
 37 73  1  0  0  0  0
 37 79  2  0  0  0  0
 38 69  1  0  0  0  0
 38 74  1  0  0  0  0
 38 80  2  0  0  0  0
 39 42  1  0  0  0  0
 40 52  1  0  0  0  0
 41 68  1  0  0  0  0
 42 44  1  0  0  0  0
 43 45  1  0  0  0  0
 43 47  1  0  0  0  0
 44 51  1  0  0  0  0
 45 53  1  0  0  0  0
 46 48  1  0  0  0  0
 46 54  1  0  0  0  0
 47 69  1  0  0  0  0
 48 67  1  0  0  0  0
 49 53  1  0  0  0  0
 49 69  1  0  0  0  0
 50 54  1  0  0  0  0
 50 67  1  0  0  0  0
 51 72  1  0  0  0  0
 52 68  1  0  0  0  0
 53 66  1  0  0  0  0
 54 82  1  0  0  0  0
 55 63  1  0  0  0  0
 56 64  1  0  0  0  0
 57 64  1  0  0  0  0
 58 64  1  0  0  0  0
 59 74  1  0  0  0  0
 60 75  1  0  0  0  0
 61 74  1  0  0  0  0
 62 64  1  0  0  0  0
 62 73  1  0  0  0  0
 63 75  1  0  0  0  0
 65 66  1  0  0  0  0
M  CHG  1  75   1
M  ISO  4  38 100  54 101  74 100  82 101
M  END
> <Batch ID>
0011

> <Smiles>
CNC(C)C(=O)NC(C(=O)N1Cc2cc([101O:1][101CH:1]3CCN(c4cc(F)c(C[100N:0](C)[100C:0](=O)N5CCCC(n6nc(-c7ccc(Oc8ccc(F)cc8F)cc7)c(C(N)=O)c6N)C5)c(F)c4)C3)ccc2CC1C(=O)NC1CCCc2ccccc21)C(C)(C)C

> <Shape>
0.277

> <Color>
0.169

> <Negative vol penalty>
0.000

$$$$

  -OEChem-04042320433D

 81 89  0     1  0  0  0  0  0999 V2000
  -25.2681  -31.6434   24.3631 C   0  0  0  0  0  0  0  0  0  0  0  0
  -26.0192  -30.4975   24.6040 C   0  0  0  0  0  0  0  0  0  0  0  0
  -23.3378   -9.8631   21.0434 C   0  0  0  0  0  0  0  0  0  0  0  0
  -23.9482  -10.6260   23.2531 C   0  0  0  0  0  0  0  0  0  0  0  0
  -24.6097  -31.8005   23.1442 C   0  0  0  0  0  0  0  0  0  0  0  0
  -26.1116  -29.5074   23.6264 C   0  0  0  0  0  0  0  0  0  0  0  0
  -30.9557  -25.9571   22.4283 C   0  0  0  0  0  0  0  0  0  0  0  0
  -30.9308  -16.2650   23.9291 C   0  0  0  0  0  0  0  0  0  0  0  0
  -32.9439  -16.2358   22.5934 C   0  0  0  0  0  0  0  0  0  0  0  0
  -30.9434  -17.6598   23.9175 C   0  0  0  0  0  0  0  0  0  0  0  0
  -32.9564  -17.6306   22.5819 C   0  0  0  0  0  0  0  0  0  0  0  0
  -22.6435   -8.7917   21.6051 C   0  0  0  0  0  0  0  0  0  0  0  0
  -23.2539   -9.5545   23.8148 C   0  0  0  0  0  0  0  0  0  0  0  0
  -31.2773  -24.6524   22.8001 C   0  0  0  0  0  0  0  0  0  0  0  0
  -19.6564   -8.2686   23.1008 C   0  0  0  0  0  0  0  0  0  0  0  0
  -18.3877   -7.9827   22.5968 C   0  0  0  0  0  0  0  0  0  0  0  0
  -30.3960  -23.8446   20.7049 C   0  0  0  0  0  0  0  0  0  0  0  0
  -19.1358   -5.7735   21.9668 C   0  0  0  0  0  0  0  0  0  0  0  0
  -23.9902  -10.7803   21.8674 C   0  0  0  0  0  0  0  0  0  0  0  0
  -24.2008  -13.1652   20.9868 C   0  0  0  0  0  0  0  0  0  0  0  0
  -24.7018  -30.8162   22.1475 C   0  0  0  0  0  0  0  0  0  0  0  0
  -30.3408  -26.2146   21.1946 C   0  0  0  0  0  0  0  0  0  0  0  0
  -25.4527  -29.6508   22.3935 C   0  0  0  0  0  0  0  0  0  0  0  0
  -30.0699  -25.1536   20.3187 C   0  0  0  0  0  0  0  0  0  0  0  0
  -31.9311  -15.5530   23.2670 C   0  0  0  0  0  0  0  0  0  0  0  0
  -31.9562  -18.3425   23.2439 C   0  0  0  0  0  0  0  0  0  0  0  0
  -22.6015   -8.6374   22.9908 C   0  0  0  0  0  0  0  0  0  0  0  0
  -30.9948  -23.5956   21.9396 C   0  0  0  0  0  0  0  0  0  0  0  0
  -20.6649   -7.3070   23.0377 C   0  0  0  0  0  0  0  0  0  0  0  0
  -18.1273   -6.7352   22.0298 C   0  0  0  0  0  0  0  0  0  0  0  0
  -20.4046   -6.0595   22.4708 C   0  0  0  0  0  0  0  0  0  0  0  0
  -24.7081  -11.8869   21.2878 C   0  0  0  0  0  0  0  0  0  0  0  0
  -25.2714  -13.8437   20.4577 C   0  0  0  0  0  0  0  0  0  0  0  0
  -22.8800  -13.6922   21.1693 C   0  0  0  0  0  0  0  0  0  0  0  0
  -27.5605  -27.4624   20.2910 C   0  0  0  0  0  0  0  0  0  0  0  0
  -28.8498  -27.1990   17.3261 C   0  0  0  0  0  0  0  0  0  0  0  0
  -31.0961  -25.6586   15.2700 C   0  0  0  0  0  0  0  0  0  0  0  0
  -31.1958  -13.2188   21.0597 C   0  0  0  0  0  0  0  0  0  0  0  0
  -23.9339  -31.0089   20.8638 C   0  0  0  0  0  0  0  0  0  0  0  0
  -30.0246  -27.6303   20.7970 C   0  0  0  0  0  0  0  0  0  0  0  0
  -29.4293  -25.3790   18.9744 C   0  0  0  0  0  0  0  0  0  0  0  0
  -24.3884  -30.0841   19.7375 C   0  0  0  0  0  0  0  0  0  0  0  0
  -29.3302  -13.1249   18.0286 C   0  0  0  0  0  0  0  0  0  0  0  0
  -24.5338  -28.6537   20.2471 C   0  0  0  0  0  0  0  0  0  0  0  0
  -27.8883  -12.9123   18.4930 C   0  0  0  0  0  0  0  0  0  0  0  0
  -30.3232  -12.3642   18.9046 C   0  0  0  0  0  0  0  0  0  0  0  0
  -28.7664  -12.4225   20.8142 C   0  0  0  0  0  0  0  0  0  0  0  0
  -25.5971  -28.5658   21.3485 C   0  0  1  0  0  0  0  0  0  0  0  0
  -28.9323  -27.7232   19.7360 C   0  0  1  0  0  0  0  0  0  0  0  0
  -27.7328  -13.2148   19.9956 C   0  0  2  0  0  0  0  0  0  0  0  0
  -31.8913  -25.6306   12.8900 C   0  0  0  0  0  0  0  0  0  0  0  0
  -26.3444  -25.6606   16.5097 C   0  0  0  0  0  0  0  0  0  0  0  0
  -27.5805  -24.8595   14.4852 C   0  0  0  0  0  0  0  0  0  0  0  0
  -27.1645  -27.2980   14.8065 C   0  0  0  0  0  0  0  0  0  0  0  0
  -33.8407  -26.4387   16.0559 C   0  0  0  0  0  0  0  0  0  0  0  0
  -31.9187  -14.0618   23.2792 C   0  0  0  0  0  0  0  0  0  0  0  0
  -30.9723  -20.5435   23.8871 C   0  0  0  0  0  0  0  0  0  0  0  0
  -31.2875  -22.0174   23.6944 C   0  0  0  0  0  0  0  0  0  1  0  0
  -28.8711  -26.1297   16.2607 C   0  0  1  0  0  0  0  0  0  0  0  0
  -32.1007  -26.2162   14.2778 C   0  0  2  0  0  0  0  0  0  0  0  0
  -27.5004  -25.9822   15.5416 C   0  0  0  0  0  0  0  0  0  0  0  0
  -26.0004  -11.7585   20.9756 N   0  0  0  0  0  0  0  0  0  0  0  0
  -26.3142  -12.9647   20.4730 N   0  0  0  0  0  0  0  0  0  0  0  0
  -29.1333  -26.7804   18.6338 N   0  0  0  0  0  0  0  0  0  0  0  0
  -30.1238  -12.6969   20.3172 N   0  0  0  0  0  0  0  0  0  0  0  0
  -25.4132  -15.1004   19.9855 N   0  0  0  0  0  0  0  0  0  0  0  0
  -21.8997  -12.8599   21.7266 N   0  0  0  0  0  0  0  0  0  0  0  0
  -31.9680  -19.7275   23.2307 N   0  0  0  0  0  0  0  0  0  0  0  0
  -26.9246  -28.5907   20.7726 N   0  0  0  0  0  0  0  0  0  0  0  0
  -29.9795  -26.4611   15.3719 N   0  0  0  0  0  0  0  0  0  0  0  0
  -30.9198  -13.5130   22.3894 N   0  0  0  0  0  0  0  0  0  0  0  0
  -33.4902  -25.9022   14.7156 N   0  3  0  0  0  0  0  0  0  0  0  0
  -22.5738  -14.8610   20.8325 O   0  0  0  0  0  0  0  0  0  0  0  0
  -27.1116  -26.3221   20.2815 O   0  0  0  0  0  0  0  0  0  0  0  0
  -28.5981  -28.3641   17.0085 O   0  0  0  0  0  0  0  0  0  0  0  0
  -31.2817  -24.6135   15.8897 O   0  0  0  0  0  0  0  0  0  0  0  0
  -32.3145  -13.4135   20.5723 O   0  0  0  0  0  0  0  0  0  0  0  0
  -21.9239   -7.5921   23.5393 O   0  0  0  0  0  0  0  0  0  0  0  0
  -31.3071  -22.3212   22.3003 O   0  0  0  0  0  0  0  0  0  1  0  0
  -16.9084   -6.4602   21.5472 F   0  0  0  0  0  0  0  0  0  0  0  0
  -21.3691   -5.1312   22.4085 F   0  0  0  0  0  0  0  0  0  0  0  0
  1  2  1  0  0  0  0
  1  5  2  0  0  0  0
  2  6  2  0  0  0  0
  3 12  2  0  0  0  0
  3 19  1  0  0  0  0
  4 13  1  0  0  0  0
  4 19  2  0  0  0  0
  5 21  1  0  0  0  0
  6 23  1  0  0  0  0
  7 14  2  0  0  0  0
  7 22  1  0  0  0  0
  8 10  2  0  0  0  0
  8 25  1  0  0  0  0
  9 11  1  0  0  0  0
  9 25  2  0  0  0  0
 10 26  1  0  0  0  0
 11 26  2  0  0  0  0
 12 27  1  0  0  0  0
 13 27  2  0  0  0  0
 14 28  1  0  0  0  0
 15 16  2  0  0  0  0
 15 29  1  0  0  0  0
 16 30  1  0  0  0  0
 17 24  1  0  0  0  0
 17 28  2  0  0  0  0
 18 30  2  0  0  0  0
 18 31  1  0  0  0  0
 19 32  1  0  0  0  0
 20 32  1  0  0  0  0
 20 33  2  0  0  0  0
 20 34  1  0  0  0  0
 21 23  2  0  0  0  0
 21 39  1  0  0  0  0
 22 24  2  0  0  0  0
 22 40  1  0  0  0  0
 23 48  1  0  0  0  0
 24 41  1  0  0  0  0
 25 56  1  0  0  0  0
 26 68  1  0  0  0  0
 27 78  1  0  0  0  0
 28 79  1  0  0  0  0
 29 31  2  0  0  0  0
 29 78  1  0  0  0  0
 30 80  1  0  0  0  0
 31 81  1  0  0  0  0
 32 62  2  0  0  0  0
 33 63  1  0  0  0  0
 33 66  1  0  0  0  0
 34 67  1  0  0  0  0
 34 73  2  0  0  0  0
 35 49  1  0  0  0  0
 35 69  1  0  0  0  0
 35 74  2  0  0  0  0
 36 59  1  0  0  0  0
 36 64  1  0  0  0  0
 36 75  2  0  0  0  0
 37 60  1  0  0  0  0
 37 70  1  0  0  0  0
 37 76  2  0  0  0  0
 38 65  1  0  0  0  0
 38 71  1  0  0  0  0
 38 77  2  0  0  0  0
 39 42  1  0  0  0  0
 40 49  1  0  0  0  0
 41 64  1  0  0  0  0
 42 44  1  0  0  0  0
 43 45  1  0  0  0  0
 43 46  1  0  0  0  0
 44 48  1  0  0  0  0
 45 50  1  0  0  0  0
 46 65  1  0  0  0  0
 47 50  1  0  0  0  0
 47 65  1  0  0  0  0
 48 69  1  0  0  0  0
 49 64  1  0  0  0  0
 50 63  1  0  0  0  0
 51 60  1  0  0  0  0
 52 61  1  0  0  0  0
 53 61  1  0  0  0  0
 54 61  1  0  0  0  0
 55 72  1  0  0  0  0
 56 71  1  0  0  0  0
 57 58  1  0  0  0  0
 57 68  1  0  0  0  0
 58 79  1  0  0  0  0
 59 61  1  0  0  0  0
 59 70  1  0  0  0  0
 60 72  1  0  0  0  0
 62 63  1  0  0  0  0
M  CHG  1  72   1
M  ISO  4  38 100  58 101  71 100  79 101
M  END
> <Batch ID>
0011

> <Smiles>
CNC(C)C(=O)NC(C(=O)N1Cc2cc([101O:1][101CH2:1]CNc3ccc(C[100NH:0][100C:0](=O)N4CCCC(n5nc(-c6ccc(Oc7ccc(F)cc7F)cc6)c(C(N)=O)c5N)C4)cc3)ccc2CC1C(=O)NC1CCCc2ccccc21)C(C)(C)C

> <Shape>
0.259

> <Color>
0.159

> <Negative vol penalty>
0.000

$$$$

  -OEChem-04042320433D

 81 89  0     1  0  0  0  0  0999 V2000
  -23.6146  -32.7404   26.6417 C   0  0  0  0  0  0  0  0  0  0  0  0
  -24.8879  -32.2906   26.3072 C   0  0  0  0  0  0  0  0  0  0  0  0
  -24.0433   -9.7225   21.7174 C   0  0  0  0  0  0  0  0  0  0  0  0
  -24.6463  -10.9946   23.6809 C   0  0  0  0  0  0  0  0  0  0  0  0
  -22.4922  -32.0271   26.2230 C   0  0  0  0  0  0  0  0  0  0  0  0
  -25.0395  -31.1265   25.5547 C   0  0  0  0  0  0  0  0  0  0  0  0
  -29.3143  -28.1906   20.6127 C   0  0  0  0  0  0  0  0  0  0  0  0
  -30.7820  -18.9585   20.2106 C   0  0  0  0  0  0  0  0  0  0  0  0
  -23.6164   -8.6717   22.5293 C   0  0  0  0  0  0  0  0  0  0  0  0
  -24.2193   -9.9438   24.4928 C   0  0  0  0  0  0  0  0  0  0  0  0
  -30.0451  -27.0275   20.3746 C   0  0  0  0  0  0  0  0  0  0  0  0
  -31.0681  -20.2797   20.5541 C   0  0  0  0  0  0  0  0  0  0  0  0
  -20.9059   -7.9145   24.4036 C   0  0  0  0  0  0  0  0  0  0  0  0
  -19.6862   -7.3118   24.0959 C   0  0  0  0  0  0  0  0  0  0  0  0
  -28.0319  -25.9204   19.6392 C   0  0  0  0  0  0  0  0  0  0  0  0
  -28.7097  -20.7140   20.8479 C   0  0  0  0  0  0  0  0  0  0  0  0
  -20.8098   -5.1954   23.7874 C   0  0  0  0  0  0  0  0  0  0  0  0
  -24.5583  -10.8839   22.2932 C   0  0  0  0  0  0  0  0  0  0  0  0
  -24.2298  -13.0524   20.9902 C   0  0  0  0  0  0  0  0  0  0  0  0
  -22.6299  -30.8589   25.4568 C   0  0  0  0  0  0  0  0  0  0  0  0
  -27.9326  -28.2242   20.3757 C   0  0  0  0  0  0  0  0  0  0  0  0
  -23.9180  -30.3961   25.1265 C   0  0  0  0  0  0  0  0  0  0  0  0
  -27.2863  -27.0860   19.8726 C   0  0  0  0  0  0  0  0  0  0  0  0
  -29.4598  -18.5150   20.1855 C   0  0  0  0  0  0  0  0  0  0  0  0
  -23.7044   -8.7823   23.9170 C   0  0  0  0  0  0  0  0  0  0  0  0
  -29.4035  -25.8912   19.8905 C   0  0  0  0  0  0  0  0  0  0  0  0
  -30.0320  -21.1575   20.8728 C   0  0  0  0  0  0  0  0  0  0  0  0
  -22.0776   -7.1576   24.4031 C   0  0  0  0  0  0  0  0  0  0  0  0
  -19.6381   -5.9523   23.7878 C   0  0  0  0  0  0  0  0  0  0  0  0
  -28.4236  -19.3928   20.5042 C   0  0  0  0  0  0  0  0  0  0  0  0
  -22.0296   -5.7981   24.0950 C   0  0  0  0  0  0  0  0  0  0  0  0
  -25.0000  -11.9695   21.4550 C   0  0  0  0  0  0  0  0  0  0  0  0
  -25.1046  -13.7986   20.2391 C   0  0  0  0  0  0  0  0  0  0  0  0
  -22.8471  -13.3565   21.2173 C   0  0  0  0  0  0  0  0  0  0  0  0
  -25.3581  -28.6945   22.1797 C   0  0  0  0  0  0  0  0  0  0  0  0
  -23.8210  -28.6090   19.3245 C   0  0  0  0  0  0  0  0  0  0  0  0
  -23.8043  -27.5722   16.0731 C   0  0  0  0  0  0  0  0  0  0  0  0
  -30.0847  -16.1747   19.4935 C   0  0  0  0  0  0  0  0  0  0  0  0
  -21.3887  -30.0957   25.0674 C   0  0  0  0  0  0  0  0  0  0  0  0
  -27.1632  -29.4948   20.6123 C   0  0  0  0  0  0  0  0  0  0  0  0
  -25.8084  -27.0763   19.5826 C   0  0  0  0  0  0  0  0  0  0  0  0
  -21.6240  -29.0770   23.9551 C   0  0  0  0  0  0  0  0  0  0  0  0
  -29.7777  -12.7400   18.6070 C   0  0  0  0  0  0  0  0  0  0  0  0
  -22.8783  -28.2567   24.2391 C   0  0  0  0  0  0  0  0  0  0  0  0
  -28.4440  -12.3225   19.2307 C   0  0  0  0  0  0  0  0  0  0  0  0
  -30.5323  -13.7304   19.4921 C   0  0  0  0  0  0  0  0  0  0  0  0
  -28.4284  -14.4960   20.5202 C   0  0  0  0  0  0  0  0  0  0  0  0
  -24.1226  -29.1513   24.2906 C   0  0  1  0  0  0  0  0  0  0  0  0
  -25.6707  -29.2593   20.8229 C   0  0  1  0  0  0  0  0  0  0  0  0
  -27.6023  -13.5488   19.6347 C   0  0  2  0  0  0  0  0  0  0  0  0
  -22.3954  -27.6215   13.9970 C   0  0  0  0  0  0  0  0  0  0  0  0
  -22.0091  -26.4570   20.5059 C   0  0  0  0  0  0  0  0  0  0  0  0
  -21.2863  -25.8860   18.1779 C   0  0  0  0  0  0  0  0  0  0  0  0
  -20.8302  -28.1578   19.1017 C   0  0  0  0  0  0  0  0  0  0  0  0
  -25.8768  -29.0487   14.5620 C   0  0  0  0  0  0  0  0  0  0  0  0
  -31.2612  -24.5267   20.4758 C   0  0  0  0  0  0  0  0  0  1  0  0
  -31.4737  -23.0327   20.6261 C   0  0  0  0  0  0  0  0  0  0  0  0
  -23.1974  -27.5257   18.4781 C   0  0  1  0  0  0  0  0  0  0  0  0
  -23.5008  -28.3106   14.7819 C   0  0  2  0  0  0  0  0  0  0  0  0
  -21.8583  -27.0059   19.0731 C   0  0  0  0  0  0  0  0  0  0  0  0
  -26.2666  -12.0195   21.0342 N   0  0  0  0  0  0  0  0  0  0  0  0
  -26.2990  -13.1428   20.2971 N   0  0  0  0  0  0  0  0  0  0  0  0
  -25.0986  -28.3411   19.8361 N   0  0  0  0  0  0  0  0  0  0  0  0
  -29.6740  -14.8677   19.8310 N   0  0  0  0  0  0  0  0  0  0  0  0
  -24.9610  -14.9452   19.5412 N   0  0  0  0  0  0  0  0  0  0  0  0
  -22.0930  -12.4837   22.0134 N   0  0  0  0  0  0  0  0  0  0  0  0
  -29.1724  -17.1722   19.8360 N   0  0  0  0  0  0  0  0  0  0  0  0
  -24.5475  -29.5037   22.9528 N   0  0  0  0  0  0  0  0  0  0  0  0
  -23.0794  -28.0763   17.1322 N   0  0  0  0  0  0  0  0  0  0  0  0
  -24.7173  -28.3743   13.9234 N   0  3  0  0  0  0  0  0  0  0  0  0
  -22.2926  -14.3634   20.7151 O   0  0  0  0  0  0  0  0  0  0  0  0
  -25.8170  -27.6046   22.5009 O   0  0  0  0  0  0  0  0  0  0  0  0
  -23.2006  -29.6574   19.5185 O   0  0  0  0  0  0  0  0  0  0  0  0
  -24.6016  -26.6390   16.1351 O   0  0  0  0  0  0  0  0  0  0  0  0
  -31.1537  -16.3905   18.9167 O   0  0  0  0  0  0  0  0  0  0  0  0
  -23.2877   -7.7573   24.7095 O   0  0  0  0  0  0  0  0  0  0  0  0
  -30.1143  -24.7543   19.6579 O   0  0  0  0  0  0  0  0  0  1  0  0
  -30.3131  -22.4549   21.2114 O   0  0  0  0  0  0  0  0  0  0  0  0
  -18.4666   -5.3733   23.4939 F   0  0  0  0  0  0  0  0  0  0  0  0
  -27.1490  -18.9774   20.4830 F   0  0  0  0  0  0  0  0  0  0  0  0
  -23.1517   -5.0655   24.0941 F   0  0  0  0  0  0  0  0  0  0  0  0
  1  2  1  0  0  0  0
  1  5  2  0  0  0  0
  2  6  2  0  0  0  0
  3  9  2  0  0  0  0
  3 18  1  0  0  0  0
  4 10  1  0  0  0  0
  4 18  2  0  0  0  0
  5 20  1  0  0  0  0
  6 22  1  0  0  0  0
  7 11  2  0  0  0  0
  7 21  1  0  0  0  0
  8 12  2  0  0  0  0
  8 24  1  0  0  0  0
  9 25  1  0  0  0  0
 10 25  2  0  0  0  0
 11 26  1  0  0  0  0
 12 27  1  0  0  0  0
 13 14  2  0  0  0  0
 13 28  1  0  0  0  0
 14 29  1  0  0  0  0
 15 23  1  0  0  0  0
 15 26  2  0  0  0  0
 16 27  2  0  0  0  0
 16 30  1  0  0  0  0
 17 29  2  0  0  0  0
 17 31  1  0  0  0  0
 18 32  1  0  0  0  0
 19 32  1  0  0  0  0
 19 33  2  0  0  0  0
 19 34  1  0  0  0  0
 20 22  2  0  0  0  0
 20 39  1  0  0  0  0
 21 23  2  0  0  0  0
 21 40  1  0  0  0  0
 22 48  1  0  0  0  0
 23 41  1  0  0  0  0
 24 30  2  0  0  0  0
 24 67  1  0  0  0  0
 25 76  1  0  0  0  0
 26 77  1  0  0  0  0
 27 78  1  0  0  0  0
 28 31  2  0  0  0  0
 28 76  1  0  0  0  0
 29 79  1  0  0  0  0
 30 80  1  0  0  0  0
 31 81  1  0  0  0  0
 32 61  2  0  0  0  0
 33 62  1  0  0  0  0
 33 65  1  0  0  0  0
 34 66  1  0  0  0  0
 34 71  2  0  0  0  0
 35 49  1  0  0  0  0
 35 68  1  0  0  0  0
 35 72  2  0  0  0  0
 36 58  1  0  0  0  0
 36 63  1  0  0  0  0
 36 73  2  0  0  0  0
 37 59  1  0  0  0  0
 37 69  1  0  0  0  0
 37 74  2  0  0  0  0
 38 64  1  0  0  0  0
 38 67  1  0  0  0  0
 38 75  2  0  0  0  0
 39 42  1  0  0  0  0
 40 49  1  0  0  0  0
 41 63  1  0  0  0  0
 42 44  1  0  0  0  0
 43 45  1  0  0  0  0
 43 46  1  0  0  0  0
 44 48  1  0  0  0  0
 45 50  1  0  0  0  0
 46 64  1  0  0  0  0
 47 50  1  0  0  0  0
 47 64  1  0  0  0  0
 48 68  1  0  0  0  0
 49 63  1  0  0  0  0
 50 62  1  0  0  0  0
 51 59  1  0  0  0  0
 52 60  1  0  0  0  0
 53 60  1  0  0  0  0
 54 60  1  0  0  0  0
 55 70  1  0  0  0  0
 56 57  1  0  0  0  0
 56 77  1  0  0  0  0
 57 78  1  0  0  0  0
 58 60  1  0  0  0  0
 58 69  1  0  0  0  0
 59 70  1  0  0  0  0
 61 62  1  0  0  0  0
M  CHG  1  70   1
M  ISO  4  38 100  56 101  67 100  77 101
M  END
> <Batch ID>
0011

> <Smiles>
CNC(C)C(=O)NC(C(=O)N1Cc2cc([101O:1][101CH2:1]COc3ccc([100NH:0][100C:0](=O)N4CCCC(n5nc(-c6ccc(Oc7ccc(F)cc7F)cc6)c(C(N)=O)c5N)C4)c(F)c3)ccc2CC1C(=O)NC1CCCc2ccccc21)C(C)(C)C

> <Shape>
0.293

> <Color>
0.123

> <Negative vol penalty>
0.000

$$$$

  -OEChem-04042320433D

 91101  0     1  0  0  0  0  0999 V2000
  -27.7102  -38.9467   24.0476 C   0  0  0  0  0  0  0  0  0  0  0  0
  -28.2355  -37.8830   24.7743 C   0  0  0  0  0  0  0  0  0  0  0  0
  -25.3266   -7.6282   22.0411 C   0  0  0  0  0  0  0  0  0  0  0  0
  -24.2536   -8.7361   20.1815 C   0  0  0  0  0  0  0  0  0  0  0  0
  -26.3576  -38.9581   23.7095 C   0  0  0  0  0  0  0  0  0  0  0  0
  -27.4081  -36.8305   25.1642 C   0  0  0  0  0  0  0  0  0  0  0  0
  -28.8055  -30.0640   23.1262 C   0  0  0  0  0  0  0  0  0  0  0  0
  -28.3582  -22.2640   19.7381 C   0  0  0  0  0  0  0  0  0  0  0  0
  -28.3060  -20.9304   19.3329 C   0  0  0  0  0  0  0  0  0  0  0  0
  -24.0773   -7.3388   22.5896 C   0  0  0  0  0  0  0  0  0  0  0  0
  -23.0042   -8.4466   20.7300 C   0  0  0  0  0  0  0  0  0  0  0  0
  -29.1230  -28.7167   22.9530 C   0  0  0  0  0  0  0  0  0  0  0  0
  -21.6008   -5.0899   22.0967 C   0  0  0  0  0  0  0  0  0  0  0  0
  -21.3894   -3.7997   22.5827 C   0  0  0  0  0  0  0  0  0  0  0  0
  -27.0786  -28.0795   24.0764 C   0  0  0  0  0  0  0  0  0  0  0  0
  -30.6757  -22.3779   19.0649 C   0  0  0  0  0  0  0  0  0  0  0  0
  -20.9506   -4.6999   24.7815 C   0  0  0  0  0  0  0  0  0  0  0  0
  -25.4148   -8.3269   20.8370 C   0  0  0  0  0  0  0  0  0  0  0  0
  -27.6962   -7.7067   19.8788 C   0  0  0  0  0  0  0  0  0  0  0  0
  -25.5153  -37.9005   24.0872 C   0  0  0  0  0  0  0  0  0  0  0  0
  -27.6144  -30.4246   23.7623 C   0  0  0  0  0  0  0  0  0  0  0  0
  -26.0427  -36.8284   24.8320 C   0  0  0  0  0  0  0  0  0  0  0  0
  -26.7492  -29.4274   24.2417 C   0  0  0  0  0  0  0  0  0  0  0  0
  -29.5431  -22.9878   19.6041 C   0  0  0  0  0  0  0  0  0  0  0  0
  -29.4386  -20.3204   18.7936 C   0  0  0  0  0  0  0  0  0  0  0  0
  -22.9160   -7.7480   21.9341 C   0  0  0  0  0  0  0  0  0  0  0  0
  -28.2618  -27.7269   23.4271 C   0  0  0  0  0  0  0  0  0  0  0  0
  -21.4872   -6.1851   22.9531 C   0  0  0  0  0  0  0  0  0  0  0  0
  -21.0642   -3.6047   23.9251 C   0  0  0  0  0  0  0  0  0  0  0  0
  -30.6235  -21.0442   18.6596 C   0  0  0  0  0  0  0  0  0  0  0  0
  -21.1621   -5.9901   24.2954 C   0  0  0  0  0  0  0  0  0  0  0  0
  -26.7051   -8.6267   20.2702 C   0  0  0  0  0  0  0  0  0  0  0  0
  -28.7227   -8.4878   19.4070 C   0  0  0  0  0  0  0  0  0  0  0  0
  -27.6895   -6.2741   19.9366 C   0  0  0  0  0  0  0  0  0  0  0  0
  -25.3725  -33.1960   24.9323 C   0  0  0  0  0  0  0  0  0  0  0  0
  -23.5578  -31.0110   23.7735 C   0  0  0  0  0  0  0  0  0  0  0  0
  -21.9454  -28.5612   22.0312 C   0  0  0  0  0  0  0  0  0  0  0  0
  -28.9518  -13.7582   17.0032 C   0  0  0  0  0  0  0  0  0  0  0  0
  -24.0499  -37.9799   23.7395 C   0  0  0  0  0  0  0  0  0  0  0  0
  -27.2614  -31.8634   24.0253 C   0  0  0  0  0  0  0  0  0  0  0  0
  -25.4956  -29.8621   24.9505 C   0  0  0  0  0  0  0  0  0  0  0  0
  -23.3202  -36.6453   23.8680 C   0  0  0  0  0  0  0  0  0  0  0  0
  -30.6964  -12.8064   19.9226 C   0  0  0  0  0  0  0  0  0  0  0  0
  -23.6817  -35.9637   25.1839 C   0  0  0  0  0  0  0  0  0  0  0  0
  -29.9555  -11.5288   20.3148 C   0  0  0  0  0  0  0  0  0  0  0  0
  -30.4854  -16.7939   18.1021 C   0  0  0  0  0  0  0  0  0  0  0  0
  -28.3017  -17.2726   16.9752 C   0  0  0  0  0  0  0  0  0  0  0  0
  -30.1490  -24.6499   23.6924 C   0  0  0  0  0  0  0  0  0  0  0  0
  -29.7440  -13.8888   19.4109 C   0  0  0  0  0  0  0  0  0  0  0  0
  -30.2786  -18.0031   19.0142 C   0  0  0  0  0  0  0  0  0  0  0  0
  -28.0958  -18.4770   17.8927 C   0  0  0  0  0  0  0  0  0  0  0  0
  -28.1212  -12.1602   18.7029 C   0  0  0  0  0  0  0  0  0  0  0  0
  -29.7612  -23.8265   22.4807 C   0  0  0  0  0  0  0  0  0  0  0  0
  -30.4530  -26.0662   21.7703 C   0  0  0  0  0  0  0  0  0  0  0  0
  -25.1825  -35.6562   25.2519 C   0  0  1  0  0  0  0  0  0  0  0  0
  -25.7500  -32.1401   23.9354 C   0  0  1  0  0  0  0  0  0  0  0  0
  -29.0615  -11.0359   19.1639 C   0  0  2  0  0  0  0  0  0  0  0  0
  -29.1554  -16.1976   17.6456 C   0  0  0  0  0  0  0  0  0  0  0  0
  -29.9621  -26.0779   23.2096 C   0  0  1  0  0  0  0  0  0  1  0  0
  -19.6550  -27.8536   21.2891 C   0  0  0  0  0  0  0  0  0  0  0  0
  -22.9412  -30.0526   26.6028 C   0  0  0  0  0  0  0  0  0  0  0  0
  -21.1692  -28.5701   25.6383 C   0  0  0  0  0  0  0  0  0  0  0  0
  -20.9929  -31.0459   25.3897 C   0  0  0  0  0  0  0  0  0  0  0  0
  -29.8044  -15.4216   15.3956 C   0  0  0  0  0  0  0  0  0  0  0  0
  -22.6908  -28.7364   19.1724 C   0  0  0  0  0  0  0  0  0  0  0  0
  -29.5993  -24.4223   20.0399 C   0  0  0  0  0  0  0  0  0  0  0  0
  -22.7227  -29.7852   24.0442 C   0  0  1  0  0  0  0  0  0  0  0  0
  -20.9113  -28.6278   20.9218 C   0  0  2  0  0  0  0  0  0  0  0  0
  -21.9835  -29.8614   25.4099 C   0  0  0  0  0  0  0  0  0  0  0  0
  -27.0692   -9.8952   20.0649 N   0  0  0  0  0  0  0  0  0  0  0  0
  -28.3006   -9.7779   19.5395 N   0  0  0  0  0  0  0  0  0  0  0  0
  -29.3836  -18.9811   18.3875 N   0  0  0  0  0  0  0  0  0  0  0  0
  -24.8795  -30.9905   24.2351 N   0  0  0  0  0  0  0  0  0  0  0  0
  -28.8773  -13.3634   18.3471 N   0  0  0  0  0  0  0  0  0  0  0  0
  -29.9362   -8.1901   18.8958 N   0  0  0  0  0  0  0  0  0  0  0  0
  -27.1996   -5.5632   18.8326 N   0  0  0  0  0  0  0  0  0  0  0  0
  -25.4955  -34.4879   24.4574 N   0  0  0  0  0  0  0  0  0  0  0  0
  -21.8385  -29.6315   22.8939 N   0  0  0  0  0  0  0  0  0  0  0  0
  -29.3746  -15.0701   16.7417 N   0  0  0  0  0  0  0  0  0  0  0  0
  -30.3351  -24.6152   21.3269 N   0  3  2  0  0  0  0  0  0  0  0  0
  -21.4651  -28.0549   19.6624 N   0  3  0  0  0  0  0  0  0  0  0  0
  -28.0904   -5.6435   20.9441 O   0  0  0  0  0  0  0  0  0  0  0  0
  -24.9957  -32.8645   26.0502 O   0  0  0  0  0  0  0  0  0  0  0  0
  -23.0528  -31.9646   23.1743 O   0  0  0  0  0  0  0  0  0  0  0  0
  -22.7635  -27.6489   22.1253 O   0  0  0  0  0  0  0  0  0  0  0  0
  -28.6496  -12.9840   16.0859 O   0  0  0  0  0  0  0  0  0  0  0  0
  -21.6967   -7.4655   22.4689 O   0  0  0  0  0  0  0  0  0  0  0  0
  -28.5757  -26.4135   23.2507 O   0  0  0  0  0  0  0  0  0  1  0  0
  -20.8597   -2.3657   24.3913 F   0  0  0  0  0  0  0  0  0  0  0  0
  -31.7180  -20.4679   18.1425 F   0  0  0  0  0  0  0  0  0  0  0  0
  -21.0504   -7.0384   25.1227 F   0  0  0  0  0  0  0  0  0  0  0  0
  1  2  1  0  0  0  0
  1  5  2  0  0  0  0
  2  6  2  0  0  0  0
  3 10  2  0  0  0  0
  3 18  1  0  0  0  0
  4 11  1  0  0  0  0
  4 18  2  0  0  0  0
  5 20  1  0  0  0  0
  6 22  1  0  0  0  0
  7 12  2  0  0  0  0
  7 21  1  0  0  0  0
  8  9  2  0  0  0  0
  8 24  1  0  0  0  0
  9 25  1  0  0  0  0
 10 26  1  0  0  0  0
 11 26  2  0  0  0  0
 12 27  1  0  0  0  0
 13 14  2  0  0  0  0
 13 28  1  0  0  0  0
 14 29  1  0  0  0  0
 15 23  1  0  0  0  0
 15 27  2  0  0  0  0
 16 24  2  0  0  0  0
 16 30  1  0  0  0  0
 17 29  2  0  0  0  0
 17 31  1  0  0  0  0
 18 32  1  0  0  0  0
 19 32  1  0  0  0  0
 19 33  2  0  0  0  0
 19 34  1  0  0  0  0
 20 22  2  0  0  0  0
 20 39  1  0  0  0  0
 21 23  2  0  0  0  0
 21 40  1  0  0  0  0
 22 55  1  0  0  0  0
 23 41  1  0  0  0  0
 24 66  1  0  0  0  0
 25 30  2  0  0  0  0
 25 72  1  0  0  0  0
 26 87  1  0  0  0  0
 27 88  1  0  0  0  0
 28 31  2  0  0  0  0
 28 87  1  0  0  0  0
 29 89  1  0  0  0  0
 30 90  1  0  0  0  0
 31 91  1  0  0  0  0
 32 70  2  0  0  0  0
 33 71  1  0  0  0  0
 33 75  1  0  0  0  0
 34 76  1  0  0  0  0
 34 82  2  0  0  0  0
 35 56  1  0  0  0  0
 35 77  1  0  0  0  0
 35 83  2  0  0  0  0
 36 67  1  0  0  0  0
 36 73  1  0  0  0  0
 36 84  2  0  0  0  0
 37 68  1  0  0  0  0
 37 78  1  0  0  0  0
 37 85  2  0  0  0  0
 38 74  1  0  0  0  0
 38 79  1  0  0  0  0
 38 86  2  0  0  0  0
 39 42  1  0  0  0  0
 40 56  1  0  0  0  0
 41 73  1  0  0  0  0
 42 44  1  0  0  0  0
 43 45  1  0  0  0  0
 43 49  1  0  0  0  0
 44 55  1  0  0  0  0
 45 57  1  0  0  0  0
 46 50  1  0  0  0  0
 46 58  1  0  0  0  0
 47 51  1  0  0  0  0
 47 58  1  0  0  0  0
 48 53  1  0  0  0  0
 48 59  1  0  0  0  0
 49 74  1  0  0  0  0
 50 72  1  0  0  0  0
 51 72  1  0  0  0  0
 52 57  1  0  0  0  0
 52 74  1  0  0  0  0
 53 80  1  0  0  0  0
 54 59  1  0  0  0  0
 54 80  1  0  0  0  0
 55 77  1  0  0  0  0
 56 73  1  0  0  0  0
 57 71  1  0  0  0  0
 58 79  1  0  0  0  0
 59 88  1  0  0  0  0
 60 68  1  0  0  0  0
 61 69  1  0  0  0  0
 62 69  1  0  0  0  0
 63 69  1  0  0  0  0
 64 79  1  0  0  0  0
 65 81  1  0  0  0  0
 66 80  1  0  0  0  0
 67 69  1  0  0  0  0
 67 78  1  0  0  0  0
 68 81  1  0  0  0  0
 70 71  1  0  0  0  0
M  CHG  2  80   1  81   1
M  ISO  4  38 100  59 101  79 100  88 101
M  END
> <Batch ID>
0011

> <Smiles>
CNC(C)C(=O)NC(C(=O)N1Cc2cc([101O:1][101CH:1]3CCN(Cc4ccc(N5CCC([100N:0](C)[100C:0](=O)N6CCCC(n7nc(-c8ccc(Oc9ccc(F)cc9F)cc8)c(C(N)=O)c7N)C6)CC5)c(F)c4)C3)ccc2CC1C(=O)NC1CCCc2ccccc21)C(C)(C)C

> <Shape>
0.298

> <Color>
0.069

> <Negative vol penalty>
0.000

$$$$

  -OEChem-04042320433D

 83 92  0     1  0  0  0  0  0999 V2000
  -30.1906  -35.5916   18.8760 C   0  0  0  0  0  0  0  0  0  0  0  0
  -30.2952  -34.2187   18.6766 C   0  0  0  0  0  0  0  0  0  0  0  0
  -23.6428   -8.7807   20.2023 C   0  0  0  0  0  0  0  0  0  0  0  0
  -23.0371  -10.7259   21.5009 C   0  0  0  0  0  0  0  0  0  0  0  0
  -29.4547  -36.0844   19.9528 C   0  0  0  0  0  0  0  0  0  0  0  0
  -29.6648  -33.3378   19.5546 C   0  0  0  0  0  0  0  0  0  0  0  0
  -27.1230  -27.9425   18.1629 C   0  0  0  0  0  0  0  0  0  0  0  0
  -30.8476  -19.2694   19.7003 C   0  0  0  0  0  0  0  0  0  0  0  0
  -28.8512  -19.3956   18.3455 C   0  0  0  0  0  0  0  0  0  0  0  0
  -30.7134  -17.8827   19.7689 C   0  0  0  0  0  0  0  0  0  0  0  0
  -28.7171  -18.0088   18.4140 C   0  0  0  0  0  0  0  0  0  0  0  0
  -22.7152   -8.0181   20.9119 C   0  0  0  0  0  0  0  0  0  0  0  0
  -22.1094   -9.9633   22.2105 C   0  0  0  0  0  0  0  0  0  0  0  0
  -27.5858  -26.6319   18.2712 C   0  0  0  0  0  0  0  0  0  0  0  0
  -22.5237   -6.5009   23.9261 C   0  0  0  0  0  0  0  0  0  0  0  0
  -22.9272   -5.2431   24.3743 C   0  0  0  0  0  0  0  0  0  0  0  0
  -26.4531  -26.4134   20.3898 C   0  0  0  0  0  0  0  0  0  0  0  0
  -21.1672   -4.2161   23.0763 C   0  0  0  0  0  0  0  0  0  0  0  0
  -23.8038  -10.1347   20.4968 C   0  0  0  0  0  0  0  0  0  0  0  0
  -24.5387  -11.6459   18.5775 C   0  0  0  0  0  0  0  0  0  0  0  0
  -28.8069  -35.2092   20.8389 C   0  0  0  0  0  0  0  0  0  0  0  0
  -26.3295  -28.5030   19.1741 C   0  0  0  0  0  0  0  0  0  0  0  0
  -28.9206  -33.8193   20.6450 C   0  0  0  0  0  0  0  0  0  0  0  0
  -25.9794  -27.7305   20.2907 C   0  0  0  0  0  0  0  0  0  0  0  0
  -29.9164  -20.0258   18.9887 C   0  0  0  0  0  0  0  0  0  0  0  0
  -29.6482  -17.2524   19.1257 C   0  0  0  0  0  0  0  0  0  0  0  0
  -21.9485   -8.6094   21.9160 C   0  0  0  0  0  0  0  0  0  0  0  0
  -27.2533  -25.8680   19.3861 C   0  0  0  0  0  0  0  0  0  0  0  0
  -21.4419   -6.6163   23.0531 C   0  0  0  0  0  0  0  0  0  0  0  0
  -22.2490   -4.1007   23.9493 C   0  0  0  0  0  0  0  0  0  0  0  0
  -20.7637   -5.4739   22.6282 C   0  0  0  0  0  0  0  0  0  0  0  0
  -24.7622  -10.9228   19.7645 C   0  0  0  0  0  0  0  0  0  0  0  0
  -25.7539  -12.2175   18.2896 C   0  0  0  0  0  0  0  0  0  0  0  0
  -23.3397  -11.7882   17.8043 C   0  0  0  0  0  0  0  0  0  0  0  0
  -26.6413  -30.9585   21.1684 C   0  0  0  0  0  0  0  0  0  0  0  0
  -23.5850  -30.2067   21.9531 C   0  0  0  0  0  0  0  0  0  0  0  0
  -21.1232  -27.8465   22.0798 C   0  0  0  0  0  0  0  0  0  0  0  0
  -30.3473  -14.9457   19.8583 C   0  0  0  0  0  0  0  0  0  0  0  0
  -28.0620  -35.7877   22.0157 C   0  0  0  0  0  0  0  0  0  0  0  0
  -25.8161  -29.9094   19.0296 C   0  0  0  0  0  0  0  0  0  0  0  0
  -25.1135  -28.2788   21.3943 C   0  0  0  0  0  0  0  0  0  0  0  0
  -27.1136  -34.7955   22.6838 C   0  0  0  0  0  0  0  0  0  0  0  0
  -30.3308  -11.4122   20.2959 C   0  0  0  0  0  0  0  0  0  0  0  0
  -27.8082  -33.4544   22.8978 C   0  0  0  0  0  0  0  0  0  0  0  0
  -28.8622  -11.0294   20.0990 C   0  0  0  0  0  0  0  0  0  0  0  0
  -27.8849  -23.1582   21.4186 C   0  0  0  0  0  0  0  0  0  0  0  0
  -30.4761  -12.7512   21.0169 C   0  0  0  0  0  0  0  0  0  0  0  0
  -28.2633  -13.4818   20.2178 C   0  0  0  0  0  0  0  0  0  0  0  0
  -28.2572  -21.9225   20.6244 C   0  0  0  0  0  0  0  0  0  0  0  0
  -29.8576  -23.7172   20.1581 C   0  0  0  0  0  0  0  0  0  0  0  0
  -28.2305  -32.8323   21.5614 C   0  0  1  0  0  0  0  0  0  0  0  0
  -25.4409  -30.5485   20.3630 C   0  0  1  0  0  0  0  0  0  0  0  0
  -28.0658  -12.1715   19.4381 C   0  0  2  0  0  0  0  0  0  0  0  0
  -28.5241  -24.2824   20.6217 C   0  0  1  0  0  0  0  0  0  1  0  0
  -18.7440  -27.5188   22.8077 C   0  0  0  0  0  0  0  0  0  0  0  0
  -24.4947  -30.0833   24.8629 C   0  0  0  0  0  0  0  0  0  0  0  0
  -22.3803  -28.8545   25.3991 C   0  0  0  0  0  0  0  0  0  0  0  0
  -22.2764  -31.1826   24.5091 C   0  0  0  0  0  0  0  0  0  0  0  0
  -20.2500  -27.1911   19.3290 C   0  0  0  0  0  0  0  0  0  0  0  0
  -30.0608  -21.5174   18.9151 C   0  0  0  0  0  0  0  0  0  0  0  0
  -22.9345  -29.2931   22.9636 C   0  0  1  0  0  0  0  0  0  0  0  0
  -19.6661  -27.8870   21.6558 C   0  0  2  0  0  0  0  0  0  0  0  0
  -23.0394  -29.8434   24.4140 C   0  0  0  0  0  0  0  0  0  0  0  0
  -26.0206  -11.0241   20.2007 N   0  0  0  0  0  0  0  0  0  0  0  0
  -26.5987  -11.8174   19.2828 N   0  0  0  0  0  0  0  0  0  0  0  0
  -24.6414  -29.6610   21.2100 N   0  0  0  0  0  0  0  0  0  0  0  0
  -29.6983  -13.7859   20.3321 N   0  0  0  0  0  0  0  0  0  0  0  0
  -26.1716  -13.0183   17.2863 N   0  0  0  0  0  0  0  0  0  0  0  0
  -22.1804  -11.1337   18.2425 N   0  0  0  0  0  0  0  0  0  0  0  0
  -29.5118  -15.8437   19.1949 N   0  0  0  0  0  0  0  0  0  0  0  0
  -27.0901  -32.2372   20.8981 N   0  0  0  0  0  0  0  0  0  0  0  0
  -21.5667  -29.0819   22.5021 N   0  0  0  0  0  0  0  0  0  0  0  0
  -29.6743  -22.2066   20.1841 N   0  3  2  0  0  0  0  0  0  0  0  0
  -19.4255  -26.9319   20.5373 N   0  3  0  0  0  0  0  0  0  0  0  0
  -23.3017  -12.4620   16.7469 O   0  0  0  0  0  0  0  0  0  0  0  0
  -27.1238  -30.1734   21.9762 O   0  0  0  0  0  0  0  0  0  0  0  0
  -23.1664  -31.3597   21.8226 O   0  0  0  0  0  0  0  0  0  0  0  0
  -21.7991  -26.8207   22.0439 O   0  0  0  0  0  0  0  0  0  0  0  0
  -31.5604  -15.1161   20.0046 O   0  0  0  0  0  0  0  0  0  0  0  0
  -21.0431   -7.8656   22.6085 O   0  0  0  0  0  0  0  0  0  0  0  0
  -27.7042  -24.5887   19.4946 O   0  0  0  0  0  0  0  0  0  1  0  0
  -22.6375   -2.8928   24.3785 F   0  0  0  0  0  0  0  0  0  0  0  0
  -19.7245   -5.5783   21.7886 F   0  0  0  0  0  0  0  0  0  0  0  0
  1  2  1  0  0  0  0
  1  5  2  0  0  0  0
  2  6  2  0  0  0  0
  3 12  2  0  0  0  0
  3 19  1  0  0  0  0
  4 13  1  0  0  0  0
  4 19  2  0  0  0  0
  5 21  1  0  0  0  0
  6 23  1  0  0  0  0
  7 14  2  0  0  0  0
  7 22  1  0  0  0  0
  8 10  2  0  0  0  0
  8 25  1  0  0  0  0
  9 11  1  0  0  0  0
  9 25  2  0  0  0  0
 10 26  1  0  0  0  0
 11 26  2  0  0  0  0
 12 27  1  0  0  0  0
 13 27  2  0  0  0  0
 14 28  1  0  0  0  0
 15 16  2  0  0  0  0
 15 29  1  0  0  0  0
 16 30  1  0  0  0  0
 17 24  1  0  0  0  0
 17 28  2  0  0  0  0
 18 30  2  0  0  0  0
 18 31  1  0  0  0  0
 19 32  1  0  0  0  0
 20 32  1  0  0  0  0
 20 33  2  0  0  0  0
 20 34  1  0  0  0  0
 21 23  2  0  0  0  0
 21 39  1  0  0  0  0
 22 24  2  0  0  0  0
 22 40  1  0  0  0  0
 23 51  1  0  0  0  0
 24 41  1  0  0  0  0
 25 60  1  0  0  0  0
 26 70  1  0  0  0  0
 27 80  1  0  0  0  0
 28 81  1  0  0  0  0
 29 31  2  0  0  0  0
 29 80  1  0  0  0  0
 30 82  1  0  0  0  0
 31 83  1  0  0  0  0
 32 64  2  0  0  0  0
 33 65  1  0  0  0  0
 33 68  1  0  0  0  0
 34 69  1  0  0  0  0
 34 75  2  0  0  0  0
 35 52  1  0  0  0  0
 35 71  1  0  0  0  0
 35 76  2  0  0  0  0
 36 61  1  0  0  0  0
 36 66  1  0  0  0  0
 36 77  2  0  0  0  0
 37 62  1  0  0  0  0
 37 72  1  0  0  0  0
 37 78  2  0  0  0  0
 38 67  1  0  0  0  0
 38 70  1  0  0  0  0
 38 79  2  0  0  0  0
 39 42  1  0  0  0  0
 40 52  1  0  0  0  0
 41 66  1  0  0  0  0
 42 44  1  0  0  0  0
 43 45  1  0  0  0  0
 43 47  1  0  0  0  0
 44 51  1  0  0  0  0
 45 53  1  0  0  0  0
 46 49  1  0  0  0  0
 46 54  1  0  0  0  0
 47 67  1  0  0  0  0
 48 53  1  0  0  0  0
 48 67  1  0  0  0  0
 49 73  1  0  0  0  0
 50 54  1  0  0  0  0
 50 73  1  0  0  0  0
 51 71  1  0  0  0  0
 52 66  1  0  0  0  0
 53 65  1  0  0  0  0
 54 81  1  0  0  0  0
 55 62  1  0  0  0  0
 56 63  1  0  0  0  0
 57 63  1  0  0  0  0
 58 63  1  0  0  0  0
 59 74  1  0  0  0  0
 60 73  1  0  0  0  0
 61 63  1  0  0  0  0
 61 72  1  0  0  0  0
 62 74  1  0  0  0  0
 64 65  1  0  0  0  0
M  CHG  2  73   1  74   1
M  ISO  4  38 100  54 101  70 100  81 101
M  END
> <Batch ID>
0011

> <Smiles>
CNC(C)C(=O)NC(C(=O)N1Cc2cc([101O:1][101CH:1]3CCN(Cc4ccc([100NH:0][100C:0](=O)N5CCCC(n6nc(-c7ccc(Oc8ccc(F)cc8F)cc7)c(C(N)=O)c6N)C5)cc4)C3)ccc2CC1C(=O)NC1CCCc2ccccc21)C(C)(C)C

> <Shape>
0.303

> <Color>
0.103

> <Negative vol penalty>
0.000

$$$$

  -OEChem-04042320433D

 82 90  0     1  0  0  0  0  0999 V2000
  -28.4353  -32.7061   28.2182 C   0  0  0  0  0  0  0  0  0  0  0  0
  -28.3458  -31.6820   27.2809 C   0  0  0  0  0  0  0  0  0  0  0  0
  -24.6068   -8.6828   21.4336 C   0  0  0  0  0  0  0  0  0  0  0  0
  -23.1647  -10.6099   21.2236 C   0  0  0  0  0  0  0  0  0  0  0  0
  -27.3849  -33.6115   28.3622 C   0  0  0  0  0  0  0  0  0  0  0  0
  -27.2053  -31.5621   26.4876 C   0  0  0  0  0  0  0  0  0  0  0  0
  -28.3058  -30.6897   21.6222 C   0  0  0  0  0  0  0  0  0  0  0  0
  -26.1556  -18.0367   19.7879 C   0  0  0  0  0  0  0  0  0  0  0  0
  -28.3999  -18.4803   20.5646 C   0  0  0  0  0  0  0  0  0  0  0  0
  -23.7770   -8.1705   22.4309 C   0  0  0  0  0  0  0  0  0  0  0  0
  -22.3349  -10.0975   22.2208 C   0  0  0  0  0  0  0  0  0  0  0  0
  -28.6745  -29.3905   21.2758 C   0  0  0  0  0  0  0  0  0  0  0  0
  -25.7701  -19.3223   20.1677 C   0  0  0  0  0  0  0  0  0  0  0  0
  -28.0144  -19.7659   20.9444 C   0  0  0  0  0  0  0  0  0  0  0  0
  -20.8206   -6.5402   22.6173 C   0  0  0  0  0  0  0  0  0  0  0  0
  -20.4844   -5.1882   22.5496 C   0  0  0  0  0  0  0  0  0  0  0  0
  -26.4414  -28.9805   20.4607 C   0  0  0  0  0  0  0  0  0  0  0  0
  -21.5037   -4.8265   24.7100 C   0  0  0  0  0  0  0  0  0  0  0  0
  -24.3007   -9.9026   20.8300 C   0  0  0  0  0  0  0  0  0  0  0  0
  -25.0599  -10.2084   18.4139 C   0  0  0  0  0  0  0  0  0  0  0  0
  -26.2350  -33.5084   27.5636 C   0  0  0  0  0  0  0  0  0  0  0  0
  -26.9969  -31.1413   21.4000 C   0  0  0  0  0  0  0  0  0  0  0  0
  -26.1379  -32.4662   26.6220 C   0  0  0  0  0  0  0  0  0  0  0  0
  -26.0593  -30.2867   20.8028 C   0  0  0  0  0  0  0  0  0  0  0  0
  -27.4705  -17.6157   19.9865 C   0  0  0  0  0  0  0  0  0  0  0  0
  -22.6410   -8.8778   22.8245 C   0  0  0  0  0  0  0  0  0  0  0  0
  -26.6994  -20.1869   20.7459 C   0  0  0  0  0  0  0  0  0  0  0  0
  -27.7415  -28.5347   20.6976 C   0  0  0  0  0  0  0  0  0  0  0  0
  -21.4985   -7.0354   23.7313 C   0  0  0  0  0  0  0  0  0  0  0  0
  -20.8259   -4.3313   23.5960 C   0  0  0  0  0  0  0  0  0  0  0  0
  -21.8400   -6.1786   24.7777 C   0  0  0  0  0  0  0  0  0  0  0  0
  -25.1578  -10.4326   19.8002 C   0  0  0  0  0  0  0  0  0  0  0  0
  -26.0985  -10.9280   17.8755 C   0  0  0  0  0  0  0  0  0  0  0  0
  -24.1145   -9.4203   17.6785 C   0  0  0  0  0  0  0  0  0  0  0  0
  -24.6350  -32.1752   23.2590 C   0  0  0  0  0  0  0  0  0  0  0  0
  -23.1907  -32.7871   20.4197 C   0  0  0  0  0  0  0  0  0  0  0  0
  -22.9348  -32.0878   17.0892 C   0  0  0  0  0  0  0  0  0  0  0  0
  -29.1265  -15.7349   19.7276 C   0  0  0  0  0  0  0  0  0  0  0  0
  -25.1055  -34.4823   27.7882 C   0  0  0  0  0  0  0  0  0  0  0  0
  -26.6224  -32.5541   21.7548 C   0  0  0  0  0  0  0  0  0  0  0  0
  -24.6469  -30.7295   20.5247 C   0  0  0  0  0  0  0  0  0  0  0  0
  -24.0901  -34.5107   26.6487 C   0  0  0  0  0  0  0  0  0  0  0  0
  -30.4822  -12.5399   18.9334 C   0  0  0  0  0  0  0  0  0  0  0  0
  -23.7074  -33.0920   26.2391 C   0  0  0  0  0  0  0  0  0  0  0  0
  -29.2609  -11.6176   18.9334 C   0  0  0  0  0  0  0  0  0  0  0  0
  -30.3839  -13.6113   20.0179 C   0  0  0  0  0  0  0  0  0  0  0  0
  -27.9240  -13.4777   20.0009 C   0  0  0  0  0  0  0  0  0  0  0  0
  -24.9276  -32.3180   25.7258 C   0  0  1  0  0  0  0  0  0  0  0  0
  -25.1217  -32.7420   21.9554 C   0  0  1  0  0  0  0  0  0  0  0  0
  -27.9472  -12.4222   18.8833 C   0  0  2  0  0  0  0  0  0  0  0  0
  -21.6379  -32.7230   15.0369 C   0  0  0  0  0  0  0  0  0  0  0  0
  -20.8142  -31.1552   21.4192 C   0  0  0  0  0  0  0  0  0  0  0  0
  -19.9998  -31.0231   19.0554 C   0  0  0  0  0  0  0  0  0  0  0  0
  -20.2013  -33.2399   20.1813 C   0  0  0  0  0  0  0  0  0  0  0  0
  -25.3721  -33.0292   15.6991 C   0  0  0  0  0  0  0  0  0  0  0  0
  -26.6764  -23.8123   20.7993 C   0  0  0  0  0  0  0  0  0  0  0  0
  -27.7164  -24.9244   20.7195 C   0  0  0  0  0  0  0  0  0  0  0  0
  -27.3204  -22.4594   21.0714 C   0  0  0  0  0  0  0  0  0  0  0  0
  -27.0778  -26.2698   20.4050 C   0  0  0  0  0  0  0  0  0  1  0  0
  -22.2967  -32.0084   19.4852 C   0  0  1  0  0  0  0  0  0  0  0  0
  -22.8805  -32.9923   15.8712 C   0  0  2  0  0  0  0  0  0  0  0  0
  -20.8540  -31.8474   20.0422 C   0  0  0  0  0  0  0  0  0  0  0  0
  -26.1782  -11.2319   20.1225 N   0  0  0  0  0  0  0  0  0  0  0  0
  -26.7310  -11.5163   18.9310 N   0  0  0  0  0  0  0  0  0  0  0  0
  -24.3273  -32.1181   20.8953 N   0  0  0  0  0  0  0  0  0  0  0  0
  -29.1157  -14.3353   19.9056 N   0  0  0  0  0  0  0  0  0  0  0  0
  -26.5234  -11.1086   16.6069 N   0  0  0  0  0  0  0  0  0  0  0  0
  -23.1114   -8.7460   18.3881 N   0  0  0  0  0  0  0  0  0  0  0  0
  -27.8623  -16.3097   19.6008 N   0  0  0  0  0  0  0  0  0  0  0  0
  -25.2473  -32.7184   24.3723 N   0  0  0  0  0  0  0  0  0  0  0  0
  -22.3669  -32.6850   18.1946 N   0  0  0  0  0  0  0  0  0  0  0  0
  -24.0791  -32.7769   15.0123 N   0  3  0  0  0  0  0  0  0  0  0  0
  -24.1679   -9.3037   16.4307 O   0  0  0  0  0  0  0  0  0  0  0  0
  -23.7670  -31.3102   23.2552 O   0  0  0  0  0  0  0  0  0  0  0  0
  -22.8953  -33.9488   20.7110 O   0  0  0  0  0  0  0  0  0  0  0  0
  -23.4280  -30.9624   17.0617 O   0  0  0  0  0  0  0  0  0  0  0  0
  -30.1805  -16.3728   19.6632 O   0  0  0  0  0  0  0  0  0  0  0  0
  -21.8309   -8.3781   23.7974 O   0  0  0  0  0  0  0  0  0  0  0  0
  -26.3207  -21.4501   21.1190 O   0  0  0  0  0  0  0  0  0  0  0  0
  -28.0986  -27.2660   20.3592 O   0  0  0  0  0  0  0  0  0  1  0  0
  -20.5016   -3.0333   23.5315 F   0  0  0  0  0  0  0  0  0  0  0  0
  -22.4902   -6.6487   25.8510 F   0  0  0  0  0  0  0  0  0  0  0  0
  1  2  1  0  0  0  0
  1  5  2  0  0  0  0
  2  6  2  0  0  0  0
  3 10  2  0  0  0  0
  3 19  1  0  0  0  0
  4 11  1  0  0  0  0
  4 19  2  0  0  0  0
  5 21  1  0  0  0  0
  6 23  1  0  0  0  0
  7 12  2  0  0  0  0
  7 22  1  0  0  0  0
  8 13  2  0  0  0  0
  8 25  1  0  0  0  0
  9 14  1  0  0  0  0
  9 25  2  0  0  0  0
 10 26  1  0  0  0  0
 11 26  2  0  0  0  0
 12 28  1  0  0  0  0
 13 27  1  0  0  0  0
 14 27  2  0  0  0  0
 15 16  2  0  0  0  0
 15 29  1  0  0  0  0
 16 30  1  0  0  0  0
 17 24  1  0  0  0  0
 17 28  2  0  0  0  0
 18 30  2  0  0  0  0
 18 31  1  0  0  0  0
 19 32  1  0  0  0  0
 20 32  1  0  0  0  0
 20 33  2  0  0  0  0
 20 34  1  0  0  0  0
 21 23  2  0  0  0  0
 21 39  1  0  0  0  0
 22 24  2  0  0  0  0
 22 40  1  0  0  0  0
 23 48  1  0  0  0  0
 24 41  1  0  0  0  0
 25 69  1  0  0  0  0
 26 78  1  0  0  0  0
 27 79  1  0  0  0  0
 28 80  1  0  0  0  0
 29 31  2  0  0  0  0
 29 78  1  0  0  0  0
 30 81  1  0  0  0  0
 31 82  1  0  0  0  0
 32 63  2  0  0  0  0
 33 64  1  0  0  0  0
 33 67  1  0  0  0  0
 34 68  1  0  0  0  0
 34 73  2  0  0  0  0
 35 49  1  0  0  0  0
 35 70  1  0  0  0  0
 35 74  2  0  0  0  0
 36 60  1  0  0  0  0
 36 65  1  0  0  0  0
 36 75  2  0  0  0  0
 37 61  1  0  0  0  0
 37 71  1  0  0  0  0
 37 76  2  0  0  0  0
 38 66  1  0  0  0  0
 38 69  1  0  0  0  0
 38 77  2  0  0  0  0
 39 42  1  0  0  0  0
 40 49  1  0  0  0  0
 41 65  1  0  0  0  0
 42 44  1  0  0  0  0
 43 45  1  0  0  0  0
 43 46  1  0  0  0  0
 44 48  1  0  0  0  0
 45 50  1  0  0  0  0
 46 66  1  0  0  0  0
 47 50  1  0  0  0  0
 47 66  1  0  0  0  0
 48 70  1  0  0  0  0
 49 65  1  0  0  0  0
 50 64  1  0  0  0  0
 51 61  1  0  0  0  0
 52 62  1  0  0  0  0
 53 62  1  0  0  0  0
 54 62  1  0  0  0  0
 55 72  1  0  0  0  0
 56 57  1  0  0  0  0
 56 58  1  0  0  0  0
 57 59  1  0  0  0  0
 58 79  1  0  0  0  0
 59 80  1  0  0  0  0
 60 62  1  0  0  0  0
 60 71  1  0  0  0  0
 61 72  1  0  0  0  0
 63 64  1  0  0  0  0
M  CHG  1  72   1
M  ISO  4  38 100  59 101  69 100  80 101
M  END
> <Batch ID>
0011

> <Smiles>
CNC(C)C(=O)NC(C(=O)N1Cc2cc([101O:1][101CH2:1]CCCOc3ccc([100NH:0][100C:0](=O)N4CCCC(n5nc(-c6ccc(Oc7ccc(F)cc7F)cc6)c(C(N)=O)c5N)C4)cc3)ccc2CC1C(=O)NC1CCCc2ccccc21)C(C)(C)C

> <Shape>
0.243

> <Color>
0.082

> <Negative vol penalty>
0.000

$$$$

  -OEChem-04042320433D

 82 91  0     1  0  0  0  0  0999 V2000
  -26.6906  -37.0968   19.7128 C   0  0  0  0  0  0  0  0  0  0  0  0
  -27.2644  -35.8434   19.5250 C   0  0  0  0  0  0  0  0  0  0  0  0
  -22.8131  -10.7649   21.1579 C   0  0  0  0  0  0  0  0  0  0  0  0
  -24.6402   -9.2301   21.5367 C   0  0  0  0  0  0  0  0  0  0  0  0
  -25.7842  -37.2985   20.7529 C   0  0  0  0  0  0  0  0  0  0  0  0
  -26.9328  -34.7912   20.3778 C   0  0  0  0  0  0  0  0  0  0  0  0
  -26.4407  -28.8687   18.8988 C   0  0  0  0  0  0  0  0  0  0  0  0
  -28.4939  -19.7102   18.9140 C   0  0  0  0  0  0  0  0  0  0  0  0
  -21.9125   -9.7002   21.1880 C   0  0  0  0  0  0  0  0  0  0  0  0
  -23.7395   -8.1654   21.5669 C   0  0  0  0  0  0  0  0  0  0  0  0
  -27.3162  -27.7922   19.0342 C   0  0  0  0  0  0  0  0  0  0  0  0
  -28.6072  -21.0590   19.2636 C   0  0  0  0  0  0  0  0  0  0  0  0
  -21.5578   -6.8122   23.7645 C   0  0  0  0  0  0  0  0  0  0  0  0
  -21.7081   -5.8668   24.7790 C   0  0  0  0  0  0  0  0  0  0  0  0
  -26.2329  -27.1789   21.1005 C   0  0  0  0  0  0  0  0  0  0  0  0
  -26.2055  -21.3601   19.0635 C   0  0  0  0  0  0  0  0  0  0  0  0
  -22.0344   -4.1398   23.1212 C   0  0  0  0  0  0  0  0  0  0  0  0
  -24.1770  -10.5298   21.3321 C   0  0  0  0  0  0  0  0  0  0  0  0
  -25.5384  -12.4102   22.3898 C   0  0  0  0  0  0  0  0  0  0  0  0
  -25.4341  -36.2458   21.6130 C   0  0  0  0  0  0  0  0  0  0  0  0
  -25.4601  -29.1152   19.8704 C   0  0  0  0  0  0  0  0  0  0  0  0
  -26.0219  -34.9793   21.4312 C   0  0  0  0  0  0  0  0  0  0  0  0
  -25.3445  -28.2577   20.9738 C   0  0  0  0  0  0  0  0  0  0  0  0
  -26.1011  -20.0200   18.7252 C   0  0  0  0  0  0  0  0  0  0  0  0
  -27.2306  -19.2032   18.6473 C   0  0  0  0  0  0  0  0  0  0  0  0
  -22.3757   -8.4005   21.3926 C   0  0  0  0  0  0  0  0  0  0  0  0
  -27.2143  -26.9488   20.1367 C   0  0  0  0  0  0  0  0  0  0  0  0
  -27.4714  -21.8784   19.3381 C   0  0  0  0  0  0  0  0  0  0  0  0
  -21.6458   -6.4214   22.4283 C   0  0  0  0  0  0  0  0  0  0  0  0
  -21.9464   -4.5306   24.4574 C   0  0  0  0  0  0  0  0  0  0  0  0
  -21.8841   -5.0852   22.1067 C   0  0  0  0  0  0  0  0  0  0  0  0
  -25.1079  -11.6292   21.3005 C   0  0  0  0  0  0  0  0  0  0  0  0
  -26.4133  -13.3146   21.8393 C   0  0  0  0  0  0  0  0  0  0  0  0
  -25.1795  -12.3257   23.7753 C   0  0  0  0  0  0  0  0  0  0  0  0
  -24.8302  -31.5088   21.8648 C   0  0  0  0  0  0  0  0  0  0  0  0
  -22.1800  -29.7547   22.5143 C   0  0  0  0  0  0  0  0  0  0  0  0
  -20.6641  -26.6972   22.5411 C   0  0  0  0  0  0  0  0  0  0  0  0
  -27.7430  -16.9194   17.8107 C   0  0  0  0  0  0  0  0  0  0  0  0
  -24.4857  -36.5239   22.7522 C   0  0  0  0  0  0  0  0  0  0  0  0
  -24.5060  -30.2649   19.6960 C   0  0  0  0  0  0  0  0  0  0  0  0
  -24.8645  -19.2787   18.3314 C   0  0  0  0  0  0  0  0  0  0  0  0
  -24.2959  -28.4671   22.0345 C   0  0  0  0  0  0  0  0  0  0  0  0
  -23.9026  -35.2613   23.3815 C   0  0  0  0  0  0  0  0  0  0  0  0
  -28.5184  -13.5185   17.2641 C   0  0  0  0  0  0  0  0  0  0  0  0
  -25.0015  -34.2338   23.6332 C   0  0  0  0  0  0  0  0  0  0  0  0
  -27.7149  -12.7765   18.3288 C   0  0  0  0  0  0  0  0  0  0  0  0
  -25.3749  -17.8332   18.2746 C   0  0  0  0  0  0  0  0  0  0  0  0
  -27.7280  -14.6989   16.7164 C   0  0  0  0  0  0  0  0  0  0  0  0
  -26.5221  -14.9632   18.8697 C   0  0  0  0  0  0  0  0  0  0  0  0
  -25.6687  -33.8067   22.3202 C   0  0  1  0  0  0  0  0  0  0  0  0
  -23.8774  -30.7240   21.0081 C   0  0  1  0  0  0  0  0  0  0  0  0
  -27.2687  -13.7396   19.4399 C   0  0  1  0  0  0  0  0  0  0  0  0
  -18.5084  -25.5727   23.1622 C   0  0  0  0  0  0  0  0  0  0  0  0
  -22.9481  -29.9164   25.4628 C   0  0  0  0  0  0  0  0  0  0  0  0
  -21.3558  -28.0364   25.9088 C   0  0  0  0  0  0  0  0  0  0  0  0
  -20.5061  -30.2002   25.0038 C   0  0  0  0  0  0  0  0  0  0  0  0
  -20.1880  -25.8139   19.7568 C   0  0  0  0  0  0  0  0  0  0  0  0
  -28.5631  -25.3046   19.0722 C   0  0  0  0  0  0  0  0  0  1  0  0
  -28.8286  -23.8311   19.3129 C   0  0  0  0  0  0  0  0  0  0  0  0
  -21.8349  -28.6636   23.4988 C   0  0  1  0  0  0  0  0  0  0  0  0
  -19.3003  -26.2448   22.0514 C   0  0  2  0  0  0  0  0  0  0  0  0
  -21.6823  -29.2010   24.9497 C   0  0  0  0  0  0  0  0  0  0  0  0
  -25.6635  -12.0046   20.1454 N   0  0  0  0  0  0  0  0  0  0  0  0
  -26.4520  -13.0315   20.5057 N   0  0  0  0  0  0  0  0  0  0  0  0
  -26.8579  -17.8874   18.2902 N   0  0  0  0  0  0  0  0  0  0  0  0
  -23.3906  -29.6086   21.8224 N   0  0  0  0  0  0  0  0  0  0  0  0
  -27.2804  -15.5954   17.7832 N   0  0  0  0  0  0  0  0  0  0  0  0
  -27.1456  -14.3164   22.3708 N   0  0  0  0  0  0  0  0  0  0  0  0
  -24.2669  -11.3379   24.1701 N   0  0  0  0  0  0  0  0  0  0  0  0
  -24.8290  -32.8668   21.6090 N   0  0  0  0  0  0  0  0  0  0  0  0
  -20.6421  -28.0052   22.9770 N   0  0  0  0  0  0  0  0  0  0  0  0
  -19.4482  -25.2769   20.9279 N   0  3  0  0  0  0  0  0  0  0  0  0
  -25.6415  -13.1136   24.6352 O   0  0  0  0  0  0  0  0  0  0  0  0
  -25.5146  -30.9257   22.6975 O   0  0  0  0  0  0  0  0  0  0  0  0
  -21.4005  -30.6982   22.3594 O   0  0  0  0  0  0  0  0  0  0  0  0
  -21.6494  -25.9626   22.5407 O   0  0  0  0  0  0  0  0  0  0  0  0
  -28.8592  -17.2075   17.3616 O   0  0  0  0  0  0  0  0  0  0  0  0
  -21.4971   -7.3614   21.4223 O   0  0  0  0  0  0  0  0  0  0  0  0
  -28.0738  -25.8906   20.2726 O   0  0  0  0  0  0  0  0  0  1  0  0
  -27.6071  -23.1909   19.6765 O   0  0  0  0  0  0  0  0  0  0  0  0
  -22.0922   -3.6231   25.4317 F   0  0  0  0  0  0  0  0  0  0  0  0
  -21.9708   -4.7040   20.8249 F   0  0  0  0  0  0  0  0  0  0  0  0
  1  2  1  0  0  0  0
  1  5  2  0  0  0  0
  2  6  2  0  0  0  0
  3  9  2  0  0  0  0
  3 18  1  0  0  0  0
  4 10  1  0  0  0  0
  4 18  2  0  0  0  0
  5 20  1  0  0  0  0
  6 22  1  0  0  0  0
  7 11  2  0  0  0  0
  7 21  1  0  0  0  0
  8 12  2  0  0  0  0
  8 25  1  0  0  0  0
  9 26  1  0  0  0  0
 10 26  2  0  0  0  0
 11 27  1  0  0  0  0
 12 28  1  0  0  0  0
 13 14  2  0  0  0  0
 13 29  1  0  0  0  0
 14 30  1  0  0  0  0
 15 23  1  0  0  0  0
 15 27  2  0  0  0  0
 16 24  1  0  0  0  0
 16 28  2  0  0  0  0
 17 30  2  0  0  0  0
 17 31  1  0  0  0  0
 18 32  1  0  0  0  0
 19 32  1  0  0  0  0
 19 33  2  0  0  0  0
 19 34  1  0  0  0  0
 20 22  2  0  0  0  0
 20 39  1  0  0  0  0
 21 23  2  0  0  0  0
 21 40  1  0  0  0  0
 22 50  1  0  0  0  0
 23 42  1  0  0  0  0
 24 25  2  0  0  0  0
 24 41  1  0  0  0  0
 25 65  1  0  0  0  0
 26 78  1  0  0  0  0
 27 79  1  0  0  0  0
 28 80  1  0  0  0  0
 29 31  2  0  0  0  0
 29 78  1  0  0  0  0
 30 81  1  0  0  0  0
 31 82  1  0  0  0  0
 32 63  2  0  0  0  0
 33 64  1  0  0  0  0
 33 68  1  0  0  0  0
 34 69  1  0  0  0  0
 34 73  2  0  0  0  0
 35 51  1  0  0  0  0
 35 70  1  0  0  0  0
 35 74  2  0  0  0  0
 36 60  1  0  0  0  0
 36 66  1  0  0  0  0
 36 75  2  0  0  0  0
 37 61  1  0  0  0  0
 37 71  1  0  0  0  0
 37 76  2  0  0  0  0
 38 65  1  0  0  0  0
 38 67  1  0  0  0  0
 38 77  2  0  0  0  0
 39 43  1  0  0  0  0
 40 51  1  0  0  0  0
 41 47  1  0  0  0  0
 42 66  1  0  0  0  0
 43 45  1  0  0  0  0
 44 46  1  0  0  0  0
 44 48  1  0  0  0  0
 45 50  1  0  0  0  0
 46 52  1  0  0  0  0
 47 65  1  0  0  0  0
 48 67  1  0  0  0  0
 49 52  1  0  0  0  0
 49 67  1  0  0  0  0
 50 70  1  0  0  0  0
 51 66  1  0  0  0  0
 52 64  1  0  0  0  0
 53 61  1  0  0  0  0
 54 62  1  0  0  0  0
 55 62  1  0  0  0  0
 56 62  1  0  0  0  0
 57 72  1  0  0  0  0
 58 59  1  0  0  0  0
 58 79  1  0  0  0  0
 59 80  1  0  0  0  0
 60 62  1  0  0  0  0
 60 71  1  0  0  0  0
 61 72  1  0  0  0  0
 63 64  1  0  0  0  0
M  CHG  1  72   1
M  ISO  4  38 100  58 101  65 100  79 101
M  END
> <Batch ID>
0011

> <Smiles>
CNC(C)C(=O)NC(C(=O)N1Cc2cc([101O:1][101CH2:1]COc3ccc4c(c3)CC[100N:0]4[100C:0](=O)N3CCCC(n4nc(-c5ccc(Oc6ccc(F)cc6F)cc5)c(C(N)=O)c4N)C3)ccc2CC1C(=O)NC1CCCc2ccccc21)C(C)(C)C

> <Shape>
0.309

> <Color>
0.117

> <Negative vol penalty>
0.000

$$$$

  -OEChem-04042320433D

 84 93  0     1  0  0  0  0  0999 V2000
  -25.9947  -35.2420   24.7680 C   0  0  0  0  0  0  0  0  0  0  0  0
  -27.0376  -34.4309   24.3323 C   0  0  0  0  0  0  0  0  0  0  0  0
  -23.7602   -9.7205   22.1753 C   0  0  0  0  0  0  0  0  0  0  0  0
  -23.2354  -12.0270   22.6670 C   0  0  0  0  0  0  0  0  0  0  0  0
  -24.7237  -34.7005   24.9558 C   0  0  0  0  0  0  0  0  0  0  0  0
  -26.8103  -33.0775   24.0852 C   0  0  0  0  0  0  0  0  0  0  0  0
  -28.9462  -27.7492   19.8000 C   0  0  0  0  0  0  0  0  0  0  0  0
  -28.9248  -19.1799   22.1399 C   0  0  0  0  0  0  0  0  0  0  0  0
  -31.2596  -18.5764   22.2859 C   0  0  0  0  0  0  0  0  0  0  0  0
  -28.6547  -17.9773   21.4870 C   0  0  0  0  0  0  0  0  0  0  0  0
  -30.9895  -17.3737   21.6330 C   0  0  0  0  0  0  0  0  0  0  0  0
  -23.0228   -9.3155   23.2879 C   0  0  0  0  0  0  0  0  0  0  0  0
  -22.4980  -11.6220   23.7796 C   0  0  0  0  0  0  0  0  0  0  0  0
  -29.4267  -26.4420   19.8643 C   0  0  0  0  0  0  0  0  0  0  0  0
  -19.7688   -8.8729   24.0930 C   0  0  0  0  0  0  0  0  0  0  0  0
  -18.8976   -7.7950   23.9359 C   0  0  0  0  0  0  0  0  0  0  0  0
  -27.1716  -25.6334   20.1473 C   0  0  0  0  0  0  0  0  0  0  0  0
  -20.1052   -6.5715   25.6336 C   0  0  0  0  0  0  0  0  0  0  0  0
  -23.8665  -11.0763   21.8649 C   0  0  0  0  0  0  0  0  0  0  0  0
  -24.1576  -11.6688   19.4008 C   0  0  0  0  0  0  0  0  0  0  0  0
  -24.4785  -33.3419   24.7017 C   0  0  0  0  0  0  0  0  0  0  0  0
  -27.5736  -28.0097   19.9199 C   0  0  0  0  0  0  0  0  0  0  0  0
  -25.5352  -32.5170   24.2711 C   0  0  0  0  0  0  0  0  0  0  0  0
  -26.6760  -26.9446   20.0816 C   0  0  0  0  0  0  0  0  0  0  0  0
  -30.2273  -19.4795   22.5393 C   0  0  0  0  0  0  0  0  0  0  0  0
  -29.6870  -17.0741   21.2336 C   0  0  0  0  0  0  0  0  0  0  0  0
  -22.3917  -10.2662   24.0900 C   0  0  0  0  0  0  0  0  0  0  0  0
  -28.5397  -25.3841   20.0409 C   0  0  0  0  0  0  0  0  0  0  0  0
  -20.8083   -8.8001   25.0203 C   0  0  0  0  0  0  0  0  0  0  0  0
  -19.0657   -6.6443   24.7062 C   0  0  0  0  0  0  0  0  0  0  0  0
  -20.9764   -7.6495   25.7906 C   0  0  0  0  0  0  0  0  0  0  0  0
  -24.6286  -11.4953   20.7160 C   0  0  0  0  0  0  0  0  0  0  0  0
  -25.2621  -12.0722   18.6910 C   0  0  0  0  0  0  0  0  0  0  0  0
  -29.4144  -22.6977   22.0361 C   0  0  0  0  0  0  0  0  0  0  0  0
  -22.8396  -11.4820   18.8682 C   0  0  0  0  0  0  0  0  0  0  0  0
  -25.7696  -29.6340   21.9720 C   0  0  0  0  0  0  0  0  0  0  0  0
  -23.4127  -28.9268   19.8584 C   0  0  0  0  0  0  0  0  0  0  0  0
  -22.2546  -26.8742   17.3901 C   0  0  0  0  0  0  0  0  0  0  0  0
  -30.3218  -14.8468   20.2424 C   0  0  0  0  0  0  0  0  0  0  0  0
  -23.0990  -32.7916   24.9645 C   0  0  0  0  0  0  0  0  0  0  0  0
  -27.0686  -29.4231   19.8216 C   0  0  0  0  0  0  0  0  0  0  0  0
  -25.1911  -27.1692   20.1954 C   0  0  0  0  0  0  0  0  0  0  0  0
  -22.8540  -31.4292   24.3210 C   0  0  0  0  0  0  0  0  0  0  0  0
  -30.0346  -11.6770   18.6464 C   0  0  0  0  0  0  0  0  0  0  0  0
  -24.0313  -30.4955   24.5832 C   0  0  0  0  0  0  0  0  0  0  0  0
  -28.5713  -11.2893   18.8711 C   0  0  0  0  0  0  0  0  0  0  0  0
  -31.2155  -23.2451   20.5728 C   0  0  0  0  0  0  0  0  0  0  0  0
  -30.6185  -12.4106   19.8525 C   0  0  0  0  0  0  0  0  0  0  0  0
  -31.7267  -22.3467   21.6818 C   0  0  0  0  0  0  0  0  0  0  0  0
  -28.3805  -13.1845   20.5320 C   0  0  0  0  0  0  0  0  0  0  0  0
  -25.3224  -31.0496   23.9687 C   0  0  1  0  0  0  0  0  0  0  0  0
  -29.9140  -23.8090   21.1343 C   0  0  1  0  0  0  0  0  0  1  0  0
  -25.7017  -29.6158   20.4711 C   0  0  1  0  0  0  0  0  0  0  0  0
  -27.7297  -12.5004   19.3187 C   0  0  2  0  0  0  0  0  0  0  0  0
  -20.2792  -26.5272   15.8819 C   0  0  0  0  0  0  0  0  0  0  0  0
  -21.8311  -27.7739   22.1992 C   0  0  0  0  0  0  0  0  0  0  0  0
  -20.3517  -26.6205   20.5410 C   0  0  0  0  0  0  0  0  0  0  0  0
  -20.4729  -29.1118   20.5806 C   0  0  0  0  0  0  0  0  0  0  0  0
  -23.9007  -27.2394   14.9578 C   0  0  0  0  0  0  0  0  0  0  0  0
  -30.5179  -20.7741   23.2420 C   0  0  0  0  0  0  0  0  0  0  0  0
  -22.4346  -27.7894   19.6889 C   0  0  1  0  0  0  0  0  0  0  0  0
  -21.6467  -27.1754   16.0321 C   0  0  2  0  0  0  0  0  0  0  0  0
  -21.3007  -27.8195   20.7523 C   0  0  0  0  0  0  0  0  0  0  0  0
  -25.9308  -11.7662   20.8374 N   0  0  0  0  0  0  0  0  0  0  0  0
  -26.2876  -12.1139   19.5892 N   0  0  0  0  0  0  0  0  0  0  0  0
  -30.5164  -21.8973   22.3301 N   0  0  0  0  0  0  0  0  0  0  0  0
  -24.7469  -28.5696   20.0996 N   0  0  0  0  0  0  0  0  0  0  0  0
  -29.7709  -13.5481   20.2166 N   0  0  0  0  0  0  0  0  0  0  0  0
  -25.4465  -12.3918   17.3924 N   0  0  0  0  0  0  0  0  0  0  0  0
  -21.8213  -11.0645   19.7360 N   0  0  0  0  0  0  0  0  0  0  0  0
  -29.4129  -15.8522   20.5706 N   0  0  0  0  0  0  0  0  0  0  0  0
  -25.3418  -30.8188   22.5402 N   0  0  0  0  0  0  0  0  0  0  0  0
  -21.9628  -27.8589   18.3101 N   0  0  0  0  0  0  0  0  0  0  0  0
  -22.5299  -26.6668   14.9449 N   0  3  0  0  0  0  0  0  0  0  0  0
  -28.2625  -22.5716   22.4231 O   0  0  0  0  0  0  0  0  0  0  0  0
  -22.5764  -11.6636   17.6552 O   0  0  0  0  0  0  0  0  0  0  0  0
  -26.1783  -28.6458   22.5704 O   0  0  0  0  0  0  0  0  0  0  0  0
  -23.0091  -30.0893   19.7727 O   0  0  0  0  0  0  0  0  0  0  0  0
  -22.9186  -25.8643   17.6135 O   0  0  0  0  0  0  0  0  0  0  0  0
  -31.5058  -15.0551   19.9653 O   0  0  0  0  0  0  0  0  0  0  0  0
  -21.6719   -9.8714   25.1756 O   0  0  0  0  0  0  0  0  0  0  0  0
  -29.0061  -24.1073   20.1048 O   0  0  0  0  0  0  0  0  0  1  0  0
  -18.2281   -5.6099   24.5564 F   0  0  0  0  0  0  0  0  0  0  0  0
  -21.9725   -7.5742   26.6839 F   0  0  0  0  0  0  0  0  0  0  0  0
  1  2  1  0  0  0  0
  1  5  2  0  0  0  0
  2  6  2  0  0  0  0
  3 12  2  0  0  0  0
  3 19  1  0  0  0  0
  4 13  1  0  0  0  0
  4 19  2  0  0  0  0
  5 21  1  0  0  0  0
  6 23  1  0  0  0  0
  7 14  2  0  0  0  0
  7 22  1  0  0  0  0
  8 10  2  0  0  0  0
  8 25  1  0  0  0  0
  9 11  1  0  0  0  0
  9 25  2  0  0  0  0
 10 26  1  0  0  0  0
 11 26  2  0  0  0  0
 12 27  1  0  0  0  0
 13 27  2  0  0  0  0
 14 28  1  0  0  0  0
 15 16  2  0  0  0  0
 15 29  1  0  0  0  0
 16 30  1  0  0  0  0
 17 24  1  0  0  0  0
 17 28  2  0  0  0  0
 18 30  2  0  0  0  0
 18 31  1  0  0  0  0
 19 32  1  0  0  0  0
 20 32  1  0  0  0  0
 20 33  2  0  0  0  0
 20 35  1  0  0  0  0
 21 23  2  0  0  0  0
 21 40  1  0  0  0  0
 22 24  2  0  0  0  0
 22 41  1  0  0  0  0
 23 51  1  0  0  0  0
 24 42  1  0  0  0  0
 25 60  1  0  0  0  0
 26 71  1  0  0  0  0
 27 81  1  0  0  0  0
 28 82  1  0  0  0  0
 29 31  2  0  0  0  0
 29 81  1  0  0  0  0
 30 83  1  0  0  0  0
 31 84  1  0  0  0  0
 32 64  2  0  0  0  0
 33 65  1  0  0  0  0
 33 69  1  0  0  0  0
 34 52  1  0  0  0  0
 34 66  1  0  0  0  0
 34 75  2  0  0  0  0
 35 70  1  0  0  0  0
 35 76  2  0  0  0  0
 36 53  1  0  0  0  0
 36 72  1  0  0  0  0
 36 77  2  0  0  0  0
 37 61  1  0  0  0  0
 37 67  1  0  0  0  0
 37 78  2  0  0  0  0
 38 62  1  0  0  0  0
 38 73  1  0  0  0  0
 38 79  2  0  0  0  0
 39 68  1  0  0  0  0
 39 71  1  0  0  0  0
 39 80  2  0  0  0  0
 40 43  1  0  0  0  0
 41 53  1  0  0  0  0
 42 67  1  0  0  0  0
 43 45  1  0  0  0  0
 44 46  1  0  0  0  0
 44 48  1  0  0  0  0
 45 51  1  0  0  0  0
 46 54  1  0  0  0  0
 47 49  1  0  0  0  0
 47 52  1  0  0  0  0
 48 68  1  0  0  0  0
 49 66  1  0  0  0  0
 50 54  1  0  0  0  0
 50 68  1  0  0  0  0
 51 72  1  0  0  0  0
 52 82  1  0  0  0  0
 53 67  1  0  0  0  0
 54 65  1  0  0  0  0
 55 62  1  0  0  0  0
 56 63  1  0  0  0  0
 57 63  1  0  0  0  0
 58 63  1  0  0  0  0
 59 74  1  0  0  0  0
 60 66  1  0  0  0  0
 61 63  1  0  0  0  0
 61 73  1  0  0  0  0
 62 74  1  0  0  0  0
 64 65  1  0  0  0  0
M  CHG  1  74   1
M  ISO  4  39 100  52 101  71 100  82 101
M  END
> <Batch ID>
0011

> <Smiles>
CNC(C)C(=O)NC(C(=O)N1Cc2cc([101O:1][101CH:1]3CCN(Cc4ccc([100NH:0][100C:0](=O)N5CCCC(n6nc(-c7ccc(Oc8ccc(F)cc8F)cc7)c(C(N)=O)c6N)C5)cc4)C3=O)ccc2CC1C(=O)NC1CCCc2ccccc21)C(C)(C)C

> <Shape>
0.282

> <Color>
0.075

> <Negative vol penalty>
0.000

$$$$

  -OEChem-04042320433D

 81 89  0     1  0  0  0  0  0999 V2000
  -17.7155  -33.3419   18.0836 C   0  0  0  0  0  0  0  0  0  0  0  0
  -18.9138  -32.9824   17.4751 C   0  0  0  0  0  0  0  0  0  0  0  0
  -24.8012  -10.2786   22.6259 C   0  0  0  0  0  0  0  0  0  0  0  0
  -24.4888  -11.7693   24.5013 C   0  0  0  0  0  0  0  0  0  0  0  0
  -17.7254  -33.9232   19.3508 C   0  0  0  0  0  0  0  0  0  0  0  0
  -20.1229  -33.2051   18.1332 C   0  0  0  0  0  0  0  0  0  0  0  0
  -24.6112  -27.7615   19.5870 C   0  0  0  0  0  0  0  0  0  0  0  0
  -29.5131  -20.7821   21.9189 C   0  0  0  0  0  0  0  0  0  0  0  0
  -24.3855   -9.2034   23.4112 C   0  0  0  0  0  0  0  0  0  0  0  0
  -24.0729  -10.6941   25.2866 C   0  0  0  0  0  0  0  0  0  0  0  0
  -25.6185  -26.8047   19.7133 C   0  0  0  0  0  0  0  0  0  0  0  0
  -29.3851  -22.1504   22.1577 C   0  0  0  0  0  0  0  0  0  0  0  0
  -21.4645   -7.9153   24.5255 C   0  0  0  0  0  0  0  0  0  0  0  0
  -20.5567   -7.0164   23.9656 C   0  0  0  0  0  0  0  0  0  0  0  0
  -27.0248  -28.4182   20.8389 C   0  0  0  0  0  0  0  0  0  0  0  0
  -27.1423  -20.6374   21.4769 C   0  0  0  0  0  0  0  0  0  0  0  0
  -22.1505   -5.2245   24.2582 C   0  0  0  0  0  0  0  0  0  0  0  0
  -24.8529  -11.5615   23.1710 C   0  0  0  0  0  0  0  0  0  0  0  0
  -24.4755  -13.5061   21.5635 C   0  0  0  0  0  0  0  0  0  0  0  0
  -18.9346  -34.1443   20.0288 C   0  0  0  0  0  0  0  0  0  0  0  0
  -24.8012  -29.0475   20.1004 C   0  0  0  0  0  0  0  0  0  0  0  0
  -20.1490  -33.7912   19.4101 C   0  0  0  0  0  0  0  0  0  0  0  0
  -26.0146  -29.3772   20.7264 C   0  0  0  0  0  0  0  0  0  0  0  0
  -28.3917  -20.0256   21.5784 C   0  0  0  0  0  0  0  0  0  0  0  0
  -24.0213   -9.4111   24.7416 C   0  0  0  0  0  0  0  0  0  0  0  0
  -26.8224  -27.1323   20.3375 C   0  0  0  0  0  0  0  0  0  0  0  0
  -22.7154   -7.4688   24.9517 C   0  0  0  0  0  0  0  0  0  0  0  0
  -28.1357  -22.7621   22.0562 C   0  0  0  0  0  0  0  0  0  0  0  0
  -20.8997   -5.6710   23.8320 C   0  0  0  0  0  0  0  0  0  0  0  0
  -27.0143  -22.0057   21.7158 C   0  0  0  0  0  0  0  0  0  0  0  0
  -23.0584   -6.1234   24.8181 C   0  0  0  0  0  0  0  0  0  0  0  0
  -25.2829  -12.6725   22.3604 C   0  0  0  0  0  0  0  0  0  0  0  0
  -25.3542  -14.3993   21.0010 C   0  0  0  0  0  0  0  0  0  0  0  0
  -23.0579  -13.4758   21.3509 C   0  0  0  0  0  0  0  0  0  0  0  0
  -23.3724  -32.4735   20.6455 C   0  0  0  0  0  0  0  0  0  0  0  0
  -24.8881  -31.7227   23.2046 C   0  0  0  0  0  0  0  0  0  0  0  0
  -26.3005  -30.3471   25.9886 C   0  0  0  0  0  0  0  0  0  0  0  0
  -29.6878  -17.8733   21.3941 C   0  0  0  0  0  0  0  0  0  0  0  0
  -18.8980  -34.8190   21.3772 C   0  0  0  0  0  0  0  0  0  0  0  0
  -23.7676  -30.1278   19.9324 C   0  0  0  0  0  0  0  0  0  0  0  0
  -26.1880  -30.7830   21.2329 C   0  0  0  0  0  0  0  0  0  0  0  0
  -20.1981  -34.6777   22.1645 C   0  0  0  0  0  0  0  0  0  0  0  0
  -30.4150  -14.4228   20.9013 C   0  0  0  0  0  0  0  0  0  0  0  0
  -21.3979  -34.9814   21.2727 C   0  0  0  0  0  0  0  0  0  0  0  0
  -29.0782  -13.7284   21.1714 C   0  0  0  0  0  0  0  0  0  0  0  0
  -30.6319  -15.6163   21.8299 C   0  0  0  0  0  0  0  0  0  0  0  0
  -28.2019  -15.9022   22.1169 C   0  0  0  0  0  0  0  0  0  0  0  0
  -21.4794  -33.9940   20.1023 C   0  0  1  0  0  0  0  0  0  0  0  0
  -23.7025  -31.0923   21.1301 C   0  0  1  0  0  0  0  0  0  0  0  0
  -27.9093  -14.7331   21.1623 C   0  0  2  0  0  0  0  0  0  0  0  0
  -26.8460  -30.8668   28.3823 C   0  0  0  0  0  0  0  0  0  0  0  0
  -27.2368  -33.4417   22.2923 C   0  0  0  0  0  0  0  0  0  0  0  0
  -28.2509  -33.1347   24.5607 C   0  0  0  0  0  0  0  0  0  0  0  0
  -26.0517  -34.2882   24.3254 C   0  0  0  0  0  0  0  0  0  0  0  0
  -24.5818  -28.1504   26.9783 C   0  0  0  0  0  0  0  0  0  0  0  0
  -28.6649  -26.3010   21.5911 C   0  0  0  0  0  0  0  0  0  1  0  0
  -29.1408  -24.9163   21.9857 C   0  0  0  0  0  0  0  0  0  0  0  0
  -26.1840  -31.7882   23.9726 C   0  0  1  0  0  0  0  0  0  0  0  0
  -25.8232  -30.2708   27.4276 C   0  0  2  0  0  0  0  0  0  0  0  0
  -26.9242  -33.1407   23.7717 C   0  0  0  0  0  0  0  0  0  0  0  0
  -26.5752  -13.0063   22.3111 N   0  0  0  0  0  0  0  0  0  0  0  0
  -26.5866  -14.0595   21.4764 N   0  0  0  0  0  0  0  0  0  0  0  0
  -24.9536  -31.2347   21.8939 N   0  0  0  0  0  0  0  0  0  0  0  0
  -29.4868  -16.5270   21.7655 N   0  0  0  0  0  0  0  0  0  0  0  0
  -25.1853  -15.4344   20.1511 N   0  0  0  0  0  0  0  0  0  0  0  0
  -22.3048  -12.4921   22.0063 N   0  0  0  0  0  0  0  0  0  0  0  0
  -28.5216  -18.6356   21.3358 N   0  0  0  0  0  0  0  0  0  0  0  0
  -22.0175  -32.7263   20.5470 N   0  0  0  0  0  0  0  0  0  0  0  0
  -25.8510  -31.4898   25.3613 N   0  0  0  0  0  0  0  0  0  0  0  0
  -25.5846  -28.8529   27.8197 N   0  3  0  0  0  0  0  0  0  0  0  0
  -22.4784  -14.2864   20.5889 O   0  0  0  0  0  0  0  0  0  0  0  0
  -24.2795  -33.2539   20.3813 O   0  0  0  0  0  0  0  0  0  0  0  0
  -23.8455  -32.0986   23.7477 O   0  0  0  0  0  0  0  0  0  0  0  0
  -27.0049  -29.4816   25.4736 O   0  0  0  0  0  0  0  0  0  0  0  0
  -30.8084  -18.3104   21.1197 O   0  0  0  0  0  0  0  0  0  0  0  0
  -23.6153   -8.3622   25.5081 O   0  0  0  0  0  0  0  0  0  0  0  0
  -27.7998  -26.1921   20.4615 O   0  0  0  0  0  0  0  0  0  1  0  0
  -28.0119  -24.1064   22.2905 O   0  0  0  0  0  0  0  0  0  0  0  0
  -20.0272   -4.8077   23.2957 F   0  0  0  0  0  0  0  0  0  0  0  0
  -25.8115  -22.5881   21.6156 F   0  0  0  0  0  0  0  0  0  0  0  0
  -24.2582   -5.6883   25.2268 F   0  0  0  0  0  0  0  0  0  0  0  0
  1  2  1  0  0  0  0
  1  5  2  0  0  0  0
  2  6  2  0  0  0  0
  3  9  2  0  0  0  0
  3 18  1  0  0  0  0
  4 10  1  0  0  0  0
  4 18  2  0  0  0  0
  5 20  1  0  0  0  0
  6 22  1  0  0  0  0
  7 11  2  0  0  0  0
  7 21  1  0  0  0  0
  8 12  2  0  0  0  0
  8 24  1  0  0  0  0
  9 25  1  0  0  0  0
 10 25  2  0  0  0  0
 11 26  1  0  0  0  0
 12 28  1  0  0  0  0
 13 14  2  0  0  0  0
 13 27  1  0  0  0  0
 14 29  1  0  0  0  0
 15 23  1  0  0  0  0
 15 26  2  0  0  0  0
 16 24  2  0  0  0  0
 16 30  1  0  0  0  0
 17 29  2  0  0  0  0
 17 31  1  0  0  0  0
 18 32  1  0  0  0  0
 19 32  1  0  0  0  0
 19 33  2  0  0  0  0
 19 34  1  0  0  0  0
 20 22  2  0  0  0  0
 20 39  1  0  0  0  0
 21 23  2  0  0  0  0
 21 40  1  0  0  0  0
 22 48  1  0  0  0  0
 23 41  1  0  0  0  0
 24 67  1  0  0  0  0
 25 76  1  0  0  0  0
 26 77  1  0  0  0  0
 27 31  2  0  0  0  0
 27 76  1  0  0  0  0
 28 30  2  0  0  0  0
 28 78  1  0  0  0  0
 29 79  1  0  0  0  0
 30 80  1  0  0  0  0
 31 81  1  0  0  0  0
 32 61  2  0  0  0  0
 33 62  1  0  0  0  0
 33 65  1  0  0  0  0
 34 66  1  0  0  0  0
 34 71  2  0  0  0  0
 35 49  1  0  0  0  0
 35 68  1  0  0  0  0
 35 72  2  0  0  0  0
 36 58  1  0  0  0  0
 36 63  1  0  0  0  0
 36 73  2  0  0  0  0
 37 59  1  0  0  0  0
 37 69  1  0  0  0  0
 37 74  2  0  0  0  0
 38 64  1  0  0  0  0
 38 67  1  0  0  0  0
 38 75  2  0  0  0  0
 39 42  1  0  0  0  0
 40 49  1  0  0  0  0
 41 63  1  0  0  0  0
 42 44  1  0  0  0  0
 43 45  1  0  0  0  0
 43 46  1  0  0  0  0
 44 48  1  0  0  0  0
 45 50  1  0  0  0  0
 46 64  1  0  0  0  0
 47 50  1  0  0  0  0
 47 64  1  0  0  0  0
 48 68  1  0  0  0  0
 49 63  1  0  0  0  0
 50 62  1  0  0  0  0
 51 59  1  0  0  0  0
 52 60  1  0  0  0  0
 53 60  1  0  0  0  0
 54 60  1  0  0  0  0
 55 70  1  0  0  0  0
 56 57  1  0  0  0  0
 56 77  1  0  0  0  0
 57 78  1  0  0  0  0
 58 60  1  0  0  0  0
 58 69  1  0  0  0  0
 59 70  1  0  0  0  0
 61 62  1  0  0  0  0
M  CHG  1  70   1
M  ISO  4  38 100  56 101  67 100  77 101
M  END
> <Batch ID>
0011

> <Smiles>
CNC(C)C(=O)NC(C(=O)N1Cc2cc([101O:1][101CH2:1]COc3ccc([100NH:0][100C:0](=O)N4CCCC(n5nc(-c6ccc(Oc7ccc(F)cc7F)cc6)c(C(N)=O)c5N)C4)cc3F)ccc2CC1C(=O)NC1CCCc2ccccc21)C(C)(C)C

> <Shape>
0.265

> <Color>
0.145

> <Negative vol penalty>
0.000

$$$$

  -OEChem-04042320433D

 73 80  0     1  0  0  0  0  0999 V2000
  -28.7807  -11.4027   19.8413 C   0  0  0  0  0  0  0  0  0  0  0  0
  -28.8747  -12.6791   19.2960 C   0  0  0  0  0  0  0  0  0  0  0  0
  -25.9114  -28.9143   20.8188 C   0  0  0  0  0  0  0  0  0  0  0  0
  -25.2447  -26.5922   20.8056 C   0  0  0  0  0  0  0  0  0  0  0  0
  -27.5741  -10.9659   20.3863 C   0  0  0  0  0  0  0  0  0  0  0  0
  -27.7616  -13.5191   19.2943 C   0  0  0  0  0  0  0  0  0  0  0  0
  -28.8908  -18.2435   20.7261 C   0  0  0  0  0  0  0  0  0  0  0  0
  -24.5811  -29.2972   20.6476 C   0  0  0  0  0  0  0  0  0  0  0  0
  -23.9144  -26.9751   20.6344 C   0  0  0  0  0  0  0  0  0  0  0  0
  -29.5037  -19.0657   19.7816 C   0  0  0  0  0  0  0  0  0  0  0  0
  -20.2991  -27.3512   20.5553 C   0  0  0  0  0  0  0  0  0  0  0  0
  -19.3346  -26.7145   21.3363 C   0  0  0  0  0  0  0  0  0  0  0  0
  -27.3782  -20.1087   19.3193 C   0  0  0  0  0  0  0  0  0  0  0  0
  -20.4277  -27.5133   23.3374 C   0  0  0  0  0  0  0  0  0  0  0  0
  -26.2432  -27.5618   20.8978 C   0  0  0  0  0  0  0  0  0  0  0  0
  -28.2943  -26.9641   22.2918 C   0  0  0  0  0  0  0  0  0  0  0  0
  -26.4483  -11.8044   20.4000 C   0  0  0  0  0  0  0  0  0  0  0  0
  -27.5128  -18.3403   20.9669 C   0  0  0  0  0  0  0  0  0  0  0  0
  -26.5384  -13.0925   19.8388 C   0  0  0  0  0  0  0  0  0  0  0  0
  -26.7507  -19.2883   20.2692 C   0  0  0  0  0  0  0  0  0  0  0  0
  -23.5826  -28.3276   20.5554 C   0  0  0  0  0  0  0  0  0  0  0  0
  -28.7469  -19.9965   19.0760 C   0  0  0  0  0  0  0  0  0  0  0  0
  -21.3280  -28.0688   21.1653 C   0  0  0  0  0  0  0  0  0  0  0  0
  -19.3988  -26.7956   22.7274 C   0  0  0  0  0  0  0  0  0  0  0  0
  -21.3923  -28.1499   22.5564 C   0  0  0  0  0  0  0  0  0  0  0  0
  -27.6173  -27.1656   21.0741 C   0  0  0  0  0  0  0  0  0  0  0  0
  -29.5659  -26.6003   21.9215 C   0  0  0  0  0  0  0  0  0  0  0  0
  -27.8165  -27.0941   23.6374 C   0  0  0  0  0  0  0  0  0  0  0  0
  -25.0394  -16.3661   20.6693 C   0  0  0  0  0  0  0  0  0  0  0  0
  -23.4301  -18.7916   22.1009 C   0  0  0  0  0  0  0  0  0  0  0  0
  -23.2352  -22.1273   22.7949 C   0  0  0  0  0  0  0  0  0  0  0  0
  -31.8053  -24.0606   16.9833 C   0  0  0  0  0  0  0  0  0  0  0  0
  -25.1525  -11.2708   20.9575 C   0  0  0  0  0  0  0  0  0  0  0  0
  -26.8716  -17.4645   22.0082 C   0  0  0  0  0  0  0  0  0  0  0  0
  -25.2716  -19.4460   20.5052 C   0  0  0  0  0  0  0  0  0  0  0  0
  -24.1234  -12.3586   21.2544 C   0  0  0  0  0  0  0  0  0  0  0  0
  -32.7528  -27.1859   18.4013 C   0  0  0  0  0  0  0  0  0  0  0  0
  -24.0228  -13.3319   20.0842 C   0  0  0  0  0  0  0  0  0  0  0  0
  -31.6052  -27.5169   19.3570 C   0  0  0  0  0  0  0  0  0  0  0  0
  -32.2517  -26.4924   17.1365 C   0  0  0  0  0  0  0  0  0  0  0  0
  -30.2768  -25.6255   18.3290 C   0  0  0  0  0  0  0  0  0  0  0  0
  -25.3600  -14.0420   19.8407 C   0  0  1  0  0  0  0  0  0  0  0  0
  -25.3693  -17.2948   21.8034 C   0  0  1  0  0  0  0  0  0  0  0  0
  -30.7390  -26.2758   19.6442 C   0  0  2  0  0  0  0  0  0  0  0  0
  -21.7856  -23.8170   23.9528 C   0  0  0  0  0  0  0  0  0  0  0  0
  -21.4554  -18.6861   19.7772 C   0  0  0  0  0  0  0  0  0  0  0  0
  -20.6243  -20.9432   20.4723 C   0  0  0  0  0  0  0  0  0  0  0  0
  -20.4056  -19.0030   22.0249 C   0  0  0  0  0  0  0  0  0  0  0  0
  -25.3980  -22.8660   24.6752 C   0  0  0  0  0  0  0  0  0  0  0  0
  -31.2354  -21.6456   16.9357 C   0  0  0  0  0  0  0  0  0  0  0  0
  -30.7465  -20.6355   17.9583 C   0  0  0  0  0  0  0  0  0  1  0  0
  -22.6870  -20.0136   21.6176 C   0  0  1  0  0  0  0  0  0  0  0  0
  -22.9697  -22.8728   24.0904 C   0  0  2  0  0  0  0  0  0  0  0  0
  -21.3206  -19.6574   20.9669 C   0  0  0  0  0  0  0  0  0  0  0  0
  -28.3944  -26.9480   20.0099 N   0  0  0  0  0  0  0  0  0  0  0  0
  -29.5730  -26.6061   20.5576 N   0  0  0  0  0  0  0  0  0  0  0  0
  -24.6895  -18.5623   21.5289 N   0  0  0  0  0  0  0  0  0  0  0  0
  -31.4385  -25.3228   17.4784 N   0  0  0  0  0  0  0  0  0  0  0  0
  -30.6675  -26.2792   22.6327 N   0  0  0  0  0  0  0  0  0  0  0  0
  -26.4833  -27.4765   23.8389 N   0  0  0  0  0  0  0  0  0  0  0  0
  -25.5584  -15.0937   20.8148 N   0  0  0  0  0  0  0  0  0  0  0  0
  -22.5873  -20.9105   22.7639 N   0  0  0  0  0  0  0  0  0  0  0  0
  -30.9843  -23.0048   17.3602 N   0  0  0  0  0  0  0  0  0  0  0  0
  -24.1650  -23.6719   24.4825 N   0  3  0  0  0  0  0  0  0  0  0  0
  -28.5547  -26.8935   24.6315 O   0  0  0  0  0  0  0  0  0  0  0  0
  -24.3627  -16.7733   19.7323 O   0  0  0  0  0  0  0  0  0  0  0  0
  -22.9152  -18.0710   22.9596 O   0  0  0  0  0  0  0  0  0  0  0  0
  -23.9432  -22.5808   21.8985 O   0  0  0  0  0  0  0  0  0  0  0  0
  -32.7944  -23.8864   16.2633 O   0  0  0  0  0  0  0  0  0  0  0  0
  -22.2844  -28.7009   20.3885 O   0  0  0  0  0  0  0  0  0  0  0  0
  -29.3424  -20.7999   18.1530 O   0  0  0  0  0  0  0  0  0  1  0  0
  -18.4716  -26.1855   23.4772 F   0  0  0  0  0  0  0  0  0  0  0  0
  -22.3777  -28.8388   23.1481 F   0  0  0  0  0  0  0  0  0  0  0  0
  1  2  1  0  0  0  0
  1  5  2  0  0  0  0
  2  6  2  0  0  0  0
  3  8  2  0  0  0  0
  3 15  1  0  0  0  0
  4  9  1  0  0  0  0
  4 15  2  0  0  0  0
  5 17  1  0  0  0  0
  6 19  1  0  0  0  0
  7 10  2  0  0  0  0
  7 18  1  0  0  0  0
  8 21  1  0  0  0  0
  9 21  2  0  0  0  0
 10 22  1  0  0  0  0
 11 12  2  0  0  0  0
 11 23  1  0  0  0  0
 12 24  1  0  0  0  0
 13 20  1  0  0  0  0
 13 22  2  0  0  0  0
 14 24  2  0  0  0  0
 14 25  1  0  0  0  0
 15 26  1  0  0  0  0
 16 26  1  0  0  0  0
 16 27  2  0  0  0  0
 16 28  1  0  0  0  0
 17 19  2  0  0  0  0
 17 33  1  0  0  0  0
 18 20  2  0  0  0  0
 18 34  1  0  0  0  0
 19 42  1  0  0  0  0
 20 35  1  0  0  0  0
 21 70  1  0  0  0  0
 22 71  1  0  0  0  0
 23 25  2  0  0  0  0
 23 70  1  0  0  0  0
 24 72  1  0  0  0  0
 25 73  1  0  0  0  0
 26 55  2  0  0  0  0
 27 56  1  0  0  0  0
 27 59  1  0  0  0  0
 28 60  1  0  0  0  0
 28 65  2  0  0  0  0
 29 43  1  0  0  0  0
 29 61  1  0  0  0  0
 29 66  2  0  0  0  0
 30 52  1  0  0  0  0
 30 57  1  0  0  0  0
 30 67  2  0  0  0  0
 31 53  1  0  0  0  0
 31 62  1  0  0  0  0
 31 68  2  0  0  0  0
 32 58  1  0  0  0  0
 32 63  1  0  0  0  0
 32 69  2  0  0  0  0
 33 36  1  0  0  0  0
 34 43  1  0  0  0  0
 35 57  1  0  0  0  0
 36 38  1  0  0  0  0
 37 39  1  0  0  0  0
 37 40  1  0  0  0  0
 38 42  1  0  0  0  0
 39 44  1  0  0  0  0
 40 58  1  0  0  0  0
 41 44  1  0  0  0  0
 41 58  1  0  0  0  0
 42 61  1  0  0  0  0
 43 57  1  0  0  0  0
 44 56  1  0  0  0  0
 45 53  1  0  0  0  0
 46 54  1  0  0  0  0
 47 54  1  0  0  0  0
 48 54  1  0  0  0  0
 49 64  1  0  0  0  0
 50 51  1  0  0  0  0
 50 63  1  0  0  0  0
 51 71  1  0  0  0  0
 52 54  1  0  0  0  0
 52 62  1  0  0  0  0
 53 64  1  0  0  0  0
 55 56  1  0  0  0  0
M  CHG  1  64   1
M  ISO  4  32 100  51 101  63 100  71 101
M  END
> <Batch ID>
0011

> <Smiles>
CNC(C)C(=O)NC(C(=O)N1Cc2cc([101O:1][101CH2:1]C[100NH:0][100C:0](=O)N3CCCC(n4nc(-c5ccc(Oc6ccc(F)cc6F)cc5)c(C(N)=O)c4N)C3)ccc2CC1C(=O)NC1CCCc2ccccc21)C(C)(C)C

> <Shape>
0.226

> <Color>
0.066

> <Negative vol penalty>
0.000

$$$$

  -OEChem-04042320433D

 83 92  0     1  0  0  0  0  0999 V2000
  -27.4998  -34.2986   25.5374 C   0  0  0  0  0  0  0  0  0  0  0  0
  -28.0279  -33.0329   25.3038 C   0  0  0  0  0  0  0  0  0  0  0  0
  -23.1615   -9.7574   19.9114 C   0  0  0  0  0  0  0  0  0  0  0  0
  -23.9101   -9.7793   22.2084 C   0  0  0  0  0  0  0  0  0  0  0  0
  -26.1832  -34.5810   25.1756 C   0  0  0  0  0  0  0  0  0  0  0  0
  -27.2394  -32.0485   24.7093 C   0  0  0  0  0  0  0  0  0  0  0  0
  -29.1005  -27.6768   20.8453 C   0  0  0  0  0  0  0  0  0  0  0  0
  -29.3054  -19.4421   22.4652 C   0  0  0  0  0  0  0  0  0  0  0  0
  -29.2040  -18.0512   22.4442 C   0  0  0  0  0  0  0  0  0  0  0  0
  -22.4725   -8.5678   20.1473 C   0  0  0  0  0  0  0  0  0  0  0  0
  -23.2211   -8.5897   22.4443 C   0  0  0  0  0  0  0  0  0  0  0  0
  -29.4213  -26.3331   21.0334 C   0  0  0  0  0  0  0  0  0  0  0  0
  -20.0321   -7.6332   23.0240 C   0  0  0  0  0  0  0  0  0  0  0  0
  -19.2728   -7.5462   24.1908 C   0  0  0  0  0  0  0  0  0  0  0  0
  -27.1860  -25.7130   20.3713 C   0  0  0  0  0  0  0  0  0  0  0  0
  -30.8500  -17.9578   20.6781 C   0  0  0  0  0  0  0  0  0  0  0  0
  -20.6021   -5.6635   24.9156 C   0  0  0  0  0  0  0  0  0  0  0  0
  -23.8804  -10.3632   20.9419 C   0  0  0  0  0  0  0  0  0  0  0  0
  -24.1017  -12.9028   20.8465 C   0  0  0  0  0  0  0  0  0  0  0  0
  -25.3812  -33.6024   24.5675 C   0  0  0  0  0  0  0  0  0  0  0  0
  -27.8146  -28.0500   20.4286 C   0  0  0  0  0  0  0  0  0  0  0  0
  -25.9104  -32.3177   24.3402 C   0  0  0  0  0  0  0  0  0  0  0  0
  -26.8522  -27.0619   20.1761 C   0  0  0  0  0  0  0  0  0  0  0  0
  -30.1791  -20.0910   21.5927 C   0  0  0  0  0  0  0  0  0  0  0  0
  -29.9763  -17.3090   21.5507 C   0  0  0  0  0  0  0  0  0  0  0  0
  -22.5022   -7.9840   21.4137 C   0  0  0  0  0  0  0  0  0  0  0  0
  -28.4631  -25.3512   20.7992 C   0  0  0  0  0  0  0  0  0  0  0  0
  -21.0764   -6.7352   22.8029 C   0  0  0  0  0  0  0  0  0  0  0  0
  -19.5578   -6.5614   25.1366 C   0  0  0  0  0  0  0  0  0  0  0  0
  -30.9514  -19.3489   20.6992 C   0  0  0  0  0  0  0  0  0  0  0  0
  -21.3614   -5.7504   23.7487 C   0  0  0  0  0  0  0  0  0  0  0  0
  -24.5928  -11.5918   20.6987 C   0  0  0  0  0  0  0  0  0  0  0  0
  -25.1584  -13.7069   20.4953 C   0  0  0  0  0  0  0  0  0  0  0  0
  -22.8062  -13.3534   21.2640 C   0  0  0  0  0  0  0  0  0  0  0  0
  -25.4685  -29.7920   21.6796 C   0  0  0  0  0  0  0  0  0  0  0  0
  -24.0938  -29.3141   18.7806 C   0  0  0  0  0  0  0  0  0  0  0  0
  -23.8606  -27.3997   15.9650 C   0  0  0  0  0  0  0  0  0  0  0  0
  -30.5675  -15.0105   20.7058 C   0  0  0  0  0  0  0  0  0  0  0  0
  -23.9489  -33.9403   24.2370 C   0  0  0  0  0  0  0  0  0  0  0  0
  -27.4924  -29.5020   20.2045 C   0  0  0  0  0  0  0  0  0  0  0  0
  -25.4633  -27.4089   19.7080 C   0  0  0  0  0  0  0  0  0  0  0  0
  -23.2981  -32.9544   23.2702 C   0  0  0  0  0  0  0  0  0  0  0  0
  -29.5801  -12.5684   18.3104 C   0  0  0  0  0  0  0  0  0  0  0  0
  -23.5883  -31.5187   23.6959 C   0  0  0  0  0  0  0  0  0  0  0  0
  -28.1542  -12.2044   18.7304 C   0  0  0  0  0  0  0  0  0  0  0  0
  -31.1304  -23.6449   21.3382 C   0  0  0  0  0  0  0  0  0  0  0  0
  -30.4780  -12.8294   19.5185 C   0  0  0  0  0  0  0  0  0  0  0  0
  -31.1588  -22.2369   20.7438 C   0  0  0  0  0  0  0  0  0  0  0  0
  -28.5326  -13.4492   20.8970 C   0  0  0  0  0  0  0  0  0  0  0  0
  -29.5024  -22.3278   22.5099 C   0  0  0  0  0  0  0  0  0  0  0  0
  -25.0943  -31.2307   23.6748 C   0  0  1  0  0  0  0  0  0  0  0  0
  -25.9978  -29.8000   20.2733 C   0  0  1  0  0  0  0  0  0  0  0  0
  -27.5743  -13.2406   19.7130 C   0  0  2  0  0  0  0  0  0  0  0  0
  -29.7501  -23.7366   21.9724 C   0  0  2  0  0  0  0  0  0  1  0  0
  -22.6221  -27.2404   13.7883 C   0  0  0  0  0  0  0  0  0  0  0  0
  -21.6380  -28.2663   20.2574 C   0  0  0  0  0  0  0  0  0  0  0  0
  -20.8550  -27.2639   18.1009 C   0  0  0  0  0  0  0  0  0  0  0  0
  -21.1293  -29.7355   18.2985 C   0  0  0  0  0  0  0  0  0  0  0  0
  -26.3550  -27.6584   14.3935 C   0  0  0  0  0  0  0  0  0  0  0  0
  -23.1832  -28.2653   18.1890 C   0  0  1  0  0  0  0  0  0  0  0  0
  -23.8617  -27.7694   14.4926 C   0  0  2  0  0  0  0  0  0  0  0  0
  -21.7269  -28.3760   18.7221 C   0  0  0  0  0  0  0  0  0  0  0  0
  -25.8626  -11.5603   20.2857 N   0  0  0  0  0  0  0  0  0  0  0  0
  -26.1783  -12.8615   20.1708 N   0  0  0  0  0  0  0  0  0  0  0  0
  -30.2761  -21.4665   21.6148 N   0  0  3  0  0  0  0  0  0  0  0  0
  -25.1949  -28.8428   19.5095 N   0  0  0  0  0  0  0  0  0  0  0  0
  -29.8665  -13.8242   20.4025 N   0  0  0  0  0  0  0  0  0  0  0  0
  -25.3052  -15.0475   20.4354 N   0  0  0  0  0  0  0  0  0  0  0  0
  -21.8374  -12.3939   21.5881 N   0  0  0  0  0  0  0  0  0  0  0  0
  -29.8731  -15.8960   21.5295 N   0  0  0  0  0  0  0  0  0  0  0  0
  -25.5487  -31.0150   22.3178 N   0  0  0  0  0  0  0  0  0  0  0  0
  -23.3006  -28.3929   16.7405 N   0  0  0  0  0  0  0  0  0  0  0  0
  -25.0636  -27.2032   13.8174 N   0  3  0  0  0  0  0  0  0  0  0  0
  -22.5112  -14.5708   21.3313 O   0  0  0  0  0  0  0  0  0  0  0  0
  -25.0192  -28.7536   22.1502 O   0  0  0  0  0  0  0  0  0  0  0  0
  -23.8415  -30.5074   18.5965 O   0  0  0  0  0  0  0  0  0  0  0  0
  -24.3080  -26.3348   16.3847 O   0  0  0  0  0  0  0  0  0  0  0  0
  -31.6893  -15.2373   20.2452 O   0  0  0  0  0  0  0  0  0  0  0  0
  -21.8298   -6.8233   21.6443 O   0  0  0  0  0  0  0  0  0  0  0  0
  -28.7734  -24.0389   20.9826 O   0  0  0  0  0  0  0  0  0  1  0  0
  -18.8296   -6.4791   26.2578 F   0  0  0  0  0  0  0  0  0  0  0  0
  -31.7932  -19.9627   19.8554 F   0  0  0  0  0  0  0  0  0  0  0  0
  -22.3641   -4.8857   23.5424 F   0  0  0  0  0  0  0  0  0  0  0  0
  1  2  1  0  0  0  0
  1  5  2  0  0  0  0
  2  6  2  0  0  0  0
  3 10  2  0  0  0  0
  3 18  1  0  0  0  0
  4 11  1  0  0  0  0
  4 18  2  0  0  0  0
  5 20  1  0  0  0  0
  6 22  1  0  0  0  0
  7 12  2  0  0  0  0
  7 21  1  0  0  0  0
  8  9  2  0  0  0  0
  8 24  1  0  0  0  0
  9 25  1  0  0  0  0
 10 26  1  0  0  0  0
 11 26  2  0  0  0  0
 12 27  1  0  0  0  0
 13 14  2  0  0  0  0
 13 28  1  0  0  0  0
 14 29  1  0  0  0  0
 15 23  1  0  0  0  0
 15 27  2  0  0  0  0
 16 25  2  0  0  0  0
 16 30  1  0  0  0  0
 17 29  2  0  0  0  0
 17 31  1  0  0  0  0
 18 32  1  0  0  0  0
 19 32  1  0  0  0  0
 19 33  2  0  0  0  0
 19 34  1  0  0  0  0
 20 22  2  0  0  0  0
 20 39  1  0  0  0  0
 21 23  2  0  0  0  0
 21 40  1  0  0  0  0
 22 51  1  0  0  0  0
 23 41  1  0  0  0  0
 24 30  2  0  0  0  0
 24 65  1  0  0  0  0
 25 70  1  0  0  0  0
 26 79  1  0  0  0  0
 27 80  1  0  0  0  0
 28 31  2  0  0  0  0
 28 79  1  0  0  0  0
 29 81  1  0  0  0  0
 30 82  1  0  0  0  0
 31 83  1  0  0  0  0
 32 63  2  0  0  0  0
 33 64  1  0  0  0  0
 33 68  1  0  0  0  0
 34 69  1  0  0  0  0
 34 74  2  0  0  0  0
 35 52  1  0  0  0  0
 35 71  1  0  0  0  0
 35 75  2  0  0  0  0
 36 60  1  0  0  0  0
 36 66  1  0  0  0  0
 36 76  2  0  0  0  0
 37 61  1  0  0  0  0
 37 72  1  0  0  0  0
 37 77  2  0  0  0  0
 38 67  1  0  0  0  0
 38 70  1  0  0  0  0
 38 78  2  0  0  0  0
 39 42  1  0  0  0  0
 40 52  1  0  0  0  0
 41 66  1  0  0  0  0
 42 44  1  0  0  0  0
 43 45  1  0  0  0  0
 43 47  1  0  0  0  0
 44 51  1  0  0  0  0
 45 53  1  0  0  0  0
 46 48  1  0  0  0  0
 46 54  1  0  0  0  0
 47 67  1  0  0  0  0
 48 65  1  0  0  0  0
 49 53  1  0  0  0  0
 49 67  1  0  0  0  0
 50 54  1  0  0  0  0
 50 65  1  0  0  0  0
 51 71  1  0  0  0  0
 52 66  1  0  0  0  0
 53 64  1  0  0  0  0
 54 80  1  0  0  0  0
 55 61  1  0  0  0  0
 56 62  1  0  0  0  0
 57 62  1  0  0  0  0
 58 62  1  0  0  0  0
 59 73  1  0  0  0  0
 60 62  1  0  0  0  0
 60 72  1  0  0  0  0
 61 73  1  0  0  0  0
 63 64  1  0  0  0  0
M  CHG  1  73   1
M  ISO  4  38 100  54 101  70 100  80 101
M  END
> <Batch ID>
0011

> <Smiles>
CNC(C)C(=O)NC(C(=O)N1Cc2cc([101O:1][101CH:1]3CCN(c4ccc([100NH:0][100C:0](=O)N5CCCC(n6nc(-c7ccc(Oc8ccc(F)cc8F)cc7)c(C(N)=O)c6N)C5)cc4F)C3)ccc2CC1C(=O)NC1CCCc2ccccc21)C(C)(C)C

> <Shape>
0.352

> <Color>
0.209

> <Negative vol penalty>
0.000

$$$$

  -OEChem-04042320433D

 81 89  0     1  0  0  0  0  0999 V2000
  -23.6146  -32.7404   26.6417 C   0  0  0  0  0  0  0  0  0  0  0  0
  -24.8879  -32.2906   26.3072 C   0  0  0  0  0  0  0  0  0  0  0  0
  -24.0433   -9.7225   21.7174 C   0  0  0  0  0  0  0  0  0  0  0  0
  -24.6463  -10.9946   23.6809 C   0  0  0  0  0  0  0  0  0  0  0  0
  -22.4922  -32.0271   26.2230 C   0  0  0  0  0  0  0  0  0  0  0  0
  -25.0395  -31.1265   25.5547 C   0  0  0  0  0  0  0  0  0  0  0  0
  -29.3143  -28.1906   20.6127 C   0  0  0  0  0  0  0  0  0  0  0  0
  -30.7820  -18.9585   20.2106 C   0  0  0  0  0  0  0  0  0  0  0  0
  -23.6164   -8.6717   22.5293 C   0  0  0  0  0  0  0  0  0  0  0  0
  -24.2193   -9.9438   24.4928 C   0  0  0  0  0  0  0  0  0  0  0  0
  -30.0451  -27.0275   20.3746 C   0  0  0  0  0  0  0  0  0  0  0  0
  -31.0681  -20.2797   20.5541 C   0  0  0  0  0  0  0  0  0  0  0  0
  -20.9059   -7.9145   24.4036 C   0  0  0  0  0  0  0  0  0  0  0  0
  -19.6862   -7.3118   24.0959 C   0  0  0  0  0  0  0  0  0  0  0  0
  -28.0319  -25.9204   19.6392 C   0  0  0  0  0  0  0  0  0  0  0  0
  -28.7097  -20.7140   20.8479 C   0  0  0  0  0  0  0  0  0  0  0  0
  -20.8098   -5.1954   23.7874 C   0  0  0  0  0  0  0  0  0  0  0  0
  -24.5583  -10.8839   22.2932 C   0  0  0  0  0  0  0  0  0  0  0  0
  -24.2298  -13.0524   20.9902 C   0  0  0  0  0  0  0  0  0  0  0  0
  -22.6299  -30.8589   25.4568 C   0  0  0  0  0  0  0  0  0  0  0  0
  -27.9326  -28.2242   20.3757 C   0  0  0  0  0  0  0  0  0  0  0  0
  -23.9180  -30.3961   25.1265 C   0  0  0  0  0  0  0  0  0  0  0  0
  -27.2863  -27.0860   19.8726 C   0  0  0  0  0  0  0  0  0  0  0  0
  -29.4598  -18.5150   20.1855 C   0  0  0  0  0  0  0  0  0  0  0  0
  -23.7044   -8.7823   23.9170 C   0  0  0  0  0  0  0  0  0  0  0  0
  -29.4035  -25.8912   19.8905 C   0  0  0  0  0  0  0  0  0  0  0  0
  -30.0320  -21.1575   20.8728 C   0  0  0  0  0  0  0  0  0  0  0  0
  -22.0776   -7.1576   24.4031 C   0  0  0  0  0  0  0  0  0  0  0  0
  -19.6381   -5.9523   23.7878 C   0  0  0  0  0  0  0  0  0  0  0  0
  -28.4236  -19.3928   20.5042 C   0  0  0  0  0  0  0  0  0  0  0  0
  -22.0296   -5.7981   24.0950 C   0  0  0  0  0  0  0  0  0  0  0  0
  -25.0000  -11.9695   21.4550 C   0  0  0  0  0  0  0  0  0  0  0  0
  -25.1046  -13.7986   20.2391 C   0  0  0  0  0  0  0  0  0  0  0  0
  -22.8471  -13.3565   21.2173 C   0  0  0  0  0  0  0  0  0  0  0  0
  -25.3581  -28.6945   22.1797 C   0  0  0  0  0  0  0  0  0  0  0  0
  -23.8210  -28.6090   19.3245 C   0  0  0  0  0  0  0  0  0  0  0  0
  -23.8043  -27.5722   16.0731 C   0  0  0  0  0  0  0  0  0  0  0  0
  -30.0847  -16.1747   19.4935 C   0  0  0  0  0  0  0  0  0  0  0  0
  -21.3887  -30.0957   25.0674 C   0  0  0  0  0  0  0  0  0  0  0  0
  -27.1632  -29.4948   20.6123 C   0  0  0  0  0  0  0  0  0  0  0  0
  -25.8084  -27.0763   19.5826 C   0  0  0  0  0  0  0  0  0  0  0  0
  -21.6240  -29.0770   23.9551 C   0  0  0  0  0  0  0  0  0  0  0  0
  -29.7777  -12.7400   18.6070 C   0  0  0  0  0  0  0  0  0  0  0  0
  -22.8783  -28.2567   24.2391 C   0  0  0  0  0  0  0  0  0  0  0  0
  -28.4440  -12.3225   19.2307 C   0  0  0  0  0  0  0  0  0  0  0  0
  -30.5323  -13.7304   19.4921 C   0  0  0  0  0  0  0  0  0  0  0  0
  -28.4284  -14.4960   20.5202 C   0  0  0  0  0  0  0  0  0  0  0  0
  -24.1226  -29.1513   24.2906 C   0  0  1  0  0  0  0  0  0  0  0  0
  -25.6707  -29.2593   20.8229 C   0  0  1  0  0  0  0  0  0  0  0  0
  -27.6023  -13.5488   19.6347 C   0  0  2  0  0  0  0  0  0  0  0  0
  -22.3954  -27.6215   13.9970 C   0  0  0  0  0  0  0  0  0  0  0  0
  -22.0091  -26.4570   20.5059 C   0  0  0  0  0  0  0  0  0  0  0  0
  -21.2863  -25.8860   18.1779 C   0  0  0  0  0  0  0  0  0  0  0  0
  -20.8302  -28.1578   19.1017 C   0  0  0  0  0  0  0  0  0  0  0  0
  -25.8768  -29.0487   14.5620 C   0  0  0  0  0  0  0  0  0  0  0  0
  -31.2612  -24.5267   20.4758 C   0  0  0  0  0  0  0  0  0  1  0  0
  -31.4737  -23.0327   20.6261 C   0  0  0  0  0  0  0  0  0  0  0  0
  -23.1974  -27.5257   18.4781 C   0  0  1  0  0  0  0  0  0  0  0  0
  -23.5008  -28.3106   14.7819 C   0  0  2  0  0  0  0  0  0  0  0  0
  -21.8583  -27.0059   19.0731 C   0  0  0  0  0  0  0  0  0  0  0  0
  -26.2666  -12.0195   21.0342 N   0  0  0  0  0  0  0  0  0  0  0  0
  -26.2990  -13.1428   20.2971 N   0  0  0  0  0  0  0  0  0  0  0  0
  -25.0986  -28.3411   19.8361 N   0  0  0  0  0  0  0  0  0  0  0  0
  -29.6740  -14.8677   19.8310 N   0  0  0  0  0  0  0  0  0  0  0  0
  -24.9610  -14.9452   19.5412 N   0  0  0  0  0  0  0  0  0  0  0  0
  -22.0930  -12.4837   22.0134 N   0  0  0  0  0  0  0  0  0  0  0  0
  -29.1724  -17.1722   19.8360 N   0  0  0  0  0  0  0  0  0  0  0  0
  -24.5475  -29.5037   22.9528 N   0  0  0  0  0  0  0  0  0  0  0  0
  -23.0794  -28.0763   17.1322 N   0  0  0  0  0  0  0  0  0  0  0  0
  -24.7173  -28.3743   13.9234 N   0  3  0  0  0  0  0  0  0  0  0  0
  -22.2926  -14.3634   20.7151 O   0  0  0  0  0  0  0  0  0  0  0  0
  -25.8170  -27.6046   22.5009 O   0  0  0  0  0  0  0  0  0  0  0  0
  -23.2006  -29.6574   19.5185 O   0  0  0  0  0  0  0  0  0  0  0  0
  -24.6016  -26.6390   16.1351 O   0  0  0  0  0  0  0  0  0  0  0  0
  -31.1537  -16.3905   18.9167 O   0  0  0  0  0  0  0  0  0  0  0  0
  -23.2877   -7.7573   24.7095 O   0  0  0  0  0  0  0  0  0  0  0  0
  -30.1143  -24.7543   19.6579 O   0  0  0  0  0  0  0  0  0  1  0  0
  -30.3131  -22.4549   21.2114 O   0  0  0  0  0  0  0  0  0  0  0  0
  -18.4666   -5.3733   23.4939 F   0  0  0  0  0  0  0  0  0  0  0  0
  -27.1490  -18.9774   20.4830 F   0  0  0  0  0  0  0  0  0  0  0  0
  -23.1517   -5.0655   24.0941 F   0  0  0  0  0  0  0  0  0  0  0  0
  1  2  1  0  0  0  0
  1  5  2  0  0  0  0
  2  6  2  0  0  0  0
  3  9  2  0  0  0  0
  3 18  1  0  0  0  0
  4 10  1  0  0  0  0
  4 18  2  0  0  0  0
  5 20  1  0  0  0  0
  6 22  1  0  0  0  0
  7 11  2  0  0  0  0
  7 21  1  0  0  0  0
  8 12  2  0  0  0  0
  8 24  1  0  0  0  0
  9 25  1  0  0  0  0
 10 25  2  0  0  0  0
 11 26  1  0  0  0  0
 12 27  1  0  0  0  0
 13 14  2  0  0  0  0
 13 28  1  0  0  0  0
 14 29  1  0  0  0  0
 15 23  1  0  0  0  0
 15 26  2  0  0  0  0
 16 27  2  0  0  0  0
 16 30  1  0  0  0  0
 17 29  2  0  0  0  0
 17 31  1  0  0  0  0
 18 32  1  0  0  0  0
 19 32  1  0  0  0  0
 19 33  2  0  0  0  0
 19 34  1  0  0  0  0
 20 22  2  0  0  0  0
 20 39  1  0  0  0  0
 21 23  2  0  0  0  0
 21 40  1  0  0  0  0
 22 48  1  0  0  0  0
 23 41  1  0  0  0  0
 24 30  2  0  0  0  0
 24 67  1  0  0  0  0
 25 76  1  0  0  0  0
 26 77  1  0  0  0  0
 27 78  1  0  0  0  0
 28 31  2  0  0  0  0
 28 76  1  0  0  0  0
 29 79  1  0  0  0  0
 30 80  1  0  0  0  0
 31 81  1  0  0  0  0
 32 61  2  0  0  0  0
 33 62  1  0  0  0  0
 33 65  1  0  0  0  0
 34 66  1  0  0  0  0
 34 71  2  0  0  0  0
 35 49  1  0  0  0  0
 35 68  1  0  0  0  0
 35 72  2  0  0  0  0
 36 58  1  0  0  0  0
 36 63  1  0  0  0  0
 36 73  2  0  0  0  0
 37 59  1  0  0  0  0
 37 69  1  0  0  0  0
 37 74  2  0  0  0  0
 38 64  1  0  0  0  0
 38 67  1  0  0  0  0
 38 75  2  0  0  0  0
 39 42  1  0  0  0  0
 40 49  1  0  0  0  0
 41 63  1  0  0  0  0
 42 44  1  0  0  0  0
 43 45  1  0  0  0  0
 43 46  1  0  0  0  0
 44 48  1  0  0  0  0
 45 50  1  0  0  0  0
 46 64  1  0  0  0  0
 47 50  1  0  0  0  0
 47 64  1  0  0  0  0
 48 68  1  0  0  0  0
 49 63  1  0  0  0  0
 50 62  1  0  0  0  0
 51 59  1  0  0  0  0
 52 60  1  0  0  0  0
 53 60  1  0  0  0  0
 54 60  1  0  0  0  0
 55 70  1  0  0  0  0
 56 57  1  0  0  0  0
 56 77  1  0  0  0  0
 57 78  1  0  0  0  0
 58 60  1  0  0  0  0
 58 69  1  0  0  0  0
 59 70  1  0  0  0  0
 61 62  1  0  0  0  0
M  CHG  1  70   1
M  ISO  4  38 100  56 101  67 100  77 101
M  END
> <Batch ID>
0011

> <Smiles>
CNC(C)C(=O)NC(C(=O)N1Cc2cc([101O:1][101CH2:1]COc3ccc([100NH:0][100C:0](=O)N4CCCC(n5nc(-c6ccc(Oc7ccc(F)cc7F)cc6)c(C(N)=O)c5N)C4)c(F)c3)ccc2CC1C(=O)NC1CCCc2ccccc21)C(C)(C)C

> <Shape>
0.293

> <Color>
0.123

> <Negative vol penalty>
0.000

$$$$

  -OEChem-04042320433D

 81 89  0     1  0  0  0  0  0999 V2000
  -23.6146  -32.7404   26.6417 C   0  0  0  0  0  0  0  0  0  0  0  0
  -24.8879  -32.2906   26.3072 C   0  0  0  0  0  0  0  0  0  0  0  0
  -24.0433   -9.7225   21.7174 C   0  0  0  0  0  0  0  0  0  0  0  0
  -24.6463  -10.9946   23.6809 C   0  0  0  0  0  0  0  0  0  0  0  0
  -22.4922  -32.0271   26.2230 C   0  0  0  0  0  0  0  0  0  0  0  0
  -25.0395  -31.1265   25.5547 C   0  0  0  0  0  0  0  0  0  0  0  0
  -29.3143  -28.1906   20.6127 C   0  0  0  0  0  0  0  0  0  0  0  0
  -30.7820  -18.9585   20.2106 C   0  0  0  0  0  0  0  0  0  0  0  0
  -23.6164   -8.6717   22.5293 C   0  0  0  0  0  0  0  0  0  0  0  0
  -24.2193   -9.9438   24.4928 C   0  0  0  0  0  0  0  0  0  0  0  0
  -30.0451  -27.0275   20.3746 C   0  0  0  0  0  0  0  0  0  0  0  0
  -31.0681  -20.2797   20.5541 C   0  0  0  0  0  0  0  0  0  0  0  0
  -20.9059   -7.9145   24.4036 C   0  0  0  0  0  0  0  0  0  0  0  0
  -19.6862   -7.3118   24.0959 C   0  0  0  0  0  0  0  0  0  0  0  0
  -28.0319  -25.9204   19.6392 C   0  0  0  0  0  0  0  0  0  0  0  0
  -28.7097  -20.7140   20.8479 C   0  0  0  0  0  0  0  0  0  0  0  0
  -20.8098   -5.1954   23.7874 C   0  0  0  0  0  0  0  0  0  0  0  0
  -24.5583  -10.8839   22.2932 C   0  0  0  0  0  0  0  0  0  0  0  0
  -24.2298  -13.0524   20.9902 C   0  0  0  0  0  0  0  0  0  0  0  0
  -22.6299  -30.8589   25.4568 C   0  0  0  0  0  0  0  0  0  0  0  0
  -27.9326  -28.2242   20.3757 C   0  0  0  0  0  0  0  0  0  0  0  0
  -23.9180  -30.3961   25.1265 C   0  0  0  0  0  0  0  0  0  0  0  0
  -27.2863  -27.0860   19.8726 C   0  0  0  0  0  0  0  0  0  0  0  0
  -29.4598  -18.5150   20.1855 C   0  0  0  0  0  0  0  0  0  0  0  0
  -23.7044   -8.7823   23.9170 C   0  0  0  0  0  0  0  0  0  0  0  0
  -29.4035  -25.8912   19.8905 C   0  0  0  0  0  0  0  0  0  0  0  0
  -30.0320  -21.1575   20.8728 C   0  0  0  0  0  0  0  0  0  0  0  0
  -22.0776   -7.1576   24.4031 C   0  0  0  0  0  0  0  0  0  0  0  0
  -19.6381   -5.9523   23.7878 C   0  0  0  0  0  0  0  0  0  0  0  0
  -28.4236  -19.3928   20.5042 C   0  0  0  0  0  0  0  0  0  0  0  0
  -22.0296   -5.7981   24.0950 C   0  0  0  0  0  0  0  0  0  0  0  0
  -25.0000  -11.9695   21.4550 C   0  0  0  0  0  0  0  0  0  0  0  0
  -25.1046  -13.7986   20.2391 C   0  0  0  0  0  0  0  0  0  0  0  0
  -22.8471  -13.3565   21.2173 C   0  0  0  0  0  0  0  0  0  0  0  0
  -25.3581  -28.6945   22.1797 C   0  0  0  0  0  0  0  0  0  0  0  0
  -23.8210  -28.6090   19.3245 C   0  0  0  0  0  0  0  0  0  0  0  0
  -23.8043  -27.5722   16.0731 C   0  0  0  0  0  0  0  0  0  0  0  0
  -30.0847  -16.1747   19.4935 C   0  0  0  0  0  0  0  0  0  0  0  0
  -21.3887  -30.0957   25.0674 C   0  0  0  0  0  0  0  0  0  0  0  0
  -27.1632  -29.4948   20.6123 C   0  0  0  0  0  0  0  0  0  0  0  0
  -25.8084  -27.0763   19.5826 C   0  0  0  0  0  0  0  0  0  0  0  0
  -21.6240  -29.0770   23.9551 C   0  0  0  0  0  0  0  0  0  0  0  0
  -29.7777  -12.7400   18.6070 C   0  0  0  0  0  0  0  0  0  0  0  0
  -22.8783  -28.2567   24.2391 C   0  0  0  0  0  0  0  0  0  0  0  0
  -28.4440  -12.3225   19.2307 C   0  0  0  0  0  0  0  0  0  0  0  0
  -30.5323  -13.7304   19.4921 C   0  0  0  0  0  0  0  0  0  0  0  0
  -28.4284  -14.4960   20.5202 C   0  0  0  0  0  0  0  0  0  0  0  0
  -24.1226  -29.1513   24.2906 C   0  0  1  0  0  0  0  0  0  0  0  0
  -25.6707  -29.2593   20.8229 C   0  0  1  0  0  0  0  0  0  0  0  0
  -27.6023  -13.5488   19.6347 C   0  0  2  0  0  0  0  0  0  0  0  0
  -22.3954  -27.6215   13.9970 C   0  0  0  0  0  0  0  0  0  0  0  0
  -22.0091  -26.4570   20.5059 C   0  0  0  0  0  0  0  0  0  0  0  0
  -21.2863  -25.8860   18.1779 C   0  0  0  0  0  0  0  0  0  0  0  0
  -20.8302  -28.1578   19.1017 C   0  0  0  0  0  0  0  0  0  0  0  0
  -25.8768  -29.0487   14.5620 C   0  0  0  0  0  0  0  0  0  0  0  0
  -31.2612  -24.5267   20.4758 C   0  0  0  0  0  0  0  0  0  1  0  0
  -31.4737  -23.0327   20.6261 C   0  0  0  0  0  0  0  0  0  0  0  0
  -23.1974  -27.5257   18.4781 C   0  0  1  0  0  0  0  0  0  0  0  0
  -23.5008  -28.3106   14.7819 C   0  0  2  0  0  0  0  0  0  0  0  0
  -21.8583  -27.0059   19.0731 C   0  0  0  0  0  0  0  0  0  0  0  0
  -26.2666  -12.0195   21.0342 N   0  0  0  0  0  0  0  0  0  0  0  0
  -26.2990  -13.1428   20.2971 N   0  0  0  0  0  0  0  0  0  0  0  0
  -25.0986  -28.3411   19.8361 N   0  0  0  0  0  0  0  0  0  0  0  0
  -29.6740  -14.8677   19.8310 N   0  0  0  0  0  0  0  0  0  0  0  0
  -24.9610  -14.9452   19.5412 N   0  0  0  0  0  0  0  0  0  0  0  0
  -22.0930  -12.4837   22.0134 N   0  0  0  0  0  0  0  0  0  0  0  0
  -29.1724  -17.1722   19.8360 N   0  0  0  0  0  0  0  0  0  0  0  0
  -24.5475  -29.5037   22.9528 N   0  0  0  0  0  0  0  0  0  0  0  0
  -23.0794  -28.0763   17.1322 N   0  0  0  0  0  0  0  0  0  0  0  0
  -24.7173  -28.3743   13.9234 N   0  3  0  0  0  0  0  0  0  0  0  0
  -22.2926  -14.3634   20.7151 O   0  0  0  0  0  0  0  0  0  0  0  0
  -25.8170  -27.6046   22.5009 O   0  0  0  0  0  0  0  0  0  0  0  0
  -23.2006  -29.6574   19.5185 O   0  0  0  0  0  0  0  0  0  0  0  0
  -24.6016  -26.6390   16.1351 O   0  0  0  0  0  0  0  0  0  0  0  0
  -31.1537  -16.3905   18.9167 O   0  0  0  0  0  0  0  0  0  0  0  0
  -23.2877   -7.7573   24.7095 O   0  0  0  0  0  0  0  0  0  0  0  0
  -30.1143  -24.7543   19.6579 O   0  0  0  0  0  0  0  0  0  1  0  0
  -30.3131  -22.4549   21.2114 O   0  0  0  0  0  0  0  0  0  0  0  0
  -18.4666   -5.3733   23.4939 F   0  0  0  0  0  0  0  0  0  0  0  0
  -27.1490  -18.9774   20.4830 F   0  0  0  0  0  0  0  0  0  0  0  0
  -23.1517   -5.0655   24.0941 F   0  0  0  0  0  0  0  0  0  0  0  0
  1  2  1  0  0  0  0
  1  5  2  0  0  0  0
  2  6  2  0  0  0  0
  3  9  2  0  0  0  0
  3 18  1  0  0  0  0
  4 10  1  0  0  0  0
  4 18  2  0  0  0  0
  5 20  1  0  0  0  0
  6 22  1  0  0  0  0
  7 11  2  0  0  0  0
  7 21  1  0  0  0  0
  8 12  2  0  0  0  0
  8 24  1  0  0  0  0
  9 25  1  0  0  0  0
 10 25  2  0  0  0  0
 11 26  1  0  0  0  0
 12 27  1  0  0  0  0
 13 14  2  0  0  0  0
 13 28  1  0  0  0  0
 14 29  1  0  0  0  0
 15 23  1  0  0  0  0
 15 26  2  0  0  0  0
 16 27  2  0  0  0  0
 16 30  1  0  0  0  0
 17 29  2  0  0  0  0
 17 31  1  0  0  0  0
 18 32  1  0  0  0  0
 19 32  1  0  0  0  0
 19 33  2  0  0  0  0
 19 34  1  0  0  0  0
 20 22  2  0  0  0  0
 20 39  1  0  0  0  0
 21 23  2  0  0  0  0
 21 40  1  0  0  0  0
 22 48  1  0  0  0  0
 23 41  1  0  0  0  0
 24 30  2  0  0  0  0
 24 67  1  0  0  0  0
 25 76  1  0  0  0  0
 26 77  1  0  0  0  0
 27 78  1  0  0  0  0
 28 31  2  0  0  0  0
 28 76  1  0  0  0  0
 29 79  1  0  0  0  0
 30 80  1  0  0  0  0
 31 81  1  0  0  0  0
 32 61  2  0  0  0  0
 33 62  1  0  0  0  0
 33 65  1  0  0  0  0
 34 66  1  0  0  0  0
 34 71  2  0  0  0  0
 35 49  1  0  0  0  0
 35 68  1  0  0  0  0
 35 72  2  0  0  0  0
 36 58  1  0  0  0  0
 36 63  1  0  0  0  0
 36 73  2  0  0  0  0
 37 59  1  0  0  0  0
 37 69  1  0  0  0  0
 37 74  2  0  0  0  0
 38 64  1  0  0  0  0
 38 67  1  0  0  0  0
 38 75  2  0  0  0  0
 39 42  1  0  0  0  0
 40 49  1  0  0  0  0
 41 63  1  0  0  0  0
 42 44  1  0  0  0  0
 43 45  1  0  0  0  0
 43 46  1  0  0  0  0
 44 48  1  0  0  0  0
 45 50  1  0  0  0  0
 46 64  1  0  0  0  0
 47 50  1  0  0  0  0
 47 64  1  0  0  0  0
 48 68  1  0  0  0  0
 49 63  1  0  0  0  0
 50 62  1  0  0  0  0
 51 59  1  0  0  0  0
 52 60  1  0  0  0  0
 53 60  1  0  0  0  0
 54 60  1  0  0  0  0
 55 70  1  0  0  0  0
 56 57  1  0  0  0  0
 56 77  1  0  0  0  0
 57 78  1  0  0  0  0
 58 60  1  0  0  0  0
 58 69  1  0  0  0  0
 59 70  1  0  0  0  0
 61 62  1  0  0  0  0
M  CHG  1  70   1
M  ISO  4  38 100  56 101  67 100  77 101
M  END
> <Batch ID>
0011

> <Smiles>
CNC(C)C(=O)NC(C(=O)N1Cc2cc([101O:1][101CH2:1]COc3ccc([100NH:0][100C:0](=O)N4CCCC(n5nc(-c6ccc(Oc7ccc(F)cc7F)cc6)c(C(N)=O)c5N)C4)c(F)c3)ccc2CC1C(=O)NC1CCCc2ccccc21)C(C)(C)C

> <Shape>
0.293

> <Color>
0.123

> <Negative vol penalty>
0.000

$$$$

  -OEChem-04042320433D

 84 93  0     1  0  0  0  0  0999 V2000
  -25.6880  -16.5661   24.7078 C   0  0  0  0  0  0  0  0  0  0  0  0
  -25.5458  -17.7774   25.3754 C   0  0  0  0  0  0  0  0  0  0  0  0
  -28.2506  -14.2603   21.7655 C   0  0  0  0  0  0  0  0  0  0  0  0
  -27.4837  -14.7942   19.5375 C   0  0  0  0  0  0  0  0  0  0  0  0
  -25.2689  -16.4508   23.3841 C   0  0  0  0  0  0  0  0  0  0  0  0
  -24.9736  -18.8702   24.7233 C   0  0  0  0  0  0  0  0  0  0  0  0
  -23.5609  -25.8816   25.2270 C   0  0  0  0  0  0  0  0  0  0  0  0
  -28.0709  -27.2083   21.1647 C   0  0  0  0  0  0  0  0  0  0  0  0
  -26.5398  -26.7888   19.3435 C   0  0  0  0  0  0  0  0  0  0  0  0
  -27.2844  -28.2834   21.5783 C   0  0  0  0  0  0  0  0  0  0  0  0
  -25.7532  -27.8639   19.7572 C   0  0  0  0  0  0  0  0  0  0  0  0
  -27.4339  -13.1296   21.7758 C   0  0  0  0  0  0  0  0  0  0  0  0
  -26.6669  -13.6635   19.5477 C   0  0  0  0  0  0  0  0  0  0  0  0
  -23.7656  -27.1279   24.6365 C   0  0  0  0  0  0  0  0  0  0  0  0
  -27.5055   -9.9935   20.5138 C   0  0  0  0  0  0  0  0  0  0  0  0
  -28.0552   -8.8010   20.9842 C   0  0  0  0  0  0  0  0  0  0  0  0
  -22.1005  -26.6054   22.9710 C   0  0  0  0  0  0  0  0  0  0  0  0
  -26.3743   -8.7097   22.7172 C   0  0  0  0  0  0  0  0  0  0  0  0
  -28.2755  -15.0926   20.6464 C   0  0  0  0  0  0  0  0  0  0  0  0
  -30.4532  -16.3422   20.1953 C   0  0  0  0  0  0  0  0  0  0  0  0
  -24.7028  -17.5469   22.7123 C   0  0  0  0  0  0  0  0  0  0  0  0
  -22.6307  -24.9821   24.6867 C   0  0  0  0  0  0  0  0  0  0  0  0
  -24.5225  -18.7670   23.3950 C   0  0  0  0  0  0  0  0  0  0  0  0
  -21.8840  -25.3494   23.5582 C   0  0  0  0  0  0  0  0  0  0  0  0
  -27.6987  -26.4611   20.0472 C   0  0  0  0  0  0  0  0  0  0  0  0
  -26.1255  -28.6112   20.8746 C   0  0  0  0  0  0  0  0  0  0  0  0
  -26.6421  -12.8312   20.6669 C   0  0  0  0  0  0  0  0  0  0  0  0
  -23.0375  -27.4888   23.5066 C   0  0  0  0  0  0  0  0  0  0  0  0
  -26.3902  -10.5442   21.1451 C   0  0  0  0  0  0  0  0  0  0  0  0
  -27.4896   -8.1591   22.0858 C   0  0  0  0  0  0  0  0  0  0  0  0
  -25.8246   -9.9023   22.2468 C   0  0  0  0  0  0  0  0  0  0  0  0
  -29.1185  -16.2611   20.6355 C   0  0  0  0  0  0  0  0  0  0  0  0
  -30.7997  -17.6569   20.3902 C   0  0  0  0  0  0  0  0  0  0  0  0
  -31.3038  -15.3206   19.6582 C   0  0  0  0  0  0  0  0  0  0  0  0
  -22.7978  -22.0665   23.4316 C   0  0  0  0  0  0  0  0  0  0  0  0
  -19.5634  -22.3127   23.4127 C   0  0  0  0  0  0  0  0  0  0  0  0
  -16.8115  -24.3309   23.3856 C   0  0  0  0  0  0  0  0  0  0  0  0
  -28.5215  -22.8573   19.9677 C   0  0  0  0  0  0  0  0  0  0  0  0
  -24.2593  -17.3643   21.2822 C   0  0  0  0  0  0  0  0  0  0  0  0
  -22.4025  -23.6522   25.3513 C   0  0  0  0  0  0  0  0  0  0  0  0
  -20.8588  -24.4279   22.9513 C   0  0  0  0  0  0  0  0  0  0  0  0
  -24.0779  -18.6859   20.5427 C   0  0  0  0  0  0  0  0  0  0  0  0
  -29.0709  -21.3365   23.2054 C   0  0  0  0  0  0  0  0  0  0  0  0
  -24.9313  -31.9568   21.6504 C   0  0  0  0  0  0  0  0  0  0  0  0
  -23.2300  -19.6355   21.3757 C   0  0  0  0  0  0  0  0  0  0  0  0
  -29.2708  -19.8691   22.8222 C   0  0  0  0  0  0  0  0  0  0  0  0
  -23.5953  -31.2371   21.5984 C   0  0  0  0  0  0  0  0  0  0  0  0
  -25.9168  -30.8372   21.9622 C   0  0  0  0  0  0  0  0  0  0  0  0
  -28.0083  -21.9962   22.3316 C   0  0  0  0  0  0  0  0  0  0  0  0
  -28.4675  -20.4334   20.4821 C   0  0  0  0  0  0  0  0  0  0  0  0
  -23.9309  -19.9779   22.6964 C   0  0  1  0  0  0  0  0  0  0  0  0
  -21.7992  -22.6112   24.4134 C   0  0  1  0  0  0  0  0  0  0  0  0
  -29.5458  -19.7161   21.3145 C   0  0  2  0  0  0  0  0  0  0  0  0
  -23.9298  -29.8824   20.9501 C   0  0  2  0  0  0  0  0  0  0  0  0
  -14.3041  -24.2424   23.3333 C   0  0  0  0  0  0  0  0  0  0  0  0
  -19.6524  -21.6118   20.4444 C   0  0  0  0  0  0  0  0  0  0  0  0
  -17.3042  -22.4571   20.2456 C   0  0  0  0  0  0  0  0  0  0  0  0
  -17.8062  -20.5097   21.7215 C   0  0  0  0  0  0  0  0  0  0  0  0
  -16.5923  -25.7256   25.9868 C   0  0  0  0  0  0  0  0  0  0  0  0
  -28.5393  -25.3117   19.6038 C   0  0  0  0  0  0  0  0  0  0  0  0
  -23.0238  -28.7954   21.5195 C   0  0  0  0  0  0  0  0  0  1  0  0
  -18.5358  -22.8238   22.4319 C   0  0  1  0  0  0  0  0  0  0  0  0
  -15.5407  -24.3125   24.2158 C   0  0  2  0  0  0  0  0  0  0  0  0
  -18.3453  -21.8674   21.2209 C   0  0  0  0  0  0  0  0  0  0  0  0
  -28.6491  -17.4310   21.0769 N   0  0  0  0  0  0  0  0  0  0  0  0
  -29.6946  -18.2598   20.9151 N   0  0  0  0  0  0  0  0  0  0  0  0
  -25.3457  -29.6741   21.2849 N   0  0  3  0  0  0  0  0  0  0  0  0
  -20.6764  -23.1361   23.6336 N   0  0  0  0  0  0  0  0  0  0  0  0
  -28.3390  -21.8307   20.9091 N   0  0  0  0  0  0  0  0  0  0  0  0
  -31.9388  -18.3446   20.1620 N   0  0  0  0  0  0  0  0  0  0  0  0
  -30.7887  -14.0239   19.5256 N   0  0  0  0  0  0  0  0  0  0  0  0
  -23.0122  -20.7060   23.5435 N   0  0  0  0  0  0  0  0  0  0  0  0
  -17.3199  -23.0624   23.2019 N   0  0  0  0  0  0  0  0  0  0  0  0
  -28.3756  -24.1517   20.4515 N   0  0  0  0  0  0  0  0  0  0  0  0
  -15.4513  -25.5420   25.0533 N   0  3  0  0  0  0  0  0  0  0  0  0
  -32.4907  -15.5471   19.3216 O   0  0  0  0  0  0  0  0  0  0  0  0
  -23.3329  -22.8242   22.6309 O   0  0  0  0  0  0  0  0  0  0  0  0
  -19.3815  -21.2262   23.9678 O   0  0  0  0  0  0  0  0  0  0  0  0
  -17.3019  -25.3665   22.9413 O   0  0  0  0  0  0  0  0  0  0  0  0
  -28.7994  -22.6368   18.7840 O   0  0  0  0  0  0  0  0  0  0  0  0
  -25.8452  -11.7278   20.6764 O   0  0  0  0  0  0  0  0  0  0  0  0
  -23.2358  -28.7043   22.9278 O   0  0  0  0  0  0  0  0  0  1  0  0
  -28.0167   -7.0131   22.5365 F   0  0  0  0  0  0  0  0  0  0  0  0
  -24.7524  -10.4259   22.8567 F   0  0  0  0  0  0  0  0  0  0  0  0
  1  2  1  0  0  0  0
  1  5  2  0  0  0  0
  2  6  2  0  0  0  0
  3 12  2  0  0  0  0
  3 19  1  0  0  0  0
  4 13  1  0  0  0  0
  4 19  2  0  0  0  0
  5 21  1  0  0  0  0
  6 23  1  0  0  0  0
  7 14  2  0  0  0  0
  7 22  1  0  0  0  0
  8 10  2  0  0  0  0
  8 25  1  0  0  0  0
  9 11  1  0  0  0  0
  9 25  2  0  0  0  0
 10 26  1  0  0  0  0
 11 26  2  0  0  0  0
 12 27  1  0  0  0  0
 13 27  2  0  0  0  0
 14 28  1  0  0  0  0
 15 16  2  0  0  0  0
 15 29  1  0  0  0  0
 16 30  1  0  0  0  0
 17 24  1  0  0  0  0
 17 28  2  0  0  0  0
 18 30  2  0  0  0  0
 18 31  1  0  0  0  0
 19 32  1  0  0  0  0
 20 32  1  0  0  0  0
 20 33  2  0  0  0  0
 20 34  1  0  0  0  0
 21 23  2  0  0  0  0
 21 39  1  0  0  0  0
 22 24  2  0  0  0  0
 22 40  1  0  0  0  0
 23 51  1  0  0  0  0
 24 41  1  0  0  0  0
 25 60  1  0  0  0  0
 26 67  1  0  0  0  0
 27 81  1  0  0  0  0
 28 82  1  0  0  0  0
 29 31  2  0  0  0  0
 29 81  1  0  0  0  0
 30 83  1  0  0  0  0
 31 84  1  0  0  0  0
 32 65  2  0  0  0  0
 33 66  1  0  0  0  0
 33 70  1  0  0  0  0
 34 71  1  0  0  0  0
 34 76  2  0  0  0  0
 35 52  1  0  0  0  0
 35 72  1  0  0  0  0
 35 77  2  0  0  0  0
 36 62  1  0  0  0  0
 36 68  1  0  0  0  0
 36 78  2  0  0  0  0
 37 63  1  0  0  0  0
 37 73  1  0  0  0  0
 37 79  2  0  0  0  0
 38 69  1  0  0  0  0
 38 74  1  0  0  0  0
 38 80  2  0  0  0  0
 39 42  1  0  0  0  0
 40 52  1  0  0  0  0
 41 68  1  0  0  0  0
 42 45  1  0  0  0  0
 43 46  1  0  0  0  0
 43 49  1  0  0  0  0
 44 47  1  0  0  0  0
 44 48  1  0  0  0  0
 45 51  1  0  0  0  0
 46 53  1  0  0  0  0
 47 54  1  0  0  0  0
 48 67  1  0  0  0  0
 49 69  1  0  0  0  0
 50 53  1  0  0  0  0
 50 69  1  0  0  0  0
 51 72  1  0  0  0  0
 52 68  1  0  0  0  0
 53 66  1  0  0  0  0
 54 61  1  0  0  0  0
 54 67  1  0  0  0  0
 55 63  1  0  0  0  0
 56 64  1  0  0  0  0
 57 64  1  0  0  0  0
 58 64  1  0  0  0  0
 59 75  1  0  0  0  0
 60 74  1  0  0  0  0
 61 82  1  0  0  0  0
 62 64  1  0  0  0  0
 62 73  1  0  0  0  0
 63 75  1  0  0  0  0
 65 66  1  0  0  0  0
M  CHG  1  75   1
M  ISO  4  38 100  61 101  74 100  82 101
M  END
> <Batch ID>
0011

> <Smiles>
CNC(C)C(=O)NC(C(=O)N1Cc2cc([101O:1][101CH2:1]C3CCCN3c3ccc(C[100NH:0][100C:0](=O)N4CCCC(n5nc(-c6ccc(Oc7ccc(F)cc7F)cc6)c(C(N)=O)c5N)C4)cc3)ccc2CC1C(=O)NC1CCCc2ccccc21)C(C)(C)C

> <Shape>
0.185

> <Color>
0.072

> <Negative vol penalty>
0.000

$$$$

  -OEChem-04042320433D

 83 91  0     1  0  0  0  0  0999 V2000
  -23.6887  -20.1753   25.6209 C   0  0  0  0  0  0  0  0  0  0  0  0
  -24.8963  -20.7242   25.2015 C   0  0  0  0  0  0  0  0  0  0  0  0
  -24.7215  -14.8058   21.6094 C   0  0  0  0  0  0  0  0  0  0  0  0
  -26.3960  -14.8793   19.8694 C   0  0  0  0  0  0  0  0  0  0  0  0
  -22.4859  -20.6881   25.1369 C   0  0  0  0  0  0  0  0  0  0  0  0
  -24.9018  -21.7855   24.2971 C   0  0  0  0  0  0  0  0  0  0  0  0
  -28.8628  -26.4530   24.1220 C   0  0  0  0  0  0  0  0  0  0  0  0
  -27.5947  -24.4156   19.0659 C   0  0  0  0  0  0  0  0  0  0  0  0
  -24.8109  -13.4141   21.6367 C   0  0  0  0  0  0  0  0  0  0  0  0
  -26.4854  -13.4876   19.8967 C   0  0  0  0  0  0  0  0  0  0  0  0
  -29.9984  -26.6910   23.3490 C   0  0  0  0  0  0  0  0  0  0  0  0
  -28.8926  -24.5859   19.5477 C   0  0  0  0  0  0  0  0  0  0  0  0
  -24.3382   -9.8191   21.9118 C   0  0  0  0  0  0  0  0  0  0  0  0
  -23.1485   -9.0919   21.9490 C   0  0  0  0  0  0  0  0  0  0  0  0
  -28.6724  -27.9964   21.8138 C   0  0  0  0  0  0  0  0  0  0  0  0
  -28.3595  -24.9150   16.8292 C   0  0  0  0  0  0  0  0  0  0  0  0
  -22.4795  -10.0790   19.8477 C   0  0  0  0  0  0  0  0  0  0  0  0
  -25.5140  -15.5384   20.7257 C   0  0  0  0  0  0  0  0  0  0  0  0
  -26.1728  -17.8917   21.4579 C   0  0  0  0  0  0  0  0  0  0  0  0
  -22.4763  -21.7625   24.2335 C   0  0  0  0  0  0  0  0  0  0  0  0
  -27.6193  -26.9767   23.7402 C   0  0  0  0  0  0  0  0  0  0  0  0
  -23.6977  -22.3122   23.7995 C   0  0  0  0  0  0  0  0  0  0  0  0
  -27.5230  -27.7657   22.5850 C   0  0  0  0  0  0  0  0  0  0  0  0
  -27.3282  -24.5801   17.7066 C   0  0  0  0  0  0  0  0  0  0  0  0
  -25.6928  -12.7550   20.7804 C   0  0  0  0  0  0  0  0  0  0  0  0
  -29.9028  -27.4604   22.1932 C   0  0  0  0  0  0  0  0  0  0  0  0
  -24.5986  -10.6763   20.8427 C   0  0  0  0  0  0  0  0  0  0  0  0
  -29.9239  -24.9208   18.6703 C   0  0  0  0  0  0  0  0  0  0  0  0
  -22.2192   -9.2218   20.9169 C   0  0  0  0  0  0  0  0  0  0  0  0
  -29.6574  -25.0854   17.3111 C   0  0  0  0  0  0  0  0  0  0  0  0
  -23.6693  -10.8062   19.8106 C   0  0  0  0  0  0  0  0  0  0  0  0
  -25.4217  -16.9761   20.6967 C   0  0  0  0  0  0  0  0  0  0  0  0
  -25.7117  -19.1244   21.0650 C   0  0  0  0  0  0  0  0  0  0  0  0
  -27.1958  -17.6495   22.4328 C   0  0  0  0  0  0  0  0  0  0  0  0
  -24.8122  -25.7257   22.9284 C   0  0  0  0  0  0  0  0  0  0  0  0
  -23.8660  -28.8284   22.9390 C   0  0  0  0  0  0  0  0  0  0  0  0
  -24.7251  -32.1202   22.6688 C   0  0  0  0  0  0  0  0  0  0  0  0
  -24.1485  -22.6872   17.0640 C   0  0  0  0  0  0  0  0  0  0  0  0
  -21.1526  -22.2519   23.7016 C   0  0  0  0  0  0  0  0  0  0  0  0
  -26.4089  -26.7331   24.5993 C   0  0  0  0  0  0  0  0  0  0  0  0
  -26.2153  -28.3677   22.1426 C   0  0  0  0  0  0  0  0  0  0  0  0
  -21.2335  -23.6224   23.0342 C   0  0  0  0  0  0  0  0  0  0  0  0
  -21.6985  -20.3982   18.2618 C   0  0  0  0  0  0  0  0  0  0  0  0
  -22.4249  -23.6838   22.0836 C   0  0  0  0  0  0  0  0  0  0  0  0
  -22.5113  -19.3765   19.0591 C   0  0  0  0  0  0  0  0  0  0  0  0
  -22.4547  -20.8800   17.0256 C   0  0  0  0  0  0  0  0  0  0  0  0
  -24.6209  -20.3802   18.0892 C   0  0  0  0  0  0  0  0  0  0  0  0
  -23.7441  -23.4803   22.8385 C   0  0  1  0  0  0  0  0  0  0  0  0
  -25.0955  -26.8872   23.8386 C   0  0  1  0  0  0  0  0  0  0  0  0
  -23.9227  -19.9067   19.3755 C   0  0  2  0  0  0  0  0  0  0  0  0
  -23.7289  -34.4235   22.6812 C   0  0  0  0  0  0  0  0  0  0  0  0
  -22.8206  -28.3890   20.1063 C   0  0  0  0  0  0  0  0  0  0  0  0
  -22.7205  -30.8755   19.8322 C   0  0  0  0  0  0  0  0  0  0  0  0
  -21.3238  -29.7569   21.5702 C   0  0  0  0  0  0  0  0  0  0  0  0
  -26.3088  -32.9184   25.0381 C   0  0  0  0  0  0  0  0  0  0  0  0
  -25.9401  -24.3997   17.1928 C   0  0  0  0  0  0  0  0  0  0  0  0
  -32.7395  -26.6750   20.0981 C   0  0  0  0  0  0  0  0  0  0  0  0
  -32.0216  -26.6877   21.4386 C   0  0  0  0  0  0  0  0  0  1  0  0
  -31.7933  -26.3643   18.9490 C   0  0  0  0  0  0  0  0  0  0  0  0
  -23.8221  -29.9362   21.9143 C   0  0  1  0  0  0  0  0  0  0  0  0
  -24.3693  -33.3271   23.5182 C   0  0  2  0  0  0  0  0  0  0  0  0
  -22.6962  -29.7266   20.8628 C   0  0  0  0  0  0  0  0  0  0  0  0
  -24.5496  -17.5759   19.8821 N   0  0  0  0  0  0  0  0  0  0  0  0
  -24.7497  -18.8816   20.1292 N   0  0  0  0  0  0  0  0  0  0  0  0
  -25.0591  -28.0957   23.0126 N   0  0  0  0  0  0  0  0  0  0  0  0
  -23.7844  -21.3714   17.3946 N   0  0  0  0  0  0  0  0  0  0  0  0
  -26.0393  -20.3814   21.4324 N   0  0  0  0  0  0  0  0  0  0  0  0
  -27.5478  -16.3229   22.7165 N   0  0  0  0  0  0  0  0  0  0  0  0
  -24.1213  -24.6928   23.5328 N   0  0  0  0  0  0  0  0  0  0  0  0
  -23.7141  -31.1825   22.6650 N   0  0  0  0  0  0  0  0  0  0  0  0
  -25.4240  -23.0749   17.4559 N   0  0  0  0  0  0  0  0  0  0  0  0
  -25.5911  -33.8831   24.1656 N   0  3  0  0  0  0  0  0  0  0  0  0
  -27.7690  -18.5815   23.0464 O   0  0  0  0  0  0  0  0  0  0  0  0
  -25.1909  -25.7645   21.7636 O   0  0  0  0  0  0  0  0  0  0  0  0
  -22.8807  -28.6255   23.6528 O   0  0  0  0  0  0  0  0  0  0  0  0
  -25.7914  -32.0211   22.0658 O   0  0  0  0  0  0  0  0  0  0  0  0
  -23.3909  -23.4609   16.4687 O   0  0  0  0  0  0  0  0  0  0  0  0
  -25.7805  -11.3970   20.8069 O   0  0  0  0  0  0  0  0  0  0  0  0
  -31.0095  -27.6937   21.4365 O   0  0  0  0  0  0  0  0  0  1  0  0
  -31.1986  -25.0885   19.1453 O   0  0  0  0  0  0  0  0  0  0  0  0
  -21.0775   -8.5223   20.9519 F   0  0  0  0  0  0  0  0  0  0  0  0
  -30.6440  -25.4075   16.4633 F   0  0  0  0  0  0  0  0  0  0  0  0
  -23.9144  -11.6273   18.7803 F   0  0  0  0  0  0  0  0  0  0  0  0
  1  2  1  0  0  0  0
  1  5  2  0  0  0  0
  2  6  2  0  0  0  0
  3  9  2  0  0  0  0
  3 18  1  0  0  0  0
  4 10  1  0  0  0  0
  4 18  2  0  0  0  0
  5 20  1  0  0  0  0
  6 22  1  0  0  0  0
  7 11  2  0  0  0  0
  7 21  1  0  0  0  0
  8 12  2  0  0  0  0
  8 24  1  0  0  0  0
  9 25  1  0  0  0  0
 10 25  2  0  0  0  0
 11 26  1  0  0  0  0
 12 28  1  0  0  0  0
 13 14  2  0  0  0  0
 13 27  1  0  0  0  0
 14 29  1  0  0  0  0
 15 23  1  0  0  0  0
 15 26  2  0  0  0  0
 16 24  2  0  0  0  0
 16 30  1  0  0  0  0
 17 29  2  0  0  0  0
 17 31  1  0  0  0  0
 18 32  1  0  0  0  0
 19 32  1  0  0  0  0
 19 33  2  0  0  0  0
 19 34  1  0  0  0  0
 20 22  2  0  0  0  0
 20 39  1  0  0  0  0
 21 23  2  0  0  0  0
 21 40  1  0  0  0  0
 22 48  1  0  0  0  0
 23 41  1  0  0  0  0
 24 56  1  0  0  0  0
 25 78  1  0  0  0  0
 26 79  1  0  0  0  0
 27 31  2  0  0  0  0
 27 78  1  0  0  0  0
 28 30  2  0  0  0  0
 28 80  1  0  0  0  0
 29 81  1  0  0  0  0
 30 82  1  0  0  0  0
 31 83  1  0  0  0  0
 32 63  2  0  0  0  0
 33 64  1  0  0  0  0
 33 67  1  0  0  0  0
 34 68  1  0  0  0  0
 34 73  2  0  0  0  0
 35 49  1  0  0  0  0
 35 69  1  0  0  0  0
 35 74  2  0  0  0  0
 36 60  1  0  0  0  0
 36 65  1  0  0  0  0
 36 75  2  0  0  0  0
 37 61  1  0  0  0  0
 37 70  1  0  0  0  0
 37 76  2  0  0  0  0
 38 66  1  0  0  0  0
 38 71  1  0  0  0  0
 38 77  2  0  0  0  0
 39 42  1  0  0  0  0
 40 49  1  0  0  0  0
 41 65  1  0  0  0  0
 42 44  1  0  0  0  0
 43 45  1  0  0  0  0
 43 46  1  0  0  0  0
 44 48  1  0  0  0  0
 45 50  1  0  0  0  0
 46 66  1  0  0  0  0
 47 50  1  0  0  0  0
 47 66  1  0  0  0  0
 48 69  1  0  0  0  0
 49 65  1  0  0  0  0
 50 64  1  0  0  0  0
 51 61  1  0  0  0  0
 52 62  1  0  0  0  0
 53 62  1  0  0  0  0
 54 62  1  0  0  0  0
 55 72  1  0  0  0  0
 56 71  1  0  0  0  0
 57 58  1  0  0  0  0
 57 59  1  0  0  0  0
 58 79  1  0  0  0  0
 59 80  1  0  0  0  0
 60 62  1  0  0  0  0
 60 70  1  0  0  0  0
 61 72  1  0  0  0  0
 63 64  1  0  0  0  0
M  CHG  1  72   1
M  ISO  4  38 100  58 101  71 100  79 101
M  END
> <Batch ID>
0011

> <Smiles>
CNC(C)C(=O)NC(C(=O)N1Cc2cc([101O:1][101CH2:1]CCOc3ccc(C[100NH:0][100C:0](=O)N4CCCC(n5nc(-c6ccc(Oc7ccc(F)cc7F)cc6)c(C(N)=O)c5N)C4)cc3F)ccc2CC1C(=O)NC1CCCc2ccccc21)C(C)(C)C

> <Shape>
0.188

> <Color>
0.075

> <Negative vol penalty>
0.000

$$$$

  -OEChem-04042320433D

 82 90  0     1  0  0  0  0  0999 V2000
  -27.5095  -23.4483   18.3293 C   0  0  0  0  0  0  0  0  0  0  0  0
  -26.4307  -23.7745   19.1449 C   0  0  0  0  0  0  0  0  0  0  0  0
  -26.7034  -13.1660   20.0642 C   0  0  0  0  0  0  0  0  0  0  0  0
  -24.6179  -13.6471   21.1851 C   0  0  0  0  0  0  0  0  0  0  0  0
  -28.7371  -24.0835   18.5119 C   0  0  0  0  0  0  0  0  0  0  0  0
  -26.5792  -24.7354   20.1444 C   0  0  0  0  0  0  0  0  0  0  0  0
  -22.7120  -28.0017   20.2892 C   0  0  0  0  0  0  0  0  0  0  0  0
  -22.4256  -21.8347   25.2404 C   0  0  0  0  0  0  0  0  0  0  0  0
  -24.0597  -23.6104   25.1229 C   0  0  0  0  0  0  0  0  0  0  0  0
  -23.4201  -20.9003   24.9517 C   0  0  0  0  0  0  0  0  0  0  0  0
  -25.0543  -22.6759   24.8342 C   0  0  0  0  0  0  0  0  0  0  0  0
  -26.5356  -11.8080   20.3347 C   0  0  0  0  0  0  0  0  0  0  0  0
  -24.4501  -12.2891   21.4556 C   0  0  0  0  0  0  0  0  0  0  0  0
  -21.5331  -27.5664   20.8930 C   0  0  0  0  0  0  0  0  0  0  0  0
  -23.4360   -9.5267   19.7939 C   0  0  0  0  0  0  0  0  0  0  0  0
  -22.1756   -8.9735   19.5685 C   0  0  0  0  0  0  0  0  0  0  0  0
  -22.1310  -28.7564   22.9044 C   0  0  0  0  0  0  0  0  0  0  0  0
  -22.0301   -8.3551   21.8995 C   0  0  0  0  0  0  0  0  0  0  0  0
  -25.7446  -14.0856   20.4894 C   0  0  0  0  0  0  0  0  0  0  0  0
  -25.4697  -16.1916   19.0762 C   0  0  0  0  0  0  0  0  0  0  0  0
  -28.8981  -25.0597   19.5079 C   0  0  0  0  0  0  0  0  0  0  0  0
  -23.6160  -28.8101   20.9934 C   0  0  0  0  0  0  0  0  0  0  0  0
  -27.8105  -25.3834   20.3414 C   0  0  0  0  0  0  0  0  0  0  0  0
  -23.3194  -29.2027   22.3064 C   0  0  0  0  0  0  0  0  0  0  0  0
  -22.7454  -23.1898   25.3260 C   0  0  0  0  0  0  0  0  0  0  0  0
  -24.7344  -21.3209   24.7486 C   0  0  0  0  0  0  0  0  0  0  0  0
  -25.4089  -11.3695   21.0304 C   0  0  0  0  0  0  0  0  0  0  0  0
  -21.2439  -27.9413   22.2017 C   0  0  0  0  0  0  0  0  0  0  0  0
  -23.9936   -9.4941   21.0721 C   0  0  0  0  0  0  0  0  0  0  0  0
  -21.4726   -8.3877   20.6213 C   0  0  0  0  0  0  0  0  0  0  0  0
  -23.2906   -8.9083   22.1249 C   0  0  0  0  0  0  0  0  0  0  0  0
  -25.9176  -15.4886   20.2107 C   0  0  0  0  0  0  0  0  0  0  0  0
  -25.8813  -17.4846   19.2888 C   0  0  0  0  0  0  0  0  0  0  0  0
  -24.7463  -15.7181   17.9325 C   0  0  0  0  0  0  0  0  0  0  0  0
  -26.6362  -28.5031   21.9354 C   0  0  0  0  0  0  0  0  0  0  0  0
  -26.2561  -31.5919   22.8504 C   0  0  0  0  0  0  0  0  0  0  0  0
  -24.1337  -34.0998   23.7739 C   0  0  0  0  0  0  0  0  0  0  0  0
  -27.0977  -20.6217   24.2268 C   0  0  0  0  0  0  0  0  0  0  0  0
  -30.2572  -25.6851   19.6984 C   0  0  0  0  0  0  0  0  0  0  0  0
  -24.8705  -29.2933   20.3187 C   0  0  0  0  0  0  0  0  0  0  0  0
  -24.2471  -30.0860   23.0986 C   0  0  0  0  0  0  0  0  0  0  0  0
  -30.2285  -26.9616   20.5350 C   0  0  0  0  0  0  0  0  0  0  0  0
  -29.2987  -20.0119   21.4953 C   0  0  0  0  0  0  0  0  0  0  0  0
  -29.3793  -26.7608   21.7861 C   0  0  0  0  0  0  0  0  0  0  0  0
  -28.6375  -18.8507   20.7493 C   0  0  0  0  0  0  0  0  0  0  0  0
  -29.1330  -19.8815   23.0084 C   0  0  0  0  0  0  0  0  0  0  0  0
  -27.0894  -18.5359   22.7219 C   0  0  0  0  0  0  0  0  0  0  0  0
  -27.9254  -26.4383   21.4202 C   0  0  1  0  0  0  0  0  0  0  0  0
  -25.9645  -29.6902   21.3052 C   0  0  1  0  0  0  0  0  0  0  0  0
  -27.1738  -18.6572   21.1916 C   0  0  2  0  0  0  0  0  0  0  0  0
  -24.1204  -36.5023   24.4985 C   0  0  0  0  0  0  0  0  0  0  0  0
  -27.2219  -30.7588   25.6223 C   0  0  0  0  0  0  0  0  0  0  0  0
  -26.2991  -32.9087   26.5136 C   0  0  0  0  0  0  0  0  0  0  0  0
  -28.1267  -32.9465   24.8163 C   0  0  0  0  0  0  0  0  0  0  0  0
  -22.5048  -34.9150   21.4413 C   0  0  0  0  0  0  0  0  0  0  0  0
  -21.6755  -24.1948   25.6366 C   0  0  0  0  0  0  0  0  0  0  0  0
  -18.8144  -25.6288   23.5345 C   0  0  0  0  0  0  0  0  0  0  0  0
  -19.6683  -25.4051   24.7735 C   0  0  0  0  0  0  0  0  0  0  0  0
  -19.5731  -26.2574   22.3722 C   0  0  0  0  0  0  0  0  0  1  0  0
  -25.7914  -32.2848   24.1086 C   0  0  1  0  0  0  0  0  0  0  0  0
  -24.0242  -35.5446   23.3211 C   0  0  2  0  0  0  0  0  0  0  0  0
  -26.8430  -32.2064   25.2512 C   0  0  0  0  0  0  0  0  0  0  0  0
  -26.5643  -16.2703   21.0795 N   0  0  0  0  0  0  0  0  0  0  0  0
  -26.5259  -17.4777   20.4908 N   0  0  0  0  0  0  0  0  0  0  0  0
  -25.4641  -30.5274   22.3974 N   0  0  0  0  0  0  0  0  0  0  0  0
  -27.7206  -19.7054   23.3532 N   0  0  0  0  0  0  0  0  0  0  0  0
  -25.7512  -18.6154   18.5630 N   0  0  0  0  0  0  0  0  0  0  0  0
  -24.4027  -14.3605   17.8743 N   0  0  0  0  0  0  0  0  0  0  0  0
  -25.7450  -20.3719   24.4556 N   0  0  0  0  0  0  0  0  0  0  0  0
  -27.2239  -27.6420   21.0285 N   0  0  0  0  0  0  0  0  0  0  0  0
  -25.4339  -33.6441   23.7178 N   0  0  0  0  0  0  0  0  0  0  0  0
  -22.7224  -35.7746   22.6332 N   0  3  0  0  0  0  0  0  0  0  0  0
  -20.7751  -24.4642   24.4815 N   0  3  0  0  0  0  0  0  0  0  0  0
  -24.4287  -16.4730   16.9824 O   0  0  0  0  0  0  0  0  0  0  0  0
  -26.6236  -28.3785   23.1545 O   0  0  0  0  0  0  0  0  0  0  0  0
  -27.2801  -31.9855   22.2863 O   0  0  0  0  0  0  0  0  0  0  0  0
  -23.1635  -33.4424   24.1441 O   0  0  0  0  0  0  0  0  0  0  0  0
  -27.7119  -21.5747   24.7132 O   0  0  0  0  0  0  0  0  0  0  0  0
  -25.2447  -10.0444   21.2944 O   0  0  0  0  0  0  0  0  0  0  0  0
  -20.0942  -27.5173   22.7937 O   0  0  0  0  0  0  0  0  0  1  0  0
  -20.2616   -7.8579   20.4050 F   0  0  0  0  0  0  0  0  0  0  0  0
  -23.8206   -8.8750   23.3553 F   0  0  0  0  0  0  0  0  0  0  0  0
  1  2  1  0  0  0  0
  1  5  2  0  0  0  0
  2  6  2  0  0  0  0
  3 12  2  0  0  0  0
  3 19  1  0  0  0  0
  4 13  1  0  0  0  0
  4 19  2  0  0  0  0
  5 21  1  0  0  0  0
  6 23  1  0  0  0  0
  7 14  2  0  0  0  0
  7 22  1  0  0  0  0
  8 10  2  0  0  0  0
  8 25  1  0  0  0  0
  9 11  1  0  0  0  0
  9 25  2  0  0  0  0
 10 26  1  0  0  0  0
 11 26  2  0  0  0  0
 12 27  1  0  0  0  0
 13 27  2  0  0  0  0
 14 28  1  0  0  0  0
 15 16  2  0  0  0  0
 15 29  1  0  0  0  0
 16 30  1  0  0  0  0
 17 24  1  0  0  0  0
 17 28  2  0  0  0  0
 18 30  2  0  0  0  0
 18 31  1  0  0  0  0
 19 32  1  0  0  0  0
 20 32  1  0  0  0  0
 20 33  2  0  0  0  0
 20 34  1  0  0  0  0
 21 23  2  0  0  0  0
 21 39  1  0  0  0  0
 22 24  2  0  0  0  0
 22 40  1  0  0  0  0
 23 48  1  0  0  0  0
 24 41  1  0  0  0  0
 25 56  1  0  0  0  0
 26 69  1  0  0  0  0
 27 79  1  0  0  0  0
 28 80  1  0  0  0  0
 29 31  2  0  0  0  0
 29 79  1  0  0  0  0
 30 81  1  0  0  0  0
 31 82  1  0  0  0  0
 32 63  2  0  0  0  0
 33 64  1  0  0  0  0
 33 67  1  0  0  0  0
 34 68  1  0  0  0  0
 34 74  2  0  0  0  0
 35 49  1  0  0  0  0
 35 70  1  0  0  0  0
 35 75  2  0  0  0  0
 36 60  1  0  0  0  0
 36 65  1  0  0  0  0
 36 76  2  0  0  0  0
 37 61  1  0  0  0  0
 37 71  1  0  0  0  0
 37 77  2  0  0  0  0
 38 66  1  0  0  0  0
 38 69  1  0  0  0  0
 38 78  2  0  0  0  0
 39 42  1  0  0  0  0
 40 49  1  0  0  0  0
 41 65  1  0  0  0  0
 42 44  1  0  0  0  0
 43 45  1  0  0  0  0
 43 46  1  0  0  0  0
 44 48  1  0  0  0  0
 45 50  1  0  0  0  0
 46 66  1  0  0  0  0
 47 50  1  0  0  0  0
 47 66  1  0  0  0  0
 48 70  1  0  0  0  0
 49 65  1  0  0  0  0
 50 64  1  0  0  0  0
 51 61  1  0  0  0  0
 52 62  1  0  0  0  0
 53 62  1  0  0  0  0
 54 62  1  0  0  0  0
 55 72  1  0  0  0  0
 56 73  1  0  0  0  0
 57 58  1  0  0  0  0
 57 59  1  0  0  0  0
 58 73  1  0  0  0  0
 59 80  1  0  0  0  0
 60 62  1  0  0  0  0
 60 71  1  0  0  0  0
 61 72  1  0  0  0  0
 63 64  1  0  0  0  0
M  CHG  2  72   1  73   1
M  ISO  4  38 100  59 101  69 100  80 101
M  END
> <Batch ID>
0011

> <Smiles>
CNC(C)C(=O)NC(C(=O)N1Cc2cc([101O:1][101CH2:1]CCNCc3ccc([100NH:0][100C:0](=O)N4CCCC(n5nc(-c6ccc(Oc7ccc(F)cc7F)cc6)c(C(N)=O)c5N)C4)cc3)ccc2CC1C(=O)NC1CCCc2ccccc21)C(C)(C)C

> <Shape>
0.281

> <Color>
0.063

> <Negative vol penalty>
0.000

$$$$

  -OEChem-04042320433D

 81 89  0     1  0  0  0  0  0999 V2000
  -17.7155  -33.3419   18.0836 C   0  0  0  0  0  0  0  0  0  0  0  0
  -18.9138  -32.9824   17.4751 C   0  0  0  0  0  0  0  0  0  0  0  0
  -24.8012  -10.2786   22.6259 C   0  0  0  0  0  0  0  0  0  0  0  0
  -24.4888  -11.7693   24.5013 C   0  0  0  0  0  0  0  0  0  0  0  0
  -17.7254  -33.9232   19.3508 C   0  0  0  0  0  0  0  0  0  0  0  0
  -20.1229  -33.2051   18.1332 C   0  0  0  0  0  0  0  0  0  0  0  0
  -24.6112  -27.7615   19.5870 C   0  0  0  0  0  0  0  0  0  0  0  0
  -29.5131  -20.7821   21.9189 C   0  0  0  0  0  0  0  0  0  0  0  0
  -24.3855   -9.2034   23.4112 C   0  0  0  0  0  0  0  0  0  0  0  0
  -24.0729  -10.6941   25.2866 C   0  0  0  0  0  0  0  0  0  0  0  0
  -25.6185  -26.8047   19.7133 C   0  0  0  0  0  0  0  0  0  0  0  0
  -29.3851  -22.1504   22.1577 C   0  0  0  0  0  0  0  0  0  0  0  0
  -21.4645   -7.9153   24.5255 C   0  0  0  0  0  0  0  0  0  0  0  0
  -20.5567   -7.0164   23.9656 C   0  0  0  0  0  0  0  0  0  0  0  0
  -27.0248  -28.4182   20.8389 C   0  0  0  0  0  0  0  0  0  0  0  0
  -27.1423  -20.6374   21.4769 C   0  0  0  0  0  0  0  0  0  0  0  0
  -22.1505   -5.2245   24.2582 C   0  0  0  0  0  0  0  0  0  0  0  0
  -24.8529  -11.5615   23.1710 C   0  0  0  0  0  0  0  0  0  0  0  0
  -24.4755  -13.5061   21.5635 C   0  0  0  0  0  0  0  0  0  0  0  0
  -18.9346  -34.1443   20.0288 C   0  0  0  0  0  0  0  0  0  0  0  0
  -24.8012  -29.0475   20.1004 C   0  0  0  0  0  0  0  0  0  0  0  0
  -20.1490  -33.7912   19.4101 C   0  0  0  0  0  0  0  0  0  0  0  0
  -26.0146  -29.3772   20.7264 C   0  0  0  0  0  0  0  0  0  0  0  0
  -28.3917  -20.0256   21.5784 C   0  0  0  0  0  0  0  0  0  0  0  0
  -24.0213   -9.4111   24.7416 C   0  0  0  0  0  0  0  0  0  0  0  0
  -26.8224  -27.1323   20.3375 C   0  0  0  0  0  0  0  0  0  0  0  0
  -22.7154   -7.4688   24.9517 C   0  0  0  0  0  0  0  0  0  0  0  0
  -28.1357  -22.7621   22.0562 C   0  0  0  0  0  0  0  0  0  0  0  0
  -20.8997   -5.6710   23.8320 C   0  0  0  0  0  0  0  0  0  0  0  0
  -27.0143  -22.0057   21.7158 C   0  0  0  0  0  0  0  0  0  0  0  0
  -23.0584   -6.1234   24.8181 C   0  0  0  0  0  0  0  0  0  0  0  0
  -25.2829  -12.6725   22.3604 C   0  0  0  0  0  0  0  0  0  0  0  0
  -25.3542  -14.3993   21.0010 C   0  0  0  0  0  0  0  0  0  0  0  0
  -23.0579  -13.4758   21.3509 C   0  0  0  0  0  0  0  0  0  0  0  0
  -23.3724  -32.4735   20.6455 C   0  0  0  0  0  0  0  0  0  0  0  0
  -24.8881  -31.7227   23.2046 C   0  0  0  0  0  0  0  0  0  0  0  0
  -26.3005  -30.3471   25.9886 C   0  0  0  0  0  0  0  0  0  0  0  0
  -29.6878  -17.8733   21.3941 C   0  0  0  0  0  0  0  0  0  0  0  0
  -18.8980  -34.8190   21.3772 C   0  0  0  0  0  0  0  0  0  0  0  0
  -23.7676  -30.1278   19.9324 C   0  0  0  0  0  0  0  0  0  0  0  0
  -26.1880  -30.7830   21.2329 C   0  0  0  0  0  0  0  0  0  0  0  0
  -20.1981  -34.6777   22.1645 C   0  0  0  0  0  0  0  0  0  0  0  0
  -30.4150  -14.4228   20.9013 C   0  0  0  0  0  0  0  0  0  0  0  0
  -21.3979  -34.9814   21.2727 C   0  0  0  0  0  0  0  0  0  0  0  0
  -29.0782  -13.7284   21.1714 C   0  0  0  0  0  0  0  0  0  0  0  0
  -30.6319  -15.6163   21.8299 C   0  0  0  0  0  0  0  0  0  0  0  0
  -28.2019  -15.9022   22.1169 C   0  0  0  0  0  0  0  0  0  0  0  0
  -21.4794  -33.9940   20.1023 C   0  0  1  0  0  0  0  0  0  0  0  0
  -23.7025  -31.0923   21.1301 C   0  0  1  0  0  0  0  0  0  0  0  0
  -27.9093  -14.7331   21.1623 C   0  0  2  0  0  0  0  0  0  0  0  0
  -26.8460  -30.8668   28.3823 C   0  0  0  0  0  0  0  0  0  0  0  0
  -27.2368  -33.4417   22.2923 C   0  0  0  0  0  0  0  0  0  0  0  0
  -28.2509  -33.1347   24.5607 C   0  0  0  0  0  0  0  0  0  0  0  0
  -26.0517  -34.2882   24.3254 C   0  0  0  0  0  0  0  0  0  0  0  0
  -24.5818  -28.1504   26.9783 C   0  0  0  0  0  0  0  0  0  0  0  0
  -28.6649  -26.3010   21.5911 C   0  0  0  0  0  0  0  0  0  1  0  0
  -29.1408  -24.9163   21.9857 C   0  0  0  0  0  0  0  0  0  0  0  0
  -26.1840  -31.7882   23.9726 C   0  0  1  0  0  0  0  0  0  0  0  0
  -25.8232  -30.2708   27.4276 C   0  0  2  0  0  0  0  0  0  0  0  0
  -26.9242  -33.1407   23.7717 C   0  0  0  0  0  0  0  0  0  0  0  0
  -26.5752  -13.0063   22.3111 N   0  0  0  0  0  0  0  0  0  0  0  0
  -26.5866  -14.0595   21.4764 N   0  0  0  0  0  0  0  0  0  0  0  0
  -24.9536  -31.2347   21.8939 N   0  0  0  0  0  0  0  0  0  0  0  0
  -29.4868  -16.5270   21.7655 N   0  0  0  0  0  0  0  0  0  0  0  0
  -25.1853  -15.4344   20.1511 N   0  0  0  0  0  0  0  0  0  0  0  0
  -22.3048  -12.4921   22.0063 N   0  0  0  0  0  0  0  0  0  0  0  0
  -28.5216  -18.6356   21.3358 N   0  0  0  0  0  0  0  0  0  0  0  0
  -22.0175  -32.7263   20.5470 N   0  0  0  0  0  0  0  0  0  0  0  0
  -25.8510  -31.4898   25.3613 N   0  0  0  0  0  0  0  0  0  0  0  0
  -25.5846  -28.8529   27.8197 N   0  3  0  0  0  0  0  0  0  0  0  0
  -22.4784  -14.2864   20.5889 O   0  0  0  0  0  0  0  0  0  0  0  0
  -24.2795  -33.2539   20.3813 O   0  0  0  0  0  0  0  0  0  0  0  0
  -23.8455  -32.0986   23.7477 O   0  0  0  0  0  0  0  0  0  0  0  0
  -27.0049  -29.4816   25.4736 O   0  0  0  0  0  0  0  0  0  0  0  0
  -30.8084  -18.3104   21.1197 O   0  0  0  0  0  0  0  0  0  0  0  0
  -23.6153   -8.3622   25.5081 O   0  0  0  0  0  0  0  0  0  0  0  0
  -27.7998  -26.1921   20.4615 O   0  0  0  0  0  0  0  0  0  1  0  0
  -28.0119  -24.1064   22.2905 O   0  0  0  0  0  0  0  0  0  0  0  0
  -20.0272   -4.8077   23.2957 F   0  0  0  0  0  0  0  0  0  0  0  0
  -25.8115  -22.5881   21.6156 F   0  0  0  0  0  0  0  0  0  0  0  0
  -24.2582   -5.6883   25.2268 F   0  0  0  0  0  0  0  0  0  0  0  0
  1  2  1  0  0  0  0
  1  5  2  0  0  0  0
  2  6  2  0  0  0  0
  3  9  2  0  0  0  0
  3 18  1  0  0  0  0
  4 10  1  0  0  0  0
  4 18  2  0  0  0  0
  5 20  1  0  0  0  0
  6 22  1  0  0  0  0
  7 11  2  0  0  0  0
  7 21  1  0  0  0  0
  8 12  2  0  0  0  0
  8 24  1  0  0  0  0
  9 25  1  0  0  0  0
 10 25  2  0  0  0  0
 11 26  1  0  0  0  0
 12 28  1  0  0  0  0
 13 14  2  0  0  0  0
 13 27  1  0  0  0  0
 14 29  1  0  0  0  0
 15 23  1  0  0  0  0
 15 26  2  0  0  0  0
 16 24  2  0  0  0  0
 16 30  1  0  0  0  0
 17 29  2  0  0  0  0
 17 31  1  0  0  0  0
 18 32  1  0  0  0  0
 19 32  1  0  0  0  0
 19 33  2  0  0  0  0
 19 34  1  0  0  0  0
 20 22  2  0  0  0  0
 20 39  1  0  0  0  0
 21 23  2  0  0  0  0
 21 40  1  0  0  0  0
 22 48  1  0  0  0  0
 23 41  1  0  0  0  0
 24 67  1  0  0  0  0
 25 76  1  0  0  0  0
 26 77  1  0  0  0  0
 27 31  2  0  0  0  0
 27 76  1  0  0  0  0
 28 30  2  0  0  0  0
 28 78  1  0  0  0  0
 29 79  1  0  0  0  0
 30 80  1  0  0  0  0
 31 81  1  0  0  0  0
 32 61  2  0  0  0  0
 33 62  1  0  0  0  0
 33 65  1  0  0  0  0
 34 66  1  0  0  0  0
 34 71  2  0  0  0  0
 35 49  1  0  0  0  0
 35 68  1  0  0  0  0
 35 72  2  0  0  0  0
 36 58  1  0  0  0  0
 36 63  1  0  0  0  0
 36 73  2  0  0  0  0
 37 59  1  0  0  0  0
 37 69  1  0  0  0  0
 37 74  2  0  0  0  0
 38 64  1  0  0  0  0
 38 67  1  0  0  0  0
 38 75  2  0  0  0  0
 39 42  1  0  0  0  0
 40 49  1  0  0  0  0
 41 63  1  0  0  0  0
 42 44  1  0  0  0  0
 43 45  1  0  0  0  0
 43 46  1  0  0  0  0
 44 48  1  0  0  0  0
 45 50  1  0  0  0  0
 46 64  1  0  0  0  0
 47 50  1  0  0  0  0
 47 64  1  0  0  0  0
 48 68  1  0  0  0  0
 49 63  1  0  0  0  0
 50 62  1  0  0  0  0
 51 59  1  0  0  0  0
 52 60  1  0  0  0  0
 53 60  1  0  0  0  0
 54 60  1  0  0  0  0
 55 70  1  0  0  0  0
 56 57  1  0  0  0  0
 56 77  1  0  0  0  0
 57 78  1  0  0  0  0
 58 60  1  0  0  0  0
 58 69  1  0  0  0  0
 59 70  1  0  0  0  0
 61 62  1  0  0  0  0
M  CHG  1  70   1
M  ISO  4  38 100  56 101  67 100  77 101
M  END
> <Batch ID>
0011

> <Smiles>
CNC(C)C(=O)NC(C(=O)N1Cc2cc([101O:1][101CH2:1]COc3ccc([100NH:0][100C:0](=O)N4CCCC(n5nc(-c6ccc(Oc7ccc(F)cc7F)cc6)c(C(N)=O)c5N)C4)cc3F)ccc2CC1C(=O)NC1CCCc2ccccc21)C(C)(C)C

> <Shape>
0.265

> <Color>
0.145

> <Negative vol penalty>
0.000

$$$$

  -OEChem-04042320433D

 81 89  0     1  0  0  0  0  0999 V2000
  -20.2839  -34.7522   21.8265 C   0  0  0  0  0  0  0  0  0  0  0  0
  -21.5197  -34.2352   21.4512 C   0  0  0  0  0  0  0  0  0  0  0  0
  -26.0219  -22.7170   17.5877 C   0  0  0  0  0  0  0  0  0  0  0  0
  -26.4309  -12.2361   20.7809 C   0  0  0  0  0  0  0  0  0  0  0  0
  -24.7691  -13.6634   19.7618 C   0  0  0  0  0  0  0  0  0  0  0  0
  -19.4932  -34.0662   22.7474 C   0  0  0  0  0  0  0  0  0  0  0  0
  -21.9660  -33.0322   21.9973 C   0  0  0  0  0  0  0  0  0  0  0  0
  -25.3247  -28.7415   19.2020 C   0  0  0  0  0  0  0  0  0  0  0  0
  -26.2981  -21.6776   18.4758 C   0  0  0  0  0  0  0  0  0  0  0  0
  -26.9659  -23.7216   17.3744 C   0  0  0  0  0  0  0  0  0  0  0  0
  -25.4186  -11.4380   21.3138 C   0  0  0  0  0  0  0  0  0  0  0  0
  -23.7569  -12.8653   20.2947 C   0  0  0  0  0  0  0  0  0  0  0  0
  -26.6900  -28.4597   19.2199 C   0  0  0  0  0  0  0  0  0  0  0  0
  -23.2780   -8.8176   22.6428 C   0  0  0  0  0  0  0  0  0  0  0  0
  -23.4223   -7.4339   22.5422 C   0  0  0  0  0  0  0  0  0  0  0  0
  -26.3184  -26.7974   20.9281 C   0  0  0  0  0  0  0  0  0  0  0  0
  -28.4623  -22.6471   18.9375 C   0  0  0  0  0  0  0  0  0  0  0  0
  -23.4834   -7.6153   20.1338 C   0  0  0  0  0  0  0  0  0  0  0  0
  -26.1061  -13.3488   20.0049 C   0  0  0  0  0  0  0  0  0  0  0  0
  -27.7860  -14.0226   18.2072 C   0  0  0  0  0  0  0  0  0  0  0  0
  -19.9257  -32.8494   23.2978 C   0  0  0  0  0  0  0  0  0  0  0  0
  -24.4460  -28.0598   20.0562 C   0  0  0  0  0  0  0  0  0  0  0  0
  -21.1808  -32.3300   22.9274 C   0  0  0  0  0  0  0  0  0  0  0  0
  -24.9420  -27.0706   20.9172 C   0  0  0  0  0  0  0  0  0  0  0  0
  -27.5183  -21.6426   19.1507 C   0  0  0  0  0  0  0  0  0  0  0  0
  -24.0816  -11.7526   21.0707 C   0  0  0  0  0  0  0  0  0  0  0  0
  -27.1874  -27.4896   20.0851 C   0  0  0  0  0  0  0  0  0  0  0  0
  -28.1861  -23.6866   18.0493 C   0  0  0  0  0  0  0  0  0  0  0  0
  -23.2362   -9.6002   21.4888 C   0  0  0  0  0  0  0  0  0  0  0  0
  -23.5251   -6.8328   21.2877 C   0  0  0  0  0  0  0  0  0  0  0  0
  -23.3389   -8.9990   20.2344 C   0  0  0  0  0  0  0  0  0  0  0  0
  -27.1513  -14.1740   19.4546 C   0  0  0  0  0  0  0  0  0  0  0  0
  -28.6968  -15.0495   18.1585 C   0  0  0  0  0  0  0  0  0  0  0  0
  -27.5714  -13.0414   17.1840 C   0  0  0  0  0  0  0  0  0  0  0  0
  -22.4982  -28.9156   22.4178 C   0  0  0  0  0  0  0  0  0  0  0  0
  -21.6049  -25.7999   22.2876 C   0  0  0  0  0  0  0  0  0  0  0  0
  -22.3957  -22.5927   21.4301 C   0  0  0  0  0  0  0  0  0  0  0  0
  -28.9596  -20.4016   20.8026 C   0  0  0  0  0  0  0  0  0  0  0  0
  -19.0570  -32.1679   24.3253 C   0  0  0  0  0  0  0  0  0  0  0  0
  -22.9723  -28.3566   20.0056 C   0  0  0  0  0  0  0  0  0  0  0  0
  -24.0377  -26.2961   21.8397 C   0  0  0  0  0  0  0  0  0  0  0  0
  -19.4370  -30.7106   24.5741 C   0  0  0  0  0  0  0  0  0  0  0  0
  -31.3884  -17.8059   21.0031 C   0  0  0  0  0  0  0  0  0  0  0  0
  -20.9465  -30.5745   24.7465 C   0  0  0  0  0  0  0  0  0  0  0  0
  -30.6370  -16.5674   20.5095 C   0  0  0  0  0  0  0  0  0  0  0  0
  -30.4866  -18.7272   21.8225 C   0  0  0  0  0  0  0  0  0  0  0  0
  -28.4820  -17.8777   20.6696 C   0  0  0  0  0  0  0  0  0  0  0  0
  -21.6886  -31.0154   23.4790 C   0  0  1  0  0  0  0  0  0  0  0  0
  -22.2394  -27.9635   21.2846 C   0  0  1  0  0  0  0  0  0  0  0  0
  -29.3322  -16.9515   19.7847 C   0  0  2  0  0  0  0  0  0  0  0  0
  -21.4790  -20.2572   21.4801 C   0  0  0  0  0  0  0  0  0  0  0  0
  -22.1896  -25.6371   25.2778 C   0  0  0  0  0  0  0  0  0  0  0  0
  -22.1828  -23.1419   25.0724 C   0  0  0  0  0  0  0  0  0  0  0  0
  -20.1168  -24.4399   24.5534 C   0  0  0  0  0  0  0  0  0  0  0  0
  -22.5022  -22.3636   18.4813 C   0  0  0  0  0  0  0  0  0  0  0  0
  -30.4184  -26.4363   18.8350 C   0  0  0  0  0  0  0  0  0  0  0  0
  -29.2392  -27.3951   18.8863 C   0  0  0  0  0  0  0  0  0  1  0  0
  -29.9755  -24.9845   18.9264 C   0  0  0  0  0  0  0  0  0  0  0  0
  -22.0700  -24.5258   22.9504 C   0  0  1  0  0  0  0  0  0  0  0  0
  -21.6209  -21.5341   20.6663 C   0  0  2  0  0  0  0  0  0  0  0  0
  -21.6573  -24.4520   24.4476 C   0  0  0  0  0  0  0  0  0  0  0  0
  -27.6194  -15.2150   20.1483 N   0  0  0  0  0  0  0  0  0  0  0  0
  -28.5579  -15.7270   19.3340 N   0  0  0  0  0  0  0  0  0  0  0  0
  -22.6055  -26.6270   21.7578 N   0  0  0  0  0  0  0  0  0  0  0  0
  -29.2723  -19.0521   21.0709 N   0  0  0  0  0  0  0  0  0  0  0  0
  -29.5949  -15.4300   17.2252 N   0  0  0  0  0  0  0  0  0  0  0  0
  -26.5968  -12.0569   17.3962 N   0  0  0  0  0  0  0  0  0  0  0  0
  -27.7986  -20.5863   20.0526 N   0  0  0  0  0  0  0  0  0  0  0  0
  -21.6207  -29.9819   22.4683 N   0  0  0  0  0  0  0  0  0  0  0  0
  -21.5571  -23.4305   22.1345 N   0  0  0  0  0  0  0  0  0  0  0  0
  -22.3159  -21.2033   19.3902 N   0  3  0  0  0  0  0  0  0  0  0  0
  -28.2361  -13.0281   16.1202 O   0  0  0  0  0  0  0  0  0  0  0  0
  -23.4244  -28.6981   23.1901 O   0  0  0  0  0  0  0  0  0  0  0  0
  -20.3978  -26.0486   22.2352 O   0  0  0  0  0  0  0  0  0  0  0  0
  -23.6223  -22.6666   21.4073 O   0  0  0  0  0  0  0  0  0  0  0  0
  -29.6841  -21.3240   21.1851 O   0  0  0  0  0  0  0  0  0  0  0  0
  -23.0936  -10.9739   21.5903 O   0  0  0  0  0  0  0  0  0  0  0  0
  -28.5197  -27.2131   20.1052 O   0  0  0  0  0  0  0  0  0  1  0  0
  -29.1137  -24.6737   17.8399 O   0  0  0  0  0  0  0  0  0  0  0  0
  -23.6653   -5.5042   21.1914 F   0  0  0  0  0  0  0  0  0  0  0  0
  -23.3007   -9.7458   19.1223 F   0  0  0  0  0  0  0  0  0  0  0  0
  1  2  1  0  0  0  0
  1  6  2  0  0  0  0
  2  7  2  0  0  0  0
  3  9  1  0  0  0  0
  3 10  2  0  0  0  0
  4 11  2  0  0  0  0
  4 19  1  0  0  0  0
  5 12  1  0  0  0  0
  5 19  2  0  0  0  0
  6 21  1  0  0  0  0
  7 23  1  0  0  0  0
  8 13  2  0  0  0  0
  8 22  1  0  0  0  0
  9 25  2  0  0  0  0
 10 28  1  0  0  0  0
 11 26  1  0  0  0  0
 12 26  2  0  0  0  0
 13 27  1  0  0  0  0
 14 15  2  0  0  0  0
 14 29  1  0  0  0  0
 15 30  1  0  0  0  0
 16 24  1  0  0  0  0
 16 27  2  0  0  0  0
 17 25  1  0  0  0  0
 17 28  2  0  0  0  0
 18 30  2  0  0  0  0
 18 31  1  0  0  0  0
 19 32  1  0  0  0  0
 20 32  1  0  0  0  0
 20 33  2  0  0  0  0
 20 34  1  0  0  0  0
 21 23  2  0  0  0  0
 21 39  1  0  0  0  0
 22 24  2  0  0  0  0
 22 40  1  0  0  0  0
 23 48  1  0  0  0  0
 24 41  1  0  0  0  0
 25 68  1  0  0  0  0
 26 77  1  0  0  0  0
 27 78  1  0  0  0  0
 28 79  1  0  0  0  0
 29 31  2  0  0  0  0
 29 77  1  0  0  0  0
 30 80  1  0  0  0  0
 31 81  1  0  0  0  0
 32 62  2  0  0  0  0
 33 63  1  0  0  0  0
 33 66  1  0  0  0  0
 34 67  1  0  0  0  0
 34 72  2  0  0  0  0
 35 49  1  0  0  0  0
 35 69  1  0  0  0  0
 35 73  2  0  0  0  0
 36 59  1  0  0  0  0
 36 64  1  0  0  0  0
 36 74  2  0  0  0  0
 37 60  1  0  0  0  0
 37 70  1  0  0  0  0
 37 75  2  0  0  0  0
 38 65  1  0  0  0  0
 38 68  1  0  0  0  0
 38 76  2  0  0  0  0
 39 42  1  0  0  0  0
 40 49  1  0  0  0  0
 41 64  1  0  0  0  0
 42 44  1  0  0  0  0
 43 45  1  0  0  0  0
 43 46  1  0  0  0  0
 44 48  1  0  0  0  0
 45 50  1  0  0  0  0
 46 65  1  0  0  0  0
 47 50  1  0  0  0  0
 47 65  1  0  0  0  0
 48 69  1  0  0  0  0
 49 64  1  0  0  0  0
 50 63  1  0  0  0  0
 51 60  1  0  0  0  0
 52 61  1  0  0  0  0
 53 61  1  0  0  0  0
 54 61  1  0  0  0  0
 55 71  1  0  0  0  0
 56 57  1  0  0  0  0
 56 58  1  0  0  0  0
 57 78  1  0  0  0  0
 58 79  1  0  0  0  0
 59 61  1  0  0  0  0
 59 70  1  0  0  0  0
 60 71  1  0  0  0  0
 62 63  1  0  0  0  0
M  CHG  1  71   1
M  ISO  4  38 100  57 101  68 100  78 101
M  END
> <Batch ID>
0011

> <Smiles>
CNC(C)C(=O)NC(C(=O)N1Cc2cc([101O:1][101CH2:1]CCOc3cccc([100NH:0][100C:0](=O)N4CCCC(n5nc(-c6ccc(Oc7ccc(F)cc7F)cc6)c(C(N)=O)c5N)C4)c3)ccc2CC1C(=O)NC1CCCc2ccccc21)C(C)(C)C

> <Shape>
0.241

> <Color>
0.090

> <Negative vol penalty>
0.000

$$$$

  -OEChem-04042320433D

 82 90  0     1  0  0  0  0  0999 V2000
  -21.4663  -27.4451   21.1667 C   0  0  0  0  0  0  0  0  0  0  0  0
  -22.6037  -26.7328   20.8002 C   0  0  0  0  0  0  0  0  0  0  0  0
  -22.9424  -10.0615   19.9560 C   0  0  0  0  0  0  0  0  0  0  0  0
  -23.7789   -9.9239   22.2183 C   0  0  0  0  0  0  0  0  0  0  0  0
  -21.5382  -28.8256   21.3486 C   0  0  0  0  0  0  0  0  0  0  0  0
  -23.8135  -27.4008   20.6143 C   0  0  0  0  0  0  0  0  0  0  0  0
  -27.7121  -24.9963   22.7740 C   0  0  0  0  0  0  0  0  0  0  0  0
  -31.5344  -17.3171   20.6214 C   0  0  0  0  0  0  0  0  0  0  0  0
  -22.1330   -8.9494   20.1875 C   0  0  0  0  0  0  0  0  0  0  0  0
  -22.9695   -8.8118   22.4500 C   0  0  0  0  0  0  0  0  0  0  0  0
  -28.2284  -23.8891   22.1023 C   0  0  0  0  0  0  0  0  0  0  0  0
  -31.7953  -18.6863   20.6743 C   0  0  0  0  0  0  0  0  0  0  0  0
  -19.7182   -8.1995   23.1389 C   0  0  0  0  0  0  0  0  0  0  0  0
  -19.0006   -8.1598   24.3344 C   0  0  0  0  0  0  0  0  0  0  0  0
  -30.0235  -25.2538   21.2453 C   0  0  0  0  0  0  0  0  0  0  0  0
  -20.1359   -6.1173   24.9479 C   0  0  0  0  0  0  0  0  0  0  0  0
  -23.7654  -10.5488   20.9714 C   0  0  0  0  0  0  0  0  0  0  0  0
  -24.2687  -13.0494   20.9383 C   0  0  0  0  0  0  0  0  0  0  0  0
  -22.7516  -29.5095   21.1742 C   0  0  0  0  0  0  0  0  0  0  0  0
  -28.3425  -26.2451   22.6775 C   0  0  0  0  0  0  0  0  0  0  0  0
  -23.9014  -28.7919   20.7927 C   0  0  0  0  0  0  0  0  0  0  0  0
  -29.5146  -26.3747   21.9189 C   0  0  0  0  0  0  0  0  0  0  0  0
  -30.6274  -16.7450   21.5135 C   0  0  0  0  0  0  0  0  0  0  0  0
  -22.1465   -8.3245   21.4345 C   0  0  0  0  0  0  0  0  0  0  0  0
  -29.3827  -24.0184   21.3354 C   0  0  0  0  0  0  0  0  0  0  0  0
  -20.6445   -7.1981   22.8479 C   0  0  0  0  0  0  0  0  0  0  0  0
  -31.1494  -19.4834   21.6193 C   0  0  0  0  0  0  0  0  0  0  0  0
  -19.2095   -7.1187   25.2389 C   0  0  0  0  0  0  0  0  0  0  0  0
  -20.8534   -6.1570   23.7524 C   0  0  0  0  0  0  0  0  0  0  0  0
  -29.9815  -17.5421   22.4585 C   0  0  0  0  0  0  0  0  0  0  0  0
  -30.2425  -18.9113   22.5114 C   0  0  0  0  0  0  0  0  0  0  0  0
  -24.6021  -11.6973   20.7326 C   0  0  0  0  0  0  0  0  0  0  0  0
  -25.3949  -13.7413   20.5649 C   0  0  0  0  0  0  0  0  0  0  0  0
  -23.0501  -13.6282   21.4236 C   0  0  0  0  0  0  0  0  0  0  0  0
  -27.4996  -29.1039   21.5726 C   0  0  0  0  0  0  0  0  0  0  0  0
  -30.3607  -29.9956   22.8142 C   0  0  0  0  0  0  0  0  0  0  0  0
  -33.5037  -29.0921   23.7898 C   0  0  0  0  0  0  0  0  0  0  0  0
  -30.9209  -14.4238   20.5795 C   0  0  0  0  0  0  0  0  0  0  0  0
  -22.7697  -31.0088   21.3360 C   0  0  0  0  0  0  0  0  0  0  0  0
  -27.7879  -27.4236   23.4299 C   0  0  0  0  0  0  0  0  0  0  0  0
  -30.2406  -27.6889   21.7993 C   0  0  0  0  0  0  0  0  0  0  0  0
  -24.1740  -31.5886   21.4847 C   0  0  0  0  0  0  0  0  0  0  0  0
  -29.5696  -12.1877   18.1606 C   0  0  0  0  0  0  0  0  0  0  0  0
  -25.1100  -30.9959   20.4361 C   0  0  0  0  0  0  0  0  0  0  0  0
  -28.1293  -11.9720   18.6311 C   0  0  0  0  0  0  0  0  0  0  0  0
  -30.5382  -12.3067   19.3359 C   0  0  0  0  0  0  0  0  0  0  0  0
  -28.7315  -13.0946   20.8138 C   0  0  0  0  0  0  0  0  0  0  0  0
  -25.2376  -29.4773   20.6058 C   0  0  1  0  0  0  0  0  0  0  0  0
  -28.2225  -28.7640   22.8452 C   0  0  1  0  0  0  0  0  0  0  0  0
  -27.7097  -13.0337   19.6666 C   0  0  2  0  0  0  0  0  0  0  0  0
  -35.6258  -30.0473   24.7287 C   0  0  0  0  0  0  0  0  0  0  0  0
  -31.0428  -31.1626   20.0787 C   0  0  0  0  0  0  0  0  0  0  0  0
  -33.4440  -31.2311   20.7841 C   0  0  0  0  0  0  0  0  0  0  0  0
  -31.7440  -32.5750   22.0197 C   0  0  0  0  0  0  0  0  0  0  0  0
  -33.3306  -27.4000   26.2118 C   0  0  0  0  0  0  0  0  0  0  0  0
  -31.3010  -22.9036   20.4793 C   0  0  0  0  0  0  0  0  0  1  0  0
  -31.7595  -21.4585   20.4435 C   0  0  0  0  0  0  0  0  0  0  0  0
  -31.7770  -30.0621   22.2959 C   0  0  1  0  0  0  0  0  0  0  0  0
  -34.2919  -29.3923   25.0520 C   0  0  2  0  0  0  0  0  0  0  0  0
  -31.9874  -31.2333   21.2951 C   0  0  0  0  0  0  0  0  0  0  0  0
  -25.8428  -11.5375   20.2646 N   0  0  0  0  0  0  0  0  0  0  0  0
  -26.2990  -12.7983   20.1731 N   0  0  0  0  0  0  0  0  0  0  0  0
  -29.6556  -28.8132   22.5484 N   0  0  0  0  0  0  0  0  0  0  0  0
  -30.0787  -13.3340   20.2731 N   0  0  0  0  0  0  0  0  0  0  0  0
  -25.6901  -15.0583   20.5366 N   0  0  0  0  0  0  0  0  0  0  0  0
  -21.9925  -12.7730   21.7618 N   0  0  0  0  0  0  0  0  0  0  0  0
  -30.3643  -15.3538   21.4569 N   0  0  0  0  0  0  0  0  0  0  0  0
  -26.1255  -29.1644   21.7050 N   0  0  0  0  0  0  0  0  0  0  0  0
  -32.6395  -30.1182   23.4712 N   0  0  0  0  0  0  0  0  0  0  0  0
  -34.5565  -28.1359   25.8086 N   0  3  0  0  0  0  0  0  0  0  0  0
  -22.8976  -14.8681   21.5379 O   0  0  0  0  0  0  0  0  0  0  0  0
  -28.1412  -29.2983   20.5467 O   0  0  0  0  0  0  0  0  0  0  0  0
  -29.8994  -30.9545   23.4382 O   0  0  0  0  0  0  0  0  0  0  0  0
  -33.6435  -28.0530   23.1486 O   0  0  0  0  0  0  0  0  0  0  0  0
  -32.0421  -14.5387   20.0777 O   0  0  0  0  0  0  0  0  0  0  0  0
  -21.3567   -7.2394   21.6609 O   0  0  0  0  0  0  0  0  0  0  0  0
  -29.8884  -22.9395   20.6781 O   0  0  0  0  0  0  0  0  0  1  0  0
  -31.4058  -20.8284   21.6687 O   0  0  0  0  0  0  0  0  0  0  0  0
  -18.5215   -7.0815   26.3875 F   0  0  0  0  0  0  0  0  0  0  0  0
  -21.7429   -5.1928   23.4788 F   0  0  0  0  0  0  0  0  0  0  0  0
  -29.1079  -17.0027   23.3208 F   0  0  0  0  0  0  0  0  0  0  0  0
  -29.6184  -19.6725   23.4206 F   0  0  0  0  0  0  0  0  0  0  0  0
  1  2  1  0  0  0  0
  1  5  2  0  0  0  0
  2  6  2  0  0  0  0
  3  9  2  0  0  0  0
  3 17  1  0  0  0  0
  4 10  1  0  0  0  0
  4 17  2  0  0  0  0
  5 19  1  0  0  0  0
  6 21  1  0  0  0  0
  7 11  2  0  0  0  0
  7 20  1  0  0  0  0
  8 12  2  0  0  0  0
  8 23  1  0  0  0  0
  9 24  1  0  0  0  0
 10 24  2  0  0  0  0
 11 25  1  0  0  0  0
 12 27  1  0  0  0  0
 13 14  2  0  0  0  0
 13 26  1  0  0  0  0
 14 28  1  0  0  0  0
 15 22  1  0  0  0  0
 15 25  2  0  0  0  0
 16 28  2  0  0  0  0
 16 29  1  0  0  0  0
 17 32  1  0  0  0  0
 18 32  1  0  0  0  0
 18 33  2  0  0  0  0
 18 34  1  0  0  0  0
 19 21  2  0  0  0  0
 19 39  1  0  0  0  0
 20 22  2  0  0  0  0
 20 40  1  0  0  0  0
 21 48  1  0  0  0  0
 22 41  1  0  0  0  0
 23 30  2  0  0  0  0
 23 67  1  0  0  0  0
 24 76  1  0  0  0  0
 25 77  1  0  0  0  0
 26 29  2  0  0  0  0
 26 76  1  0  0  0  0
 27 31  2  0  0  0  0
 27 78  1  0  0  0  0
 28 79  1  0  0  0  0
 29 80  1  0  0  0  0
 30 31  1  0  0  0  0
 30 81  1  0  0  0  0
 31 82  1  0  0  0  0
 32 61  2  0  0  0  0
 33 62  1  0  0  0  0
 33 65  1  0  0  0  0
 34 66  1  0  0  0  0
 34 71  2  0  0  0  0
 35 49  1  0  0  0  0
 35 68  1  0  0  0  0
 35 72  2  0  0  0  0
 36 58  1  0  0  0  0
 36 63  1  0  0  0  0
 36 73  2  0  0  0  0
 37 59  1  0  0  0  0
 37 69  1  0  0  0  0
 37 74  2  0  0  0  0
 38 64  1  0  0  0  0
 38 67  1  0  0  0  0
 38 75  2  0  0  0  0
 39 42  1  0  0  0  0
 40 49  1  0  0  0  0
 41 63  1  0  0  0  0
 42 44  1  0  0  0  0
 43 45  1  0  0  0  0
 43 46  1  0  0  0  0
 44 48  1  0  0  0  0
 45 50  1  0  0  0  0
 46 64  1  0  0  0  0
 47 50  1  0  0  0  0
 47 64  1  0  0  0  0
 48 68  1  0  0  0  0
 49 63  1  0  0  0  0
 50 62  1  0  0  0  0
 51 59  1  0  0  0  0
 52 60  1  0  0  0  0
 53 60  1  0  0  0  0
 54 60  1  0  0  0  0
 55 70  1  0  0  0  0
 56 57  1  0  0  0  0
 56 77  1  0  0  0  0
 57 78  1  0  0  0  0
 58 60  1  0  0  0  0
 58 69  1  0  0  0  0
 59 70  1  0  0  0  0
 61 62  1  0  0  0  0
M  CHG  1  70   1
M  ISO  4  38 100  56 101  67 100  77 101
M  END
> <Batch ID>
0011

> <Smiles>
CNC(C)C(=O)NC(C(=O)N1Cc2cc([101O:1][101CH2:1]COc3ccc([100NH:0][100C:0](=O)N4CCCC(n5nc(-c6ccc(Oc7ccc(F)cc7F)cc6)c(C(N)=O)c5N)C4)c(F)c3F)ccc2CC1C(=O)NC1CCCc2ccccc21)C(C)(C)C

> <Shape>
0.281

> <Color>
0.198

> <Negative vol penalty>
0.000

$$$$

  -OEChem-04042320433D

 82 90  0     1  0  0  0  0  0999 V2000
  -17.7884  -32.9572   22.0745 C   0  0  0  0  0  0  0  0  0  0  0  0
  -19.0679  -33.0660   21.5393 C   0  0  0  0  0  0  0  0  0  0  0  0
  -23.0494  -13.0811   20.9633 C   0  0  0  0  0  0  0  0  0  0  0  0
  -23.3095  -14.7257   22.7139 C   0  0  0  0  0  0  0  0  0  0  0  0
  -17.5254  -32.0090   23.0622 C   0  0  0  0  0  0  0  0  0  0  0  0
  -20.0855  -32.2273   21.9923 C   0  0  0  0  0  0  0  0  0  0  0  0
  -25.9928  -28.8798   19.7086 C   0  0  0  0  0  0  0  0  0  0  0  0
  -30.7187  -21.5213   19.2402 C   0  0  0  0  0  0  0  0  0  0  0  0
  -22.3650  -12.2476   21.8479 C   0  0  0  0  0  0  0  0  0  0  0  0
  -22.6251  -13.8922   23.5986 C   0  0  0  0  0  0  0  0  0  0  0  0
  -27.3401  -28.7304   20.0343 C   0  0  0  0  0  0  0  0  0  0  0  0
  -31.0304  -22.8750   19.3659 C   0  0  0  0  0  0  0  0  0  0  0  0
  -19.2524  -12.0144   23.1479 C   0  0  0  0  0  0  0  0  0  0  0  0
  -18.0840  -11.4044   22.6914 C   0  0  0  0  0  0  0  0  0  0  0  0
  -26.7506  -27.0760   21.6880 C   0  0  0  0  0  0  0  0  0  0  0  0
  -28.3985  -22.0891   18.8780 C   0  0  0  0  0  0  0  0  0  0  0  0
  -19.0627   -9.2317   23.0901 C   0  0  0  0  0  0  0  0  0  0  0  0
  -23.5217  -14.3201   21.3963 C   0  0  0  0  0  0  0  0  0  0  0  0
  -23.6765  -16.1650   19.6413 C   0  0  0  0  0  0  0  0  0  0  0  0
  -18.5381  -31.1516   23.5207 C   0  0  0  0  0  0  0  0  0  0  0  0
  -25.0116  -28.1352   20.3788 C   0  0  0  0  0  0  0  0  0  0  0  0
  -19.8362  -31.2675   22.9881 C   0  0  0  0  0  0  0  0  0  0  0  0
  -25.3917  -27.2160   21.3671 C   0  0  0  0  0  0  0  0  0  0  0  0
  -29.4028  -21.1283   18.9962 C   0  0  0  0  0  0  0  0  0  0  0  0
  -22.1529  -12.6532   23.1656 C   0  0  0  0  0  0  0  0  0  0  0  0
  -27.7190  -27.8305   21.0261 C   0  0  0  0  0  0  0  0  0  0  0  0
  -20.3259  -11.2331   23.5754 C   0  0  0  0  0  0  0  0  0  0  0  0
  -30.0261  -23.8358   19.2478 C   0  0  0  0  0  0  0  0  0  0  0  0
  -17.9891  -10.0130   22.6625 C   0  0  0  0  0  0  0  0  0  0  0  0
  -28.7101  -23.4429   19.0038 C   0  0  0  0  0  0  0  0  0  0  0  0
  -20.2311   -9.8418   23.5465 C   0  0  0  0  0  0  0  0  0  0  0  0
  -24.2292  -15.1813   20.4831 C   0  0  0  0  0  0  0  0  0  0  0  0
  -24.7565  -16.6982   18.9811 C   0  0  0  0  0  0  0  0  0  0  0  0
  -22.3091  -16.5615   19.4714 C   0  0  0  0  0  0  0  0  0  0  0  0
  -22.5237  -28.8496   22.2236 C   0  0  0  0  0  0  0  0  0  0  0  0
  -21.9611  -25.6608   22.0310 C   0  0  0  0  0  0  0  0  0  0  0  0
  -23.2027  -22.5268   21.4987 C   0  0  0  0  0  0  0  0  0  0  0  0
  -29.9627  -18.6724   18.9586 C   0  0  0  0  0  0  0  0  0  0  0  0
  -18.2175  -30.1742   24.6236 C   0  0  0  0  0  0  0  0  0  0  0  0
  -23.5648  -28.2885   19.9972 C   0  0  0  0  0  0  0  0  0  0  0  0
  -24.3790  -26.3779   22.1023 C   0  0  0  0  0  0  0  0  0  0  0  0
  -19.2605  -29.0708   24.7819 C   0  0  0  0  0  0  0  0  0  0  0  0
  -29.5667  -15.1408   18.7393 C   0  0  0  0  0  0  0  0  0  0  0  0
  -20.6673  -29.6603   24.7690 C   0  0  0  0  0  0  0  0  0  0  0  0
  -28.0973  -14.9174   19.1042 C   0  0  0  0  0  0  0  0  0  0  0  0
  -30.1886  -16.2712   19.5572 C   0  0  0  0  0  0  0  0  0  0  0  0
  -27.9828  -17.3179   19.8864 C   0  0  0  0  0  0  0  0  0  0  0  0
  -20.9606  -30.3590   23.4358 C   0  0  1  0  0  0  0  0  0  0  0  0
  -22.6063  -27.8538   21.1015 C   0  0  1  0  0  0  0  0  0  0  0  0
  -27.2952  -16.2321   19.0426 C   0  0  2  0  0  0  0  0  0  0  0  0
  -22.5085  -20.1158   21.4447 C   0  0  0  0  0  0  0  0  0  0  0  0
  -21.8853  -25.6167   25.0810 C   0  0  0  0  0  0  0  0  0  0  0  0
  -22.1454  -23.1286   24.9821 C   0  0  0  0  0  0  0  0  0  0  0  0
  -20.1375  -24.2120   23.9736 C   0  0  0  0  0  0  0  0  0  0  0  0
  -23.9756  -22.2477   18.6556 C   0  0  0  0  0  0  0  0  0  0  0  0
  -31.2263  -27.0652   20.5521 C   0  0  0  0  0  0  0  0  0  0  0  0
  -29.9844  -27.9077   20.3065 C   0  0  0  0  0  0  0  0  0  1  0  0
  -30.9048  -25.5799   20.6049 C   0  0  0  0  0  0  0  0  0  0  0  0
  -22.3801  -24.4510   22.8310 C   0  0  1  0  0  0  0  0  0  0  0  0
  -22.7121  -21.3832   20.6292 C   0  0  2  0  0  0  0  0  0  0  0  0
  -21.6562  -24.3691   24.2046 C   0  0  0  0  0  0  0  0  0  0  0  0
  -25.5571  -15.0925   20.3698 N   0  0  0  0  0  0  0  0  0  0  0  0
  -25.8478  -16.0273   19.4491 N   0  0  0  0  0  0  0  0  0  0  0  0
  -22.9764  -26.5685   21.6976 N   0  0  0  0  0  0  0  0  0  0  0  0
  -29.3772  -17.4856   19.4479 N   0  0  0  0  0  0  0  0  0  0  0  0
  -24.8695  -17.6707   18.0517 N   0  0  0  0  0  0  0  0  0  0  0  0
  -21.3257  -15.9102   20.2283 N   0  0  0  0  0  0  0  0  0  0  0  0
  -29.0861  -19.7531   18.8684 N   0  0  0  0  0  0  0  0  0  0  0  0
  -21.2630  -29.3839   22.4100 N   0  0  0  0  0  0  0  0  0  0  0  0
  -22.1587  -23.2950   21.9691 N   0  0  0  0  0  0  0  0  0  0  0  0
  -23.6976  -21.0940   19.5493 N   0  3  0  0  0  0  0  0  0  0  0  0
  -21.9678  -17.4552   18.6600 O   0  0  0  0  0  0  0  0  0  0  0  0
  -23.5289  -29.1126   22.8733 O   0  0  0  0  0  0  0  0  0  0  0  0
  -20.7780  -25.7917   21.7075 O   0  0  0  0  0  0  0  0  0  0  0  0
  -24.3927  -22.7171   21.7399 O   0  0  0  0  0  0  0  0  0  0  0  0
  -31.1473  -18.7188   18.6172 O   0  0  0  0  0  0  0  0  0  0  0  0
  -21.4849  -11.8402   24.0290 O   0  0  0  0  0  0  0  0  0  0  0  0
  -29.0334  -27.6831   21.3464 O   0  0  0  0  0  0  0  0  0  1  0  0
  -30.3344  -25.1657   19.3709 O   0  0  0  0  0  0  0  0  0  0  0  0
  -16.8665   -9.4274   22.2256 F   0  0  0  0  0  0  0  0  0  0  0  0
  -27.7413  -24.3614   18.8881 F   0  0  0  0  0  0  0  0  0  0  0  0
  -21.2587   -9.0859   23.9571 F   0  0  0  0  0  0  0  0  0  0  0  0
  1  2  1  0  0  0  0
  1  5  2  0  0  0  0
  2  6  2  0  0  0  0
  3  9  2  0  0  0  0
  3 18  1  0  0  0  0
  4 10  1  0  0  0  0
  4 18  2  0  0  0  0
  5 20  1  0  0  0  0
  6 22  1  0  0  0  0
  7 11  2  0  0  0  0
  7 21  1  0  0  0  0
  8 12  2  0  0  0  0
  8 24  1  0  0  0  0
  9 25  1  0  0  0  0
 10 25  2  0  0  0  0
 11 26  1  0  0  0  0
 12 28  1  0  0  0  0
 13 14  2  0  0  0  0
 13 27  1  0  0  0  0
 14 29  1  0  0  0  0
 15 23  1  0  0  0  0
 15 26  2  0  0  0  0
 16 24  2  0  0  0  0
 16 30  1  0  0  0  0
 17 29  2  0  0  0  0
 17 31  1  0  0  0  0
 18 32  1  0  0  0  0
 19 32  1  0  0  0  0
 19 33  2  0  0  0  0
 19 34  1  0  0  0  0
 20 22  2  0  0  0  0
 20 39  1  0  0  0  0
 21 23  2  0  0  0  0
 21 40  1  0  0  0  0
 22 48  1  0  0  0  0
 23 41  1  0  0  0  0
 24 68  1  0  0  0  0
 25 77  1  0  0  0  0
 26 78  1  0  0  0  0
 27 31  2  0  0  0  0
 27 77  1  0  0  0  0
 28 30  2  0  0  0  0
 28 79  1  0  0  0  0
 29 80  1  0  0  0  0
 30 81  1  0  0  0  0
 31 82  1  0  0  0  0
 32 62  2  0  0  0  0
 33 63  1  0  0  0  0
 33 66  1  0  0  0  0
 34 67  1  0  0  0  0
 34 72  2  0  0  0  0
 35 49  1  0  0  0  0
 35 69  1  0  0  0  0
 35 73  2  0  0  0  0
 36 59  1  0  0  0  0
 36 64  1  0  0  0  0
 36 74  2  0  0  0  0
 37 60  1  0  0  0  0
 37 70  1  0  0  0  0
 37 75  2  0  0  0  0
 38 65  1  0  0  0  0
 38 68  1  0  0  0  0
 38 76  2  0  0  0  0
 39 42  1  0  0  0  0
 40 49  1  0  0  0  0
 41 64  1  0  0  0  0
 42 44  1  0  0  0  0
 43 45  1  0  0  0  0
 43 46  1  0  0  0  0
 44 48  1  0  0  0  0
 45 50  1  0  0  0  0
 46 65  1  0  0  0  0
 47 50  1  0  0  0  0
 47 65  1  0  0  0  0
 48 69  1  0  0  0  0
 49 64  1  0  0  0  0
 50 63  1  0  0  0  0
 51 60  1  0  0  0  0
 52 61  1  0  0  0  0
 53 61  1  0  0  0  0
 54 61  1  0  0  0  0
 55 71  1  0  0  0  0
 56 57  1  0  0  0  0
 56 58  1  0  0  0  0
 57 78  1  0  0  0  0
 58 79  1  0  0  0  0
 59 61  1  0  0  0  0
 59 70  1  0  0  0  0
 60 71  1  0  0  0  0
 62 63  1  0  0  0  0
M  CHG  1  71   1
M  ISO  4  38 100  57 101  68 100  78 101
M  END
> <Batch ID>
0011

> <Smiles>
CNC(C)C(=O)NC(C(=O)N1Cc2cc([101O:1][101CH2:1]CCOc3ccc([100NH:0][100C:0](=O)N4CCCC(n5nc(-c6ccc(Oc7ccc(F)cc7F)cc6)c(C(N)=O)c5N)C4)cc3F)ccc2CC1C(=O)NC1CCCc2ccccc21)C(C)(C)C

> <Shape>
0.201

> <Color>
0.083

> <Negative vol penalty>
0.000

$$$$

  -OEChem-04042320433D

 82 90  0     1  0  0  0  0  0999 V2000
  -19.6898  -18.4556   21.0467 C   0  0  0  0  0  0  0  0  0  0  0  0
  -20.7167  -18.6788   21.9584 C   0  0  0  0  0  0  0  0  0  0  0  0
  -33.3219  -14.9914   24.5515 C   0  0  0  0  0  0  0  0  0  0  0  0
  -23.1528   -9.8659   19.9619 C   0  0  0  0  0  0  0  0  0  0  0  0
  -23.8255   -9.9638   22.2803 C   0  0  0  0  0  0  0  0  0  0  0  0
  -18.6753  -17.5484   21.3495 C   0  0  0  0  0  0  0  0  0  0  0  0
  -20.7290  -17.9956   23.1740 C   0  0  0  0  0  0  0  0  0  0  0  0
  -25.3106  -16.1762   24.3334 C   0  0  0  0  0  0  0  0  0  0  0  0
  -32.6809  -15.5084   25.6772 C   0  0  0  0  0  0  0  0  0  0  0  0
  -32.5812  -14.6652   23.4154 C   0  0  0  0  0  0  0  0  0  0  0  0
  -22.4396   -8.6950   20.2182 C   0  0  0  0  0  0  0  0  0  0  0  0
  -23.1121   -8.7928   22.5367 C   0  0  0  0  0  0  0  0  0  0  0  0
  -26.2447  -17.0789   24.8396 C   0  0  0  0  0  0  0  0  0  0  0  0
  -23.5360   -5.4687   22.0880 C   0  0  0  0  0  0  0  0  0  0  0  0
  -24.1585   -4.4860   22.8577 C   0  0  0  0  0  0  0  0  0  0  0  0
  -25.7772  -16.3003   27.0744 C   0  0  0  0  0  0  0  0  0  0  0  0
  -30.5585  -15.3729   24.5309 C   0  0  0  0  0  0  0  0  0  0  0  0
  -22.3893   -4.6480   24.4951 C   0  0  0  0  0  0  0  0  0  0  0  0
  -23.8459  -10.5003   20.9929 C   0  0  0  0  0  0  0  0  0  0  0  0
  -24.1063  -13.0315   20.8114 C   0  0  0  0  0  0  0  0  0  0  0  0
  -18.6805  -16.8465   22.5652 C   0  0  0  0  0  0  0  0  0  0  0  0
  -24.5936  -15.3349   25.1964 C   0  0  0  0  0  0  0  0  0  0  0  0
  -19.7129  -17.0791   23.4938 C   0  0  0  0  0  0  0  0  0  0  0  0
  -24.8364  -15.3860   26.5765 C   0  0  0  0  0  0  0  0  0  0  0  0
  -31.2992  -15.6991   25.6670 C   0  0  0  0  0  0  0  0  0  0  0  0
  -31.1995  -14.8559   23.4051 C   0  0  0  0  0  0  0  0  0  0  0  0
  -22.4192   -8.1584   21.5056 C   0  0  0  0  0  0  0  0  0  0  0  0
  -26.4761  -17.1431   26.2105 C   0  0  0  0  0  0  0  0  0  0  0  0
  -22.3402   -6.0411   22.5219 C   0  0  0  0  0  0  0  0  0  0  0  0
  -23.5851   -4.0756   24.0613 C   0  0  0  0  0  0  0  0  0  0  0  0
  -21.7669   -5.6307   23.7254 C   0  0  0  0  0  0  0  0  0  0  0  0
  -24.5833  -11.7096   20.7286 C   0  0  0  0  0  0  0  0  0  0  0  0
  -25.1853  -13.8081   20.4665 C   0  0  0  0  0  0  0  0  0  0  0  0
  -22.8043  -13.5142   21.1683 C   0  0  0  0  0  0  0  0  0  0  0  0
  -21.5206  -14.9481   25.9113 C   0  0  0  0  0  0  0  0  0  0  0  0
  -22.6397  -12.4406   27.6383 C   0  0  0  0  0  0  0  0  0  0  0  0
  -25.2574  -10.9913   29.2796 C   0  0  0  0  0  0  0  0  0  0  0  0
  -30.9283  -14.0033   21.0502 C   0  0  0  0  0  0  0  0  0  0  0  0
  -17.5369  -15.9110   22.8682 C   0  0  0  0  0  0  0  0  0  0  0  0
  -23.6087  -14.3480   24.6323 C   0  0  0  0  0  0  0  0  0  0  0  0
  -24.1076  -14.4903   27.5435 C   0  0  0  0  0  0  0  0  0  0  0  0
  -17.8248  -14.9496   24.0184 C   0  0  0  0  0  0  0  0  0  0  0  0
  -29.3962  -13.0209   17.9900 C   0  0  0  0  0  0  0  0  0  0  0  0
  -18.4363  -15.6975   25.1989 C   0  0  0  0  0  0  0  0  0  0  0  0
  -27.9519  -12.7115   18.3906 C   0  0  0  0  0  0  0  0  0  0  0  0
  -30.3878  -12.5988   19.0727 C   0  0  0  0  0  0  0  0  0  0  0  0
  -28.6593  -12.8151   20.8147 C   0  0  0  0  0  0  0  0  0  0  0  0
  -19.7745  -16.3388   24.8123 C   0  0  1  0  0  0  0  0  0  0  0  0
  -22.5638  -13.8989   25.6490 C   0  0  1  0  0  0  0  0  0  0  0  0
  -27.6189  -13.2817   19.7833 C   0  0  2  0  0  0  0  0  0  0  0  0
  -26.5324   -9.2299   30.5322 C   0  0  0  0  0  0  0  0  0  0  0  0
  -21.1711  -13.6048   30.0461 C   0  0  0  0  0  0  0  0  0  0  0  0
  -22.5487  -12.1191   31.5168 C   0  0  0  0  0  0  0  0  0  0  0  0
  -21.0095  -11.1188   29.8277 C   0  0  0  0  0  0  0  0  0  0  0  0
  -26.2056   -9.7319   26.7749 C   0  0  0  0  0  0  0  0  0  0  0  0
  -31.3737  -18.5612   26.3302 C   0  0  0  0  0  0  0  0  0  0  0  0
  -30.6102  -16.2553   26.8782 C   0  0  0  0  0  0  0  0  0  0  0  0
  -29.4678  -18.2197   27.8963 C   0  0  0  0  0  0  0  0  0  0  0  0
  -28.0624  -17.6515   27.9079 C   0  0  0  0  0  0  0  0  0  1  0  0
  -23.1327  -12.2517   29.0526 C   0  0  1  0  0  0  0  0  0  0  0  0
  -25.8159   -9.5804   29.2374 C   0  0  2  0  0  0  0  0  0  0  0  0
  -21.9780  -12.2920   30.0930 C   0  0  0  0  0  0  0  0  0  0  0  0
  -25.8655  -11.6462   20.3598 N   0  0  0  0  0  0  0  0  0  0  0  0
  -26.2033  -12.9381   20.2077 N   0  0  0  0  0  0  0  0  0  0  0  0
  -23.1499  -13.5466   26.9438 N   0  0  0  0  0  0  0  0  0  0  0  0
  -30.0113  -13.1798   20.3632 N   0  0  0  0  0  0  0  0  0  0  0  0
  -25.3532  -15.1435   20.3622 N   0  0  0  0  0  0  0  0  0  0  0  0
  -21.8118  -12.5801   21.4949 N   0  0  0  0  0  0  0  0  0  0  0  0
  -30.4475  -14.5251   22.2507 N   0  0  0  0  0  0  0  0  0  0  0  0
  -20.8235  -15.3421   24.7851 N   0  0  0  0  0  0  0  0  0  0  0  0
  -23.8969  -11.0090   29.0559 N   0  0  0  0  0  0  0  0  0  0  0  0
  -26.7828   -9.4395   28.1122 N   0  3  0  0  0  0  0  0  0  0  0  0
  -30.1979  -17.6972   26.7139 N   0  3  1  0  0  0  0  0  0  0  0  0
  -22.5245  -14.7369   21.1809 O   0  0  0  0  0  0  0  0  0  0  0  0
  -21.3592  -15.3679   27.0512 O   0  0  0  0  0  0  0  0  0  0  0  0
  -21.8370  -11.6325   27.1646 O   0  0  0  0  0  0  0  0  0  0  0  0
  -25.9573  -11.9786   29.4937 O   0  0  0  0  0  0  0  0  0  0  0  0
  -32.0471  -14.2508   20.5930 O   0  0  0  0  0  0  0  0  0  0  0  0
  -21.7230   -7.0160   21.7561 O   0  0  0  0  0  0  0  0  0  0  0  0
  -27.3869  -18.0238   26.7072 O   0  0  0  0  0  0  0  0  0  1  0  0
  -24.1822   -3.1309   24.7996 F   0  0  0  0  0  0  0  0  0  0  0  0
  -20.6176   -6.1761   24.1468 F   0  0  0  0  0  0  0  0  0  0  0  0
  1  2  1  0  0  0  0
  1  6  2  0  0  0  0
  2  7  2  0  0  0  0
  3  9  2  0  0  0  0
  3 10  1  0  0  0  0
  4 11  2  0  0  0  0
  4 19  1  0  0  0  0
  5 12  1  0  0  0  0
  5 19  2  0  0  0  0
  6 21  1  0  0  0  0
  7 23  1  0  0  0  0
  8 13  2  0  0  0  0
  8 22  1  0  0  0  0
  9 25  1  0  0  0  0
 10 26  2  0  0  0  0
 11 27  1  0  0  0  0
 12 27  2  0  0  0  0
 13 28  1  0  0  0  0
 14 15  2  0  0  0  0
 14 29  1  0  0  0  0
 15 30  1  0  0  0  0
 16 24  1  0  0  0  0
 16 28  2  0  0  0  0
 17 25  2  0  0  0  0
 17 26  1  0  0  0  0
 18 30  2  0  0  0  0
 18 31  1  0  0  0  0
 19 32  1  0  0  0  0
 20 32  1  0  0  0  0
 20 33  2  0  0  0  0
 20 34  1  0  0  0  0
 21 23  2  0  0  0  0
 21 39  1  0  0  0  0
 22 24  2  0  0  0  0
 22 40  1  0  0  0  0
 23 48  1  0  0  0  0
 24 41  1  0  0  0  0
 25 57  1  0  0  0  0
 26 69  1  0  0  0  0
 27 79  1  0  0  0  0
 28 80  1  0  0  0  0
 29 31  2  0  0  0  0
 29 79  1  0  0  0  0
 30 81  1  0  0  0  0
 31 82  1  0  0  0  0
 32 63  2  0  0  0  0
 33 64  1  0  0  0  0
 33 67  1  0  0  0  0
 34 68  1  0  0  0  0
 34 74  2  0  0  0  0
 35 49  1  0  0  0  0
 35 70  1  0  0  0  0
 35 75  2  0  0  0  0
 36 60  1  0  0  0  0
 36 65  1  0  0  0  0
 36 76  2  0  0  0  0
 37 61  1  0  0  0  0
 37 71  1  0  0  0  0
 37 77  2  0  0  0  0
 38 66  1  0  0  0  0
 38 69  1  0  0  0  0
 38 78  2  0  0  0  0
 39 42  1  0  0  0  0
 40 49  1  0  0  0  0
 41 65  1  0  0  0  0
 42 44  1  0  0  0  0
 43 45  1  0  0  0  0
 43 46  1  0  0  0  0
 44 48  1  0  0  0  0
 45 50  1  0  0  0  0
 46 66  1  0  0  0  0
 47 50  1  0  0  0  0
 47 66  1  0  0  0  0
 48 70  1  0  0  0  0
 49 65  1  0  0  0  0
 50 64  1  0  0  0  0
 51 61  1  0  0  0  0
 52 62  1  0  0  0  0
 53 62  1  0  0  0  0
 54 62  1  0  0  0  0
 55 72  1  0  0  0  0
 56 73  1  0  0  0  0
 57 73  1  0  0  0  0
 58 59  1  0  0  0  0
 58 73  1  0  0  0  0
 59 80  1  0  0  0  0
 60 62  1  0  0  0  0
 60 71  1  0  0  0  0
 61 72  1  0  0  0  0
 63 64  1  0  0  0  0
M  CHG  2  72   1  73   1
M  ISO  4  38 100  59 101  69 100  80 101
M  END
> <Batch ID>
0011

> <Smiles>
CNC(C)C(=O)NC(C(=O)N1Cc2cc([101O:1][101CH2:1]CN(C)Cc3cccc([100NH:0][100C:0](=O)N4CCCC(n5nc(-c6ccc(Oc7ccc(F)cc7F)cc6)c(C(N)=O)c5N)C4)c3)ccc2CC1C(=O)NC1CCCc2ccccc21)C(C)(C)C

> <Shape>
0.153

> <Color>
0.188

> <Negative vol penalty>
0.000

$$$$

  -OEChem-04042320433D

 82 90  0     1  0  0  0  0  0999 V2000
  -24.6122  -34.0114   28.0639 C   0  0  0  0  0  0  0  0  0  0  0  0
  -25.4919  -33.1965   27.3586 C   0  0  0  0  0  0  0  0  0  0  0  0
  -24.2567   -9.1059   21.4812 C   0  0  0  0  0  0  0  0  0  0  0  0
  -24.7683  -10.3935   23.4604 C   0  0  0  0  0  0  0  0  0  0  0  0
  -23.2367  -33.8149   27.9481 C   0  0  0  0  0  0  0  0  0  0  0  0
  -24.9966  -32.1839   26.5377 C   0  0  0  0  0  0  0  0  0  0  0  0
  -27.3828  -30.2386   21.2437 C   0  0  0  0  0  0  0  0  0  0  0  0
  -30.2159  -18.8786   20.0778 C   0  0  0  0  0  0  0  0  0  0  0  0
  -23.9218   -8.0121   22.2793 C   0  0  0  0  0  0  0  0  0  0  0  0
  -24.4333   -9.2997   24.2585 C   0  0  0  0  0  0  0  0  0  0  0  0
  -28.1972  -29.1529   20.9246 C   0  0  0  0  0  0  0  0  0  0  0  0
  -30.3965  -20.2134   20.4399 C   0  0  0  0  0  0  0  0  0  0  0  0
  -21.2944   -7.0103   24.1570 C   0  0  0  0  0  0  0  0  0  0  0  0
  -20.1253   -6.3155   23.8470 C   0  0  0  0  0  0  0  0  0  0  0  0
  -26.2451  -27.8791   20.3032 C   0  0  0  0  0  0  0  0  0  0  0  0
  -28.0127  -20.4509   20.7535 C   0  0  0  0  0  0  0  0  0  0  0  0
  -21.4143   -4.3017   23.4998 C   0  0  0  0  0  0  0  0  0  0  0  0
  -24.6800  -10.2966   22.0717 C   0  0  0  0  0  0  0  0  0  0  0  0
  -24.1683  -12.4504   20.8040 C   0  0  0  0  0  0  0  0  0  0  0  0
  -22.7241  -32.8057   27.1179 C   0  0  0  0  0  0  0  0  0  0  0  0
  -25.9903  -30.1489   21.1050 C   0  0  0  0  0  0  0  0  0  0  0  0
  -23.6130  -31.9729   26.4117 C   0  0  0  0  0  0  0  0  0  0  0  0
  -25.4155  -28.9660   20.6188 C   0  0  0  0  0  0  0  0  0  0  0  0
  -28.9336  -18.3299   20.0534 C   0  0  0  0  0  0  0  0  0  0  0  0
  -24.0101   -8.1090   23.6679 C   0  0  0  0  0  0  0  0  0  0  0  0
  -27.6281  -27.9719   20.4571 C   0  0  0  0  0  0  0  0  0  0  0  0
  -29.2950  -20.9996   20.7778 C   0  0  0  0  0  0  0  0  0  0  0  0
  -22.5234   -6.3509   24.1383 C   0  0  0  0  0  0  0  0  0  0  0  0
  -20.1853   -4.9612   23.5185 C   0  0  0  0  0  0  0  0  0  0  0  0
  -27.8321  -19.1160   20.3913 C   0  0  0  0  0  0  0  0  0  0  0  0
  -22.5834   -4.9966   23.8098 C   0  0  0  0  0  0  0  0  0  0  0  0
  -25.0267  -11.4267   21.2478 C   0  0  0  0  0  0  0  0  0  0  0  0
  -24.9747  -13.2760   20.0594 C   0  0  0  0  0  0  0  0  0  0  0  0
  -22.7672  -12.6382   21.0434 C   0  0  0  0  0  0  0  0  0  0  0  0
  -23.5206  -30.3437   23.0966 C   0  0  0  0  0  0  0  0  0  0  0  0
  -21.7957  -30.1726   20.3547 C   0  0  0  0  0  0  0  0  0  0  0  0
  -21.6387  -29.2028   17.0865 C   0  0  0  0  0  0  0  0  0  0  0  0
  -29.7411  -16.0584   19.3221 C   0  0  0  0  0  0  0  0  0  0  0  0
  -21.2309  -32.6009   27.0614 C   0  0  0  0  0  0  0  0  0  0  0  0
  -25.1278  -31.3381   21.4281 C   0  0  0  0  0  0  0  0  0  0  0  0
  -23.9275  -28.8254   20.4328 C   0  0  0  0  0  0  0  0  0  0  0  0
  -20.7774  -31.7478   25.8795 C   0  0  0  0  0  0  0  0  0  0  0  0
  -29.7068  -12.6236   18.3850 C   0  0  0  0  0  0  0  0  0  0  0  0
  -21.6503  -30.5032   25.7534 C   0  0  0  0  0  0  0  0  0  0  0  0
  -28.4155  -12.0902   19.0097 C   0  0  0  0  0  0  0  0  0  0  0  0
  -30.3849  -13.6587   19.2809 C   0  0  0  0  0  0  0  0  0  0  0  0
  -28.2331  -14.2360   20.3323 C   0  0  0  0  0  0  0  0  0  0  0  0
  -23.1136  -30.8799   25.4919 C   0  0  1  0  0  0  0  0  0  0  0  0
  -23.6820  -30.9615   21.7365 C   0  0  1  0  0  0  0  0  0  0  0  0
  -27.4802  -13.2383   19.4372 C   0  0  2  0  0  0  0  0  0  0  0  0
  -20.0851  -29.1624   15.1161 C   0  0  0  0  0  0  0  0  0  0  0  0
  -20.2767  -27.8395   21.6034 C   0  0  0  0  0  0  0  0  0  0  0  0
  -19.4426  -27.2500   19.3175 C   0  0  0  0  0  0  0  0  0  0  0  0
  -18.8500  -29.4513   20.3303 C   0  0  0  0  0  0  0  0  0  0  0  0
  -23.4541  -30.8939   15.4731 C   0  0  0  0  0  0  0  0  0  0  0  0
  -28.9589  -24.6088   20.6297 C   0  0  0  0  0  0  0  0  0  0  0  0
  -27.8587  -25.6093   20.3123 C   0  0  0  0  0  0  0  0  0  1  0  0
  -28.4097  -23.2060   20.8371 C   0  0  0  0  0  0  0  0  0  0  0  0
  -21.2136  -29.0531   19.5260 C   0  0  1  0  0  0  0  0  0  0  0  0
  -21.1770  -29.9352   15.8395 C   0  0  2  0  0  0  0  0  0  0  0  0
  -19.9736  -28.4001   20.1995 C   0  0  0  0  0  0  0  0  0  0  0  0
  -26.2823  -11.5853   20.8207 N   0  0  0  0  0  0  0  0  0  0  0  0
  -26.2187  -12.7183   20.1006 N   0  0  0  0  0  0  0  0  0  0  0  0
  -23.1260  -30.0139   20.7684 N   0  0  0  0  0  0  0  0  0  0  0  0
  -29.4398  -14.7176   19.6419 N   0  0  0  0  0  0  0  0  0  0  0  0
  -24.7340  -14.4175   19.3799 N   0  0  0  0  0  0  0  0  0  0  0  0
  -22.0916  -11.6955   21.8304 N   0  0  0  0  0  0  0  0  0  0  0  0
  -28.7535  -16.9736   19.6850 N   0  0  0  0  0  0  0  0  0  0  0  0
  -23.2983  -31.2591   24.1075 N   0  0  0  0  0  0  0  0  0  0  0  0
  -20.9493  -29.6168   18.2066 N   0  0  0  0  0  0  0  0  0  0  0  0
  -22.3176  -30.1280   14.8999 N   0  3  0  0  0  0  0  0  0  0  0  0
  -22.1296  -13.6042   20.5598 O   0  0  0  0  0  0  0  0  0  0  0  0
  -23.5911  -29.1265   23.2195 O   0  0  0  0  0  0  0  0  0  0  0  0
  -21.0982  -31.1551   20.6191 O   0  0  0  0  0  0  0  0  0  0  0  0
  -22.5198  -28.3462   17.0680 O   0  0  0  0  0  0  0  0  0  0  0  0
  -30.7851  -16.3685   18.7427 O   0  0  0  0  0  0  0  0  0  0  0  0
  -23.6831   -7.0420   24.4471 O   0  0  0  0  0  0  0  0  0  0  0  0
  -28.4206  -26.9104   20.1455 O   0  0  0  0  0  0  0  0  0  1  0  0
  -29.4727  -22.3109   21.1348 O   0  0  0  0  0  0  0  0  0  0  0  0
  -19.0624   -4.2937   23.2223 F   0  0  0  0  0  0  0  0  0  0  0  0
  -26.5952  -18.5992   20.3709 F   0  0  0  0  0  0  0  0  0  0  0  0
  -23.7611   -4.3575   23.7913 F   0  0  0  0  0  0  0  0  0  0  0  0
  1  2  1  0  0  0  0
  1  5  2  0  0  0  0
  2  6  2  0  0  0  0
  3  9  2  0  0  0  0
  3 18  1  0  0  0  0
  4 10  1  0  0  0  0
  4 18  2  0  0  0  0
  5 20  1  0  0  0  0
  6 22  1  0  0  0  0
  7 11  2  0  0  0  0
  7 21  1  0  0  0  0
  8 12  2  0  0  0  0
  8 24  1  0  0  0  0
  9 25  1  0  0  0  0
 10 25  2  0  0  0  0
 11 26  1  0  0  0  0
 12 27  1  0  0  0  0
 13 14  2  0  0  0  0
 13 28  1  0  0  0  0
 14 29  1  0  0  0  0
 15 23  1  0  0  0  0
 15 26  2  0  0  0  0
 16 27  2  0  0  0  0
 16 30  1  0  0  0  0
 17 29  2  0  0  0  0
 17 31  1  0  0  0  0
 18 32  1  0  0  0  0
 19 32  1  0  0  0  0
 19 33  2  0  0  0  0
 19 34  1  0  0  0  0
 20 22  2  0  0  0  0
 20 39  1  0  0  0  0
 21 23  2  0  0  0  0
 21 40  1  0  0  0  0
 22 48  1  0  0  0  0
 23 41  1  0  0  0  0
 24 30  2  0  0  0  0
 24 68  1  0  0  0  0
 25 77  1  0  0  0  0
 26 78  1  0  0  0  0
 27 79  1  0  0  0  0
 28 31  2  0  0  0  0
 28 77  1  0  0  0  0
 29 80  1  0  0  0  0
 30 81  1  0  0  0  0
 31 82  1  0  0  0  0
 32 62  2  0  0  0  0
 33 63  1  0  0  0  0
 33 66  1  0  0  0  0
 34 67  1  0  0  0  0
 34 72  2  0  0  0  0
 35 49  1  0  0  0  0
 35 69  1  0  0  0  0
 35 73  2  0  0  0  0
 36 59  1  0  0  0  0
 36 64  1  0  0  0  0
 36 74  2  0  0  0  0
 37 60  1  0  0  0  0
 37 70  1  0  0  0  0
 37 75  2  0  0  0  0
 38 65  1  0  0  0  0
 38 68  1  0  0  0  0
 38 76  2  0  0  0  0
 39 42  1  0  0  0  0
 40 49  1  0  0  0  0
 41 64  1  0  0  0  0
 42 44  1  0  0  0  0
 43 45  1  0  0  0  0
 43 46  1  0  0  0  0
 44 48  1  0  0  0  0
 45 50  1  0  0  0  0
 46 65  1  0  0  0  0
 47 50  1  0  0  0  0
 47 65  1  0  0  0  0
 48 69  1  0  0  0  0
 49 64  1  0  0  0  0
 50 63  1  0  0  0  0
 51 60  1  0  0  0  0
 52 61  1  0  0  0  0
 53 61  1  0  0  0  0
 54 61  1  0  0  0  0
 55 71  1  0  0  0  0
 56 57  1  0  0  0  0
 56 58  1  0  0  0  0
 57 78  1  0  0  0  0
 58 79  1  0  0  0  0
 59 61  1  0  0  0  0
 59 70  1  0  0  0  0
 60 71  1  0  0  0  0
 62 63  1  0  0  0  0
M  CHG  1  71   1
M  ISO  4  38 100  57 101  68 100  78 101
M  END
> <Batch ID>
0011

> <Smiles>
CNC(C)C(=O)NC(C(=O)N1Cc2cc([101O:1][101CH2:1]CCOc3ccc([100NH:0][100C:0](=O)N4CCCC(n5nc(-c6ccc(Oc7ccc(F)cc7F)cc6)c(C(N)=O)c5N)C4)c(F)c3)ccc2CC1C(=O)NC1CCCc2ccccc21)C(C)(C)C

> <Shape>
0.303

> <Color>
0.145

> <Negative vol penalty>
0.000

$$$$

  -OEChem-04042320433D

 82 90  0     1  0  0  0  0  0999 V2000
  -21.9089  -11.6555   21.4646 C   0  0  0  0  0  0  0  0  0  0  0  0
  -21.6687  -13.0175   21.6155 C   0  0  0  0  0  0  0  0  0  0  0  0
  -30.0984  -27.8975   19.0121 C   0  0  0  0  0  0  0  0  0  0  0  0
  -29.6995  -26.6536   21.0445 C   0  0  0  0  0  0  0  0  0  0  0  0
  -23.2081  -11.1976   21.2491 C   0  0  0  0  0  0  0  0  0  0  0  0
  -22.7278  -13.9223   21.5520 C   0  0  0  0  0  0  0  0  0  0  0  0
  -21.6505  -17.9785   18.7180 C   0  0  0  0  0  0  0  0  0  0  0  0
  -19.1186  -26.6905   21.0533 C   0  0  0  0  0  0  0  0  0  0  0  0
  -31.4703  -27.6898   19.1542 C   0  0  0  0  0  0  0  0  0  0  0  0
  -31.0715  -26.4458   21.1865 C   0  0  0  0  0  0  0  0  0  0  0  0
  -20.8519  -18.9647   19.2954 C   0  0  0  0  0  0  0  0  0  0  0  0
  -18.8438  -25.3522   20.7722 C   0  0  0  0  0  0  0  0  0  0  0  0
  -34.4423  -25.2801   21.8913 C   0  0  0  0  0  0  0  0  0  0  0  0
  -34.8732  -23.9973   22.2294 C   0  0  0  0  0  0  0  0  0  0  0  0
  -22.8215  -20.2760   19.7651 C   0  0  0  0  0  0  0  0  0  0  0  0
  -19.9078  -24.6993   22.8407 C   0  0  0  0  0  0  0  0  0  0  0  0
  -33.8633  -23.1271   20.2144 C   0  0  0  0  0  0  0  0  0  0  0  0
  -29.2129  -27.3795   19.9573 C   0  0  0  0  0  0  0  0  0  0  0  0
  -26.8773  -26.7738   19.1292 C   0  0  0  0  0  0  0  0  0  0  0  0
  -24.2823  -12.0981   21.1734 C   0  0  0  0  0  0  0  0  0  0  0  0
  -23.0438  -18.1289   18.6695 C   0  0  0  0  0  0  0  0  0  0  0  0
  -24.0428  -13.4759   21.3367 C   0  0  0  0  0  0  0  0  0  0  0  0
  -23.6353  -19.2914   19.1842 C   0  0  0  0  0  0  0  0  0  0  0  0
  -19.7881  -27.0332   22.2280 C   0  0  0  0  0  0  0  0  0  0  0  0
  -31.9569  -26.9639   20.2414 C   0  0  0  0  0  0  0  0  0  0  0  0
  -21.4377  -20.1124   19.8216 C   0  0  0  0  0  0  0  0  0  0  0  0
  -19.2383  -24.3566   21.6659 C   0  0  0  0  0  0  0  0  0  0  0  0
  -33.7219  -25.4865   20.7148 C   0  0  0  0  0  0  0  0  0  0  0  0
  -34.5837  -22.9208   21.3909 C   0  0  0  0  0  0  0  0  0  0  0  0
  -20.1826  -26.0376   23.1218 C   0  0  0  0  0  0  0  0  0  0  0  0
  -33.4324  -24.4100   19.8763 C   0  0  0  0  0  0  0  0  0  0  0  0
  -27.7957  -27.5942   19.8114 C   0  0  0  0  0  0  0  0  0  0  0  0
  -25.6694  -27.4094   19.2822 C   0  0  0  0  0  0  0  0  0  0  0  0
  -27.0966  -25.5467   18.4207 C   0  0  0  0  0  0  0  0  0  0  0  0
  -25.5156  -16.5302   19.8688 C   0  0  0  0  0  0  0  0  0  0  0  0
  -27.2355  -18.6204   18.0812 C   0  0  0  0  0  0  0  0  0  0  0  0
  -27.3985  -21.6558   16.5299 C   0  0  0  0  0  0  0  0  0  0  0  0
  -21.9511  -30.0941   22.4621 C   0  0  0  0  0  0  0  0  0  0  0  0
  -25.6756  -11.5519   20.9860 C   0  0  0  0  0  0  0  0  0  0  0  0
  -23.8889  -17.0680   18.0193 C   0  0  0  0  0  0  0  0  0  0  0  0
  -25.1247  -19.5102   19.1387 C   0  0  0  0  0  0  0  0  0  0  0  0
  -26.6914  -12.6080   20.5582 C   0  0  0  0  0  0  0  0  0  0  0  0
  -24.5779  -32.0274   21.0341 C   0  0  0  0  0  0  0  0  0  0  0  0
  -26.5509  -13.8620   21.4151 C   0  0  0  0  0  0  0  0  0  0  0  0
  -25.5757  -30.9792   20.5384 C   0  0  0  0  0  0  0  0  0  0  0  0
  -23.9138  -31.6006   22.3414 C   0  0  0  0  0  0  0  0  0  0  0  0
  -24.2776  -29.2212   21.8125 C   0  0  0  0  0  0  0  0  0  0  0  0
  -25.1620  -14.4907   21.2494 C   0  0  1  0  0  0  0  0  0  0  0  0
  -25.3412  -17.0916   18.4860 C   0  0  1  0  0  0  0  0  0  0  0  0
  -24.9318  -29.5814   20.4677 C   0  0  2  0  0  0  0  0  0  0  0  0
  -28.3337  -23.4907   15.0961 C   0  0  0  0  0  0  0  0  0  0  0  0
  -28.7933  -19.3101   20.6125 C   0  0  0  0  0  0  0  0  0  0  0  0
  -29.6301  -21.3656   19.4538 C   0  0  0  0  0  0  0  0  0  0  0  0
  -30.1918  -19.1099   18.5489 C   0  0  0  0  0  0  0  0  0  0  0  0
  -26.1551  -20.5390   14.0874 C   0  0  0  0  0  0  0  0  0  0  0  0
  -20.0800  -28.4650   22.5255 C   0  0  0  0  0  0  0  0  0  0  0  0
  -19.3367  -21.2256   19.8751 C   0  0  0  0  0  0  0  0  0  1  0  0
  -18.9114  -22.6742   20.0171 C   0  0  0  0  0  0  0  0  0  0  0  0
  -27.8324  -19.9874   18.3138 C   0  0  1  0  0  0  0  0  0  0  0  0
  -27.8456  -22.0509   15.1340 C   0  0  2  0  0  0  0  0  0  0  0  0
  -29.0840  -19.9385   19.2350 C   0  0  0  0  0  0  0  0  0  0  0  0
  -27.2204  -28.6691   20.3570 N   0  0  0  0  0  0  0  0  0  0  0  0
  -25.9277  -28.5285   20.0178 N   0  0  0  0  0  0  0  0  0  0  0  0
  -25.9090  -18.4413   18.4984 N   0  0  0  0  0  0  0  0  0  0  0  0
  -23.3214  -30.2677   22.2067 N   0  0  0  0  0  0  0  0  0  0  0  0
  -24.4222  -27.1147   18.8579 N   0  0  0  0  0  0  0  0  0  0  0  0
  -28.3993  -25.0332   18.3611 N   0  0  0  0  0  0  0  0  0  0  0  0
  -25.0847  -15.2243   20.0043 N   0  0  0  0  0  0  0  0  0  0  0  0
  -28.0845  -20.5529   16.9928 N   0  0  0  0  0  0  0  0  0  0  0  0
  -21.4691  -28.8004   22.3050 N   0  0  0  0  0  0  0  0  0  0  0  0
  -26.7176  -21.9115   14.1700 N   0  3  0  0  0  0  0  0  0  0  0  0
  -26.1676  -24.9327   17.8431 O   0  0  0  0  0  0  0  0  0  0  0  0
  -26.0064  -17.2295   20.7473 O   0  0  0  0  0  0  0  0  0  0  0  0
  -27.9186  -17.7459   17.5424 O   0  0  0  0  0  0  0  0  0  0  0  0
  -26.5304  -22.2669   17.1493 O   0  0  0  0  0  0  0  0  0  0  0  0
  -21.2110  -31.0243   22.7996 O   0  0  0  0  0  0  0  0  0  0  0  0
  -33.2956  -26.7608   20.3802 O   0  0  0  0  0  0  0  0  0  0  0  0
  -20.6606  -21.0763   20.3864 O   0  0  0  0  0  0  0  0  0  1  0  0
  -18.9671  -23.0423   21.3900 O   0  0  0  0  0  0  0  0  0  0  0  0
  -34.9988  -21.6892   21.7149 F   0  0  0  0  0  0  0  0  0  0  0  0
  -20.8276  -26.3572   24.2525 F   0  0  0  0  0  0  0  0  0  0  0  0
  -32.7417  -24.6023   18.7442 F   0  0  0  0  0  0  0  0  0  0  0  0
  1  2  1  0  0  0  0
  1  5  2  0  0  0  0
  2  6  2  0  0  0  0
  3  9  2  0  0  0  0
  3 18  1  0  0  0  0
  4 10  1  0  0  0  0
  4 18  2  0  0  0  0
  5 20  1  0  0  0  0
  6 22  1  0  0  0  0
  7 11  2  0  0  0  0
  7 21  1  0  0  0  0
  8 12  2  0  0  0  0
  8 24  1  0  0  0  0
  9 25  1  0  0  0  0
 10 25  2  0  0  0  0
 11 26  1  0  0  0  0
 12 27  1  0  0  0  0
 13 14  2  0  0  0  0
 13 28  1  0  0  0  0
 14 29  1  0  0  0  0
 15 23  1  0  0  0  0
 15 26  2  0  0  0  0
 16 27  2  0  0  0  0
 16 30  1  0  0  0  0
 17 29  2  0  0  0  0
 17 31  1  0  0  0  0
 18 32  1  0  0  0  0
 19 32  1  0  0  0  0
 19 33  2  0  0  0  0
 19 34  1  0  0  0  0
 20 22  2  0  0  0  0
 20 39  1  0  0  0  0
 21 23  2  0  0  0  0
 21 40  1  0  0  0  0
 22 48  1  0  0  0  0
 23 41  1  0  0  0  0
 24 30  2  0  0  0  0
 24 56  1  0  0  0  0
 25 77  1  0  0  0  0
 26 78  1  0  0  0  0
 27 79  1  0  0  0  0
 28 31  2  0  0  0  0
 28 77  1  0  0  0  0
 29 80  1  0  0  0  0
 30 81  1  0  0  0  0
 31 82  1  0  0  0  0
 32 62  2  0  0  0  0
 33 63  1  0  0  0  0
 33 66  1  0  0  0  0
 34 67  1  0  0  0  0
 34 72  2  0  0  0  0
 35 49  1  0  0  0  0
 35 68  1  0  0  0  0
 35 73  2  0  0  0  0
 36 59  1  0  0  0  0
 36 64  1  0  0  0  0
 36 74  2  0  0  0  0
 37 60  1  0  0  0  0
 37 69  1  0  0  0  0
 37 75  2  0  0  0  0
 38 65  1  0  0  0  0
 38 70  1  0  0  0  0
 38 76  2  0  0  0  0
 39 42  1  0  0  0  0
 40 49  1  0  0  0  0
 41 64  1  0  0  0  0
 42 44  1  0  0  0  0
 43 45  1  0  0  0  0
 43 46  1  0  0  0  0
 44 48  1  0  0  0  0
 45 50  1  0  0  0  0
 46 65  1  0  0  0  0
 47 50  1  0  0  0  0
 47 65  1  0  0  0  0
 48 68  1  0  0  0  0
 49 64  1  0  0  0  0
 50 63  1  0  0  0  0
 51 60  1  0  0  0  0
 52 61  1  0  0  0  0
 53 61  1  0  0  0  0
 54 61  1  0  0  0  0
 55 71  1  0  0  0  0
 56 70  1  0  0  0  0
 57 58  1  0  0  0  0
 57 78  1  0  0  0  0
 58 79  1  0  0  0  0
 59 61  1  0  0  0  0
 59 69  1  0  0  0  0
 60 71  1  0  0  0  0
 62 63  1  0  0  0  0
M  CHG  1  71   1
M  ISO  4  38 100  57 101  70 100  78 101
M  END
> <Batch ID>
0011

> <Smiles>
CNC(C)C(=O)NC(C(=O)N1Cc2cc([101O:1][101CH2:1]COc3ccc(C[100NH:0][100C:0](=O)N4CCCC(n5nc(-c6ccc(Oc7ccc(F)cc7F)cc6)c(C(N)=O)c5N)C4)c(F)c3)ccc2CC1C(=O)NC1CCCc2ccccc21)C(C)(C)C

> <Shape>
0.236

> <Color>
0.064

> <Negative vol penalty>
0.000

$$$$

  -OEChem-04042320433D

 84 93  0     1  0  0  0  0  0999 V2000
  -17.4788  -26.7954   25.8106 C   0  0  0  0  0  0  0  0  0  0  0  0
  -17.9778  -25.5453   25.4588 C   0  0  0  0  0  0  0  0  0  0  0  0
  -29.2694  -19.2759   21.1804 C   0  0  0  0  0  0  0  0  0  0  0  0
  -28.7093  -18.9176   18.8577 C   0  0  0  0  0  0  0  0  0  0  0  0
  -17.7550  -27.9047   25.0125 C   0  0  0  0  0  0  0  0  0  0  0  0
  -18.7525  -25.4037   24.3081 C   0  0  0  0  0  0  0  0  0  0  0  0
  -24.2261  -21.5905   21.6975 C   0  0  0  0  0  0  0  0  0  0  0  0
  -24.7003  -16.5040   15.2002 C   0  0  0  0  0  0  0  0  0  0  0  0
  -22.7535  -16.1006   16.5729 C   0  0  0  0  0  0  0  0  0  0  0  0
  -25.2041  -15.2502   15.5461 C   0  0  0  0  0  0  0  0  0  0  0  0
  -23.2573  -14.8468   16.9188 C   0  0  0  0  0  0  0  0  0  0  0  0
  -29.3999  -20.6433   20.9381 C   0  0  0  0  0  0  0  0  0  0  0  0
  -28.8397  -20.2851   18.6153 C   0  0  0  0  0  0  0  0  0  0  0  0
  -24.5653  -20.8100   20.5931 C   0  0  0  0  0  0  0  0  0  0  0  0
  -31.3467  -22.5019   18.1340 C   0  0  0  0  0  0  0  0  0  0  0  0
  -32.0520  -22.8940   16.9963 C   0  0  0  0  0  0  0  0  0  0  0  0
  -25.0441  -22.8109   19.3336 C   0  0  0  0  0  0  0  0  0  0  0  0
  -30.0851  -24.0258   16.1671 C   0  0  0  0  0  0  0  0  0  0  0  0
  -28.9242  -18.4131   20.1402 C   0  0  0  0  0  0  0  0  0  0  0  0
  -29.7816  -16.1236   20.8689 C   0  0  0  0  0  0  0  0  0  0  0  0
  -18.5416  -27.7784   23.8567 C   0  0  0  0  0  0  0  0  0  0  0  0
  -24.2831  -22.9897   21.6246 C   0  0  0  0  0  0  0  0  0  0  0  0
  -19.0385  -26.5122   23.4931 C   0  0  0  0  0  0  0  0  0  0  0  0
  -24.7076  -23.6068   20.4393 C   0  0  0  0  0  0  0  0  0  0  0  0
  -23.4750  -16.9293   15.7136 C   0  0  0  0  0  0  0  0  0  0  0  0
  -24.4826  -14.4216   16.4054 C   0  0  0  0  0  0  0  0  0  0  0  0
  -29.1850  -21.1479   19.6555 C   0  0  0  0  0  0  0  0  0  0  0  0
  -24.9716  -21.4202   19.4101 C   0  0  0  0  0  0  0  0  0  0  0  0
  -30.0106  -22.8717   18.2883 C   0  0  0  0  0  0  0  0  0  0  0  0
  -31.4212  -23.6560   16.0128 C   0  0  0  0  0  0  0  0  0  0  0  0
  -29.3798  -23.6336   17.3048 C   0  0  0  0  0  0  0  0  0  0  0  0
  -28.7898  -17.0004   20.3899 C   0  0  0  0  0  0  0  0  0  0  0  0
  -29.1580  -14.9015   20.9321 C   0  0  0  0  0  0  0  0  0  0  0  0
  -24.8944  -19.7584   16.0304 C   0  0  0  0  0  0  0  0  0  0  0  0
  -31.1446  -16.3902   21.2251 C   0  0  0  0  0  0  0  0  0  0  0  0
  -22.1592  -25.3385   21.9004 C   0  0  0  0  0  0  0  0  0  0  0  0
  -24.7935  -27.2197   21.6915 C   0  0  0  0  0  0  0  0  0  0  0  0
  -28.0237  -27.5764   20.6495 C   0  0  0  0  0  0  0  0  0  0  0  0
  -24.7089  -12.5354   18.0125 C   0  0  0  0  0  0  0  0  0  0  0  0
  -18.7740  -28.9977   22.9999 C   0  0  0  0  0  0  0  0  0  0  0  0
  -23.9396  -23.8166   22.8332 C   0  0  0  0  0  0  0  0  0  0  0  0
  -24.8051  -25.1047   20.3160 C   0  0  0  0  0  0  0  0  0  0  0  0
  -19.9152  -28.8308   21.9998 C   0  0  0  0  0  0  0  0  0  0  0  0
  -24.8602  -12.9088   21.5453 C   0  0  0  0  0  0  0  0  0  0  0  0
  -19.8013  -27.4916   21.2785 C   0  0  0  0  0  0  0  0  0  0  0  0
  -25.9851  -13.9326   21.6943 C   0  0  0  0  0  0  0  0  0  0  0  0
  -23.9595  -13.2180   20.3490 C   0  0  0  0  0  0  0  0  0  0  0  0
  -23.1307  -20.2298   17.0656 C   0  0  0  0  0  0  0  0  0  0  0  0
  -25.8167  -14.4015   19.2198 C   0  0  0  0  0  0  0  0  0  0  0  0
  -19.9034  -26.3227   22.2659 C   0  0  1  0  0  0  0  0  0  0  0  0
  -24.5601  -20.8212   17.0991 C   0  0  1  0  0  0  0  0  0  1  0  0
  -23.5405  -25.2472   22.4846 C   0  0  1  0  0  0  0  0  0  0  0  0
  -26.7721  -14.0834   20.3805 C   0  0  1  0  0  0  0  0  0  0  0  0
  -29.9008  -29.2406   20.5864 C   0  0  0  0  0  0  0  0  0  0  0  0
  -23.4055  -28.6950   19.4096 C   0  0  0  0  0  0  0  0  0  0  0  0
  -25.6255  -29.6663   18.7801 C   0  0  0  0  0  0  0  0  0  0  0  0
  -24.6331  -30.1712   21.0123 C   0  0  0  0  0  0  0  0  0  0  0  0
  -25.6438  -12.3143   15.7207 C   0  0  0  0  0  0  0  0  0  0  0  0
  -29.7774  -25.8344   22.2770 C   0  0  0  0  0  0  0  0  0  0  0  0
  -22.9329  -18.2789   15.3412 C   0  0  0  0  0  0  0  0  0  0  0  0
  -25.5610  -27.8629   20.5618 C   0  0  1  0  0  0  0  0  0  0  0  0
  -29.2593  -28.0991   21.3598 C   0  0  2  0  0  0  0  0  0  0  0  0
  -24.8027  -29.0706   19.9423 C   0  0  0  0  0  0  0  0  0  0  0  0
  -27.6248  -16.3872   20.1645 N   0  0  0  0  0  0  0  0  0  0  0  0
  -27.8805  -15.1122   20.5034 N   0  0  0  0  0  0  0  0  0  0  0  0
  -23.6108  -19.3358   16.0265 N   0  0  0  0  0  0  0  0  0  0  0  0
  -24.4526  -25.8701   21.5232 N   0  0  0  0  0  0  0  0  0  0  0  0
  -24.7578  -13.3934   19.1274 N   0  0  0  0  0  0  0  0  0  0  0  0
  -29.5834  -13.6778   21.3119 N   0  0  0  0  0  0  0  0  0  0  0  0
  -32.1287  -16.2767   20.2336 N   0  0  0  0  0  0  0  0  0  0  0  0
  -21.2820  -26.1019   22.6469 N   0  0  0  0  0  0  0  0  0  0  0  0
  -26.8762  -28.1949   21.0989 N   0  0  0  0  0  0  0  0  0  0  0  0
  -25.0037  -13.1233   16.7636 N   0  0  0  0  0  0  0  0  0  0  0  0
  -30.2666  -27.0118   21.5146 N   0  3  0  0  0  0  0  0  0  0  0  0
  -25.8817  -19.4068   15.4268 O   0  0  0  0  0  0  0  0  0  0  0  0
  -31.4820  -16.7033   22.3920 O   0  0  0  0  0  0  0  0  0  0  0  0
  -21.9082  -24.7603   20.8495 O   0  0  0  0  0  0  0  0  0  0  0  0
  -24.5132  -27.8880   22.6897 O   0  0  0  0  0  0  0  0  0  0  0  0
  -28.0720  -26.7089   19.7802 O   0  0  0  0  0  0  0  0  0  0  0  0
  -24.4479  -11.3318   18.1268 O   0  0  0  0  0  0  0  0  0  0  0  0
  -29.3120  -22.4822   19.4187 O   0  0  0  0  0  0  0  0  0  0  0  0
  -25.3025  -20.6608   18.3304 O   0  0  0  0  0  0  0  0  0  1  0  0
  -32.0990  -24.0338   14.9210 F   0  0  0  0  0  0  0  0  0  0  0  0
  -28.0968  -23.9929   17.4480 F   0  0  0  0  0  0  0  0  0  0  0  0
  1  2  1  0  0  0  0
  1  5  2  0  0  0  0
  2  6  2  0  0  0  0
  3 12  2  0  0  0  0
  3 19  1  0  0  0  0
  4 13  1  0  0  0  0
  4 19  2  0  0  0  0
  5 21  1  0  0  0  0
  6 23  1  0  0  0  0
  7 14  2  0  0  0  0
  7 22  1  0  0  0  0
  8 10  2  0  0  0  0
  8 25  1  0  0  0  0
  9 11  1  0  0  0  0
  9 25  2  0  0  0  0
 10 26  1  0  0  0  0
 11 26  2  0  0  0  0
 12 27  1  0  0  0  0
 13 27  2  0  0  0  0
 14 28  1  0  0  0  0
 15 16  2  0  0  0  0
 15 29  1  0  0  0  0
 16 30  1  0  0  0  0
 17 24  1  0  0  0  0
 17 28  2  0  0  0  0
 18 30  2  0  0  0  0
 18 31  1  0  0  0  0
 19 32  1  0  0  0  0
 20 32  1  0  0  0  0
 20 33  2  0  0  0  0
 20 35  1  0  0  0  0
 21 23  2  0  0  0  0
 21 40  1  0  0  0  0
 22 24  2  0  0  0  0
 22 41  1  0  0  0  0
 23 50  1  0  0  0  0
 24 42  1  0  0  0  0
 25 60  1  0  0  0  0
 26 73  1  0  0  0  0
 27 81  1  0  0  0  0
 28 82  1  0  0  0  0
 29 31  2  0  0  0  0
 29 81  1  0  0  0  0
 30 83  1  0  0  0  0
 31 84  1  0  0  0  0
 32 64  2  0  0  0  0
 33 65  1  0  0  0  0
 33 69  1  0  0  0  0
 34 51  1  0  0  0  0
 34 66  1  0  0  0  0
 34 75  2  0  0  0  0
 35 70  1  0  0  0  0
 35 76  2  0  0  0  0
 36 52  1  0  0  0  0
 36 71  1  0  0  0  0
 36 77  2  0  0  0  0
 37 61  1  0  0  0  0
 37 67  1  0  0  0  0
 37 78  2  0  0  0  0
 38 62  1  0  0  0  0
 38 72  1  0  0  0  0
 38 79  2  0  0  0  0
 39 68  1  0  0  0  0
 39 73  1  0  0  0  0
 39 80  2  0  0  0  0
 40 43  1  0  0  0  0
 41 52  1  0  0  0  0
 42 67  1  0  0  0  0
 43 45  1  0  0  0  0
 44 46  1  0  0  0  0
 44 47  1  0  0  0  0
 45 50  1  0  0  0  0
 46 53  1  0  0  0  0
 47 68  1  0  0  0  0
 48 51  1  0  0  0  0
 48 66  1  0  0  0  0
 49 53  1  0  0  0  0
 49 68  1  0  0  0  0
 50 71  1  0  0  0  0
 51 82  1  0  0  0  0
 52 67  1  0  0  0  0
 53 65  1  0  0  0  0
 54 62  1  0  0  0  0
 55 63  1  0  0  0  0
 56 63  1  0  0  0  0
 57 63  1  0  0  0  0
 58 73  1  0  0  0  0
 59 74  1  0  0  0  0
 60 66  1  0  0  0  0
 61 63  1  0  0  0  0
 61 72  1  0  0  0  0
 62 74  1  0  0  0  0
 64 65  1  0  0  0  0
M  CHG  1  74   1
M  ISO  4  39 100  51 101  73 100  82 101
M  END
> <Batch ID>
0011

> <Smiles>
CNC(C)C(=O)NC(C(=O)N1Cc2cc([101O:1][101CH:1]3CN(Cc4ccc([100N:0](C)[100C:0](=O)N5CCCC(n6nc(-c7ccc(Oc8ccc(F)cc8F)cc7)c(C(N)=O)c6N)C5)cc4)C3=O)ccc2CC1C(=O)NC1CCCc2ccccc21)C(C)(C)C

> <Shape>
0.216

> <Color>
0.053

> <Negative vol penalty>
0.000

$$$$

  -OEChem-04042320433D

 83 91  0     1  0  0  0  0  0999 V2000
  -23.3724  -24.6042   21.1610 C   0  0  0  0  0  0  0  0  0  0  0  0
  -23.6719  -23.5458   20.3093 C   0  0  0  0  0  0  0  0  0  0  0  0
  -26.2523  -28.0035   18.8961 C   0  0  0  0  0  0  0  0  0  0  0  0
  -26.2539  -27.4455   21.2468 C   0  0  0  0  0  0  0  0  0  0  0  0
  -23.5255  -24.4537   22.5387 C   0  0  0  0  0  0  0  0  0  0  0  0
  -24.1258  -22.3365   20.8347 C   0  0  0  0  0  0  0  0  0  0  0  0
  -23.8673  -15.2794   19.6317 C   0  0  0  0  0  0  0  0  0  0  0  0
  -30.0218  -15.4227   19.1876 C   0  0  0  0  0  0  0  0  0  0  0  0
  -29.5304  -14.1238   19.3182 C   0  0  0  0  0  0  0  0  0  0  0  0
  -25.2518  -28.9490   19.1212 C   0  0  0  0  0  0  0  0  0  0  0  0
  -25.2534  -28.3910   21.4719 C   0  0  0  0  0  0  0  0  0  0  0  0
  -24.7116  -14.1782   19.4968 C   0  0  0  0  0  0  0  0  0  0  0  0
  -21.9042  -28.6184   21.0686 C   0  0  0  0  0  0  0  0  0  0  0  0
  -20.8306  -28.2458   21.8772 C   0  0  0  0  0  0  0  0  0  0  0  0
  -24.8623  -14.0072   21.8983 C   0  0  0  0  0  0  0  0  0  0  0  0
  -30.1687  -15.6089   21.5919 C   0  0  0  0  0  0  0  0  0  0  0  0
  -21.3704  -30.0288   23.4156 C   0  0  0  0  0  0  0  0  0  0  0  0
  -26.7533  -27.2517   19.9589 C   0  0  0  0  0  0  0  0  0  0  0  0
  -29.1782  -26.4810   19.7752 C   0  0  0  0  0  0  0  0  0  0  0  0
  -23.9723  -23.2388   23.0819 C   0  0  0  0  0  0  0  0  0  0  0  0
  -23.5223  -15.7603   20.9030 C   0  0  0  0  0  0  0  0  0  0  0  0
  -24.2863  -22.1700   22.2207 C   0  0  0  0  0  0  0  0  0  0  0  0
  -24.0114  -15.1131   22.0466 C   0  0  0  0  0  0  0  0  0  0  0  0
  -30.3410  -16.1653   20.3245 C   0  0  0  0  0  0  0  0  0  0  0  0
  -29.3581  -13.5675   20.5857 C   0  0  0  0  0  0  0  0  0  0  0  0
  -24.7523  -29.1427   20.4091 C   0  0  0  0  0  0  0  0  0  0  0  0
  -25.2116  -13.5436   20.6301 C   0  0  0  0  0  0  0  0  0  0  0  0
  -22.7111  -29.6962   21.4334 C   0  0  0  0  0  0  0  0  0  0  0  0
  -20.5636  -28.9510   23.0507 C   0  0  0  0  0  0  0  0  0  0  0  0
  -29.6773  -14.3101   21.7226 C   0  0  0  0  0  0  0  0  0  0  0  0
  -22.4441  -30.4014   22.6069 C   0  0  0  0  0  0  0  0  0  0  0  0
  -27.7864  -26.2745   19.7270 C   0  0  0  0  0  0  0  0  0  0  0  0
  -29.7179  -25.2520   19.4840 C   0  0  0  0  0  0  0  0  0  0  0  0
  -29.9170  -27.6767   20.0581 C   0  0  0  0  0  0  0  0  0  0  0  0
  -23.9562  -18.4976   22.4596 C   0  0  0  0  0  0  0  0  0  0  0  0
  -22.0603  -17.0844   24.6801 C   0  0  0  0  0  0  0  0  0  0  0  0
  -20.8449  -14.1993   26.0386 C   0  0  0  0  0  0  0  0  0  0  0  0
  -29.8877  -19.8335   20.2310 C   0  0  0  0  0  0  0  0  0  0  0  0
  -24.1674  -23.1389   24.5740 C   0  0  0  0  0  0  0  0  0  0  0  0
  -22.5891  -16.9329   21.0317 C   0  0  0  0  0  0  0  0  0  0  0  0
  -23.6550  -15.5777   23.4343 C   0  0  0  0  0  0  0  0  0  0  0  0
  -24.2960  -21.7033   25.0768 C   0  0  0  0  0  0  0  0  0  0  0  0
  -27.5449  -21.0278   17.7446 C   0  0  0  0  0  0  0  0  0  0  0  0
  -25.2636  -20.9152   24.1996 C   0  0  0  0  0  0  0  0  0  0  0  0
  -27.5168  -22.5269   18.0484 C   0  0  0  0  0  0  0  0  0  0  0  0
  -27.6513  -20.2061   19.0259 C   0  0  0  0  0  0  0  0  0  0  0  0
  -28.7889  -22.0547   20.1929 C   0  0  0  0  0  0  0  0  0  0  0  0
  -24.7576  -20.8346   22.7543 C   0  0  1  0  0  0  0  0  0  0  0  0
  -22.7163  -17.6536   22.3703 C   0  0  1  0  0  0  0  0  0  0  0  0
  -28.7049  -22.9409   18.9368 C   0  0  2  0  0  0  0  0  0  0  0  0
  -19.3438  -13.3626   27.8673 C   0  0  0  0  0  0  0  0  0  0  0  0
  -24.2341  -17.6840   26.7356 C   0  0  0  0  0  0  0  0  0  0  0  0
  -23.1426  -16.0327   28.2686 C   0  0  0  0  0  0  0  0  0  0  0  0
  -21.8991  -18.0702   27.5438 C   0  0  0  0  0  0  0  0  0  0  0  0
  -29.0816  -11.5146   21.9529 C   0  0  0  0  0  0  0  0  0  0  0  0
  -19.0223  -12.8962   24.1049 C   0  0  0  0  0  0  0  0  0  0  0  0
  -30.8665  -17.5539   20.1848 C   0  0  0  0  0  0  0  0  0  0  0  0
  -28.1235  -11.6298   19.6470 C   0  0  0  0  0  0  0  0  0  0  0  0
  -26.8628  -12.4201   19.3390 C   0  0  0  0  0  0  0  0  0  1  0  0
  -22.2968  -16.2049   25.8841 C   0  0  1  0  0  0  0  0  0  0  0  0
  -19.4345  -13.7751   26.4064 C   0  0  2  0  0  0  0  0  0  0  0  0
  -22.9016  -16.9901   27.0820 C   0  0  0  0  0  0  0  0  0  0  0  0
  -27.4623  -25.0137   19.4284 N   0  0  0  0  0  0  0  0  0  0  0  0
  -28.6579  -24.4168   19.2864 N   0  0  0  0  0  0  0  0  0  0  0  0
  -22.7442  -16.7321   23.5080 N   0  0  0  0  0  0  0  0  0  0  0  0
  -28.8127  -20.6373   19.8166 N   0  0  0  0  0  0  0  0  0  0  0  0
  -30.9910  -24.8152   19.3802 N   0  0  0  0  0  0  0  0  0  0  0  0
  -29.2054  -28.8516   20.3367 N   0  0  0  0  0  0  0  0  0  0  0  0
  -23.7079  -19.8448   22.6408 N   0  0  0  0  0  0  0  0  0  0  0  0
  -21.0210  -15.5600   26.1754 N   0  0  0  0  0  0  0  0  0  0  0  0
  -29.8306  -18.5017   19.8391 N   0  0  0  0  0  0  0  0  0  0  0  0
  -28.8642  -12.2625   20.7142 N   0  0  3  0  0  0  0  0  0  0  0  0
  -19.0042  -12.6227   25.5650 N   0  3  0  0  0  0  0  0  0  0  0  0
  -31.1710  -27.7064   20.0475 O   0  0  0  0  0  0  0  0  0  0  0  0
  -25.0567  -17.9657   22.3720 O   0  0  0  0  0  0  0  0  0  0  0  0
  -21.2913  -18.0444   24.7742 O   0  0  0  0  0  0  0  0  0  0  0  0
  -21.7055  -13.4027   25.6707 O   0  0  0  0  0  0  0  0  0  0  0  0
  -30.8319  -20.2717   20.8970 O   0  0  0  0  0  0  0  0  0  0  0  0
  -23.7762  -30.0654   20.6291 O   0  0  0  0  0  0  0  0  0  0  0  0
  -26.0364  -12.4689   20.5013 O   0  0  0  0  0  0  0  0  0  1  0  0
  -19.5316  -28.5940   23.8264 F   0  0  0  0  0  0  0  0  0  0  0  0
  -29.5157  -13.7851   22.9456 F   0  0  0  0  0  0  0  0  0  0  0  0
  -23.2149  -31.4385   22.9620 F   0  0  0  0  0  0  0  0  0  0  0  0
  1  2  1  0  0  0  0
  1  5  2  0  0  0  0
  2  6  2  0  0  0  0
  3 10  2  0  0  0  0
  3 18  1  0  0  0  0
  4 11  1  0  0  0  0
  4 18  2  0  0  0  0
  5 20  1  0  0  0  0
  6 22  1  0  0  0  0
  7 12  2  0  0  0  0
  7 21  1  0  0  0  0
  8  9  2  0  0  0  0
  8 24  1  0  0  0  0
  9 25  1  0  0  0  0
 10 26  1  0  0  0  0
 11 26  2  0  0  0  0
 12 27  1  0  0  0  0
 13 14  2  0  0  0  0
 13 28  1  0  0  0  0
 14 29  1  0  0  0  0
 15 23  1  0  0  0  0
 15 27  2  0  0  0  0
 16 24  2  0  0  0  0
 16 30  1  0  0  0  0
 17 29  2  0  0  0  0
 17 31  1  0  0  0  0
 18 32  1  0  0  0  0
 19 32  1  0  0  0  0
 19 33  2  0  0  0  0
 19 34  1  0  0  0  0
 20 22  2  0  0  0  0
 20 39  1  0  0  0  0
 21 23  2  0  0  0  0
 21 40  1  0  0  0  0
 22 48  1  0  0  0  0
 23 41  1  0  0  0  0
 24 57  1  0  0  0  0
 25 30  2  0  0  0  0
 25 72  1  0  0  0  0
 26 79  1  0  0  0  0
 27 80  1  0  0  0  0
 28 31  2  0  0  0  0
 28 79  1  0  0  0  0
 29 81  1  0  0  0  0
 30 82  1  0  0  0  0
 31 83  1  0  0  0  0
 32 63  2  0  0  0  0
 33 64  1  0  0  0  0
 33 67  1  0  0  0  0
 34 68  1  0  0  0  0
 34 74  2  0  0  0  0
 35 49  1  0  0  0  0
 35 69  1  0  0  0  0
 35 75  2  0  0  0  0
 36 60  1  0  0  0  0
 36 65  1  0  0  0  0
 36 76  2  0  0  0  0
 37 61  1  0  0  0  0
 37 70  1  0  0  0  0
 37 77  2  0  0  0  0
 38 66  1  0  0  0  0
 38 71  1  0  0  0  0
 38 78  2  0  0  0  0
 39 42  1  0  0  0  0
 40 49  1  0  0  0  0
 41 65  1  0  0  0  0
 42 44  1  0  0  0  0
 43 45  1  0  0  0  0
 43 46  1  0  0  0  0
 44 48  1  0  0  0  0
 45 50  1  0  0  0  0
 46 66  1  0  0  0  0
 47 50  1  0  0  0  0
 47 66  1  0  0  0  0
 48 69  1  0  0  0  0
 49 65  1  0  0  0  0
 50 64  1  0  0  0  0
 51 61  1  0  0  0  0
 52 62  1  0  0  0  0
 53 62  1  0  0  0  0
 54 62  1  0  0  0  0
 55 72  1  0  0  0  0
 56 73  1  0  0  0  0
 57 71  1  0  0  0  0
 58 59  1  0  0  0  0
 58 72  1  0  0  0  0
 59 80  1  0  0  0  0
 60 62  1  0  0  0  0
 60 70  1  0  0  0  0
 61 73  1  0  0  0  0
 63 64  1  0  0  0  0
M  CHG  1  73   1
M  ISO  4  38 100  59 101  71 100  80 101
M  END
> <Batch ID>
0011

> <Smiles>
CNC(C)C(=O)NC(C(=O)N1Cc2cc([101O:1][101CH2:1]CN(C)c3ccc(C[100NH:0][100C:0](=O)N4CCCC(n5nc(-c6ccc(Oc7ccc(F)cc7F)cc6)c(C(N)=O)c5N)C4)cc3F)ccc2CC1C(=O)NC1CCCc2ccccc21)C(C)(C)C

> <Shape>
0.230

> <Color>
0.044

> <Negative vol penalty>
0.000

$$$$

  -OEChem-04042320433D

 83 92  0     1  0  0  0  0  0999 V2000
  -26.5745  -34.0133   26.8363 C   0  0  0  0  0  0  0  0  0  0  0  0
  -27.1208  -32.9181   26.1749 C   0  0  0  0  0  0  0  0  0  0  0  0
  -23.6398   -9.7307   20.0191 C   0  0  0  0  0  0  0  0  0  0  0  0
  -24.2297  -10.0211   22.3439 C   0  0  0  0  0  0  0  0  0  0  0  0
  -25.1910  -34.1308   26.9628 C   0  0  0  0  0  0  0  0  0  0  0  0
  -26.2839  -31.9391   25.6406 C   0  0  0  0  0  0  0  0  0  0  0  0
  -27.1941  -28.7156   20.5135 C   0  0  0  0  0  0  0  0  0  0  0  0
  -29.7335  -20.4977   20.5054 C   0  0  0  0  0  0  0  0  0  0  0  0
  -27.9863  -20.4327   22.1727 C   0  0  0  0  0  0  0  0  0  0  0  0
  -29.8571  -19.1104   20.5807 C   0  0  0  0  0  0  0  0  0  0  0  0
  -28.1098  -19.0453   22.2480 C   0  0  0  0  0  0  0  0  0  0  0  0
  -23.1361   -8.4619   20.3054 C   0  0  0  0  0  0  0  0  0  0  0  0
  -23.7260   -8.7523   22.6302 C   0  0  0  0  0  0  0  0  0  0  0  0
  -27.6932  -27.4336   20.2878 C   0  0  0  0  0  0  0  0  0  0  0  0
  -20.7006   -7.3259   23.1129 C   0  0  0  0  0  0  0  0  0  0  0  0
  -19.8932   -7.1905   24.2422 C   0  0  0  0  0  0  0  0  0  0  0  0
  -25.4397  -26.5763   20.2104 C   0  0  0  0  0  0  0  0  0  0  0  0
  -21.4579   -5.6006   25.1702 C   0  0  0  0  0  0  0  0  0  0  0  0
  -24.1867  -10.5103   21.0384 C   0  0  0  0  0  0  0  0  0  0  0  0
  -24.0053  -13.0406   20.7693 C   0  0  0  0  0  0  0  0  0  0  0  0
  -24.3363  -33.1577   26.4213 C   0  0  0  0  0  0  0  0  0  0  0  0
  -25.8119  -28.9362   20.6004 C   0  0  0  0  0  0  0  0  0  0  0  0
  -24.8877  -32.0430   25.7611 C   0  0  0  0  0  0  0  0  0  0  0  0
  -24.9255  -27.8625   20.4347 C   0  0  0  0  0  0  0  0  0  0  0  0
  -28.7981  -21.1589   21.3014 C   0  0  0  0  0  0  0  0  0  0  0  0
  -29.0453  -18.3842   21.4520 C   0  0  0  0  0  0  0  0  0  0  0  0
  -23.1791   -7.9727   21.6109 C   0  0  0  0  0  0  0  0  0  0  0  0
  -26.8162  -26.3632   20.1390 C   0  0  0  0  0  0  0  0  0  0  0  0
  -21.8866   -6.5986   23.0122 C   0  0  0  0  0  0  0  0  0  0  0  0
  -20.2718   -6.3279   25.2709 C   0  0  0  0  0  0  0  0  0  0  0  0
  -22.2653   -5.7360   24.0408 C   0  0  0  0  0  0  0  0  0  0  0  0
  -24.7077  -11.8209   20.7432 C   0  0  0  0  0  0  0  0  0  0  0  0
  -24.9400  -13.9827   20.4153 C   0  0  0  0  0  0  0  0  0  0  0  0
  -28.9190  -23.3813   20.0950 C   0  0  0  0  0  0  0  0  0  0  0  0
  -22.6309  -13.2990   21.0853 C   0  0  0  0  0  0  0  0  0  0  0  0
  -23.8484  -30.0029   22.8610 C   0  0  0  0  0  0  0  0  0  0  0  0
  -21.6478  -29.8331   20.4838 C   0  0  0  0  0  0  0  0  0  0  0  0
  -20.6912  -28.4484   17.5149 C   0  0  0  0  0  0  0  0  0  0  0  0
  -30.0477  -16.1643   20.8089 C   0  0  0  0  0  0  0  0  0  0  0  0
  -22.8490  -33.3038   26.6244 C   0  0  0  0  0  0  0  0  0  0  0  0
  -25.2886  -30.3295   20.8177 C   0  0  0  0  0  0  0  0  0  0  0  0
  -23.4324  -28.0497   20.4992 C   0  0  0  0  0  0  0  0  0  0  0  0
  -22.0182  -32.4140   25.7033 C   0  0  0  0  0  0  0  0  0  0  0  0
  -29.6150  -13.4460   18.5504 C   0  0  0  0  0  0  0  0  0  0  0  0
  -22.5766  -30.9946   25.6861 C   0  0  0  0  0  0  0  0  0  0  0  0
  -28.2420  -12.8812   18.9217 C   0  0  0  0  0  0  0  0  0  0  0  0
  -28.5390  -24.7979   21.9868 C   0  0  0  0  0  0  0  0  0  0  0  0
  -30.3821  -13.9268   19.7809 C   0  0  0  0  0  0  0  0  0  0  0  0
  -28.1716  -23.3672   22.3348 C   0  0  0  0  0  0  0  0  0  0  0  0
  -28.2801  -14.3065   21.0083 C   0  0  0  0  0  0  0  0  0  0  0  0
  -24.0118  -30.9729   25.1464 C   0  0  1  0  0  0  0  0  0  0  0  0
  -28.5665  -24.8051   20.4688 C   0  0  2  0  0  0  0  0  0  1  0  0
  -23.8789  -30.3542   21.4004 C   0  0  1  0  0  0  0  0  0  0  0  0
  -27.4436  -13.8690   19.7949 C   0  0  2  0  0  0  0  0  0  0  0  0
  -18.8252  -28.4795   15.8373 C   0  0  0  0  0  0  0  0  0  0  0  0
  -19.9382  -28.1371   22.3576 C   0  0  0  0  0  0  0  0  0  0  0  0
  -18.5917  -27.4244   20.3709 C   0  0  0  0  0  0  0  0  0  0  0  0
  -18.6643  -29.8296   21.0284 C   0  0  0  0  0  0  0  0  0  0  0  0
  -22.4855  -29.4034   15.3638 C   0  0  0  0  0  0  0  0  0  0  0  0
  -20.7039  -28.7706   19.9746 C   0  0  1  0  0  0  0  0  0  0  0  0
  -20.1678  -29.0733   16.2342 C   0  0  2  0  0  0  0  0  0  0  0  0
  -19.5027  -28.5363   20.9335 C   0  0  0  0  0  0  0  0  0  0  0  0
  -25.9896  -11.9713   20.3996 N   0  0  0  0  0  0  0  0  0  0  0  0
  -26.1001  -13.2967   20.2065 N   0  0  0  0  0  0  0  0  0  0  0  0
  -28.6718  -22.5785   21.2247 N   0  0  0  0  0  0  0  0  0  0  0  0
  -22.9698  -29.4298   20.7198 N   0  0  0  0  0  0  0  0  0  0  0  0
  -29.5655  -14.8624   20.5572 N   0  0  0  0  0  0  0  0  0  0  0  0
  -24.8744  -15.3227   20.2653 N   0  0  0  0  0  0  0  0  0  0  0  0
  -21.8093  -12.2165   21.4282 N   0  0  0  0  0  0  0  0  0  0  0  0
  -29.1706  -16.9749   21.5287 N   0  0  0  0  0  0  0  0  0  0  0  0
  -24.0110  -31.0859   23.7036 N   0  0  0  0  0  0  0  0  0  0  0  0
  -20.3219  -29.1762   18.6263 N   0  0  0  0  0  0  0  0  0  0  0  0
  -21.1293  -28.8492   15.1179 N   0  3  0  0  0  0  0  0  0  0  0  0
  -29.2825  -23.0669   18.9707 O   0  0  0  0  0  0  0  0  0  0  0  0
  -22.1417  -14.4535   21.0483 O   0  0  0  0  0  0  0  0  0  0  0  0
  -23.6876  -28.8359   23.1985 O   0  0  0  0  0  0  0  0  0  0  0  0
  -21.2295  -30.9802   20.6586 O   0  0  0  0  0  0  0  0  0  0  0  0
  -21.3576  -27.4159   17.5283 O   0  0  0  0  0  0  0  0  0  0  0  0
  -31.1456  -16.5417   20.3914 O   0  0  0  0  0  0  0  0  0  0  0  0
  -22.6875   -6.7347   21.8907 O   0  0  0  0  0  0  0  0  0  0  0  0
  -27.3008  -25.1107   19.9193 O   0  0  0  0  0  0  0  0  0  1  0  0
  -19.4972   -6.1991   26.3560 F   0  0  0  0  0  0  0  0  0  0  0  0
  -23.4041   -5.0356   23.9503 F   0  0  0  0  0  0  0  0  0  0  0  0
  1  2  1  0  0  0  0
  1  5  2  0  0  0  0
  2  6  2  0  0  0  0
  3 12  2  0  0  0  0
  3 19  1  0  0  0  0
  4 13  1  0  0  0  0
  4 19  2  0  0  0  0
  5 21  1  0  0  0  0
  6 23  1  0  0  0  0
  7 14  2  0  0  0  0
  7 22  1  0  0  0  0
  8 10  2  0  0  0  0
  8 25  1  0  0  0  0
  9 11  1  0  0  0  0
  9 25  2  0  0  0  0
 10 26  1  0  0  0  0
 11 26  2  0  0  0  0
 12 27  1  0  0  0  0
 13 27  2  0  0  0  0
 14 28  1  0  0  0  0
 15 16  2  0  0  0  0
 15 29  1  0  0  0  0
 16 30  1  0  0  0  0
 17 24  1  0  0  0  0
 17 28  2  0  0  0  0
 18 30  2  0  0  0  0
 18 31  1  0  0  0  0
 19 32  1  0  0  0  0
 20 32  1  0  0  0  0
 20 33  2  0  0  0  0
 20 35  1  0  0  0  0
 21 23  2  0  0  0  0
 21 40  1  0  0  0  0
 22 24  2  0  0  0  0
 22 41  1  0  0  0  0
 23 51  1  0  0  0  0
 24 42  1  0  0  0  0
 25 65  1  0  0  0  0
 26 70  1  0  0  0  0
 27 80  1  0  0  0  0
 28 81  1  0  0  0  0
 29 31  2  0  0  0  0
 29 80  1  0  0  0  0
 30 82  1  0  0  0  0
 31 83  1  0  0  0  0
 32 63  2  0  0  0  0
 33 64  1  0  0  0  0
 33 68  1  0  0  0  0
 34 52  1  0  0  0  0
 34 65  1  0  0  0  0
 34 74  2  0  0  0  0
 35 69  1  0  0  0  0
 35 75  2  0  0  0  0
 36 53  1  0  0  0  0
 36 71  1  0  0  0  0
 36 76  2  0  0  0  0
 37 60  1  0  0  0  0
 37 66  1  0  0  0  0
 37 77  2  0  0  0  0
 38 61  1  0  0  0  0
 38 72  1  0  0  0  0
 38 78  2  0  0  0  0
 39 67  1  0  0  0  0
 39 70  1  0  0  0  0
 39 79  2  0  0  0  0
 40 43  1  0  0  0  0
 41 53  1  0  0  0  0
 42 66  1  0  0  0  0
 43 45  1  0  0  0  0
 44 46  1  0  0  0  0
 44 48  1  0  0  0  0
 45 51  1  0  0  0  0
 46 54  1  0  0  0  0
 47 49  1  0  0  0  0
 47 52  1  0  0  0  0
 48 67  1  0  0  0  0
 49 65  1  0  0  0  0
 50 54  1  0  0  0  0
 50 67  1  0  0  0  0
 51 71  1  0  0  0  0
 52 81  1  0  0  0  0
 53 66  1  0  0  0  0
 54 64  1  0  0  0  0
 55 61  1  0  0  0  0
 56 62  1  0  0  0  0
 57 62  1  0  0  0  0
 58 62  1  0  0  0  0
 59 73  1  0  0  0  0
 60 62  1  0  0  0  0
 60 72  1  0  0  0  0
 61 73  1  0  0  0  0
 63 64  1  0  0  0  0
M  CHG  1  73   1
M  ISO  4  39 100  52 101  70 100  81 101
M  END
> <Batch ID>
0011

> <Smiles>
CNC(C)C(=O)NC(C(=O)N1Cc2cc([101O:1][101CH:1]3CCN(c4ccc([100NH:0][100C:0](=O)N5CCCC(n6nc(-c7ccc(Oc8ccc(F)cc8F)cc7)c(C(N)=O)c6N)C5)cc4)C3=O)ccc2CC1C(=O)NC1CCCc2ccccc21)C(C)(C)C

> <Shape>
0.351

> <Color>
0.189

> <Negative vol penalty>
0.000

$$$$

  -OEChem-04042320433D

 85 94  0     1  0  0  0  0  0999 V2000
  -27.2557  -23.3993   14.8704 C   0  0  0  0  0  0  0  0  0  0  0  0
  -26.2690  -23.6493   15.8187 C   0  0  0  0  0  0  0  0  0  0  0  0
  -28.0569  -14.8761   21.2728 C   0  0  0  0  0  0  0  0  0  0  0  0
  -26.1040  -15.6203   20.0605 C   0  0  0  0  0  0  0  0  0  0  0  0
  -28.5990  -23.5725   15.2016 C   0  0  0  0  0  0  0  0  0  0  0  0
  -26.6250  -24.0715   17.0991 C   0  0  0  0  0  0  0  0  0  0  0  0
  -23.7542  -27.9029   18.7496 C   0  0  0  0  0  0  0  0  0  0  0  0
  -21.3461  -23.9448   23.9984 C   0  0  0  0  0  0  0  0  0  0  0  0
  -22.6699  -23.5068   24.0348 C   0  0  0  0  0  0  0  0  0  0  0  0
  -27.5951  -13.5615   21.2097 C   0  0  0  0  0  0  0  0  0  0  0  0
  -25.6422  -14.3056   19.9973 C   0  0  0  0  0  0  0  0  0  0  0  0
  -22.4787  -27.5879   19.2160 C   0  0  0  0  0  0  0  0  0  0  0  0
  -27.5000  -11.0612   18.9353 C   0  0  0  0  0  0  0  0  0  0  0  0
  -28.4160  -10.0684   18.5878 C   0  0  0  0  0  0  0  0  0  0  0  0
  -23.2869  -27.7026   21.4860 C   0  0  0  0  0  0  0  0  0  0  0  0
  -22.4619  -22.6902   21.7705 C   0  0  0  0  0  0  0  0  0  0  0  0
  -28.0256   -8.9678   20.7028 C   0  0  0  0  0  0  0  0  0  0  0  0
  -27.3113  -15.9056   20.6982 C   0  0  0  0  0  0  0  0  0  0  0  0
  -28.6151  -17.9203   19.8330 C   0  0  0  0  0  0  0  0  0  0  0  0
  -28.9712  -24.0063   16.4837 C   0  0  0  0  0  0  0  0  0  0  0  0
  -24.8100  -28.1098   19.6491 C   0  0  0  0  0  0  0  0  0  0  0  0
  -27.9745  -24.2493   17.4481 C   0  0  0  0  0  0  0  0  0  0  0  0
  -24.5743  -28.0226   21.0286 C   0  0  0  0  0  0  0  0  0  0  0  0
  -20.5802  -23.7555   22.8481 C   0  0  0  0  0  0  0  0  0  0  0  0
  -21.1381  -23.1282   21.7341 C   0  0  0  0  0  0  0  0  0  0  0  0
  -23.2278  -22.8796   22.9209 C   0  0  0  0  0  0  0  0  0  0  0  0
  -26.3878  -13.2762   20.5719 C   0  0  0  0  0  0  0  0  0  0  0  0
  -22.2455  -27.4848   20.5842 C   0  0  0  0  0  0  0  0  0  0  0  0
  -26.8468  -11.0074   20.1667 C   0  0  0  0  0  0  0  0  0  0  0  0
  -28.6788   -9.0217   19.4714 C   0  0  0  0  0  0  0  0  0  0  0  0
  -27.1096   -9.9606   21.0503 C   0  0  0  0  0  0  0  0  0  0  0  0
  -27.7875  -17.2639   20.7636 C   0  0  0  0  0  0  0  0  0  0  0  0
  -28.7759  -19.1835   20.3476 C   0  0  0  0  0  0  0  0  0  0  0  0
  -29.1872  -17.4319   18.6124 C   0  0  0  0  0  0  0  0  0  0  0  0
  -27.6012  -26.6908   20.1963 C   0  0  0  0  0  0  0  0  0  0  0  0
  -28.0127  -29.1639   22.2547 C   0  0  0  0  0  0  0  0  0  0  0  0
  -26.5916  -31.5706   24.2130 C   0  0  0  0  0  0  0  0  0  0  0  0
  -25.4713  -22.5476   24.0175 C   0  0  0  0  0  0  0  0  0  0  0  0
  -30.4382  -24.1336   16.8096 C   0  0  0  0  0  0  0  0  0  0  0  0
  -26.1740  -28.4752   19.1309 C   0  0  0  0  0  0  0  0  0  0  0  0
  -25.6691  -28.2554   22.0364 C   0  0  0  0  0  0  0  0  0  0  0  0
  -30.7133  -24.9441   18.0737 C   0  0  0  0  0  0  0  0  0  0  0  0
  -28.8532  -21.5492   24.5108 C   0  0  0  0  0  0  0  0  0  0  0  0
  -17.1078  -27.0082   22.1485 C   0  0  0  0  0  0  0  0  0  0  0  0
  -29.7909  -24.4993   19.2042 C   0  0  0  0  0  0  0  0  0  0  0  0
  -29.0408  -20.4007   23.5168 C   0  0  0  0  0  0  0  0  0  0  0  0
  -18.3991  -27.7948   22.2553 C   0  0  0  0  0  0  0  0  0  0  0  0
  -27.4553  -21.5434   25.1269 C   0  0  0  0  0  0  0  0  0  0  0  0
  -26.5383  -20.3678   23.1657 C   0  0  0  0  0  0  0  0  0  0  0  0
  -17.5423  -25.6861   21.5458 C   0  0  0  0  0  0  0  0  0  0  0  0
  -28.3197  -24.7325   18.8401 C   0  0  1  0  0  0  0  0  0  0  0  0
  -27.2928  -28.1593   20.1188 C   0  0  1  0  0  0  0  0  0  0  0  0
  -27.9096  -20.3706   22.4705 C   0  0  2  0  0  0  0  0  0  0  0  0
  -19.3854  -26.7530   22.7621 C   0  0  2  0  0  0  0  0  0  0  0  0
  -20.3378  -22.9166   20.4910 C   0  0  0  0  0  0  0  0  0  0  0  0
  -27.1832  -33.4162   25.8071 C   0  0  0  0  0  0  0  0  0  0  0  0
  -28.6105  -27.0988   24.4199 C   0  0  0  0  0  0  0  0  0  0  0  0
  -28.2523  -28.8913   26.1306 C   0  0  0  0  0  0  0  0  0  0  0  0
  -30.0927  -29.1127   24.4613 C   0  0  0  0  0  0  0  0  0  0  0  0
  -25.3320  -33.6203   22.4893 C   0  0  0  0  0  0  0  0  0  0  0  0
  -19.1584  -24.2344   22.8330 C   0  0  0  0  0  0  0  0  0  0  0  0
  -20.8338  -27.0874   22.4564 C   0  0  0  0  0  0  0  0  0  1  0  0
  -27.6965  -29.4070   23.7107 C   0  0  1  0  0  0  0  0  0  0  0  0
  -26.8858  -33.0525   24.3607 C   0  0  2  0  0  0  0  0  0  0  0  0
  -28.6426  -28.6211   24.6618 C   0  0  0  0  0  0  0  0  0  0  0  0
  -27.4465  -18.0455   21.7916 N   0  0  0  0  0  0  0  0  0  0  0  0
  -28.0629  -19.2060   21.5101 N   0  0  0  0  0  0  0  0  0  0  0  0
  -26.9870  -28.6039   21.4801 N   0  0  0  0  0  0  0  0  0  0  0  0
  -26.4354  -21.5190   24.0762 N   0  0  0  0  0  0  0  0  0  0  0  0
  -29.4563  -20.2662   19.9147 N   0  0  0  0  0  0  0  0  0  0  0  0
  -28.9206  -16.1096   18.2317 N   0  0  0  0  0  0  0  0  0  0  0  0
  -24.5732  -22.4362   22.9567 N   0  0  0  0  0  0  0  0  0  0  0  0
  -27.9773  -26.1305   18.9905 N   0  0  0  0  0  0  0  0  0  0  0  0
  -27.7266  -30.8534   23.8990 N   0  0  0  0  0  0  0  0  0  0  0  0
  -18.9686  -25.4848   22.0296 N   0  3  1  0  0  0  0  0  0  0  0  0
  -25.7199  -33.8602   23.9032 N   0  3  0  0  0  0  0  0  0  0  0  0
  -29.9267  -18.1417   17.8894 O   0  0  0  0  0  0  0  0  0  0  0  0
  -27.5065  -26.1095   21.2709 O   0  0  0  0  0  0  0  0  0  0  0  0
  -29.1264  -29.4666   21.8190 O   0  0  0  0  0  0  0  0  0  0  0  0
  -25.4680  -31.0962   24.3649 O   0  0  0  0  0  0  0  0  0  0  0  0
  -25.4614  -23.4748   24.8313 O   0  0  0  0  0  0  0  0  0  0  0  0
  -25.9370  -11.9934   20.5099 O   0  0  0  0  0  0  0  0  0  0  0  0
  -21.0016  -27.1768   21.0421 O   0  0  0  0  0  0  0  0  0  1  0  0
  -29.5573   -8.0675   19.1369 F   0  0  0  0  0  0  0  0  0  0  0  0
  -26.4843   -9.9029   22.2342 F   0  0  0  0  0  0  0  0  0  0  0  0
  1  2  1  0  0  0  0
  1  5  2  0  0  0  0
  2  6  2  0  0  0  0
  3 10  2  0  0  0  0
  3 18  1  0  0  0  0
  4 11  1  0  0  0  0
  4 18  2  0  0  0  0
  5 20  1  0  0  0  0
  6 22  1  0  0  0  0
  7 12  2  0  0  0  0
  7 21  1  0  0  0  0
  8  9  2  0  0  0  0
  8 24  1  0  0  0  0
  9 26  1  0  0  0  0
 10 27  1  0  0  0  0
 11 27  2  0  0  0  0
 12 28  1  0  0  0  0
 13 14  2  0  0  0  0
 13 29  1  0  0  0  0
 14 30  1  0  0  0  0
 15 23  1  0  0  0  0
 15 28  2  0  0  0  0
 16 25  1  0  0  0  0
 16 26  2  0  0  0  0
 17 30  2  0  0  0  0
 17 31  1  0  0  0  0
 18 32  1  0  0  0  0
 19 32  1  0  0  0  0
 19 33  2  0  0  0  0
 19 34  1  0  0  0  0
 20 22  2  0  0  0  0
 20 39  1  0  0  0  0
 21 23  2  0  0  0  0
 21 40  1  0  0  0  0
 22 51  1  0  0  0  0
 23 41  1  0  0  0  0
 24 25  2  0  0  0  0
 24 61  1  0  0  0  0
 25 55  1  0  0  0  0
 26 72  1  0  0  0  0
 27 82  1  0  0  0  0
 28 83  1  0  0  0  0
 29 31  2  0  0  0  0
 29 82  1  0  0  0  0
 30 84  1  0  0  0  0
 31 85  1  0  0  0  0
 32 66  2  0  0  0  0
 33 67  1  0  0  0  0
 33 70  1  0  0  0  0
 34 71  1  0  0  0  0
 34 77  2  0  0  0  0
 35 52  1  0  0  0  0
 35 73  1  0  0  0  0
 35 78  2  0  0  0  0
 36 63  1  0  0  0  0
 36 68  1  0  0  0  0
 36 79  2  0  0  0  0
 37 64  1  0  0  0  0
 37 74  1  0  0  0  0
 37 80  2  0  0  0  0
 38 69  1  0  0  0  0
 38 72  1  0  0  0  0
 38 81  2  0  0  0  0
 39 42  1  0  0  0  0
 40 52  1  0  0  0  0
 41 68  1  0  0  0  0
 42 45  1  0  0  0  0
 43 46  1  0  0  0  0
 43 48  1  0  0  0  0
 44 47  1  0  0  0  0
 44 50  1  0  0  0  0
 45 51  1  0  0  0  0
 46 53  1  0  0  0  0
 47 54  1  0  0  0  0
 48 69  1  0  0  0  0
 49 53  1  0  0  0  0
 49 69  1  0  0  0  0
 50 75  1  0  0  0  0
 51 73  1  0  0  0  0
 52 68  1  0  0  0  0
 53 67  1  0  0  0  0
 54 62  1  0  0  0  0
 54 75  1  0  0  0  0
 56 64  1  0  0  0  0
 57 65  1  0  0  0  0
 58 65  1  0  0  0  0
 59 65  1  0  0  0  0
 60 76  1  0  0  0  0
 61 75  1  0  0  0  0
 62 83  1  0  0  0  0
 63 65  1  0  0  0  0
 63 74  1  0  0  0  0
 64 76  1  0  0  0  0
 66 67  1  0  0  0  0
M  CHG  2  75   1  76   1
M  ISO  4  38 100  62 101  72 100  83 101
M  END
> <Batch ID>
0011

> <Smiles>
CNC(C)C(=O)NC(C(=O)N1Cc2cc([101O:1][101CH2:1]C3CCCN3Cc3ccc([100NH:0][100C:0](=O)N4CCCC(n5nc(-c6ccc(Oc7ccc(F)cc7F)cc6)c(C(N)=O)c5N)C4)cc3C)ccc2CC1C(=O)NC1CCCc2ccccc21)C(C)(C)C

> <Shape>
0.240

> <Color>
0.070

> <Negative vol penalty>
0.000

$$$$

  -OEChem-04042320433D

 82 90  0     1  0  0  0  0  0999 V2000
  -24.6122  -34.0114   28.0639 C   0  0  0  0  0  0  0  0  0  0  0  0
  -25.4919  -33.1965   27.3586 C   0  0  0  0  0  0  0  0  0  0  0  0
  -24.2567   -9.1059   21.4812 C   0  0  0  0  0  0  0  0  0  0  0  0
  -24.7683  -10.3935   23.4604 C   0  0  0  0  0  0  0  0  0  0  0  0
  -23.2367  -33.8149   27.9481 C   0  0  0  0  0  0  0  0  0  0  0  0
  -24.9966  -32.1839   26.5377 C   0  0  0  0  0  0  0  0  0  0  0  0
  -27.3828  -30.2386   21.2437 C   0  0  0  0  0  0  0  0  0  0  0  0
  -30.2159  -18.8786   20.0778 C   0  0  0  0  0  0  0  0  0  0  0  0
  -23.9218   -8.0121   22.2793 C   0  0  0  0  0  0  0  0  0  0  0  0
  -24.4333   -9.2997   24.2585 C   0  0  0  0  0  0  0  0  0  0  0  0
  -28.1972  -29.1529   20.9246 C   0  0  0  0  0  0  0  0  0  0  0  0
  -30.3965  -20.2134   20.4399 C   0  0  0  0  0  0  0  0  0  0  0  0
  -21.2944   -7.0103   24.1570 C   0  0  0  0  0  0  0  0  0  0  0  0
  -20.1253   -6.3155   23.8470 C   0  0  0  0  0  0  0  0  0  0  0  0
  -26.2451  -27.8791   20.3032 C   0  0  0  0  0  0  0  0  0  0  0  0
  -28.0127  -20.4509   20.7535 C   0  0  0  0  0  0  0  0  0  0  0  0
  -21.4143   -4.3017   23.4998 C   0  0  0  0  0  0  0  0  0  0  0  0
  -24.6800  -10.2966   22.0717 C   0  0  0  0  0  0  0  0  0  0  0  0
  -24.1683  -12.4504   20.8040 C   0  0  0  0  0  0  0  0  0  0  0  0
  -22.7241  -32.8057   27.1179 C   0  0  0  0  0  0  0  0  0  0  0  0
  -25.9903  -30.1489   21.1050 C   0  0  0  0  0  0  0  0  0  0  0  0
  -23.6130  -31.9729   26.4117 C   0  0  0  0  0  0  0  0  0  0  0  0
  -25.4155  -28.9660   20.6188 C   0  0  0  0  0  0  0  0  0  0  0  0
  -28.9336  -18.3299   20.0534 C   0  0  0  0  0  0  0  0  0  0  0  0
  -24.0101   -8.1090   23.6679 C   0  0  0  0  0  0  0  0  0  0  0  0
  -27.6281  -27.9719   20.4571 C   0  0  0  0  0  0  0  0  0  0  0  0
  -29.2950  -20.9996   20.7778 C   0  0  0  0  0  0  0  0  0  0  0  0
  -22.5234   -6.3509   24.1383 C   0  0  0  0  0  0  0  0  0  0  0  0
  -20.1853   -4.9612   23.5185 C   0  0  0  0  0  0  0  0  0  0  0  0
  -27.8321  -19.1160   20.3913 C   0  0  0  0  0  0  0  0  0  0  0  0
  -22.5834   -4.9966   23.8098 C   0  0  0  0  0  0  0  0  0  0  0  0
  -25.0267  -11.4267   21.2478 C   0  0  0  0  0  0  0  0  0  0  0  0
  -24.9747  -13.2760   20.0594 C   0  0  0  0  0  0  0  0  0  0  0  0
  -22.7672  -12.6382   21.0434 C   0  0  0  0  0  0  0  0  0  0  0  0
  -23.5206  -30.3437   23.0966 C   0  0  0  0  0  0  0  0  0  0  0  0
  -21.7957  -30.1726   20.3547 C   0  0  0  0  0  0  0  0  0  0  0  0
  -21.6387  -29.2028   17.0865 C   0  0  0  0  0  0  0  0  0  0  0  0
  -29.7411  -16.0584   19.3221 C   0  0  0  0  0  0  0  0  0  0  0  0
  -21.2309  -32.6009   27.0614 C   0  0  0  0  0  0  0  0  0  0  0  0
  -25.1278  -31.3381   21.4281 C   0  0  0  0  0  0  0  0  0  0  0  0
  -23.9275  -28.8254   20.4328 C   0  0  0  0  0  0  0  0  0  0  0  0
  -20.7774  -31.7478   25.8795 C   0  0  0  0  0  0  0  0  0  0  0  0
  -29.7068  -12.6236   18.3850 C   0  0  0  0  0  0  0  0  0  0  0  0
  -21.6503  -30.5032   25.7534 C   0  0  0  0  0  0  0  0  0  0  0  0
  -28.4155  -12.0902   19.0097 C   0  0  0  0  0  0  0  0  0  0  0  0
  -30.3849  -13.6587   19.2809 C   0  0  0  0  0  0  0  0  0  0  0  0
  -28.2331  -14.2360   20.3323 C   0  0  0  0  0  0  0  0  0  0  0  0
  -23.1136  -30.8799   25.4919 C   0  0  1  0  0  0  0  0  0  0  0  0
  -23.6820  -30.9615   21.7365 C   0  0  1  0  0  0  0  0  0  0  0  0
  -27.4802  -13.2383   19.4372 C   0  0  2  0  0  0  0  0  0  0  0  0
  -20.0851  -29.1624   15.1161 C   0  0  0  0  0  0  0  0  0  0  0  0
  -20.2767  -27.8395   21.6034 C   0  0  0  0  0  0  0  0  0  0  0  0
  -19.4426  -27.2500   19.3175 C   0  0  0  0  0  0  0  0  0  0  0  0
  -18.8500  -29.4513   20.3303 C   0  0  0  0  0  0  0  0  0  0  0  0
  -23.4541  -30.8939   15.4731 C   0  0  0  0  0  0  0  0  0  0  0  0
  -28.9589  -24.6088   20.6297 C   0  0  0  0  0  0  0  0  0  0  0  0
  -27.8587  -25.6093   20.3123 C   0  0  0  0  0  0  0  0  0  1  0  0
  -28.4097  -23.2060   20.8371 C   0  0  0  0  0  0  0  0  0  0  0  0
  -21.2136  -29.0531   19.5260 C   0  0  1  0  0  0  0  0  0  0  0  0
  -21.1770  -29.9352   15.8395 C   0  0  2  0  0  0  0  0  0  0  0  0
  -19.9736  -28.4001   20.1995 C   0  0  0  0  0  0  0  0  0  0  0  0
  -26.2823  -11.5853   20.8207 N   0  0  0  0  0  0  0  0  0  0  0  0
  -26.2187  -12.7183   20.1006 N   0  0  0  0  0  0  0  0  0  0  0  0
  -23.1260  -30.0139   20.7684 N   0  0  0  0  0  0  0  0  0  0  0  0
  -29.4398  -14.7176   19.6419 N   0  0  0  0  0  0  0  0  0  0  0  0
  -24.7340  -14.4175   19.3799 N   0  0  0  0  0  0  0  0  0  0  0  0
  -22.0916  -11.6955   21.8304 N   0  0  0  0  0  0  0  0  0  0  0  0
  -28.7535  -16.9736   19.6850 N   0  0  0  0  0  0  0  0  0  0  0  0
  -23.2983  -31.2591   24.1075 N   0  0  0  0  0  0  0  0  0  0  0  0
  -20.9493  -29.6168   18.2066 N   0  0  0  0  0  0  0  0  0  0  0  0
  -22.3176  -30.1280   14.8999 N   0  3  0  0  0  0  0  0  0  0  0  0
  -22.1296  -13.6042   20.5598 O   0  0  0  0  0  0  0  0  0  0  0  0
  -23.5911  -29.1265   23.2195 O   0  0  0  0  0  0  0  0  0  0  0  0
  -21.0982  -31.1551   20.6191 O   0  0  0  0  0  0  0  0  0  0  0  0
  -22.5198  -28.3462   17.0680 O   0  0  0  0  0  0  0  0  0  0  0  0
  -30.7851  -16.3685   18.7427 O   0  0  0  0  0  0  0  0  0  0  0  0
  -23.6831   -7.0420   24.4471 O   0  0  0  0  0  0  0  0  0  0  0  0
  -28.4206  -26.9104   20.1455 O   0  0  0  0  0  0  0  0  0  1  0  0
  -29.4727  -22.3109   21.1348 O   0  0  0  0  0  0  0  0  0  0  0  0
  -19.0624   -4.2937   23.2223 F   0  0  0  0  0  0  0  0  0  0  0  0
  -26.5952  -18.5992   20.3709 F   0  0  0  0  0  0  0  0  0  0  0  0
  -23.7611   -4.3575   23.7913 F   0  0  0  0  0  0  0  0  0  0  0  0
  1  2  1  0  0  0  0
  1  5  2  0  0  0  0
  2  6  2  0  0  0  0
  3  9  2  0  0  0  0
  3 18  1  0  0  0  0
  4 10  1  0  0  0  0
  4 18  2  0  0  0  0
  5 20  1  0  0  0  0
  6 22  1  0  0  0  0
  7 11  2  0  0  0  0
  7 21  1  0  0  0  0
  8 12  2  0  0  0  0
  8 24  1  0  0  0  0
  9 25  1  0  0  0  0
 10 25  2  0  0  0  0
 11 26  1  0  0  0  0
 12 27  1  0  0  0  0
 13 14  2  0  0  0  0
 13 28  1  0  0  0  0
 14 29  1  0  0  0  0
 15 23  1  0  0  0  0
 15 26  2  0  0  0  0
 16 27  2  0  0  0  0
 16 30  1  0  0  0  0
 17 29  2  0  0  0  0
 17 31  1  0  0  0  0
 18 32  1  0  0  0  0
 19 32  1  0  0  0  0
 19 33  2  0  0  0  0
 19 34  1  0  0  0  0
 20 22  2  0  0  0  0
 20 39  1  0  0  0  0
 21 23  2  0  0  0  0
 21 40  1  0  0  0  0
 22 48  1  0  0  0  0
 23 41  1  0  0  0  0
 24 30  2  0  0  0  0
 24 68  1  0  0  0  0
 25 77  1  0  0  0  0
 26 78  1  0  0  0  0
 27 79  1  0  0  0  0
 28 31  2  0  0  0  0
 28 77  1  0  0  0  0
 29 80  1  0  0  0  0
 30 81  1  0  0  0  0
 31 82  1  0  0  0  0
 32 62  2  0  0  0  0
 33 63  1  0  0  0  0
 33 66  1  0  0  0  0
 34 67  1  0  0  0  0
 34 72  2  0  0  0  0
 35 49  1  0  0  0  0
 35 69  1  0  0  0  0
 35 73  2  0  0  0  0
 36 59  1  0  0  0  0
 36 64  1  0  0  0  0
 36 74  2  0  0  0  0
 37 60  1  0  0  0  0
 37 70  1  0  0  0  0
 37 75  2  0  0  0  0
 38 65  1  0  0  0  0
 38 68  1  0  0  0  0
 38 76  2  0  0  0  0
 39 42  1  0  0  0  0
 40 49  1  0  0  0  0
 41 64  1  0  0  0  0
 42 44  1  0  0  0  0
 43 45  1  0  0  0  0
 43 46  1  0  0  0  0
 44 48  1  0  0  0  0
 45 50  1  0  0  0  0
 46 65  1  0  0  0  0
 47 50  1  0  0  0  0
 47 65  1  0  0  0  0
 48 69  1  0  0  0  0
 49 64  1  0  0  0  0
 50 63  1  0  0  0  0
 51 60  1  0  0  0  0
 52 61  1  0  0  0  0
 53 61  1  0  0  0  0
 54 61  1  0  0  0  0
 55 71  1  0  0  0  0
 56 57  1  0  0  0  0
 56 58  1  0  0  0  0
 57 78  1  0  0  0  0
 58 79  1  0  0  0  0
 59 61  1  0  0  0  0
 59 70  1  0  0  0  0
 60 71  1  0  0  0  0
 62 63  1  0  0  0  0
M  CHG  1  71   1
M  ISO  4  38 100  57 101  68 100  78 101
M  END
> <Batch ID>
0011

> <Smiles>
CNC(C)C(=O)NC(C(=O)N1Cc2cc([101O:1][101CH2:1]CCOc3ccc([100NH:0][100C:0](=O)N4CCCC(n5nc(-c6ccc(Oc7ccc(F)cc7F)cc6)c(C(N)=O)c5N)C4)c(F)c3)ccc2CC1C(=O)NC1CCCc2ccccc21)C(C)(C)C

> <Shape>
0.303

> <Color>
0.145

> <Negative vol penalty>
0.000

$$$$

  -OEChem-04042320433D

 80 88  0     1  0  0  0  0  0999 V2000
  -22.2333  -26.3707   33.7578 C   0  0  0  0  0  0  0  0  0  0  0  0
  -23.2395  -26.1682   32.8186 C   0  0  0  0  0  0  0  0  0  0  0  0
  -32.3993  -18.4906   21.9838 C   0  0  0  0  0  0  0  0  0  0  0  0
  -23.0002   -9.8942   19.9808 C   0  0  0  0  0  0  0  0  0  0  0  0
  -23.7250   -9.9449   22.2849 C   0  0  0  0  0  0  0  0  0  0  0  0
  -21.7190  -25.2888   34.4710 C   0  0  0  0  0  0  0  0  0  0  0  0
  -23.7326  -24.8836   32.5929 C   0  0  0  0  0  0  0  0  0  0  0  0
  -25.6648  -22.5656   27.2637 C   0  0  0  0  0  0  0  0  0  0  0  0
  -31.8886  -17.2653   21.5559 C   0  0  0  0  0  0  0  0  0  0  0  0
  -31.6171  -19.3356   22.7712 C   0  0  0  0  0  0  0  0  0  0  0  0
  -22.2334   -8.7599   20.2469 C   0  0  0  0  0  0  0  0  0  0  0  0
  -22.9581   -8.8105   22.5511 C   0  0  0  0  0  0  0  0  0  0  0  0
  -26.9372  -22.4044   26.7173 C   0  0  0  0  0  0  0  0  0  0  0  0
  -23.2018   -5.4716   22.0789 C   0  0  0  0  0  0  0  0  0  0  0  0
  -23.7890   -4.4542   22.8311 C   0  0  0  0  0  0  0  0  0  0  0  0
  -26.9856  -20.1289   27.5164 C   0  0  0  0  0  0  0  0  0  0  0  0
  -29.8134  -17.7297   22.7025 C   0  0  0  0  0  0  0  0  0  0  0  0
  -22.0649   -4.6973   24.5060 C   0  0  0  0  0  0  0  0  0  0  0  0
  -23.7461  -10.4867   20.9998 C   0  0  0  0  0  0  0  0  0  0  0  0
  -24.1320  -13.0022   20.8240 C   0  0  0  0  0  0  0  0  0  0  0  0
  -22.1993  -23.9889   34.2470 C   0  0  0  0  0  0  0  0  0  0  0  0
  -25.0466  -21.5113   27.9512 C   0  0  0  0  0  0  0  0  0  0  0  0
  -23.2252  -23.7834   33.3047 C   0  0  0  0  0  0  0  0  0  0  0  0
  -25.7042  -20.2784   28.0685 C   0  0  0  0  0  0  0  0  0  0  0  0
  -30.5957  -16.8848   21.9152 C   0  0  0  0  0  0  0  0  0  0  0  0
  -22.2123   -8.2180   21.5320 C   0  0  0  0  0  0  0  0  0  0  0  0
  -27.5990  -21.1869   26.8460 C   0  0  0  0  0  0  0  0  0  0  0  0
  -30.3241  -18.9551   23.1305 C   0  0  0  0  0  0  0  0  0  0  0  0
  -22.0462   -6.1019   22.5404 C   0  0  0  0  0  0  0  0  0  0  0  0
  -23.2205   -4.0670   24.0446 C   0  0  0  0  0  0  0  0  0  0  0  0
  -21.4777   -5.7148   23.7539 C   0  0  0  0  0  0  0  0  0  0  0  0
  -24.5388  -11.6581   20.7254 C   0  0  0  0  0  0  0  0  0  0  0  0
  -25.2419  -13.7246   20.4599 C   0  0  0  0  0  0  0  0  0  0  0  0
  -22.8640  -13.5489   21.2104 C   0  0  0  0  0  0  0  0  0  0  0  0
  -24.0228  -21.0691   30.9278 C   0  0  0  0  0  0  0  0  0  0  0  0
  -22.8760  -18.2916   29.7062 C   0  0  0  0  0  0  0  0  0  0  0  0
  -23.0835  -15.8808   27.2996 C   0  0  0  0  0  0  0  0  0  0  0  0
  -30.7216  -14.6845   20.6949 C   0  0  0  0  0  0  0  0  0  0  0  0
  -21.6454  -22.8573   35.0761 C   0  0  0  0  0  0  0  0  0  0  0  0
  -23.6627  -21.6928   28.5118 C   0  0  0  0  0  0  0  0  0  0  0  0
  -25.0757  -19.1089   28.7795 C   0  0  0  0  0  0  0  0  0  0  0  0
  -21.9608  -21.4756   34.5090 C   0  0  0  0  0  0  0  0  0  0  0  0
  -29.6032  -12.2320   18.3686 C   0  0  0  0  0  0  0  0  0  0  0  0
  -23.4305  -21.3847   34.1109 C   0  0  0  0  0  0  0  0  0  0  0  0
  -28.1524  -11.9746   18.7824 C   0  0  0  0  0  0  0  0  0  0  0  0
  -30.5035  -12.4751   19.5785 C   0  0  0  0  0  0  0  0  0  0  0  0
  -28.5881  -13.2643   20.9118 C   0  0  0  0  0  0  0  0  0  0  0  0
  -23.7688  -22.4014   33.0139 C   0  0  1  0  0  0  0  0  0  0  0  0
  -23.3407  -20.7142   29.6370 C   0  0  1  0  0  0  0  0  0  0  0  0
  -27.6306  -13.0782   19.7234 C   0  0  2  0  0  0  0  0  0  0  0  0
  -22.0369  -13.7146   26.5858 C   0  0  0  0  0  0  0  0  0  0  0  0
  -24.3587  -16.8408   31.9437 C   0  0  0  0  0  0  0  0  0  0  0  0
  -24.0780  -14.7126   30.6552 C   0  0  0  0  0  0  0  0  0  0  0  0
  -22.0704  -15.9539   31.4624 C   0  0  0  0  0  0  0  0  0  0  0  0
  -22.2342  -17.0136   24.7006 C   0  0  0  0  0  0  0  0  0  0  0  0
  -29.1520  -21.7897   25.1487 C   0  0  0  0  0  0  0  0  0  1  0  0
  -30.1444  -21.0173   24.3014 C   0  0  0  0  0  0  0  0  0  0  0  0
  -23.4178  -16.8924   29.5400 C   0  0  1  0  0  0  0  0  0  0  0  0
  -22.0213  -15.2277   26.4338 C   0  0  2  0  0  0  0  0  0  0  0  0
  -23.4941  -16.1224   30.8885 C   0  0  0  0  0  0  0  0  0  0  0  0
  -25.8082  -11.5314   20.3294 N   0  0  0  0  0  0  0  0  0  0  0  0
  -26.2084  -12.8051   20.1760 N   0  0  0  0  0  0  0  0  0  0  0  0
  -23.7239  -19.3378   29.3159 N   0  0  0  0  0  0  0  0  0  0  0  0
  -29.9486  -13.5361   20.4218 N   0  0  0  0  0  0  0  0  0  0  0  0
  -25.4757  -15.0502   20.3579 N   0  0  0  0  0  0  0  0  0  0  0  0
  -21.8320  -12.6649   21.5536 N   0  0  0  0  0  0  0  0  0  0  0  0
  -30.0774  -15.6397   21.4804 N   0  0  0  0  0  0  0  0  0  0  0  0
  -23.2989  -21.9324   31.7279 N   0  0  0  0  0  0  0  0  0  0  0  0
  -22.5836  -16.2489   28.5308 N   0  0  0  0  0  0  0  0  0  0  0  0
  -22.2477  -15.5582   24.9984 N   0  3  0  0  0  0  0  0  0  0  0  0
  -22.6476  -14.7842   21.2342 O   0  0  0  0  0  0  0  0  0  0  0  0
  -25.1238  -20.5937   31.1800 O   0  0  0  0  0  0  0  0  0  0  0  0
  -21.7394  -18.4502   30.1587 O   0  0  0  0  0  0  0  0  0  0  0  0
  -24.2419  -16.0445   26.9228 O   0  0  0  0  0  0  0  0  0  0  0  0
  -31.8603  -14.8232   20.2411 O   0  0  0  0  0  0  0  0  0  0  0  0
  -21.4640   -7.1113   21.7921 O   0  0  0  0  0  0  0  0  0  0  0  0
  -28.8414  -21.0270   26.3142 O   0  0  0  0  0  0  0  0  0  1  0  0
  -29.5556  -19.7850   23.9037 O   0  0  0  0  0  0  0  0  0  0  0  0
  -23.7836   -3.0890   24.7660 F   0  0  0  0  0  0  0  0  0  0  0  0
  -20.3669   -6.3159   24.2017 F   0  0  0  0  0  0  0  0  0  0  0  0
  1  2  1  0  0  0  0
  1  6  2  0  0  0  0
  2  7  2  0  0  0  0
  3  9  1  0  0  0  0
  3 10  2  0  0  0  0
  4 11  2  0  0  0  0
  4 19  1  0  0  0  0
  5 12  1  0  0  0  0
  5 19  2  0  0  0  0
  6 21  1  0  0  0  0
  7 23  1  0  0  0  0
  8 13  2  0  0  0  0
  8 22  1  0  0  0  0
  9 25  2  0  0  0  0
 10 28  1  0  0  0  0
 11 26  1  0  0  0  0
 12 26  2  0  0  0  0
 13 27  1  0  0  0  0
 14 15  2  0  0  0  0
 14 29  1  0  0  0  0
 15 30  1  0  0  0  0
 16 24  1  0  0  0  0
 16 27  2  0  0  0  0
 17 25  1  0  0  0  0
 17 28  2  0  0  0  0
 18 30  2  0  0  0  0
 18 31  1  0  0  0  0
 19 32  1  0  0  0  0
 20 32  1  0  0  0  0
 20 33  2  0  0  0  0
 20 34  1  0  0  0  0
 21 23  2  0  0  0  0
 21 39  1  0  0  0  0
 22 24  2  0  0  0  0
 22 40  1  0  0  0  0
 23 48  1  0  0  0  0
 24 41  1  0  0  0  0
 25 67  1  0  0  0  0
 26 76  1  0  0  0  0
 27 77  1  0  0  0  0
 28 78  1  0  0  0  0
 29 31  2  0  0  0  0
 29 76  1  0  0  0  0
 30 79  1  0  0  0  0
 31 80  1  0  0  0  0
 32 61  2  0  0  0  0
 33 62  1  0  0  0  0
 33 65  1  0  0  0  0
 34 66  1  0  0  0  0
 34 71  2  0  0  0  0
 35 49  1  0  0  0  0
 35 68  1  0  0  0  0
 35 72  2  0  0  0  0
 36 58  1  0  0  0  0
 36 63  1  0  0  0  0
 36 73  2  0  0  0  0
 37 59  1  0  0  0  0
 37 69  1  0  0  0  0
 37 74  2  0  0  0  0
 38 64  1  0  0  0  0
 38 67  1  0  0  0  0
 38 75  2  0  0  0  0
 39 42  1  0  0  0  0
 40 49  1  0  0  0  0
 41 63  1  0  0  0  0
 42 44  1  0  0  0  0
 43 45  1  0  0  0  0
 43 46  1  0  0  0  0
 44 48  1  0  0  0  0
 45 50  1  0  0  0  0
 46 64  1  0  0  0  0
 47 50  1  0  0  0  0
 47 64  1  0  0  0  0
 48 68  1  0  0  0  0
 49 63  1  0  0  0  0
 50 62  1  0  0  0  0
 51 59  1  0  0  0  0
 52 60  1  0  0  0  0
 53 60  1  0  0  0  0
 54 60  1  0  0  0  0
 55 70  1  0  0  0  0
 56 57  1  0  0  0  0
 56 77  1  0  0  0  0
 57 78  1  0  0  0  0
 58 60  1  0  0  0  0
 58 69  1  0  0  0  0
 59 70  1  0  0  0  0
 61 62  1  0  0  0  0
M  CHG  1  70   1
M  ISO  4  38 100  56 101  67 100  77 101
M  END
> <Batch ID>
0011

> <Smiles>
CNC(C)C(=O)NC(C(=O)N1Cc2cc([101O:1][101CH2:1]COc3cccc([100NH:0][100C:0](=O)N4CCCC(n5nc(-c6ccc(Oc7ccc(F)cc7F)cc6)c(C(N)=O)c5N)C4)c3)ccc2CC1C(=O)NC1CCCc2ccccc21)C(C)(C)C

> <Shape>
0.177

> <Color>
0.202

> <Negative vol penalty>
0.000

$$$$

  -OEChem-04042320433D

 82 91  0     1  0  0  0  0  0999 V2000
  -27.4843  -32.3024   25.9964 C   0  0  0  0  0  0  0  0  0  0  0  0
  -27.5978  -30.9613   25.6444 C   0  0  0  0  0  0  0  0  0  0  0  0
  -23.4305   -9.6284   20.1802 C   0  0  0  0  0  0  0  0  0  0  0  0
  -23.3252   -9.7270   22.5919 C   0  0  0  0  0  0  0  0  0  0  0  0
  -26.4519  -33.0758   25.4674 C   0  0  0  0  0  0  0  0  0  0  0  0
  -26.6782  -30.3925   24.7639 C   0  0  0  0  0  0  0  0  0  0  0  0
  -28.8919  -27.5128   21.2353 C   0  0  0  0  0  0  0  0  0  0  0  0
  -23.4559   -8.2350   20.2382 C   0  0  0  0  0  0  0  0  0  0  0  0
  -23.3506   -8.3336   22.6500 C   0  0  0  0  0  0  0  0  0  0  0  0
  -29.3019  -26.2369   21.6199 C   0  0  0  0  0  0  0  0  0  0  0  0
  -21.1759   -5.7840   22.2128 C   0  0  0  0  0  0  0  0  0  0  0  0
  -20.2760   -5.1563   23.0740 C   0  0  0  0  0  0  0  0  0  0  0  0
  -27.3202  -25.3024   20.6105 C   0  0  0  0  0  0  0  0  0  0  0  0
  -22.1207   -4.1674   24.2808 C   0  0  0  0  0  0  0  0  0  0  0  0
  -23.3652  -10.3744   21.3570 C   0  0  0  0  0  0  0  0  0  0  0  0
  -22.2036  -12.6411   21.2146 C   0  0  0  0  0  0  0  0  0  0  0  0
  -25.5249  -32.5187   24.5725 C   0  0  0  0  0  0  0  0  0  0  0  0
  -27.6856  -27.6945   20.5438 C   0  0  0  0  0  0  0  0  0  0  0  0
  -25.6316  -31.1589   24.2235 C   0  0  0  0  0  0  0  0  0  0  0  0
  -26.8984  -26.5813   20.2160 C   0  0  0  0  0  0  0  0  0  0  0  0
  -23.4159   -7.5876   21.4731 C   0  0  0  0  0  0  0  0  0  0  0  0
  -28.5146  -25.1318   21.3101 C   0  0  0  0  0  0  0  0  0  0  0  0
  -22.5482   -5.6034   22.3855 C   0  0  0  0  0  0  0  0  0  0  0  0
  -20.7483   -4.3480   24.1080 C   0  0  0  0  0  0  0  0  0  0  0  0
  -23.0206   -4.7951   23.4195 C   0  0  0  0  0  0  0  0  0  0  0  0
  -23.3396  -11.8138   21.2978 C   0  0  0  0  0  0  0  0  0  0  0  0
  -22.7098  -13.9176   21.1853 C   0  0  0  0  0  0  0  0  0  0  0  0
  -20.8149  -12.2873   21.1680 C   0  0  0  0  0  0  0  0  0  0  0  0
  -24.9722  -29.2409   21.1349 C   0  0  0  0  0  0  0  0  0  0  0  0
  -24.2656  -28.3663   18.0922 C   0  0  0  0  0  0  0  0  0  0  0  0
  -24.7991  -26.2134   15.4985 C   0  0  0  0  0  0  0  0  0  0  0  0
  -26.4325  -17.4439   18.9838 C   0  0  0  0  0  0  0  0  0  0  0  0
  -24.3979  -33.3822   24.0636 C   0  0  0  0  0  0  0  0  0  0  0  0
  -27.2706  -29.0744   20.1125 C   0  0  0  0  0  0  0  0  0  0  0  0
  -25.6048  -26.7206   19.4574 C   0  0  0  0  0  0  0  0  0  0  0  0
  -23.6863  -32.7994   22.8454 C   0  0  0  0  0  0  0  0  0  0  0  0
  -27.3800  -15.6378   22.0580 C   0  0  0  0  0  0  0  0  0  0  0  0
  -23.3793  -31.3211   23.0630 C   0  0  0  0  0  0  0  0  0  0  0  0
  -26.3337  -14.5233   22.0929 C   0  0  0  0  0  0  0  0  0  0  0  0
  -28.6347  -20.4728   18.3179 C   0  0  0  0  0  0  0  0  0  0  0  0
  -30.7714  -22.4249   22.1450 C   0  0  0  0  0  0  0  0  0  0  0  0
  -27.7285  -16.0194   20.6248 C   0  0  0  0  0  0  0  0  0  0  0  0
  -27.5215  -19.5105   17.9150 C   0  0  0  0  0  0  0  0  0  0  0  0
  -25.5042  -15.3006   19.8227 C   0  0  0  0  0  0  0  0  0  0  0  0
  -30.0124  -21.1482   21.8445 C   0  0  0  0  0  0  0  0  0  0  0  0
  -29.9413  -22.6298   19.8952 C   0  0  0  0  0  0  0  0  0  0  0  0
  -24.6682  -30.5121   23.2521 C   0  0  1  0  0  0  0  0  0  0  0  0
  -25.7706  -29.1966   19.8628 C   0  0  1  0  0  0  0  0  0  0  0  0
  -25.0996  -14.8929   21.2504 C   0  0  1  0  0  0  0  0  0  0  0  0
  -30.1618  -23.4218   21.1745 C   0  0  1  0  0  0  0  0  0  1  0  0
  -28.6688  -20.4384   19.8373 C   0  0  2  0  0  0  0  0  0  0  0  0
  -24.0475  -25.7295   13.1536 C   0  0  0  0  0  0  0  0  0  0  0  0
  -21.6807  -27.1578   19.1727 C   0  0  0  0  0  0  0  0  0  0  0  0
  -21.4538  -25.8957   17.0223 C   0  0  0  0  0  0  0  0  0  0  0  0
  -21.4322  -28.3901   17.0107 C   0  0  0  0  0  0  0  0  0  0  0  0
  -27.5202  -26.6380   14.4149 C   0  0  0  0  0  0  0  0  0  0  0  0
  -23.6035  -27.1715   17.4496 C   0  0  1  0  0  0  0  0  0  0  0  0
  -25.0599  -26.4586   14.0232 C   0  0  2  0  0  0  0  0  0  0  0  0
  -22.0659  -27.1510   17.6798 C   0  0  0  0  0  0  0  0  0  0  0  0
  -24.4814  -12.5065   21.3198 N   0  0  0  0  0  0  0  0  0  0  0  0
  -24.0654  -13.7825   21.2499 N   0  0  0  0  0  0  0  0  0  0  0  0
  -25.2388  -28.0911   19.0632 N   0  0  0  0  0  0  0  0  0  0  0  0
  -26.5278  -16.3470   19.8537 N   0  0  0  0  0  0  0  0  0  0  0  0
  -27.5902  -18.3145   18.8396 N   0  0  0  0  0  0  0  0  0  0  0  0
  -22.1231  -15.1311   21.1108 N   0  0  0  0  0  0  0  0  0  0  0  0
  -20.4696  -10.9296   21.2076 N   0  0  0  0  0  0  0  0  0  0  0  0
  -25.3125  -30.2825   21.9767 N   0  0  0  0  0  0  0  0  0  0  0  0
  -23.9971  -27.1929   16.0450 N   0  0  0  0  0  0  0  0  0  0  0  0
  -29.8538  -21.1683   20.3353 N   0  3  2  0  0  0  0  0  0  0  0  0
  -26.4240  -25.9863   13.6529 N   0  3  0  0  0  0  0  0  0  0  0  0
  -19.9079  -13.1490   21.0768 O   0  0  0  0  0  0  0  0  0  0  0  0
  -24.1101  -28.3938   21.3369 O   0  0  0  0  0  0  0  0  0  0  0  0
  -23.9368  -29.5019   17.7401 O   0  0  0  0  0  0  0  0  0  0  0  0
  -25.2576  -25.2474   16.1044 O   0  0  0  0  0  0  0  0  0  0  0  0
  -25.4018  -17.6844   18.3527 O   0  0  0  0  0  0  0  0  0  0  0  0
  -29.9483  -18.1544   20.0123 O   0  0  0  0  0  0  0  0  0  0  0  0
  -27.8974  -18.5172   21.4644 O   0  0  0  0  0  0  0  0  0  0  0  0
  -23.4404   -6.2279   21.5301 O   0  0  0  0  0  0  0  0  0  0  0  0
  -28.9146  -23.8773   21.6874 O   0  0  0  0  0  0  0  0  0  1  0  0
  -19.8841   -3.7466   24.9359 F   0  0  0  0  0  0  0  0  0  0  0  0
  -24.3379   -4.6188   23.5912 F   0  0  0  0  0  0  0  0  0  0  0  0
  -28.6252  -18.7052   20.2270 S   0  0  0  0  0  0  0  0  0  0  0  0
  1  2  1  0  0  0  0
  1  5  2  0  0  0  0
  2  6  2  0  0  0  0
  3  8  2  0  0  0  0
  3 15  1  0  0  0  0
  4  9  1  0  0  0  0
  4 15  2  0  0  0  0
  5 17  1  0  0  0  0
  6 19  1  0  0  0  0
  7 10  2  0  0  0  0
  7 18  1  0  0  0  0
  8 21  1  0  0  0  0
  9 21  2  0  0  0  0
 10 22  1  0  0  0  0
 11 12  2  0  0  0  0
 11 23  1  0  0  0  0
 12 24  1  0  0  0  0
 13 20  1  0  0  0  0
 13 22  2  0  0  0  0
 14 24  2  0  0  0  0
 14 25  1  0  0  0  0
 15 26  1  0  0  0  0
 16 26  1  0  0  0  0
 16 27  2  0  0  0  0
 16 28  1  0  0  0  0
 17 19  2  0  0  0  0
 17 33  1  0  0  0  0
 18 20  2  0  0  0  0
 18 34  1  0  0  0  0
 19 47  1  0  0  0  0
 20 35  1  0  0  0  0
 21 78  1  0  0  0  0
 22 79  1  0  0  0  0
 23 25  2  0  0  0  0
 23 78  1  0  0  0  0
 24 80  1  0  0  0  0
 25 81  1  0  0  0  0
 26 60  2  0  0  0  0
 27 61  1  0  0  0  0
 27 65  1  0  0  0  0
 28 66  1  0  0  0  0
 28 71  2  0  0  0  0
 29 48  1  0  0  0  0
 29 67  1  0  0  0  0
 29 72  2  0  0  0  0
 30 57  1  0  0  0  0
 30 62  1  0  0  0  0
 30 73  2  0  0  0  0
 31 58  1  0  0  0  0
 31 68  1  0  0  0  0
 31 74  2  0  0  0  0
 32 63  1  0  0  0  0
 32 64  1  0  0  0  0
 32 75  2  0  0  0  0
 33 36  1  0  0  0  0
 34 48  1  0  0  0  0
 35 62  1  0  0  0  0
 36 38  1  0  0  0  0
 37 39  1  0  0  0  0
 37 42  1  0  0  0  0
 38 47  1  0  0  0  0
 39 49  1  0  0  0  0
 40 43  1  0  0  0  0
 40 51  1  0  0  0  0
 41 45  1  0  0  0  0
 41 50  1  0  0  0  0
 42 63  1  0  0  0  0
 43 64  1  0  0  0  0
 44 49  1  0  0  0  0
 44 63  1  0  0  0  0
 45 69  1  0  0  0  0
 46 50  1  0  0  0  0
 46 69  1  0  0  0  0
 47 67  1  0  0  0  0
 48 62  1  0  0  0  0
 49 61  1  0  0  0  0
 50 79  1  0  0  0  0
 51 69  1  0  0  0  0
 51 82  1  0  0  0  0
 52 58  1  0  0  0  0
 53 59  1  0  0  0  0
 54 59  1  0  0  0  0
 55 59  1  0  0  0  0
 56 70  1  0  0  0  0
 57 59  1  0  0  0  0
 57 68  1  0  0  0  0
 58 70  1  0  0  0  0
 60 61  1  0  0  0  0
 64 82  1  0  0  0  0
 76 82  2  0  0  0  0
 77 82  2  0  0  0  0
M  CHG  2  69   1  70   1
M  ISO  4  32 100  50 101  64 100  79 101
M  END
> <Batch ID>
0011

> <Smiles>
CNC(C)C(=O)NC(C(=O)N1Cc2cc([101O:1][101CH:1]3CCN(C4CC[100N:0]([100C:0](=O)N5CCCC(n6nc(-c7ccc(Oc8ccc(F)cc8F)cc7)c(C(N)=O)c6N)C5)S4(=O)=O)C3)ccc2CC1C(=O)NC1CCCc2ccccc21)C(C)(C)C

> <Shape>
0.291

> <Color>
0.069

> <Negative vol penalty>
0.000

$$$$

  -OEChem-04042320433D

 73 80  0     1  0  0  0  0  0999 V2000
  -28.7807  -11.4027   19.8413 C   0  0  0  0  0  0  0  0  0  0  0  0
  -28.8747  -12.6791   19.2960 C   0  0  0  0  0  0  0  0  0  0  0  0
  -25.9114  -28.9143   20.8188 C   0  0  0  0  0  0  0  0  0  0  0  0
  -25.2447  -26.5922   20.8056 C   0  0  0  0  0  0  0  0  0  0  0  0
  -27.5741  -10.9659   20.3863 C   0  0  0  0  0  0  0  0  0  0  0  0
  -27.7616  -13.5191   19.2943 C   0  0  0  0  0  0  0  0  0  0  0  0
  -28.8908  -18.2435   20.7261 C   0  0  0  0  0  0  0  0  0  0  0  0
  -24.5811  -29.2972   20.6476 C   0  0  0  0  0  0  0  0  0  0  0  0
  -23.9144  -26.9751   20.6344 C   0  0  0  0  0  0  0  0  0  0  0  0
  -29.5037  -19.0657   19.7816 C   0  0  0  0  0  0  0  0  0  0  0  0
  -20.2991  -27.3512   20.5553 C   0  0  0  0  0  0  0  0  0  0  0  0
  -19.3346  -26.7145   21.3363 C   0  0  0  0  0  0  0  0  0  0  0  0
  -27.3782  -20.1087   19.3193 C   0  0  0  0  0  0  0  0  0  0  0  0
  -20.4277  -27.5133   23.3374 C   0  0  0  0  0  0  0  0  0  0  0  0
  -26.2432  -27.5618   20.8978 C   0  0  0  0  0  0  0  0  0  0  0  0
  -28.2943  -26.9641   22.2918 C   0  0  0  0  0  0  0  0  0  0  0  0
  -26.4483  -11.8044   20.4000 C   0  0  0  0  0  0  0  0  0  0  0  0
  -27.5128  -18.3403   20.9669 C   0  0  0  0  0  0  0  0  0  0  0  0
  -26.5384  -13.0925   19.8388 C   0  0  0  0  0  0  0  0  0  0  0  0
  -26.7507  -19.2883   20.2692 C   0  0  0  0  0  0  0  0  0  0  0  0
  -23.5826  -28.3276   20.5554 C   0  0  0  0  0  0  0  0  0  0  0  0
  -28.7469  -19.9965   19.0760 C   0  0  0  0  0  0  0  0  0  0  0  0
  -21.3280  -28.0688   21.1653 C   0  0  0  0  0  0  0  0  0  0  0  0
  -19.3988  -26.7956   22.7274 C   0  0  0  0  0  0  0  0  0  0  0  0
  -21.3923  -28.1499   22.5564 C   0  0  0  0  0  0  0  0  0  0  0  0
  -27.6173  -27.1656   21.0741 C   0  0  0  0  0  0  0  0  0  0  0  0
  -29.5659  -26.6003   21.9215 C   0  0  0  0  0  0  0  0  0  0  0  0
  -27.8165  -27.0941   23.6374 C   0  0  0  0  0  0  0  0  0  0  0  0
  -25.0394  -16.3661   20.6693 C   0  0  0  0  0  0  0  0  0  0  0  0
  -23.4301  -18.7916   22.1009 C   0  0  0  0  0  0  0  0  0  0  0  0
  -23.2352  -22.1273   22.7949 C   0  0  0  0  0  0  0  0  0  0  0  0
  -31.8053  -24.0606   16.9833 C   0  0  0  0  0  0  0  0  0  0  0  0
  -25.1525  -11.2708   20.9575 C   0  0  0  0  0  0  0  0  0  0  0  0
  -26.8716  -17.4645   22.0082 C   0  0  0  0  0  0  0  0  0  0  0  0
  -25.2716  -19.4460   20.5052 C   0  0  0  0  0  0  0  0  0  0  0  0
  -24.1234  -12.3586   21.2544 C   0  0  0  0  0  0  0  0  0  0  0  0
  -32.7528  -27.1859   18.4013 C   0  0  0  0  0  0  0  0  0  0  0  0
  -24.0228  -13.3319   20.0842 C   0  0  0  0  0  0  0  0  0  0  0  0
  -31.6052  -27.5169   19.3570 C   0  0  0  0  0  0  0  0  0  0  0  0
  -32.2517  -26.4924   17.1365 C   0  0  0  0  0  0  0  0  0  0  0  0
  -30.2768  -25.6255   18.3290 C   0  0  0  0  0  0  0  0  0  0  0  0
  -25.3600  -14.0420   19.8407 C   0  0  1  0  0  0  0  0  0  0  0  0
  -25.3693  -17.2948   21.8034 C   0  0  1  0  0  0  0  0  0  0  0  0
  -30.7390  -26.2758   19.6442 C   0  0  2  0  0  0  0  0  0  0  0  0
  -21.7856  -23.8170   23.9528 C   0  0  0  0  0  0  0  0  0  0  0  0
  -21.4554  -18.6861   19.7772 C   0  0  0  0  0  0  0  0  0  0  0  0
  -20.6243  -20.9432   20.4723 C   0  0  0  0  0  0  0  0  0  0  0  0
  -20.4056  -19.0030   22.0249 C   0  0  0  0  0  0  0  0  0  0  0  0
  -25.3980  -22.8660   24.6752 C   0  0  0  0  0  0  0  0  0  0  0  0
  -31.2354  -21.6456   16.9357 C   0  0  0  0  0  0  0  0  0  0  0  0
  -30.7465  -20.6355   17.9583 C   0  0  0  0  0  0  0  0  0  1  0  0
  -22.6870  -20.0136   21.6176 C   0  0  1  0  0  0  0  0  0  0  0  0
  -22.9697  -22.8728   24.0904 C   0  0  2  0  0  0  0  0  0  0  0  0
  -21.3206  -19.6574   20.9669 C   0  0  0  0  0  0  0  0  0  0  0  0
  -28.3944  -26.9480   20.0099 N   0  0  0  0  0  0  0  0  0  0  0  0
  -29.5730  -26.6061   20.5576 N   0  0  0  0  0  0  0  0  0  0  0  0
  -24.6895  -18.5623   21.5289 N   0  0  0  0  0  0  0  0  0  0  0  0
  -31.4385  -25.3228   17.4784 N   0  0  0  0  0  0  0  0  0  0  0  0
  -30.6675  -26.2792   22.6327 N   0  0  0  0  0  0  0  0  0  0  0  0
  -26.4833  -27.4765   23.8389 N   0  0  0  0  0  0  0  0  0  0  0  0
  -25.5584  -15.0937   20.8148 N   0  0  0  0  0  0  0  0  0  0  0  0
  -22.5873  -20.9105   22.7639 N   0  0  0  0  0  0  0  0  0  0  0  0
  -30.9843  -23.0048   17.3602 N   0  0  0  0  0  0  0  0  0  0  0  0
  -24.1650  -23.6719   24.4825 N   0  3  0  0  0  0  0  0  0  0  0  0
  -28.5547  -26.8935   24.6315 O   0  0  0  0  0  0  0  0  0  0  0  0
  -24.3627  -16.7733   19.7323 O   0  0  0  0  0  0  0  0  0  0  0  0
  -22.9152  -18.0710   22.9596 O   0  0  0  0  0  0  0  0  0  0  0  0
  -23.9432  -22.5808   21.8985 O   0  0  0  0  0  0  0  0  0  0  0  0
  -32.7944  -23.8864   16.2633 O   0  0  0  0  0  0  0  0  0  0  0  0
  -22.2844  -28.7009   20.3885 O   0  0  0  0  0  0  0  0  0  0  0  0
  -29.3424  -20.7999   18.1530 O   0  0  0  0  0  0  0  0  0  1  0  0
  -18.4716  -26.1855   23.4772 F   0  0  0  0  0  0  0  0  0  0  0  0
  -22.3777  -28.8388   23.1481 F   0  0  0  0  0  0  0  0  0  0  0  0
  1  2  1  0  0  0  0
  1  5  2  0  0  0  0
  2  6  2  0  0  0  0
  3  8  2  0  0  0  0
  3 15  1  0  0  0  0
  4  9  1  0  0  0  0
  4 15  2  0  0  0  0
  5 17  1  0  0  0  0
  6 19  1  0  0  0  0
  7 10  2  0  0  0  0
  7 18  1  0  0  0  0
  8 21  1  0  0  0  0
  9 21  2  0  0  0  0
 10 22  1  0  0  0  0
 11 12  2  0  0  0  0
 11 23  1  0  0  0  0
 12 24  1  0  0  0  0
 13 20  1  0  0  0  0
 13 22  2  0  0  0  0
 14 24  2  0  0  0  0
 14 25  1  0  0  0  0
 15 26  1  0  0  0  0
 16 26  1  0  0  0  0
 16 27  2  0  0  0  0
 16 28  1  0  0  0  0
 17 19  2  0  0  0  0
 17 33  1  0  0  0  0
 18 20  2  0  0  0  0
 18 34  1  0  0  0  0
 19 42  1  0  0  0  0
 20 35  1  0  0  0  0
 21 70  1  0  0  0  0
 22 71  1  0  0  0  0
 23 25  2  0  0  0  0
 23 70  1  0  0  0  0
 24 72  1  0  0  0  0
 25 73  1  0  0  0  0
 26 55  2  0  0  0  0
 27 56  1  0  0  0  0
 27 59  1  0  0  0  0
 28 60  1  0  0  0  0
 28 65  2  0  0  0  0
 29 43  1  0  0  0  0
 29 61  1  0  0  0  0
 29 66  2  0  0  0  0
 30 52  1  0  0  0  0
 30 57  1  0  0  0  0
 30 67  2  0  0  0  0
 31 53  1  0  0  0  0
 31 62  1  0  0  0  0
 31 68  2  0  0  0  0
 32 58  1  0  0  0  0
 32 63  1  0  0  0  0
 32 69  2  0  0  0  0
 33 36  1  0  0  0  0
 34 43  1  0  0  0  0
 35 57  1  0  0  0  0
 36 38  1  0  0  0  0
 37 39  1  0  0  0  0
 37 40  1  0  0  0  0
 38 42  1  0  0  0  0
 39 44  1  0  0  0  0
 40 58  1  0  0  0  0
 41 44  1  0  0  0  0
 41 58  1  0  0  0  0
 42 61  1  0  0  0  0
 43 57  1  0  0  0  0
 44 56  1  0  0  0  0
 45 53  1  0  0  0  0
 46 54  1  0  0  0  0
 47 54  1  0  0  0  0
 48 54  1  0  0  0  0
 49 64  1  0  0  0  0
 50 51  1  0  0  0  0
 50 63  1  0  0  0  0
 51 71  1  0  0  0  0
 52 54  1  0  0  0  0
 52 62  1  0  0  0  0
 53 64  1  0  0  0  0
 55 56  1  0  0  0  0
M  CHG  1  64   1
M  ISO  4  32 100  51 101  63 100  71 101
M  END
> <Batch ID>
0011

> <Smiles>
CNC(C)C(=O)NC(C(=O)N1Cc2cc([101O:1][101CH2:1]C[100NH:0][100C:0](=O)N3CCCC(n4nc(-c5ccc(Oc6ccc(F)cc6F)cc5)c(C(N)=O)c4N)C3)ccc2CC1C(=O)NC1CCCc2ccccc21)C(C)(C)C

> <Shape>
0.226

> <Color>
0.066

> <Negative vol penalty>
0.000

$$$$

  -OEChem-04042320433D

 85 94  0     1  0  0  0  0  0999 V2000
  -30.1664  -35.1128   22.6423 C   0  0  0  0  0  0  0  0  0  0  0  0
  -30.4356  -33.7703   22.3960 C   0  0  0  0  0  0  0  0  0  0  0  0
  -22.5250  -10.3087   20.5768 C   0  0  0  0  0  0  0  0  0  0  0  0
  -24.4490   -9.2108   21.5410 C   0  0  0  0  0  0  0  0  0  0  0  0
  -28.8769  -35.5112   22.9923 C   0  0  0  0  0  0  0  0  0  0  0  0
  -29.4156  -32.8252   22.5007 C   0  0  0  0  0  0  0  0  0  0  0  0
  -28.7073  -27.7810   19.1007 C   0  0  0  0  0  0  0  0  0  0  0  0
  -29.3231  -18.5131   22.0986 C   0  0  0  0  0  0  0  0  0  0  0  0
  -29.4678  -19.8708   21.8140 C   0  0  0  0  0  0  0  0  0  0  0  0
  -21.8080   -9.1143   20.6474 C   0  0  0  0  0  0  0  0  0  0  0  0
  -23.7320   -8.0164   21.6117 C   0  0  0  0  0  0  0  0  0  0  0  0
  -29.0303  -26.4439   19.3277 C   0  0  0  0  0  0  0  0  0  0  0  0
  -22.2924   -4.7674   22.3796 C   0  0  0  0  0  0  0  0  0  0  0  0
  -22.3765   -4.0284   23.5596 C   0  0  0  0  0  0  0  0  0  0  0  0
  -26.7755  -26.0332   20.0804 C   0  0  0  0  0  0  0  0  0  0  0  0
  -29.8798  -19.3403   19.4932 C   0  0  0  0  0  0  0  0  0  0  0  0
  -21.4671   -5.8958   24.7938 C   0  0  0  0  0  0  0  0  0  0  0  0
  -23.8455  -10.3569   21.0235 C   0  0  0  0  0  0  0  0  0  0  0  0
  -24.2679  -12.8120   21.5726 C   0  0  0  0  0  0  0  0  0  0  0  0
  -27.8385  -34.5719   23.0920 C   0  0  0  0  0  0  0  0  0  0  0  0
  -27.4168  -28.2576   19.3727 C   0  0  0  0  0  0  0  0  0  0  0  0
  -28.1114  -33.2113   22.8537 C   0  0  0  0  0  0  0  0  0  0  0  0
  -26.4380  -27.3762   19.8536 C   0  0  0  0  0  0  0  0  0  0  0  0
  -29.4568  -17.5689   21.0806 C   0  0  0  0  0  0  0  0  0  0  0  0
  -29.7461  -20.2845   20.5112 C   0  0  0  0  0  0  0  0  0  0  0  0
  -22.4115   -7.9682   21.1649 C   0  0  0  0  0  0  0  0  0  0  0  0
  -28.0652  -25.5704   19.8203 C   0  0  0  0  0  0  0  0  0  0  0  0
  -21.7957   -6.0706   22.4067 C   0  0  0  0  0  0  0  0  0  0  0  0
  -21.9638   -4.5926   24.7667 C   0  0  0  0  0  0  0  0  0  0  0  0
  -29.7351  -17.9825   19.7779 C   0  0  0  0  0  0  0  0  0  0  0  0
  -21.3830   -6.6347   23.6137 C   0  0  0  0  0  0  0  0  0  0  0  0
  -24.5869  -11.5903   20.9503 C   0  0  0  0  0  0  0  0  0  0  0  0
  -25.2769  -13.6637   21.1944 C   0  0  0  0  0  0  0  0  0  0  0  0
  -23.1588  -13.1471   22.4172 C   0  0  0  0  0  0  0  0  0  0  0  0
  -26.1984  -30.4349   21.3420 C   0  0  0  0  0  0  0  0  0  0  0  0
  -23.4479  -29.7594   19.7606 C   0  0  0  0  0  0  0  0  0  0  0  0
  -21.6469  -27.5368   17.8996 C   0  0  0  0  0  0  0  0  0  0  0  0
  -30.8968  -14.3069   20.6280 C   0  0  0  0  0  0  0  0  0  0  0  0
  -26.4713  -35.0438   23.5196 C   0  0  0  0  0  0  0  0  0  0  0  0
  -27.0769  -29.6967   19.0972 C   0  0  0  0  0  0  0  0  0  0  0  0
  -25.0323  -27.8334   20.1425 C   0  0  0  0  0  0  0  0  0  0  0  0
  -25.3633  -34.0307   23.2432 C   0  0  0  0  0  0  0  0  0  0  0  0
  -28.9098  -13.1569   17.7244 C   0  0  0  0  0  0  0  0  0  0  0  0
  -25.7872  -32.6383   23.6996 C   0  0  0  0  0  0  0  0  0  0  0  0
  -27.6115  -12.6833   18.3758 C   0  0  0  0  0  0  0  0  0  0  0  0
  -30.5309  -23.6227   19.1548 C   0  0  0  0  0  0  0  0  0  0  0  0
  -30.0987  -13.0306   18.6721 C   0  0  0  0  0  0  0  0  0  0  0  0
  -30.1797  -22.1568   18.9014 C   0  0  0  0  0  0  0  0  0  0  0  0
  -28.6041  -13.2407   20.6307 C   0  0  0  0  0  0  0  0  0  0  0  0
  -29.7606  -22.6906   21.2274 C   0  0  0  0  0  0  0  0  0  0  0  0
  -27.0260  -32.1597   22.9329 C   0  0  1  0  0  0  0  0  0  0  0  0
  -25.8740  -30.1899   19.8955 C   0  0  1  0  0  0  0  0  0  0  0  0
  -27.3786  -13.3983   19.7181 C   0  0  2  0  0  0  0  0  0  0  0  0
  -29.7250  -23.9730   20.3972 C   0  0  2  0  0  0  0  0  0  1  0  0
  -19.4162  -27.2521   16.7859 C   0  0  0  0  0  0  0  0  0  0  0  0
  -22.1608  -29.2381   22.4775 C   0  0  0  0  0  0  0  0  0  0  0  0
  -20.2922  -28.0691   21.2900 C   0  0  0  0  0  0  0  0  0  0  0  0
  -20.7183  -30.4895   20.8627 C   0  0  0  0  0  0  0  0  0  0  0  0
  -31.6530  -16.1068   22.1341 C   0  0  0  0  0  0  0  0  0  0  0  0
  -22.8864  -27.2650   15.2259 C   0  0  0  0  0  0  0  0  0  0  0  0
  -29.3015  -16.1178   21.3884 C   0  0  0  0  0  0  0  0  0  0  0  0
  -22.3252  -28.7671   19.9443 C   0  0  1  0  0  0  0  0  0  0  0  0
  -20.8574  -27.7062   16.6141 C   0  0  2  0  0  0  0  0  0  0  0  0
  -21.4011  -29.1325   21.1401 C   0  0  0  0  0  0  0  0  0  0  0  0
  -25.7105  -11.6558   20.2311 N   0  0  0  0  0  0  0  0  0  0  0  0
  -26.1064  -12.9290   20.3991 N   0  0  0  0  0  0  0  0  0  0  0  0
  -29.8887  -21.6271   20.2303 N   0  0  3  0  0  0  0  0  0  0  0  0
  -24.7506  -29.2512   19.8629 N   0  0  0  0  0  0  0  0  0  0  0  0
  -29.8340  -13.6815   19.9556 N   0  0  0  0  0  0  0  0  0  0  0  0
  -25.5266  -14.9619   21.4676 N   0  0  0  0  0  0  0  0  0  0  0  0
  -23.2950  -12.9695   23.8008 N   0  0  0  0  0  0  0  0  0  0  0  0
  -26.6578  -31.7109   21.6073 N   0  0  0  0  0  0  0  0  0  0  0  0
  -21.6372  -28.6868   18.6603 N   0  0  0  0  0  0  0  0  0  0  0  0
  -30.5835  -15.4176   21.4261 N   0  0  0  0  0  0  0  0  0  0  0  0
  -21.4745  -26.9070   15.5181 N   0  3  0  0  0  0  0  0  0  0  0  0
  -22.0733  -13.5754   21.9572 O   0  0  0  0  0  0  0  0  0  0  0  0
  -26.0420  -29.5336   22.1574 O   0  0  0  0  0  0  0  0  0  0  0  0
  -23.1790  -30.9405   19.5276 O   0  0  0  0  0  0  0  0  0  0  0  0
  -22.2124  -26.4879   18.2007 O   0  0  0  0  0  0  0  0  0  0  0  0
  -32.0607  -13.9017   20.5136 O   0  0  0  0  0  0  0  0  0  0  0  0
  -21.7120   -6.8026   21.2342 O   0  0  0  0  0  0  0  0  0  0  0  0
  -28.3780  -24.2649   20.0433 O   0  0  0  0  0  0  0  0  0  1  0  0
  -22.0432   -3.8823   25.8996 F   0  0  0  0  0  0  0  0  0  0  0  0
  -29.8665  -17.0826   18.7933 F   0  0  0  0  0  0  0  0  0  0  0  0
  -20.9038   -7.8858   23.6458 F   0  0  0  0  0  0  0  0  0  0  0  0
  1  2  1  0  0  0  0
  1  5  2  0  0  0  0
  2  6  2  0  0  0  0
  3 10  2  0  0  0  0
  3 18  1  0  0  0  0
  4 11  1  0  0  0  0
  4 18  2  0  0  0  0
  5 20  1  0  0  0  0
  6 22  1  0  0  0  0
  7 12  2  0  0  0  0
  7 21  1  0  0  0  0
  8  9  2  0  0  0  0
  8 24  1  0  0  0  0
  9 25  1  0  0  0  0
 10 26  1  0  0  0  0
 11 26  2  0  0  0  0
 12 27  1  0  0  0  0
 13 14  2  0  0  0  0
 13 28  1  0  0  0  0
 14 29  1  0  0  0  0
 15 23  1  0  0  0  0
 15 27  2  0  0  0  0
 16 25  2  0  0  0  0
 16 30  1  0  0  0  0
 17 29  2  0  0  0  0
 17 31  1  0  0  0  0
 18 32  1  0  0  0  0
 19 32  1  0  0  0  0
 19 33  2  0  0  0  0
 19 34  1  0  0  0  0
 20 22  2  0  0  0  0
 20 39  1  0  0  0  0
 21 23  2  0  0  0  0
 21 40  1  0  0  0  0
 22 51  1  0  0  0  0
 23 41  1  0  0  0  0
 24 30  2  0  0  0  0
 24 61  1  0  0  0  0
 25 67  1  0  0  0  0
 26 81  1  0  0  0  0
 27 82  1  0  0  0  0
 28 31  2  0  0  0  0
 28 81  1  0  0  0  0
 29 83  1  0  0  0  0
 30 84  1  0  0  0  0
 31 85  1  0  0  0  0
 32 65  2  0  0  0  0
 33 66  1  0  0  0  0
 33 70  1  0  0  0  0
 34 71  1  0  0  0  0
 34 76  2  0  0  0  0
 35 52  1  0  0  0  0
 35 72  1  0  0  0  0
 35 77  2  0  0  0  0
 36 62  1  0  0  0  0
 36 68  1  0  0  0  0
 36 78  2  0  0  0  0
 37 63  1  0  0  0  0
 37 73  1  0  0  0  0
 37 79  2  0  0  0  0
 38 69  1  0  0  0  0
 38 74  1  0  0  0  0
 38 80  2  0  0  0  0
 39 42  1  0  0  0  0
 40 52  1  0  0  0  0
 41 68  1  0  0  0  0
 42 44  1  0  0  0  0
 43 45  1  0  0  0  0
 43 47  1  0  0  0  0
 44 51  1  0  0  0  0
 45 53  1  0  0  0  0
 46 48  1  0  0  0  0
 46 54  1  0  0  0  0
 47 69  1  0  0  0  0
 48 67  1  0  0  0  0
 49 53  1  0  0  0  0
 49 69  1  0  0  0  0
 50 54  1  0  0  0  0
 50 67  1  0  0  0  0
 51 72  1  0  0  0  0
 52 68  1  0  0  0  0
 53 66  1  0  0  0  0
 54 82  1  0  0  0  0
 55 63  1  0  0  0  0
 56 64  1  0  0  0  0
 57 64  1  0  0  0  0
 58 64  1  0  0  0  0
 59 74  1  0  0  0  0
 60 75  1  0  0  0  0
 61 74  1  0  0  0  0
 62 64  1  0  0  0  0
 62 73  1  0  0  0  0
 63 75  1  0  0  0  0
 65 66  1  0  0  0  0
M  CHG  1  75   1
M  ISO  4  38 100  54 101  74 100  82 101
M  END
> <Batch ID>
0011

> <Smiles>
CNC(C)C(=O)NC(C(=O)N1Cc2cc([101O:1][101CH:1]3CCN(c4ccc(C[100N:0](C)[100C:0](=O)N5CCCC(n6nc(-c7ccc(Oc8ccc(F)cc8F)cc7)c(C(N)=O)c6N)C5)c(F)c4)C3)ccc2CC1C(=O)NC1CCCc2ccccc21)C(C)(C)C

> <Shape>
0.402

> <Color>
0.150

> <Negative vol penalty>
0.000

$$$$

  -OEChem-04042320433D

 83 92  0     1  0  0  0  0  0999 V2000
  -27.5490  -34.3165   25.5178 C   0  0  0  0  0  0  0  0  0  0  0  0
  -28.0726  -33.0487   25.2858 C   0  0  0  0  0  0  0  0  0  0  0  0
  -23.1626   -9.7560   19.9100 C   0  0  0  0  0  0  0  0  0  0  0  0
  -23.9124   -9.7760   22.2066 C   0  0  0  0  0  0  0  0  0  0  0  0
  -26.2331  -34.6028   25.1569 C   0  0  0  0  0  0  0  0  0  0  0  0
  -27.2802  -32.0660   24.6937 C   0  0  0  0  0  0  0  0  0  0  0  0
  -29.1225  -27.6817   20.8350 C   0  0  0  0  0  0  0  0  0  0  0  0
  -30.9477  -19.3500   20.7005 C   0  0  0  0  0  0  0  0  0  0  0  0
  -30.8454  -17.9591   20.6808 C   0  0  0  0  0  0  0  0  0  0  0  0
  -22.4747   -8.5656   20.1449 C   0  0  0  0  0  0  0  0  0  0  0  0
  -23.2244   -8.5855   22.4416 C   0  0  0  0  0  0  0  0  0  0  0  0
  -29.4390  -26.3372   21.0250 C   0  0  0  0  0  0  0  0  0  0  0  0
  -20.0366   -7.6256   23.0218 C   0  0  0  0  0  0  0  0  0  0  0  0
  -19.2780   -7.5367   24.1889 C   0  0  0  0  0  0  0  0  0  0  0  0
  -27.2010  -25.7236   20.3661 C   0  0  0  0  0  0  0  0  0  0  0  0
  -29.3027  -19.4461   22.4673 C   0  0  0  0  0  0  0  0  0  0  0  0
  -20.6093   -5.6543   24.9109 C   0  0  0  0  0  0  0  0  0  0  0  0
  -23.8815  -10.3613   20.9409 C   0  0  0  0  0  0  0  0  0  0  0  0
  -24.1006  -12.9011   20.8482 C   0  0  0  0  0  0  0  0  0  0  0  0
  -25.4271  -33.6259   24.5512 C   0  0  0  0  0  0  0  0  0  0  0  0
  -27.8375  -28.0585   20.4190 C   0  0  0  0  0  0  0  0  0  0  0  0
  -25.9518  -32.3390   24.3255 C   0  0  0  0  0  0  0  0  0  0  0  0
  -26.8715  -27.0733   20.1692 C   0  0  0  0  0  0  0  0  0  0  0  0
  -30.1764  -20.0935   21.5938 C   0  0  0  0  0  0  0  0  0  0  0  0
  -29.9717  -17.3116   21.5544 C   0  0  0  0  0  0  0  0  0  0  0  0
  -22.5056   -7.9803   21.4107 C   0  0  0  0  0  0  0  0  0  0  0  0
  -28.4773  -25.3581   20.7933 C   0  0  0  0  0  0  0  0  0  0  0  0
  -21.0815   -6.7288   22.7992 C   0  0  0  0  0  0  0  0  0  0  0  0
  -19.5643   -6.5511   25.1335 C   0  0  0  0  0  0  0  0  0  0  0  0
  -29.2004  -18.0551   22.4476 C   0  0  0  0  0  0  0  0  0  0  0  0
  -21.3679   -5.7432   23.7437 C   0  0  0  0  0  0  0  0  0  0  0  0
  -24.5927  -11.5907   20.6987 C   0  0  0  0  0  0  0  0  0  0  0  0
  -25.1564  -13.7065   20.4974 C   0  0  0  0  0  0  0  0  0  0  0  0
  -22.8049  -13.3502   21.2668 C   0  0  0  0  0  0  0  0  0  0  0  0
  -25.4986  -29.8105   21.6695 C   0  0  0  0  0  0  0  0  0  0  0  0
  -24.1193  -29.3325   18.7727 C   0  0  0  0  0  0  0  0  0  0  0  0
  -23.8767  -27.4143   15.9605 C   0  0  0  0  0  0  0  0  0  0  0  0
  -30.5646  -15.0146   20.7066 C   0  0  0  0  0  0  0  0  0  0  0  0
  -23.9957  -33.9680   24.2217 C   0  0  0  0  0  0  0  0  0  0  0  0
  -27.5200  -29.5113   20.1929 C   0  0  0  0  0  0  0  0  0  0  0  0
  -25.4834  -27.4242   19.7019 C   0  0  0  0  0  0  0  0  0  0  0  0
  -23.3405  -32.9828   23.2571 C   0  0  0  0  0  0  0  0  0  0  0  0
  -29.5780  -12.5743   18.3089 C   0  0  0  0  0  0  0  0  0  0  0  0
  -23.6263  -31.5468   23.6849 C   0  0  0  0  0  0  0  0  0  0  0  0
  -28.1526  -12.2087   18.7292 C   0  0  0  0  0  0  0  0  0  0  0  0
  -31.1393  -23.6438   21.3325 C   0  0  0  0  0  0  0  0  0  0  0  0
  -30.4762  -12.8348   19.5168 C   0  0  0  0  0  0  0  0  0  0  0  0
  -31.1624  -22.2347   20.7404 C   0  0  0  0  0  0  0  0  0  0  0  0
  -28.5310  -13.4513   20.8971 C   0  0  0  0  0  0  0  0  0  0  0  0
  -29.5082  -22.3341   22.5080 C   0  0  0  0  0  0  0  0  0  0  0  0
  -25.1313  -31.2538   23.6627 C   0  0  1  0  0  0  0  0  0  0  0  0
  -26.0265  -29.8144   20.2627 C   0  0  1  0  0  0  0  0  0  0  0  0
  -27.5723  -13.2433   19.7133 C   0  0  2  0  0  0  0  0  0  0  0  0
  -29.7600  -23.7412   21.9679 C   0  0  2  0  0  0  0  0  0  1  0  0
  -22.6355  -27.2556   13.7853 C   0  0  0  0  0  0  0  0  0  0  0  0
  -21.6615  -28.2954   20.2537 C   0  0  0  0  0  0  0  0  0  0  0  0
  -20.8730  -27.2921   18.0997 C   0  0  0  0  0  0  0  0  0  0  0  0
  -21.1558  -29.7630   18.2929 C   0  0  0  0  0  0  0  0  0  0  0  0
  -26.3705  -27.6620   14.3860 C   0  0  0  0  0  0  0  0  0  0  0  0
  -23.2046  -28.2858   18.1838 C   0  0  1  0  0  0  0  0  0  0  0  0
  -23.8776  -27.7815   14.4875 C   0  0  2  0  0  0  0  0  0  0  0  0
  -21.7492  -28.4023   18.7182 C   0  0  0  0  0  0  0  0  0  0  0  0
  -25.8624  -11.5608   20.2850 N   0  0  0  0  0  0  0  0  0  0  0  0
  -26.1769  -12.8624   20.1714 N   0  0  0  0  0  0  0  0  0  0  0  0
  -30.2780  -21.4687   21.6135 N   0  0  3  0  0  0  0  0  0  0  0  0
  -25.2196  -28.8587   19.5013 N   0  0  0  0  0  0  0  0  0  0  0  0
  -29.8644  -13.8280   20.4023 N   0  0  0  0  0  0  0  0  0  0  0  0
  -25.3021  -15.0473   20.4389 N   0  0  0  0  0  0  0  0  0  0  0  0
  -21.8371  -12.3895   21.5904 N   0  0  0  0  0  0  0  0  0  0  0  0
  -29.8698  -15.8985   21.5316 N   0  0  0  0  0  0  0  0  0  0  0  0
  -25.5836  -31.0343   22.3056 N   0  0  0  0  0  0  0  0  0  0  0  0
  -23.3210  -28.4106   16.7349 N   0  0  0  0  0  0  0  0  0  0  0  0
  -25.0769  -27.2102   13.8120 N   0  3  0  0  0  0  0  0  0  0  0  0
  -22.5089  -14.5673   21.3357 O   0  0  0  0  0  0  0  0  0  0  0  0
  -25.0463  -28.7744   22.1423 O   0  0  0  0  0  0  0  0  0  0  0  0
  -23.8709  -30.5263   18.5869 O   0  0  0  0  0  0  0  0  0  0  0  0
  -24.3210  -26.3485   16.3815 O   0  0  0  0  0  0  0  0  0  0  0  0
  -31.6859  -15.2428   20.2457 O   0  0  0  0  0  0  0  0  0  0  0  0
  -21.8343   -6.8188   21.6403 O   0  0  0  0  0  0  0  0  0  0  0  0
  -28.7834  -24.0452   20.9786 O   0  0  0  0  0  0  0  0  0  1  0  0
  -18.8367   -6.4668   26.2549 F   0  0  0  0  0  0  0  0  0  0  0  0
  -28.3571  -17.4432   23.2914 F   0  0  0  0  0  0  0  0  0  0  0  0
  -22.3713   -4.8795   23.5360 F   0  0  0  0  0  0  0  0  0  0  0  0
  1  2  1  0  0  0  0
  1  5  2  0  0  0  0
  2  6  2  0  0  0  0
  3 10  2  0  0  0  0
  3 18  1  0  0  0  0
  4 11  1  0  0  0  0
  4 18  2  0  0  0  0
  5 20  1  0  0  0  0
  6 22  1  0  0  0  0
  7 12  2  0  0  0  0
  7 21  1  0  0  0  0
  8  9  2  0  0  0  0
  8 24  1  0  0  0  0
  9 25  1  0  0  0  0
 10 26  1  0  0  0  0
 11 26  2  0  0  0  0
 12 27  1  0  0  0  0
 13 14  2  0  0  0  0
 13 28  1  0  0  0  0
 14 29  1  0  0  0  0
 15 23  1  0  0  0  0
 15 27  2  0  0  0  0
 16 24  2  0  0  0  0
 16 30  1  0  0  0  0
 17 29  2  0  0  0  0
 17 31  1  0  0  0  0
 18 32  1  0  0  0  0
 19 32  1  0  0  0  0
 19 33  2  0  0  0  0
 19 34  1  0  0  0  0
 20 22  2  0  0  0  0
 20 39  1  0  0  0  0
 21 23  2  0  0  0  0
 21 40  1  0  0  0  0
 22 51  1  0  0  0  0
 23 41  1  0  0  0  0
 24 65  1  0  0  0  0
 25 30  2  0  0  0  0
 25 70  1  0  0  0  0
 26 79  1  0  0  0  0
 27 80  1  0  0  0  0
 28 31  2  0  0  0  0
 28 79  1  0  0  0  0
 29 81  1  0  0  0  0
 30 82  1  0  0  0  0
 31 83  1  0  0  0  0
 32 63  2  0  0  0  0
 33 64  1  0  0  0  0
 33 68  1  0  0  0  0
 34 69  1  0  0  0  0
 34 74  2  0  0  0  0
 35 52  1  0  0  0  0
 35 71  1  0  0  0  0
 35 75  2  0  0  0  0
 36 60  1  0  0  0  0
 36 66  1  0  0  0  0
 36 76  2  0  0  0  0
 37 61  1  0  0  0  0
 37 72  1  0  0  0  0
 37 77  2  0  0  0  0
 38 67  1  0  0  0  0
 38 70  1  0  0  0  0
 38 78  2  0  0  0  0
 39 42  1  0  0  0  0
 40 52  1  0  0  0  0
 41 66  1  0  0  0  0
 42 44  1  0  0  0  0
 43 45  1  0  0  0  0
 43 47  1  0  0  0  0
 44 51  1  0  0  0  0
 45 53  1  0  0  0  0
 46 48  1  0  0  0  0
 46 54  1  0  0  0  0
 47 67  1  0  0  0  0
 48 65  1  0  0  0  0
 49 53  1  0  0  0  0
 49 67  1  0  0  0  0
 50 54  1  0  0  0  0
 50 65  1  0  0  0  0
 51 71  1  0  0  0  0
 52 66  1  0  0  0  0
 53 64  1  0  0  0  0
 54 80  1  0  0  0  0
 55 61  1  0  0  0  0
 56 62  1  0  0  0  0
 57 62  1  0  0  0  0
 58 62  1  0  0  0  0
 59 73  1  0  0  0  0
 60 62  1  0  0  0  0
 60 72  1  0  0  0  0
 61 73  1  0  0  0  0
 63 64  1  0  0  0  0
M  CHG  1  73   1
M  ISO  4  38 100  54 101  70 100  80 101
M  END
> <Batch ID>
0011

> <Smiles>
CNC(C)C(=O)NC(C(=O)N1Cc2cc([101O:1][101CH:1]3CCN(c4ccc([100NH:0][100C:0](=O)N5CCCC(n6nc(-c7ccc(Oc8ccc(F)cc8F)cc7)c(C(N)=O)c6N)C5)c(F)c4)C3)ccc2CC1C(=O)NC1CCCc2ccccc21)C(C)(C)C

> <Shape>
0.353

> <Color>
0.208

> <Negative vol penalty>
0.000

$$$$

  -OEChem-04042320433D

 82 90  0     1  0  0  0  0  0999 V2000
  -30.4709   -2.9207   37.7930 C   0  0  0  0  0  0  0  0  0  0  0  0
  -30.5227   -3.5804   36.5693 C   0  0  0  0  0  0  0  0  0  0  0  0
  -23.1875   -9.8187   19.9306 C   0  0  0  0  0  0  0  0  0  0  0  0
  -23.5617   -9.9993   22.3106 C   0  0  0  0  0  0  0  0  0  0  0  0
  -29.6904   -1.7738   37.9329 C   0  0  0  0  0  0  0  0  0  0  0  0
  -29.7949   -3.0929   35.4843 C   0  0  0  0  0  0  0  0  0  0  0  0
  -27.0954   -6.3872   31.0836 C   0  0  0  0  0  0  0  0  0  0  0  0
  -28.2226  -11.5146   25.3765 C   0  0  0  0  0  0  0  0  0  0  0  0
  -28.3093  -10.3157   23.2807 C   0  0  0  0  0  0  0  0  0  0  0  0
  -22.4192   -8.6732   20.1382 C   0  0  0  0  0  0  0  0  0  0  0  0
  -22.7933   -8.8538   22.5183 C   0  0  0  0  0  0  0  0  0  0  0  0
  -27.4871   -6.7210   29.7879 C   0  0  0  0  0  0  0  0  0  0  0  0
  -27.5110  -10.4609   25.9499 C   0  0  0  0  0  0  0  0  0  0  0  0
  -27.5977   -9.2619   23.8542 C   0  0  0  0  0  0  0  0  0  0  0  0
  -23.1900   -5.5064   22.2559 C   0  0  0  0  0  0  0  0  0  0  0  0
  -23.6853   -4.5446   23.1364 C   0  0  0  0  0  0  0  0  0  0  0  0
  -26.2092   -4.8638   28.9295 C   0  0  0  0  0  0  0  0  0  0  0  0
  -21.7266   -4.8079   24.5260 C   0  0  0  0  0  0  0  0  0  0  0  0
  -23.7588  -10.4817   21.0168 C   0  0  0  0  0  0  0  0  0  0  0  0
  -24.1016  -12.9978   20.7729 C   0  0  0  0  0  0  0  0  0  0  0  0
  -28.9451   -1.2776   36.8517 C   0  0  0  0  0  0  0  0  0  0  0  0
  -26.2651   -5.2808   31.3134 C   0  0  0  0  0  0  0  0  0  0  0  0
  -29.0048   -1.9376   35.6095 C   0  0  0  0  0  0  0  0  0  0  0  0
  -25.8063   -4.5196   30.2288 C   0  0  0  0  0  0  0  0  0  0  0  0
  -28.6217  -11.4420   24.0418 C   0  0  0  0  0  0  0  0  0  0  0  0
  -22.2221   -8.1908   21.4321 C   0  0  0  0  0  0  0  0  0  0  0  0
  -27.1986   -9.3345   25.1888 C   0  0  0  0  0  0  0  0  0  0  0  0
  -27.0464   -5.9576   28.7108 C   0  0  0  0  0  0  0  0  0  0  0  0
  -21.9630   -6.1190   22.5105 C   0  0  0  0  0  0  0  0  0  0  0  0
  -22.9536   -4.1953   24.2713 C   0  0  0  0  0  0  0  0  0  0  0  0
  -21.2312   -5.7697   23.6455 C   0  0  0  0  0  0  0  0  0  0  0  0
  -24.5531  -11.6647   20.8029 C   0  0  0  0  0  0  0  0  0  0  0  0
  -25.2343  -13.7387   20.5395 C   0  0  0  0  0  0  0  0  0  0  0  0
  -22.7768  -13.5197   20.9411 C   0  0  0  0  0  0  0  0  0  0  0  0
  -26.5625   -2.5449   32.9041 C   0  0  0  0  0  0  0  0  0  0  0  0
  -23.4290   -2.2086   32.1357 C   0  0  0  0  0  0  0  0  0  0  0  0
  -20.8545   -3.0213   30.0481 C   0  0  0  0  0  0  0  0  0  0  0  0
  -31.0725  -12.1997   21.5814 C   0  0  0  0  0  0  0  0  0  0  0  0
  -28.1532   -0.0076   37.0380 C   0  0  0  0  0  0  0  0  0  0  0  0
  -25.8298   -4.9498   32.7146 C   0  0  0  0  0  0  0  0  0  0  0  0
  -24.8971   -3.3341   30.4201 C   0  0  0  0  0  0  0  0  0  0  0  0
  -27.1170    0.2303   35.9426 C   0  0  0  0  0  0  0  0  0  0  0  0
  -29.5325  -13.4784   18.4677 C   0  0  0  0  0  0  0  0  0  0  0  0
  -27.7314   -0.0047   34.5664 C   0  0  0  0  0  0  0  0  0  0  0  0
  -28.0472  -13.2005   18.6923 C   0  0  0  0  0  0  0  0  0  0  0  0
  -30.4151  -12.4869   19.2199 C   0  0  0  0  0  0  0  0  0  0  0  0
  -28.6382  -12.1282   20.9016 C   0  0  0  0  0  0  0  0  0  0  0  0
  -28.2100   -1.4538   34.4160 C   0  0  1  0  0  0  0  0  0  0  0  0
  -25.3991   -3.4955   32.8787 C   0  0  1  0  0  0  0  0  0  0  0  0
  -27.7217  -13.1381   20.1948 C   0  0  2  0  0  0  0  0  0  0  0  0
  -18.4199   -2.5604   29.6507 C   0  0  0  0  0  0  0  0  0  0  0  0
  -24.1395    0.5142   30.9560 C   0  0  0  0  0  0  0  0  0  0  0  0
  -21.9384    0.4940   29.7632 C   0  0  0  0  0  0  0  0  0  0  0  0
  -22.0041    0.4660   32.2567 C   0  0  0  0  0  0  0  0  0  0  0  0
  -31.7109  -11.9384   23.9487 C   0  0  0  0  0  0  0  0  0  0  0  0
  -20.1328   -5.8645   30.4413 C   0  0  0  0  0  0  0  0  0  0  0  0
  -29.3831  -12.5683   23.4288 C   0  0  0  0  0  0  0  0  0  0  0  0
  -26.7594   -6.9978   25.2394 C   0  0  0  0  0  0  0  0  0  0  0  0
  -26.5426   -5.9788   26.3413 C   0  0  0  0  0  0  0  0  0  1  0  0
  -22.6710   -1.6093   30.9758 C   0  0  1  0  0  0  0  0  0  0  0  0
  -19.4319   -3.4696   30.3303 C   0  0  2  0  0  0  0  0  0  0  0  0
  -22.7069   -0.0549   30.9842 C   0  0  0  0  0  0  0  0  0  0  0  0
  -25.8699  -11.5617   20.6042 N   0  0  0  0  0  0  0  0  0  0  0  0
  -26.2555  -12.8394   20.4471 N   0  0  0  0  0  0  0  0  0  0  0  0
  -24.5045   -3.0469   31.8097 N   0  0  0  0  0  0  0  0  0  0  0  0
  -30.0559  -12.4156   20.6366 N   0  0  0  0  0  0  0  0  0  0  0  0
  -25.4464  -15.0653   20.4063 N   0  0  0  0  0  0  0  0  0  0  0  0
  -21.7284  -12.6190   21.1735 N   0  0  0  0  0  0  0  0  0  0  0  0
  -27.0884   -2.3330   34.1643 N   0  0  0  0  0  0  0  0  0  0  0  0
  -21.3278   -2.1762   31.0294 N   0  0  0  0  0  0  0  0  0  0  0  0
  -30.6912  -12.1487   22.9308 N   0  0  0  0  0  0  0  0  0  0  0  0
  -19.2196   -4.8601   29.8378 N   0  3  0  0  0  0  0  0  0  0  0  0
  -22.5275  -14.7470   20.8706 O   0  0  0  0  0  0  0  0  0  0  0  0
  -26.9531   -2.0400   31.8581 O   0  0  0  0  0  0  0  0  0  0  0  0
  -23.0752   -1.9484   33.2884 O   0  0  0  0  0  0  0  0  0  0  0  0
  -21.4817   -3.3816   29.0544 O   0  0  0  0  0  0  0  0  0  0  0  0
  -32.2549  -12.0701   21.2392 O   0  0  0  0  0  0  0  0  0  0  0  0
  -21.4722   -7.0732   21.6351 O   0  0  0  0  0  0  0  0  0  0  0  0
  -26.5007   -8.2991   25.7526 O   0  0  0  0  0  0  0  0  0  0  0  0
  -27.4277   -6.2809   27.4452 O   0  0  0  0  0  0  0  0  0  1  0  0
  -23.4287   -3.2706   25.1159 F   0  0  0  0  0  0  0  0  0  0  0  0
  -20.0512   -6.3540   23.8948 F   0  0  0  0  0  0  0  0  0  0  0  0
  1  2  1  0  0  0  0
  1  5  2  0  0  0  0
  2  6  2  0  0  0  0
  3 10  2  0  0  0  0
  3 19  1  0  0  0  0
  4 11  1  0  0  0  0
  4 19  2  0  0  0  0
  5 21  1  0  0  0  0
  6 23  1  0  0  0  0
  7 12  2  0  0  0  0
  7 22  1  0  0  0  0
  8 13  2  0  0  0  0
  8 25  1  0  0  0  0
  9 14  1  0  0  0  0
  9 25  2  0  0  0  0
 10 26  1  0  0  0  0
 11 26  2  0  0  0  0
 12 28  1  0  0  0  0
 13 27  1  0  0  0  0
 14 27  2  0  0  0  0
 15 16  2  0  0  0  0
 15 29  1  0  0  0  0
 16 30  1  0  0  0  0
 17 24  1  0  0  0  0
 17 28  2  0  0  0  0
 18 30  2  0  0  0  0
 18 31  1  0  0  0  0
 19 32  1  0  0  0  0
 20 32  1  0  0  0  0
 20 33  2  0  0  0  0
 20 34  1  0  0  0  0
 21 23  2  0  0  0  0
 21 39  1  0  0  0  0
 22 24  2  0  0  0  0
 22 40  1  0  0  0  0
 23 48  1  0  0  0  0
 24 41  1  0  0  0  0
 25 57  1  0  0  0  0
 26 78  1  0  0  0  0
 27 79  1  0  0  0  0
 28 80  1  0  0  0  0
 29 31  2  0  0  0  0
 29 78  1  0  0  0  0
 30 81  1  0  0  0  0
 31 82  1  0  0  0  0
 32 63  2  0  0  0  0
 33 64  1  0  0  0  0
 33 67  1  0  0  0  0
 34 68  1  0  0  0  0
 34 73  2  0  0  0  0
 35 49  1  0  0  0  0
 35 69  1  0  0  0  0
 35 74  2  0  0  0  0
 36 60  1  0  0  0  0
 36 65  1  0  0  0  0
 36 75  2  0  0  0  0
 37 61  1  0  0  0  0
 37 70  1  0  0  0  0
 37 76  2  0  0  0  0
 38 66  1  0  0  0  0
 38 71  1  0  0  0  0
 38 77  2  0  0  0  0
 39 42  1  0  0  0  0
 40 49  1  0  0  0  0
 41 65  1  0  0  0  0
 42 44  1  0  0  0  0
 43 45  1  0  0  0  0
 43 46  1  0  0  0  0
 44 48  1  0  0  0  0
 45 50  1  0  0  0  0
 46 66  1  0  0  0  0
 47 50  1  0  0  0  0
 47 66  1  0  0  0  0
 48 69  1  0  0  0  0
 49 65  1  0  0  0  0
 50 64  1  0  0  0  0
 51 61  1  0  0  0  0
 52 62  1  0  0  0  0
 53 62  1  0  0  0  0
 54 62  1  0  0  0  0
 55 71  1  0  0  0  0
 56 72  1  0  0  0  0
 57 71  1  0  0  0  0
 58 59  1  0  0  0  0
 58 79  1  0  0  0  0
 59 80  1  0  0  0  0
 60 62  1  0  0  0  0
 60 70  1  0  0  0  0
 61 72  1  0  0  0  0
 63 64  1  0  0  0  0
M  CHG  1  72   1
M  ISO  4  38 100  59 101  71 100  80 101
M  END
> <Batch ID>
0011

> <Smiles>
CNC(C)C(=O)NC(C(=O)N1Cc2cc([101O:1][101CH2:1]COc3ccc(C[100N:0](C)[100C:0](=O)N4CCCC(n5nc(-c6ccc(Oc7ccc(F)cc7F)cc6)c(C(N)=O)c5N)C4)cc3)ccc2CC1C(=O)NC1CCCc2ccccc21)C(C)(C)C

> <Shape>
0.140

> <Color>
0.190

> <Negative vol penalty>
0.000

$$$$

  -OEChem-04042320433D

 83 92  0     1  0  0  0  0  0999 V2000
  -30.1797  -25.4715   17.5913 C   0  0  0  0  0  0  0  0  0  0  0  0
  -28.7916  -25.5253   17.6662 C   0  0  0  0  0  0  0  0  0  0  0  0
  -21.7197  -24.5936   25.1137 C   0  0  0  0  0  0  0  0  0  0  0  0
  -24.0803  -16.8723   18.3119 C   0  0  0  0  0  0  0  0  0  0  0  0
  -26.4098  -16.5572   17.7540 C   0  0  0  0  0  0  0  0  0  0  0  0
  -30.9526  -25.9345   18.6553 C   0  0  0  0  0  0  0  0  0  0  0  0
  -28.1755  -26.0413   18.8058 C   0  0  0  0  0  0  0  0  0  0  0  0
  -22.9687  -29.2569   19.0397 C   0  0  0  0  0  0  0  0  0  0  0  0
  -22.9035  -24.0084   24.6553 C   0  0  0  0  0  0  0  0  0  0  0  0
  -20.7362  -25.0242   24.2114 C   0  0  0  0  0  0  0  0  0  0  0  0
  -23.7205  -16.5108   17.0137 C   0  0  0  0  0  0  0  0  0  0  0  0
  -26.0500  -16.1956   16.4557 C   0  0  0  0  0  0  0  0  0  0  0  0
  -21.6550  -28.8946   19.3342 C   0  0  0  0  0  0  0  0  0  0  0  0
  -25.7226  -14.8408   13.0978 C   0  0  0  0  0  0  0  0  0  0  0  0
  -26.3439  -13.7240   12.5391 C   0  0  0  0  0  0  0  0  0  0  0  0
  -21.9792  -29.5985   21.6186 C   0  0  0  0  0  0  0  0  0  0  0  0
  -25.4625  -12.3446   14.3161 C   0  0  0  0  0  0  0  0  0  0  0  0
  -25.4250  -16.8956   18.6820 C   0  0  0  0  0  0  0  0  0  0  0  0
  -25.9480  -16.4165   21.1325 C   0  0  0  0  0  0  0  0  0  0  0  0
  -30.3459  -26.4653   19.8045 C   0  0  0  0  0  0  0  0  0  0  0  0
  -23.8023  -29.7834   20.0369 C   0  0  0  0  0  0  0  0  0  0  0  0
  -28.9410  -26.5106   19.8868 C   0  0  0  0  0  0  0  0  0  0  0  0
  -23.3023  -29.9690   21.3336 C   0  0  0  0  0  0  0  0  0  0  0  0
  -22.0966  -24.2880   22.3909 C   0  0  0  0  0  0  0  0  0  0  0  0
  -23.0785  -23.8616   23.2870 C   0  0  0  0  0  0  0  0  0  0  0  0
  -20.9231  -24.8757   22.8368 C   0  0  0  0  0  0  0  0  0  0  0  0
  -24.7053  -16.1724   16.0856 C   0  0  0  0  0  0  0  0  0  0  0  0
  -21.1609  -29.0627   20.6244 C   0  0  0  0  0  0  0  0  0  0  0  0
  -24.9713  -14.7096   14.2658 C   0  0  0  0  0  0  0  0  0  0  0  0
  -26.2138  -12.4759   13.1482 C   0  0  0  0  0  0  0  0  0  0  0  0
  -24.8412  -13.4616   14.8749 C   0  0  0  0  0  0  0  0  0  0  0  0
  -25.7975  -17.2695   20.0228 C   0  0  0  0  0  0  0  0  0  0  0  0
  -26.3084  -17.2519   22.1614 C   0  0  0  0  0  0  0  0  0  0  0  0
  -25.7775  -14.9959   21.2249 C   0  0  0  0  0  0  0  0  0  0  0  0
  -26.5316  -28.8748   21.3895 C   0  0  0  0  0  0  0  0  0  0  0  0
  -26.3218  -31.7670   22.8432 C   0  0  0  0  0  0  0  0  0  0  0  0
  -24.3480  -34.3457   23.8928 C   0  0  0  0  0  0  0  0  0  0  0  0
  -25.4331  -23.0803   23.1354 C   0  0  0  0  0  0  0  0  0  0  0  0
  -31.2223  -26.9100   20.9486 C   0  0  0  0  0  0  0  0  0  0  0  0
  -25.2087  -30.1941   19.6967 C   0  0  0  0  0  0  0  0  0  0  0  0
  -22.5299  -24.0919   20.9740 C   0  0  0  0  0  0  0  0  0  0  0  0
  -24.1503  -30.5490   22.4350 C   0  0  0  0  0  0  0  0  0  0  0  0
  -30.4973  -27.7875   21.9658 C   0  0  0  0  0  0  0  0  0  0  0  0
  -28.5260  -21.3757   23.0560 C   0  0  0  0  0  0  0  0  0  0  0  0
  -29.1454  -27.1805   22.3271 C   0  0  0  0  0  0  0  0  0  0  0  0
  -28.2105  -20.0636   22.3431 C   0  0  0  0  0  0  0  0  0  0  0  0
  -23.7913  -23.2372   21.1513 C   0  0  0  0  0  0  0  0  0  0  0  0
  -27.7433  -22.5269   22.4394 C   0  0  0  0  0  0  0  0  0  0  0  0
  -25.9084  -20.9948   21.7705 C   0  0  0  0  0  0  0  0  0  0  0  0
  -28.2362  -27.0862   21.0959 C   0  0  1  0  0  0  0  0  0  0  0  0
  -26.1282  -30.2416   20.9132 C   0  0  1  0  0  0  0  0  0  0  0  0
  -26.6969  -19.7986   22.3421 C   0  0  1  0  0  0  0  0  0  0  0  0
  -24.4576  -36.5520   25.0834 C   0  0  0  0  0  0  0  0  0  0  0  0
  -26.6365  -30.3115   25.5063 C   0  0  0  0  0  0  0  0  0  0  0  0
  -25.7996  -32.3738   26.6529 C   0  0  0  0  0  0  0  0  0  0  0  0
  -27.9138  -32.4545   25.3314 C   0  0  0  0  0  0  0  0  0  0  0  0
  -23.2997  -35.8000   21.5380 C   0  0  0  0  0  0  0  0  0  0  0  0
  -18.3116  -26.8916   21.0362 C   0  0  0  0  0  0  0  0  0  0  0  0
  -18.9432  -26.2907   22.2861 C   0  0  0  0  0  0  0  0  0  0  0  0
  -19.3137  -27.6376   20.1631 C   0  0  0  0  0  0  0  0  0  1  0  0
  -25.7012  -32.2790   24.1206 C   0  0  1  0  0  0  0  0  0  0  0  0
  -24.4868  -35.8492   23.7351 C   0  0  2  0  0  0  0  0  0  0  0  0
  -26.4971  -31.8419   25.3827 C   0  0  0  0  0  0  0  0  0  0  0  0
  -26.0420  -18.5488   20.3189 N   0  0  0  0  0  0  0  0  0  0  0  0
  -26.3498  -18.5058   21.6264 N   0  0  0  0  0  0  0  0  0  0  0  0
  -24.1679  -23.2973   22.5854 N   0  0  0  0  0  0  0  0  0  0  0  0
  -25.5207  -30.9293   22.0543 N   0  0  0  0  0  0  0  0  0  0  0  0
  -26.3057  -22.2541   22.4117 N   0  0  0  0  0  0  0  0  0  0  0  0
  -26.5906  -17.0290   23.4626 N   0  0  0  0  0  0  0  0  0  0  0  0
  -25.4052  -14.2912   20.0720 N   0  0  0  0  0  0  0  0  0  0  0  0
  -19.9408  -25.3246   21.9356 N   0  0  0  0  0  0  0  0  0  0  0  0
  -27.6717  -28.3819   20.7841 N   0  0  0  0  0  0  0  0  0  0  0  0
  -25.5768  -33.7240   23.9634 N   0  0  0  0  0  0  0  0  0  0  0  0
  -23.3755  -36.3872   22.9005 N   0  3  0  0  0  0  0  0  0  0  0  0
  -25.9341  -14.3721   22.3019 O   0  0  0  0  0  0  0  0  0  0  0  0
  -25.8590  -28.3099   22.2441 O   0  0  0  0  0  0  0  0  0  0  0  0
  -27.4722  -32.1039   22.5524 O   0  0  0  0  0  0  0  0  0  0  0  0
  -23.2586  -33.7798   23.9514 O   0  0  0  0  0  0  0  0  0  0  0  0
  -25.8083  -23.6387   24.1737 O   0  0  0  0  0  0  0  0  0  0  0  0
  -24.3545  -15.8193   14.8188 O   0  0  0  0  0  0  0  0  0  0  0  0
  -19.8701  -28.7068   20.9167 O   0  0  0  0  0  0  0  0  0  1  0  0
  -26.8093  -11.4031   12.6107 F   0  0  0  0  0  0  0  0  0  0  0  0
  -24.1197  -13.3291   15.9963 F   0  0  0  0  0  0  0  0  0  0  0  0
  1  2  1  0  0  0  0
  1  6  2  0  0  0  0
  2  7  2  0  0  0  0
  3  9  1  0  0  0  0
  3 10  2  0  0  0  0
  4 11  2  0  0  0  0
  4 18  1  0  0  0  0
  5 12  1  0  0  0  0
  5 18  2  0  0  0  0
  6 20  1  0  0  0  0
  7 22  1  0  0  0  0
  8 13  2  0  0  0  0
  8 21  1  0  0  0  0
  9 25  2  0  0  0  0
 10 26  1  0  0  0  0
 11 27  1  0  0  0  0
 12 27  2  0  0  0  0
 13 28  1  0  0  0  0
 14 15  2  0  0  0  0
 14 29  1  0  0  0  0
 15 30  1  0  0  0  0
 16 23  1  0  0  0  0
 16 28  2  0  0  0  0
 17 30  2  0  0  0  0
 17 31  1  0  0  0  0
 18 32  1  0  0  0  0
 19 32  1  0  0  0  0
 19 33  2  0  0  0  0
 19 34  1  0  0  0  0
 20 22  2  0  0  0  0
 20 39  1  0  0  0  0
 21 23  2  0  0  0  0
 21 40  1  0  0  0  0
 22 50  1  0  0  0  0
 23 42  1  0  0  0  0
 24 25  1  0  0  0  0
 24 26  2  0  0  0  0
 24 41  1  0  0  0  0
 25 66  1  0  0  0  0
 26 71  1  0  0  0  0
 27 80  1  0  0  0  0
 28 81  1  0  0  0  0
 29 31  2  0  0  0  0
 29 80  1  0  0  0  0
 30 82  1  0  0  0  0
 31 83  1  0  0  0  0
 32 64  2  0  0  0  0
 33 65  1  0  0  0  0
 33 69  1  0  0  0  0
 34 70  1  0  0  0  0
 34 75  2  0  0  0  0
 35 51  1  0  0  0  0
 35 72  1  0  0  0  0
 35 76  2  0  0  0  0
 36 61  1  0  0  0  0
 36 67  1  0  0  0  0
 36 77  2  0  0  0  0
 37 62  1  0  0  0  0
 37 73  1  0  0  0  0
 37 78  2  0  0  0  0
 38 66  1  0  0  0  0
 38 68  1  0  0  0  0
 38 79  2  0  0  0  0
 39 43  1  0  0  0  0
 40 51  1  0  0  0  0
 41 47  1  0  0  0  0
 42 67  1  0  0  0  0
 43 45  1  0  0  0  0
 44 46  1  0  0  0  0
 44 48  1  0  0  0  0
 45 50  1  0  0  0  0
 46 52  1  0  0  0  0
 47 66  1  0  0  0  0
 48 68  1  0  0  0  0
 49 52  1  0  0  0  0
 49 68  1  0  0  0  0
 50 72  1  0  0  0  0
 51 67  1  0  0  0  0
 52 65  1  0  0  0  0
 53 62  1  0  0  0  0
 54 63  1  0  0  0  0
 55 63  1  0  0  0  0
 56 63  1  0  0  0  0
 57 74  1  0  0  0  0
 58 59  1  0  0  0  0
 58 60  1  0  0  0  0
 59 71  1  0  0  0  0
 60 81  1  0  0  0  0
 61 63  1  0  0  0  0
 61 73  1  0  0  0  0
 62 74  1  0  0  0  0
 64 65  1  0  0  0  0
M  CHG  1  74   1
M  ISO  4  38 100  60 101  66 100  81 101
M  END
> <Batch ID>
0011

> <Smiles>
CNC(C)C(=O)NC(C(=O)N1Cc2cc([101O:1][101CH2:1]CCNc3cccc4c3CC[100N:0]4[100C:0](=O)N3CCCC(n4nc(-c5ccc(Oc6ccc(F)cc6F)cc5)c(C(N)=O)c4N)C3)ccc2CC1C(=O)NC1CCCc2ccccc21)C(C)(C)C

> <Shape>
0.228

> <Color>
0.061

> <Negative vol penalty>
0.000

$$$$

  -OEChem-04042320433D

 85 93  0     1  0  0  0  0  0999 V2000
  -30.2906  -24.3966   18.2256 C   0  0  0  0  0  0  0  0  0  0  0  0
  -28.9025  -24.4230   18.3142 C   0  0  0  0  0  0  0  0  0  0  0  0
  -26.7724  -13.5978   20.0597 C   0  0  0  0  0  0  0  0  0  0  0  0
  -24.3841  -13.9526   19.9747 C   0  0  0  0  0  0  0  0  0  0  0  0
  -21.2865  -23.6985   21.6682 C   0  0  0  0  0  0  0  0  0  0  0  0
  -20.0038  -21.9710   20.5693 C   0  0  0  0  0  0  0  0  0  0  0  0
  -31.0628  -25.0007   19.2169 C   0  0  0  0  0  0  0  0  0  0  0  0
  -28.2858  -25.0527   19.3947 C   0  0  0  0  0  0  0  0  0  0  0  0
  -22.9959  -28.1380   19.3284 C   0  0  0  0  0  0  0  0  0  0  0  0
  -22.4619  -23.1566   21.1481 C   0  0  0  0  0  0  0  0  0  0  0  0
  -21.1792  -21.4292   20.0491 C   0  0  0  0  0  0  0  0  0  0  0  0
  -26.5768  -12.4733   20.8614 C   0  0  0  0  0  0  0  0  0  0  0  0
  -24.1885  -12.8280   20.7764 C   0  0  0  0  0  0  0  0  0  0  0  0
  -21.6961  -27.7789   19.6823 C   0  0  0  0  0  0  0  0  0  0  0  0
  -24.1544   -9.4710   20.3899 C   0  0  0  0  0  0  0  0  0  0  0  0
  -23.1515   -8.5767   20.0157 C   0  0  0  0  0  0  0  0  0  0  0  0
  -22.0274  -28.7533   21.8641 C   0  0  0  0  0  0  0  0  0  0  0  0
  -22.0347   -8.9462   22.1260 C   0  0  0  0  0  0  0  0  0  0  0  0
  -25.6760  -14.3375   19.6164 C   0  0  0  0  0  0  0  0  0  0  0  0
  -20.0575  -23.1056   21.3789 C   0  0  0  0  0  0  0  0  0  0  0  0
  -25.9337  -15.5424   17.3826 C   0  0  0  0  0  0  0  0  0  0  0  0
  -30.4551  -25.6465   20.3052 C   0  0  0  0  0  0  0  0  0  0  0  0
  -23.8264  -28.7989   20.2450 C   0  0  0  0  0  0  0  0  0  0  0  0
  -29.0506  -25.6648   20.4022 C   0  0  0  0  0  0  0  0  0  0  0  0
  -23.3365  -29.1220   21.5184 C   0  0  0  0  0  0  0  0  0  0  0  0
  -22.4082  -22.0220   20.3386 C   0  0  0  0  0  0  0  0  0  0  0  0
  -25.2849  -12.0884   21.2198 C   0  0  0  0  0  0  0  0  0  0  0  0
  -21.2126  -28.0840   20.9513 C   0  0  0  0  0  0  0  0  0  0  0  0
  -24.0976  -10.1028   21.6322 C   0  0  0  0  0  0  0  0  0  0  0  0
  -22.0916   -8.3143   20.8838 C   0  0  0  0  0  0  0  0  0  0  0  0
  -23.0377   -9.8405   22.5002 C   0  0  0  0  0  0  0  0  0  0  0  0
  -25.8775  -15.4996   18.7886 C   0  0  0  0  0  0  0  0  0  0  0  0
  -26.1402  -16.8678   17.0875 C   0  0  0  0  0  0  0  0  0  0  0  0
  -18.8161  -23.6775   21.9267 C   0  0  0  0  0  0  0  0  0  0  0  0
  -18.7436  -24.4975   22.9867 C   0  0  0  0  0  0  0  0  0  0  0  0
  -25.8102  -14.4792   16.4287 C   0  0  0  0  0  0  0  0  0  0  0  0
  -26.5949  -28.1255   21.6541 C   0  0  0  0  0  0  0  0  0  0  0  0
  -26.3229  -31.1616   22.7635 C   0  0  0  0  0  0  0  0  0  0  0  0
  -24.2916  -33.7935   23.5340 C   0  0  0  0  0  0  0  0  0  0  0  0
  -24.9026  -21.9387   19.9961 C   0  0  0  0  0  0  0  0  0  0  0  0
  -31.3321  -26.2444   21.3766 C   0  0  0  0  0  0  0  0  0  0  0  0
  -25.2170  -29.2032   19.8386 C   0  0  0  0  0  0  0  0  0  0  0  0
  -24.1810  -29.8485   22.5321 C   0  0  0  0  0  0  0  0  0  0  0  0
  -30.5953  -27.2159   22.2950 C   0  0  0  0  0  0  0  0  0  0  0  0
  -28.1060  -20.8441   18.8928 C   0  0  0  0  0  0  0  0  0  0  0  0
  -29.2647  -26.6206   22.7445 C   0  0  0  0  0  0  0  0  0  0  0  0
  -27.9017  -19.3545   18.6071 C   0  0  0  0  0  0  0  0  0  0  0  0
  -27.3026  -21.3040   20.1080 C   0  0  0  0  0  0  0  0  0  0  0  0
  -25.6662  -19.4922   19.7779 C   0  0  0  0  0  0  0  0  0  0  0  0
  -28.3443  -26.3595   21.5461 C   0  0  1  0  0  0  0  0  0  0  0  0
  -26.1487  -29.4163   21.0276 C   0  0  1  0  0  0  0  0  0  0  0  0
  -26.4047  -18.9969   18.5237 C   0  0  2  0  0  0  0  0  0  0  0  0
  -24.3545  -36.1261   24.4574 C   0  0  0  0  0  0  0  0  0  0  0  0
  -26.7081  -30.0362   25.5733 C   0  0  0  0  0  0  0  0  0  0  0  0
  -25.8283  -32.1962   26.4837 C   0  0  0  0  0  0  0  0  0  0  0  0
  -27.9241  -32.1763   25.1309 C   0  0  0  0  0  0  0  0  0  0  0  0
  -23.1768  -34.9348   21.0413 C   0  0  0  0  0  0  0  0  0  0  0  0
  -16.4748  -27.1216   24.5012 C   0  0  0  0  0  0  0  0  0  0  0  0
  -17.4580  -25.0652   23.4987 C   0  0  0  0  0  0  0  0  0  0  0  0
  -17.7788  -28.5107   21.9775 C   0  0  0  0  0  0  0  0  0  0  0  0
  -17.1849  -27.1168   22.1142 C   0  0  0  0  0  0  0  0  0  0  0  0
  -19.2775  -28.5676   22.2464 C   0  0  0  0  0  0  0  0  0  1  0  0
  -25.7034  -31.8033   23.9815 C   0  0  1  0  0  0  0  0  0  0  0  0
  -24.3873  -35.2713   23.2000 C   0  0  2  0  0  0  0  0  0  0  0  0
  -26.5255  -31.5376   25.2741 C   0  0  0  0  0  0  0  0  0  0  0  0
  -26.0357  -16.7022   19.3479 N   0  0  0  0  0  0  0  0  0  0  0  0
  -26.1935  -17.5131   18.2879 N   0  0  0  0  0  0  0  0  0  0  0  0
  -25.5359  -30.2170   22.0895 N   0  0  0  0  0  0  0  0  0  0  0  0
  -25.8934  -20.9349   19.9567 N   0  0  0  0  0  0  0  0  0  0  0  0
  -26.2798  -17.5326   15.9208 N   0  0  0  0  0  0  0  0  0  0  0  0
  -25.6006  -13.1771   16.9029 N   0  0  0  0  0  0  0  0  0  0  0  0
  -23.6018  -21.4725   19.8084 N   0  0  0  0  0  0  0  0  0  0  0  0
  -27.7410  -27.5948   21.0937 N   0  0  0  0  0  0  0  0  0  0  0  0
  -25.5376  -33.2163   23.6586 N   0  0  0  0  0  0  0  0  0  0  0  0
  -23.2522  -35.6791   22.3248 N   0  3  0  0  0  0  0  0  0  0  0  0
  -17.4331  -26.5746   23.4707 N   0  3  1  0  0  0  0  0  0  0  0  0
  -25.8998  -14.6755   15.1930 O   0  0  0  0  0  0  0  0  0  0  0  0
  -25.9480  -27.6473   22.5785 O   0  0  0  0  0  0  0  0  0  0  0  0
  -27.4602  -31.4917   22.4185 O   0  0  0  0  0  0  0  0  0  0  0  0
  -23.2188  -33.2104   23.6742 O   0  0  0  0  0  0  0  0  0  0  0  0
  -25.1896  -23.1279   20.1554 O   0  0  0  0  0  0  0  0  0  0  0  0
  -25.0936  -10.9910   22.0019 O   0  0  0  0  0  0  0  0  0  0  0  0
  -19.9445  -27.7340   21.2995 O   0  0  0  0  0  0  0  0  0  1  0  0
  -21.1278   -7.4567   20.5237 F   0  0  0  0  0  0  0  0  0  0  0  0
  -22.9770  -10.4453   23.6945 F   0  0  0  0  0  0  0  0  0  0  0  0
  1  2  1  0  0  0  0
  1  7  2  0  0  0  0
  2  8  2  0  0  0  0
  3 12  2  0  0  0  0
  3 19  1  0  0  0  0
  4 13  1  0  0  0  0
  4 19  2  0  0  0  0
  5 10  2  0  0  0  0
  5 20  1  0  0  0  0
  6 11  1  0  0  0  0
  6 20  2  0  0  0  0
  7 22  1  0  0  0  0
  8 24  1  0  0  0  0
  9 14  2  0  0  0  0
  9 23  1  0  0  0  0
 10 26  1  0  0  0  0
 11 26  2  0  0  0  0
 12 27  1  0  0  0  0
 13 27  2  0  0  0  0
 14 28  1  0  0  0  0
 15 16  2  0  0  0  0
 15 29  1  0  0  0  0
 16 30  1  0  0  0  0
 17 25  1  0  0  0  0
 17 28  2  0  0  0  0
 18 30  2  0  0  0  0
 18 31  1  0  0  0  0
 19 32  1  0  0  0  0
 20 34  1  0  0  0  0
 21 32  1  0  0  0  0
 21 33  2  0  0  0  0
 21 36  1  0  0  0  0
 22 24  2  0  0  0  0
 22 41  1  0  0  0  0
 23 25  2  0  0  0  0
 23 42  1  0  0  0  0
 24 50  1  0  0  0  0
 25 43  1  0  0  0  0
 26 72  1  0  0  0  0
 27 82  1  0  0  0  0
 28 83  1  0  0  0  0
 29 31  2  0  0  0  0
 29 82  1  0  0  0  0
 30 84  1  0  0  0  0
 31 85  1  0  0  0  0
 32 66  2  0  0  0  0
 33 67  1  0  0  0  0
 33 70  1  0  0  0  0
 34 35  2  0  0  0  0
 35 59  1  0  0  0  0
 36 71  1  0  0  0  0
 36 77  2  0  0  0  0
 37 51  1  0  0  0  0
 37 73  1  0  0  0  0
 37 78  2  0  0  0  0
 38 63  1  0  0  0  0
 38 68  1  0  0  0  0
 38 79  2  0  0  0  0
 39 64  1  0  0  0  0
 39 74  1  0  0  0  0
 39 80  2  0  0  0  0
 40 69  1  0  0  0  0
 40 72  1  0  0  0  0
 40 81  2  0  0  0  0
 41 44  1  0  0  0  0
 42 51  1  0  0  0  0
 43 68  1  0  0  0  0
 44 46  1  0  0  0  0
 45 47  1  0  0  0  0
 45 48  1  0  0  0  0
 46 50  1  0  0  0  0
 47 52  1  0  0  0  0
 48 69  1  0  0  0  0
 49 52  1  0  0  0  0
 49 69  1  0  0  0  0
 50 73  1  0  0  0  0
 51 68  1  0  0  0  0
 52 67  1  0  0  0  0
 53 64  1  0  0  0  0
 54 65  1  0  0  0  0
 55 65  1  0  0  0  0
 56 65  1  0  0  0  0
 57 75  1  0  0  0  0
 58 76  1  0  0  0  0
 59 76  1  0  0  0  0
 60 61  1  0  0  0  0
 60 62  1  0  0  0  0
 61 76  1  0  0  0  0
 62 83  1  0  0  0  0
 63 65  1  0  0  0  0
 63 74  1  0  0  0  0
 64 75  1  0  0  0  0
 66 67  1  0  0  0  0
M  CHG  2  75   1  76   1
M  ISO  4  40 100  62 101  72 100  83 101
M  END
> <Batch ID>
0011

> <Smiles>
CNC(C)C(=O)NC(C(=O)N1Cc2cc([101O:1][101CH2:1]CCN(C)CC=Cc3ccc([100NH:0][100C:0](=O)N4CCCC(n5nc(-c6ccc(Oc7ccc(F)cc7F)cc6)c(C(N)=O)c5N)C4)cc3)ccc2CC1C(=O)NC1CCCc2ccccc21)C(C)(C)C

> <Shape>
0.282

> <Color>
0.077

> <Negative vol penalty>
0.000

$$$$

  -OEChem-04042320433D

 82 91  0     1  0  0  0  0  0999 V2000
  -27.5295  -34.3096   25.5324 C   0  0  0  0  0  0  0  0  0  0  0  0
  -28.0544  -33.0424   25.2994 C   0  0  0  0  0  0  0  0  0  0  0  0
  -23.1631   -9.7550   19.9109 C   0  0  0  0  0  0  0  0  0  0  0  0
  -23.9110   -9.7778   22.2081 C   0  0  0  0  0  0  0  0  0  0  0  0
  -26.2139  -34.5953   25.1699 C   0  0  0  0  0  0  0  0  0  0  0  0
  -27.2635  -32.0599   24.7047 C   0  0  0  0  0  0  0  0  0  0  0  0
  -29.1147  -27.6823   20.8427 C   0  0  0  0  0  0  0  0  0  0  0  0
  -30.9460  -19.3519   20.6994 C   0  0  0  0  0  0  0  0  0  0  0  0
  -29.2994  -19.4448   22.4649 C   0  0  0  0  0  0  0  0  0  0  0  0
  -30.8455  -17.9608   20.6788 C   0  0  0  0  0  0  0  0  0  0  0  0
  -29.1988  -18.0537   22.4443 C   0  0  0  0  0  0  0  0  0  0  0  0
  -22.4749   -8.5649   20.1468 C   0  0  0  0  0  0  0  0  0  0  0  0
  -23.2227   -8.5877   22.4440 C   0  0  0  0  0  0  0  0  0  0  0  0
  -29.4318  -26.3378   21.0313 C   0  0  0  0  0  0  0  0  0  0  0  0
  -20.0343   -7.6289   23.0228 C   0  0  0  0  0  0  0  0  0  0  0  0
  -19.2747   -7.5416   24.1894 C   0  0  0  0  0  0  0  0  0  0  0  0
  -27.1952  -25.7235   20.3684 C   0  0  0  0  0  0  0  0  0  0  0  0
  -20.6051   -5.6599   24.9149 C   0  0  0  0  0  0  0  0  0  0  0  0
  -23.8812  -10.3614   20.9416 C   0  0  0  0  0  0  0  0  0  0  0  0
  -24.1007  -12.9011   20.8458 C   0  0  0  0  0  0  0  0  0  0  0  0
  -25.4096  -33.6187   24.5617 C   0  0  0  0  0  0  0  0  0  0  0  0
  -27.8299  -28.0588   20.4253 C   0  0  0  0  0  0  0  0  0  0  0  0
  -25.9355  -32.3325   24.3350 C   0  0  0  0  0  0  0  0  0  0  0  0
  -26.8651  -27.0732   20.1728 C   0  0  0  0  0  0  0  0  0  0  0  0
  -30.1729  -20.0939   21.5925 C   0  0  0  0  0  0  0  0  0  0  0  0
  -29.9719  -17.3117   21.5512 C   0  0  0  0  0  0  0  0  0  0  0  0
  -22.5047   -7.9812   21.4133 C   0  0  0  0  0  0  0  0  0  0  0  0
  -28.4712  -25.3583   20.7969 C   0  0  0  0  0  0  0  0  0  0  0  0
  -21.0793   -6.7316   22.8022 C   0  0  0  0  0  0  0  0  0  0  0  0
  -19.5601   -6.5572   25.1355 C   0  0  0  0  0  0  0  0  0  0  0  0
  -21.3647   -5.7472   23.7483 C   0  0  0  0  0  0  0  0  0  0  0  0
  -24.5928  -11.5904   20.6984 C   0  0  0  0  0  0  0  0  0  0  0  0
  -25.1569  -13.7059   20.4949 C   0  0  0  0  0  0  0  0  0  0  0  0
  -22.8048  -13.3509   21.2628 C   0  0  0  0  0  0  0  0  0  0  0  0
  -25.4880  -29.8073   21.6749 C   0  0  0  0  0  0  0  0  0  0  0  0
  -24.1132  -29.3323   18.7755 C   0  0  0  0  0  0  0  0  0  0  0  0
  -23.8761  -27.4178   15.9603 C   0  0  0  0  0  0  0  0  0  0  0  0
  -30.5651  -15.0135   20.7069 C   0  0  0  0  0  0  0  0  0  0  0  0
  -23.9783  -33.9603   24.2306 C   0  0  0  0  0  0  0  0  0  0  0  0
  -27.5117  -29.5116   20.2008 C   0  0  0  0  0  0  0  0  0  0  0  0
  -25.4773  -27.4237   19.7040 C   0  0  0  0  0  0  0  0  0  0  0  0
  -23.3253  -32.9759   23.2638 C   0  0  0  0  0  0  0  0  0  0  0  0
  -29.5802  -12.5703   18.3116 C   0  0  0  0  0  0  0  0  0  0  0  0
  -23.6115  -31.5395   23.6900 C   0  0  0  0  0  0  0  0  0  0  0  0
  -28.1544  -12.2054   18.7311 C   0  0  0  0  0  0  0  0  0  0  0  0
  -31.1337  -23.6452   21.3375 C   0  0  0  0  0  0  0  0  0  0  0  0
  -30.4775  -12.8322   19.5199 C   0  0  0  0  0  0  0  0  0  0  0  0
  -31.1586  -22.2369   20.7435 C   0  0  0  0  0  0  0  0  0  0  0  0
  -28.5312  -13.4507   20.8977 C   0  0  0  0  0  0  0  0  0  0  0  0
  -29.5018  -22.3327   22.5089 C   0  0  0  0  0  0  0  0  0  0  0  0
  -25.1168  -31.2476   23.6696 C   0  0  1  0  0  0  0  0  0  0  0  0
  -26.0179  -29.8135   20.2689 C   0  0  1  0  0  0  0  0  0  0  0  0
  -27.5735  -13.2413   19.7134 C   0  0  2  0  0  0  0  0  0  0  0  0
  -29.7534  -23.7407   21.9711 C   0  0  2  0  0  0  0  0  0  1  0  0
  -22.6381  -27.2611   13.7831 C   0  0  0  0  0  0  0  0  0  0  0  0
  -21.6540  -28.2914   20.2515 C   0  0  0  0  0  0  0  0  0  0  0  0
  -20.8693  -27.2905   18.0950 C   0  0  0  0  0  0  0  0  0  0  0  0
  -21.1500  -29.7613   18.2920 C   0  0  0  0  0  0  0  0  0  0  0  0
  -26.3719  -27.6695   14.3897 C   0  0  0  0  0  0  0  0  0  0  0  0
  -23.2001  -28.2857   18.1838 C   0  0  1  0  0  0  0  0  0  0  0  0
  -23.8788  -27.7871   14.4878 C   0  0  2  0  0  0  0  0  0  0  0  0
  -21.7439  -28.4004   18.7163 C   0  0  0  0  0  0  0  0  0  0  0  0
  -25.8628  -11.5598   20.2858 N   0  0  0  0  0  0  0  0  0  0  0  0
  -26.1776  -12.8613   20.1709 N   0  0  0  0  0  0  0  0  0  0  0  0
  -30.2736  -21.4691   21.6143 N   0  0  3  0  0  0  0  0  0  0  0  0
  -25.2128  -28.8583   19.5050 N   0  0  0  0  0  0  0  0  0  0  0  0
  -29.8651  -13.8267   20.4035 N   0  0  0  0  0  0  0  0  0  0  0  0
  -25.3029  -15.0467   20.4348 N   0  0  0  0  0  0  0  0  0  0  0  0
  -21.8366  -12.3907   21.5868 N   0  0  0  0  0  0  0  0  0  0  0  0
  -29.8698  -15.8986   21.5302 N   0  0  0  0  0  0  0  0  0  0  0  0
  -25.5711  -31.0303   22.3128 N   0  0  0  0  0  0  0  0  0  0  0  0
  -23.3185  -28.4126   16.7353 N   0  0  0  0  0  0  0  0  0  0  0  0
  -25.0795  -27.2175   13.8132 N   0  3  0  0  0  0  0  0  0  0  0  0
  -22.5089  -14.5681   21.3299 O   0  0  0  0  0  0  0  0  0  0  0  0
  -25.0358  -28.7702   22.1456 O   0  0  0  0  0  0  0  0  0  0  0  0
  -23.8642  -30.5262   18.5909 O   0  0  0  0  0  0  0  0  0  0  0  0
  -24.3205  -26.3517   16.3805 O   0  0  0  0  0  0  0  0  0  0  0  0
  -31.6869  -15.2410   20.2467 O   0  0  0  0  0  0  0  0  0  0  0  0
  -21.8330   -6.8201   21.6439 O   0  0  0  0  0  0  0  0  0  0  0  0
  -28.7779  -24.0453   20.9808 O   0  0  0  0  0  0  0  0  0  1  0  0
  -18.8315   -6.4744   26.2564 F   0  0  0  0  0  0  0  0  0  0  0  0
  -22.3681   -4.8832   23.5424 F   0  0  0  0  0  0  0  0  0  0  0  0
  1  2  1  0  0  0  0
  1  5  2  0  0  0  0
  2  6  2  0  0  0  0
  3 12  2  0  0  0  0
  3 19  1  0  0  0  0
  4 13  1  0  0  0  0
  4 19  2  0  0  0  0
  5 21  1  0  0  0  0
  6 23  1  0  0  0  0
  7 14  2  0  0  0  0
  7 22  1  0  0  0  0
  8 10  2  0  0  0  0
  8 25  1  0  0  0  0
  9 11  1  0  0  0  0
  9 25  2  0  0  0  0
 10 26  1  0  0  0  0
 11 26  2  0  0  0  0
 12 27  1  0  0  0  0
 13 27  2  0  0  0  0
 14 28  1  0  0  0  0
 15 16  2  0  0  0  0
 15 29  1  0  0  0  0
 16 30  1  0  0  0  0
 17 24  1  0  0  0  0
 17 28  2  0  0  0  0
 18 30  2  0  0  0  0
 18 31  1  0  0  0  0
 19 32  1  0  0  0  0
 20 32  1  0  0  0  0
 20 33  2  0  0  0  0
 20 34  1  0  0  0  0
 21 23  2  0  0  0  0
 21 39  1  0  0  0  0
 22 24  2  0  0  0  0
 22 40  1  0  0  0  0
 23 51  1  0  0  0  0
 24 41  1  0  0  0  0
 25 65  1  0  0  0  0
 26 70  1  0  0  0  0
 27 79  1  0  0  0  0
 28 80  1  0  0  0  0
 29 31  2  0  0  0  0
 29 79  1  0  0  0  0
 30 81  1  0  0  0  0
 31 82  1  0  0  0  0
 32 63  2  0  0  0  0
 33 64  1  0  0  0  0
 33 68  1  0  0  0  0
 34 69  1  0  0  0  0
 34 74  2  0  0  0  0
 35 52  1  0  0  0  0
 35 71  1  0  0  0  0
 35 75  2  0  0  0  0
 36 60  1  0  0  0  0
 36 66  1  0  0  0  0
 36 76  2  0  0  0  0
 37 61  1  0  0  0  0
 37 72  1  0  0  0  0
 37 77  2  0  0  0  0
 38 67  1  0  0  0  0
 38 70  1  0  0  0  0
 38 78  2  0  0  0  0
 39 42  1  0  0  0  0
 40 52  1  0  0  0  0
 41 66  1  0  0  0  0
 42 44  1  0  0  0  0
 43 45  1  0  0  0  0
 43 47  1  0  0  0  0
 44 51  1  0  0  0  0
 45 53  1  0  0  0  0
 46 48  1  0  0  0  0
 46 54  1  0  0  0  0
 47 67  1  0  0  0  0
 48 65  1  0  0  0  0
 49 53  1  0  0  0  0
 49 67  1  0  0  0  0
 50 54  1  0  0  0  0
 50 65  1  0  0  0  0
 51 71  1  0  0  0  0
 52 66  1  0  0  0  0
 53 64  1  0  0  0  0
 54 80  1  0  0  0  0
 55 61  1  0  0  0  0
 56 62  1  0  0  0  0
 57 62  1  0  0  0  0
 58 62  1  0  0  0  0
 59 73  1  0  0  0  0
 60 62  1  0  0  0  0
 60 72  1  0  0  0  0
 61 73  1  0  0  0  0
 63 64  1  0  0  0  0
M  CHG  1  73   1
M  ISO  4  38 100  54 101  70 100  80 101
M  END
> <Batch ID>
0011

> <Smiles>
CNC(C)C(=O)NC(C(=O)N1Cc2cc([101O:1][101CH:1]3CCN(c4ccc([100NH:0][100C:0](=O)N5CCCC(n6nc(-c7ccc(Oc8ccc(F)cc8F)cc7)c(C(N)=O)c6N)C5)cc4)C3)ccc2CC1C(=O)NC1CCCc2ccccc21)C(C)(C)C

> <Shape>
0.353

> <Color>
0.208

> <Negative vol penalty>
0.000

$$$$

  -OEChem-04042320433D

 81 90  0     1  0  0  0  0  0999 V2000
  -27.0537  -34.5411   25.0029 C   0  0  0  0  0  0  0  0  0  0  0  0
  -27.3972  -33.2677   24.5605 C   0  0  0  0  0  0  0  0  0  0  0  0
  -28.0603  -12.7613   21.4095 C   0  0  0  0  0  0  0  0  0  0  0  0
  -25.9323  -13.7061   20.7646 C   0  0  0  0  0  0  0  0  0  0  0  0
  -29.4058  -20.9687   16.8696 C   0  0  0  0  0  0  0  0  0  0  0  0
  -27.0192  -21.3418   16.9111 C   0  0  0  0  0  0  0  0  0  0  0  0
  -25.7254  -34.8382   25.3050 C   0  0  0  0  0  0  0  0  0  0  0  0
  -26.4126  -32.2902   24.4209 C   0  0  0  0  0  0  0  0  0  0  0  0
  -26.8413  -29.7060   20.0869 C   0  0  0  0  0  0  0  0  0  0  0  0
  -29.5681  -21.8922   17.9023 C   0  0  0  0  0  0  0  0  0  0  0  0
  -27.1815  -22.2653   17.9438 C   0  0  0  0  0  0  0  0  0  0  0  0
  -27.4015  -11.6950   22.0215 C   0  0  0  0  0  0  0  0  0  0  0  0
  -25.2734  -12.6397   21.3766 C   0  0  0  0  0  0  0  0  0  0  0  0
  -27.8217  -28.7164   20.0300 C   0  0  0  0  0  0  0  0  0  0  0  0
  -24.5631   -9.4136   20.6639 C   0  0  0  0  0  0  0  0  0  0  0  0
  -23.5169   -8.8125   19.9641 C   0  0  0  0  0  0  0  0  0  0  0  0
  -26.1398  -27.0353   20.4355 C   0  0  0  0  0  0  0  0  0  0  0  0
  -21.9951   -9.3779   21.7534 C   0  0  0  0  0  0  0  0  0  0  0  0
  -27.3257  -13.7669   20.7811 C   0  0  0  0  0  0  0  0  0  0  0  0
  -28.1314  -20.6935   16.3740 C   0  0  0  0  0  0  0  0  0  0  0  0
  -28.8692  -15.7978   20.7601 C   0  0  0  0  0  0  0  0  0  0  0  0
  -24.7225  -33.8667   25.1598 C   0  0  0  0  0  0  0  0  0  0  0  0
  -25.5022  -29.3681   20.3298 C   0  0  0  0  0  0  0  0  0  0  0  0
  -25.0698  -32.5741   24.7226 C   0  0  0  0  0  0  0  0  0  0  0  0
  -25.1440  -28.0222   20.4925 C   0  0  0  0  0  0  0  0  0  0  0  0
  -28.4559  -22.5405   18.4394 C   0  0  0  0  0  0  0  0  0  0  0  0
  -26.0081  -11.6342   22.0050 C   0  0  0  0  0  0  0  0  0  0  0  0
  -27.4715  -27.3810   20.2072 C   0  0  0  0  0  0  0  0  0  0  0  0
  -24.3253   -9.9967   21.9086 C   0  0  0  0  0  0  0  0  0  0  0  0
  -22.2329   -8.7947   20.5087 C   0  0  0  0  0  0  0  0  0  0  0  0
  -23.0413   -9.9789   22.4533 C   0  0  0  0  0  0  0  0  0  0  0  0
  -28.0057  -14.8689   20.1492 C   0  0  0  0  0  0  0  0  0  0  0  0
  -29.2493  -16.6356   19.7402 C   0  0  0  0  0  0  0  0  0  0  0  0
  -27.9603  -19.7208   15.2871 C   0  0  0  0  0  0  0  0  0  0  0  0
  -29.2903  -15.8947   22.1272 C   0  0  0  0  0  0  0  0  0  0  0  0
  -23.3983  -30.0403   22.6157 C   0  0  0  0  0  0  0  0  0  0  0  0
  -21.3490  -28.4708   20.6512 C   0  0  0  0  0  0  0  0  0  0  0  0
  -20.9057  -26.1868   18.1545 C   0  0  0  0  0  0  0  0  0  0  0  0
  -23.3077  -34.2208   25.5437 C   0  0  0  0  0  0  0  0  0  0  0  0
  -24.4525  -30.4449   20.3617 C   0  0  0  0  0  0  0  0  0  0  0  0
  -23.7173  -27.6052   20.7357 C   0  0  0  0  0  0  0  0  0  0  0  0
  -22.2679  -33.2382   25.0111 C   0  0  0  0  0  0  0  0  0  0  0  0
  -28.6130  -16.2547   14.7375 C   0  0  0  0  0  0  0  0  0  0  0  0
  -22.7128  -31.8012   25.2637 C   0  0  0  0  0  0  0  0  0  0  0  0
  -28.5653  -15.6548   16.1439 C   0  0  0  0  0  0  0  0  0  0  0  0
  -29.5418  -24.6017   21.2980 C   0  0  0  0  0  0  0  0  0  0  0  0
  -27.5979  -17.3828   14.5713 C   0  0  0  0  0  0  0  0  0  0  0  0
  -29.9068  -23.8071   20.0442 C   0  0  0  0  0  0  0  0  0  0  0  0
  -27.6517  -17.8548   16.9960 C   0  0  0  0  0  0  0  0  0  0  0  0
  -27.5141  -24.1872   20.0837 C   0  0  0  0  0  0  0  0  0  0  0  0
  -24.0265  -31.4941   24.5347 C   0  0  1  0  0  0  0  0  0  0  0  0
  -23.1981  -30.0342   21.1266 C   0  0  1  0  0  0  0  0  0  0  0  0
  -28.6948  -16.7480   17.2213 C   0  0  1  0  0  0  0  0  0  0  0  0
  -28.2110  -25.2458   20.9374 C   0  0  2  0  0  0  0  0  0  1  0  0
  -19.1124  -25.0878   16.7856 C   0  0  0  0  0  0  0  0  0  0  0  0
  -20.6195  -26.7040   23.0296 C   0  0  0  0  0  0  0  0  0  0  0  0
  -19.5933  -25.0827   21.4214 C   0  0  0  0  0  0  0  0  0  0  0  0
  -18.6800  -27.3962   21.6105 C   0  0  0  0  0  0  0  0  0  0  0  0
  -22.0094  -27.2668   15.6298 C   0  0  0  0  0  0  0  0  0  0  0  0
  -20.9153  -27.0342   20.4861 C   0  0  1  0  0  0  0  0  0  0  0  0
  -20.0986  -26.2425   16.8700 C   0  0  2  0  0  0  0  0  0  0  0  0
  -19.9793  -26.5620   21.6343 C   0  0  0  0  0  0  0  0  0  0  0  0
  -27.8462  -15.0951   18.8425 N   0  0  0  0  0  0  0  0  0  0  0  0
  -28.6147  -16.1757   18.6240 N   0  0  0  0  0  0  0  0  0  0  0  0
  -28.6163  -23.4535   19.4605 N   0  0  3  0  0  0  0  0  0  0  0  0
  -27.7566  -18.3814   15.6278 N   0  0  0  0  0  0  0  0  0  0  0  0
  -22.7283  -28.6954   20.7644 N   0  0  0  0  0  0  0  0  0  0  0  0
  -30.0610  -17.7135   19.6983 N   0  0  0  0  0  0  0  0  0  0  0  0
  -28.5263  -16.6721   23.0082 N   0  0  0  0  0  0  0  0  0  0  0  0
  -23.7818  -31.2655   23.1268 N   0  0  0  0  0  0  0  0  0  0  0  0
  -20.3250  -26.9365   19.1555 N   0  0  0  0  0  0  0  0  0  0  0  0
  -21.0025  -26.1760   15.6870 N   0  3  0  0  0  0  0  0  0  0  0  0
  -28.0230  -20.1678   14.1428 O   0  0  0  0  0  0  0  0  0  0  0  0
  -30.3229  -15.3224   22.5512 O   0  0  0  0  0  0  0  0  0  0  0  0
  -23.2167  -29.0101   23.2540 O   0  0  0  0  0  0  0  0  0  0  0  0
  -20.4958  -29.3615   20.6717 O   0  0  0  0  0  0  0  0  0  0  0  0
  -21.9452  -25.5397   18.2605 O   0  0  0  0  0  0  0  0  0  0  0  0
  -25.3649  -10.5937   22.6019 O   0  0  0  0  0  0  0  0  0  0  0  0
  -28.4266  -26.4132   20.1528 O   0  0  0  0  0  0  0  0  0  1  0  0
  -21.2281   -8.2189   19.8358 F   0  0  0  0  0  0  0  0  0  0  0  0
  -22.8065  -10.5385   23.6481 F   0  0  0  0  0  0  0  0  0  0  0  0
  1  2  1  0  0  0  0
  1  7  2  0  0  0  0
  2  8  2  0  0  0  0
  3 12  2  0  0  0  0
  3 19  1  0  0  0  0
  4 13  1  0  0  0  0
  4 19  2  0  0  0  0
  5 10  2  0  0  0  0
  5 20  1  0  0  0  0
  6 11  1  0  0  0  0
  6 20  2  0  0  0  0
  7 22  1  0  0  0  0
  8 24  1  0  0  0  0
  9 14  2  0  0  0  0
  9 23  1  0  0  0  0
 10 26  1  0  0  0  0
 11 26  2  0  0  0  0
 12 27  1  0  0  0  0
 13 27  2  0  0  0  0
 14 28  1  0  0  0  0
 15 16  2  0  0  0  0
 15 29  1  0  0  0  0
 16 30  1  0  0  0  0
 17 25  1  0  0  0  0
 17 28  2  0  0  0  0
 18 30  2  0  0  0  0
 18 31  1  0  0  0  0
 19 32  1  0  0  0  0
 20 34  1  0  0  0  0
 21 32  1  0  0  0  0
 21 33  2  0  0  0  0
 21 35  1  0  0  0  0
 22 24  2  0  0  0  0
 22 39  1  0  0  0  0
 23 25  2  0  0  0  0
 23 40  1  0  0  0  0
 24 51  1  0  0  0  0
 25 41  1  0  0  0  0
 26 65  1  0  0  0  0
 27 78  1  0  0  0  0
 28 79  1  0  0  0  0
 29 31  2  0  0  0  0
 29 78  1  0  0  0  0
 30 80  1  0  0  0  0
 31 81  1  0  0  0  0
 32 63  2  0  0  0  0
 33 64  1  0  0  0  0
 33 68  1  0  0  0  0
 34 66  1  0  0  0  0
 34 73  2  0  0  0  0
 35 69  1  0  0  0  0
 35 74  2  0  0  0  0
 36 52  1  0  0  0  0
 36 70  1  0  0  0  0
 36 75  2  0  0  0  0
 37 60  1  0  0  0  0
 37 67  1  0  0  0  0
 37 76  2  0  0  0  0
 38 61  1  0  0  0  0
 38 71  1  0  0  0  0
 38 77  2  0  0  0  0
 39 42  1  0  0  0  0
 40 52  1  0  0  0  0
 41 67  1  0  0  0  0
 42 44  1  0  0  0  0
 43 45  1  0  0  0  0
 43 47  1  0  0  0  0
 44 51  1  0  0  0  0
 45 53  1  0  0  0  0
 46 48  1  0  0  0  0
 46 54  1  0  0  0  0
 47 66  1  0  0  0  0
 48 65  1  0  0  0  0
 49 53  1  0  0  0  0
 49 66  1  0  0  0  0
 50 54  1  0  0  0  0
 50 65  1  0  0  0  0
 51 70  1  0  0  0  0
 52 67  1  0  0  0  0
 53 64  1  0  0  0  0
 54 79  1  0  0  0  0
 55 61  1  0  0  0  0
 56 62  1  0  0  0  0
 57 62  1  0  0  0  0
 58 62  1  0  0  0  0
 59 72  1  0  0  0  0
 60 62  1  0  0  0  0
 60 71  1  0  0  0  0
 61 72  1  0  0  0  0
 63 64  1  0  0  0  0
M  CHG  1  72   1
M  ISO  4  20 100  34 100  54 101  79 101
M  END
> <Batch ID>
0011

> <Smiles>
CNC(C)C(=O)NC(C(=O)N1Cc2cc([101O:1][101CH:1]3CCN(c4cc[100c:0]([100C:0](=O)N5CCCC(n6nc(-c7ccc(Oc8ccc(F)cc8F)cc7)c(C(N)=O)c6N)C5)cc4)C3)ccc2CC1C(=O)NC1CCCc2ccccc21)C(C)(C)C

> <Shape>
0.262

> <Color>
0.095

> <Negative vol penalty>
0.000

$$$$

  -OEChem-04042320433D

 82 90  0     1  0  0  0  0  0999 V2000
  -27.4889  -32.5961   27.6850 C   0  0  0  0  0  0  0  0  0  0  0  0
  -27.7032  -31.5470   26.7968 C   0  0  0  0  0  0  0  0  0  0  0  0
  -24.2715   -9.0390   21.4587 C   0  0  0  0  0  0  0  0  0  0  0  0
  -24.8126  -10.3196   23.4347 C   0  0  0  0  0  0  0  0  0  0  0  0
  -26.1962  -33.0708   27.9026 C   0  0  0  0  0  0  0  0  0  0  0  0
  -26.6245  -30.9712   26.1264 C   0  0  0  0  0  0  0  0  0  0  0  0
  -27.5693  -30.2235   21.2078 C   0  0  0  0  0  0  0  0  0  0  0  0
  -30.1758  -18.8156   19.9873 C   0  0  0  0  0  0  0  0  0  0  0  0
  -23.9553   -7.9401   22.2574 C   0  0  0  0  0  0  0  0  0  0  0  0
  -24.4963   -9.2206   24.2334 C   0  0  0  0  0  0  0  0  0  0  0  0
  -28.3567  -29.1234   20.8707 C   0  0  0  0  0  0  0  0  0  0  0  0
  -30.3881  -20.1469   20.3451 C   0  0  0  0  0  0  0  0  0  0  0  0
  -21.3656   -6.9183   24.1763 C   0  0  0  0  0  0  0  0  0  0  0  0
  -20.1942   -6.2200   23.8837 C   0  0  0  0  0  0  0  0  0  0  0  0
  -26.3684  -27.8833   20.2980 C   0  0  0  0  0  0  0  0  0  0  0  0
  -28.0167  -20.4260   20.7135 C   0  0  0  0  0  0  0  0  0  0  0  0
  -21.4853   -4.2134   23.5043 C   0  0  0  0  0  0  0  0  0  0  0  0
  -24.7002  -10.2288   22.0473 C   0  0  0  0  0  0  0  0  0  0  0  0
  -24.1572  -12.3862   20.7990 C   0  0  0  0  0  0  0  0  0  0  0  0
  -25.1023  -32.5070   27.2272 C   0  0  0  0  0  0  0  0  0  0  0  0
  -26.1725  -30.1580   21.1027 C   0  0  0  0  0  0  0  0  0  0  0  0
  -25.3158  -31.4380   26.3361 C   0  0  0  0  0  0  0  0  0  0  0  0
  -25.5657  -28.9848   20.6319 C   0  0  0  0  0  0  0  0  0  0  0  0
  -28.8839  -18.2894   19.9925 C   0  0  0  0  0  0  0  0  0  0  0  0
  -24.0677   -8.0309   23.6447 C   0  0  0  0  0  0  0  0  0  0  0  0
  -27.7561  -27.9522   20.4185 C   0  0  0  0  0  0  0  0  0  0  0  0
  -29.3085  -20.9521   20.7083 C   0  0  0  0  0  0  0  0  0  0  0  0
  -22.5969   -6.2643   24.1329 C   0  0  0  0  0  0  0  0  0  0  0  0
  -20.2540   -4.8675   23.5477 C   0  0  0  0  0  0  0  0  0  0  0  0
  -22.6567   -4.9118   23.7969 C   0  0  0  0  0  0  0  0  0  0  0  0
  -27.8044  -19.0946   20.3556 C   0  0  0  0  0  0  0  0  0  0  0  0
  -25.0276  -11.3641   21.2228 C   0  0  0  0  0  0  0  0  0  0  0  0
  -24.9469  -13.2188   20.0443 C   0  0  0  0  0  0  0  0  0  0  0  0
  -22.7597  -12.5669   21.0640 C   0  0  0  0  0  0  0  0  0  0  0  0
  -23.7551  -30.3976   23.1526 C   0  0  0  0  0  0  0  0  0  0  0  0
  -21.9622  -30.2542   20.4531 C   0  0  0  0  0  0  0  0  0  0  0  0
  -21.7099  -29.2843   17.1909 C   0  0  0  0  0  0  0  0  0  0  0  0
  -29.6878  -16.0248   19.2363 C   0  0  0  0  0  0  0  0  0  0  0  0
  -23.7177  -33.0224   27.5306 C   0  0  0  0  0  0  0  0  0  0  0  0
  -25.3389  -31.3623   21.4448 C   0  0  0  0  0  0  0  0  0  0  0  0
  -24.0714  -28.8701   20.4818 C   0  0  0  0  0  0  0  0  0  0  0  0
  -22.6730  -32.6061   26.4983 C   0  0  0  0  0  0  0  0  0  0  0  0
  -29.6514  -12.5943   18.2836 C   0  0  0  0  0  0  0  0  0  0  0  0
  -22.8019  -31.1203   26.1777 C   0  0  0  0  0  0  0  0  0  0  0  0
  -28.3736  -12.0526   18.9285 C   0  0  0  0  0  0  0  0  0  0  0  0
  -30.3408  -13.6281   19.1724 C   0  0  0  0  0  0  0  0  0  0  0  0
  -28.2055  -14.1913   20.2643 C   0  0  0  0  0  0  0  0  0  0  0  0
  -24.1743  -30.8037   25.5713 C   0  0  1  0  0  0  0  0  0  0  0  0
  -23.8945  -31.0112   21.7882 C   0  0  1  0  0  0  0  0  0  0  0  0
  -27.4411  -13.1946   19.3778 C   0  0  2  0  0  0  0  0  0  0  0  0
  -20.1090  -29.2693   15.2584 C   0  0  0  0  0  0  0  0  0  0  0  0
  -20.4332  -27.9490   21.7409 C   0  0  0  0  0  0  0  0  0  0  0  0
  -19.5343  -27.3721   19.4765 C   0  0  0  0  0  0  0  0  0  0  0  0
  -19.0046  -29.5843   20.5002 C   0  0  0  0  0  0  0  0  0  0  0  0
  -23.5153  -30.9421   15.5322 C   0  0  0  0  0  0  0  0  0  0  0  0
  -29.0319  -24.5665   20.5636 C   0  0  0  0  0  0  0  0  0  0  0  0
  -27.9420  -25.5858   20.2713 C   0  0  0  0  0  0  0  0  0  1  0  0
  -28.4635  -23.1737   20.7859 C   0  0  0  0  0  0  0  0  0  0  0  0
  -21.3409  -29.1442   19.6401 C   0  0  1  0  0  0  0  0  0  0  0  0
  -21.2313  -30.0236   15.9544 C   0  0  2  0  0  0  0  0  0  0  0  0
  -20.1063  -28.5136   20.3440 C   0  0  0  0  0  0  0  0  0  0  0  0
  -26.2747  -11.5301   20.7743 N   0  0  0  0  0  0  0  0  0  0  0  0
  -26.1937  -12.6661   20.0609 N   0  0  0  0  0  0  0  0  0  0  0  0
  -23.2990  -30.0726   20.8350 N   0  0  0  0  0  0  0  0  0  0  0  0
  -29.3979  -14.6813   19.5550 N   0  0  0  0  0  0  0  0  0  0  0  0
  -24.6895  -14.3623   19.3746 N   0  0  0  0  0  0  0  0  0  0  0  0
  -22.1021  -11.6177   21.8582 N   0  0  0  0  0  0  0  0  0  0  0  0
  -28.7029  -16.9341   19.6209 N   0  0  0  0  0  0  0  0  0  0  0  0
  -24.2154  -31.1992   24.1798 N   0  0  0  0  0  0  0  0  0  0  0  0
  -21.0549  -29.7113   18.3266 N   0  0  0  0  0  0  0  0  0  0  0  0
  -22.3522  -30.1956   14.9874 N   0  3  0  0  0  0  0  0  0  0  0  0
  -22.1097  -13.5324   20.5963 O   0  0  0  0  0  0  0  0  0  0  0  0
  -23.2647  -29.2802   23.2653 O   0  0  0  0  0  0  0  0  0  0  0  0
  -21.2884  -31.2489   20.7329 O   0  0  0  0  0  0  0  0  0  0  0  0
  -22.5753  -28.4125   17.1524 O   0  0  0  0  0  0  0  0  0  0  0  0
  -30.7202  -16.3421   18.6401 O   0  0  0  0  0  0  0  0  0  0  0  0
  -23.7589   -6.9588   24.4244 O   0  0  0  0  0  0  0  0  0  0  0  0
  -28.5223  -26.8767   20.0894 O   0  0  0  0  0  0  0  0  0  1  0  0
  -29.5175  -22.2605   21.0592 O   0  0  0  0  0  0  0  0  0  0  0  0
  -19.1289   -4.1966   23.2683 F   0  0  0  0  0  0  0  0  0  0  0  0
  -23.8366   -4.2778   23.7547 F   0  0  0  0  0  0  0  0  0  0  0  0
  -26.1889  -18.4829   20.3772 Cl  0  0  0  0  0  0  0  0  0  0  0  0
  1  2  1  0  0  0  0
  1  5  2  0  0  0  0
  2  6  2  0  0  0  0
  3  9  2  0  0  0  0
  3 18  1  0  0  0  0
  4 10  1  0  0  0  0
  4 18  2  0  0  0  0
  5 20  1  0  0  0  0
  6 22  1  0  0  0  0
  7 11  2  0  0  0  0
  7 21  1  0  0  0  0
  8 12  2  0  0  0  0
  8 24  1  0  0  0  0
  9 25  1  0  0  0  0
 10 25  2  0  0  0  0
 11 26  1  0  0  0  0
 12 27  1  0  0  0  0
 13 14  2  0  0  0  0
 13 28  1  0  0  0  0
 14 29  1  0  0  0  0
 15 23  1  0  0  0  0
 15 26  2  0  0  0  0
 16 27  2  0  0  0  0
 16 31  1  0  0  0  0
 17 29  2  0  0  0  0
 17 30  1  0  0  0  0
 18 32  1  0  0  0  0
 19 32  1  0  0  0  0
 19 33  2  0  0  0  0
 19 34  1  0  0  0  0
 20 22  2  0  0  0  0
 20 39  1  0  0  0  0
 21 23  2  0  0  0  0
 21 40  1  0  0  0  0
 22 48  1  0  0  0  0
 23 41  1  0  0  0  0
 24 31  2  0  0  0  0
 24 68  1  0  0  0  0
 25 77  1  0  0  0  0
 26 78  1  0  0  0  0
 27 79  1  0  0  0  0
 28 30  2  0  0  0  0
 28 77  1  0  0  0  0
 29 80  1  0  0  0  0
 30 81  1  0  0  0  0
 31 82  1  0  0  0  0
 32 62  2  0  0  0  0
 33 63  1  0  0  0  0
 33 66  1  0  0  0  0
 34 67  1  0  0  0  0
 34 72  2  0  0  0  0
 35 49  1  0  0  0  0
 35 69  1  0  0  0  0
 35 73  2  0  0  0  0
 36 59  1  0  0  0  0
 36 64  1  0  0  0  0
 36 74  2  0  0  0  0
 37 60  1  0  0  0  0
 37 70  1  0  0  0  0
 37 75  2  0  0  0  0
 38 65  1  0  0  0  0
 38 68  1  0  0  0  0
 38 76  2  0  0  0  0
 39 42  1  0  0  0  0
 40 49  1  0  0  0  0
 41 64  1  0  0  0  0
 42 44  1  0  0  0  0
 43 45  1  0  0  0  0
 43 46  1  0  0  0  0
 44 48  1  0  0  0  0
 45 50  1  0  0  0  0
 46 65  1  0  0  0  0
 47 50  1  0  0  0  0
 47 65  1  0  0  0  0
 48 69  1  0  0  0  0
 49 64  1  0  0  0  0
 50 63  1  0  0  0  0
 51 60  1  0  0  0  0
 52 61  1  0  0  0  0
 53 61  1  0  0  0  0
 54 61  1  0  0  0  0
 55 71  1  0  0  0  0
 56 57  1  0  0  0  0
 56 58  1  0  0  0  0
 57 78  1  0  0  0  0
 58 79  1  0  0  0  0
 59 61  1  0  0  0  0
 59 70  1  0  0  0  0
 60 71  1  0  0  0  0
 62 63  1  0  0  0  0
M  CHG  1  71   1
M  ISO  4  38 100  57 101  68 100  78 101
M  END
> <Batch ID>
0011

> <Smiles>
CNC(C)C(=O)NC(C(=O)N1Cc2cc([101O:1][101CH2:1]CCOc3ccc([100NH:0][100C:0](=O)N4CCCC(n5nc(-c6ccc(Oc7ccc(F)cc7F)cc6)c(C(N)=O)c5N)C4)c(Cl)c3)ccc2CC1C(=O)NC1CCCc2ccccc21)C(C)(C)C

> <Shape>
0.332

> <Color>
0.141

> <Negative vol penalty>
0.000

$$$$

  -OEChem-04042320433D

 81 89  0     1  0  0  0  0  0999 V2000
  -17.7155  -33.3419   18.0836 C   0  0  0  0  0  0  0  0  0  0  0  0
  -18.9138  -32.9824   17.4751 C   0  0  0  0  0  0  0  0  0  0  0  0
  -24.8012  -10.2786   22.6259 C   0  0  0  0  0  0  0  0  0  0  0  0
  -24.4888  -11.7693   24.5013 C   0  0  0  0  0  0  0  0  0  0  0  0
  -17.7254  -33.9232   19.3508 C   0  0  0  0  0  0  0  0  0  0  0  0
  -20.1229  -33.2051   18.1332 C   0  0  0  0  0  0  0  0  0  0  0  0
  -24.6112  -27.7615   19.5870 C   0  0  0  0  0  0  0  0  0  0  0  0
  -29.5131  -20.7821   21.9189 C   0  0  0  0  0  0  0  0  0  0  0  0
  -24.3855   -9.2034   23.4112 C   0  0  0  0  0  0  0  0  0  0  0  0
  -24.0729  -10.6941   25.2866 C   0  0  0  0  0  0  0  0  0  0  0  0
  -25.6185  -26.8047   19.7133 C   0  0  0  0  0  0  0  0  0  0  0  0
  -29.3851  -22.1504   22.1577 C   0  0  0  0  0  0  0  0  0  0  0  0
  -21.4645   -7.9153   24.5255 C   0  0  0  0  0  0  0  0  0  0  0  0
  -20.5567   -7.0164   23.9656 C   0  0  0  0  0  0  0  0  0  0  0  0
  -27.0248  -28.4182   20.8389 C   0  0  0  0  0  0  0  0  0  0  0  0
  -27.1423  -20.6374   21.4769 C   0  0  0  0  0  0  0  0  0  0  0  0
  -22.1505   -5.2245   24.2582 C   0  0  0  0  0  0  0  0  0  0  0  0
  -24.8529  -11.5615   23.1710 C   0  0  0  0  0  0  0  0  0  0  0  0
  -24.4755  -13.5061   21.5635 C   0  0  0  0  0  0  0  0  0  0  0  0
  -18.9346  -34.1443   20.0288 C   0  0  0  0  0  0  0  0  0  0  0  0
  -24.8012  -29.0475   20.1004 C   0  0  0  0  0  0  0  0  0  0  0  0
  -20.1490  -33.7912   19.4101 C   0  0  0  0  0  0  0  0  0  0  0  0
  -26.0146  -29.3772   20.7264 C   0  0  0  0  0  0  0  0  0  0  0  0
  -28.3917  -20.0256   21.5784 C   0  0  0  0  0  0  0  0  0  0  0  0
  -24.0213   -9.4111   24.7416 C   0  0  0  0  0  0  0  0  0  0  0  0
  -26.8224  -27.1323   20.3375 C   0  0  0  0  0  0  0  0  0  0  0  0
  -22.7154   -7.4688   24.9517 C   0  0  0  0  0  0  0  0  0  0  0  0
  -28.1357  -22.7621   22.0562 C   0  0  0  0  0  0  0  0  0  0  0  0
  -20.8997   -5.6710   23.8320 C   0  0  0  0  0  0  0  0  0  0  0  0
  -27.0143  -22.0057   21.7158 C   0  0  0  0  0  0  0  0  0  0  0  0
  -23.0584   -6.1234   24.8181 C   0  0  0  0  0  0  0  0  0  0  0  0
  -25.2829  -12.6725   22.3604 C   0  0  0  0  0  0  0  0  0  0  0  0
  -25.3542  -14.3993   21.0010 C   0  0  0  0  0  0  0  0  0  0  0  0
  -23.0579  -13.4758   21.3509 C   0  0  0  0  0  0  0  0  0  0  0  0
  -23.3724  -32.4735   20.6455 C   0  0  0  0  0  0  0  0  0  0  0  0
  -24.8881  -31.7227   23.2046 C   0  0  0  0  0  0  0  0  0  0  0  0
  -26.3005  -30.3471   25.9886 C   0  0  0  0  0  0  0  0  0  0  0  0
  -29.6878  -17.8733   21.3941 C   0  0  0  0  0  0  0  0  0  0  0  0
  -18.8980  -34.8190   21.3772 C   0  0  0  0  0  0  0  0  0  0  0  0
  -23.7676  -30.1278   19.9324 C   0  0  0  0  0  0  0  0  0  0  0  0
  -26.1880  -30.7830   21.2329 C   0  0  0  0  0  0  0  0  0  0  0  0
  -20.1981  -34.6777   22.1645 C   0  0  0  0  0  0  0  0  0  0  0  0
  -30.4150  -14.4228   20.9013 C   0  0  0  0  0  0  0  0  0  0  0  0
  -21.3979  -34.9814   21.2727 C   0  0  0  0  0  0  0  0  0  0  0  0
  -29.0782  -13.7284   21.1714 C   0  0  0  0  0  0  0  0  0  0  0  0
  -30.6319  -15.6163   21.8299 C   0  0  0  0  0  0  0  0  0  0  0  0
  -28.2019  -15.9022   22.1169 C   0  0  0  0  0  0  0  0  0  0  0  0
  -21.4794  -33.9940   20.1023 C   0  0  1  0  0  0  0  0  0  0  0  0
  -23.7025  -31.0923   21.1301 C   0  0  1  0  0  0  0  0  0  0  0  0
  -27.9093  -14.7331   21.1623 C   0  0  2  0  0  0  0  0  0  0  0  0
  -26.8460  -30.8668   28.3823 C   0  0  0  0  0  0  0  0  0  0  0  0
  -27.2368  -33.4417   22.2923 C   0  0  0  0  0  0  0  0  0  0  0  0
  -28.2509  -33.1347   24.5607 C   0  0  0  0  0  0  0  0  0  0  0  0
  -26.0517  -34.2882   24.3254 C   0  0  0  0  0  0  0  0  0  0  0  0
  -24.5818  -28.1504   26.9783 C   0  0  0  0  0  0  0  0  0  0  0  0
  -28.6649  -26.3010   21.5911 C   0  0  0  0  0  0  0  0  0  1  0  0
  -29.1408  -24.9163   21.9857 C   0  0  0  0  0  0  0  0  0  0  0  0
  -26.1840  -31.7882   23.9726 C   0  0  1  0  0  0  0  0  0  0  0  0
  -25.8232  -30.2708   27.4276 C   0  0  2  0  0  0  0  0  0  0  0  0
  -26.9242  -33.1407   23.7717 C   0  0  0  0  0  0  0  0  0  0  0  0
  -26.5752  -13.0063   22.3111 N   0  0  0  0  0  0  0  0  0  0  0  0
  -26.5866  -14.0595   21.4764 N   0  0  0  0  0  0  0  0  0  0  0  0
  -24.9536  -31.2347   21.8939 N   0  0  0  0  0  0  0  0  0  0  0  0
  -29.4868  -16.5270   21.7655 N   0  0  0  0  0  0  0  0  0  0  0  0
  -25.1853  -15.4344   20.1511 N   0  0  0  0  0  0  0  0  0  0  0  0
  -22.3048  -12.4921   22.0063 N   0  0  0  0  0  0  0  0  0  0  0  0
  -28.5216  -18.6356   21.3358 N   0  0  0  0  0  0  0  0  0  0  0  0
  -22.0175  -32.7263   20.5470 N   0  0  0  0  0  0  0  0  0  0  0  0
  -25.8510  -31.4898   25.3613 N   0  0  0  0  0  0  0  0  0  0  0  0
  -25.5846  -28.8529   27.8197 N   0  3  0  0  0  0  0  0  0  0  0  0
  -22.4784  -14.2864   20.5889 O   0  0  0  0  0  0  0  0  0  0  0  0
  -24.2795  -33.2539   20.3813 O   0  0  0  0  0  0  0  0  0  0  0  0
  -23.8455  -32.0986   23.7477 O   0  0  0  0  0  0  0  0  0  0  0  0
  -27.0049  -29.4816   25.4736 O   0  0  0  0  0  0  0  0  0  0  0  0
  -30.8084  -18.3104   21.1197 O   0  0  0  0  0  0  0  0  0  0  0  0
  -23.6153   -8.3622   25.5081 O   0  0  0  0  0  0  0  0  0  0  0  0
  -27.7998  -26.1921   20.4615 O   0  0  0  0  0  0  0  0  0  1  0  0
  -28.0119  -24.1064   22.2905 O   0  0  0  0  0  0  0  0  0  0  0  0
  -20.0272   -4.8077   23.2957 F   0  0  0  0  0  0  0  0  0  0  0  0
  -25.8115  -22.5881   21.6156 F   0  0  0  0  0  0  0  0  0  0  0  0
  -24.2582   -5.6883   25.2268 F   0  0  0  0  0  0  0  0  0  0  0  0
  1  2  1  0  0  0  0
  1  5  2  0  0  0  0
  2  6  2  0  0  0  0
  3  9  2  0  0  0  0
  3 18  1  0  0  0  0
  4 10  1  0  0  0  0
  4 18  2  0  0  0  0
  5 20  1  0  0  0  0
  6 22  1  0  0  0  0
  7 11  2  0  0  0  0
  7 21  1  0  0  0  0
  8 12  2  0  0  0  0
  8 24  1  0  0  0  0
  9 25  1  0  0  0  0
 10 25  2  0  0  0  0
 11 26  1  0  0  0  0
 12 28  1  0  0  0  0
 13 14  2  0  0  0  0
 13 27  1  0  0  0  0
 14 29  1  0  0  0  0
 15 23  1  0  0  0  0
 15 26  2  0  0  0  0
 16 24  2  0  0  0  0
 16 30  1  0  0  0  0
 17 29  2  0  0  0  0
 17 31  1  0  0  0  0
 18 32  1  0  0  0  0
 19 32  1  0  0  0  0
 19 33  2  0  0  0  0
 19 34  1  0  0  0  0
 20 22  2  0  0  0  0
 20 39  1  0  0  0  0
 21 23  2  0  0  0  0
 21 40  1  0  0  0  0
 22 48  1  0  0  0  0
 23 41  1  0  0  0  0
 24 67  1  0  0  0  0
 25 76  1  0  0  0  0
 26 77  1  0  0  0  0
 27 31  2  0  0  0  0
 27 76  1  0  0  0  0
 28 30  2  0  0  0  0
 28 78  1  0  0  0  0
 29 79  1  0  0  0  0
 30 80  1  0  0  0  0
 31 81  1  0  0  0  0
 32 61  2  0  0  0  0
 33 62  1  0  0  0  0
 33 65  1  0  0  0  0
 34 66  1  0  0  0  0
 34 71  2  0  0  0  0
 35 49  1  0  0  0  0
 35 68  1  0  0  0  0
 35 72  2  0  0  0  0
 36 58  1  0  0  0  0
 36 63  1  0  0  0  0
 36 73  2  0  0  0  0
 37 59  1  0  0  0  0
 37 69  1  0  0  0  0
 37 74  2  0  0  0  0
 38 64  1  0  0  0  0
 38 67  1  0  0  0  0
 38 75  2  0  0  0  0
 39 42  1  0  0  0  0
 40 49  1  0  0  0  0
 41 63  1  0  0  0  0
 42 44  1  0  0  0  0
 43 45  1  0  0  0  0
 43 46  1  0  0  0  0
 44 48  1  0  0  0  0
 45 50  1  0  0  0  0
 46 64  1  0  0  0  0
 47 50  1  0  0  0  0
 47 64  1  0  0  0  0
 48 68  1  0  0  0  0
 49 63  1  0  0  0  0
 50 62  1  0  0  0  0
 51 59  1  0  0  0  0
 52 60  1  0  0  0  0
 53 60  1  0  0  0  0
 54 60  1  0  0  0  0
 55 70  1  0  0  0  0
 56 57  1  0  0  0  0
 56 77  1  0  0  0  0
 57 78  1  0  0  0  0
 58 60  1  0  0  0  0
 58 69  1  0  0  0  0
 59 70  1  0  0  0  0
 61 62  1  0  0  0  0
M  CHG  1  70   1
M  ISO  4  38 100  56 101  67 100  77 101
M  END
> <Batch ID>
0011

> <Smiles>
CNC(C)C(=O)NC(C(=O)N1Cc2cc([101O:1][101CH2:1]COc3ccc([100NH:0][100C:0](=O)N4CCCC(n5nc(-c6ccc(Oc7ccc(F)cc7F)cc6)c(C(N)=O)c5N)C4)cc3F)ccc2CC1C(=O)NC1CCCc2ccccc21)C(C)(C)C

> <Shape>
0.265

> <Color>
0.145

> <Negative vol penalty>
0.000

$$$$

  -OEChem-04042320433D

 78 86  0     1  0  0  0  0  0999 V2000
  -25.3366  -23.3816   20.1259 C   0  0  0  0  0  0  0  0  0  0  0  0
  -25.3140  -24.2232   21.2335 C   0  0  0  0  0  0  0  0  0  0  0  0
  -26.8607  -13.6713   21.7701 C   0  0  0  0  0  0  0  0  0  0  0  0
  -25.3091  -13.7928   19.9222 C   0  0  0  0  0  0  0  0  0  0  0  0
  -26.2690  -23.5920   19.1109 C   0  0  0  0  0  0  0  0  0  0  0  0
  -26.2246  -25.2750   21.3271 C   0  0  0  0  0  0  0  0  0  0  0  0
  -22.9720  -28.3753   19.2500 C   0  0  0  0  0  0  0  0  0  0  0  0
  -26.6400  -12.2973   21.8651 C   0  0  0  0  0  0  0  0  0  0  0  0
  -25.0883  -12.4188   20.0172 C   0  0  0  0  0  0  0  0  0  0  0  0
  -21.7637  -27.8296   19.6814 C   0  0  0  0  0  0  0  0  0  0  0  0
  -23.3002  -10.3116   21.9648 C   0  0  0  0  0  0  0  0  0  0  0  0
  -21.9816   -9.8612   21.9022 C   0  0  0  0  0  0  0  0  0  0  0  0
  -22.2022  -28.6370   21.9118 C   0  0  0  0  0  0  0  0  0  0  0  0
  -22.5214   -8.5531   19.9439 C   0  0  0  0  0  0  0  0  0  0  0  0
  -26.1952  -14.4191   20.7987 C   0  0  0  0  0  0  0  0  0  0  0  0
  -27.3981  -16.4915   19.9237 C   0  0  0  0  0  0  0  0  0  0  0  0
  -27.1852  -24.6529   19.1876 C   0  0  0  0  0  0  0  0  0  0  0  0
  -23.8109  -29.0476   20.1503 C   0  0  0  0  0  0  0  0  0  0  0  0
  -27.1711  -25.4990   20.3128 C   0  0  0  0  0  0  0  0  0  0  0  0
  -23.4193  -29.1925   21.4889 C   0  0  0  0  0  0  0  0  0  0  0  0
  -25.7538  -11.6711   20.9887 C   0  0  0  0  0  0  0  0  0  0  0  0
  -21.3800  -27.9578   21.0130 C   0  0  0  0  0  0  0  0  0  0  0  0
  -24.2295   -9.8828   21.0169 C   0  0  0  0  0  0  0  0  0  0  0  0
  -21.5922   -8.9819   20.8917 C   0  0  0  0  0  0  0  0  0  0  0  0
  -23.8401   -9.0036   20.0065 C   0  0  0  0  0  0  0  0  0  0  0  0
  -26.4224  -15.8385   20.7004 C   0  0  0  0  0  0  0  0  0  0  0  0
  -27.2007  -17.8271   20.1762 C   0  0  0  0  0  0  0  0  0  0  0  0
  -28.3939  -15.9401   19.0518 C   0  0  0  0  0  0  0  0  0  0  0  0
  -26.7663  -28.5938   21.2290 C   0  0  0  0  0  0  0  0  0  0  0  0
  -26.2667  -31.4617   22.6601 C   0  0  0  0  0  0  0  0  0  0  0  0
  -24.0396  -33.7454   23.8730 C   0  0  0  0  0  0  0  0  0  0  0  0
  -22.4143  -20.8467   21.8577 C   0  0  0  0  0  0  0  0  0  0  0  0
  -28.2053  -24.8120   18.0882 C   0  0  0  0  0  0  0  0  0  0  0  0
  -25.0985  -29.6538   19.6634 C   0  0  0  0  0  0  0  0  0  0  0  0
  -24.2747  -29.9227   22.4907 C   0  0  0  0  0  0  0  0  0  0  0  0
  -28.8905  -26.1761   18.0858 C   0  0  0  0  0  0  0  0  0  0  0  0
  -25.6027  -20.8005   23.5692 C   0  0  0  0  0  0  0  0  0  0  0  0
  -29.3308  -26.5548   19.4963 C   0  0  0  0  0  0  0  0  0  0  0  0
  -26.2663  -19.5726   22.9430 C   0  0  0  0  0  0  0  0  0  0  0  0
  -19.5034  -22.3469   22.4711 C   0  0  0  0  0  0  0  0  0  0  0  0
  -24.1066  -20.5783   23.7700 C   0  0  0  0  0  0  0  0  0  0  0  0
  -24.0306  -18.9684   21.9055 C   0  0  0  0  0  0  0  0  0  0  0  0
  -18.6048  -23.5264   22.1339 C   0  0  0  0  0  0  0  0  0  0  0  0
  -20.9372  -24.2294   22.3555 C   0  0  0  0  0  0  0  0  0  0  0  0
  -28.1264  -26.6659   20.4389 C   0  0  1  0  0  0  0  0  0  0  0  0
  -26.1159  -29.8715   20.7792 C   0  0  1  0  0  0  0  0  0  0  0  0
  -25.5402  -19.1385   21.6560 C   0  0  2  0  0  0  0  0  0  0  0  0
  -20.8666  -22.7700   21.9513 C   0  0  1  0  0  0  0  0  0  0  0  0
  -23.9317  -35.9756   25.0185 C   0  0  0  0  0  0  0  0  0  0  0  0
  -27.0596  -30.1437   25.2954 C   0  0  0  0  0  0  0  0  0  0  0  0
  -26.0381  -32.0892   26.4953 C   0  0  0  0  0  0  0  0  0  0  0  0
  -27.9747  -32.4475   24.9643 C   0  0  0  0  0  0  0  0  0  0  0  0
  -22.5560  -34.9614   21.6193 C   0  0  0  0  0  0  0  0  0  0  0  0
  -19.1158  -25.8780   22.9231 C   0  0  0  0  0  0  0  0  0  0  0  0
  -20.1354  -26.9925   22.7949 C   0  0  0  0  0  0  0  0  0  1  0  0
  -25.7054  -31.9106   23.9877 C   0  0  1  0  0  0  0  0  0  0  0  0
  -23.9333  -35.2478   23.6832 C   0  0  2  0  0  0  0  0  0  0  0  0
  -26.6790  -31.6323   25.1675 C   0  0  0  0  0  0  0  0  0  0  0  0
  -25.6617  -16.6892   21.3944 N   0  0  0  0  0  0  0  0  0  0  0  0
  -26.1595  -17.8904   21.0548 N   0  0  0  0  0  0  0  0  0  0  0  0
  -25.5274  -30.4924   21.9676 N   0  0  0  0  0  0  0  0  0  0  0  0
  -23.4721  -20.1856   22.5038 N   0  0  0  0  0  0  0  0  0  0  0  0
  -27.8180  -18.9417   19.7302 N   0  0  0  0  0  0  0  0  0  0  0  0
  -28.4582  -14.5475   18.9073 N   0  0  0  0  0  0  0  0  0  0  0  0
  -27.4300  -27.9162   20.2241 N   0  0  0  0  0  0  0  0  0  0  0  0
  -25.3491  -33.3161   23.8258 N   0  0  0  0  0  0  0  0  0  0  0  0
  -21.9384  -21.9870   22.4932 N   0  0  0  0  0  0  0  0  0  0  0  0
  -19.5348  -24.7252   22.0685 N   0  3  2  0  0  0  0  0  0  0  0  0
  -22.6765  -35.5908   22.9595 N   0  3  0  0  0  0  0  0  0  0  0  0
  -29.2133  -16.6601   18.4325 O   0  0  0  0  0  0  0  0  0  0  0  0
  -26.6742  -28.2491   22.4013 O   0  0  0  0  0  0  0  0  0  0  0  0
  -27.3186  -31.9581   22.2494 O   0  0  0  0  0  0  0  0  0  0  0  0
  -23.0594  -33.0253   24.0495 O   0  0  0  0  0  0  0  0  0  0  0  0
  -21.9327  -20.4528   20.7900 O   0  0  0  0  0  0  0  0  0  0  0  0
  -25.5384  -10.3303   21.0809 O   0  0  0  0  0  0  0  0  0  0  0  0
  -20.2014  -27.4256   21.4368 O   0  0  0  0  0  0  0  0  0  1  0  0
  -20.3262   -8.5483   20.8326 F   0  0  0  0  0  0  0  0  0  0  0  0
  -24.7286   -8.5873   19.0938 F   0  0  0  0  0  0  0  0  0  0  0  0
  1  2  1  0  0  0  0
  1  5  2  0  0  0  0
  2  6  2  0  0  0  0
  3  8  2  0  0  0  0
  3 15  1  0  0  0  0
  4  9  1  0  0  0  0
  4 15  2  0  0  0  0
  5 17  1  0  0  0  0
  6 19  1  0  0  0  0
  7 10  2  0  0  0  0
  7 18  1  0  0  0  0
  8 21  1  0  0  0  0
  9 21  2  0  0  0  0
 10 22  1  0  0  0  0
 11 12  2  0  0  0  0
 11 23  1  0  0  0  0
 12 24  1  0  0  0  0
 13 20  1  0  0  0  0
 13 22  2  0  0  0  0
 14 24  2  0  0  0  0
 14 25  1  0  0  0  0
 15 26  1  0  0  0  0
 16 26  1  0  0  0  0
 16 27  2  0  0  0  0
 16 28  1  0  0  0  0
 17 19  2  0  0  0  0
 17 33  1  0  0  0  0
 18 20  2  0  0  0  0
 18 34  1  0  0  0  0
 19 45  1  0  0  0  0
 20 35  1  0  0  0  0
 21 75  1  0  0  0  0
 22 76  1  0  0  0  0
 23 25  2  0  0  0  0
 23 75  1  0  0  0  0
 24 77  1  0  0  0  0
 25 78  1  0  0  0  0
 26 59  2  0  0  0  0
 27 60  1  0  0  0  0
 27 63  1  0  0  0  0
 28 64  1  0  0  0  0
 28 70  2  0  0  0  0
 29 46  1  0  0  0  0
 29 65  1  0  0  0  0
 29 71  2  0  0  0  0
 30 56  1  0  0  0  0
 30 61  1  0  0  0  0
 30 72  2  0  0  0  0
 31 57  1  0  0  0  0
 31 66  1  0  0  0  0
 31 73  2  0  0  0  0
 32 62  1  0  0  0  0
 32 67  1  0  0  0  0
 32 74  2  0  0  0  0
 33 36  1  0  0  0  0
 34 46  1  0  0  0  0
 35 61  1  0  0  0  0
 36 38  1  0  0  0  0
 37 39  1  0  0  0  0
 37 41  1  0  0  0  0
 38 45  1  0  0  0  0
 39 47  1  0  0  0  0
 40 43  1  0  0  0  0
 40 48  1  0  0  0  0
 41 62  1  0  0  0  0
 42 47  1  0  0  0  0
 42 62  1  0  0  0  0
 43 68  1  0  0  0  0
 44 48  1  0  0  0  0
 44 68  1  0  0  0  0
 45 65  1  0  0  0  0
 46 61  1  0  0  0  0
 47 60  1  0  0  0  0
 48 67  1  0  0  0  0
 49 57  1  0  0  0  0
 50 58  1  0  0  0  0
 51 58  1  0  0  0  0
 52 58  1  0  0  0  0
 53 69  1  0  0  0  0
 54 55  1  0  0  0  0
 54 68  1  0  0  0  0
 55 76  1  0  0  0  0
 56 58  1  0  0  0  0
 56 66  1  0  0  0  0
 57 69  1  0  0  0  0
 59 60  1  0  0  0  0
M  CHG  2  68   1  69   1
M  ISO  4  32 100  55 101  67 100  76 101
M  END
> <Batch ID>
0011

> <Smiles>
CNC(C)C(=O)NC(C(=O)N1Cc2cc([101O:1][101CH2:1]CN3CCC([100NH:0][100C:0](=O)N4CCCC(n5nc(-c6ccc(Oc7ccc(F)cc7F)cc6)c(C(N)=O)c5N)C4)C3)ccc2CC1C(=O)NC1CCCc2ccccc21)C(C)(C)C

> <Shape>
0.258

> <Color>
0.080

> <Negative vol penalty>
0.000

$$$$

  -OEChem-04042320433D

 82 91  0     1  0  0  0  0  0999 V2000
  -27.5295  -34.3096   25.5324 C   0  0  0  0  0  0  0  0  0  0  0  0
  -28.0544  -33.0424   25.2994 C   0  0  0  0  0  0  0  0  0  0  0  0
  -23.1631   -9.7550   19.9109 C   0  0  0  0  0  0  0  0  0  0  0  0
  -23.9110   -9.7778   22.2081 C   0  0  0  0  0  0  0  0  0  0  0  0
  -26.2139  -34.5953   25.1699 C   0  0  0  0  0  0  0  0  0  0  0  0
  -27.2635  -32.0599   24.7047 C   0  0  0  0  0  0  0  0  0  0  0  0
  -29.1147  -27.6823   20.8427 C   0  0  0  0  0  0  0  0  0  0  0  0
  -30.9460  -19.3519   20.6994 C   0  0  0  0  0  0  0  0  0  0  0  0
  -29.2994  -19.4448   22.4649 C   0  0  0  0  0  0  0  0  0  0  0  0
  -30.8455  -17.9608   20.6788 C   0  0  0  0  0  0  0  0  0  0  0  0
  -29.1988  -18.0537   22.4443 C   0  0  0  0  0  0  0  0  0  0  0  0
  -22.4749   -8.5649   20.1468 C   0  0  0  0  0  0  0  0  0  0  0  0
  -23.2227   -8.5877   22.4440 C   0  0  0  0  0  0  0  0  0  0  0  0
  -29.4318  -26.3378   21.0313 C   0  0  0  0  0  0  0  0  0  0  0  0
  -20.0343   -7.6289   23.0228 C   0  0  0  0  0  0  0  0  0  0  0  0
  -19.2747   -7.5416   24.1894 C   0  0  0  0  0  0  0  0  0  0  0  0
  -27.1952  -25.7235   20.3684 C   0  0  0  0  0  0  0  0  0  0  0  0
  -20.6051   -5.6599   24.9149 C   0  0  0  0  0  0  0  0  0  0  0  0
  -23.8812  -10.3614   20.9416 C   0  0  0  0  0  0  0  0  0  0  0  0
  -24.1007  -12.9011   20.8458 C   0  0  0  0  0  0  0  0  0  0  0  0
  -25.4096  -33.6187   24.5617 C   0  0  0  0  0  0  0  0  0  0  0  0
  -27.8299  -28.0588   20.4253 C   0  0  0  0  0  0  0  0  0  0  0  0
  -25.9355  -32.3325   24.3350 C   0  0  0  0  0  0  0  0  0  0  0  0
  -26.8651  -27.0732   20.1728 C   0  0  0  0  0  0  0  0  0  0  0  0
  -30.1729  -20.0939   21.5925 C   0  0  0  0  0  0  0  0  0  0  0  0
  -29.9719  -17.3117   21.5512 C   0  0  0  0  0  0  0  0  0  0  0  0
  -22.5047   -7.9812   21.4133 C   0  0  0  0  0  0  0  0  0  0  0  0
  -28.4712  -25.3583   20.7969 C   0  0  0  0  0  0  0  0  0  0  0  0
  -21.0793   -6.7316   22.8022 C   0  0  0  0  0  0  0  0  0  0  0  0
  -19.5601   -6.5572   25.1355 C   0  0  0  0  0  0  0  0  0  0  0  0
  -21.3647   -5.7472   23.7483 C   0  0  0  0  0  0  0  0  0  0  0  0
  -24.5928  -11.5904   20.6984 C   0  0  0  0  0  0  0  0  0  0  0  0
  -25.1569  -13.7059   20.4949 C   0  0  0  0  0  0  0  0  0  0  0  0
  -22.8048  -13.3509   21.2628 C   0  0  0  0  0  0  0  0  0  0  0  0
  -25.4880  -29.8073   21.6749 C   0  0  0  0  0  0  0  0  0  0  0  0
  -24.1132  -29.3323   18.7755 C   0  0  0  0  0  0  0  0  0  0  0  0
  -23.8761  -27.4178   15.9603 C   0  0  0  0  0  0  0  0  0  0  0  0
  -30.5651  -15.0135   20.7069 C   0  0  0  0  0  0  0  0  0  0  0  0
  -23.9783  -33.9603   24.2306 C   0  0  0  0  0  0  0  0  0  0  0  0
  -27.5117  -29.5116   20.2008 C   0  0  0  0  0  0  0  0  0  0  0  0
  -25.4773  -27.4237   19.7040 C   0  0  0  0  0  0  0  0  0  0  0  0
  -23.3253  -32.9759   23.2638 C   0  0  0  0  0  0  0  0  0  0  0  0
  -29.5802  -12.5703   18.3116 C   0  0  0  0  0  0  0  0  0  0  0  0
  -23.6115  -31.5395   23.6900 C   0  0  0  0  0  0  0  0  0  0  0  0
  -28.1544  -12.2054   18.7311 C   0  0  0  0  0  0  0  0  0  0  0  0
  -31.1337  -23.6452   21.3375 C   0  0  0  0  0  0  0  0  0  0  0  0
  -30.4775  -12.8322   19.5199 C   0  0  0  0  0  0  0  0  0  0  0  0
  -31.1586  -22.2369   20.7435 C   0  0  0  0  0  0  0  0  0  0  0  0
  -28.5312  -13.4507   20.8977 C   0  0  0  0  0  0  0  0  0  0  0  0
  -29.5018  -22.3327   22.5089 C   0  0  0  0  0  0  0  0  0  0  0  0
  -25.1168  -31.2476   23.6696 C   0  0  1  0  0  0  0  0  0  0  0  0
  -26.0179  -29.8135   20.2689 C   0  0  1  0  0  0  0  0  0  0  0  0
  -27.5735  -13.2413   19.7134 C   0  0  2  0  0  0  0  0  0  0  0  0
  -29.7534  -23.7407   21.9711 C   0  0  2  0  0  0  0  0  0  1  0  0
  -22.6381  -27.2611   13.7831 C   0  0  0  0  0  0  0  0  0  0  0  0
  -21.6540  -28.2914   20.2515 C   0  0  0  0  0  0  0  0  0  0  0  0
  -20.8693  -27.2905   18.0950 C   0  0  0  0  0  0  0  0  0  0  0  0
  -21.1500  -29.7613   18.2920 C   0  0  0  0  0  0  0  0  0  0  0  0
  -26.3719  -27.6695   14.3897 C   0  0  0  0  0  0  0  0  0  0  0  0
  -23.2001  -28.2857   18.1838 C   0  0  1  0  0  0  0  0  0  0  0  0
  -23.8788  -27.7871   14.4878 C   0  0  2  0  0  0  0  0  0  0  0  0
  -21.7439  -28.4004   18.7163 C   0  0  0  0  0  0  0  0  0  0  0  0
  -25.8628  -11.5598   20.2858 N   0  0  0  0  0  0  0  0  0  0  0  0
  -26.1776  -12.8613   20.1709 N   0  0  0  0  0  0  0  0  0  0  0  0
  -30.2736  -21.4691   21.6143 N   0  0  3  0  0  0  0  0  0  0  0  0
  -25.2128  -28.8583   19.5050 N   0  0  0  0  0  0  0  0  0  0  0  0
  -29.8651  -13.8267   20.4035 N   0  0  0  0  0  0  0  0  0  0  0  0
  -25.3029  -15.0467   20.4348 N   0  0  0  0  0  0  0  0  0  0  0  0
  -21.8366  -12.3907   21.5868 N   0  0  0  0  0  0  0  0  0  0  0  0
  -29.8698  -15.8986   21.5302 N   0  0  0  0  0  0  0  0  0  0  0  0
  -25.5711  -31.0303   22.3128 N   0  0  0  0  0  0  0  0  0  0  0  0
  -23.3185  -28.4126   16.7353 N   0  0  0  0  0  0  0  0  0  0  0  0
  -25.0795  -27.2175   13.8132 N   0  3  0  0  0  0  0  0  0  0  0  0
  -22.5089  -14.5681   21.3299 O   0  0  0  0  0  0  0  0  0  0  0  0
  -25.0358  -28.7702   22.1456 O   0  0  0  0  0  0  0  0  0  0  0  0
  -23.8642  -30.5262   18.5909 O   0  0  0  0  0  0  0  0  0  0  0  0
  -24.3205  -26.3517   16.3805 O   0  0  0  0  0  0  0  0  0  0  0  0
  -31.6869  -15.2410   20.2467 O   0  0  0  0  0  0  0  0  0  0  0  0
  -21.8330   -6.8201   21.6439 O   0  0  0  0  0  0  0  0  0  0  0  0
  -28.7779  -24.0453   20.9808 O   0  0  0  0  0  0  0  0  0  1  0  0
  -18.8315   -6.4744   26.2564 F   0  0  0  0  0  0  0  0  0  0  0  0
  -22.3681   -4.8832   23.5424 F   0  0  0  0  0  0  0  0  0  0  0  0
  1  2  1  0  0  0  0
  1  5  2  0  0  0  0
  2  6  2  0  0  0  0
  3 12  2  0  0  0  0
  3 19  1  0  0  0  0
  4 13  1  0  0  0  0
  4 19  2  0  0  0  0
  5 21  1  0  0  0  0
  6 23  1  0  0  0  0
  7 14  2  0  0  0  0
  7 22  1  0  0  0  0
  8 10  2  0  0  0  0
  8 25  1  0  0  0  0
  9 11  1  0  0  0  0
  9 25  2  0  0  0  0
 10 26  1  0  0  0  0
 11 26  2  0  0  0  0
 12 27  1  0  0  0  0
 13 27  2  0  0  0  0
 14 28  1  0  0  0  0
 15 16  2  0  0  0  0
 15 29  1  0  0  0  0
 16 30  1  0  0  0  0
 17 24  1  0  0  0  0
 17 28  2  0  0  0  0
 18 30  2  0  0  0  0
 18 31  1  0  0  0  0
 19 32  1  0  0  0  0
 20 32  1  0  0  0  0
 20 33  2  0  0  0  0
 20 34  1  0  0  0  0
 21 23  2  0  0  0  0
 21 39  1  0  0  0  0
 22 24  2  0  0  0  0
 22 40  1  0  0  0  0
 23 51  1  0  0  0  0
 24 41  1  0  0  0  0
 25 65  1  0  0  0  0
 26 70  1  0  0  0  0
 27 79  1  0  0  0  0
 28 80  1  0  0  0  0
 29 31  2  0  0  0  0
 29 79  1  0  0  0  0
 30 81  1  0  0  0  0
 31 82  1  0  0  0  0
 32 63  2  0  0  0  0
 33 64  1  0  0  0  0
 33 68  1  0  0  0  0
 34 69  1  0  0  0  0
 34 74  2  0  0  0  0
 35 52  1  0  0  0  0
 35 71  1  0  0  0  0
 35 75  2  0  0  0  0
 36 60  1  0  0  0  0
 36 66  1  0  0  0  0
 36 76  2  0  0  0  0
 37 61  1  0  0  0  0
 37 72  1  0  0  0  0
 37 77  2  0  0  0  0
 38 67  1  0  0  0  0
 38 70  1  0  0  0  0
 38 78  2  0  0  0  0
 39 42  1  0  0  0  0
 40 52  1  0  0  0  0
 41 66  1  0  0  0  0
 42 44  1  0  0  0  0
 43 45  1  0  0  0  0
 43 47  1  0  0  0  0
 44 51  1  0  0  0  0
 45 53  1  0  0  0  0
 46 48  1  0  0  0  0
 46 54  1  0  0  0  0
 47 67  1  0  0  0  0
 48 65  1  0  0  0  0
 49 53  1  0  0  0  0
 49 67  1  0  0  0  0
 50 54  1  0  0  0  0
 50 65  1  0  0  0  0
 51 71  1  0  0  0  0
 52 66  1  0  0  0  0
 53 64  1  0  0  0  0
 54 80  1  0  0  0  0
 55 61  1  0  0  0  0
 56 62  1  0  0  0  0
 57 62  1  0  0  0  0
 58 62  1  0  0  0  0
 59 73  1  0  0  0  0
 60 62  1  0  0  0  0
 60 72  1  0  0  0  0
 61 73  1  0  0  0  0
 63 64  1  0  0  0  0
M  CHG  1  73   1
M  ISO  4  38 100  54 101  70 100  80 101
M  END
> <Batch ID>
0011

> <Smiles>
CNC(C)C(=O)NC(C(=O)N1Cc2cc([101O:1][101CH:1]3CCN(c4ccc([100NH:0][100C:0](=O)N5CCCC(n6nc(-c7ccc(Oc8ccc(F)cc8F)cc7)c(C(N)=O)c6N)C5)cc4)C3)ccc2CC1C(=O)NC1CCCc2ccccc21)C(C)(C)C

> <Shape>
0.353

> <Color>
0.208

> <Negative vol penalty>
0.000

$$$$

  -OEChem-04042320433D

 89 98  0     1  0  0  0  0  0999 V2000
  -27.3367  -19.0887   27.2233 C   0  0  0  0  0  0  0  0  0  0  0  0
  -27.5063  -20.4414   27.5008 C   0  0  0  0  0  0  0  0  0  0  0  0
  -26.4239  -12.7704   21.7163 C   0  0  0  0  0  0  0  0  0  0  0  0
  -26.0529  -13.6010   19.4781 C   0  0  0  0  0  0  0  0  0  0  0  0
  -26.7913  -18.6917   26.0031 C   0  0  0  0  0  0  0  0  0  0  0  0
  -27.1317  -21.3978   26.5578 C   0  0  0  0  0  0  0  0  0  0  0  0
  -24.5049  -28.0458   26.0885 C   0  0  0  0  0  0  0  0  0  0  0  0
  -29.6786  -28.7158   19.2958 C   0  0  0  0  0  0  0  0  0  0  0  0
  -30.1573  -27.4057   19.2955 C   0  0  0  0  0  0  0  0  0  0  0  0
  -25.1822  -12.1356   21.6866 C   0  0  0  0  0  0  0  0  0  0  0  0
  -24.8112  -12.9661   19.4483 C   0  0  0  0  0  0  0  0  0  0  0  0
  -24.7756  -29.2703   25.4795 C   0  0  0  0  0  0  0  0  0  0  0  0
  -23.8578   -9.3143   20.3754 C   0  0  0  0  0  0  0  0  0  0  0  0
  -23.7899   -8.0010   20.8404 C   0  0  0  0  0  0  0  0  0  0  0  0
  -23.7707  -28.4702   23.4376 C   0  0  0  0  0  0  0  0  0  0  0  0
  -28.4020  -28.2490   21.2932 C   0  0  0  0  0  0  0  0  0  0  0  0
  -22.1991   -8.6803   22.5271 C   0  0  0  0  0  0  0  0  0  0  0  0
  -26.8592  -13.5031   20.6121 C   0  0  0  0  0  0  0  0  0  0  0  0
  -29.3798  -13.6253   20.2387 C   0  0  0  0  0  0  0  0  0  0  0  0
  -26.4009  -19.6440   25.0485 C   0  0  0  0  0  0  0  0  0  0  0  0
  -23.8737  -27.0187   25.3721 C   0  0  0  0  0  0  0  0  0  0  0  0
  -26.5818  -21.0130   25.3231 C   0  0  0  0  0  0  0  0  0  0  0  0
  -23.4907  -27.2345   24.0406 C   0  0  0  0  0  0  0  0  0  0  0  0
  -28.8010  -29.1375   20.2947 C   0  0  0  0  0  0  0  0  0  0  0  0
  -29.7583  -26.5172   20.2940 C   0  0  0  0  0  0  0  0  0  0  0  0
  -24.3759  -12.2334   20.5526 C   0  0  0  0  0  0  0  0  0  0  0  0
  -24.4111  -29.4817   24.1530 C   0  0  0  0  0  0  0  0  0  0  0  0
  -23.0964  -10.3107   20.9864 C   0  0  0  0  0  0  0  0  0  0  0  0
  -22.9605   -7.6840   21.9162 C   0  0  0  0  0  0  0  0  0  0  0  0
  -28.8807  -26.9388   21.2929 C   0  0  0  0  0  0  0  0  0  0  0  0
  -22.2670   -9.9937   22.0621 C   0  0  0  0  0  0  0  0  0  0  0  0
  -28.1415  -14.1596   20.6425 C   0  0  0  0  0  0  0  0  0  0  0  0
  -30.2804  -14.6375   20.4642 C   0  0  0  0  0  0  0  0  0  0  0  0
  -29.6884  -12.3299   19.7073 C   0  0  0  0  0  0  0  0  0  0  0  0
  -24.6799  -24.0712   24.4967 C   0  0  0  0  0  0  0  0  0  0  0  0
  -21.6070  -23.9561   23.4641 C   0  0  0  0  0  0  0  0  0  0  0  0
  -18.8385  -25.6521   22.4123 C   0  0  0  0  0  0  0  0  0  0  0  0
  -29.6388  -20.5034   20.6534 C   0  0  0  0  0  0  0  0  0  0  0  0
  -25.8598  -19.1652   23.7247 C   0  0  0  0  0  0  0  0  0  0  0  0
  -23.5647  -25.7128   26.0515 C   0  0  0  0  0  0  0  0  0  0  0  0
  -22.7926  -26.1712   23.2340 C   0  0  0  0  0  0  0  0  0  0  0  0
  -25.1417  -20.2534   22.9307 C   0  0  0  0  0  0  0  0  0  0  0  0
  -31.0182  -18.4345   23.2830 C   0  0  0  0  0  0  0  0  0  0  0  0
  -25.9670  -21.5361   22.9160 C   0  0  0  0  0  0  0  0  0  0  0  0
  -30.5466  -17.0437   22.8548 C   0  0  0  0  0  0  0  0  0  0  0  0
  -31.7171  -23.3923   20.2488 C   0  0  0  0  0  0  0  0  0  0  0  0
  -29.9573  -19.4919   22.9919 C   0  0  0  0  0  0  0  0  0  0  0  0
  -31.5379  -24.8306   19.7636 C   0  0  0  0  0  0  0  0  0  0  0  0
  -29.0357  -18.1496   21.1419 C   0  0  0  0  0  0  0  0  0  0  0  0
  -29.5033  -24.0798   20.8382 C   0  0  0  0  0  0  0  0  0  0  0  0
  -26.1647  -22.0812   24.3356 C   0  0  1  0  0  0  0  0  0  0  0  0
  -23.3799  -24.5584   25.0715 C   0  0  1  0  0  0  0  0  0  0  0  0
  -30.0730  -17.0393   21.3892 C   0  0  2  0  0  0  0  0  0  0  0  0
  -30.2868  -22.8746   20.3154 C   0  0  2  0  0  0  0  0  0  0  0  0
  -16.4925  -25.2835   21.6014 C   0  0  0  0  0  0  0  0  0  0  0  0
  -22.6854  -23.0972   20.7421 C   0  0  0  0  0  0  0  0  0  0  0  0
  -20.4546  -23.6641   19.7572 C   0  0  0  0  0  0  0  0  0  0  0  0
  -20.6345  -21.8738   21.4850 C   0  0  0  0  0  0  0  0  0  0  0  0
  -17.6922  -27.1635   24.6840 C   0  0  0  0  0  0  0  0  0  0  0  0
  -26.7427  -30.4748   18.3425 C   0  0  0  0  0  0  0  0  0  0  0  0
  -28.2862  -30.5468   20.2951 C   0  0  0  0  0  0  0  0  0  0  0  0
  -25.8743  -31.7875   21.8013 C   0  0  0  0  0  0  0  0  0  0  0  0
  -26.1887  -31.8886   20.3163 C   0  0  0  0  0  0  0  0  0  0  0  0
  -24.9093  -30.6605   22.1484 C   0  0  0  0  0  0  0  0  0  1  0  0
  -20.8995  -24.2921   22.1735 C   0  0  1  0  0  0  0  0  0  0  0  0
  -17.3778  -25.5416   22.8106 C   0  0  2  0  0  0  0  0  0  0  0  0
  -21.1834  -23.2513   21.0538 C   0  0  0  0  0  0  0  0  0  0  0  0
  -28.2425  -15.4138   21.0906 N   0  0  0  0  0  0  0  0  0  0  0  0
  -29.5551  -15.6760   20.9699 N   0  0  0  0  0  0  0  0  0  0  0  0
  -30.2327  -25.2228   20.2914 N   0  0  3  0  0  0  0  0  0  0  0  0
  -22.5180  -24.9093   23.9408 N   0  0  0  0  0  0  0  0  0  0  0  0
  -29.5637  -19.4471   21.5765 N   0  0  0  0  0  0  0  0  0  0  0  0
  -31.6140  -14.7317   20.2773 N   0  0  0  0  0  0  0  0  0  0  0  0
  -28.6440  -11.4103   19.5400 N   0  0  0  0  0  0  0  0  0  0  0  0
  -24.9658  -22.7517   24.7911 N   0  0  0  0  0  0  0  0  0  0  0  0
  -19.4872  -24.4392   22.5085 N   0  0  0  0  0  0  0  0  0  0  0  0
  -30.1437  -21.7002   21.1468 N   0  0  0  0  0  0  0  0  0  0  0  0
  -16.9230  -26.8005   23.4660 N   0  3  0  0  0  0  0  0  0  0  0  0
  -26.8512  -30.6526   19.8378 N   0  3  1  0  0  0  0  0  0  0  0  0
  -30.8581  -11.9920   19.4057 O   0  0  0  0  0  0  0  0  0  0  0  0
  -25.3716  -24.8354   23.8340 O   0  0  0  0  0  0  0  0  0  0  0  0
  -21.3551  -22.8905   24.0322 O   0  0  0  0  0  0  0  0  0  0  0  0
  -19.3518  -26.7079   22.0485 O   0  0  0  0  0  0  0  0  0  0  0  0
  -29.2868  -20.3870   19.4746 O   0  0  0  0  0  0  0  0  0  0  0  0
  -23.1643  -11.6139   20.5231 O   0  0  0  0  0  0  0  0  0  0  0  0
  -24.6748  -30.6758   23.5559 O   0  0  0  0  0  0  0  0  0  1  0  0
  -22.8942   -6.4225   22.3615 F   0  0  0  0  0  0  0  0  0  0  0  0
  -28.4908  -26.0933   22.2574 F   0  0  0  0  0  0  0  0  0  0  0  0
  -21.5323  -10.9464   22.6523 F   0  0  0  0  0  0  0  0  0  0  0  0
  1  2  1  0  0  0  0
  1  5  2  0  0  0  0
  2  6  2  0  0  0  0
  3 10  2  0  0  0  0
  3 18  1  0  0  0  0
  4 11  1  0  0  0  0
  4 18  2  0  0  0  0
  5 20  1  0  0  0  0
  6 22  1  0  0  0  0
  7 12  2  0  0  0  0
  7 21  1  0  0  0  0
  8  9  2  0  0  0  0
  8 24  1  0  0  0  0
  9 25  1  0  0  0  0
 10 26  1  0  0  0  0
 11 26  2  0  0  0  0
 12 27  1  0  0  0  0
 13 14  2  0  0  0  0
 13 28  1  0  0  0  0
 14 29  1  0  0  0  0
 15 23  1  0  0  0  0
 15 27  2  0  0  0  0
 16 24  2  0  0  0  0
 16 30  1  0  0  0  0
 17 29  2  0  0  0  0
 17 31  1  0  0  0  0
 18 32  1  0  0  0  0
 19 32  1  0  0  0  0
 19 33  2  0  0  0  0
 19 34  1  0  0  0  0
 20 22  2  0  0  0  0
 20 39  1  0  0  0  0
 21 23  2  0  0  0  0
 21 40  1  0  0  0  0
 22 51  1  0  0  0  0
 23 41  1  0  0  0  0
 24 61  1  0  0  0  0
 25 30  2  0  0  0  0
 25 70  1  0  0  0  0
 26 85  1  0  0  0  0
 27 86  1  0  0  0  0
 28 31  2  0  0  0  0
 28 85  1  0  0  0  0
 29 87  1  0  0  0  0
 30 88  1  0  0  0  0
 31 89  1  0  0  0  0
 32 68  2  0  0  0  0
 33 69  1  0  0  0  0
 33 73  1  0  0  0  0
 34 74  1  0  0  0  0
 34 80  2  0  0  0  0
 35 52  1  0  0  0  0
 35 75  1  0  0  0  0
 35 81  2  0  0  0  0
 36 65  1  0  0  0  0
 36 71  1  0  0  0  0
 36 82  2  0  0  0  0
 37 66  1  0  0  0  0
 37 76  1  0  0  0  0
 37 83  2  0  0  0  0
 38 72  1  0  0  0  0
 38 77  1  0  0  0  0
 38 84  2  0  0  0  0
 39 42  1  0  0  0  0
 40 52  1  0  0  0  0
 41 71  1  0  0  0  0
 42 44  1  0  0  0  0
 43 45  1  0  0  0  0
 43 47  1  0  0  0  0
 44 51  1  0  0  0  0
 45 53  1  0  0  0  0
 46 48  1  0  0  0  0
 46 54  1  0  0  0  0
 47 72  1  0  0  0  0
 48 70  1  0  0  0  0
 49 53  1  0  0  0  0
 49 72  1  0  0  0  0
 50 54  1  0  0  0  0
 50 70  1  0  0  0  0
 51 75  1  0  0  0  0
 52 71  1  0  0  0  0
 53 69  1  0  0  0  0
 54 77  1  0  0  0  0
 55 66  1  0  0  0  0
 56 67  1  0  0  0  0
 57 67  1  0  0  0  0
 58 67  1  0  0  0  0
 59 78  1  0  0  0  0
 60 79  1  0  0  0  0
 61 79  1  0  0  0  0
 62 63  1  0  0  0  0
 62 64  1  0  0  0  0
 63 79  1  0  0  0  0
 64 86  1  0  0  0  0
 65 67  1  0  0  0  0
 65 76  1  0  0  0  0
 66 78  1  0  0  0  0
 68 69  1  0  0  0  0
M  CHG  2  78   1  79   1
M  ISO  4  38 100  64 101  77 100  86 101
M  END
> <Batch ID>
0011

> <Smiles>
CNC(C)C(=O)NC(C(=O)N1Cc2cc([101O:1][101CH2:1]CCN(C)Cc3ccc(N4CCC([100NH:0][100C:0](=O)N5CCCC(n6nc(-c7ccc(Oc8ccc(F)cc8F)cc7)c(C(N)=O)c6N)C5)C4)c(F)c3)ccc2CC1C(=O)NC1CCCc2ccccc21)C(C)(C)C

> <Shape>
0.251

> <Color>
0.065

> <Negative vol penalty>
0.000

$$$$

  -OEChem-04042320433D

 83 91  0     1  0  0  0  0  0999 V2000
  -28.2537  -24.8500   16.7743 C   0  0  0  0  0  0  0  0  0  0  0  0
  -27.1415  -24.9423   17.6050 C   0  0  0  0  0  0  0  0  0  0  0  0
  -23.7863  -13.1505   18.4760 C   0  0  0  0  0  0  0  0  0  0  0  0
  -25.3456  -11.9697   19.8943 C   0  0  0  0  0  0  0  0  0  0  0  0
  -29.4299  -25.5196   17.1092 C   0  0  0  0  0  0  0  0  0  0  0  0
  -27.2052  -25.7034   18.7716 C   0  0  0  0  0  0  0  0  0  0  0  0
  -23.1135  -28.6165   19.4168 C   0  0  0  0  0  0  0  0  0  0  0  0
  -21.8896  -23.6817   24.1119 C   0  0  0  0  0  0  0  0  0  0  0  0
  -22.8133  -22.6417   24.0091 C   0  0  0  0  0  0  0  0  0  0  0  0
  -23.8927  -12.1415   17.5189 C   0  0  0  0  0  0  0  0  0  0  0  0
  -25.4519  -10.9606   18.9373 C   0  0  0  0  0  0  0  0  0  0  0  0
  -21.9591  -27.9964   19.8929 C   0  0  0  0  0  0  0  0  0  0  0  0
  -23.6503   -8.2845   17.9308 C   0  0  0  0  0  0  0  0  0  0  0  0
  -23.5984   -6.9635   18.3755 C   0  0  0  0  0  0  0  0  0  0  0  0
  -22.4385  -28.8195   22.1092 C   0  0  0  0  0  0  0  0  0  0  0  0
  -21.1938  -23.2893   21.8318 C   0  0  0  0  0  0  0  0  0  0  0  0
  -25.8044   -6.5725   17.4712 C   0  0  0  0  0  0  0  0  0  0  0  0
  -24.5128  -13.0647   19.6637 C   0  0  0  0  0  0  0  0  0  0  0  0
  -23.4864  -14.1753   21.7182 C   0  0  0  0  0  0  0  0  0  0  0  0
  -29.5050  -26.2971   18.2756 C   0  0  0  0  0  0  0  0  0  0  0  0
  -23.9462  -29.3348   20.2868 C   0  0  0  0  0  0  0  0  0  0  0  0
  -28.3840  -26.3829   19.1231 C   0  0  0  0  0  0  0  0  0  0  0  0
  -23.6015  -29.4499   21.6411 C   0  0  0  0  0  0  0  0  0  0  0  0
  -21.0798  -24.0055   23.0233 C   0  0  0  0  0  0  0  0  0  0  0  0
  -22.9274  -21.9254   22.8177 C   0  0  0  0  0  0  0  0  0  0  0  0
  -24.7255  -11.0465   17.7495 C   0  0  0  0  0  0  0  0  0  0  0  0
  -21.6230  -28.0954   21.2399 C   0  0  0  0  0  0  0  0  0  0  0  0
  -24.7791   -8.7496   17.2562 C   0  0  0  0  0  0  0  0  0  0  0  0
  -24.6755   -6.1075   18.1458 C   0  0  0  0  0  0  0  0  0  0  0  0
  -25.8562   -7.8936   17.0264 C   0  0  0  0  0  0  0  0  0  0  0  0
  -22.1176  -22.2492   21.7290 C   0  0  0  0  0  0  0  0  0  0  0  0
  -24.4038  -14.1070   20.6526 C   0  0  0  0  0  0  0  0  0  0  0  0
  -23.7930  -15.3499   22.3605 C   0  0  0  0  0  0  0  0  0  0  0  0
  -22.4498  -13.2587   22.0939 C   0  0  0  0  0  0  0  0  0  0  0  0
  -26.9652  -29.0570   21.2419 C   0  0  0  0  0  0  0  0  0  0  0  0
  -26.3515  -31.8830   22.7114 C   0  0  0  0  0  0  0  0  0  0  0  0
  -24.0414  -34.0219   24.0288 C   0  0  0  0  0  0  0  0  0  0  0  0
  -24.9438  -20.8779   21.8018 C   0  0  0  0  0  0  0  0  0  0  0  0
  -30.8130  -26.9644   18.6202 C   0  0  0  0  0  0  0  0  0  0  0  0
  -25.1737  -30.0203   19.7523 C   0  0  0  0  0  0  0  0  0  0  0  0
  -24.4512  -30.2265   22.6124 C   0  0  0  0  0  0  0  0  0  0  0  0
  -30.6800  -28.0537   19.6813 C   0  0  0  0  0  0  0  0  0  0  0  0
  -27.7344  -18.4655   21.8583 C   0  0  0  0  0  0  0  0  0  0  0  0
  -29.8274  -27.5624   20.8469 C   0  0  0  0  0  0  0  0  0  0  0  0
  -27.0404  -17.1353   21.5708 C   0  0  0  0  0  0  0  0  0  0  0  0
  -27.0046  -19.6376   21.2089 C   0  0  0  0  0  0  0  0  0  0  0  0
  -24.8665  -18.3916   21.2860 C   0  0  0  0  0  0  0  0  0  0  0  0
  -28.4062  -27.2188   20.3844 C   0  0  1  0  0  0  0  0  0  0  0  0
  -26.2208  -30.2946   20.8274 C   0  0  1  0  0  0  0  0  0  0  0  0
  -25.5539  -17.1960   21.9627 C   0  0  1  0  0  0  0  0  0  0  0  0
  -23.8454  -36.2364   25.1928 C   0  0  0  0  0  0  0  0  0  0  0  0
  -27.3297  -30.6045   25.3034 C   0  0  0  0  0  0  0  0  0  0  0  0
  -26.2420  -32.4791   26.5569 C   0  0  0  0  0  0  0  0  0  0  0  0
  -28.0892  -32.9611   24.9512 C   0  0  0  0  0  0  0  0  0  0  0  0
  -23.9196  -19.8614   23.8236 C   0  0  0  0  0  0  0  0  0  0  0  0
  -20.0328  -25.8041   24.3757 C   0  0  0  0  0  0  0  0  0  0  0  0
  -22.3961  -35.1549   21.8453 C   0  0  0  0  0  0  0  0  0  0  0  0
  -19.3084  -25.4211   22.0141 C   0  0  0  0  0  0  0  0  0  0  0  0
  -20.0739  -26.3020   21.0410 C   0  0  0  0  0  0  0  0  0  1  0  0
  -25.8186  -32.2913   24.0636 C   0  0  1  0  0  0  0  0  0  0  0  0
  -23.8366  -35.5158   23.8536 C   0  0  2  0  0  0  0  0  0  0  0  0
  -26.8547  -32.0677   25.2011 C   0  0  0  0  0  0  0  0  0  0  0  0
  -25.2310  -15.1550   20.6165 N   0  0  0  0  0  0  0  0  0  0  0  0
  -24.8346  -15.8929   21.6674 N   0  0  0  0  0  0  0  0  0  0  0  0
  -25.6446  -30.8735   22.0428 N   0  0  0  0  0  0  0  0  0  0  0  0
  -25.5842  -19.6457   21.5612 N   0  0  0  0  0  0  0  0  0  0  0  0
  -23.2705  -15.9611   23.4449 N   0  0  0  0  0  0  0  0  0  0  0  0
  -22.2710  -12.1006   21.3251 N   0  0  0  0  0  0  0  0  0  0  0  0
  -27.6272  -28.4254   20.2064 N   0  0  0  0  0  0  0  0  0  0  0  0
  -25.3715  -33.6732   23.9258 N   0  0  0  0  0  0  0  0  0  0  0  0
  -23.8941  -20.8553   22.7455 N   0  0  0  0  0  0  0  0  0  0  0  0
  -20.1527  -25.0511   23.1269 N   0  0  3  0  0  0  0  0  0  0  0  0
  -22.5328  -35.7848   23.1838 N   0  3  0  0  0  0  0  0  0  0  0  0
  -21.6936  -13.4688   23.0724 O   0  0  0  0  0  0  0  0  0  0  0  0
  -26.9420  -28.7023   22.4146 O   0  0  0  0  0  0  0  0  0  0  0  0
  -27.3538  -32.4442   22.2618 O   0  0  0  0  0  0  0  0  0  0  0  0
  -23.1147  -33.2427   24.2400 O   0  0  0  0  0  0  0  0  0  0  0  0
  -25.3019  -21.9200   21.2401 O   0  0  0  0  0  0  0  0  0  0  0  0
  -24.8294  -10.0615   16.8159 O   0  0  0  0  0  0  0  0  0  0  0  0
  -20.4971  -27.4906   21.7074 O   0  0  0  0  0  0  0  0  0  1  0  0
  -24.6262   -4.8394   18.5743 F   0  0  0  0  0  0  0  0  0  0  0  0
  -26.9439   -8.3349   16.3799 F   0  0  0  0  0  0  0  0  0  0  0  0
  -22.2266  -21.3882   20.2349 Cl  0  0  0  0  0  0  0  0  0  0  0  0
  1  2  1  0  0  0  0
  1  5  2  0  0  0  0
  2  6  2  0  0  0  0
  3 10  2  0  0  0  0
  3 18  1  0  0  0  0
  4 11  1  0  0  0  0
  4 18  2  0  0  0  0
  5 20  1  0  0  0  0
  6 22  1  0  0  0  0
  7 12  2  0  0  0  0
  7 21  1  0  0  0  0
  8  9  2  0  0  0  0
  8 24  1  0  0  0  0
  9 25  1  0  0  0  0
 10 26  1  0  0  0  0
 11 26  2  0  0  0  0
 12 27  1  0  0  0  0
 13 14  2  0  0  0  0
 13 28  1  0  0  0  0
 14 29  1  0  0  0  0
 15 23  1  0  0  0  0
 15 27  2  0  0  0  0
 16 24  2  0  0  0  0
 16 31  1  0  0  0  0
 17 29  2  0  0  0  0
 17 30  1  0  0  0  0
 18 32  1  0  0  0  0
 19 32  1  0  0  0  0
 19 33  2  0  0  0  0
 19 34  1  0  0  0  0
 20 22  2  0  0  0  0
 20 39  1  0  0  0  0
 21 23  2  0  0  0  0
 21 40  1  0  0  0  0
 22 48  1  0  0  0  0
 23 41  1  0  0  0  0
 24 72  1  0  0  0  0
 25 31  2  0  0  0  0
 25 71  1  0  0  0  0
 26 79  1  0  0  0  0
 27 80  1  0  0  0  0
 28 30  2  0  0  0  0
 28 79  1  0  0  0  0
 29 81  1  0  0  0  0
 30 82  1  0  0  0  0
 31 83  1  0  0  0  0
 32 63  2  0  0  0  0
 33 64  1  0  0  0  0
 33 67  1  0  0  0  0
 34 68  1  0  0  0  0
 34 74  2  0  0  0  0
 35 49  1  0  0  0  0
 35 69  1  0  0  0  0
 35 75  2  0  0  0  0
 36 60  1  0  0  0  0
 36 65  1  0  0  0  0
 36 76  2  0  0  0  0
 37 61  1  0  0  0  0
 37 70  1  0  0  0  0
 37 77  2  0  0  0  0
 38 66  1  0  0  0  0
 38 71  1  0  0  0  0
 38 78  2  0  0  0  0
 39 42  1  0  0  0  0
 40 49  1  0  0  0  0
 41 65  1  0  0  0  0
 42 44  1  0  0  0  0
 43 45  1  0  0  0  0
 43 46  1  0  0  0  0
 44 48  1  0  0  0  0
 45 50  1  0  0  0  0
 46 66  1  0  0  0  0
 47 50  1  0  0  0  0
 47 66  1  0  0  0  0
 48 69  1  0  0  0  0
 49 65  1  0  0  0  0
 50 64  1  0  0  0  0
 51 61  1  0  0  0  0
 52 62  1  0  0  0  0
 53 62  1  0  0  0  0
 54 62  1  0  0  0  0
 55 71  1  0  0  0  0
 56 72  1  0  0  0  0
 57 73  1  0  0  0  0
 58 59  1  0  0  0  0
 58 72  1  0  0  0  0
 59 80  1  0  0  0  0
 60 62  1  0  0  0  0
 60 70  1  0  0  0  0
 61 73  1  0  0  0  0
 63 64  1  0  0  0  0
M  CHG  1  73   1
M  ISO  4  38 100  59 101  71 100  80 101
M  END
> <Batch ID>
0011

> <Smiles>
CNC(C)C(=O)NC(C(=O)N1Cc2cc([101O:1][101CH2:1]CN(C)c3ccc([100N:0](C)[100C:0](=O)N4CCCC(n5nc(-c6ccc(Oc7ccc(F)cc7F)cc6)c(C(N)=O)c5N)C4)c(Cl)c3)ccc2CC1C(=O)NC1CCCc2ccccc21)C(C)(C)C

> <Shape>
0.234

> <Color>
0.078

> <Negative vol penalty>
0.000

$$$$

  -OEChem-04042320433D

 88 97  0     1  0  0  0  0  0999 V2000
  -17.0279  -26.9784   22.4177 C   0  0  0  0  0  0  0  0  0  0  0  0
  -17.7038  -27.8170   21.5372 C   0  0  0  0  0  0  0  0  0  0  0  0
  -25.1818   -8.2048   21.8025 C   0  0  0  0  0  0  0  0  0  0  0  0
  -23.8661  -10.1365   21.1905 C   0  0  0  0  0  0  0  0  0  0  0  0
  -17.4495  -26.8751   23.7426 C   0  0  0  0  0  0  0  0  0  0  0  0
  -18.8013  -28.5536   21.9815 C   0  0  0  0  0  0  0  0  0  0  0  0
  -25.2682  -27.7974   18.8997 C   0  0  0  0  0  0  0  0  0  0  0  0
  -30.5185  -22.5703   18.8243 C   0  0  0  0  0  0  0  0  0  0  0  0
  -30.4218  -22.9938   21.2009 C   0  0  0  0  0  0  0  0  0  0  0  0
  -30.6373  -23.9393   18.5851 C   0  0  0  0  0  0  0  0  0  0  0  0
  -30.5406  -24.3629   20.9617 C   0  0  0  0  0  0  0  0  0  0  0  0
  -24.0356   -7.4110   21.7614 C   0  0  0  0  0  0  0  0  0  0  0  0
  -22.7198   -9.3427   21.1494 C   0  0  0  0  0  0  0  0  0  0  0  0
  -26.4876  -27.8643   18.2253 C   0  0  0  0  0  0  0  0  0  0  0  0
  -21.3699   -6.7814   23.7419 C   0  0  0  0  0  0  0  0  0  0  0  0
  -21.1667   -5.8831   24.7894 C   0  0  0  0  0  0  0  0  0  0  0  0
  -27.3266  -29.4210   19.8747 C   0  0  0  0  0  0  0  0  0  0  0  0
  -21.1906   -4.0469   23.2193 C   0  0  0  0  0  0  0  0  0  0  0  0
  -25.0970   -9.5675   21.5172 C   0  0  0  0  0  0  0  0  0  0  0  0
  -27.4481  -10.2372   20.7880 C   0  0  0  0  0  0  0  0  0  0  0  0
  -18.5586  -27.6035   24.2009 C   0  0  0  0  0  0  0  0  0  0  0  0
  -25.0785  -28.5311   20.0740 C   0  0  0  0  0  0  0  0  0  0  0  0
  -19.2374  -28.4610   23.3141 C   0  0  0  0  0  0  0  0  0  0  0  0
  -26.1117  -29.3483   20.5613 C   0  0  0  0  0  0  0  0  0  0  0  0
  -30.4107  -22.0975   20.1322 C   0  0  0  0  0  0  0  0  0  0  0  0
  -30.6483  -24.8356   19.6538 C   0  0  0  0  0  0  0  0  0  0  0  0
  -22.8046   -7.9799   21.4348 C   0  0  0  0  0  0  0  0  0  0  0  0
  -27.5141  -28.6743   18.7115 C   0  0  0  0  0  0  0  0  0  0  0  0
  -21.4834   -6.3126   22.4331 C   0  0  0  0  0  0  0  0  0  0  0  0
  -21.0770   -4.5158   24.5281 C   0  0  0  0  0  0  0  0  0  0  0  0
  -21.3938   -4.9453   22.1718 C   0  0  0  0  0  0  0  0  0  0  0  0
  -26.2806  -10.3881   21.5600 C   0  0  0  0  0  0  0  0  0  0  0  0
  -28.2678  -11.2587   21.2018 C   0  0  0  0  0  0  0  0  0  0  0  0
  -27.7634   -9.2611   19.7863 C   0  0  0  0  0  0  0  0  0  0  0  0
  -22.7749  -29.4410   22.8921 C   0  0  0  0  0  0  0  0  0  0  0  0
  -25.5710  -29.0910   24.1044 C   0  0  0  0  0  0  0  0  0  0  0  0
  -28.7084  -28.2018   25.1062 C   0  0  0  0  0  0  0  0  0  0  0  0
  -28.6019  -16.8095   22.3825 C   0  0  0  0  0  0  0  0  0  0  0  0
  -18.9482  -27.4951   25.6539 C   0  0  0  0  0  0  0  0  0  0  0  0
  -23.7605  -28.5371   20.7996 C   0  0  0  0  0  0  0  0  0  0  0  0
  -25.8507  -30.1467   21.8093 C   0  0  0  0  0  0  0  0  0  0  0  0
  -20.3494  -28.0237   25.9498 C   0  0  0  0  0  0  0  0  0  0  0  0
  -27.8954  -14.4209   25.1206 C   0  0  0  0  0  0  0  0  0  0  0  0
  -20.5632  -29.3757   25.2766 C   0  0  0  0  0  0  0  0  0  0  0  0
  -27.4409  -13.1732   24.3651 C   0  0  0  0  0  0  0  0  0  0  0  0
  -29.0998  -18.5936   20.0118 C   0  0  0  0  0  0  0  0  0  0  0  0
  -30.7837  -18.8122   21.8515 C   0  0  0  0  0  0  0  0  0  0  0  0
  -27.5932  -15.6973   24.3413 C   0  0  0  0  0  0  0  0  0  0  0  0
  -29.6351  -19.8741   19.3711 C   0  0  0  0  0  0  0  0  0  0  0  0
  -31.3199  -20.0886   21.2048 C   0  0  0  0  0  0  0  0  0  0  0  0
  -27.6920  -14.4572   22.2044 C   0  0  0  0  0  0  0  0  0  0  0  0
  -20.4474  -29.2573   23.7521 C   0  0  1  0  0  0  0  0  0  0  0  0
  -23.9132  -28.6428   22.3275 C   0  0  1  0  0  0  0  0  0  0  0  0
  -28.0239  -13.1510   22.9415 C   0  0  2  0  0  0  0  0  0  0  0  0
  -30.1802  -17.8690   20.8122 C   0  0  0  0  0  0  0  0  0  0  0  0
  -30.1433  -28.0180   27.1567 C   0  0  0  0  0  0  0  0  0  0  0  0
  -25.9157  -32.1215   24.1303 C   0  0  0  0  0  0  0  0  0  0  0  0
  -27.9964  -31.8022   25.4856 C   0  0  0  0  0  0  0  0  0  0  0  0
  -25.7930  -31.0658   26.3941 C   0  0  0  0  0  0  0  0  0  0  0  0
  -30.4220  -15.4555   21.2617 C   0  0  0  0  0  0  0  0  0  0  0  0
  -29.0690  -25.2879   24.7341 C   0  0  0  0  0  0  0  0  0  0  0  0
  -31.0576  -28.2844   18.1854 C   0  0  0  0  0  0  0  0  0  0  0  0
  -30.8830  -26.7730   18.0990 C   0  0  0  0  0  0  0  0  0  0  0  0
  -29.8692  -28.9844   18.8341 C   0  0  0  0  0  0  0  0  0  1  0  0
  -26.8621  -29.7509   24.5179 C   0  0  1  0  0  0  0  0  0  0  0  0
  -29.1897  -27.2911   26.2213 C   0  0  2  0  0  0  0  0  0  0  0  0
  -26.6390  -31.1725   25.1066 C   0  0  0  0  0  0  0  0  0  0  0  0
  -26.3487  -11.4237   22.4008 N   0  0  0  0  0  0  0  0  0  0  0  0
  -27.5688  -11.9328   22.1595 N   0  0  0  0  0  0  0  0  0  0  0  0
  -30.2898  -20.7229   20.3717 N   0  0  0  0  0  0  0  0  0  0  0  0
  -25.1349  -29.3203   22.7938 N   0  0  0  0  0  0  0  0  0  0  0  0
  -28.1210  -15.6319   22.9781 N   0  0  0  0  0  0  0  0  0  0  0  0
  -29.5111  -11.6369   20.8363 N   0  0  0  0  0  0  0  0  0  0  0  0
  -27.4324   -9.5407   18.4534 N   0  0  0  0  0  0  0  0  0  0  0  0
  -30.7666  -26.1962   19.4166 N   0  0  0  0  0  0  0  0  0  0  0  0
  -21.6564  -28.6886   23.1961 N   0  0  0  0  0  0  0  0  0  0  0  0
  -27.5208  -28.8228   25.4307 N   0  0  0  0  0  0  0  0  0  0  0  0
  -29.6402  -16.6758   21.4483 N   0  0  0  0  0  0  0  0  0  0  0  0
  -29.8975  -26.1082   25.6548 N   0  3  0  0  0  0  0  0  0  0  0  0
  -28.3072   -8.1661   20.0671 O   0  0  0  0  0  0  0  0  0  0  0  0
  -22.9014  -30.6505   23.0427 O   0  0  0  0  0  0  0  0  0  0  0  0
  -24.9608  -28.3952   24.9210 O   0  0  0  0  0  0  0  0  0  0  0  0
  -29.3261  -28.3505   24.0541 O   0  0  0  0  0  0  0  0  0  0  0  0
  -28.1365  -17.9181   22.6765 O   0  0  0  0  0  0  0  0  0  0  0  0
  -21.6859   -7.2057   21.3943 O   0  0  0  0  0  0  0  0  0  0  0  0
  -28.7036  -28.7314   18.0507 O   0  0  0  0  0  0  0  0  0  1  0  0
  -20.8834   -3.6531   25.5343 F   0  0  0  0  0  0  0  0  0  0  0  0
  -21.5032   -4.4888   20.9166 F   0  0  0  0  0  0  0  0  0  0  0  0
  1  2  1  0  0  0  0
  1  5  2  0  0  0  0
  2  6  2  0  0  0  0
  3 12  2  0  0  0  0
  3 19  1  0  0  0  0
  4 13  1  0  0  0  0
  4 19  2  0  0  0  0
  5 21  1  0  0  0  0
  6 23  1  0  0  0  0
  7 14  2  0  0  0  0
  7 22  1  0  0  0  0
  8 10  2  0  0  0  0
  8 25  1  0  0  0  0
  9 11  1  0  0  0  0
  9 25  2  0  0  0  0
 10 26  1  0  0  0  0
 11 26  2  0  0  0  0
 12 27  1  0  0  0  0
 13 27  2  0  0  0  0
 14 28  1  0  0  0  0
 15 16  2  0  0  0  0
 15 29  1  0  0  0  0
 16 30  1  0  0  0  0
 17 24  1  0  0  0  0
 17 28  2  0  0  0  0
 18 30  2  0  0  0  0
 18 31  1  0  0  0  0
 19 32  1  0  0  0  0
 20 32  1  0  0  0  0
 20 33  2  0  0  0  0
 20 34  1  0  0  0  0
 21 23  2  0  0  0  0
 21 39  1  0  0  0  0
 22 24  2  0  0  0  0
 22 40  1  0  0  0  0
 23 52  1  0  0  0  0
 24 41  1  0  0  0  0
 25 70  1  0  0  0  0
 26 75  1  0  0  0  0
 27 85  1  0  0  0  0
 28 86  1  0  0  0  0
 29 31  2  0  0  0  0
 29 85  1  0  0  0  0
 30 87  1  0  0  0  0
 31 88  1  0  0  0  0
 32 68  2  0  0  0  0
 33 69  1  0  0  0  0
 33 73  1  0  0  0  0
 34 74  1  0  0  0  0
 34 80  2  0  0  0  0
 35 53  1  0  0  0  0
 35 76  1  0  0  0  0
 35 81  2  0  0  0  0
 36 65  1  0  0  0  0
 36 71  1  0  0  0  0
 36 82  2  0  0  0  0
 37 66  1  0  0  0  0
 37 77  1  0  0  0  0
 37 83  2  0  0  0  0
 38 72  1  0  0  0  0
 38 78  1  0  0  0  0
 38 84  2  0  0  0  0
 39 42  1  0  0  0  0
 40 53  1  0  0  0  0
 41 71  1  0  0  0  0
 42 44  1  0  0  0  0
 43 45  1  0  0  0  0
 43 48  1  0  0  0  0
 44 52  1  0  0  0  0
 45 54  1  0  0  0  0
 46 49  1  0  0  0  0
 46 55  1  0  0  0  0
 47 50  1  0  0  0  0
 47 55  1  0  0  0  0
 48 72  1  0  0  0  0
 49 70  1  0  0  0  0
 50 70  1  0  0  0  0
 51 54  1  0  0  0  0
 51 72  1  0  0  0  0
 52 76  1  0  0  0  0
 53 71  1  0  0  0  0
 54 69  1  0  0  0  0
 55 78  1  0  0  0  0
 56 66  1  0  0  0  0
 57 67  1  0  0  0  0
 58 67  1  0  0  0  0
 59 67  1  0  0  0  0
 60 78  1  0  0  0  0
 61 79  1  0  0  0  0
 62 63  1  0  0  0  0
 62 64  1  0  0  0  0
 63 75  1  0  0  0  0
 64 86  1  0  0  0  0
 65 67  1  0  0  0  0
 65 77  1  0  0  0  0
 66 79  1  0  0  0  0
 68 69  1  0  0  0  0
M  CHG  1  79   1
M  ISO  4  38 100  64 101  78 100  86 101
M  END
> <Batch ID>
0011

> <Smiles>
CNC(C)C(=O)NC(C(=O)N1Cc2cc([101O:1][101CH2:1]CCNc3ccc(N4CCC([100N:0](C)[100C:0](=O)N5CCCC(n6nc(-c7ccc(Oc8ccc(F)cc8F)cc7)c(C(N)=O)c6N)C5)CC4)cc3)ccc2CC1C(=O)NC1CCCc2ccccc21)C(C)(C)C

> <Shape>
0.319

> <Color>
0.091

> <Negative vol penalty>
0.000

$$$$

  -OEChem-04042320433D

 83 91  0     1  0  0  0  0  0999 V2000
  -17.4048  -11.4590   22.9787 C   0  0  0  0  0  0  0  0  0  0  0  0
  -17.8097  -12.7294   22.5818 C   0  0  0  0  0  0  0  0  0  0  0  0
  -28.6058  -28.2756   20.6917 C   0  0  0  0  0  0  0  0  0  0  0  0
  -27.3373  -26.7674   19.2940 C   0  0  0  0  0  0  0  0  0  0  0  0
  -18.3307  -10.5737   23.5290 C   0  0  0  0  0  0  0  0  0  0  0  0
  -19.1407  -13.1156   22.7359 C   0  0  0  0  0  0  0  0  0  0  0  0
  -22.3674  -16.7678   19.0271 C   0  0  0  0  0  0  0  0  0  0  0  0
  -21.9060  -24.8222   19.6584 C   0  0  0  0  0  0  0  0  0  0  0  0
  -23.3037  -25.3068   21.5685 C   0  0  0  0  0  0  0  0  0  0  0  0
  -22.8105  -23.8442   19.2446 C   0  0  0  0  0  0  0  0  0  0  0  0
  -24.2082  -24.3288   21.1548 C   0  0  0  0  0  0  0  0  0  0  0  0
  -29.7399  -27.4822   20.5186 C   0  0  0  0  0  0  0  0  0  0  0  0
  -28.4715  -25.9740   19.1209 C   0  0  0  0  0  0  0  0  0  0  0  0
  -22.6865  -18.1235   19.0908 C   0  0  0  0  0  0  0  0  0  0  0  0
  -30.1679  -23.6357   20.8774 C   0  0  0  0  0  0  0  0  0  0  0  0
  -30.0168  -22.2543   20.9975 C   0  0  0  0  0  0  0  0  0  0  0  0
  -24.8094  -17.5706   20.0942 C   0  0  0  0  0  0  0  0  0  0  0  0
  -30.7885  -21.9724   18.7254 C   0  0  0  0  0  0  0  0  0  0  0  0
  -27.4045  -27.9182   20.0794 C   0  0  0  0  0  0  0  0  0  0  0  0
  -25.8231  -29.8214   19.4594 C   0  0  0  0  0  0  0  0  0  0  0  0
  -19.6757  -10.9457   23.6810 C   0  0  0  0  0  0  0  0  0  0  0  0
  -23.2639  -15.8023   19.5073 C   0  0  0  0  0  0  0  0  0  0  0  0
  -20.0852  -12.2348   23.2899 C   0  0  0  0  0  0  0  0  0  0  0  0
  -24.5004  -16.2032   20.0331 C   0  0  0  0  0  0  0  0  0  0  0  0
  -22.1527  -25.5535   20.8203 C   0  0  0  0  0  0  0  0  0  0  0  0
  -23.9615  -23.5975   19.9928 C   0  0  0  0  0  0  0  0  0  0  0  0
  -29.6727  -26.3315   19.7332 C   0  0  0  0  0  0  0  0  0  0  0  0
  -23.9063  -18.5253   19.6271 C   0  0  0  0  0  0  0  0  0  0  0  0
  -30.6291  -24.1856   19.6813 C   0  0  0  0  0  0  0  0  0  0  0  0
  -30.3272  -21.4227   19.9215 C   0  0  0  0  0  0  0  0  0  0  0  0
  -30.9394  -23.3539   18.6053 C   0  0  0  0  0  0  0  0  0  0  0  0
  -26.2325  -28.7370   20.2583 C   0  0  0  0  0  0  0  0  0  0  0  0
  -24.6590  -30.2579   20.0434 C   0  0  0  0  0  0  0  0  0  0  0  0
  -26.4398  -30.3839   18.2937 C   0  0  0  0  0  0  0  0  0  0  0  0
  -23.1777  -13.6065   21.8039 C   0  0  0  0  0  0  0  0  0  0  0  0
  -26.0382  -12.7388   20.5443 C   0  0  0  0  0  0  0  0  0  0  0  0
  -28.8011  -13.6246   18.7475 C   0  0  0  0  0  0  0  0  0  0  0  0
  -20.8438  -27.1644   23.7058 C   0  0  0  0  0  0  0  0  0  0  0  0
  -20.6302   -9.9713   24.3245 C   0  0  0  0  0  0  0  0  0  0  0  0
  -22.9161  -14.3424   19.4068 C   0  0  0  0  0  0  0  0  0  0  0  0
  -25.5063  -15.2050   20.5434 C   0  0  0  0  0  0  0  0  0  0  0  0
  -22.0994  -10.3247   24.1080 C   0  0  0  0  0  0  0  0  0  0  0  0
  -22.4207  -30.4671   24.2602 C   0  0  0  0  0  0  0  0  0  0  0  0
  -22.3378  -11.8065   24.3801 C   0  0  0  0  0  0  0  0  0  0  0  0
  -23.5860  -30.4499   23.2723 C   0  0  0  0  0  0  0  0  0  0  0  0
  -22.0497  -29.0619   24.7242 C   0  0  0  0  0  0  0  0  0  0  0  0
  -22.9293  -28.0987   22.6235 C   0  0  0  0  0  0  0  0  0  0  0  0
  -21.5254  -12.6818   23.4181 C   0  0  1  0  0  0  0  0  0  0  0  0
  -23.6875  -13.4749   20.3967 C   0  0  1  0  0  0  0  0  0  0  0  0
  -23.2978  -29.4952   22.1006 C   0  0  2  0  0  0  0  0  0  0  0  0
  -30.9860  -12.7124   17.9160 C   0  0  0  0  0  0  0  0  0  0  0  0
  -27.2097  -12.9935   23.3502 C   0  0  0  0  0  0  0  0  0  0  0  0
  -29.4915  -13.0139   22.3202 C   0  0  0  0  0  0  0  0  0  0  0  0
  -28.0235  -11.0145   22.0556 C   0  0  0  0  0  0  0  0  0  0  0  0
  -26.0774  -22.3538   20.3622 C   0  0  0  0  0  0  0  0  0  0  0  0
  -19.6353  -25.2862   22.6612 C   0  0  0  0  0  0  0  0  0  0  0  0
  -28.0370  -14.0531   15.9206 C   0  0  0  0  0  0  0  0  0  0  0  0
  -21.1865  -26.5996   21.2632 C   0  0  0  0  0  0  0  0  0  0  0  0
  -24.6363  -21.8279   18.3886 C   0  0  0  0  0  0  0  0  0  0  0  0
  -23.6670  -20.6959   18.6854 C   0  0  0  0  0  0  0  0  0  1  0  0
  -27.4759  -13.1310   20.7858 C   0  0  1  0  0  0  0  0  0  0  0  0
  -29.5166  -12.9399   17.5970 C   0  0  2  0  0  0  0  0  0  0  0  0
  -28.0306  -12.5574   22.1202 C   0  0  0  0  0  0  0  0  0  0  0  0
  -25.3966  -28.4993   21.2726 N   0  0  0  0  0  0  0  0  0  0  0  0
  -24.4503  -29.4405   21.1150 N   0  0  0  0  0  0  0  0  0  0  0  0
  -25.1173  -13.7897   20.4293 N   0  0  0  0  0  0  0  0  0  0  0  0
  -21.8235  -28.1643   23.5908 N   0  0  0  0  0  0  0  0  0  0  0  0
  -23.8040  -31.2574   19.7397 N   0  0  0  0  0  0  0  0  0  0  0  0
  -27.6324  -29.8138   17.8278 N   0  0  0  0  0  0  0  0  0  0  0  0
  -22.1594  -12.7267   22.1179 N   0  0  0  0  0  0  0  0  0  0  0  0
  -28.2176  -12.7125   19.6013 N   0  0  0  0  0  0  0  0  0  0  0  0
  -24.8694  -22.6139   19.5785 N   0  0  3  0  0  0  0  0  0  0  0  0
  -20.6477  -26.3304   22.5946 N   0  0  0  0  0  0  0  0  0  0  0  0
  -29.4268  -13.7709   16.3632 N   0  3  0  0  0  0  0  0  0  0  0  0
  -25.9566  -31.3733   17.6928 O   0  0  0  0  0  0  0  0  0  0  0  0
  -23.6725  -14.4432   22.5501 O   0  0  0  0  0  0  0  0  0  0  0  0
  -25.7444  -11.5441   20.4537 O   0  0  0  0  0  0  0  0  0  0  0  0
  -28.7667  -14.8462   18.8780 O   0  0  0  0  0  0  0  0  0  0  0  0
  -20.1756  -27.0312   24.7390 O   0  0  0  0  0  0  0  0  0  0  0  0
  -30.7792  -25.5572   19.5639 O   0  0  0  0  0  0  0  0  0  0  0  0
  -24.2200  -19.8479   19.6911 O   0  0  0  0  0  0  0  0  0  1  0  0
  -30.1836  -20.0960   20.0375 F   0  0  0  0  0  0  0  0  0  0  0  0
  -31.3841  -23.8762   17.4541 F   0  0  0  0  0  0  0  0  0  0  0  0
  1  2  1  0  0  0  0
  1  5  2  0  0  0  0
  2  6  2  0  0  0  0
  3 12  2  0  0  0  0
  3 19  1  0  0  0  0
  4 13  1  0  0  0  0
  4 19  2  0  0  0  0
  5 21  1  0  0  0  0
  6 23  1  0  0  0  0
  7 14  2  0  0  0  0
  7 22  1  0  0  0  0
  8 10  2  0  0  0  0
  8 25  1  0  0  0  0
  9 11  1  0  0  0  0
  9 25  2  0  0  0  0
 10 26  1  0  0  0  0
 11 26  2  0  0  0  0
 12 27  1  0  0  0  0
 13 27  2  0  0  0  0
 14 28  1  0  0  0  0
 15 16  2  0  0  0  0
 15 29  1  0  0  0  0
 16 30  1  0  0  0  0
 17 24  1  0  0  0  0
 17 28  2  0  0  0  0
 18 30  2  0  0  0  0
 18 31  1  0  0  0  0
 19 32  1  0  0  0  0
 20 32  1  0  0  0  0
 20 33  2  0  0  0  0
 20 34  1  0  0  0  0
 21 23  2  0  0  0  0
 21 39  1  0  0  0  0
 22 24  2  0  0  0  0
 22 40  1  0  0  0  0
 23 48  1  0  0  0  0
 24 41  1  0  0  0  0
 25 58  1  0  0  0  0
 26 72  1  0  0  0  0
 27 80  1  0  0  0  0
 28 81  1  0  0  0  0
 29 31  2  0  0  0  0
 29 80  1  0  0  0  0
 30 82  1  0  0  0  0
 31 83  1  0  0  0  0
 32 64  2  0  0  0  0
 33 65  1  0  0  0  0
 33 68  1  0  0  0  0
 34 69  1  0  0  0  0
 34 75  2  0  0  0  0
 35 49  1  0  0  0  0
 35 70  1  0  0  0  0
 35 76  2  0  0  0  0
 36 61  1  0  0  0  0
 36 66  1  0  0  0  0
 36 77  2  0  0  0  0
 37 62  1  0  0  0  0
 37 71  1  0  0  0  0
 37 78  2  0  0  0  0
 38 67  1  0  0  0  0
 38 73  1  0  0  0  0
 38 79  2  0  0  0  0
 39 42  1  0  0  0  0
 40 49  1  0  0  0  0
 41 66  1  0  0  0  0
 42 44  1  0  0  0  0
 43 45  1  0  0  0  0
 43 46  1  0  0  0  0
 44 48  1  0  0  0  0
 45 50  1  0  0  0  0
 46 67  1  0  0  0  0
 47 50  1  0  0  0  0
 47 67  1  0  0  0  0
 48 70  1  0  0  0  0
 49 66  1  0  0  0  0
 50 65  1  0  0  0  0
 51 62  1  0  0  0  0
 52 63  1  0  0  0  0
 53 63  1  0  0  0  0
 54 63  1  0  0  0  0
 55 72  1  0  0  0  0
 56 73  1  0  0  0  0
 57 74  1  0  0  0  0
 58 73  1  0  0  0  0
 59 60  1  0  0  0  0
 59 72  1  0  0  0  0
 60 81  1  0  0  0  0
 61 63  1  0  0  0  0
 61 71  1  0  0  0  0
 62 74  1  0  0  0  0
 64 65  1  0  0  0  0
M  CHG  1  74   1
M  ISO  4  38 100  60 101  73 100  81 101
M  END
> <Batch ID>
0011

> <Smiles>
CNC(C)C(=O)NC(C(=O)N1Cc2cc([101O:1][101CH2:1]CN(C)c3ccc(C[100N:0](C)[100C:0](=O)N4CCCC(n5nc(-c6ccc(Oc7ccc(F)cc7F)cc6)c(C(N)=O)c5N)C4)cc3)ccc2CC1C(=O)NC1CCCc2ccccc21)C(C)(C)C

> <Shape>
0.241

> <Color>
0.066

> <Negative vol penalty>
0.000

$$$$

  -OEChem-04042320433D

 85 95  0     1  0  0  0  0  0999 V2000
  -29.5860  -23.8351   17.2766 C   0  0  0  0  0  0  0  0  0  0  0  0
  -28.3852  -23.8958   17.9763 C   0  0  0  0  0  0  0  0  0  0  0  0
  -29.4310  -14.5798   18.7565 C   0  0  0  0  0  0  0  0  0  0  0  0
  -27.2160  -14.0164   19.5396 C   0  0  0  0  0  0  0  0  0  0  0  0
  -30.6760  -24.5958   17.6974 C   0  0  0  0  0  0  0  0  0  0  0  0
  -28.2740  -24.7166   19.0981 C   0  0  0  0  0  0  0  0  0  0  0  0
  -23.9701  -27.3850   19.1340 C   0  0  0  0  0  0  0  0  0  0  0  0
  -29.8196  -13.2476   18.8970 C   0  0  0  0  0  0  0  0  0  0  0  0
  -27.6046  -12.6842   19.6802 C   0  0  0  0  0  0  0  0  0  0  0  0
  -22.8090  -26.7154   19.5178 C   0  0  0  0  0  0  0  0  0  0  0  0
  -28.0651  -10.0011   17.6778 C   0  0  0  0  0  0  0  0  0  0  0  0
  -27.1944   -9.0201   17.2034 C   0  0  0  0  0  0  0  0  0  0  0  0
  -22.9902  -27.6772   21.7226 C   0  0  0  0  0  0  0  0  0  0  0  0
  -20.6330  -21.6872   19.4860 C   0  0  0  0  0  0  0  0  0  0  0  0
  -18.9507  -21.5311   21.2386 C   0  0  0  0  0  0  0  0  0  0  0  0
  -27.0355   -8.0863   19.4260 C   0  0  0  0  0  0  0  0  0  0  0  0
  -28.1292  -14.9643   19.0778 C   0  0  0  0  0  0  0  0  0  0  0  0
  -28.2826  -17.4605   19.5805 C   0  0  0  0  0  0  0  0  0  0  0  0
  -30.5752  -25.4336   18.8193 C   0  0  0  0  0  0  0  0  0  0  0  0
  -24.6572  -28.1985   20.0465 C   0  0  0  0  0  0  0  0  0  0  0  0
  -29.3640  -25.4882   19.5352 C   0  0  0  0  0  0  0  0  0  0  0  0
  -24.1584  -28.3581   21.3472 C   0  0  0  0  0  0  0  0  0  0  0  0
  -19.9077  -19.5389   20.3320 C   0  0  0  0  0  0  0  0  0  0  0  0
  -19.7496  -22.2997   20.3797 C   0  0  0  0  0  0  0  0  0  0  0  0
  -20.7016  -20.3017   19.4737 C   0  0  0  0  0  0  0  0  0  0  0  0
  -28.9064  -12.2998   19.3589 C   0  0  0  0  0  0  0  0  0  0  0  0
  -22.3204  -26.8592   20.8130 C   0  0  0  0  0  0  0  0  0  0  0  0
  -28.4211  -10.0246   19.0263 C   0  0  0  0  0  0  0  0  0  0  0  0
  -26.6795   -8.0628   18.0774 C   0  0  0  0  0  0  0  0  0  0  0  0
  -19.0237  -20.1380   21.2156 C   0  0  0  0  0  0  0  0  0  0  0  0
  -27.9063   -9.0673   19.9004 C   0  0  0  0  0  0  0  0  0  0  0  0
  -27.7274  -16.3404   18.9334 C   0  0  0  0  0  0  0  0  0  0  0  0
  -27.5555  -18.5256   19.1078 C   0  0  0  0  0  0  0  0  0  0  0  0
  -29.3595  -17.5319   20.5244 C   0  0  0  0  0  0  0  0  0  0  0  0
  -27.5630  -28.1661   21.3345 C   0  0  0  0  0  0  0  0  0  0  0  0
  -26.6235  -31.0157   22.5674 C   0  0  0  0  0  0  0  0  0  0  0  0
  -24.0587  -33.0622   23.5058 C   0  0  0  0  0  0  0  0  0  0  0  0
  -22.1673  -19.8619   17.5150 C   0  0  0  0  0  0  0  0  0  0  0  0
  -31.7949  -26.2011   19.2641 C   0  0  0  0  0  0  0  0  0  0  0  0
  -25.8934  -28.9351   19.6090 C   0  0  0  0  0  0  0  0  0  0  0  0
  -20.0996  -18.0756   20.0949 C   0  0  0  0  0  0  0  0  0  0  0  0
  -24.8476  -29.2358   22.3587 C   0  0  0  0  0  0  0  0  0  0  0  0
  -31.4808  -27.3309   20.2414 C   0  0  0  0  0  0  0  0  0  0  0  0
  -24.7444  -19.3678   15.1527 C   0  0  0  0  0  0  0  0  0  0  0  0
  -30.5350  -26.8436   21.3345 C   0  0  0  0  0  0  0  0  0  0  0  0
  -25.8227  -18.6161   15.9286 C   0  0  0  0  0  0  0  0  0  0  0  0
  -18.8250  -25.8463   20.7878 C   0  0  0  0  0  0  0  0  0  0  0  0
  -21.3215  -18.0698   19.1676 C   0  0  0  0  0  0  0  0  0  0  0  0
  -23.3558  -18.9008   15.5677 C   0  0  0  0  0  0  0  0  0  0  0  0
  -18.7766  -24.4123   21.3150 C   0  0  0  0  0  0  0  0  0  0  0  0
  -24.1655  -18.3331   17.8442 C   0  0  0  0  0  0  0  0  0  0  0  0
  -20.4577  -24.5707   19.5774 C   0  0  0  0  0  0  0  0  0  0  0  0
  -29.1967  -26.3855   20.7423 C   0  0  1  0  0  0  0  0  0  0  0  0
  -26.7968  -29.3304   20.7731 C   0  0  1  0  0  0  0  0  0  0  0  0
  -25.5948  -18.7515   17.4422 C   0  0  1  0  0  0  0  0  0  0  0  0
  -20.2146  -25.9550   20.1771 C   0  0  2  0  0  0  0  0  0  1  0  0
  -23.6038  -35.3144   24.5148 C   0  0  0  0  0  0  0  0  0  0  0  0
  -27.3828  -29.9342   25.3176 C   0  0  0  0  0  0  0  0  0  0  0  0
  -26.0535  -31.7939   26.3388 C   0  0  0  0  0  0  0  0  0  0  0  0
  -28.0353  -32.3149   24.9162 C   0  0  0  0  0  0  0  0  0  0  0  0
  -22.6010  -33.9754   21.0975 C   0  0  0  0  0  0  0  0  0  0  0  0
  -25.9208  -31.4551   23.8291 C   0  0  1  0  0  0  0  0  0  0  0  0
  -23.7862  -34.5290   23.2253 C   0  0  2  0  0  0  0  0  0  0  0  0
  -26.8359  -31.3564   25.0822 C   0  0  0  0  0  0  0  0  0  0  0  0
  -26.7247  -16.6637   18.1123 N   0  0  0  0  0  0  0  0  0  0  0  0
  -26.6442  -17.9991   18.2403 N   0  0  0  0  0  0  0  0  0  0  0  0
  -21.5137  -19.4588   18.6815 N   0  0  0  0  0  0  0  0  0  0  0  0
  -19.6646  -23.6756   20.4208 N   0  0  3  0  0  0  0  0  0  0  0  0
  -26.0562  -29.9302   21.8849 N   0  0  0  0  0  0  0  0  0  0  0  0
  -23.1574  -19.0038   17.0141 N   0  0  0  0  0  0  0  0  0  0  0  0
  -27.6131  -19.8517   19.3538 N   0  0  0  0  0  0  0  0  0  0  0  0
  -29.0593  -17.4282   21.8895 N   0  0  0  0  0  0  0  0  0  0  0  0
  -28.3719  -27.5283   20.4136 N   0  0  0  0  0  0  0  0  0  0  0  0
  -25.4104  -32.7963   23.5662 N   0  0  0  0  0  0  0  0  0  0  0  0
  -22.5509  -34.6787   22.4052 N   0  3  0  0  0  0  0  0  0  0  0  0
  -30.5506  -17.6997   20.1688 O   0  0  0  0  0  0  0  0  0  0  0  0
  -27.4311  -27.8694   22.5162 O   0  0  0  0  0  0  0  0  0  0  0  0
  -27.6342  -31.6180   22.1969 O   0  0  0  0  0  0  0  0  0  0  0  0
  -23.1622  -32.2357   23.6599 O   0  0  0  0  0  0  0  0  0  0  0  0
  -21.8520  -20.8886   16.9008 O   0  0  0  0  0  0  0  0  0  0  0  0
  -29.2851  -10.9996   19.4960 O   0  0  0  0  0  0  0  0  0  0  0  0
  -21.1801  -26.2019   21.1929 O   0  0  0  0  0  0  0  0  0  1  0  0
  -25.8421   -7.1217   17.6220 F   0  0  0  0  0  0  0  0  0  0  0  0
  -18.2493  -19.4022   22.0222 F   0  0  0  0  0  0  0  0  0  0  0  0
  -28.2437   -9.0855   21.1972 F   0  0  0  0  0  0  0  0  0  0  0  0
  1  2  1  0  0  0  0
  1  5  2  0  0  0  0
  2  6  2  0  0  0  0
  3  8  2  0  0  0  0
  3 17  1  0  0  0  0
  4  9  1  0  0  0  0
  4 17  2  0  0  0  0
  5 19  1  0  0  0  0
  6 21  1  0  0  0  0
  7 10  2  0  0  0  0
  7 20  1  0  0  0  0
  8 26  1  0  0  0  0
  9 26  2  0  0  0  0
 10 27  1  0  0  0  0
 11 12  2  0  0  0  0
 11 28  1  0  0  0  0
 12 29  1  0  0  0  0
 13 22  1  0  0  0  0
 13 27  2  0  0  0  0
 14 24  2  0  0  0  0
 14 25  1  0  0  0  0
 15 24  1  0  0  0  0
 15 30  2  0  0  0  0
 16 29  2  0  0  0  0
 16 31  1  0  0  0  0
 17 32  1  0  0  0  0
 18 32  1  0  0  0  0
 18 33  2  0  0  0  0
 18 34  1  0  0  0  0
 19 21  2  0  0  0  0
 19 39  1  0  0  0  0
 20 22  2  0  0  0  0
 20 40  1  0  0  0  0
 21 53  1  0  0  0  0
 22 42  1  0  0  0  0
 23 25  2  0  0  0  0
 23 30  1  0  0  0  0
 23 41  1  0  0  0  0
 24 68  1  0  0  0  0
 25 67  1  0  0  0  0
 26 81  1  0  0  0  0
 27 82  1  0  0  0  0
 28 31  2  0  0  0  0
 28 81  1  0  0  0  0
 29 83  1  0  0  0  0
 30 84  1  0  0  0  0
 31 85  1  0  0  0  0
 32 65  2  0  0  0  0
 33 66  1  0  0  0  0
 33 71  1  0  0  0  0
 34 72  1  0  0  0  0
 34 76  2  0  0  0  0
 35 54  1  0  0  0  0
 35 73  1  0  0  0  0
 35 77  2  0  0  0  0
 36 62  1  0  0  0  0
 36 69  1  0  0  0  0
 36 78  2  0  0  0  0
 37 63  1  0  0  0  0
 37 74  1  0  0  0  0
 37 79  2  0  0  0  0
 38 67  1  0  0  0  0
 38 70  1  0  0  0  0
 38 80  2  0  0  0  0
 39 43  1  0  0  0  0
 40 54  1  0  0  0  0
 41 48  1  0  0  0  0
 42 69  1  0  0  0  0
 43 45  1  0  0  0  0
 44 46  1  0  0  0  0
 44 49  1  0  0  0  0
 45 53  1  0  0  0  0
 46 55  1  0  0  0  0
 47 50  1  0  0  0  0
 47 56  1  0  0  0  0
 48 67  1  0  0  0  0
 49 70  1  0  0  0  0
 50 68  1  0  0  0  0
 51 55  1  0  0  0  0
 51 70  1  0  0  0  0
 52 56  1  0  0  0  0
 52 68  1  0  0  0  0
 53 73  1  0  0  0  0
 54 69  1  0  0  0  0
 55 66  1  0  0  0  0
 56 82  1  0  0  0  0
 57 63  1  0  0  0  0
 58 64  1  0  0  0  0
 59 64  1  0  0  0  0
 60 64  1  0  0  0  0
 61 75  1  0  0  0  0
 62 64  1  0  0  0  0
 62 74  1  0  0  0  0
 63 75  1  0  0  0  0
 65 66  1  0  0  0  0
M  CHG  1  75   1
M  ISO  4  38 100  56 101  67 100  82 101
M  END
> <Batch ID>
0011

> <Smiles>
CNC(C)C(=O)NC(C(=O)N1Cc2cc([101O:1][101CH:1]3CCN(c4cc(F)c5c(c4)[100N:0]([100C:0](=O)N4CCCC(n6nc(-c7ccc(Oc8ccc(F)cc8F)cc7)c(C(N)=O)c6N)C4)CC5)C3)ccc2CC1C(=O)NC1CCCc2ccccc21)C(C)(C)C

> <Shape>
0.243

> <Color>
0.067

> <Negative vol penalty>
0.000

$$$$

  -OEChem-04042320433D

 88 98  0     1  0  0  0  0  0999 V2000
  -32.0195  -17.8812   24.3145 C   0  0  0  0  0  0  0  0  0  0  0  0
  -30.7172  -18.2776   24.0276 C   0  0  0  0  0  0  0  0  0  0  0  0
  -27.5917  -26.9247   18.8477 C   0  0  0  0  0  0  0  0  0  0  0  0
  -28.8884  -27.9681   20.5989 C   0  0  0  0  0  0  0  0  0  0  0  0
  -32.6024  -16.8360   23.5993 C   0  0  0  0  0  0  0  0  0  0  0  0
  -29.9974  -17.6295   23.0244 C   0  0  0  0  0  0  0  0  0  0  0  0
  -25.2502  -16.5564   24.4235 C   0  0  0  0  0  0  0  0  0  0  0  0
  -20.9833  -24.5792   25.2962 C   0  0  0  0  0  0  0  0  0  0  0  0
  -20.6527  -25.8190   24.7493 C   0  0  0  0  0  0  0  0  0  0  0  0
  -28.5296  -25.8955   18.7664 C   0  0  0  0  0  0  0  0  0  0  0  0
  -29.8263  -26.9389   20.5177 C   0  0  0  0  0  0  0  0  0  0  0  0
  -24.3278  -17.6015   24.4001 C   0  0  0  0  0  0  0  0  0  0  0  0
  -29.3023  -23.0880   20.4851 C   0  0  0  0  0  0  0  0  0  0  0  0
  -28.8244  -21.7794   20.4160 C   0  0  0  0  0  0  0  0  0  0  0  0
  -23.4902  -16.8070   22.2821 C   0  0  0  0  0  0  0  0  0  0  0  0
  -19.4933  -23.4932   23.7350 C   0  0  0  0  0  0  0  0  0  0  0  0
  -29.9177  -21.4930   18.2806 C   0  0  0  0  0  0  0  0  0  0  0  0
  -27.7711  -27.9610   19.7639 C   0  0  0  0  0  0  0  0  0  0  0  0
  -26.4261  -29.9142   18.8238 C   0  0  0  0  0  0  0  0  0  0  0  0
  -31.8860  -16.1684   22.5934 C   0  0  0  0  0  0  0  0  0  0  0  0
  -25.3069  -15.6334   23.3693 C   0  0  0  0  0  0  0  0  0  0  0  0
  -30.5717  -16.5752   22.2941 C   0  0  0  0  0  0  0  0  0  0  0  0
  -24.4125  -15.7495   22.2957 C   0  0  0  0  0  0  0  0  0  0  0  0
  -20.4036  -23.4162   24.7890 C   0  0  0  0  0  0  0  0  0  0  0  0
  -19.7423  -25.8960   23.6953 C   0  0  0  0  0  0  0  0  0  0  0  0
  -29.6469  -25.9025   19.6014 C   0  0  0  0  0  0  0  0  0  0  0  0
  -23.4495  -17.7287   23.3279 C   0  0  0  0  0  0  0  0  0  0  0  0
  -30.0879  -23.5992   19.4520 C   0  0  0  0  0  0  0  0  0  0  0  0
  -29.1321  -20.9819   19.3137 C   0  0  0  0  0  0  0  0  0  0  0  0
  -19.1626  -24.7330   23.1881 C   0  0  0  0  0  0  0  0  0  0  0  0
  -30.3956  -22.8016   18.3498 C   0  0  0  0  0  0  0  0  0  0  0  0
  -26.8029  -29.0248   19.8479 C   0  0  0  0  0  0  0  0  0  0  0  0
  -25.4826  -30.7263   19.4042 C   0  0  0  0  0  0  0  0  0  0  0  0
  -26.8875  -29.9986   17.4689 C   0  0  0  0  0  0  0  0  0  0  0  0
  -27.5106  -14.7961   21.2371 C   0  0  0  0  0  0  0  0  0  0  0  0
  -21.8042  -29.8952   24.0829 C   0  0  0  0  0  0  0  0  0  0  0  0
  -25.3305  -12.5254   20.4543 C   0  0  0  0  0  0  0  0  0  0  0  0
  -22.0669  -11.5275   20.4324 C   0  0  0  0  0  0  0  0  0  0  0  0
  -32.5748  -15.0755   21.8151 C   0  0  0  0  0  0  0  0  0  0  0  0
  -26.2897  -14.4960   23.4224 C   0  0  0  0  0  0  0  0  0  0  0  0
  -24.4190  -14.7731   21.1489 C   0  0  0  0  0  0  0  0  0  0  0  0
  -31.6134  -14.1934   21.0227 C   0  0  0  0  0  0  0  0  0  0  0  0
  -24.1787  -32.5397   23.6267 C   0  0  0  0  0  0  0  0  0  0  0  0
  -18.4416  -28.7815   21.7719 C   0  0  0  0  0  0  0  0  0  0  0  0
  -30.6045  -15.0503   20.2646 C   0  0  0  0  0  0  0  0  0  0  0  0
  -25.1035  -32.0071   22.5329 C   0  0  0  0  0  0  0  0  0  0  0  0
  -18.8008  -29.3975   23.1149 C   0  0  0  0  0  0  0  0  0  0  0  0
  -18.4697  -27.2817   22.0489 C   0  0  0  0  0  0  0  0  0  0  0  0
  -23.6954  -31.4203   24.5433 C   0  0  0  0  0  0  0  0  0  0  0  0
  -23.9543  -29.7565   22.7305 C   0  0  0  0  0  0  0  0  0  0  0  0
  -22.3281  -20.2048   25.3583 C   0  0  0  0  0  0  0  0  0  0  0  0
  -22.1417  -21.2286   23.5473 C   0  0  0  0  0  0  0  0  0  0  0  0
  -29.7500  -15.8805   21.2300 C   0  0  1  0  0  0  0  0  0  0  0  0
  -26.6043  -13.9136   22.0479 C   0  0  1  0  0  0  0  0  0  0  0  0
  -24.4409  -30.8505   21.7637 C   0  0  2  0  0  0  0  0  0  0  0  0
  -22.9244  -19.9695   23.9592 C   0  0  0  0  0  0  0  0  0  1  0  0
  -19.8334  -28.4237   23.6996 C   0  0  2  0  0  0  0  0  0  0  0  0
  -20.5891   -9.6398   19.6909 C   0  0  0  0  0  0  0  0  0  0  0  0
  -25.5355  -13.5008   17.5704 C   0  0  0  0  0  0  0  0  0  0  0  0
  -23.4094  -12.2738   17.0777 C   0  0  0  0  0  0  0  0  0  0  0  0
  -25.4291  -11.0153   17.8259 C   0  0  0  0  0  0  0  0  0  0  0  0
  -21.1934  -10.9689   23.2044 C   0  0  0  0  0  0  0  0  0  0  0  0
  -20.7594  -22.0826   25.3772 C   0  0  0  0  0  0  0  0  0  0  0  0
  -21.2496  -28.7721   23.2433 C   0  0  0  0  0  0  0  0  0  0  0  0
  -24.1714  -12.4433   19.4905 C   0  0  1  0  0  0  0  0  0  0  0  0
  -21.4113  -10.2180   20.8322 C   0  0  2  0  0  0  0  0  0  0  0  0
  -24.6373  -12.3280   18.0117 C   0  0  0  0  0  0  0  0  0  0  0  0
  -26.1521  -29.2506   20.9922 N   0  0  0  0  0  0  0  0  0  0  0  0
  -25.3568  -30.2911   20.6907 N   0  0  0  0  0  0  0  0  0  0  0  0
  -19.4163  -27.1257   23.1551 N   0  0  3  0  0  0  0  0  0  0  0  0
  -25.4027  -13.6818   21.2437 N   0  0  0  0  0  0  0  0  0  0  0  0
  -23.0926  -30.3309   23.7731 N   0  0  0  0  0  0  0  0  0  0  0  0
  -24.7567  -31.7630   18.9346 N   0  0  0  0  0  0  0  0  0  0  0  0
  -27.9896  -30.8177   17.1883 N   0  0  0  0  0  0  0  0  0  0  0  0
  -28.7279  -15.0556   21.8376 N   0  0  0  0  0  0  0  0  0  0  0  0
  -23.3415  -11.3324   19.9439 N   0  0  0  0  0  0  0  0  0  0  0  0
  -22.1009  -21.6094   24.9714 N   0  3  0  0  0  0  0  0  0  0  0  0
  -20.5113  -10.4252   22.0019 N   0  3  0  0  0  0  0  0  0  0  0  0
  -26.3286  -29.3793   16.5322 O   0  0  0  0  0  0  0  0  0  0  0  0
  -27.1341  -15.2097   20.1468 O   0  0  0  0  0  0  0  0  0  0  0  0
  -21.1102  -30.3719   24.9849 O   0  0  0  0  0  0  0  0  0  0  0  0
  -26.1378  -11.5944   20.5098 O   0  0  0  0  0  0  0  0  0  0  0  0
  -21.5033  -12.6145   20.5392 O   0  0  0  0  0  0  0  0  0  0  0  0
  -30.5622  -24.8983   19.5225 O   0  0  0  0  0  0  0  0  0  0  0  0
  -22.5487  -18.7483   23.3023 O   0  0  0  0  0  0  0  0  0  1  0  0
  -28.6744  -19.7248   19.2482 F   0  0  0  0  0  0  0  0  0  0  0  0
  -18.2865  -24.7954   22.1752 F   0  0  0  0  0  0  0  0  0  0  0  0
  -31.1508  -23.2868   17.3547 F   0  0  0  0  0  0  0  0  0  0  0  0
  1  2  1  0  0  0  0
  1  5  2  0  0  0  0
  2  6  2  0  0  0  0
  3 10  2  0  0  0  0
  3 18  1  0  0  0  0
  4 11  1  0  0  0  0
  4 18  2  0  0  0  0
  5 20  1  0  0  0  0
  6 22  1  0  0  0  0
  7 12  2  0  0  0  0
  7 21  1  0  0  0  0
  8  9  2  0  0  0  0
  8 24  1  0  0  0  0
  9 25  1  0  0  0  0
 10 26  1  0  0  0  0
 11 26  2  0  0  0  0
 12 27  1  0  0  0  0
 13 14  2  0  0  0  0
 13 28  1  0  0  0  0
 14 29  1  0  0  0  0
 15 23  1  0  0  0  0
 15 27  2  0  0  0  0
 16 24  2  0  0  0  0
 16 30  1  0  0  0  0
 17 29  2  0  0  0  0
 17 31  1  0  0  0  0
 18 32  1  0  0  0  0
 19 32  1  0  0  0  0
 19 33  2  0  0  0  0
 19 34  1  0  0  0  0
 20 22  2  0  0  0  0
 20 39  1  0  0  0  0
 21 23  2  0  0  0  0
 21 40  1  0  0  0  0
 22 53  1  0  0  0  0
 23 41  1  0  0  0  0
 24 63  1  0  0  0  0
 25 30  2  0  0  0  0
 25 70  1  0  0  0  0
 26 84  1  0  0  0  0
 27 85  1  0  0  0  0
 28 31  2  0  0  0  0
 28 84  1  0  0  0  0
 29 86  1  0  0  0  0
 30 87  1  0  0  0  0
 31 88  1  0  0  0  0
 32 68  2  0  0  0  0
 33 69  1  0  0  0  0
 33 73  1  0  0  0  0
 34 74  1  0  0  0  0
 34 79  2  0  0  0  0
 35 54  1  0  0  0  0
 35 75  1  0  0  0  0
 35 80  2  0  0  0  0
 36 64  1  0  0  0  0
 36 72  1  0  0  0  0
 36 81  2  0  0  0  0
 37 65  1  0  0  0  0
 37 71  1  0  0  0  0
 37 82  2  0  0  0  0
 38 66  1  0  0  0  0
 38 76  1  0  0  0  0
 38 83  2  0  0  0  0
 39 42  1  0  0  0  0
 40 54  1  0  0  0  0
 41 71  1  0  0  0  0
 42 45  1  0  0  0  0
 43 46  1  0  0  0  0
 43 49  1  0  0  0  0
 44 47  1  0  0  0  0
 44 48  1  0  0  0  0
 45 53  1  0  0  0  0
 46 55  1  0  0  0  0
 47 57  1  0  0  0  0
 48 70  1  0  0  0  0
 49 72  1  0  0  0  0
 50 55  1  0  0  0  0
 50 72  1  0  0  0  0
 51 56  1  0  0  0  0
 51 77  1  0  0  0  0
 52 56  1  0  0  0  0
 52 77  1  0  0  0  0
 53 75  1  0  0  0  0
 54 71  1  0  0  0  0
 55 69  1  0  0  0  0
 56 85  1  0  0  0  0
 57 64  1  0  0  0  0
 57 70  1  0  0  0  0
 58 66  1  0  0  0  0
 59 67  1  0  0  0  0
 60 67  1  0  0  0  0
 61 67  1  0  0  0  0
 62 78  1  0  0  0  0
 63 77  1  0  0  0  0
 65 67  1  0  0  0  0
 65 76  1  0  0  0  0
 66 78  1  0  0  0  0
 68 69  1  0  0  0  0
M  CHG  2  77   1  78   1
M  ISO  4  36 100  56 101  64 100  85 101
M  END
> <Batch ID>
0011

> <Smiles>
CNC(C)C(=O)NC(C(=O)N1Cc2cc([101O:1][101CH:1]3CN(Cc4ccc(N5CCCC5[100CH2:0][100C:0](=O)N5CCCC(n6nc(-c7ccc(Oc8ccc(F)cc8F)cc7)c(C(N)=O)c6N)C5)c(F)c4)C3)ccc2CC1C(=O)NC1CCCc2ccccc21)C(C)(C)C

> <Shape>
0.264

> <Color>
0.047

> <Negative vol penalty>
0.000

$$$$

  -OEChem-04042320433D

 82 90  0     1  0  0  0  0  0999 V2000
  -26.6092  -34.4110   25.1909 C   0  0  0  0  0  0  0  0  0  0  0  0
  -27.0442  -33.1992   24.6641 C   0  0  0  0  0  0  0  0  0  0  0  0
  -23.5198  -13.9680   19.5749 C   0  0  0  0  0  0  0  0  0  0  0  0
  -23.6431  -15.0230   21.7449 C   0  0  0  0  0  0  0  0  0  0  0  0
  -25.2810  -34.5607   25.5879 C   0  0  0  0  0  0  0  0  0  0  0  0
  -26.1515  -32.1358   24.5350 C   0  0  0  0  0  0  0  0  0  0  0  0
  -26.5427  -29.8036   20.0569 C   0  0  0  0  0  0  0  0  0  0  0  0
  -31.5753  -22.0872   21.6904 C   0  0  0  0  0  0  0  0  0  0  0  0
  -22.9338  -12.8431   20.1551 C   0  0  0  0  0  0  0  0  0  0  0  0
  -23.0571  -13.8980   22.3251 C   0  0  0  0  0  0  0  0  0  0  0  0
  -27.6081  -28.9200   19.8901 C   0  0  0  0  0  0  0  0  0  0  0  0
  -31.3588  -23.4548   21.5217 C   0  0  0  0  0  0  0  0  0  0  0  0
  -23.9410  -10.1363   21.9109 C   0  0  0  0  0  0  0  0  0  0  0  0
  -24.4167   -8.8845   21.5206 C   0  0  0  0  0  0  0  0  0  0  0  0
  -26.1264  -27.0635   20.3109 C   0  0  0  0  0  0  0  0  0  0  0  0
  -29.4029  -21.8711   22.7254 C   0  0  0  0  0  0  0  0  0  0  0  0
  -22.2125   -8.2945   20.7265 C   0  0  0  0  0  0  0  0  0  0  0  0
  -23.8745  -15.0580   20.3698 C   0  0  0  0  0  0  0  0  0  0  0  0
  -23.8214  -17.3533   19.2579 C   0  0  0  0  0  0  0  0  0  0  0  0
  -24.3693  -33.5016   25.4546 C   0  0  0  0  0  0  0  0  0  0  0  0
  -25.2612  -29.3237   20.3632 C   0  0  0  0  0  0  0  0  0  0  0  0
  -24.8102  -32.2709   24.9318 C   0  0  0  0  0  0  0  0  0  0  0  0
  -25.0459  -27.9429   20.4785 C   0  0  0  0  0  0  0  0  0  0  0  0
  -30.5973  -21.2953   22.2923 C   0  0  0  0  0  0  0  0  0  0  0  0
  -22.7024  -12.8081   21.5301 C   0  0  0  0  0  0  0  0  0  0  0  0
  -27.4007  -27.5499   20.0199 C   0  0  0  0  0  0  0  0  0  0  0  0
  -22.6010  -10.4671   21.7092 C   0  0  0  0  0  0  0  0  0  0  0  0
  -30.1644  -24.0305   21.9549 C   0  0  0  0  0  0  0  0  0  0  0  0
  -23.5524   -7.9636   20.9283 C   0  0  0  0  0  0  0  0  0  0  0  0
  -29.1865  -23.2387   22.5567 C   0  0  0  0  0  0  0  0  0  0  0  0
  -21.7368   -9.5463   21.1170 C   0  0  0  0  0  0  0  0  0  0  0  0
  -24.4804  -16.2202   19.7711 C   0  0  0  0  0  0  0  0  0  0  0  0
  -24.8339  -18.1645   18.8069 C   0  0  0  0  0  0  0  0  0  0  0  0
  -22.4193  -17.6465   19.1945 C   0  0  0  0  0  0  0  0  0  0  0  0
  -23.2565  -29.6803   22.8040 C   0  0  0  0  0  0  0  0  0  0  0  0
  -21.2439  -28.0041   20.8903 C   0  0  0  0  0  0  0  0  0  0  0  0
  -20.8604  -25.8014   18.3120 C   0  0  0  0  0  0  0  0  0  0  0  0
  -30.6125  -18.6792   20.2881 C   0  0  0  0  0  0  0  0  0  0  0  0
  -22.9550  -33.6957   25.9414 C   0  0  0  0  0  0  0  0  0  0  0  0
  -24.1169  -30.2882   20.5136 C   0  0  0  0  0  0  0  0  0  0  0  0
  -23.6851  -27.3755   20.7864 C   0  0  0  0  0  0  0  0  0  0  0  0
  -21.9823  -32.6394   25.4235 C   0  0  0  0  0  0  0  0  0  0  0  0
  -29.2841  -17.9787   17.0599 C   0  0  0  0  0  0  0  0  0  0  0  0
  -22.5793  -31.2439   25.5751 C   0  0  0  0  0  0  0  0  0  0  0  0
  -27.8429  -17.5508   17.3424 C   0  0  0  0  0  0  0  0  0  0  0  0
  -30.2406  -17.4917   18.1461 C   0  0  0  0  0  0  0  0  0  0  0  0
  -28.4172  -17.4374   19.8033 C   0  0  0  0  0  0  0  0  0  0  0  0
  -23.8659  -31.1020   24.7529 C   0  0  1  0  0  0  0  0  0  0  0  0
  -22.9608  -29.7209   21.3314 C   0  0  1  0  0  0  0  0  0  0  0  0
  -27.4070  -17.9531   18.7641 C   0  0  2  0  0  0  0  0  0  0  0  0
  -19.0958  -24.5919   17.0004 C   0  0  0  0  0  0  0  0  0  0  0  0
  -20.8456  -26.0689   23.2155 C   0  0  0  0  0  0  0  0  0  0  0  0
  -19.8775  -24.4271   21.5920 C   0  0  0  0  0  0  0  0  0  0  0  0
  -18.7596  -26.6275   21.9541 C   0  0  0  0  0  0  0  0  0  0  0  0
  -21.6871  -27.0978   15.7831 C   0  0  0  0  0  0  0  0  0  0  0  0
  -30.8305  -19.8338   22.4741 C   0  0  0  0  0  0  0  0  0  0  0  0
  -29.7390  -27.1589   20.2077 C   0  0  0  0  0  0  0  0  0  1  0  0
  -30.5842  -25.9885   20.6720 C   0  0  0  0  0  0  0  0  0  0  0  0
  -20.9409  -26.5404   20.6788 C   0  0  1  0  0  0  0  0  0  0  0  0
  -19.9693  -25.8339   17.0834 C   0  0  2  0  0  0  0  0  0  0  0  0
  -20.1321  -25.9265   21.8562 C   0  0  0  0  0  0  0  0  0  0  0  0
  -25.8088  -16.3005   19.6571 N   0  0  0  0  0  0  0  0  0  0  0  0
  -25.9926  -17.4938   19.0670 N   0  0  0  0  0  0  0  0  0  0  0  0
  -22.5996  -28.3596   20.9308 N   0  0  0  0  0  0  0  0  0  0  0  0
  -29.7709  -17.9076   19.4699 N   0  0  0  0  0  0  0  0  0  0  0  0
  -24.8371  -19.3788   18.2172 N   0  0  0  0  0  0  0  0  0  0  0  0
  -21.5159  -16.7036   19.7035 N   0  0  0  0  0  0  0  0  0  0  0  0
  -23.5527  -30.9134   23.3526 N   0  0  0  0  0  0  0  0  0  0  0  0
  -20.2769  -26.4441   19.3833 N   0  0  0  0  0  0  0  0  0  0  0  0
  -30.0876  -19.0360   21.5242 N   0  0  0  0  0  0  0  0  0  0  0  0
  -20.7960  -25.9108   15.8458 N   0  3  0  0  0  0  0  0  0  0  0  0
  -21.9799  -18.7058   18.6863 O   0  0  0  0  0  0  0  0  0  0  0  0
  -23.2173  -28.6096   23.3989 O   0  0  0  0  0  0  0  0  0  0  0  0
  -20.3120  -28.8037   21.0080 O   0  0  0  0  0  0  0  0  0  0  0  0
  -21.9622  -25.2569   18.3215 O   0  0  0  0  0  0  0  0  0  0  0  0
  -31.7455  -19.0289   19.9405 O   0  0  0  0  0  0  0  0  0  0  0  0
  -22.1304  -11.7106   22.0966 O   0  0  0  0  0  0  0  0  0  0  0  0
  -28.4390  -26.6853   19.8583 O   0  0  0  0  0  0  0  0  0  1  0  0
  -29.9534  -25.3741   21.7890 O   0  0  0  0  0  0  0  0  0  0  0  0
  -24.0097   -6.7622   20.5521 F   0  0  0  0  0  0  0  0  0  0  0  0
  -28.0371  -23.7861   22.9752 F   0  0  0  0  0  0  0  0  0  0  0  0
  -20.4487   -9.8589   20.9195 F   0  0  0  0  0  0  0  0  0  0  0  0
  1  2  1  0  0  0  0
  1  5  2  0  0  0  0
  2  6  2  0  0  0  0
  3  9  2  0  0  0  0
  3 18  1  0  0  0  0
  4 10  1  0  0  0  0
  4 18  2  0  0  0  0
  5 20  1  0  0  0  0
  6 22  1  0  0  0  0
  7 11  2  0  0  0  0
  7 21  1  0  0  0  0
  8 12  2  0  0  0  0
  8 24  1  0  0  0  0
  9 25  1  0  0  0  0
 10 25  2  0  0  0  0
 11 26  1  0  0  0  0
 12 28  1  0  0  0  0
 13 14  2  0  0  0  0
 13 27  1  0  0  0  0
 14 29  1  0  0  0  0
 15 23  1  0  0  0  0
 15 26  2  0  0  0  0
 16 24  2  0  0  0  0
 16 30  1  0  0  0  0
 17 29  2  0  0  0  0
 17 31  1  0  0  0  0
 18 32  1  0  0  0  0
 19 32  1  0  0  0  0
 19 33  2  0  0  0  0
 19 34  1  0  0  0  0
 20 22  2  0  0  0  0
 20 39  1  0  0  0  0
 21 23  2  0  0  0  0
 21 40  1  0  0  0  0
 22 48  1  0  0  0  0
 23 41  1  0  0  0  0
 24 56  1  0  0  0  0
 25 77  1  0  0  0  0
 26 78  1  0  0  0  0
 27 31  2  0  0  0  0
 27 77  1  0  0  0  0
 28 30  2  0  0  0  0
 28 79  1  0  0  0  0
 29 80  1  0  0  0  0
 30 81  1  0  0  0  0
 31 82  1  0  0  0  0
 32 62  2  0  0  0  0
 33 63  1  0  0  0  0
 33 66  1  0  0  0  0
 34 67  1  0  0  0  0
 34 72  2  0  0  0  0
 35 49  1  0  0  0  0
 35 68  1  0  0  0  0
 35 73  2  0  0  0  0
 36 59  1  0  0  0  0
 36 64  1  0  0  0  0
 36 74  2  0  0  0  0
 37 60  1  0  0  0  0
 37 69  1  0  0  0  0
 37 75  2  0  0  0  0
 38 65  1  0  0  0  0
 38 70  1  0  0  0  0
 38 76  2  0  0  0  0
 39 42  1  0  0  0  0
 40 49  1  0  0  0  0
 41 64  1  0  0  0  0
 42 44  1  0  0  0  0
 43 45  1  0  0  0  0
 43 46  1  0  0  0  0
 44 48  1  0  0  0  0
 45 50  1  0  0  0  0
 46 65  1  0  0  0  0
 47 50  1  0  0  0  0
 47 65  1  0  0  0  0
 48 68  1  0  0  0  0
 49 64  1  0  0  0  0
 50 63  1  0  0  0  0
 51 60  1  0  0  0  0
 52 61  1  0  0  0  0
 53 61  1  0  0  0  0
 54 61  1  0  0  0  0
 55 71  1  0  0  0  0
 56 70  1  0  0  0  0
 57 58  1  0  0  0  0
 57 78  1  0  0  0  0
 58 79  1  0  0  0  0
 59 61  1  0  0  0  0
 59 69  1  0  0  0  0
 60 71  1  0  0  0  0
 62 63  1  0  0  0  0
M  CHG  1  71   1
M  ISO  4  38 100  57 101  70 100  78 101
M  END
> <Batch ID>
0011

> <Smiles>
CNC(C)C(=O)NC(C(=O)N1Cc2cc([101O:1][101CH2:1]COc3ccc(C[100NH:0][100C:0](=O)N4CCCC(n5nc(-c6ccc(Oc7ccc(F)cc7F)cc6)c(C(N)=O)c5N)C4)cc3F)ccc2CC1C(=O)NC1CCCc2ccccc21)C(C)(C)C

> <Shape>
0.254

> <Color>
0.079

> <Negative vol penalty>
0.000

$$$$

  -OEChem-04042320433D

 85 94  0     1  0  0  0  0  0999 V2000
  -20.6613  -28.1466   10.9607 C   0  0  0  0  0  0  0  0  0  0  0  0
  -21.6950  -27.8557   11.8451 C   0  0  0  0  0  0  0  0  0  0  0  0
  -23.0687   -9.8879   19.9363 C   0  0  0  0  0  0  0  0  0  0  0  0
  -23.8380   -9.8778   22.2265 C   0  0  0  0  0  0  0  0  0  0  0  0
  -19.3749  -28.3787   11.4458 C   0  0  0  0  0  0  0  0  0  0  0  0
  -21.4431  -27.7979   13.2154 C   0  0  0  0  0  0  0  0  0  0  0  0
  -23.6081  -23.7862   15.4209 C   0  0  0  0  0  0  0  0  0  0  0  0
  -29.3263  -18.6560   21.0203 C   0  0  0  0  0  0  0  0  0  0  0  0
  -31.5347  -18.4138   20.0710 C   0  0  0  0  0  0  0  0  0  0  0  0
  -29.0680  -19.7145   20.1495 C   0  0  0  0  0  0  0  0  0  0  0  0
  -31.2765  -19.4723   19.2002 C   0  0  0  0  0  0  0  0  0  0  0  0
  -22.3220   -8.7357   20.1820 C   0  0  0  0  0  0  0  0  0  0  0  0
  -23.0912   -8.7256   22.4723 C   0  0  0  0  0  0  0  0  0  0  0  0
  -24.9753  -23.8642   15.6828 C   0  0  0  0  0  0  0  0  0  0  0  0
  -19.8629   -7.9347   23.0831 C   0  0  0  0  0  0  0  0  0  0  0  0
  -19.1107   -7.8899   24.2568 C   0  0  0  0  0  0  0  0  0  0  0  0
  -24.4973  -24.4064   17.9842 C   0  0  0  0  0  0  0  0  0  0  0  0
  -20.3486   -5.9437   24.9758 C   0  0  0  0  0  0  0  0  0  0  0  0
  -23.8267  -10.4590   20.9585 C   0  0  0  0  0  0  0  0  0  0  0  0
  -24.1765  -12.9837   20.8530 C   0  0  0  0  0  0  0  0  0  0  0  0
  -19.1052  -28.3142   12.8219 C   0  0  0  0  0  0  0  0  0  0  0  0
  -22.6736  -24.0288   16.4379 C   0  0  0  0  0  0  0  0  0  0  0  0
  -20.1522  -28.0307   13.7195 C   0  0  0  0  0  0  0  0  0  0  0  0
  -23.1189  -24.3283   17.7333 C   0  0  0  0  0  0  0  0  0  0  0  0
  -30.5597  -18.0056   20.9812 C   0  0  0  0  0  0  0  0  0  0  0  0
  -30.0431  -20.1227   19.2394 C   0  0  0  0  0  0  0  0  0  0  0  0
  -22.3332   -8.1545   21.4500 C   0  0  0  0  0  0  0  0  0  0  0  0
  -25.4200  -24.1772   16.9639 C   0  0  0  0  0  0  0  0  0  0  0  0
  -20.8580   -6.9840   22.8556 C   0  0  0  0  0  0  0  0  0  0  0  0
  -19.3535   -6.8944   25.2032 C   0  0  0  0  0  0  0  0  0  0  0  0
  -21.1008   -5.9885   23.8020 C   0  0  0  0  0  0  0  0  0  0  0  0
  -24.5987  -11.6489   20.7051 C   0  0  0  0  0  0  0  0  0  0  0  0
  -25.2697  -13.7318   20.4900 C   0  0  0  0  0  0  0  0  0  0  0  0
  -28.5892  -21.9580   18.2664 C   0  0  0  0  0  0  0  0  0  0  0  0
  -22.9095  -13.5010   21.2804 C   0  0  0  0  0  0  0  0  0  0  0  0
  -20.3715  -26.1703   16.9045 C   0  0  0  0  0  0  0  0  0  0  0  0
  -19.7271  -24.3357   19.5009 C   0  0  0  0  0  0  0  0  0  0  0  0
  -20.8512  -22.0933   21.8150 C   0  0  0  0  0  0  0  0  0  0  0  0
  -30.7576  -14.7314   20.6621 C   0  0  0  0  0  0  0  0  0  0  0  0
  -17.7086  -28.6191   13.3030 C   0  0  0  0  0  0  0  0  0  0  0  0
  -21.2026  -23.9144   16.1454 C   0  0  0  0  0  0  0  0  0  0  0  0
  -22.1566  -24.5776   18.8648 C   0  0  0  0  0  0  0  0  0  0  0  0
  -17.4472  -28.1698   14.7383 C   0  0  0  0  0  0  0  0  0  0  0  0
  -29.6022  -12.3658   18.2651 C   0  0  0  0  0  0  0  0  0  0  0  0
  -18.5978  -28.5902   15.6473 C   0  0  0  0  0  0  0  0  0  0  0  0
  -28.1655  -12.0741   18.7021 C   0  0  0  0  0  0  0  0  0  0  0  0
  -29.9894  -22.5324   16.4296 C   0  0  0  0  0  0  0  0  0  0  0  0
  -30.5250  -12.5760   19.4635 C   0  0  0  0  0  0  0  0  0  0  0  0
  -30.7794  -21.7037   17.4226 C   0  0  0  0  0  0  0  0  0  0  0  0
  -28.6314  -13.3046   20.8626 C   0  0  0  0  0  0  0  0  0  0  0  0
  -19.9135  -27.9346   15.2108 C   0  0  1  0  0  0  0  0  0  0  0  0
  -28.8411  -23.0759   17.2675 C   0  0  1  0  0  0  0  0  0  0  0  0
  -20.3349  -24.6860   17.1350 C   0  0  1  0  0  0  0  0  0  0  0  0
  -27.6518  -13.1407   19.6879 C   0  0  2  0  0  0  0  0  0  0  0  0
  -20.1043  -20.8057   23.8352 C   0  0  0  0  0  0  0  0  0  0  0  0
  -19.9164  -26.8730   21.1850 C   0  0  0  0  0  0  0  0  0  0  0  0
  -20.1144  -25.4253   23.2180 C   0  0  0  0  0  0  0  0  0  0  0  0
  -18.0495  -25.3354   21.8213 C   0  0  0  0  0  0  0  0  0  0  0  0
  -21.3674  -19.4958   20.4939 C   0  0  0  0  0  0  0  0  0  0  0  0
  -30.8357  -16.8738   21.9123 C   0  0  0  0  0  0  0  0  0  0  0  0
  -27.6153  -23.4243   16.4444 C   0  0  0  0  0  0  0  0  0  1  0  0
  -20.1886  -24.3174   20.9381 C   0  0  1  0  0  0  0  0  0  0  0  0
  -20.2628  -20.7894   22.3228 C   0  0  2  0  0  0  0  0  0  0  0  0
  -19.5856  -25.4850   21.7691 C   0  0  0  0  0  0  0  0  0  0  0  0
  -25.8615  -11.5515   20.2810 N   0  0  0  0  0  0  0  0  0  0  0  0
  -26.2422  -12.8346   20.1593 N   0  0  0  0  0  0  0  0  0  0  0  0
  -29.7790  -21.2056   18.3481 N   0  0  0  0  0  0  0  0  0  0  0  0
  -20.7284  -24.4603   18.5273 N   0  0  0  0  0  0  0  0  0  0  0  0
  -29.9815  -13.6007   20.3583 N   0  0  0  0  0  0  0  0  0  0  0  0
  -25.4843  -15.0630   20.4245 N   0  0  0  0  0  0  0  0  0  0  0  0
  -21.8960  -12.5931   21.6161 N   0  0  0  0  0  0  0  0  0  0  0  0
  -19.9581  -26.5541   15.6430 N   0  0  0  0  0  0  0  0  0  0  0  0
  -19.8686  -22.9903   21.4527 N   0  0  0  0  0  0  0  0  0  0  0  0
  -30.1650  -15.6568   21.5125 N   0  0  0  0  0  0  0  0  0  0  0  0
  -21.1441  -19.6453   21.9549 N   0  3  0  0  0  0  0  0  0  0  0  0
  -27.5441  -21.8400   18.8895 O   0  0  0  0  0  0  0  0  0  0  0  0
  -22.6776  -14.7320   21.3465 O   0  0  0  0  0  0  0  0  0  0  0  0
  -20.7455  -26.9126   17.8049 O   0  0  0  0  0  0  0  0  0  0  0  0
  -18.5233  -24.2356   19.2509 O   0  0  0  0  0  0  0  0  0  0  0  0
  -22.0615  -22.2973   21.7499 O   0  0  0  0  0  0  0  0  0  0  0  0
  -31.8922  -14.9059   20.2050 O   0  0  0  0  0  0  0  0  0  0  0  0
  -21.6045   -7.0303   21.6902 O   0  0  0  0  0  0  0  0  0  0  0  0
  -26.7539  -24.2547   17.2221 O   0  0  0  0  0  0  0  0  0  1  0  0
  -18.6321   -6.8524   26.3310 F   0  0  0  0  0  0  0  0  0  0  0  0
  -22.0562   -5.0732   23.5897 F   0  0  0  0  0  0  0  0  0  0  0  0
  1  2  1  0  0  0  0
  1  5  2  0  0  0  0
  2  6  2  0  0  0  0
  3 12  2  0  0  0  0
  3 19  1  0  0  0  0
  4 13  1  0  0  0  0
  4 19  2  0  0  0  0
  5 21  1  0  0  0  0
  6 23  1  0  0  0  0
  7 14  2  0  0  0  0
  7 22  1  0  0  0  0
  8 10  2  0  0  0  0
  8 25  1  0  0  0  0
  9 11  1  0  0  0  0
  9 25  2  0  0  0  0
 10 26  1  0  0  0  0
 11 26  2  0  0  0  0
 12 27  1  0  0  0  0
 13 27  2  0  0  0  0
 14 28  1  0  0  0  0
 15 16  2  0  0  0  0
 15 29  1  0  0  0  0
 16 30  1  0  0  0  0
 17 24  1  0  0  0  0
 17 28  2  0  0  0  0
 18 30  2  0  0  0  0
 18 31  1  0  0  0  0
 19 32  1  0  0  0  0
 20 32  1  0  0  0  0
 20 33  2  0  0  0  0
 20 35  1  0  0  0  0
 21 23  2  0  0  0  0
 21 40  1  0  0  0  0
 22 24  2  0  0  0  0
 22 41  1  0  0  0  0
 23 51  1  0  0  0  0
 24 42  1  0  0  0  0
 25 60  1  0  0  0  0
 26 67  1  0  0  0  0
 27 82  1  0  0  0  0
 28 83  1  0  0  0  0
 29 31  2  0  0  0  0
 29 82  1  0  0  0  0
 30 84  1  0  0  0  0
 31 85  1  0  0  0  0
 32 65  2  0  0  0  0
 33 66  1  0  0  0  0
 33 70  1  0  0  0  0
 34 52  1  0  0  0  0
 34 67  1  0  0  0  0
 34 76  2  0  0  0  0
 35 71  1  0  0  0  0
 35 77  2  0  0  0  0
 36 53  1  0  0  0  0
 36 72  1  0  0  0  0
 36 78  2  0  0  0  0
 37 62  1  0  0  0  0
 37 68  1  0  0  0  0
 37 79  2  0  0  0  0
 38 63  1  0  0  0  0
 38 73  1  0  0  0  0
 38 80  2  0  0  0  0
 39 69  1  0  0  0  0
 39 74  1  0  0  0  0
 39 81  2  0  0  0  0
 40 43  1  0  0  0  0
 41 53  1  0  0  0  0
 42 68  1  0  0  0  0
 43 45  1  0  0  0  0
 44 46  1  0  0  0  0
 44 48  1  0  0  0  0
 45 51  1  0  0  0  0
 46 54  1  0  0  0  0
 47 49  1  0  0  0  0
 47 52  1  0  0  0  0
 48 69  1  0  0  0  0
 49 67  1  0  0  0  0
 50 54  1  0  0  0  0
 50 69  1  0  0  0  0
 51 72  1  0  0  0  0
 52 61  1  0  0  0  0
 53 68  1  0  0  0  0
 54 66  1  0  0  0  0
 55 63  1  0  0  0  0
 56 64  1  0  0  0  0
 57 64  1  0  0  0  0
 58 64  1  0  0  0  0
 59 75  1  0  0  0  0
 60 74  1  0  0  0  0
 61 83  1  0  0  0  0
 62 64  1  0  0  0  0
 62 73  1  0  0  0  0
 63 75  1  0  0  0  0
 65 66  1  0  0  0  0
M  CHG  1  75   1
M  ISO  4  39 100  61 101  74 100  83 101
M  END
> <Batch ID>
0011

> <Smiles>
CNC(C)C(=O)NC(C(=O)N1Cc2cc([101O:1][101CH2:1]C3CCN(c4ccc(C[100NH:0][100C:0](=O)N5CCCC(n6nc(-c7ccc(Oc8ccc(F)cc8F)cc7)c(C(N)=O)c6N)C5)cc4)C3=O)ccc2CC1C(=O)NC1CCCc2ccccc21)C(C)(C)C

> <Shape>
0.224

> <Color>
0.192

> <Negative vol penalty>
0.000

$$$$

  -OEChem-04042320433D

 83 92  0     1  0  0  0  0  0999 V2000
  -21.0908  -27.5678   25.7557 C   0  0  0  0  0  0  0  0  0  0  0  0
  -22.0148  -26.6927   25.1936 C   0  0  0  0  0  0  0  0  0  0  0  0
  -22.9791  -10.0474   19.9513 C   0  0  0  0  0  0  0  0  0  0  0  0
  -24.0818   -9.8415   22.0911 C   0  0  0  0  0  0  0  0  0  0  0  0
  -20.0083  -28.0165   25.0002 C   0  0  0  0  0  0  0  0  0  0  0  0
  -21.8562  -26.2650   23.8759 C   0  0  0  0  0  0  0  0  0  0  0  0
  -26.2983  -25.0759   19.8312 C   0  0  0  0  0  0  0  0  0  0  0  0
  -28.9409  -16.7009   19.1381 C   0  0  0  0  0  0  0  0  0  0  0  0
  -22.3026   -8.8501   20.1847 C   0  0  0  0  0  0  0  0  0  0  0  0
  -23.4052   -8.6442   22.3245 C   0  0  0  0  0  0  0  0  0  0  0  0
  -26.8970  -23.8865   19.4182 C   0  0  0  0  0  0  0  0  0  0  0  0
  -28.0120  -17.5883   18.5904 C   0  0  0  0  0  0  0  0  0  0  0  0
  -19.6263   -7.8084   21.9694 C   0  0  0  0  0  0  0  0  0  0  0  0
  -18.2615   -7.7689   21.6847 C   0  0  0  0  0  0  0  0  0  0  0  0
  -25.4013  -23.7971   17.5277 C   0  0  0  0  0  0  0  0  0  0  0  0
  -27.9005  -18.7638   20.6863 C   0  0  0  0  0  0  0  0  0  0  0  0
  -18.6452   -5.9937   20.0914 C   0  0  0  0  0  0  0  0  0  0  0  0
  -23.8688  -10.5430   20.9044 C   0  0  0  0  0  0  0  0  0  0  0  0
  -24.1443  -13.0770   21.0073 C   0  0  0  0  0  0  0  0  0  0  0  0
  -19.8416  -27.6016   23.6696 C   0  0  0  0  0  0  0  0  0  0  0  0
  -25.2375  -25.6300   19.1003 C   0  0  0  0  0  0  0  0  0  0  0  0
  -20.7696  -26.7075   23.1024 C   0  0  0  0  0  0  0  0  0  0  0  0
  -24.7926  -24.9949   17.9321 C   0  0  0  0  0  0  0  0  0  0  0  0
  -28.8275  -17.8732   21.2532 C   0  0  0  0  0  0  0  0  0  0  0  0
  -29.3455  -16.8134   20.4786 C   0  0  0  0  0  0  0  0  0  0  0  0
  -22.5156   -8.1486   21.3713 C   0  0  0  0  0  0  0  0  0  0  0  0
  -26.4467  -23.2453   18.2679 C   0  0  0  0  0  0  0  0  0  0  0  0
  -27.4868  -18.6151   19.3654 C   0  0  0  0  0  0  0  0  0  0  0  0
  -20.5007   -6.9405   21.3151 C   0  0  0  0  0  0  0  0  0  0  0  0
  -17.7709   -6.8616   20.7457 C   0  0  0  0  0  0  0  0  0  0  0  0
  -20.0101   -6.0332   20.3761 C   0  0  0  0  0  0  0  0  0  0  0  0
  -24.5684  -11.7794   20.6637 C   0  0  0  0  0  0  0  0  0  0  0  0
  -25.1546  -13.8965   20.5665 C   0  0  0  0  0  0  0  0  0  0  0  0
  -22.9444  -13.5035   21.6662 C   0  0  0  0  0  0  0  0  0  0  0  0
  -22.1887  -26.2840   19.7171 C   0  0  0  0  0  0  0  0  0  0  0  0
  -22.2904  -27.6460   16.7749 C   0  0  0  0  0  0  0  0  0  0  0  0
  -23.7727  -27.8037   13.7049 C   0  0  0  0  0  0  0  0  0  0  0  0
  -30.7734  -14.7461   20.4221 C   0  0  0  0  0  0  0  0  0  0  0  0
  -18.6297  -28.0763   22.9076 C   0  0  0  0  0  0  0  0  0  0  0  0
  -24.6201  -26.9277   19.5443 C   0  0  0  0  0  0  0  0  0  0  0  0
  -29.2819  -18.1254   22.6689 C   0  0  0  0  0  0  0  0  0  0  0  0
  -23.6706  -25.5594   17.1008 C   0  0  0  0  0  0  0  0  0  0  0  0
  -18.7394  -27.8701   21.3990 C   0  0  0  0  0  0  0  0  0  0  0  0
  -30.0011  -16.9277   23.2710 C   0  0  0  0  0  0  0  0  0  0  0  0
  -29.1368  -12.9764   17.6095 C   0  0  0  0  0  0  0  0  0  0  0  0
  -19.2440  -26.4647   21.0876 C   0  0  0  0  0  0  0  0  0  0  0  0
  -27.8041  -12.5406   18.2148 C   0  0  0  0  0  0  0  0  0  0  0  0
  -30.9861  -16.3523   22.2685 C   0  0  0  0  0  0  0  0  0  0  0  0
  -30.2286  -13.0905   18.6687 C   0  0  0  0  0  0  0  0  0  0  0  0
  -28.5278  -13.5623   20.4098 C   0  0  0  0  0  0  0  0  0  0  0  0
  -20.6454  -26.2403   21.6683 C   0  0  1  0  0  0  0  0  0  0  0  0
  -23.2066  -27.1314   19.0076 C   0  0  1  0  0  0  0  0  0  0  0  0
  -27.4021  -13.4740   19.3684 C   0  0  2  0  0  0  0  0  0  0  0  0
  -23.6112  -28.9870   11.4979 C   0  0  0  0  0  0  0  0  0  0  0  0
  -19.8763  -25.9326   16.0357 C   0  0  0  0  0  0  0  0  0  0  0  0
  -20.3503  -26.4272   13.6276 C   0  0  0  0  0  0  0  0  0  0  0  0
  -19.7832  -28.2852   15.1924 C   0  0  0  0  0  0  0  0  0  0  0  0
  -26.4901  -28.9423   13.9851 C   0  0  0  0  0  0  0  0  0  0  0  0
  -26.2065  -21.1569   17.1558 C   0  0  0  0  0  0  0  0  0  1  0  0
  -26.6886  -19.7458   17.4314 C   0  0  0  0  0  0  0  0  0  0  0  0
  -22.0434  -27.1655   15.3652 C   0  0  1  0  0  0  0  0  0  0  0  0
  -24.2519  -28.9825   12.8771 C   0  0  2  0  0  0  0  0  0  0  0  0
  -20.5332  -26.9407   15.0717 C   0  0  0  0  0  0  0  0  0  0  0  0
  -25.7556  -11.7701   20.0516 N   0  0  0  0  0  0  0  0  0  0  0  0
  -26.0860  -13.0720   20.0071 N   0  0  0  0  0  0  0  0  0  0  0  0
  -30.2981  -15.9045   21.0573 N   0  0  0  0  0  0  0  0  0  0  0  0
  -23.0949  -26.8270   17.5796 N   0  0  0  0  0  0  0  0  0  0  0  0
  -29.8119  -13.9314   19.7918 N   0  0  0  0  0  0  0  0  0  0  0  0
  -25.3281  -15.2346   20.6066 N   0  0  0  0  0  0  0  0  0  0  0  0
  -22.0122  -12.5307   22.0521 N   0  0  0  0  0  0  0  0  0  0  0  0
  -21.6444  -26.8795   20.8390 N   0  0  0  0  0  0  0  0  0  0  0  0
  -22.6852  -28.1358   14.4849 N   0  0  0  0  0  0  0  0  0  0  0  0
  -25.7316  -28.9292   12.7078 N   0  3  0  0  0  0  0  0  0  0  0  0
  -22.6984  -14.7129   21.8909 O   0  0  0  0  0  0  0  0  0  0  0  0
  -21.9161  -25.1727   19.2783 O   0  0  0  0  0  0  0  0  0  0  0  0
  -21.7937  -28.7125   17.1460 O   0  0  0  0  0  0  0  0  0  0  0  0
  -24.3072  -26.6979   13.6611 O   0  0  0  0  0  0  0  0  0  0  0  0
  -31.9684  -14.4304   20.4774 O   0  0  0  0  0  0  0  0  0  0  0  0
  -21.8554   -6.9804   21.5995 O   0  0  0  0  0  0  0  0  0  0  0  0
  -27.0328  -22.0760   17.8602 O   0  0  0  0  0  0  0  0  0  1  0  0
  -26.5862  -19.4831   18.8304 O   0  0  0  0  0  0  0  0  0  0  0  0
  -16.4599   -6.8227   20.4734 F   0  0  0  0  0  0  0  0  0  0  0  0
  -20.8451   -5.1962   19.7452 F   0  0  0  0  0  0  0  0  0  0  0  0
  1  2  1  0  0  0  0
  1  5  2  0  0  0  0
  2  6  2  0  0  0  0
  3  9  2  0  0  0  0
  3 18  1  0  0  0  0
  4 10  1  0  0  0  0
  4 18  2  0  0  0  0
  5 20  1  0  0  0  0
  6 22  1  0  0  0  0
  7 11  2  0  0  0  0
  7 21  1  0  0  0  0
  8 12  2  0  0  0  0
  8 25  1  0  0  0  0
  9 26  1  0  0  0  0
 10 26  2  0  0  0  0
 11 27  1  0  0  0  0
 12 28  1  0  0  0  0
 13 14  2  0  0  0  0
 13 29  1  0  0  0  0
 14 30  1  0  0  0  0
 15 23  1  0  0  0  0
 15 27  2  0  0  0  0
 16 24  1  0  0  0  0
 16 28  2  0  0  0  0
 17 30  2  0  0  0  0
 17 31  1  0  0  0  0
 18 32  1  0  0  0  0
 19 32  1  0  0  0  0
 19 33  2  0  0  0  0
 19 34  1  0  0  0  0
 20 22  2  0  0  0  0
 20 39  1  0  0  0  0
 21 23  2  0  0  0  0
 21 40  1  0  0  0  0
 22 51  1  0  0  0  0
 23 42  1  0  0  0  0
 24 25  2  0  0  0  0
 24 41  1  0  0  0  0
 25 66  1  0  0  0  0
 26 79  1  0  0  0  0
 27 80  1  0  0  0  0
 28 81  1  0  0  0  0
 29 31  2  0  0  0  0
 29 79  1  0  0  0  0
 30 82  1  0  0  0  0
 31 83  1  0  0  0  0
 32 64  2  0  0  0  0
 33 65  1  0  0  0  0
 33 69  1  0  0  0  0
 34 70  1  0  0  0  0
 34 74  2  0  0  0  0
 35 52  1  0  0  0  0
 35 71  1  0  0  0  0
 35 75  2  0  0  0  0
 36 61  1  0  0  0  0
 36 67  1  0  0  0  0
 36 76  2  0  0  0  0
 37 62  1  0  0  0  0
 37 72  1  0  0  0  0
 37 77  2  0  0  0  0
 38 66  1  0  0  0  0
 38 68  1  0  0  0  0
 38 78  2  0  0  0  0
 39 43  1  0  0  0  0
 40 52  1  0  0  0  0
 41 44  1  0  0  0  0
 42 67  1  0  0  0  0
 43 46  1  0  0  0  0
 44 48  1  0  0  0  0
 45 47  1  0  0  0  0
 45 49  1  0  0  0  0
 46 51  1  0  0  0  0
 47 53  1  0  0  0  0
 48 66  1  0  0  0  0
 49 68  1  0  0  0  0
 50 53  1  0  0  0  0
 50 68  1  0  0  0  0
 51 71  1  0  0  0  0
 52 67  1  0  0  0  0
 53 65  1  0  0  0  0
 54 62  1  0  0  0  0
 55 63  1  0  0  0  0
 56 63  1  0  0  0  0
 57 63  1  0  0  0  0
 58 73  1  0  0  0  0
 59 60  1  0  0  0  0
 59 80  1  0  0  0  0
 60 81  1  0  0  0  0
 61 63  1  0  0  0  0
 61 72  1  0  0  0  0
 62 73  1  0  0  0  0
 64 65  1  0  0  0  0
M  CHG  1  73   1
M  ISO  4  38 100  59 101  66 100  80 101
M  END
> <Batch ID>
0011

> <Smiles>
CNC(C)C(=O)NC(C(=O)N1Cc2cc([101O:1][101CH2:1]COc3ccc4c(c3)CCC[100N:0]4[100C:0](=O)N3CCCC(n4nc(-c5ccc(Oc6ccc(F)cc6F)cc5)c(C(N)=O)c4N)C3)ccc2CC1C(=O)NC1CCCc2ccccc21)C(C)(C)C

> <Shape>
0.240

> <Color>
0.185

> <Negative vol penalty>
0.000

$$$$

  -OEChem-04042320433D

 83 92  0     1  0  0  0  0  0999 V2000
  -29.8088  -34.7236   24.1944 C   0  0  0  0  0  0  0  0  0  0  0  0
  -30.1546  -33.4159   23.8693 C   0  0  0  0  0  0  0  0  0  0  0  0
  -23.1965   -9.6647   20.0951 C   0  0  0  0  0  0  0  0  0  0  0  0
  -23.8311   -9.9589   22.4076 C   0  0  0  0  0  0  0  0  0  0  0  0
  -28.4764  -35.0495   24.4445 C   0  0  0  0  0  0  0  0  0  0  0  0
  -29.1683  -32.4330   23.7952 C   0  0  0  0  0  0  0  0  0  0  0  0
  -28.9977  -27.6715   19.9474 C   0  0  0  0  0  0  0  0  0  0  0  0
  -30.4669  -19.2705   19.7759 C   0  0  0  0  0  0  0  0  0  0  0  0
  -30.3513  -17.8895   19.9342 C   0  0  0  0  0  0  0  0  0  0  0  0
  -22.4899   -8.5113   20.4357 C   0  0  0  0  0  0  0  0  0  0  0  0
  -23.1244   -8.8055   22.7482 C   0  0  0  0  0  0  0  0  0  0  0  0
  -29.3509  -26.3312   20.0974 C   0  0  0  0  0  0  0  0  0  0  0  0
  -19.9053   -7.9239   23.2781 C   0  0  0  0  0  0  0  0  0  0  0  0
  -19.0889   -7.9758   24.4078 C   0  0  0  0  0  0  0  0  0  0  0  0
  -27.0521  -25.7863   20.5853 C   0  0  0  0  0  0  0  0  0  0  0  0
  -29.8104  -19.5895   22.0791 C   0  0  0  0  0  0  0  0  0  0  0  0
  -20.3701   -6.1925   25.4156 C   0  0  0  0  0  0  0  0  0  0  0  0
  -23.8671  -10.3885   21.0810 C   0  0  0  0  0  0  0  0  0  0  0  0
  -24.1074  -12.8989   20.6966 C   0  0  0  0  0  0  0  0  0  0  0  0
  -27.4720  -34.0721   24.3639 C   0  0  0  0  0  0  0  0  0  0  0  0
  -27.6687  -28.0817   20.1262 C   0  0  0  0  0  0  0  0  0  0  0  0
  -27.8214  -32.7458   24.0457 C   0  0  0  0  0  0  0  0  0  0  0  0
  -26.6842  -27.1321   20.4344 C   0  0  0  0  0  0  0  0  0  0  0  0
  -29.6948  -18.2085   22.2374 C   0  0  0  0  0  0  0  0  0  0  0  0
  -30.1965  -20.1205   20.8484 C   0  0  0  0  0  0  0  0  0  0  0  0
  -29.9652  -17.3585   21.1649 C   0  0  0  0  0  0  0  0  0  0  0  0
  -22.4538   -8.0817   21.7622 C   0  0  0  0  0  0  0  0  0  0  0  0
  -28.3786  -25.3888   20.4193 C   0  0  0  0  0  0  0  0  0  0  0  0
  -20.9541   -7.0062   23.2170 C   0  0  0  0  0  0  0  0  0  0  0  0
  -19.3213   -7.1101   25.4766 C   0  0  0  0  0  0  0  0  0  0  0  0
  -21.1865   -6.1406   24.2858 C   0  0  0  0  0  0  0  0  0  0  0  0
  -24.5977  -11.5797   20.7297 C   0  0  0  0  0  0  0  0  0  0  0  0
  -25.1847  -13.6559   20.3056 C   0  0  0  0  0  0  0  0  0  0  0  0
  -22.7955  -13.3956   20.9930 C   0  0  0  0  0  0  0  0  0  0  0  0
  -26.1779  -30.0458   22.1321 C   0  0  0  0  0  0  0  0  0  0  0  0
  -23.6236  -29.4170   20.2342 C   0  0  0  0  0  0  0  0  0  0  0  0
  -22.1030  -27.3014   18.0299 C   0  0  0  0  0  0  0  0  0  0  0  0
  -30.5843  -14.9762   20.6286 C   0  0  0  0  0  0  0  0  0  0  0  0
  -26.0518  -34.4621   24.6890 C   0  0  0  0  0  0  0  0  0  0  0  0
  -27.2994  -29.5271   19.9345 C   0  0  0  0  0  0  0  0  0  0  0  0
  -25.2398  -27.5178   20.6169 C   0  0  0  0  0  0  0  0  0  0  0  0
  -25.0177  -33.4406   24.2228 C   0  0  0  0  0  0  0  0  0  0  0  0
  -29.7023  -12.2671   18.4932 C   0  0  0  0  0  0  0  0  0  0  0  0
  -25.4511  -32.0292   24.6060 C   0  0  0  0  0  0  0  0  0  0  0  0
  -28.2553  -11.9553   18.8819 C   0  0  0  0  0  0  0  0  0  0  0  0
  -30.9739  -23.5844   19.8497 C   0  0  0  0  0  0  0  0  0  0  0  0
  -30.5409  -12.6697   19.7049 C   0  0  0  0  0  0  0  0  0  0  0  0
  -30.7084  -22.1343   19.4456 C   0  0  0  0  0  0  0  0  0  0  0  0
  -28.5335  -13.4482   20.9021 C   0  0  0  0  0  0  0  0  0  0  0  0
  -30.0442  -22.4573   21.7532 C   0  0  0  0  0  0  0  0  0  0  0  0
  -26.7768  -31.6568   23.9312 C   0  0  1  0  0  0  0  0  0  0  0  0
  -26.0058  -29.9126   20.6454 C   0  0  1  0  0  0  0  0  0  0  0  0
  -27.6336  -13.1006   19.7050 C   0  0  2  0  0  0  0  0  0  0  0  0
  -30.0377  -23.8030   21.0293 C   0  0  2  0  0  0  0  0  0  1  0  0
  -29.2809  -17.6672   23.5673 C   0  0  0  0  0  0  0  0  0  0  0  0
  -20.0043  -27.0394   16.6793 C   0  0  0  0  0  0  0  0  0  0  0  0
  -22.1008  -28.6284   22.7579 C   0  0  0  0  0  0  0  0  0  0  0  0
  -20.4051  -27.5034   21.2994 C   0  0  0  0  0  0  0  0  0  0  0  0
  -20.7726  -29.9637   21.1125 C   0  0  0  0  0  0  0  0  0  0  0  0
  -23.6062  -27.2950   15.4805 C   0  0  0  0  0  0  0  0  0  0  0  0
  -22.5293  -28.3771   20.2243 C   0  0  1  0  0  0  0  0  0  0  0  0
  -21.4359  -27.5525   16.6896 C   0  0  2  0  0  0  0  0  0  0  0  0
  -21.4794  -28.6109   21.3471 C   0  0  0  0  0  0  0  0  0  0  0  0
  -25.8862  -11.4997   20.3869 N   0  0  0  0  0  0  0  0  0  0  0  0
  -26.2146  -12.7782   20.1346 N   0  0  0  0  0  0  0  0  0  0  0  0
  -30.3114  -21.4859   20.6918 N   0  0  3  0  0  0  0  0  0  0  0  0
  -24.9297  -28.9442   20.4253 N   0  0  0  0  0  0  0  0  0  0  0  0
  -29.8924  -13.7621   20.4334 N   0  0  0  0  0  0  0  0  0  0  0  0
  -25.3420  -14.9799   20.0948 N   0  0  0  0  0  0  0  0  0  0  0  0
  -21.8064  -12.4811   21.3799 N   0  0  0  0  0  0  0  0  0  0  0  0
  -29.8552  -15.9529   21.3061 N   0  0  0  0  0  0  0  0  0  0  0  0
  -26.5575  -31.3091   22.5436 N   0  0  0  0  0  0  0  0  0  0  0  0
  -21.9731  -28.3826   18.8756 N   0  0  0  0  0  0  0  0  0  0  0  0
  -22.1883  -26.8684   15.6002 N   0  3  0  0  0  0  0  0  0  0  0  0
  -22.5045  -14.6123   20.9010 O   0  0  0  0  0  0  0  0  0  0  0  0
  -25.9796  -29.0746   22.8527 O   0  0  0  0  0  0  0  0  0  0  0  0
  -23.3311  -30.6042   20.0710 O   0  0  0  0  0  0  0  0  0  0  0  0
  -22.6785  -26.2497   18.3008 O   0  0  0  0  0  0  0  0  0  0  0  0
  -31.7287  -15.1469   20.2006 O   0  0  0  0  0  0  0  0  0  0  0  0
  -21.7642   -6.9565   22.0950 O   0  0  0  0  0  0  0  0  0  0  0  0
  -28.7207  -24.0800   20.5669 O   0  0  0  0  0  0  0  0  0  1  0  0
  -18.5382   -7.1612   26.5621 F   0  0  0  0  0  0  0  0  0  0  0  0
  -22.1932   -5.2576   24.2334 F   0  0  0  0  0  0  0  0  0  0  0  0
  1  2  1  0  0  0  0
  1  5  2  0  0  0  0
  2  6  2  0  0  0  0
  3 10  2  0  0  0  0
  3 18  1  0  0  0  0
  4 11  1  0  0  0  0
  4 18  2  0  0  0  0
  5 20  1  0  0  0  0
  6 22  1  0  0  0  0
  7 12  2  0  0  0  0
  7 21  1  0  0  0  0
  8  9  2  0  0  0  0
  8 25  1  0  0  0  0
  9 26  1  0  0  0  0
 10 27  1  0  0  0  0
 11 27  2  0  0  0  0
 12 28  1  0  0  0  0
 13 14  2  0  0  0  0
 13 29  1  0  0  0  0
 14 30  1  0  0  0  0
 15 23  1  0  0  0  0
 15 28  2  0  0  0  0
 16 24  1  0  0  0  0
 16 25  2  0  0  0  0
 17 30  2  0  0  0  0
 17 31  1  0  0  0  0
 18 32  1  0  0  0  0
 19 32  1  0  0  0  0
 19 33  2  0  0  0  0
 19 34  1  0  0  0  0
 20 22  2  0  0  0  0
 20 39  1  0  0  0  0
 21 23  2  0  0  0  0
 21 40  1  0  0  0  0
 22 51  1  0  0  0  0
 23 41  1  0  0  0  0
 24 26  2  0  0  0  0
 24 55  1  0  0  0  0
 25 66  1  0  0  0  0
 26 71  1  0  0  0  0
 27 80  1  0  0  0  0
 28 81  1  0  0  0  0
 29 31  2  0  0  0  0
 29 80  1  0  0  0  0
 30 82  1  0  0  0  0
 31 83  1  0  0  0  0
 32 64  2  0  0  0  0
 33 65  1  0  0  0  0
 33 69  1  0  0  0  0
 34 70  1  0  0  0  0
 34 75  2  0  0  0  0
 35 52  1  0  0  0  0
 35 72  1  0  0  0  0
 35 76  2  0  0  0  0
 36 61  1  0  0  0  0
 36 67  1  0  0  0  0
 36 77  2  0  0  0  0
 37 62  1  0  0  0  0
 37 73  1  0  0  0  0
 37 78  2  0  0  0  0
 38 68  1  0  0  0  0
 38 71  1  0  0  0  0
 38 79  2  0  0  0  0
 39 42  1  0  0  0  0
 40 52  1  0  0  0  0
 41 67  1  0  0  0  0
 42 44  1  0  0  0  0
 43 45  1  0  0  0  0
 43 47  1  0  0  0  0
 44 51  1  0  0  0  0
 45 53  1  0  0  0  0
 46 48  1  0  0  0  0
 46 54  1  0  0  0  0
 47 68  1  0  0  0  0
 48 66  1  0  0  0  0
 49 53  1  0  0  0  0
 49 68  1  0  0  0  0
 50 54  1  0  0  0  0
 50 66  1  0  0  0  0
 51 72  1  0  0  0  0
 52 67  1  0  0  0  0
 53 65  1  0  0  0  0
 54 81  1  0  0  0  0
 56 62  1  0  0  0  0
 57 63  1  0  0  0  0
 58 63  1  0  0  0  0
 59 63  1  0  0  0  0
 60 74  1  0  0  0  0
 61 63  1  0  0  0  0
 61 73  1  0  0  0  0
 62 74  1  0  0  0  0
 64 65  1  0  0  0  0
M  CHG  1  74   1
M  ISO  4  38 100  54 101  71 100  81 101
M  END
> <Batch ID>
0011

> <Smiles>
CNC(C)C(=O)NC(C(=O)N1Cc2cc([101O:1][101CH:1]3CCN(c4ccc([100NH:0][100C:0](=O)N5CCCC(n6nc(-c7ccc(Oc8ccc(F)cc8F)cc7)c(C(N)=O)c6N)C5)c(C)c4)C3)ccc2CC1C(=O)NC1CCCc2ccccc21)C(C)(C)C

> <Shape>
0.380

> <Color>
0.203

> <Negative vol penalty>
0.000

$$$$

  -OEChem-04042320433D

 87 96  0     1  0  0  0  0  0999 V2000
  -30.1213  -34.5137   25.6828 C   0  0  0  0  0  0  0  0  0  0  0  0
  -29.7755  -33.3951   24.9314 C   0  0  0  0  0  0  0  0  0  0  0  0
  -23.5622   -9.6435   19.7656 C   0  0  0  0  0  0  0  0  0  0  0  0
  -24.4016   -9.5360   22.0286 C   0  0  0  0  0  0  0  0  0  0  0  0
  -29.1414  -35.2032   26.3957 C   0  0  0  0  0  0  0  0  0  0  0  0
  -28.4497  -32.9647   24.8934 C   0  0  0  0  0  0  0  0  0  0  0  0
  -25.5384  -30.4244   20.1419 C   0  0  0  0  0  0  0  0  0  0  0  0
  -22.4458   -8.8981   20.1443 C   0  0  0  0  0  0  0  0  0  0  0  0
  -23.2851   -8.7906   22.4073 C   0  0  0  0  0  0  0  0  0  0  0  0
  -25.2555  -29.0990   19.8149 C   0  0  0  0  0  0  0  0  0  0  0  0
  -22.2305   -5.5872   22.1690 C   0  0  0  0  0  0  0  0  0  0  0  0
  -22.4420   -4.4639   22.9683 C   0  0  0  0  0  0  0  0  0  0  0  0
  -23.0655  -29.3298   20.7998 C   0  0  0  0  0  0  0  0  0  0  0  0
  -21.0471   -5.4265   24.6901 C   0  0  0  0  0  0  0  0  0  0  0  0
  -24.5402   -9.9624   20.7077 C   0  0  0  0  0  0  0  0  0  0  0  0
  -26.6546  -10.3905   19.3461 C   0  0  0  0  0  0  0  0  0  0  0  0
  -27.8013  -34.7868   26.3587 C   0  0  0  0  0  0  0  0  0  0  0  0
  -24.5895  -31.2106   20.8111 C   0  0  0  0  0  0  0  0  0  0  0  0
  -27.4512  -33.6486   25.6076 C   0  0  0  0  0  0  0  0  0  0  0  0
  -23.3379  -30.6657   21.1319 C   0  0  0  0  0  0  0  0  0  0  0  0
  -22.3072   -8.4717   21.4652 C   0  0  0  0  0  0  0  0  0  0  0  0
  -24.0200  -28.5506   20.1464 C   0  0  0  0  0  0  0  0  0  0  0  0
  -21.4274   -6.6303   22.6302 C   0  0  0  0  0  0  0  0  0  0  0  0
  -21.8503   -4.3835   24.2289 C   0  0  0  0  0  0  0  0  0  0  0  0
  -20.8356   -6.5499   23.8908 C   0  0  0  0  0  0  0  0  0  0  0  0
  -25.6940  -10.7319   20.3170 C   0  0  0  0  0  0  0  0  0  0  0  0
  -27.5374  -11.4426   19.3516 C   0  0  0  0  0  0  0  0  0  0  0  0
  -26.6006  -21.9193   20.2040 C   0  0  0  0  0  0  0  0  0  0  0  0
  -26.7410   -9.2263   18.5136 C   0  0  0  0  0  0  0  0  0  0  0  0
  -24.4860  -32.6962   23.6193 C   0  0  0  0  0  0  0  0  0  0  0  0
  -21.6753  -33.8389   22.4717 C   0  0  0  0  0  0  0  0  0  0  0  0
  -24.3856  -24.9431   20.1216 C   0  0  0  0  0  0  0  0  0  0  0  0
  -19.0422  -33.4429   20.3371 C   0  0  0  0  0  0  0  0  0  0  0  0
  -28.7027  -16.6965   19.3685 C   0  0  0  0  0  0  0  0  0  0  0  0
  -26.7853  -35.5362   27.1838 C   0  0  0  0  0  0  0  0  0  0  0  0
  -24.9002  -32.6466   21.1330 C   0  0  0  0  0  0  0  0  0  0  0  0
  -22.2772  -31.4737   21.8323 C   0  0  0  0  0  0  0  0  0  0  0  0
  -25.3410  -35.2369   26.7903 C   0  0  0  0  0  0  0  0  0  0  0  0
  -28.0426  -15.3155   22.5511 C   0  0  0  0  0  0  0  0  0  0  0  0
  -25.1307  -33.7342   26.6341 C   0  0  0  0  0  0  0  0  0  0  0  0
  -27.4375  -13.9638   22.1749 C   0  0  0  0  0  0  0  0  0  0  0  0
  -24.3810  -21.9216   19.3215 C   0  0  0  0  0  0  0  0  0  0  0  0
  -27.5679  -16.4357   21.6237 C   0  0  0  0  0  0  0  0  0  0  0  0
  -27.1733  -14.7995   19.8099 C   0  0  0  0  0  0  0  0  0  0  0  0
  -26.3993  -18.6768   18.2940 C   0  0  0  0  0  0  0  0  0  0  0  0
  -26.0196  -33.1655   25.5215 C   0  0  1  0  0  0  0  0  0  0  0  0
  -25.2731  -22.6436   20.3408 C   0  0  2  0  0  0  0  0  0  0  0  0
  -24.0508  -33.2008   22.2726 C   0  0  1  0  0  0  0  0  0  0  0  0
  -27.6809  -13.6464   20.6893 C   0  0  2  0  0  0  0  0  0  0  0  0
  -27.2122  -19.6851   19.1212 C   0  0  2  0  0  0  0  0  0  0  0  0
  -24.8886  -20.4953   19.4162 C   0  0  2  0  0  0  0  0  0  0  0  0
  -29.8750  -19.2360   17.6514 C   0  0  0  0  0  0  0  0  0  0  0  0
  -16.8811  -34.5199   19.6538 C   0  0  0  0  0  0  0  0  0  0  0  0
  -20.3590  -32.8124   25.0258 C   0  0  0  0  0  0  0  0  0  0  0  0
  -18.1389  -33.0453   23.8923 C   0  0  0  0  0  0  0  0  0  0  0  0
  -19.5611  -35.0593   24.2714 C   0  0  0  0  0  0  0  0  0  0  0  0
  -19.9729  -33.8128   17.5522 C   0  0  0  0  0  0  0  0  0  0  0  0
  -24.8404  -26.3476   19.7865 C   0  0  0  0  0  0  0  0  0  1  0  0
  -28.0389  -18.9932   20.1987 C   0  0  0  0  0  0  0  0  0  0  0  0
  -30.1739  -18.6426   19.0133 C   0  0  0  0  0  0  0  0  0  0  0  0
  -20.2385  -33.3774   22.5094 C   0  0  1  0  0  0  0  0  0  0  0  0
  -18.3718  -34.4068   19.3749 C   0  0  2  0  0  0  0  0  0  0  0  0
  -19.5949  -33.5576   23.9133 C   0  0  0  0  0  0  0  0  0  0  0  0
  -25.9432  -11.9089   20.8972 N   0  0  0  0  0  0  0  0  0  0  0  0
  -27.0704  -12.3162   20.2892 N   0  0  0  0  0  0  0  0  0  0  0  0
  -26.2913  -20.6614   19.6928 N   0  0  0  0  0  0  0  0  0  0  0  0
  -22.6311  -32.8711   22.1314 N   0  0  0  0  0  0  0  0  0  0  0  0
  -27.7748  -16.0723   20.2151 N   0  0  0  0  0  0  0  0  0  0  0  0
  -28.6599  -11.6965   18.6459 N   0  0  0  0  0  0  0  0  0  0  0  0
  -27.4522   -8.1162   18.9892 N   0  0  0  0  0  0  0  0  0  0  0  0
  -25.4597  -33.4695   24.2221 N   0  0  0  0  0  0  0  0  0  0  0  0
  -25.4345  -24.0385   20.0679 N   0  0  0  0  0  0  0  0  0  0  0  0
  -19.5513  -34.0943   21.4406 N   0  0  0  0  0  0  0  0  0  0  0  0
  -28.9880  -18.0481   19.6137 N   0  0  0  0  0  0  0  0  0  0  0  0
  -18.5533  -33.9458   17.9694 N   0  3  0  0  0  0  0  0  0  0  0  0
  -27.6988  -22.3649   20.4970 O   0  0  0  0  0  0  0  0  0  0  0  0
  -26.2173   -9.1781   17.3748 O   0  0  0  0  0  0  0  0  0  0  0  0
  -23.9750  -31.6813   24.0782 O   0  0  0  0  0  0  0  0  0  0  0  0
  -21.9393  -35.0164   22.7275 O   0  0  0  0  0  0  0  0  0  0  0  0
  -23.2214  -24.6708   20.4014 O   0  0  0  0  0  0  0  0  0  0  0  0
  -19.1045  -32.2327   20.1322 O   0  0  0  0  0  0  0  0  0  0  0  0
  -29.2418  -16.0829   18.4385 O   0  0  0  0  0  0  0  0  0  0  0  0
  -21.2177   -7.7445   21.8351 O   0  0  0  0  0  0  0  0  0  0  0  0
  -23.7415  -27.2569   19.8290 O   0  0  0  0  0  0  0  0  0  1  0  0
  -22.0522   -3.3040   24.9957 F   0  0  0  0  0  0  0  0  0  0  0  0
  -20.0621   -7.5482   24.3388 F   0  0  0  0  0  0  0  0  0  0  0  0
  -24.8134  -19.4892   17.9270 S   0  0  0  0  0  0  0  0  0  0  0  0
  1  2  1  0  0  0  0
  1  5  2  0  0  0  0
  2  6  2  0  0  0  0
  3  8  2  0  0  0  0
  3 15  1  0  0  0  0
  4  9  1  0  0  0  0
  4 15  2  0  0  0  0
  5 17  1  0  0  0  0
  6 19  1  0  0  0  0
  7 10  2  0  0  0  0
  7 18  1  0  0  0  0
  8 21  1  0  0  0  0
  9 21  2  0  0  0  0
 10 22  1  0  0  0  0
 11 12  2  0  0  0  0
 11 23  1  0  0  0  0
 12 24  1  0  0  0  0
 13 20  1  0  0  0  0
 13 22  2  0  0  0  0
 14 24  2  0  0  0  0
 14 25  1  0  0  0  0
 15 26  1  0  0  0  0
 16 26  1  0  0  0  0
 16 27  2  0  0  0  0
 16 29  1  0  0  0  0
 17 19  2  0  0  0  0
 17 35  1  0  0  0  0
 18 20  2  0  0  0  0
 18 36  1  0  0  0  0
 19 46  1  0  0  0  0
 20 37  1  0  0  0  0
 21 83  1  0  0  0  0
 22 84  1  0  0  0  0
 23 25  2  0  0  0  0
 23 83  1  0  0  0  0
 24 85  1  0  0  0  0
 25 86  1  0  0  0  0
 26 64  2  0  0  0  0
 27 65  1  0  0  0  0
 27 69  1  0  0  0  0
 28 47  1  0  0  0  0
 28 66  1  0  0  0  0
 28 76  2  0  0  0  0
 29 70  1  0  0  0  0
 29 77  2  0  0  0  0
 30 48  1  0  0  0  0
 30 71  1  0  0  0  0
 30 78  2  0  0  0  0
 31 61  1  0  0  0  0
 31 67  1  0  0  0  0
 31 79  2  0  0  0  0
 32 58  1  0  0  0  0
 32 72  1  0  0  0  0
 32 80  2  0  0  0  0
 33 62  1  0  0  0  0
 33 73  1  0  0  0  0
 33 81  2  0  0  0  0
 34 68  1  0  0  0  0
 34 74  1  0  0  0  0
 34 82  2  0  0  0  0
 35 38  1  0  0  0  0
 36 48  1  0  0  0  0
 37 67  1  0  0  0  0
 38 40  1  0  0  0  0
 39 41  1  0  0  0  0
 39 43  1  0  0  0  0
 40 46  1  0  0  0  0
 41 49  1  0  0  0  0
 42 47  1  0  0  0  0
 42 51  1  0  0  0  0
 43 68  1  0  0  0  0
 44 49  1  0  0  0  0
 44 68  1  0  0  0  0
 45 50  1  0  0  0  0
 45 87  1  0  0  0  0
 46 71  1  0  0  0  0
 47 72  1  0  0  0  0
 48 67  1  0  0  0  0
 49 65  1  0  0  0  0
 50 59  1  0  0  0  0
 50 66  1  0  0  0  0
 51 66  1  0  0  0  0
 51 87  1  0  0  0  0
 52 60  1  0  0  0  0
 53 62  1  0  0  0  0
 54 63  1  0  0  0  0
 55 63  1  0  0  0  0
 56 63  1  0  0  0  0
 57 75  1  0  0  0  0
 58 84  1  0  0  0  0
 59 74  1  0  0  0  0
 60 74  1  0  0  0  0
 61 63  1  0  0  0  0
 61 73  1  0  0  0  0
 62 75  1  0  0  0  0
 64 65  1  0  0  0  0
M  CHG  1  75   1
M  ISO  4  34 100  58 101  74 100  84 101
M  END
> <Batch ID>
0011

> <Smiles>
CC[100N:0](CC1CSC2CC(NC(=O)[101CH2:1][101O:1]c3ccc4c(c3)CN(C(=O)C(NC(=O)C(C)NC)C(C)(C)C)C(C(=O)NC3CCCc5ccccc53)C4)C(=O)N12)[100C:0](=O)N1CCCC(n2nc(-c3ccc(Oc4ccc(F)cc4F)cc3)c(C(N)=O)c2N)C1

> <Shape>
0.243

> <Color>
0.098

> <Negative vol penalty>
0.000

$$$$

  -OEChem-04042320433D

 86 95  0     1  0  0  0  0  0999 V2000
  -16.7144  -30.4671   23.6800 C   0  0  0  0  0  0  0  0  0  0  0  0
  -17.7298  -30.4141   24.6296 C   0  0  0  0  0  0  0  0  0  0  0  0
  -24.2470   -9.5110   20.2678 C   0  0  0  0  0  0  0  0  0  0  0  0
  -24.8359  -10.0046   22.5583 C   0  0  0  0  0  0  0  0  0  0  0  0
  -16.8846  -29.8454   22.4438 C   0  0  0  0  0  0  0  0  0  0  0  0
  -18.9155  -29.7383   24.3439 C   0  0  0  0  0  0  0  0  0  0  0  0
  -25.9445  -29.9767   25.7049 C   0  0  0  0  0  0  0  0  0  0  0  0
  -30.2660  -19.1541   22.2704 C   0  0  0  0  0  0  0  0  0  0  0  0
  -23.9235   -8.2042   20.6325 C   0  0  0  0  0  0  0  0  0  0  0  0
  -24.5124   -8.6977   22.9231 C   0  0  0  0  0  0  0  0  0  0  0  0
  -26.9803  -29.1657   26.1670 C   0  0  0  0  0  0  0  0  0  0  0  0
  -21.7153   -6.9104   23.5573 C   0  0  0  0  0  0  0  0  0  0  0  0
  -20.9546   -6.7311   24.7126 C   0  0  0  0  0  0  0  0  0  0  0  0
  -30.4401  -20.2677   23.0846 C   0  0  0  0  0  0  0  0  0  0  0  0
  -27.1940  -28.1963   23.9684 C   0  0  0  0  0  0  0  0  0  0  0  0
  -22.7355   -5.4168   25.6812 C   0  0  0  0  0  0  0  0  0  0  0  0
  -27.9323  -19.2567   22.7178 C   0  0  0  0  0  0  0  0  0  0  0  0
  -24.7032  -10.4112   21.2307 C   0  0  0  0  0  0  0  0  0  0  0  0
  -24.1790  -12.8763   20.8352 C   0  0  0  0  0  0  0  0  0  0  0  0
  -18.0769  -29.1698   22.1391 C   0  0  0  0  0  0  0  0  0  0  0  0
  -25.5178  -29.8955   24.3716 C   0  0  0  0  0  0  0  0  0  0  0  0
  -19.1013  -29.1058   23.1028 C   0  0  0  0  0  0  0  0  0  0  0  0
  -26.1544  -29.0091   23.4912 C   0  0  0  0  0  0  0  0  0  0  0  0
  -28.9914  -18.6328   22.0783 C   0  0  0  0  0  0  0  0  0  0  0  0
  -24.0562   -7.7975   21.9602 C   0  0  0  0  0  0  0  0  0  0  0  0
  -27.6032  -28.2733   25.2994 C   0  0  0  0  0  0  0  0  0  0  0  0
  -22.9861   -6.3428   23.4639 C   0  0  0  0  0  0  0  0  0  0  0  0
  -21.4647   -5.9843   25.7746 C   0  0  0  0  0  0  0  0  0  0  0  0
  -23.4962   -5.5961   24.5259 C   0  0  0  0  0  0  0  0  0  0  0  0
  -25.0381  -11.7612   20.8544 C   0  0  0  0  0  0  0  0  0  0  0  0
  -29.3162  -20.8186   23.6788 C   0  0  0  0  0  0  0  0  0  0  0  0
  -24.9721  -13.9134   20.4087 C   0  0  0  0  0  0  0  0  0  0  0  0
  -22.7885  -12.9665   21.1728 C   0  0  0  0  0  0  0  0  0  0  0  0
  -22.7923  -29.1188   22.9320 C   0  0  0  0  0  0  0  0  0  0  0  0
  -24.3849  -30.0586   20.2670 C   0  0  0  0  0  0  0  0  0  0  0  0
  -27.3783  -30.5671   18.7087 C   0  0  0  0  0  0  0  0  0  0  0  0
  -29.7473  -16.7732   20.5562 C   0  0  0  0  0  0  0  0  0  0  0  0
  -18.1962  -28.4727   20.8070 C   0  0  0  0  0  0  0  0  0  0  0  0
  -24.4171  -30.7962   23.8820 C   0  0  0  0  0  0  0  0  0  0  0  0
  -25.7472  -28.8981   22.0454 C   0  0  0  0  0  0  0  0  0  0  0  0
  -19.6301  -28.0965   20.4427 C   0  0  0  0  0  0  0  0  0  0  0  0
  -29.6413  -13.9015   18.4541 C   0  0  0  0  0  0  0  0  0  0  0  0
  -20.3282  -27.4410   21.6300 C   0  0  0  0  0  0  0  0  0  0  0  0
  -28.3636  -13.1804   18.8896 C   0  0  0  0  0  0  0  0  0  0  0  0
  -30.4667  -23.8600   25.4236 C   0  0  0  0  0  0  0  0  0  0  0  0
  -30.3597  -14.5469   19.6377 C   0  0  0  0  0  0  0  0  0  0  0  0
  -30.8086  -22.5338   24.7428 C   0  0  0  0  0  0  0  0  0  0  0  0
  -28.2490  -14.7106   20.8976 C   0  0  0  0  0  0  0  0  0  0  0  0
  -28.4256  -22.6358   25.1659 C   0  0  0  0  0  0  0  0  0  0  0  0
  -20.4118  -28.4035   22.8209 C   0  0  1  0  0  0  0  0  0  0  0  0
  -23.7194  -30.2632   22.6344 C   0  0  1  0  0  0  0  0  0  0  0  0
  -27.4563  -14.0998   19.7305 C   0  0  2  0  0  0  0  0  0  0  0  0
  -29.1739  -23.5304   26.1479 C   0  0  2  0  0  0  0  0  0  0  0  0
  -28.3595  -31.3037   16.5196 C   0  0  0  0  0  0  0  0  0  0  0  0
  -23.6799  -27.3537   19.0435 C   0  0  0  0  0  0  0  0  0  0  0  0
  -25.4379  -27.7589   17.3076 C   0  0  0  0  0  0  0  0  0  0  0  0
  -23.4774  -29.2922   17.4764 C   0  0  0  0  0  0  0  0  0  0  0  0
  -28.7629  -32.8596   19.9682 C   0  0  0  0  0  0  0  0  0  0  0  0
  -27.0682  -24.4112   27.0666 C   0  0  0  0  0  0  0  0  0  0  0  0
  -29.1791  -25.7148   27.2799 C   0  0  0  0  0  0  0  0  0  0  0  0
  -28.5783  -27.0977   27.1224 C   0  0  0  0  0  0  0  0  0  1  0  0
  -25.2724  -29.3750   19.2550 C   0  0  1  0  0  0  0  0  0  0  0  0
  -27.9090  -31.7404   17.9049 C   0  0  2  0  0  0  0  0  0  0  0  0
  -24.4735  -28.4454   18.2983 C   0  0  0  0  0  0  0  0  0  0  0  0
  -28.0623  -20.3401   23.5159 N   0  0  0  0  0  0  0  0  0  0  0  0
  -26.2816  -12.0616   20.4705 N   0  0  0  0  0  0  0  0  0  0  0  0
  -26.2097  -13.3773   20.2059 N   0  0  0  0  0  0  0  0  0  0  0  0
  -29.5050  -21.9213   24.4842 N   0  0  3  0  0  0  0  0  0  0  0  0
  -24.6619  -29.7954   21.6160 N   0  0  0  0  0  0  0  0  0  0  0  0
  -29.4396  -15.4069   20.3851 N   0  0  0  0  0  0  0  0  0  0  0  0
  -24.7246  -15.2225   20.1910 N   0  0  0  0  0  0  0  0  0  0  0  0
  -22.1261  -11.8049   21.5926 N   0  0  0  0  0  0  0  0  0  0  0  0
  -28.7830  -17.4982   21.2554 N   0  0  0  0  0  0  0  0  0  0  0  0
  -21.4704  -29.3691   22.6170 N   0  0  0  0  0  0  0  0  0  0  0  0
  -26.0120  -30.4350   18.5785 N   0  0  0  0  0  0  0  0  0  0  0  0
  -29.0697  -32.3632   18.6020 N   0  3  0  0  0  0  0  0  0  0  0  0
  -28.4070  -24.7487   26.4585 N   0  3  1  0  0  0  0  0  0  0  0  0
  -22.1482  -14.0419   21.0885 O   0  0  0  0  0  0  0  0  0  0  0  0
  -23.2432  -28.0847   23.4107 O   0  0  0  0  0  0  0  0  0  0  0  0
  -23.4839  -30.8044   19.8751 O   0  0  0  0  0  0  0  0  0  0  0  0
  -28.1038  -29.8381   19.3816 O   0  0  0  0  0  0  0  0  0  0  0  0
  -30.7766  -17.2697   20.0915 O   0  0  0  0  0  0  0  0  0  0  0  0
  -23.7404   -6.5224   22.3165 O   0  0  0  0  0  0  0  0  0  0  0  0
  -28.6139  -27.4802   25.7480 O   0  0  0  0  0  0  0  0  0  1  0  0
  -20.7347   -5.8135   26.8846 F   0  0  0  0  0  0  0  0  0  0  0  0
  -24.7168   -5.0494   24.4424 F   0  0  0  0  0  0  0  0  0  0  0  0
  1  2  1  0  0  0  0
  1  5  2  0  0  0  0
  2  6  2  0  0  0  0
  3  9  2  0  0  0  0
  3 18  1  0  0  0  0
  4 10  1  0  0  0  0
  4 18  2  0  0  0  0
  5 20  1  0  0  0  0
  6 22  1  0  0  0  0
  7 11  2  0  0  0  0
  7 21  1  0  0  0  0
  8 14  2  0  0  0  0
  8 24  1  0  0  0  0
  9 25  1  0  0  0  0
 10 25  2  0  0  0  0
 11 26  1  0  0  0  0
 12 13  2  0  0  0  0
 12 27  1  0  0  0  0
 13 28  1  0  0  0  0
 14 31  1  0  0  0  0
 15 23  1  0  0  0  0
 15 26  2  0  0  0  0
 16 28  2  0  0  0  0
 16 29  1  0  0  0  0
 17 24  2  0  0  0  0
 17 65  1  0  0  0  0
 18 30  1  0  0  0  0
 19 30  1  0  0  0  0
 19 32  2  0  0  0  0
 19 33  1  0  0  0  0
 20 22  2  0  0  0  0
 20 38  1  0  0  0  0
 21 23  2  0  0  0  0
 21 39  1  0  0  0  0
 22 50  1  0  0  0  0
 23 40  1  0  0  0  0
 24 73  1  0  0  0  0
 25 83  1  0  0  0  0
 26 84  1  0  0  0  0
 27 29  2  0  0  0  0
 27 83  1  0  0  0  0
 28 85  1  0  0  0  0
 29 86  1  0  0  0  0
 30 66  2  0  0  0  0
 31 65  2  0  0  0  0
 31 68  1  0  0  0  0
 32 67  1  0  0  0  0
 32 71  1  0  0  0  0
 33 72  1  0  0  0  0
 33 78  2  0  0  0  0
 34 51  1  0  0  0  0
 34 74  1  0  0  0  0
 34 79  2  0  0  0  0
 35 62  1  0  0  0  0
 35 69  1  0  0  0  0
 35 80  2  0  0  0  0
 36 63  1  0  0  0  0
 36 75  1  0  0  0  0
 36 81  2  0  0  0  0
 37 70  1  0  0  0  0
 37 73  1  0  0  0  0
 37 82  2  0  0  0  0
 38 41  1  0  0  0  0
 39 51  1  0  0  0  0
 40 69  1  0  0  0  0
 41 43  1  0  0  0  0
 42 44  1  0  0  0  0
 42 46  1  0  0  0  0
 43 50  1  0  0  0  0
 44 52  1  0  0  0  0
 45 47  1  0  0  0  0
 45 53  1  0  0  0  0
 46 70  1  0  0  0  0
 47 68  1  0  0  0  0
 48 52  1  0  0  0  0
 48 70  1  0  0  0  0
 49 53  1  0  0  0  0
 49 68  1  0  0  0  0
 50 74  1  0  0  0  0
 51 69  1  0  0  0  0
 52 67  1  0  0  0  0
 53 77  1  0  0  0  0
 54 63  1  0  0  0  0
 55 64  1  0  0  0  0
 56 64  1  0  0  0  0
 57 64  1  0  0  0  0
 58 76  1  0  0  0  0
 59 77  1  0  0  0  0
 60 61  1  0  0  0  0
 60 77  1  0  0  0  0
 61 84  1  0  0  0  0
 62 64  1  0  0  0  0
 62 75  1  0  0  0  0
 63 76  1  0  0  0  0
 66 67  1  0  0  0  0
M  CHG  2  76   1  77   1
M  ISO  4  37 100  61 101  73 100  84 101
M  END
> <Batch ID>
0011

> <Smiles>
CNC(C)C(=O)NC(C(=O)N1Cc2cc([101O:1][101CH2:1]CN(C)C3CCN(c4ccc([100NH:0][100C:0](=O)N5CCCC(n6nc(-c7ccc(Oc8ccc(F)cc8F)cc7)c(C(N)=O)c6N)C5)cn4)C3)ccc2CC1C(=O)NC1CCCc2ccccc21)C(C)(C)C

> <Shape>
0.279

> <Color>
0.149

> <Negative vol penalty>
0.000

$$$$

  -OEChem-04042320433D

 81 89  0     1  0  0  0  0  0999 V2000
  -19.6416  -34.2310   20.9724 C   0  0  0  0  0  0  0  0  0  0  0  0
  -20.9486  -33.8268   20.7197 C   0  0  0  0  0  0  0  0  0  0  0  0
  -26.7903  -17.5969   18.9530 C   0  0  0  0  0  0  0  0  0  0  0  0
  -29.1259  -17.4398   19.5508 C   0  0  0  0  0  0  0  0  0  0  0  0
  -18.8834  -33.5707   21.9384 C   0  0  0  0  0  0  0  0  0  0  0  0
  -21.4986  -32.7628   21.4336 C   0  0  0  0  0  0  0  0  0  0  0  0
  -25.4876  -28.6061   19.3563 C   0  0  0  0  0  0  0  0  0  0  0  0
  -26.5904  -16.2874   19.3898 C   0  0  0  0  0  0  0  0  0  0  0  0
  -28.9260  -16.1303   19.9877 C   0  0  0  0  0  0  0  0  0  0  0  0
  -26.8730  -28.4974   19.4689 C   0  0  0  0  0  0  0  0  0  0  0  0
  -28.6118  -13.0624   18.6020 C   0  0  0  0  0  0  0  0  0  0  0  0
  -29.5474  -12.1015   18.2189 C   0  0  0  0  0  0  0  0  0  0  0  0
  -26.5977  -27.0223   21.3577 C   0  0  0  0  0  0  0  0  0  0  0  0
  -30.0459  -11.6608   20.5415 C   0  0  0  0  0  0  0  0  0  0  0  0
  -31.7792  -25.7305   16.9584 C   0  0  0  0  0  0  0  0  0  0  0  0
  -33.8058  -25.5222   17.7986 C   0  0  0  0  0  0  0  0  0  0  0  0
  -28.0581  -18.1731   19.0334 C   0  0  0  0  0  0  0  0  0  0  0  0
  -28.1496  -20.7035   19.3441 C   0  0  0  0  0  0  0  0  0  0  0  0
  -19.4211  -32.4918   22.6577 C   0  0  0  0  0  0  0  0  0  0  0  0
  -24.6456  -27.9313   20.2518 C   0  0  0  0  0  0  0  0  0  0  0  0
  -20.7473  -32.0883   22.4111 C   0  0  0  0  0  0  0  0  0  0  0  0
  -25.2019  -27.1221   21.2527 C   0  0  0  0  0  0  0  0  0  0  0  0
  -27.6582  -15.5541   19.9072 C   0  0  0  0  0  0  0  0  0  0  0  0
  -27.4283  -27.7077   20.4714 C   0  0  0  0  0  0  0  0  0  0  0  0
  -28.3933  -13.3226   19.9549 C   0  0  0  0  0  0  0  0  0  0  0  0
  -30.2645  -11.4006   19.1886 C   0  0  0  0  0  0  0  0  0  0  0  0
  -29.1103  -12.6217   20.9246 C   0  0  0  0  0  0  0  0  0  0  0  0
  -28.2653  -19.5256   18.5819 C   0  0  0  0  0  0  0  0  0  0  0  0
  -31.7678  -25.8304   18.3296 C   0  0  0  0  0  0  0  0  0  0  0  0
  -28.4443  -21.7139   18.4616 C   0  0  0  0  0  0  0  0  0  0  0  0
  -27.8065  -20.8695   20.7263 C   0  0  0  0  0  0  0  0  0  0  0  0
  -22.4782  -28.8238   22.3988 C   0  0  0  0  0  0  0  0  0  0  0  0
  -21.9604  -25.6299   22.6290 C   0  0  0  0  0  0  0  0  0  0  0  0
  -23.1653  -22.4628   22.2229 C   0  0  0  0  0  0  0  0  0  0  0  0
  -31.9141  -22.8544   13.9700 C   0  0  0  0  0  0  0  0  0  0  0  0
  -18.5790  -31.8395   23.7254 C   0  0  0  0  0  0  0  0  0  0  0  0
  -23.1529  -28.0376   20.1004 C   0  0  0  0  0  0  0  0  0  0  0  0
  -24.3414  -26.3610   22.2267 C   0  0  0  0  0  0  0  0  0  0  0  0
  -19.1100  -30.4805   24.1744 C   0  0  0  0  0  0  0  0  0  0  0  0
  -28.4517  -22.1466   13.5367 C   0  0  0  0  0  0  0  0  0  0  0  0
  -20.6126  -30.5517   24.4276 C   0  0  0  0  0  0  0  0  0  0  0  0
  -28.0399  -21.5081   14.8643 C   0  0  0  0  0  0  0  0  0  0  0  0
  -29.8667  -21.7410   13.1302 C   0  0  0  0  0  0  0  0  0  0  0  0
  -30.4875  -21.3464   15.4824 C   0  0  0  0  0  0  0  0  0  0  0  0
  -21.3709  -30.9224   23.1474 C   0  0  1  0  0  0  0  0  0  0  0  0
  -22.3975  -27.7165   21.3863 C   0  0  1  0  0  0  0  0  0  0  0  0
  -29.0887  -21.7704   15.9618 C   0  0  2  0  0  0  0  0  0  0  0  0
  -22.5237  -20.0564   22.5311 C   0  0  0  0  0  0  0  0  0  0  0  0
  -22.3855  -25.9044   25.6380 C   0  0  0  0  0  0  0  0  0  0  0  0
  -22.6794  -23.4208   25.7527 C   0  0  0  0  0  0  0  0  0  0  0  0
  -20.5107  -24.3841   24.9837 C   0  0  0  0  0  0  0  0  0  0  0  0
  -23.4685  -21.8915   19.3349 C   0  0  0  0  0  0  0  0  0  0  0  0
  -33.6264  -25.3677   15.3035 C   0  0  0  0  0  0  0  0  0  0  0  0
  -33.9294  -23.9116   14.9598 C   0  0  0  0  0  0  0  0  0  0  0  0
  -30.6878  -26.1338   20.5583 C   0  0  0  0  0  0  0  0  0  0  0  0
  -29.2931  -26.3771   21.1102 C   0  0  0  0  0  0  0  0  0  1  0  0
  -22.5305  -24.5122   23.4685 C   0  0  1  0  0  0  0  0  0  0  0  0
  -22.5638  -21.2325   21.5678 C   0  0  2  0  0  0  0  0  0  0  0  0
  -22.0430  -24.5711   24.9438 C   0  0  0  0  0  0  0  0  0  0  0  0
  -33.0325  -25.7002   18.8465 N   0  0  0  0  0  0  0  0  0  0  0  0
  -28.6067  -19.7641   17.3128 N   0  0  0  0  0  0  0  0  0  0  0  0
  -33.0916  -25.5336   16.6328 N   0  0  0  0  0  0  0  0  0  0  0  0
  -28.7080  -21.1036   17.2708 N   0  0  0  0  0  0  0  0  0  0  0  0
  -22.8876  -26.5022   22.0416 N   0  0  0  0  0  0  0  0  0  0  0  0
  -30.8128  -22.0173   14.2140 N   0  0  0  0  0  0  0  0  0  0  0  0
  -28.5009  -23.0560   18.5959 N   0  0  0  0  0  0  0  0  0  0  0  0
  -27.5336  -19.7257   21.4889 N   0  0  0  0  0  0  0  0  0  0  0  0
  -30.6471  -26.0358   19.1173 N   0  0  0  0  0  0  0  0  0  0  0  0
  -21.4818  -29.7732   22.2748 N   0  0  0  0  0  0  0  0  0  0  0  0
  -22.1961  -23.2714   22.7778 N   0  0  0  0  0  0  0  0  0  0  0  0
  -32.7579  -23.0692   15.0528 N   0  0  0  0  0  0  0  0  0  0  0  0
  -23.3654  -20.8363   20.3756 N   0  3  0  0  0  0  0  0  0  0  0  0
  -27.7277  -21.9996   21.2648 O   0  0  0  0  0  0  0  0  0  0  0  0
  -23.3769  -28.8165   23.2317 O   0  0  0  0  0  0  0  0  0  0  0  0
  -20.7378  -25.7212   22.4934 O   0  0  0  0  0  0  0  0  0  0  0  0
  -24.3744  -22.6825   22.2437 O   0  0  0  0  0  0  0  0  0  0  0  0
  -32.1264  -23.3762   12.8702 O   0  0  0  0  0  0  0  0  0  0  0  0
  -27.4635  -14.2763   20.3337 O   0  0  0  0  0  0  0  0  0  0  0  0
  -28.7802  -27.6004   20.5840 O   0  0  0  0  0  0  0  0  0  1  0  0
  -31.1618  -10.4768   18.8206 F   0  0  0  0  0  0  0  0  0  0  0  0
  -28.9038  -12.8665   22.2259 F   0  0  0  0  0  0  0  0  0  0  0  0
  1  2  1  0  0  0  0
  1  5  2  0  0  0  0
  2  6  2  0  0  0  0
  3  8  2  0  0  0  0
  3 17  1  0  0  0  0
  4  9  1  0  0  0  0
  4 17  2  0  0  0  0
  5 19  1  0  0  0  0
  6 21  1  0  0  0  0
  7 10  2  0  0  0  0
  7 20  1  0  0  0  0
  8 23  1  0  0  0  0
  9 23  2  0  0  0  0
 10 24  1  0  0  0  0
 11 12  2  0  0  0  0
 11 25  1  0  0  0  0
 12 26  1  0  0  0  0
 13 22  1  0  0  0  0
 13 24  2  0  0  0  0
 14 26  2  0  0  0  0
 14 27  1  0  0  0  0
 15 29  2  0  0  0  0
 15 62  1  0  0  0  0
 16 60  2  0  0  0  0
 16 62  1  0  0  0  0
 17 28  1  0  0  0  0
 18 28  1  0  0  0  0
 18 30  2  0  0  0  0
 18 31  1  0  0  0  0
 19 21  2  0  0  0  0
 19 36  1  0  0  0  0
 20 22  2  0  0  0  0
 20 37  1  0  0  0  0
 21 45  1  0  0  0  0
 22 38  1  0  0  0  0
 23 78  1  0  0  0  0
 24 79  1  0  0  0  0
 25 27  2  0  0  0  0
 25 78  1  0  0  0  0
 26 80  1  0  0  0  0
 27 81  1  0  0  0  0
 28 61  2  0  0  0  0
 29 60  1  0  0  0  0
 29 68  1  0  0  0  0
 30 63  1  0  0  0  0
 30 66  1  0  0  0  0
 31 67  1  0  0  0  0
 31 73  2  0  0  0  0
 32 46  1  0  0  0  0
 32 69  1  0  0  0  0
 32 74  2  0  0  0  0
 33 57  1  0  0  0  0
 33 64  1  0  0  0  0
 33 75  2  0  0  0  0
 34 58  1  0  0  0  0
 34 70  1  0  0  0  0
 34 76  2  0  0  0  0
 35 65  1  0  0  0  0
 35 71  1  0  0  0  0
 35 77  2  0  0  0  0
 36 39  1  0  0  0  0
 37 46  1  0  0  0  0
 38 64  1  0  0  0  0
 39 41  1  0  0  0  0
 40 42  1  0  0  0  0
 40 43  1  0  0  0  0
 41 45  1  0  0  0  0
 42 47  1  0  0  0  0
 43 65  1  0  0  0  0
 44 47  1  0  0  0  0
 44 65  1  0  0  0  0
 45 69  1  0  0  0  0
 46 64  1  0  0  0  0
 47 63  1  0  0  0  0
 48 58  1  0  0  0  0
 49 59  1  0  0  0  0
 50 59  1  0  0  0  0
 51 59  1  0  0  0  0
 52 72  1  0  0  0  0
 53 54  1  0  0  0  0
 53 62  1  0  0  0  0
 54 71  1  0  0  0  0
 55 56  1  0  0  0  0
 55 68  1  0  0  0  0
 56 79  1  0  0  0  0
 57 59  1  0  0  0  0
 57 70  1  0  0  0  0
 58 72  1  0  0  0  0
 61 63  1  0  0  0  0
M  CHG  1  72   1
M  ISO  4  35 100  56 101  71 100  79 101
M  END
> <Batch ID>
0011

> <Smiles>
CNC(C)C(=O)NC(C(=O)N1Cc2cc([101O:1][101CH2:1]CNc3cn(CC[100NH:0][100C:0](=O)N4CCCC(n5nc(-c6ccc(Oc7ccc(F)cc7F)cc6)c(C(N)=O)c5N)C4)cn3)ccc2CC1C(=O)NC1CCCc2ccccc21)C(C)(C)C

> <Shape>
0.195

> <Color>
0.084

> <Negative vol penalty>
0.000

$$$$

  -OEChem-04042320433D

 85 94  0     1  0  0  0  0  0999 V2000
  -25.9539  -38.7096   22.9301 C   0  0  0  0  0  0  0  0  0  0  0  0
  -27.0472  -37.9760   23.3792 C   0  0  0  0  0  0  0  0  0  0  0  0
  -23.9406  -10.3393   22.8058 C   0  0  0  0  0  0  0  0  0  0  0  0
  -24.6874   -9.3171   20.7480 C   0  0  0  0  0  0  0  0  0  0  0  0
  -24.6600  -38.2778   23.2188 C   0  0  0  0  0  0  0  0  0  0  0  0
  -26.8473  -36.8105   24.1183 C   0  0  0  0  0  0  0  0  0  0  0  0
  -29.3937  -29.5460   22.7882 C   0  0  0  0  0  0  0  0  0  0  0  0
  -29.9604  -17.2812   24.0372 C   0  0  0  0  0  0  0  0  0  0  0  0
  -31.8960  -17.8444   22.7054 C   0  0  0  0  0  0  0  0  0  0  0  0
  -29.6350  -18.6340   24.1362 C   0  0  0  0  0  0  0  0  0  0  0  0
  -31.5705  -19.1971   22.8045 C   0  0  0  0  0  0  0  0  0  0  0  0
  -23.5356   -9.0912   23.2788 C   0  0  0  0  0  0  0  0  0  0  0  0
  -24.2824   -8.0690   21.2210 C   0  0  0  0  0  0  0  0  0  0  0  0
  -29.6529  -28.1918   22.5759 C   0  0  0  0  0  0  0  0  0  0  0  0
  -20.9208   -6.9933   22.8476 C   0  0  0  0  0  0  0  0  0  0  0  0
  -19.6711   -6.9080   23.4614 C   0  0  0  0  0  0  0  0  0  0  0  0
  -27.6826  -27.6041   23.8489 C   0  0  0  0  0  0  0  0  0  0  0  0
  -20.7230   -6.1403   25.4964 C   0  0  0  0  0  0  0  0  0  0  0  0
  -24.5165  -10.4523   21.5403 C   0  0  0  0  0  0  0  0  0  0  0  0
  -24.1277  -12.8777   20.8518 C   0  0  0  0  0  0  0  0  0  0  0  0
  -24.4440  -37.1013   23.9535 C   0  0  0  0  0  0  0  0  0  0  0  0
  -28.2681  -29.9352   23.5196 C   0  0  0  0  0  0  0  0  0  0  0  0
  -25.5493  -36.3633   24.4182 C   0  0  0  0  0  0  0  0  0  0  0  0
  -27.4110  -28.9594   24.0543 C   0  0  0  0  0  0  0  0  0  0  0  0
  -31.0910  -16.8864   23.3218 C   0  0  0  0  0  0  0  0  0  0  0  0
  -30.4400  -19.5919   23.5199 C   0  0  0  0  0  0  0  0  0  0  0  0
  -23.7065   -7.9560   22.4864 C   0  0  0  0  0  0  0  0  0  0  0  0
  -28.7995  -27.2233   23.1051 C   0  0  0  0  0  0  0  0  0  0  0  0
  -22.0716   -6.6520   23.5582 C   0  0  0  0  0  0  0  0  0  0  0  0
  -19.5722   -6.4815   24.7858 C   0  0  0  0  0  0  0  0  0  0  0  0
  -21.9727   -6.2255   24.8826 C   0  0  0  0  0  0  0  0  0  0  0  0
  -24.9346  -11.7414   21.0509 C   0  0  0  0  0  0  0  0  0  0  0  0
  -24.9925  -13.8343   20.3792 C   0  0  0  0  0  0  0  0  0  0  0  0
  -22.7222  -13.0527   21.0741 C   0  0  0  0  0  0  0  0  0  0  0  0
  -26.2152  -32.7598   24.8920 C   0  0  0  0  0  0  0  0  0  0  0  0
  -24.2458  -30.6488   23.8550 C   0  0  0  0  0  0  0  0  0  0  0  0
  -22.4239  -28.2747   22.2175 C   0  0  0  0  0  0  0  0  0  0  0  0
  -30.9021  -14.6210   20.9357 C   0  0  0  0  0  0  0  0  0  0  0  0
  -23.0277  -36.6998   24.2812 C   0  0  0  0  0  0  0  0  0  0  0  0
  -27.9835  -31.3807   23.8252 C   0  0  0  0  0  0  0  0  0  0  0  0
  -26.2312  -29.4237   24.8639 C   0  0  0  0  0  0  0  0  0  0  0  0
  -22.8976  -35.2527   24.7495 C   0  0  0  0  0  0  0  0  0  0  0  0
  -29.0596  -14.3113   17.9048 C   0  0  0  0  0  0  0  0  0  0  0  0
  -23.9651  -34.9305   25.7904 C   0  0  0  0  0  0  0  0  0  0  0  0
  -27.7207  -13.7201   18.3495 C   0  0  0  0  0  0  0  0  0  0  0  0
  -29.1568  -22.7725   24.9765 C   0  0  0  0  0  0  0  0  0  0  0  0
  -29.5735  -23.0956   22.5301 C   0  0  0  0  0  0  0  0  0  0  0  0
  -30.2230  -13.7490   18.7187 C   0  0  0  0  0  0  0  0  0  0  0  0
  -30.0532  -21.5360   24.9631 C   0  0  0  0  0  0  0  0  0  0  0  0
  -30.4655  -21.8549   22.5190 C   0  0  0  0  0  0  0  0  0  0  0  0
  -28.7334  -13.2804   20.6254 C   0  0  0  0  0  0  0  0  0  0  0  0
  -25.3730  -35.0805   25.2015 C   0  0  1  0  0  0  0  0  0  0  0  0
  -26.4794  -31.7060   23.8570 C   0  0  1  0  0  0  0  0  0  0  0  0
  -29.5667  -23.7799   23.8991 C   0  0  0  0  0  0  0  0  0  0  0  0
  -27.5241  -13.8590   19.8711 C   0  0  2  0  0  0  0  0  0  0  0  0
  -20.0609  -27.6496   21.6494 C   0  0  0  0  0  0  0  0  0  0  0  0
  -23.8209  -29.6721   26.7132 C   0  0  0  0  0  0  0  0  0  0  0  0
  -21.9320  -28.2593   25.8742 C   0  0  0  0  0  0  0  0  0  0  0  0
  -21.8172  -30.7426   25.6674 C   0  0  0  0  0  0  0  0  0  0  0  0
  -22.9496  -28.4649   19.3112 C   0  0  0  0  0  0  0  0  0  0  0  0
  -31.4400  -15.4404   23.2157 C   0  0  0  0  0  0  0  0  0  0  0  0
  -28.6325  -24.9875   23.8995 C   0  0  0  0  0  0  0  0  0  1  0  0
  -23.3950  -29.4463   24.1767 C   0  0  1  0  0  0  0  0  0  0  0  0
  -21.3093  -28.3887   21.1933 C   0  0  2  0  0  0  0  0  0  0  0  0
  -22.7674  -29.5273   25.5969 C   0  0  0  0  0  0  0  0  0  0  0  0
  -26.2137  -11.9548   20.7309 N   0  0  0  0  0  0  0  0  0  0  0  0
  -26.2171  -13.2361   20.3258 N   0  0  0  0  0  0  0  0  0  0  0  0
  -30.1125  -20.9503   23.6175 N   0  0  0  0  0  0  0  0  0  0  0  0
  -25.5981  -30.5805   24.2114 N   0  0  0  0  0  0  0  0  0  0  0  0
  -29.9748  -13.9135   20.1530 N   0  0  0  0  0  0  0  0  0  0  0  0
  -24.8174  -15.1204   20.0082 N   0  0  0  0  0  0  0  0  0  0  0  0
  -21.9827  -11.9670   21.5627 N   0  0  0  0  0  0  0  0  0  0  0  0
  -25.7016  -33.9357   24.3793 N   0  0  0  0  0  0  0  0  0  0  0  0
  -22.4194  -29.3360   23.0977 N   0  0  0  0  0  0  0  0  0  0  0  0
  -30.5874  -14.7360   22.2842 N   0  0  0  0  0  0  0  0  0  0  0  0
  -21.7443  -27.8157   19.8882 N   0  3  0  0  0  0  0  0  0  0  0  0
  -22.1362  -14.1348   20.8307 O   0  0  0  0  0  0  0  0  0  0  0  0
  -26.4578  -32.5241   26.0699 O   0  0  0  0  0  0  0  0  0  0  0  0
  -23.7269  -31.6258   23.3077 O   0  0  0  0  0  0  0  0  0  0  0  0
  -23.2169  -27.3358   22.2372 O   0  0  0  0  0  0  0  0  0  0  0  0
  -31.9313  -15.1183   20.4663 O   0  0  0  0  0  0  0  0  0  0  0  0
  -23.3115   -6.7379   22.9478 O   0  0  0  0  0  0  0  0  0  0  0  0
  -29.0560  -25.9031   22.8902 O   0  0  0  0  0  0  0  0  0  1  0  0
  -18.3722   -6.4011   25.3755 F   0  0  0  0  0  0  0  0  0  0  0  0
  -23.0748   -5.8975   25.5708 F   0  0  0  0  0  0  0  0  0  0  0  0
  1  2  1  0  0  0  0
  1  5  2  0  0  0  0
  2  6  2  0  0  0  0
  3 12  2  0  0  0  0
  3 19  1  0  0  0  0
  4 13  1  0  0  0  0
  4 19  2  0  0  0  0
  5 21  1  0  0  0  0
  6 23  1  0  0  0  0
  7 14  2  0  0  0  0
  7 22  1  0  0  0  0
  8 10  2  0  0  0  0
  8 25  1  0  0  0  0
  9 11  1  0  0  0  0
  9 25  2  0  0  0  0
 10 26  1  0  0  0  0
 11 26  2  0  0  0  0
 12 27  1  0  0  0  0
 13 27  2  0  0  0  0
 14 28  1  0  0  0  0
 15 16  2  0  0  0  0
 15 29  1  0  0  0  0
 16 30  1  0  0  0  0
 17 24  1  0  0  0  0
 17 28  2  0  0  0  0
 18 30  2  0  0  0  0
 18 31  1  0  0  0  0
 19 32  1  0  0  0  0
 20 32  1  0  0  0  0
 20 33  2  0  0  0  0
 20 34  1  0  0  0  0
 21 23  2  0  0  0  0
 21 39  1  0  0  0  0
 22 24  2  0  0  0  0
 22 40  1  0  0  0  0
 23 52  1  0  0  0  0
 24 41  1  0  0  0  0
 25 61  1  0  0  0  0
 26 68  1  0  0  0  0
 27 82  1  0  0  0  0
 28 83  1  0  0  0  0
 29 31  2  0  0  0  0
 29 82  1  0  0  0  0
 30 84  1  0  0  0  0
 31 85  1  0  0  0  0
 32 66  2  0  0  0  0
 33 67  1  0  0  0  0
 33 71  1  0  0  0  0
 34 72  1  0  0  0  0
 34 77  2  0  0  0  0
 35 53  1  0  0  0  0
 35 73  1  0  0  0  0
 35 78  2  0  0  0  0
 36 63  1  0  0  0  0
 36 69  1  0  0  0  0
 36 79  2  0  0  0  0
 37 64  1  0  0  0  0
 37 74  1  0  0  0  0
 37 80  2  0  0  0  0
 38 70  1  0  0  0  0
 38 75  1  0  0  0  0
 38 81  2  0  0  0  0
 39 42  1  0  0  0  0
 40 53  1  0  0  0  0
 41 69  1  0  0  0  0
 42 44  1  0  0  0  0
 43 45  1  0  0  0  0
 43 48  1  0  0  0  0
 44 52  1  0  0  0  0
 45 55  1  0  0  0  0
 46 49  1  0  0  0  0
 46 54  1  0  0  0  0
 47 50  1  0  0  0  0
 47 54  1  0  0  0  0
 48 70  1  0  0  0  0
 49 68  1  0  0  0  0
 50 68  1  0  0  0  0
 51 55  1  0  0  0  0
 51 70  1  0  0  0  0
 52 73  1  0  0  0  0
 53 69  1  0  0  0  0
 54 62  1  0  0  0  0
 55 67  1  0  0  0  0
 56 64  1  0  0  0  0
 57 65  1  0  0  0  0
 58 65  1  0  0  0  0
 59 65  1  0  0  0  0
 60 76  1  0  0  0  0
 61 75  1  0  0  0  0
 62 83  1  0  0  0  0
 63 65  1  0  0  0  0
 63 74  1  0  0  0  0
 64 76  1  0  0  0  0
 66 67  1  0  0  0  0
M  CHG  1  76   1
M  ISO  4  38 100  62 101  75 100  83 101
M  END
> <Batch ID>
0011

> <Smiles>
CNC(C)C(=O)NC(C(=O)N1Cc2cc([101O:1][101CH2:1]C3CCN(c4ccc(C[100NH:0][100C:0](=O)N5CCCC(n6nc(-c7ccc(Oc8ccc(F)cc8F)cc7)c(C(N)=O)c6N)C5)cc4)CC3)ccc2CC1C(=O)NC1CCCc2ccccc21)C(C)(C)C

> <Shape>
0.302

> <Color>
0.152

> <Negative vol penalty>
0.000

$$$$

  -OEChem-04042320433D

 82 90  0     1  0  0  0  0  0999 V2000
  -17.7884  -32.9572   22.0745 C   0  0  0  0  0  0  0  0  0  0  0  0
  -19.0679  -33.0660   21.5393 C   0  0  0  0  0  0  0  0  0  0  0  0
  -23.0494  -13.0811   20.9633 C   0  0  0  0  0  0  0  0  0  0  0  0
  -23.3095  -14.7257   22.7139 C   0  0  0  0  0  0  0  0  0  0  0  0
  -17.5254  -32.0090   23.0622 C   0  0  0  0  0  0  0  0  0  0  0  0
  -20.0855  -32.2273   21.9923 C   0  0  0  0  0  0  0  0  0  0  0  0
  -25.9928  -28.8798   19.7086 C   0  0  0  0  0  0  0  0  0  0  0  0
  -30.7187  -21.5213   19.2402 C   0  0  0  0  0  0  0  0  0  0  0  0
  -22.3650  -12.2476   21.8479 C   0  0  0  0  0  0  0  0  0  0  0  0
  -22.6251  -13.8922   23.5986 C   0  0  0  0  0  0  0  0  0  0  0  0
  -27.3401  -28.7304   20.0343 C   0  0  0  0  0  0  0  0  0  0  0  0
  -31.0304  -22.8750   19.3659 C   0  0  0  0  0  0  0  0  0  0  0  0
  -19.2524  -12.0144   23.1479 C   0  0  0  0  0  0  0  0  0  0  0  0
  -18.0840  -11.4044   22.6914 C   0  0  0  0  0  0  0  0  0  0  0  0
  -26.7506  -27.0760   21.6880 C   0  0  0  0  0  0  0  0  0  0  0  0
  -28.3985  -22.0891   18.8780 C   0  0  0  0  0  0  0  0  0  0  0  0
  -19.0627   -9.2317   23.0901 C   0  0  0  0  0  0  0  0  0  0  0  0
  -23.5217  -14.3201   21.3963 C   0  0  0  0  0  0  0  0  0  0  0  0
  -23.6765  -16.1650   19.6413 C   0  0  0  0  0  0  0  0  0  0  0  0
  -18.5381  -31.1516   23.5207 C   0  0  0  0  0  0  0  0  0  0  0  0
  -25.0116  -28.1352   20.3788 C   0  0  0  0  0  0  0  0  0  0  0  0
  -19.8362  -31.2675   22.9881 C   0  0  0  0  0  0  0  0  0  0  0  0
  -25.3917  -27.2160   21.3671 C   0  0  0  0  0  0  0  0  0  0  0  0
  -29.4028  -21.1283   18.9962 C   0  0  0  0  0  0  0  0  0  0  0  0
  -22.1529  -12.6532   23.1656 C   0  0  0  0  0  0  0  0  0  0  0  0
  -27.7190  -27.8305   21.0261 C   0  0  0  0  0  0  0  0  0  0  0  0
  -20.3259  -11.2331   23.5754 C   0  0  0  0  0  0  0  0  0  0  0  0
  -30.0261  -23.8358   19.2478 C   0  0  0  0  0  0  0  0  0  0  0  0
  -17.9891  -10.0130   22.6625 C   0  0  0  0  0  0  0  0  0  0  0  0
  -28.7101  -23.4429   19.0038 C   0  0  0  0  0  0  0  0  0  0  0  0
  -20.2311   -9.8418   23.5465 C   0  0  0  0  0  0  0  0  0  0  0  0
  -24.2292  -15.1813   20.4831 C   0  0  0  0  0  0  0  0  0  0  0  0
  -24.7565  -16.6982   18.9811 C   0  0  0  0  0  0  0  0  0  0  0  0
  -22.3091  -16.5615   19.4714 C   0  0  0  0  0  0  0  0  0  0  0  0
  -22.5237  -28.8496   22.2236 C   0  0  0  0  0  0  0  0  0  0  0  0
  -21.9611  -25.6608   22.0310 C   0  0  0  0  0  0  0  0  0  0  0  0
  -23.2027  -22.5268   21.4987 C   0  0  0  0  0  0  0  0  0  0  0  0
  -29.9627  -18.6724   18.9586 C   0  0  0  0  0  0  0  0  0  0  0  0
  -18.2175  -30.1742   24.6236 C   0  0  0  0  0  0  0  0  0  0  0  0
  -23.5648  -28.2885   19.9972 C   0  0  0  0  0  0  0  0  0  0  0  0
  -24.3790  -26.3779   22.1023 C   0  0  0  0  0  0  0  0  0  0  0  0
  -19.2605  -29.0708   24.7819 C   0  0  0  0  0  0  0  0  0  0  0  0
  -29.5667  -15.1408   18.7393 C   0  0  0  0  0  0  0  0  0  0  0  0
  -20.6673  -29.6603   24.7690 C   0  0  0  0  0  0  0  0  0  0  0  0
  -28.0973  -14.9174   19.1042 C   0  0  0  0  0  0  0  0  0  0  0  0
  -30.1886  -16.2712   19.5572 C   0  0  0  0  0  0  0  0  0  0  0  0
  -27.9828  -17.3179   19.8864 C   0  0  0  0  0  0  0  0  0  0  0  0
  -20.9606  -30.3590   23.4358 C   0  0  1  0  0  0  0  0  0  0  0  0
  -22.6063  -27.8538   21.1015 C   0  0  1  0  0  0  0  0  0  0  0  0
  -27.2952  -16.2321   19.0426 C   0  0  2  0  0  0  0  0  0  0  0  0
  -22.5085  -20.1158   21.4447 C   0  0  0  0  0  0  0  0  0  0  0  0
  -21.8853  -25.6167   25.0810 C   0  0  0  0  0  0  0  0  0  0  0  0
  -22.1454  -23.1286   24.9821 C   0  0  0  0  0  0  0  0  0  0  0  0
  -20.1375  -24.2120   23.9736 C   0  0  0  0  0  0  0  0  0  0  0  0
  -23.9756  -22.2477   18.6556 C   0  0  0  0  0  0  0  0  0  0  0  0
  -31.2263  -27.0652   20.5521 C   0  0  0  0  0  0  0  0  0  0  0  0
  -29.9844  -27.9077   20.3065 C   0  0  0  0  0  0  0  0  0  1  0  0
  -30.9048  -25.5799   20.6049 C   0  0  0  0  0  0  0  0  0  0  0  0
  -22.3801  -24.4510   22.8310 C   0  0  1  0  0  0  0  0  0  0  0  0
  -22.7121  -21.3832   20.6292 C   0  0  2  0  0  0  0  0  0  0  0  0
  -21.6562  -24.3691   24.2046 C   0  0  0  0  0  0  0  0  0  0  0  0
  -25.5571  -15.0925   20.3698 N   0  0  0  0  0  0  0  0  0  0  0  0
  -25.8478  -16.0273   19.4491 N   0  0  0  0  0  0  0  0  0  0  0  0
  -22.9764  -26.5685   21.6976 N   0  0  0  0  0  0  0  0  0  0  0  0
  -29.3772  -17.4856   19.4479 N   0  0  0  0  0  0  0  0  0  0  0  0
  -24.8695  -17.6707   18.0517 N   0  0  0  0  0  0  0  0  0  0  0  0
  -21.3257  -15.9102   20.2283 N   0  0  0  0  0  0  0  0  0  0  0  0
  -29.0861  -19.7531   18.8684 N   0  0  0  0  0  0  0  0  0  0  0  0
  -21.2630  -29.3839   22.4100 N   0  0  0  0  0  0  0  0  0  0  0  0
  -22.1587  -23.2950   21.9691 N   0  0  0  0  0  0  0  0  0  0  0  0
  -23.6976  -21.0940   19.5493 N   0  3  0  0  0  0  0  0  0  0  0  0
  -21.9678  -17.4552   18.6600 O   0  0  0  0  0  0  0  0  0  0  0  0
  -23.5289  -29.1126   22.8733 O   0  0  0  0  0  0  0  0  0  0  0  0
  -20.7780  -25.7917   21.7075 O   0  0  0  0  0  0  0  0  0  0  0  0
  -24.3927  -22.7171   21.7399 O   0  0  0  0  0  0  0  0  0  0  0  0
  -31.1473  -18.7188   18.6172 O   0  0  0  0  0  0  0  0  0  0  0  0
  -21.4849  -11.8402   24.0290 O   0  0  0  0  0  0  0  0  0  0  0  0
  -29.0334  -27.6831   21.3464 O   0  0  0  0  0  0  0  0  0  1  0  0
  -30.3344  -25.1657   19.3709 O   0  0  0  0  0  0  0  0  0  0  0  0
  -16.8665   -9.4274   22.2256 F   0  0  0  0  0  0  0  0  0  0  0  0
  -27.7413  -24.3614   18.8881 F   0  0  0  0  0  0  0  0  0  0  0  0
  -21.2587   -9.0859   23.9571 F   0  0  0  0  0  0  0  0  0  0  0  0
  1  2  1  0  0  0  0
  1  5  2  0  0  0  0
  2  6  2  0  0  0  0
  3  9  2  0  0  0  0
  3 18  1  0  0  0  0
  4 10  1  0  0  0  0
  4 18  2  0  0  0  0
  5 20  1  0  0  0  0
  6 22  1  0  0  0  0
  7 11  2  0  0  0  0
  7 21  1  0  0  0  0
  8 12  2  0  0  0  0
  8 24  1  0  0  0  0
  9 25  1  0  0  0  0
 10 25  2  0  0  0  0
 11 26  1  0  0  0  0
 12 28  1  0  0  0  0
 13 14  2  0  0  0  0
 13 27  1  0  0  0  0
 14 29  1  0  0  0  0
 15 23  1  0  0  0  0
 15 26  2  0  0  0  0
 16 24  2  0  0  0  0
 16 30  1  0  0  0  0
 17 29  2  0  0  0  0
 17 31  1  0  0  0  0
 18 32  1  0  0  0  0
 19 32  1  0  0  0  0
 19 33  2  0  0  0  0
 19 34  1  0  0  0  0
 20 22  2  0  0  0  0
 20 39  1  0  0  0  0
 21 23  2  0  0  0  0
 21 40  1  0  0  0  0
 22 48  1  0  0  0  0
 23 41  1  0  0  0  0
 24 68  1  0  0  0  0
 25 77  1  0  0  0  0
 26 78  1  0  0  0  0
 27 31  2  0  0  0  0
 27 77  1  0  0  0  0
 28 30  2  0  0  0  0
 28 79  1  0  0  0  0
 29 80  1  0  0  0  0
 30 81  1  0  0  0  0
 31 82  1  0  0  0  0
 32 62  2  0  0  0  0
 33 63  1  0  0  0  0
 33 66  1  0  0  0  0
 34 67  1  0  0  0  0
 34 72  2  0  0  0  0
 35 49  1  0  0  0  0
 35 69  1  0  0  0  0
 35 73  2  0  0  0  0
 36 59  1  0  0  0  0
 36 64  1  0  0  0  0
 36 74  2  0  0  0  0
 37 60  1  0  0  0  0
 37 70  1  0  0  0  0
 37 75  2  0  0  0  0
 38 65  1  0  0  0  0
 38 68  1  0  0  0  0
 38 76  2  0  0  0  0
 39 42  1  0  0  0  0
 40 49  1  0  0  0  0
 41 64  1  0  0  0  0
 42 44  1  0  0  0  0
 43 45  1  0  0  0  0
 43 46  1  0  0  0  0
 44 48  1  0  0  0  0
 45 50  1  0  0  0  0
 46 65  1  0  0  0  0
 47 50  1  0  0  0  0
 47 65  1  0  0  0  0
 48 69  1  0  0  0  0
 49 64  1  0  0  0  0
 50 63  1  0  0  0  0
 51 60  1  0  0  0  0
 52 61  1  0  0  0  0
 53 61  1  0  0  0  0
 54 61  1  0  0  0  0
 55 71  1  0  0  0  0
 56 57  1  0  0  0  0
 56 58  1  0  0  0  0
 57 78  1  0  0  0  0
 58 79  1  0  0  0  0
 59 61  1  0  0  0  0
 59 70  1  0  0  0  0
 60 71  1  0  0  0  0
 62 63  1  0  0  0  0
M  CHG  1  71   1
M  ISO  4  38 100  57 101  68 100  78 101
M  END
> <Batch ID>
0011

> <Smiles>
CNC(C)C(=O)NC(C(=O)N1Cc2cc([101O:1][101CH2:1]CCOc3ccc([100NH:0][100C:0](=O)N4CCCC(n5nc(-c6ccc(Oc7ccc(F)cc7F)cc6)c(C(N)=O)c5N)C4)cc3F)ccc2CC1C(=O)NC1CCCc2ccccc21)C(C)(C)C

> <Shape>
0.201

> <Color>
0.083

> <Negative vol penalty>
0.000

$$$$

  -OEChem-04042320433D

 82 90  0     1  0  0  0  0  0999 V2000
  -29.5257  -24.7786   17.0146 C   0  0  0  0  0  0  0  0  0  0  0  0
  -28.3177  -24.7885   17.7045 C   0  0  0  0  0  0  0  0  0  0  0  0
  -25.9335  -12.4030   20.0220 C   0  0  0  0  0  0  0  0  0  0  0  0
  -23.8144  -13.1254   20.9300 C   0  0  0  0  0  0  0  0  0  0  0  0
  -30.6089  -25.5118   17.4973 C   0  0  0  0  0  0  0  0  0  0  0  0
  -28.1925  -25.5308   18.8784 C   0  0  0  0  0  0  0  0  0  0  0  0
  -23.8798  -28.1793   19.0517 C   0  0  0  0  0  0  0  0  0  0  0  0
  -24.0423  -22.8068   22.0450 C   0  0  0  0  0  0  0  0  0  0  0  0
  -23.0290  -23.7653   22.0532 C   0  0  0  0  0  0  0  0  0  0  0  0
  -25.7764  -11.1632   20.6416 C   0  0  0  0  0  0  0  0  0  0  0  0
  -23.6572  -11.8856   21.5496 C   0  0  0  0  0  0  0  0  0  0  0  0
  -22.7171  -27.4822   19.3771 C   0  0  0  0  0  0  0  0  0  0  0  0
  -24.8153  -10.3161   24.3112 C   0  0  0  0  0  0  0  0  0  0  0  0
  -24.3856  -10.3046   25.6382 C   0  0  0  0  0  0  0  0  0  0  0  0
  -22.8731  -28.2923   21.6440 C   0  0  0  0  0  0  0  0  0  0  0  0
  -22.4286  -21.0961   22.5988 C   0  0  0  0  0  0  0  0  0  0  0  0
  -22.4379   -9.0272   24.9965 C   0  0  0  0  0  0  0  0  0  0  0  0
  -24.9525  -13.3841   20.1662 C   0  0  0  0  0  0  0  0  0  0  0  0
  -24.6864  -15.0315   18.2368 C   0  0  0  0  0  0  0  0  0  0  0  0
  -30.4941  -26.2711   18.6724 C   0  0  0  0  0  0  0  0  0  0  0  0
  -24.5550  -28.9307   20.0243 C   0  0  0  0  0  0  0  0  0  0  0  0
  -29.2757  -26.2737   19.3780 C   0  0  0  0  0  0  0  0  0  0  0  0
  -24.0427  -29.0001   21.3277 C   0  0  0  0  0  0  0  0  0  0  0  0
  -23.7421  -21.4721   22.3177 C   0  0  0  0  0  0  0  0  0  0  0  0
  -21.7155  -23.3893   22.3343 C   0  0  0  0  0  0  0  0  0  0  0  0
  -24.6383  -10.9045   21.4054 C   0  0  0  0  0  0  0  0  0  0  0  0
  -22.2151  -27.5362   20.6741 C   0  0  0  0  0  0  0  0  0  0  0  0
  -24.0562   -9.6832   23.3268 C   0  0  0  0  0  0  0  0  0  0  0  0
  -23.1970   -9.6602   25.9808 C   0  0  0  0  0  0  0  0  0  0  0  0
  -22.8676   -9.0388   23.6695 C   0  0  0  0  0  0  0  0  0  0  0  0
  -21.4153  -22.0547   22.6071 C   0  0  0  0  0  0  0  0  0  0  0  0
  -25.1145  -14.6651   19.5269 C   0  0  0  0  0  0  0  0  0  0  0  0
  -25.0758  -16.3421   18.1051 C   0  0  0  0  0  0  0  0  0  0  0  0
  -23.9982  -14.2566   17.2461 C   0  0  0  0  0  0  0  0  0  0  0  0
  -27.4479  -28.8184   21.3368 C   0  0  0  0  0  0  0  0  0  0  0  0
  -26.4867  -31.5750   22.7508 C   0  0  0  0  0  0  0  0  0  0  0  0
  -23.9060  -33.5462   23.8000 C   0  0  0  0  0  0  0  0  0  0  0  0
  -26.1266  -20.7045   22.0510 C   0  0  0  0  0  0  0  0  0  0  0  0
  -31.7068  -27.0098   19.1808 C   0  0  0  0  0  0  0  0  0  0  0  0
  -25.7932  -29.6986   19.6506 C   0  0  0  0  0  0  0  0  0  0  0  0
  -24.7188  -29.8088   22.4035 C   0  0  0  0  0  0  0  0  0  0  0  0
  -31.3791  -28.0696   20.2294 C   0  0  0  0  0  0  0  0  0  0  0  0
  -28.4035  -19.4310   19.6281 C   0  0  0  0  0  0  0  0  0  0  0  0
  -30.4241  -27.5066   21.2772 C   0  0  0  0  0  0  0  0  0  0  0  0
  -27.7764  -18.1005   19.2053 C   0  0  0  0  0  0  0  0  0  0  0  0
  -28.2014  -19.7054   21.1172 C   0  0  0  0  0  0  0  0  0  0  0  0
  -26.1831  -18.2933   21.1576 C   0  0  0  0  0  0  0  0  0  0  0  0
  -29.0933  -27.0864   20.6415 C   0  0  1  0  0  0  0  0  0  0  0  0
  -26.6835  -30.0161   20.8480 C   0  0  1  0  0  0  0  0  0  0  0  0
  -26.3046  -18.0039   19.6525 C   0  0  2  0  0  0  0  0  0  0  0  0
  -23.4335  -35.7234   24.9550 C   0  0  0  0  0  0  0  0  0  0  0  0
  -27.2220  -30.3110   25.4288 C   0  0  0  0  0  0  0  0  0  0  0  0
  -25.8765  -32.0935   26.5604 C   0  0  0  0  0  0  0  0  0  0  0  0
  -27.8707  -32.7151   25.1968 C   0  0  0  0  0  0  0  0  0  0  0  0
  -20.4031  -25.0966   23.5683 C   0  0  0  0  0  0  0  0  0  0  0  0
  -22.4694  -34.6174   21.4446 C   0  0  0  0  0  0  0  0  0  0  0  0
  -19.9946  -24.7134   21.1322 C   0  0  0  0  0  0  0  0  0  0  0  0
  -20.8159  -25.6564   20.2689 C   0  0  0  0  0  0  0  0  0  1  0  0
  -25.7700  -31.9258   24.0323 C   0  0  1  0  0  0  0  0  0  0  0  0
  -23.6314  -35.0280   23.6171 C   0  0  2  0  0  0  0  0  0  0  0  0
  -26.6729  -31.7445   25.2850 C   0  0  0  0  0  0  0  0  0  0  0  0
  -25.7289  -15.6623   20.1689 N   0  0  0  0  0  0  0  0  0  0  0  0
  -25.6898  -16.6682   19.2785 N   0  0  0  0  0  0  0  0  0  0  0  0
  -25.9299  -30.5370   21.9903 N   0  0  0  0  0  0  0  0  0  0  0  0
  -26.7831  -19.6006   21.4669 N   0  0  0  0  0  0  0  0  0  0  0  0
  -24.9495  -17.2358   17.1013 N   0  0  0  0  0  0  0  0  0  0  0  0
  -23.6737  -12.9263   17.5451 N   0  0  0  0  0  0  0  0  0  0  0  0
  -24.7718  -20.4989   22.3098 N   0  0  0  0  0  0  0  0  0  0  0  0
  -28.2680  -28.2467   20.3828 N   0  0  0  0  0  0  0  0  0  0  0  0
  -25.2578  -33.2804   23.8559 N   0  0  0  0  0  0  0  0  0  0  0  0
  -20.7196  -24.3750   22.3354 N   0  0  3  0  0  0  0  0  0  0  0  0
  -22.4039  -35.2299   22.7964 N   0  3  0  0  0  0  0  0  0  0  0  0
  -23.6950  -14.7248   16.1225 O   0  0  0  0  0  0  0  0  0  0  0  0
  -27.3052  -28.4417   22.4941 O   0  0  0  0  0  0  0  0  0  0  0  0
  -27.4991  -32.2038   22.4325 O   0  0  0  0  0  0  0  0  0  0  0  0
  -23.0107  -32.7088   23.8884 O   0  0  0  0  0  0  0  0  0  0  0  0
  -26.7159  -21.7643   22.2782 O   0  0  0  0  0  0  0  0  0  0  0  0
  -24.4846   -9.6948   22.0100 O   0  0  0  0  0  0  0  0  0  0  0  0
  -21.0808  -26.8562   20.9946 O   0  0  0  0  0  0  0  0  0  1  0  0
  -22.7853   -9.6479   27.2554 F   0  0  0  0  0  0  0  0  0  0  0  0
  -22.1347   -8.4280   22.7284 F   0  0  0  0  0  0  0  0  0  0  0  0
  -19.8022  -21.5465   22.9590 Cl  0  0  0  0  0  0  0  0  0  0  0  0
  1  2  1  0  0  0  0
  1  5  2  0  0  0  0
  2  6  2  0  0  0  0
  3 10  2  0  0  0  0
  3 18  1  0  0  0  0
  4 11  1  0  0  0  0
  4 18  2  0  0  0  0
  5 20  1  0  0  0  0
  6 22  1  0  0  0  0
  7 12  2  0  0  0  0
  7 21  1  0  0  0  0
  8  9  2  0  0  0  0
  8 24  1  0  0  0  0
  9 25  1  0  0  0  0
 10 26  1  0  0  0  0
 11 26  2  0  0  0  0
 12 27  1  0  0  0  0
 13 14  2  0  0  0  0
 13 28  1  0  0  0  0
 14 29  1  0  0  0  0
 15 23  1  0  0  0  0
 15 27  2  0  0  0  0
 16 24  2  0  0  0  0
 16 31  1  0  0  0  0
 17 29  2  0  0  0  0
 17 30  1  0  0  0  0
 18 32  1  0  0  0  0
 19 32  1  0  0  0  0
 19 33  2  0  0  0  0
 19 34  1  0  0  0  0
 20 22  2  0  0  0  0
 20 39  1  0  0  0  0
 21 23  2  0  0  0  0
 21 40  1  0  0  0  0
 22 48  1  0  0  0  0
 23 41  1  0  0  0  0
 24 68  1  0  0  0  0
 25 31  2  0  0  0  0
 25 71  1  0  0  0  0
 26 78  1  0  0  0  0
 27 79  1  0  0  0  0
 28 30  2  0  0  0  0
 28 78  1  0  0  0  0
 29 80  1  0  0  0  0
 30 81  1  0  0  0  0
 31 82  1  0  0  0  0
 32 62  2  0  0  0  0
 33 63  1  0  0  0  0
 33 66  1  0  0  0  0
 34 67  1  0  0  0  0
 34 73  2  0  0  0  0
 35 49  1  0  0  0  0
 35 69  1  0  0  0  0
 35 74  2  0  0  0  0
 36 59  1  0  0  0  0
 36 64  1  0  0  0  0
 36 75  2  0  0  0  0
 37 60  1  0  0  0  0
 37 70  1  0  0  0  0
 37 76  2  0  0  0  0
 38 65  1  0  0  0  0
 38 68  1  0  0  0  0
 38 77  2  0  0  0  0
 39 42  1  0  0  0  0
 40 49  1  0  0  0  0
 41 64  1  0  0  0  0
 42 44  1  0  0  0  0
 43 45  1  0  0  0  0
 43 46  1  0  0  0  0
 44 48  1  0  0  0  0
 45 50  1  0  0  0  0
 46 65  1  0  0  0  0
 47 50  1  0  0  0  0
 47 65  1  0  0  0  0
 48 69  1  0  0  0  0
 49 64  1  0  0  0  0
 50 63  1  0  0  0  0
 51 60  1  0  0  0  0
 52 61  1  0  0  0  0
 53 61  1  0  0  0  0
 54 61  1  0  0  0  0
 55 71  1  0  0  0  0
 56 72  1  0  0  0  0
 57 58  1  0  0  0  0
 57 71  1  0  0  0  0
 58 79  1  0  0  0  0
 59 61  1  0  0  0  0
 59 70  1  0  0  0  0
 60 72  1  0  0  0  0
 62 63  1  0  0  0  0
M  CHG  1  72   1
M  ISO  4  38 100  58 101  68 100  79 101
M  END
> <Batch ID>
0011

> <Smiles>
CNC(C)C(=O)NC(C(=O)N1Cc2cc([101O:1][101CH2:1]CN(C)c3ccc([100NH:0][100C:0](=O)N4CCCC(n5nc(-c6ccc(Oc7ccc(F)cc7F)cc6)c(C(N)=O)c5N)C4)cc3Cl)ccc2CC1C(=O)NC1CCCc2ccccc21)C(C)(C)C

> <Shape>
0.255

> <Color>
0.076

> <Negative vol penalty>
0.000

$$$$

  -OEChem-04042320433D

 80 88  0     1  0  0  0  0  0999 V2000
  -23.6037  -32.7327   26.6389 C   0  0  0  0  0  0  0  0  0  0  0  0
  -24.8776  -32.2842   26.3049 C   0  0  0  0  0  0  0  0  0  0  0  0
  -24.0384   -9.7255   21.7182 C   0  0  0  0  0  0  0  0  0  0  0  0
  -24.6425  -10.9968   23.6819 C   0  0  0  0  0  0  0  0  0  0  0  0
  -22.4822  -32.0179   26.2204 C   0  0  0  0  0  0  0  0  0  0  0  0
  -25.0306  -31.1199   25.5529 C   0  0  0  0  0  0  0  0  0  0  0  0
  -29.3094  -28.1866   20.6129 C   0  0  0  0  0  0  0  0  0  0  0  0
  -28.4287  -19.3882   20.5060 C   0  0  0  0  0  0  0  0  0  0  0  0
  -30.7877  -18.9562   20.2141 C   0  0  0  0  0  0  0  0  0  0  0  0
  -23.6100   -8.6752   22.5300 C   0  0  0  0  0  0  0  0  0  0  0  0
  -24.2141   -9.9465   24.4937 C   0  0  0  0  0  0  0  0  0  0  0  0
  -30.0416  -27.0241   20.3755 C   0  0  0  0  0  0  0  0  0  0  0  0
  -28.7132  -20.7096   20.8503 C   0  0  0  0  0  0  0  0  0  0  0  0
  -31.0723  -20.2777   20.5583 C   0  0  0  0  0  0  0  0  0  0  0  0
  -20.8982   -7.9212   24.4037 C   0  0  0  0  0  0  0  0  0  0  0  0
  -19.6779   -7.3201   24.0957 C   0  0  0  0  0  0  0  0  0  0  0  0
  -28.0298  -25.9145   19.6402 C   0  0  0  0  0  0  0  0  0  0  0  0
  -20.7990   -5.2023   23.7872 C   0  0  0  0  0  0  0  0  0  0  0  0
  -24.5547  -10.8863   22.2942 C   0  0  0  0  0  0  0  0  0  0  0  0
  -24.2291  -13.0552   20.9913 C   0  0  0  0  0  0  0  0  0  0  0  0
  -22.6213  -30.8496   25.4547 C   0  0  0  0  0  0  0  0  0  0  0  0
  -27.9277  -28.2185   20.3757 C   0  0  0  0  0  0  0  0  0  0  0  0
  -23.9099  -30.3881   25.1249 C   0  0  0  0  0  0  0  0  0  0  0  0
  -27.2828  -27.0794   19.8730 C   0  0  0  0  0  0  0  0  0  0  0  0
  -29.4659  -18.5115   20.1880 C   0  0  0  0  0  0  0  0  0  0  0  0
  -23.6979   -8.7857   23.9177 C   0  0  0  0  0  0  0  0  0  0  0  0
  -30.0350  -21.1544   20.8764 C   0  0  0  0  0  0  0  0  0  0  0  0
  -29.4013  -25.8869   19.8918 C   0  0  0  0  0  0  0  0  0  0  0  0
  -22.0690   -7.1629   24.4033 C   0  0  0  0  0  0  0  0  0  0  0  0
  -19.6282   -5.9606   23.7875 C   0  0  0  0  0  0  0  0  0  0  0  0
  -22.0194   -5.8035   24.0952 C   0  0  0  0  0  0  0  0  0  0  0  0
  -24.9979  -11.9714   21.4562 C   0  0  0  0  0  0  0  0  0  0  0  0
  -25.1050  -13.8005   20.2404 C   0  0  0  0  0  0  0  0  0  0  0  0
  -22.8468  -13.3610   21.2181 C   0  0  0  0  0  0  0  0  0  0  0  0
  -25.3524  -28.6868   22.1791 C   0  0  0  0  0  0  0  0  0  0  0  0
  -23.8160  -28.5983   19.3236 C   0  0  0  0  0  0  0  0  0  0  0  0
  -23.8009  -27.5601   16.0727 C   0  0  0  0  0  0  0  0  0  0  0  0
  -30.0881  -16.1705   19.4959 C   0  0  0  0  0  0  0  0  0  0  0  0
  -21.3810  -30.0848   25.0655 C   0  0  0  0  0  0  0  0  0  0  0  0
  -27.1569  -29.4884   20.6116 C   0  0  0  0  0  0  0  0  0  0  0  0
  -25.8050  -27.0680   19.5827 C   0  0  0  0  0  0  0  0  0  0  0  0
  -21.6176  -29.0659   23.9537 C   0  0  0  0  0  0  0  0  0  0  0  0
  -29.7771  -12.7363   18.6092 C   0  0  0  0  0  0  0  0  0  0  0  0
  -22.8728  -28.2471   24.2383 C   0  0  0  0  0  0  0  0  0  0  0  0
  -28.4427  -12.3203   19.2326 C   0  0  0  0  0  0  0  0  0  0  0  0
  -30.5327  -13.7256   19.4945 C   0  0  0  0  0  0  0  0  0  0  0  0
  -28.4296  -14.4937   20.5222 C   0  0  0  0  0  0  0  0  0  0  0  0
  -24.1161  -29.1431   24.2896 C   0  0  1  0  0  0  0  0  0  0  0  0
  -25.6647  -29.2513   20.8221 C   0  0  1  0  0  0  0  0  0  0  0  0
  -27.6025  -13.5476   19.6365 C   0  0  2  0  0  0  0  0  0  0  0  0
  -22.3923  -27.6068   13.9963 C   0  0  0  0  0  0  0  0  0  0  0  0
  -22.0062  -26.4448   20.5056 C   0  0  0  0  0  0  0  0  0  0  0  0
  -21.2844  -25.8720   18.1778 C   0  0  0  0  0  0  0  0  0  0  0  0
  -20.8257  -28.1437   19.1006 C   0  0  0  0  0  0  0  0  0  0  0  0
  -25.8720  -29.0381   14.5612 C   0  0  0  0  0  0  0  0  0  0  0  0
  -31.4746  -23.0311   20.6290 C   0  0  0  0  0  0  0  0  0  0  0  0
  -31.2605  -24.5247   20.4780 C   0  0  0  0  0  0  0  0  0  1  0  0
  -23.1936  -27.5139   18.4776 C   0  0  1  0  0  0  0  0  0  0  0  0
  -23.4968  -28.2975   14.7811 C   0  0  2  0  0  0  0  0  0  0  0  0
  -21.8550  -26.9929   19.0726 C   0  0  0  0  0  0  0  0  0  0  0  0
  -26.2647  -12.0199   21.0356 N   0  0  0  0  0  0  0  0  0  0  0  0
  -26.2986  -13.1431   20.2986 N   0  0  0  0  0  0  0  0  0  0  0  0
  -25.0938  -28.3320   19.8355 N   0  0  0  0  0  0  0  0  0  0  0  0
  -29.6758  -14.8640   19.8332 N   0  0  0  0  0  0  0  0  0  0  0  0
  -24.9629  -14.9473   19.5425 N   0  0  0  0  0  0  0  0  0  0  0  0
  -22.0914  -12.4891   22.0140 N   0  0  0  0  0  0  0  0  0  0  0  0
  -29.1770  -17.1691   19.8384 N   0  0  0  0  0  0  0  0  0  0  0  0
  -24.5408  -29.4954   22.9517 N   0  0  0  0  0  0  0  0  0  0  0  0
  -23.0753  -28.0638   17.1314 N   0  0  0  0  0  0  0  0  0  0  0  0
  -24.7133  -28.3622   13.9228 N   0  3  0  0  0  0  0  0  0  0  0  0
  -22.2936  -14.3687   20.7159 O   0  0  0  0  0  0  0  0  0  0  0  0
  -25.8125  -27.5975   22.5008 O   0  0  0  0  0  0  0  0  0  0  0  0
  -23.1943  -29.6461   19.5170 O   0  0  0  0  0  0  0  0  0  0  0  0
  -24.5992  -26.6277   16.1352 O   0  0  0  0  0  0  0  0  0  0  0  0
  -31.1575  -16.3850   18.9194 O   0  0  0  0  0  0  0  0  0  0  0  0
  -23.2797   -7.7611   24.7101 O   0  0  0  0  0  0  0  0  0  0  0  0
  -30.3146  -22.4523   21.2145 O   0  0  0  0  0  0  0  0  0  0  0  0
  -30.1134  -24.7508   19.6598 O   0  0  0  0  0  0  0  0  0  1  0  0
  -18.4560   -5.3831   23.4933 F   0  0  0  0  0  0  0  0  0  0  0  0
  -23.1406   -5.0696   24.0944 F   0  0  0  0  0  0  0  0  0  0  0  0
  1  2  1  0  0  0  0
  1  5  2  0  0  0  0
  2  6  2  0  0  0  0
  3 10  2  0  0  0  0
  3 19  1  0  0  0  0
  4 11  1  0  0  0  0
  4 19  2  0  0  0  0
  5 21  1  0  0  0  0
  6 23  1  0  0  0  0
  7 12  2  0  0  0  0
  7 22  1  0  0  0  0
  8 13  2  0  0  0  0
  8 25  1  0  0  0  0
  9 14  1  0  0  0  0
  9 25  2  0  0  0  0
 10 26  1  0  0  0  0
 11 26  2  0  0  0  0
 12 28  1  0  0  0  0
 13 27  1  0  0  0  0
 14 27  2  0  0  0  0
 15 16  2  0  0  0  0
 15 29  1  0  0  0  0
 16 30  1  0  0  0  0
 17 24  1  0  0  0  0
 17 28  2  0  0  0  0
 18 30  2  0  0  0  0
 18 31  1  0  0  0  0
 19 32  1  0  0  0  0
 20 32  1  0  0  0  0
 20 33  2  0  0  0  0
 20 34  1  0  0  0  0
 21 23  2  0  0  0  0
 21 39  1  0  0  0  0
 22 24  2  0  0  0  0
 22 40  1  0  0  0  0
 23 48  1  0  0  0  0
 24 41  1  0  0  0  0
 25 67  1  0  0  0  0
 26 76  1  0  0  0  0
 27 77  1  0  0  0  0
 28 78  1  0  0  0  0
 29 31  2  0  0  0  0
 29 76  1  0  0  0  0
 30 79  1  0  0  0  0
 31 80  1  0  0  0  0
 32 61  2  0  0  0  0
 33 62  1  0  0  0  0
 33 65  1  0  0  0  0
 34 66  1  0  0  0  0
 34 71  2  0  0  0  0
 35 49  1  0  0  0  0
 35 68  1  0  0  0  0
 35 72  2  0  0  0  0
 36 58  1  0  0  0  0
 36 63  1  0  0  0  0
 36 73  2  0  0  0  0
 37 59  1  0  0  0  0
 37 69  1  0  0  0  0
 37 74  2  0  0  0  0
 38 64  1  0  0  0  0
 38 67  1  0  0  0  0
 38 75  2  0  0  0  0
 39 42  1  0  0  0  0
 40 49  1  0  0  0  0
 41 63  1  0  0  0  0
 42 44  1  0  0  0  0
 43 45  1  0  0  0  0
 43 46  1  0  0  0  0
 44 48  1  0  0  0  0
 45 50  1  0  0  0  0
 46 64  1  0  0  0  0
 47 50  1  0  0  0  0
 47 64  1  0  0  0  0
 48 68  1  0  0  0  0
 49 63  1  0  0  0  0
 50 62  1  0  0  0  0
 51 59  1  0  0  0  0
 52 60  1  0  0  0  0
 53 60  1  0  0  0  0
 54 60  1  0  0  0  0
 55 70  1  0  0  0  0
 56 57  1  0  0  0  0
 56 77  1  0  0  0  0
 57 78  1  0  0  0  0
 58 60  1  0  0  0  0
 58 69  1  0  0  0  0
 59 70  1  0  0  0  0
 61 62  1  0  0  0  0
M  CHG  1  70   1
M  ISO  4  38 100  57 101  67 100  78 101
M  END
> <Batch ID>
0011

> <Smiles>
CNC(C)C(=O)NC(C(=O)N1Cc2cc([101O:1][101CH2:1]COc3ccc([100NH:0][100C:0](=O)N4CCCC(n5nc(-c6ccc(Oc7ccc(F)cc7F)cc6)c(C(N)=O)c5N)C4)cc3)ccc2CC1C(=O)NC1CCCc2ccccc21)C(C)(C)C

> <Shape>
0.290

> <Color>
0.124

> <Negative vol penalty>
0.000

$$$$

  -OEChem-04042320433D

 85 94  0     1  0  0  0  0  0999 V2000
  -16.6367  -30.3162   23.1380 C   0  0  0  0  0  0  0  0  0  0  0  0
  -17.6575  -30.6485   22.2531 C   0  0  0  0  0  0  0  0  0  0  0  0
  -26.8477  -12.8161   20.0542 C   0  0  0  0  0  0  0  0  0  0  0  0
  -26.8828  -13.7834   22.2678 C   0  0  0  0  0  0  0  0  0  0  0  0
  -16.9337  -29.6418   24.3215 C   0  0  0  0  0  0  0  0  0  0  0  0
  -18.9761  -30.3074   22.5518 C   0  0  0  0  0  0  0  0  0  0  0  0
  -25.0984  -28.3714   19.3759 C   0  0  0  0  0  0  0  0  0  0  0  0
  -32.2245  -23.8827   18.6767 C   0  0  0  0  0  0  0  0  0  0  0  0
  -32.3828  -22.5885   19.1721 C   0  0  0  0  0  0  0  0  0  0  0  0
  -26.3454  -11.6267   20.5819 C   0  0  0  0  0  0  0  0  0  0  0  0
  -26.3804  -12.5940   22.7955 C   0  0  0  0  0  0  0  0  0  0  0  0
  -26.4465  -28.7237   19.3306 C   0  0  0  0  0  0  0  0  0  0  0  0
  -23.3633  -10.4341   21.6393 C   0  0  0  0  0  0  0  0  0  0  0  0
  -22.3012   -9.8258   20.9705 C   0  0  0  0  0  0  0  0  0  0  0  0
  -26.8314  -27.4892   21.3670 C   0  0  0  0  0  0  0  0  0  0  0  0
  -30.1482  -24.0947   19.8937 C   0  0  0  0  0  0  0  0  0  0  0  0
  -23.6482   -7.8495   20.6289 C   0  0  0  0  0  0  0  0  0  0  0  0
  -27.1165  -13.8945   20.8971 C   0  0  0  0  0  0  0  0  0  0  0  0
  -26.8960  -16.2249   19.8832 C   0  0  0  0  0  0  0  0  0  0  0  0
  -18.2555  -29.2838   24.6304 C   0  0  0  0  0  0  0  0  0  0  0  0
  -24.6036  -27.5830   20.4248 C   0  0  0  0  0  0  0  0  0  0  0  0
  -19.2913  -29.6288   23.7413 C   0  0  0  0  0  0  0  0  0  0  0  0
  -25.4771  -27.1261   21.4220 C   0  0  0  0  0  0  0  0  0  0  0  0
  -31.1073  -24.6359   19.0375 C   0  0  0  0  0  0  0  0  0  0  0  0
  -31.4237  -22.0473   20.0282 C   0  0  0  0  0  0  0  0  0  0  0  0
  -26.1117  -11.5156   21.9525 C   0  0  0  0  0  0  0  0  0  0  0  0
  -27.3127  -28.2851   20.3278 C   0  0  0  0  0  0  0  0  0  0  0  0
  -24.5680   -9.7502   21.8029 C   0  0  0  0  0  0  0  0  0  0  0  0
  -22.4436   -8.5335   20.4653 C   0  0  0  0  0  0  0  0  0  0  0  0
  -30.3064  -22.8004   20.3890 C   0  0  0  0  0  0  0  0  0  0  0  0
  -24.7104   -8.4578   21.2977 C   0  0  0  0  0  0  0  0  0  0  0  0
  -27.6360  -15.1232   20.3527 C   0  0  0  0  0  0  0  0  0  0  0  0
  -27.8466  -17.1280   19.4744 C   0  0  0  0  0  0  0  0  0  0  0  0
  -25.4761  -16.4150   19.8222 C   0  0  0  0  0  0  0  0  0  0  0  0
  -22.4508  -28.0046   22.7251 C   0  0  0  0  0  0  0  0  0  0  0  0
  -23.0350  -24.8679   23.3102 C   0  0  0  0  0  0  0  0  0  0  0  0
  -25.1773  -22.2235   23.0566 C   0  0  0  0  0  0  0  0  0  0  0  0
  -32.6371  -19.8527   20.2685 C   0  0  0  0  0  0  0  0  0  0  0  0
  -18.5336  -28.5972   25.9441 C   0  0  0  0  0  0  0  0  0  0  0  0
  -23.1520  -27.1894   20.4448 C   0  0  0  0  0  0  0  0  0  0  0  0
  -24.9999  -26.2608   22.5586 C   0  0  0  0  0  0  0  0  0  0  0  0
  -19.9102  -27.9407   26.0089 C   0  0  0  0  0  0  0  0  0  0  0  0
  -32.8408  -16.5955   18.8449 C   0  0  0  0  0  0  0  0  0  0  0  0
  -32.6768  -28.4673   20.3441 C   0  0  0  0  0  0  0  0  0  0  0  0
  -20.9811  -28.8937   25.4877 C   0  0  0  0  0  0  0  0  0  0  0  0
  -31.4440  -16.0128   19.0716 C   0  0  0  0  0  0  0  0  0  0  0  0
  -31.4697  -29.3337   20.0441 C   0  0  0  0  0  0  0  0  0  0  0  0
  -33.2884  -17.4679   20.0164 C   0  0  0  0  0  0  0  0  0  0  0  0
  -30.9490  -17.9448   20.6237 C   0  0  0  0  0  0  0  0  0  0  0  0
  -32.0919  -27.0757   20.4895 C   0  0  0  0  0  0  0  0  0  0  0  0
  -20.7311  -29.2541   24.0183 C   0  0  1  0  0  0  0  0  0  0  0  0
  -22.6549  -26.8103   21.8364 C   0  0  1  0  0  0  0  0  0  0  0  0
  -30.4282  -17.1114   19.4414 C   0  0  2  0  0  0  0  0  0  0  0  0
  -30.6832  -28.4831   19.0578 C   0  0  2  0  0  0  0  0  0  0  0  0
  -25.3921  -19.7974   23.6610 C   0  0  0  0  0  0  0  0  0  0  0  0
  -23.5961  -25.6419   26.2078 C   0  0  0  0  0  0  0  0  0  0  0  0
  -24.7001  -23.4160   26.5155 C   0  0  0  0  0  0  0  0  0  0  0  0
  -22.2788  -23.5346   25.9273 C   0  0  0  0  0  0  0  0  0  0  0  0
  -25.4090  -21.4174   20.2184 C   0  0  0  0  0  0  0  0  0  0  0  0
  -30.9363  -26.0277   18.5040 C   0  0  0  0  0  0  0  0  0  0  0  0
  -29.2071  -28.8303   18.9975 C   0  0  0  0  0  0  0  0  0  1  0  0
  -24.0096  -24.1051   24.1748 C   0  0  1  0  0  0  0  0  0  0  0  0
  -24.9620  -20.7934   22.5953 C   0  0  2  0  0  0  0  0  0  0  0  0
  -23.6551  -24.1923   25.6861 C   0  0  0  0  0  0  0  0  0  0  0  0
  -28.9550  -15.3074   20.2518 N   0  0  0  0  0  0  0  0  0  0  0  0
  -29.0513  -16.5353   19.7142 N   0  0  0  0  0  0  0  0  0  0  0  0
  -23.5706  -25.9080   22.5374 N   0  0  0  0  0  0  0  0  0  0  0  0
  -32.2790  -18.4884   20.3067 N   0  0  0  0  0  0  0  0  0  0  0  0
  -27.7612  -18.3633   18.9367 N   0  0  0  0  0  0  0  0  0  0  0  0
  -24.6439  -15.3862   20.2841 N   0  0  0  0  0  0  0  0  0  0  0  0
  -31.5868  -20.7320   20.5295 N   0  0  0  0  0  0  0  0  0  0  0  0
  -21.1478  -28.1705   23.1542 N   0  0  0  0  0  0  0  0  0  0  0  0
  -24.0458  -22.7455   23.6470 N   0  0  0  0  0  0  0  0  0  0  0  0
  -30.8730  -27.0662   19.5822 N   0  3  1  0  0  0  0  0  0  0  0  0
  -25.7466  -20.5249   21.3570 N   0  3  0  0  0  0  0  0  0  0  0  0
  -24.9606  -17.4593   19.3562 O   0  0  0  0  0  0  0  0  0  0  0  0
  -23.4052  -28.7216   23.0023 O   0  0  0  0  0  0  0  0  0  0  0  0
  -21.8437  -24.5480   23.3149 O   0  0  0  0  0  0  0  0  0  0  0  0
  -26.2438  -22.8168   22.9115 O   0  0  0  0  0  0  0  0  0  0  0  0
  -33.7844  -20.2150   19.9956 O   0  0  0  0  0  0  0  0  0  0  0  0
  -25.6213  -10.3552   22.4678 O   0  0  0  0  0  0  0  0  0  0  0  0
  -28.6290  -28.6281   20.2863 O   0  0  0  0  0  0  0  0  0  1  0  0
  -21.4230   -7.9488   19.8244 F   0  0  0  0  0  0  0  0  0  0  0  0
  -29.3776  -22.2898   21.2100 F   0  0  0  0  0  0  0  0  0  0  0  0
  -25.8648   -7.7953   21.4528 F   0  0  0  0  0  0  0  0  0  0  0  0
  1  2  1  0  0  0  0
  1  5  2  0  0  0  0
  2  6  2  0  0  0  0
  3 10  2  0  0  0  0
  3 18  1  0  0  0  0
  4 11  1  0  0  0  0
  4 18  2  0  0  0  0
  5 20  1  0  0  0  0
  6 22  1  0  0  0  0
  7 12  2  0  0  0  0
  7 21  1  0  0  0  0
  8  9  2  0  0  0  0
  8 24  1  0  0  0  0
  9 25  1  0  0  0  0
 10 26  1  0  0  0  0
 11 26  2  0  0  0  0
 12 27  1  0  0  0  0
 13 14  2  0  0  0  0
 13 28  1  0  0  0  0
 14 29  1  0  0  0  0
 15 23  1  0  0  0  0
 15 27  2  0  0  0  0
 16 24  2  0  0  0  0
 16 30  1  0  0  0  0
 17 29  2  0  0  0  0
 17 31  1  0  0  0  0
 18 32  1  0  0  0  0
 19 32  1  0  0  0  0
 19 33  2  0  0  0  0
 19 34  1  0  0  0  0
 20 22  2  0  0  0  0
 20 39  1  0  0  0  0
 21 23  2  0  0  0  0
 21 40  1  0  0  0  0
 22 51  1  0  0  0  0
 23 41  1  0  0  0  0
 24 60  1  0  0  0  0
 25 30  2  0  0  0  0
 25 71  1  0  0  0  0
 26 81  1  0  0  0  0
 27 82  1  0  0  0  0
 28 31  2  0  0  0  0
 28 81  1  0  0  0  0
 29 83  1  0  0  0  0
 30 84  1  0  0  0  0
 31 85  1  0  0  0  0
 32 65  2  0  0  0  0
 33 66  1  0  0  0  0
 33 69  1  0  0  0  0
 34 70  1  0  0  0  0
 34 76  2  0  0  0  0
 35 52  1  0  0  0  0
 35 72  1  0  0  0  0
 35 77  2  0  0  0  0
 36 62  1  0  0  0  0
 36 67  1  0  0  0  0
 36 78  2  0  0  0  0
 37 63  1  0  0  0  0
 37 73  1  0  0  0  0
 37 79  2  0  0  0  0
 38 68  1  0  0  0  0
 38 71  1  0  0  0  0
 38 80  2  0  0  0  0
 39 42  1  0  0  0  0
 40 52  1  0  0  0  0
 41 67  1  0  0  0  0
 42 45  1  0  0  0  0
 43 46  1  0  0  0  0
 43 48  1  0  0  0  0
 44 47  1  0  0  0  0
 44 50  1  0  0  0  0
 45 51  1  0  0  0  0
 46 53  1  0  0  0  0
 47 54  1  0  0  0  0
 48 68  1  0  0  0  0
 49 53  1  0  0  0  0
 49 68  1  0  0  0  0
 50 74  1  0  0  0  0
 51 72  1  0  0  0  0
 52 67  1  0  0  0  0
 53 66  1  0  0  0  0
 54 61  1  0  0  0  0
 54 74  1  0  0  0  0
 55 63  1  0  0  0  0
 56 64  1  0  0  0  0
 57 64  1  0  0  0  0
 58 64  1  0  0  0  0
 59 75  1  0  0  0  0
 60 74  1  0  0  0  0
 61 82  1  0  0  0  0
 62 64  1  0  0  0  0
 62 73  1  0  0  0  0
 63 75  1  0  0  0  0
 65 66  1  0  0  0  0
M  CHG  2  74   1  75   1
M  ISO  4  38 100  61 101  71 100  82 101
M  END
> <Batch ID>
0011

> <Smiles>
CNC(C)C(=O)NC(C(=O)N1Cc2cc([101O:1][101CH2:1]C3CCCN3Cc3ccc([100NH:0][100C:0](=O)N4CCCC(n5nc(-c6ccc(Oc7ccc(F)cc7F)cc6)c(C(N)=O)c5N)C4)c(F)c3)ccc2CC1C(=O)NC1CCCc2ccccc21)C(C)(C)C

> <Shape>
0.219

> <Color>
0.078

> <Negative vol penalty>
0.000

$$$$

  -OEChem-04042320433D

 83 92  0     1  0  0  0  0  0999 V2000
  -30.7180  -21.9653   26.6175 C   0  0  0  0  0  0  0  0  0  0  0  0
  -29.3889  -22.1721   26.9729 C   0  0  0  0  0  0  0  0  0  0  0  0
  -28.7185  -26.1318   17.2154 C   0  0  0  0  0  0  0  0  0  0  0  0
  -28.4007  -24.8967   19.2674 C   0  0  0  0  0  0  0  0  0  0  0  0
  -31.0385  -21.5771   25.3173 C   0  0  0  0  0  0  0  0  0  0  0  0
  -28.3796  -21.9919   26.0278 C   0  0  0  0  0  0  0  0  0  0  0  0
  -21.5660  -19.8500   25.4760 C   0  0  0  0  0  0  0  0  0  0  0  0
  -19.1750  -27.4996   23.9454 C   0  0  0  0  0  0  0  0  0  0  0  0
  -19.4500  -27.6693   21.5511 C   0  0  0  0  0  0  0  0  0  0  0  0
  -18.4558  -26.3161   23.7789 C   0  0  0  0  0  0  0  0  0  0  0  0
  -18.7309  -26.4858   21.3846 C   0  0  0  0  0  0  0  0  0  0  0  0
  -29.9477  -25.5004   17.0258 C   0  0  0  0  0  0  0  0  0  0  0  0
  -29.6299  -24.2653   19.0778 C   0  0  0  0  0  0  0  0  0  0  0  0
  -20.3414  -20.2755   24.9631 C   0  0  0  0  0  0  0  0  0  0  0  0
  -32.5189  -22.0617   18.9484 C   0  0  0  0  0  0  0  0  0  0  0  0
  -32.5802  -20.6840   19.1575 C   0  0  0  0  0  0  0  0  0  0  0  0
  -21.0071  -19.5267   22.7687 C   0  0  0  0  0  0  0  0  0  0  0  0
  -30.9276  -20.3480   17.4273 C   0  0  0  0  0  0  0  0  0  0  0  0
  -27.9450  -25.8300   18.3363 C   0  0  0  0  0  0  0  0  0  0  0  0
  -25.4166  -26.0477   18.0767 C   0  0  0  0  0  0  0  0  0  0  0  0
  -30.0318  -21.3826   24.3585 C   0  0  0  0  0  0  0  0  0  0  0  0
  -22.5263  -19.2686   24.6356 C   0  0  0  0  0  0  0  0  0  0  0  0
  -28.6870  -21.6020   24.7132 C   0  0  0  0  0  0  0  0  0  0  0  0
  -22.2421  -19.0924   23.2739 C   0  0  0  0  0  0  0  0  0  0  0  0
  -19.6720  -28.1763   22.8315 C   0  0  0  0  0  0  0  0  0  0  0  0
  -18.2338  -25.8092   22.4985 C   0  0  0  0  0  0  0  0  0  0  0  0
  -30.4034  -24.5671   17.9569 C   0  0  0  0  0  0  0  0  0  0  0  0
  -20.0629  -20.1166   23.6088 C   0  0  0  0  0  0  0  0  0  0  0  0
  -31.6619  -22.5826   17.9789 C   0  0  0  0  0  0  0  0  0  0  0  0
  -31.7846  -19.8271   18.3969 C   0  0  0  0  0  0  0  0  0  0  0  0
  -30.8663  -21.7257   17.2183 C   0  0  0  0  0  0  0  0  0  0  0  0
  -26.6755  -26.4823   18.5331 C   0  0  0  0  0  0  0  0  0  0  0  0
  -24.5404  -27.0080   18.5200 C   0  0  0  0  0  0  0  0  0  0  0  0
  -25.0703  -24.8802   17.3199 C   0  0  0  0  0  0  0  0  0  0  0  0
  -25.4881  -20.0183   23.7583 C   0  0  0  0  0  0  0  0  0  0  0  0
  -25.3729  -17.1223   22.3014 C   0  0  0  0  0  0  0  0  0  0  0  0
  -23.4700  -14.6353   20.9447 C   0  0  0  0  0  0  0  0  0  0  0  0
  -22.6723  -30.4150   22.5260 C   0  0  0  0  0  0  0  0  0  0  0  0
  -30.4306  -21.0086   22.9528 C   0  0  0  0  0  0  0  0  0  0  0  0
  -23.8319  -18.7905   25.2093 C   0  0  0  0  0  0  0  0  0  0  0  0
  -23.2312  -18.4555   22.3333 C   0  0  0  0  0  0  0  0  0  0  0  0
  -29.2729  -20.4755   22.1127 C   0  0  0  0  0  0  0  0  0  0  0  0
  -25.3968  -31.5644   20.5429 C   0  0  0  0  0  0  0  0  0  0  0  0
  -28.0454  -21.3677   22.2679 C   0  0  0  0  0  0  0  0  0  0  0  0
  -25.8720  -30.3081   19.8109 C   0  0  0  0  0  0  0  0  0  0  0  0
  -24.9362  -31.2491   21.9643 C   0  0  0  0  0  0  0  0  0  0  0  0
  -24.3942  -28.9296   21.3322 C   0  0  0  0  0  0  0  0  0  0  0  0
  -19.3153  -22.9495   22.5126 C   0  0  0  0  0  0  0  0  0  0  0  0
  -17.5558  -22.1695   21.7014 C   0  0  0  0  0  0  0  0  0  0  0  0
  -27.5619  -21.3926   23.7229 C   0  0  1  0  0  0  0  0  0  0  0  0
  -24.9388  -18.6803   24.1653 C   0  0  1  0  0  0  0  0  0  0  0  0
  -24.8161  -29.1882   19.8757 C   0  0  2  0  0  0  0  0  0  0  0  0
  -18.9055  -21.5320   22.0751 C   0  0  0  0  0  0  0  0  0  1  0  0
  -23.6613  -12.4113   19.7983 C   0  0  0  0  0  0  0  0  0  0  0  0
  -26.2069  -18.5256   19.7236 C   0  0  0  0  0  0  0  0  0  0  0  0
  -25.4666  -16.4946   18.4606 C   0  0  0  0  0  0  0  0  0  0  0  0
  -27.3216  -16.3221   20.1196 C   0  0  0  0  0  0  0  0  0  0  0  0
  -21.9658  -13.2671   23.0951 C   0  0  0  0  0  0  0  0  0  0  0  0
  -20.4410  -29.4417   23.0087 C   0  0  0  0  0  0  0  0  0  0  0  0
  -17.4617  -24.5352   22.3204 C   0  0  0  0  0  0  0  0  0  0  0  0
  -24.9496  -16.6267   20.9398 C   0  0  1  0  0  0  0  0  0  0  0  0
  -23.5007  -13.1289   21.1294 C   0  0  2  0  0  0  0  0  0  0  0  0
  -25.9681  -17.0060   19.8280 C   0  0  0  0  0  0  0  0  0  0  0  0
  -26.6092  -27.6295   19.2139 N   0  0  0  0  0  0  0  0  0  0  0  0
  -25.2982  -27.9239   19.1886 N   0  0  0  0  0  0  0  0  0  0  0  0
  -24.4961  -18.0101   22.9409 N   0  0  0  0  0  0  0  0  0  0  0  0
  -23.9344  -30.1804   21.9557 N   0  0  0  0  0  0  0  0  0  0  0  0
  -23.2034  -27.1498   18.3992 N   0  0  0  0  0  0  0  0  0  0  0  0
  -26.0935  -23.9981   16.9466 N   0  0  0  0  0  0  0  0  0  0  0  0
  -26.8322  -20.1821   24.0338 N   0  0  0  0  0  0  0  0  0  0  0  0
  -24.7243  -15.1920   21.0795 N   0  0  0  0  0  0  0  0  0  0  0  0
  -21.7798  -29.3515   22.4700 N   0  0  0  0  0  0  0  0  0  0  0  0
  -18.2421  -23.4736   21.6479 N   0  3  0  0  0  0  0  0  0  0  0  0
  -22.2382  -12.6594   21.7671 N   0  3  0  0  0  0  0  0  0  0  0  0
  -23.8907  -24.6352   16.9705 O   0  0  0  0  0  0  0  0  0  0  0  0
  -24.7476  -20.8407   23.2318 O   0  0  0  0  0  0  0  0  0  0  0  0
  -26.4388  -16.7305   22.7832 O   0  0  0  0  0  0  0  0  0  0  0  0
  -22.4374  -15.2557   20.7012 O   0  0  0  0  0  0  0  0  0  0  0  0
  -22.3619  -31.4942   23.0417 O   0  0  0  0  0  0  0  0  0  0  0  0
  -31.6027  -23.9506   17.7720 O   0  0  0  0  0  0  0  0  0  0  0  0
  -18.8687  -20.5316   23.1055 O   0  0  0  0  0  0  0  0  0  1  0  0
  -31.8447  -18.5040   18.5967 F   0  0  0  0  0  0  0  0  0  0  0  0
  -30.0419  -22.2202   16.2847 F   0  0  0  0  0  0  0  0  0  0  0  0
  1  2  1  0  0  0  0
  1  5  2  0  0  0  0
  2  6  2  0  0  0  0
  3 12  2  0  0  0  0
  3 19  1  0  0  0  0
  4 13  1  0  0  0  0
  4 19  2  0  0  0  0
  5 21  1  0  0  0  0
  6 23  1  0  0  0  0
  7 14  2  0  0  0  0
  7 22  1  0  0  0  0
  8 10  2  0  0  0  0
  8 25  1  0  0  0  0
  9 11  1  0  0  0  0
  9 25  2  0  0  0  0
 10 26  1  0  0  0  0
 11 26  2  0  0  0  0
 12 27  1  0  0  0  0
 13 27  2  0  0  0  0
 14 28  1  0  0  0  0
 15 16  2  0  0  0  0
 15 29  1  0  0  0  0
 16 30  1  0  0  0  0
 17 24  1  0  0  0  0
 17 28  2  0  0  0  0
 18 30  2  0  0  0  0
 18 31  1  0  0  0  0
 19 32  1  0  0  0  0
 20 32  1  0  0  0  0
 20 33  2  0  0  0  0
 20 34  1  0  0  0  0
 21 23  2  0  0  0  0
 21 39  1  0  0  0  0
 22 24  2  0  0  0  0
 22 40  1  0  0  0  0
 23 50  1  0  0  0  0
 24 41  1  0  0  0  0
 25 59  1  0  0  0  0
 26 60  1  0  0  0  0
 27 80  1  0  0  0  0
 28 81  1  0  0  0  0
 29 31  2  0  0  0  0
 29 80  1  0  0  0  0
 30 82  1  0  0  0  0
 31 83  1  0  0  0  0
 32 64  2  0  0  0  0
 33 65  1  0  0  0  0
 33 68  1  0  0  0  0
 34 69  1  0  0  0  0
 34 75  2  0  0  0  0
 35 51  1  0  0  0  0
 35 70  1  0  0  0  0
 35 76  2  0  0  0  0
 36 61  1  0  0  0  0
 36 66  1  0  0  0  0
 36 77  2  0  0  0  0
 37 62  1  0  0  0  0
 37 71  1  0  0  0  0
 37 78  2  0  0  0  0
 38 67  1  0  0  0  0
 38 72  1  0  0  0  0
 38 79  2  0  0  0  0
 39 42  1  0  0  0  0
 40 51  1  0  0  0  0
 41 66  1  0  0  0  0
 42 44  1  0  0  0  0
 43 45  1  0  0  0  0
 43 46  1  0  0  0  0
 44 50  1  0  0  0  0
 45 52  1  0  0  0  0
 46 67  1  0  0  0  0
 47 52  1  0  0  0  0
 47 67  1  0  0  0  0
 48 53  1  0  0  0  0
 48 73  1  0  0  0  0
 49 53  1  0  0  0  0
 49 73  1  0  0  0  0
 50 70  1  0  0  0  0
 51 66  1  0  0  0  0
 52 65  1  0  0  0  0
 53 81  1  0  0  0  0
 54 62  1  0  0  0  0
 55 63  1  0  0  0  0
 56 63  1  0  0  0  0
 57 63  1  0  0  0  0
 58 74  1  0  0  0  0
 59 72  1  0  0  0  0
 60 73  1  0  0  0  0
 61 63  1  0  0  0  0
 61 71  1  0  0  0  0
 62 74  1  0  0  0  0
 64 65  1  0  0  0  0
M  CHG  2  73   1  74   1
M  ISO  4  38 100  53 101  72 100  81 101
M  END
> <Batch ID>
0011

> <Smiles>
CNC(C)C(=O)NC(C(=O)N1Cc2cc([101O:1][101CH:1]3CN(Cc4ccc(C[100NH:0][100C:0](=O)N5CCCC(n6nc(-c7ccc(Oc8ccc(F)cc8F)cc7)c(C(N)=O)c6N)C5)cc4)C3)ccc2CC1C(=O)NC1CCCc2ccccc21)C(C)(C)C

> <Shape>
0.177

> <Color>
0.084

> <Negative vol penalty>
0.000

$$$$

  -OEChem-04042320433D

 83 91  0     1  0  0  0  0  0999 V2000
  -27.7651  -24.0178   17.1536 C   0  0  0  0  0  0  0  0  0  0  0  0
  -26.5732  -24.3487   17.7902 C   0  0  0  0  0  0  0  0  0  0  0  0
  -26.5603  -16.8264   21.9762 C   0  0  0  0  0  0  0  0  0  0  0  0
  -24.3440  -15.8908   21.7535 C   0  0  0  0  0  0  0  0  0  0  0  0
  -28.9806  -24.4456   17.6860 C   0  0  0  0  0  0  0  0  0  0  0  0
  -26.5962  -25.1067   18.9604 C   0  0  0  0  0  0  0  0  0  0  0  0
  -23.1238  -28.7928   18.9558 C   0  0  0  0  0  0  0  0  0  0  0  0
  -21.9970  -24.3896   24.8881 C   0  0  0  0  0  0  0  0  0  0  0  0
  -27.1147  -15.5654   21.7565 C   0  0  0  0  0  0  0  0  0  0  0  0
  -24.8983  -14.6298   21.5338 C   0  0  0  0  0  0  0  0  0  0  0  0
  -21.8063  -28.4268   19.2274 C   0  0  0  0  0  0  0  0  0  0  0  0
  -20.9262  -24.4746   23.9984 C   0  0  0  0  0  0  0  0  0  0  0  0
  -27.7437  -13.5462   19.1183 C   0  0  0  0  0  0  0  0  0  0  0  0
  -28.8205  -13.4563   18.2363 C   0  0  0  0  0  0  0  0  0  0  0  0
  -22.0709  -29.1851   21.5021 C   0  0  0  0  0  0  0  0  0  0  0  0
  -23.5084  -25.0835   23.1357 C   0  0  0  0  0  0  0  0  0  0  0  0
  -30.1994  -12.5687   20.0106 C   0  0  0  0  0  0  0  0  0  0  0  0
  -25.1749  -16.9891   21.9748 C   0  0  0  0  0  0  0  0  0  0  0  0
  -24.2885  -19.2633   21.2333 C   0  0  0  0  0  0  0  0  0  0  0  0
  -29.0180  -25.2174   18.8580 C   0  0  0  0  0  0  0  0  0  0  0  0
  -23.9296  -29.3487   19.9599 C   0  0  0  0  0  0  0  0  0  0  0  0
  -27.8134  -25.5441   19.5097 C   0  0  0  0  0  0  0  0  0  0  0  0
  -23.3976  -29.5597   21.2400 C   0  0  0  0  0  0  0  0  0  0  0  0
  -23.2882  -24.6941   24.4568 C   0  0  0  0  0  0  0  0  0  0  0  0
  -26.2837  -14.4672   21.5352 C   0  0  0  0  0  0  0  0  0  0  0  0
  -21.2805  -28.6202   20.5015 C   0  0  0  0  0  0  0  0  0  0  0  0
  -27.8946  -13.1475   20.4464 C   0  0  0  0  0  0  0  0  0  0  0  0
  -21.1465  -24.8641   22.6772 C   0  0  0  0  0  0  0  0  0  0  0  0
  -30.0484  -12.9675   18.6825 C   0  0  0  0  0  0  0  0  0  0  0  0
  -22.4376  -25.1685   22.2458 C   0  0  0  0  0  0  0  0  0  0  0  0
  -29.1225  -12.6587   20.8925 C   0  0  0  0  0  0  0  0  0  0  0  0
  -24.6017  -18.2913   22.2022 C   0  0  0  0  0  0  0  0  0  0  0  0
  -23.7723  -20.3125   21.9538 C   0  0  0  0  0  0  0  0  0  0  0  0
  -24.4496  -19.2215   19.8092 C   0  0  0  0  0  0  0  0  0  0  0  0
  -26.6327  -28.4933   21.3969 C   0  0  0  0  0  0  0  0  0  0  0  0
  -26.3666  -31.4161   22.7785 C   0  0  0  0  0  0  0  0  0  0  0  0
  -24.3491  -34.0019   23.7218 C   0  0  0  0  0  0  0  0  0  0  0  0
  -24.4327  -23.7036   26.4568 C   0  0  0  0  0  0  0  0  0  0  0  0
  -30.3586  -25.6168   19.4217 C   0  0  0  0  0  0  0  0  0  0  0  0
  -25.3405  -29.7630   19.6436 C   0  0  0  0  0  0  0  0  0  0  0  0
  -24.2147  -30.1715   22.3474 C   0  0  0  0  0  0  0  0  0  0  0  0
  -30.2749  -26.7334   20.4592 C   0  0  0  0  0  0  0  0  0  0  0  0
  -22.3590  -20.6566   26.7860 C   0  0  0  0  0  0  0  0  0  0  0  0
  -29.1615  -26.4480   21.4621 C   0  0  0  0  0  0  0  0  0  0  0  0
  -22.7978  -19.8165   25.5881 C   0  0  0  0  0  0  0  0  0  0  0  0
  -23.4763  -21.5736   27.2744 C   0  0  0  0  0  0  0  0  0  0  0  0
  -24.4702  -21.6177   25.0047 C   0  0  0  0  0  0  0  0  0  0  0  0
  -27.7959  -26.3858   20.7673 C   0  0  1  0  0  0  0  0  0  0  0  0
  -26.2304  -29.8455   20.8800 C   0  0  1  0  0  0  0  0  0  0  0  0
  -23.3492  -20.7147   24.4686 C   0  0  1  0  0  0  0  0  0  0  0  0
  -24.4136  -36.2355   24.8637 C   0  0  0  0  0  0  0  0  0  0  0  0
  -26.6291  -30.0242   25.4810 C   0  0  0  0  0  0  0  0  0  0  0  0
  -25.7496  -32.1052   26.5599 C   0  0  0  0  0  0  0  0  0  0  0  0
  -27.8939  -32.1729   25.2871 C   0  0  0  0  0  0  0  0  0  0  0  0
  -25.3993  -25.6676   25.3433 C   0  0  0  0  0  0  0  0  0  0  0  0
  -23.3460  -35.3936   21.3102 C   0  0  0  0  0  0  0  0  0  0  0  0
  -18.4349  -26.4255   20.8739 C   0  0  0  0  0  0  0  0  0  0  0  0
  -19.4568  -27.1690   20.0282 C   0  0  0  0  0  0  0  0  0  1  0  0
  -19.0521  -25.8550   22.1411 C   0  0  0  0  0  0  0  0  0  0  0  0
  -25.7121  -31.9519   24.0289 C   0  0  1  0  0  0  0  0  0  0  0  0
  -24.4801  -35.5024   23.5330 C   0  0  2  0  0  0  0  0  0  0  0  0
  -26.4811  -31.5502   25.3191 C   0  0  0  0  0  0  0  0  0  0  0  0
  -24.3091  -18.6878   23.4437 N   0  0  0  0  0  0  0  0  0  0  0  0
  -23.8067  -19.9206   23.2597 N   0  0  0  0  0  0  0  0  0  0  0  0
  -25.5908  -30.5542   21.9904 N   0  0  0  0  0  0  0  0  0  0  0  0
  -24.0322  -22.3791   26.1859 N   0  0  0  0  0  0  0  0  0  0  0  0
  -23.2970  -21.5229   21.5914 N   0  0  0  0  0  0  0  0  0  0  0  0
  -24.9958  -18.0668   19.2322 N   0  0  0  0  0  0  0  0  0  0  0  0
  -27.3151  -27.7197   20.4774 N   0  0  0  0  0  0  0  0  0  0  0  0
  -25.5805  -33.3920   23.8356 N   0  0  0  0  0  0  0  0  0  0  0  0
  -24.3956  -24.6062   25.3769 N   0  0  0  0  0  0  0  0  0  0  0  0
  -23.3849  -36.0123   22.6603 N   0  3  0  0  0  0  0  0  0  0  0  0
  -24.1344  -20.1860   19.0718 O   0  0  0  0  0  0  0  0  0  0  0  0
  -26.3466  -28.1759   22.5454 O   0  0  0  0  0  0  0  0  0  0  0  0
  -27.5211  -31.7555   22.5072 O   0  0  0  0  0  0  0  0  0  0  0  0
  -23.2629  -33.4286   23.7678 O   0  0  0  0  0  0  0  0  0  0  0  0
  -24.8484  -24.0467   27.5704 O   0  0  0  0  0  0  0  0  0  0  0  0
  -26.8243  -13.2366   21.3205 O   0  0  0  0  0  0  0  0  0  0  0  0
  -19.9950  -28.2631   20.7695 O   0  0  0  0  0  0  0  0  0  1  0  0
  -20.0930  -24.9477   21.8044 O   0  0  0  0  0  0  0  0  0  0  0  0
  -31.0820  -12.8797   17.8351 F   0  0  0  0  0  0  0  0  0  0  0  0
  -22.6553  -25.5444   20.9781 F   0  0  0  0  0  0  0  0  0  0  0  0
  -29.2733  -12.2729   22.1670 F   0  0  0  0  0  0  0  0  0  0  0  0
  1  2  1  0  0  0  0
  1  5  2  0  0  0  0
  2  6  2  0  0  0  0
  3  9  2  0  0  0  0
  3 18  1  0  0  0  0
  4 10  1  0  0  0  0
  4 18  2  0  0  0  0
  5 20  1  0  0  0  0
  6 22  1  0  0  0  0
  7 11  2  0  0  0  0
  7 21  1  0  0  0  0
  8 12  2  0  0  0  0
  8 24  1  0  0  0  0
  9 25  1  0  0  0  0
 10 25  2  0  0  0  0
 11 26  1  0  0  0  0
 12 28  1  0  0  0  0
 13 14  2  0  0  0  0
 13 27  1  0  0  0  0
 14 29  1  0  0  0  0
 15 23  1  0  0  0  0
 15 26  2  0  0  0  0
 16 24  2  0  0  0  0
 16 30  1  0  0  0  0
 17 29  2  0  0  0  0
 17 31  1  0  0  0  0
 18 32  1  0  0  0  0
 19 32  1  0  0  0  0
 19 33  2  0  0  0  0
 19 34  1  0  0  0  0
 20 22  2  0  0  0  0
 20 39  1  0  0  0  0
 21 23  2  0  0  0  0
 21 40  1  0  0  0  0
 22 48  1  0  0  0  0
 23 41  1  0  0  0  0
 24 71  1  0  0  0  0
 25 78  1  0  0  0  0
 26 79  1  0  0  0  0
 27 31  2  0  0  0  0
 27 78  1  0  0  0  0
 28 30  2  0  0  0  0
 28 80  1  0  0  0  0
 29 81  1  0  0  0  0
 30 82  1  0  0  0  0
 31 83  1  0  0  0  0
 32 63  2  0  0  0  0
 33 64  1  0  0  0  0
 33 67  1  0  0  0  0
 34 68  1  0  0  0  0
 34 73  2  0  0  0  0
 35 49  1  0  0  0  0
 35 69  1  0  0  0  0
 35 74  2  0  0  0  0
 36 60  1  0  0  0  0
 36 65  1  0  0  0  0
 36 75  2  0  0  0  0
 37 61  1  0  0  0  0
 37 70  1  0  0  0  0
 37 76  2  0  0  0  0
 38 66  1  0  0  0  0
 38 71  1  0  0  0  0
 38 77  2  0  0  0  0
 39 42  1  0  0  0  0
 40 49  1  0  0  0  0
 41 65  1  0  0  0  0
 42 44  1  0  0  0  0
 43 45  1  0  0  0  0
 43 46  1  0  0  0  0
 44 48  1  0  0  0  0
 45 50  1  0  0  0  0
 46 66  1  0  0  0  0
 47 50  1  0  0  0  0
 47 66  1  0  0  0  0
 48 69  1  0  0  0  0
 49 65  1  0  0  0  0
 50 64  1  0  0  0  0
 51 61  1  0  0  0  0
 52 62  1  0  0  0  0
 53 62  1  0  0  0  0
 54 62  1  0  0  0  0
 55 71  1  0  0  0  0
 56 72  1  0  0  0  0
 57 58  1  0  0  0  0
 57 59  1  0  0  0  0
 58 79  1  0  0  0  0
 59 80  1  0  0  0  0
 60 62  1  0  0  0  0
 60 70  1  0  0  0  0
 61 72  1  0  0  0  0
 63 64  1  0  0  0  0
M  CHG  1  72   1
M  ISO  4  38 100  58 101  71 100  79 101
M  END
> <Batch ID>
0011

> <Smiles>
CNC(C)C(=O)NC(C(=O)N1Cc2cc([101O:1][101CH2:1]CCOc3ccc([100N:0](C)[100C:0](=O)N4CCCC(n5nc(-c6ccc(Oc7ccc(F)cc7F)cc6)c(C(N)=O)c5N)C4)cc3F)ccc2CC1C(=O)NC1CCCc2ccccc21)C(C)(C)C

> <Shape>
0.259

> <Color>
0.073

> <Negative vol penalty>
0.000

$$$$

  -OEChem-04042320433D

 83 92  0     1  0  0  0  0  0999 V2000
  -27.5490  -34.3165   25.5178 C   0  0  0  0  0  0  0  0  0  0  0  0
  -28.0726  -33.0487   25.2858 C   0  0  0  0  0  0  0  0  0  0  0  0
  -23.1626   -9.7560   19.9100 C   0  0  0  0  0  0  0  0  0  0  0  0
  -23.9124   -9.7760   22.2066 C   0  0  0  0  0  0  0  0  0  0  0  0
  -26.2331  -34.6028   25.1569 C   0  0  0  0  0  0  0  0  0  0  0  0
  -27.2802  -32.0660   24.6937 C   0  0  0  0  0  0  0  0  0  0  0  0
  -29.1225  -27.6817   20.8350 C   0  0  0  0  0  0  0  0  0  0  0  0
  -30.9477  -19.3500   20.7005 C   0  0  0  0  0  0  0  0  0  0  0  0
  -30.8454  -17.9591   20.6808 C   0  0  0  0  0  0  0  0  0  0  0  0
  -22.4747   -8.5656   20.1449 C   0  0  0  0  0  0  0  0  0  0  0  0
  -23.2244   -8.5855   22.4416 C   0  0  0  0  0  0  0  0  0  0  0  0
  -29.4390  -26.3372   21.0250 C   0  0  0  0  0  0  0  0  0  0  0  0
  -20.0366   -7.6256   23.0218 C   0  0  0  0  0  0  0  0  0  0  0  0
  -19.2780   -7.5367   24.1889 C   0  0  0  0  0  0  0  0  0  0  0  0
  -27.2010  -25.7236   20.3661 C   0  0  0  0  0  0  0  0  0  0  0  0
  -29.3027  -19.4461   22.4673 C   0  0  0  0  0  0  0  0  0  0  0  0
  -20.6093   -5.6543   24.9109 C   0  0  0  0  0  0  0  0  0  0  0  0
  -23.8815  -10.3613   20.9409 C   0  0  0  0  0  0  0  0  0  0  0  0
  -24.1006  -12.9011   20.8482 C   0  0  0  0  0  0  0  0  0  0  0  0
  -25.4271  -33.6259   24.5512 C   0  0  0  0  0  0  0  0  0  0  0  0
  -27.8375  -28.0585   20.4190 C   0  0  0  0  0  0  0  0  0  0  0  0
  -25.9518  -32.3390   24.3255 C   0  0  0  0  0  0  0  0  0  0  0  0
  -26.8715  -27.0733   20.1692 C   0  0  0  0  0  0  0  0  0  0  0  0
  -30.1764  -20.0935   21.5938 C   0  0  0  0  0  0  0  0  0  0  0  0
  -29.9717  -17.3116   21.5544 C   0  0  0  0  0  0  0  0  0  0  0  0
  -22.5056   -7.9803   21.4107 C   0  0  0  0  0  0  0  0  0  0  0  0
  -28.4773  -25.3581   20.7933 C   0  0  0  0  0  0  0  0  0  0  0  0
  -21.0815   -6.7288   22.7992 C   0  0  0  0  0  0  0  0  0  0  0  0
  -19.5643   -6.5511   25.1335 C   0  0  0  0  0  0  0  0  0  0  0  0
  -29.2004  -18.0551   22.4476 C   0  0  0  0  0  0  0  0  0  0  0  0
  -21.3679   -5.7432   23.7437 C   0  0  0  0  0  0  0  0  0  0  0  0
  -24.5927  -11.5907   20.6987 C   0  0  0  0  0  0  0  0  0  0  0  0
  -25.1564  -13.7065   20.4974 C   0  0  0  0  0  0  0  0  0  0  0  0
  -22.8049  -13.3502   21.2668 C   0  0  0  0  0  0  0  0  0  0  0  0
  -25.4986  -29.8105   21.6695 C   0  0  0  0  0  0  0  0  0  0  0  0
  -24.1193  -29.3325   18.7727 C   0  0  0  0  0  0  0  0  0  0  0  0
  -23.8767  -27.4143   15.9605 C   0  0  0  0  0  0  0  0  0  0  0  0
  -30.5646  -15.0146   20.7066 C   0  0  0  0  0  0  0  0  0  0  0  0
  -23.9957  -33.9680   24.2217 C   0  0  0  0  0  0  0  0  0  0  0  0
  -27.5200  -29.5113   20.1929 C   0  0  0  0  0  0  0  0  0  0  0  0
  -25.4834  -27.4242   19.7019 C   0  0  0  0  0  0  0  0  0  0  0  0
  -23.3405  -32.9828   23.2571 C   0  0  0  0  0  0  0  0  0  0  0  0
  -29.5780  -12.5743   18.3089 C   0  0  0  0  0  0  0  0  0  0  0  0
  -23.6263  -31.5468   23.6849 C   0  0  0  0  0  0  0  0  0  0  0  0
  -28.1526  -12.2087   18.7292 C   0  0  0  0  0  0  0  0  0  0  0  0
  -31.1393  -23.6438   21.3325 C   0  0  0  0  0  0  0  0  0  0  0  0
  -30.4762  -12.8348   19.5168 C   0  0  0  0  0  0  0  0  0  0  0  0
  -31.1624  -22.2347   20.7404 C   0  0  0  0  0  0  0  0  0  0  0  0
  -28.5310  -13.4513   20.8971 C   0  0  0  0  0  0  0  0  0  0  0  0
  -29.5082  -22.3341   22.5080 C   0  0  0  0  0  0  0  0  0  0  0  0
  -25.1313  -31.2538   23.6627 C   0  0  1  0  0  0  0  0  0  0  0  0
  -26.0265  -29.8144   20.2627 C   0  0  1  0  0  0  0  0  0  0  0  0
  -27.5723  -13.2433   19.7133 C   0  0  2  0  0  0  0  0  0  0  0  0
  -29.7600  -23.7412   21.9679 C   0  0  2  0  0  0  0  0  0  1  0  0
  -22.6355  -27.2556   13.7853 C   0  0  0  0  0  0  0  0  0  0  0  0
  -21.6615  -28.2954   20.2537 C   0  0  0  0  0  0  0  0  0  0  0  0
  -20.8730  -27.2921   18.0997 C   0  0  0  0  0  0  0  0  0  0  0  0
  -21.1558  -29.7630   18.2929 C   0  0  0  0  0  0  0  0  0  0  0  0
  -26.3705  -27.6620   14.3860 C   0  0  0  0  0  0  0  0  0  0  0  0
  -23.2046  -28.2858   18.1838 C   0  0  1  0  0  0  0  0  0  0  0  0
  -23.8776  -27.7815   14.4875 C   0  0  2  0  0  0  0  0  0  0  0  0
  -21.7492  -28.4023   18.7182 C   0  0  0  0  0  0  0  0  0  0  0  0
  -25.8624  -11.5608   20.2850 N   0  0  0  0  0  0  0  0  0  0  0  0
  -26.1769  -12.8624   20.1714 N   0  0  0  0  0  0  0  0  0  0  0  0
  -30.2780  -21.4687   21.6135 N   0  0  3  0  0  0  0  0  0  0  0  0
  -25.2196  -28.8587   19.5013 N   0  0  0  0  0  0  0  0  0  0  0  0
  -29.8644  -13.8280   20.4023 N   0  0  0  0  0  0  0  0  0  0  0  0
  -25.3021  -15.0473   20.4389 N   0  0  0  0  0  0  0  0  0  0  0  0
  -21.8371  -12.3895   21.5904 N   0  0  0  0  0  0  0  0  0  0  0  0
  -29.8698  -15.8985   21.5316 N   0  0  0  0  0  0  0  0  0  0  0  0
  -25.5836  -31.0343   22.3056 N   0  0  0  0  0  0  0  0  0  0  0  0
  -23.3210  -28.4106   16.7349 N   0  0  0  0  0  0  0  0  0  0  0  0
  -25.0769  -27.2102   13.8120 N   0  3  0  0  0  0  0  0  0  0  0  0
  -22.5089  -14.5673   21.3357 O   0  0  0  0  0  0  0  0  0  0  0  0
  -25.0463  -28.7744   22.1423 O   0  0  0  0  0  0  0  0  0  0  0  0
  -23.8709  -30.5263   18.5869 O   0  0  0  0  0  0  0  0  0  0  0  0
  -24.3210  -26.3485   16.3815 O   0  0  0  0  0  0  0  0  0  0  0  0
  -31.6859  -15.2428   20.2457 O   0  0  0  0  0  0  0  0  0  0  0  0
  -21.8343   -6.8188   21.6403 O   0  0  0  0  0  0  0  0  0  0  0  0
  -28.7834  -24.0452   20.9786 O   0  0  0  0  0  0  0  0  0  1  0  0
  -18.8367   -6.4668   26.2549 F   0  0  0  0  0  0  0  0  0  0  0  0
  -28.3571  -17.4432   23.2914 F   0  0  0  0  0  0  0  0  0  0  0  0
  -22.3713   -4.8795   23.5360 F   0  0  0  0  0  0  0  0  0  0  0  0
  1  2  1  0  0  0  0
  1  5  2  0  0  0  0
  2  6  2  0  0  0  0
  3 10  2  0  0  0  0
  3 18  1  0  0  0  0
  4 11  1  0  0  0  0
  4 18  2  0  0  0  0
  5 20  1  0  0  0  0
  6 22  1  0  0  0  0
  7 12  2  0  0  0  0
  7 21  1  0  0  0  0
  8  9  2  0  0  0  0
  8 24  1  0  0  0  0
  9 25  1  0  0  0  0
 10 26  1  0  0  0  0
 11 26  2  0  0  0  0
 12 27  1  0  0  0  0
 13 14  2  0  0  0  0
 13 28  1  0  0  0  0
 14 29  1  0  0  0  0
 15 23  1  0  0  0  0
 15 27  2  0  0  0  0
 16 24  2  0  0  0  0
 16 30  1  0  0  0  0
 17 29  2  0  0  0  0
 17 31  1  0  0  0  0
 18 32  1  0  0  0  0
 19 32  1  0  0  0  0
 19 33  2  0  0  0  0
 19 34  1  0  0  0  0
 20 22  2  0  0  0  0
 20 39  1  0  0  0  0
 21 23  2  0  0  0  0
 21 40  1  0  0  0  0
 22 51  1  0  0  0  0
 23 41  1  0  0  0  0
 24 65  1  0  0  0  0
 25 30  2  0  0  0  0
 25 70  1  0  0  0  0
 26 79  1  0  0  0  0
 27 80  1  0  0  0  0
 28 31  2  0  0  0  0
 28 79  1  0  0  0  0
 29 81  1  0  0  0  0
 30 82  1  0  0  0  0
 31 83  1  0  0  0  0
 32 63  2  0  0  0  0
 33 64  1  0  0  0  0
 33 68  1  0  0  0  0
 34 69  1  0  0  0  0
 34 74  2  0  0  0  0
 35 52  1  0  0  0  0
 35 71  1  0  0  0  0
 35 75  2  0  0  0  0
 36 60  1  0  0  0  0
 36 66  1  0  0  0  0
 36 76  2  0  0  0  0
 37 61  1  0  0  0  0
 37 72  1  0  0  0  0
 37 77  2  0  0  0  0
 38 67  1  0  0  0  0
 38 70  1  0  0  0  0
 38 78  2  0  0  0  0
 39 42  1  0  0  0  0
 40 52  1  0  0  0  0
 41 66  1  0  0  0  0
 42 44  1  0  0  0  0
 43 45  1  0  0  0  0
 43 47  1  0  0  0  0
 44 51  1  0  0  0  0
 45 53  1  0  0  0  0
 46 48  1  0  0  0  0
 46 54  1  0  0  0  0
 47 67  1  0  0  0  0
 48 65  1  0  0  0  0
 49 53  1  0  0  0  0
 49 67  1  0  0  0  0
 50 54  1  0  0  0  0
 50 65  1  0  0  0  0
 51 71  1  0  0  0  0
 52 66  1  0  0  0  0
 53 64  1  0  0  0  0
 54 80  1  0  0  0  0
 55 61  1  0  0  0  0
 56 62  1  0  0  0  0
 57 62  1  0  0  0  0
 58 62  1  0  0  0  0
 59 73  1  0  0  0  0
 60 62  1  0  0  0  0
 60 72  1  0  0  0  0
 61 73  1  0  0  0  0
 63 64  1  0  0  0  0
M  CHG  1  73   1
M  ISO  4  38 100  54 101  70 100  80 101
M  END
> <Batch ID>
0011

> <Smiles>
CNC(C)C(=O)NC(C(=O)N1Cc2cc([101O:1][101CH:1]3CCN(c4ccc([100NH:0][100C:0](=O)N5CCCC(n6nc(-c7ccc(Oc8ccc(F)cc8F)cc7)c(C(N)=O)c6N)C5)c(F)c4)C3)ccc2CC1C(=O)NC1CCCc2ccccc21)C(C)(C)C

> <Shape>
0.353

> <Color>
0.208

> <Negative vol penalty>
0.000

$$$$

  -OEChem-04042320433D

 86 95  0     1  0  0  0  0  0999 V2000
  -27.5439  -10.3050   22.1952 C   0  0  0  0  0  0  0  0  0  0  0  0
  -28.2828  -11.4413   21.8820 C   0  0  0  0  0  0  0  0  0  0  0  0
  -19.4042  -28.5463   23.4208 C   0  0  0  0  0  0  0  0  0  0  0  0
  -20.0667  -26.5735   22.1935 C   0  0  0  0  0  0  0  0  0  0  0  0
  -26.1943  -10.2360   21.8521 C   0  0  0  0  0  0  0  0  0  0  0  0
  -27.6728  -12.5090   21.2244 C   0  0  0  0  0  0  0  0  0  0  0  0
  -28.8704  -18.4672   21.9807 C   0  0  0  0  0  0  0  0  0  0  0  0
  -18.0639  -28.2510   23.1722 C   0  0  0  0  0  0  0  0  0  0  0  0
  -18.7263  -26.2781   21.9450 C   0  0  0  0  0  0  0  0  0  0  0  0
  -29.6529  -19.3659   21.2570 C   0  0  0  0  0  0  0  0  0  0  0  0
  -15.4943  -25.1986   20.6804 C   0  0  0  0  0  0  0  0  0  0  0  0
  -15.1442  -24.8153   19.3858 C   0  0  0  0  0  0  0  0  0  0  0  0
  -27.6921  -20.0984   20.0579 C   0  0  0  0  0  0  0  0  0  0  0  0
  -29.9065  -27.9027   19.0649 C   0  0  0  0  0  0  0  0  0  0  0  0
  -31.1096  -25.8077   19.0790 C   0  0  0  0  0  0  0  0  0  0  0  0
  -28.8854  -25.9297   20.0144 C   0  0  0  0  0  0  0  0  0  0  0  0
  -15.9442  -26.9332   18.5423 C   0  0  0  0  0  0  0  0  0  0  0  0
  -20.4056  -27.7077   22.9314 C   0  0  0  0  0  0  0  0  0  0  0  0
  -22.5652  -27.5902   24.2842 C   0  0  0  0  0  0  0  0  0  0  0  0
  -25.5650  -11.3073   21.1987 C   0  0  0  0  0  0  0  0  0  0  0  0
  -27.4923  -18.3695   21.7404 C   0  0  0  0  0  0  0  0  0  0  0  0
  -26.3138  -12.4538   20.8711 C   0  0  0  0  0  0  0  0  0  0  0  0
  -26.8938  -19.1995   20.7817 C   0  0  0  0  0  0  0  0  0  0  0  0
  -31.0490  -27.1637   18.7579 C   0  0  0  0  0  0  0  0  0  0  0  0
  -28.8247  -27.2857   19.6932 C   0  0  0  0  0  0  0  0  0  0  0  0
  -30.0278  -25.1906   19.7073 C   0  0  0  0  0  0  0  0  0  0  0  0
  -17.7249  -27.1168   22.4344 C   0  0  0  0  0  0  0  0  0  0  0  0
  -29.0643  -20.1796   20.2934 C   0  0  0  0  0  0  0  0  0  0  0  0
  -16.0693  -26.4493   20.9060 C   0  0  0  0  0  0  0  0  0  0  0  0
  -15.3691  -25.6826   18.3168 C   0  0  0  0  0  0  0  0  0  0  0  0
  -16.2943  -27.3166   19.8370 C   0  0  0  0  0  0  0  0  0  0  0  0
  -21.7904  -28.0126   23.1873 C   0  0  0  0  0  0  0  0  0  0  0  0
  -23.8032  -28.1424   24.0630 C   0  0  0  0  0  0  0  0  0  0  0  0
  -22.1987  -26.7717   25.4029 C   0  0  0  0  0  0  0  0  0  0  0  0
  -25.5496  -16.0660   20.7285 C   0  0  0  0  0  0  0  0  0  0  0  0
  -23.2453  -18.2433   21.4160 C   0  0  0  0  0  0  0  0  0  0  0  0
  -22.3886  -21.5195   21.8389 C   0  0  0  0  0  0  0  0  0  0  0  0
  -27.4421  -29.3907   19.7548 C   0  0  0  0  0  0  0  0  0  0  0  0
  -24.1156  -11.1675   20.8058 C   0  0  0  0  0  0  0  0  0  0  0  0
  -26.6576  -17.4139   22.5483 C   0  0  0  0  0  0  0  0  0  0  0  0
  -25.4152  -19.1476   20.5000 C   0  0  0  0  0  0  0  0  0  0  0  0
  -23.4518  -12.4939   20.4446 C   0  0  0  0  0  0  0  0  0  0  0  0
  -25.5019  -31.9149   21.3489 C   0  0  0  0  0  0  0  0  0  0  0  0
  -32.1829  -27.1835   14.4495 C   0  0  0  0  0  0  0  0  0  0  0  0
  -33.4732  -27.9161   14.7575 C   0  0  0  0  0  0  0  0  0  0  0  0
  -24.3461  -13.3009   19.5088 C   0  0  0  0  0  0  0  0  0  0  0  0
  -24.4222  -31.1262   22.0934 C   0  0  0  0  0  0  0  0  0  0  0  0
  -25.8439  -31.2772   20.0035 C   0  0  0  0  0  0  0  0  0  0  0  0
  -25.1183  -29.0646   20.8079 C   0  0  0  0  0  0  0  0  0  0  0  0
  -31.6555  -26.8503   15.8285 C   0  0  0  0  0  0  0  0  0  0  0  0
  -33.1207  -28.8032   15.9386 C   0  0  0  0  0  0  0  0  0  0  0  0
  -25.6816  -13.6426   20.1804 C   0  0  1  0  0  0  0  0  0  0  0  0
  -25.3500  -17.0340   21.8603 C   0  0  1  0  0  0  0  0  0  0  0  0
  -24.7866  -29.6322   22.1977 C   0  0  2  0  0  0  0  0  0  0  0  0
  -20.4229  -22.9903   22.3588 C   0  0  0  0  0  0  0  0  0  0  0  0
  -22.2073  -17.8567   18.5730 C   0  0  0  0  0  0  0  0  0  0  0  0
  -20.8998  -19.9755   18.8368 C   0  0  0  0  0  0  0  0  0  0  0  0
  -20.4258  -18.0266   20.3199 C   0  0  0  0  0  0  0  0  0  0  0  0
  -23.6686  -22.5588   24.2967 C   0  0  0  0  0  0  0  0  0  0  0  0
  -32.2057  -27.8234   18.0863 C   0  0  0  0  0  0  0  0  0  0  0  0
  -31.2303  -23.0047   19.7441 C   0  0  0  0  0  0  0  0  0  0  0  0
  -30.9789  -21.5892   20.2362 C   0  0  0  0  0  0  0  0  0  1  0  0
  -22.5558  -19.3476   20.6519 C   0  0  1  0  0  0  0  0  0  0  0  0
  -21.6039  -22.2225   22.9319 C   0  0  2  0  0  0  0  0  0  0  0  0
  -21.5504  -18.8014   19.5991 C   0  0  0  0  0  0  0  0  0  0  0  0
  -22.4785  -28.7745   22.3329 N   0  0  0  0  0  0  0  0  0  0  0  0
  -23.6986  -28.8353   22.8929 N   0  0  0  0  0  0  0  0  0  0  0  0
  -24.6426  -18.1927   21.3116 N   0  0  0  0  0  0  0  0  0  0  0  0
  -26.1829  -29.8635   20.1810 N   0  0  0  0  0  0  0  0  0  0  0  0
  -24.9601  -28.0981   24.7573 N   0  0  0  0  0  0  0  0  0  0  0  0
  -20.8855  -26.2872   25.4744 N   0  0  0  0  0  0  0  0  0  0  0  0
  -27.6645  -28.0369   20.0050 N   0  0  0  0  0  0  0  0  0  0  0  0
  -30.0883  -23.8440   20.0257 N   0  0  0  0  0  0  0  0  0  0  0  0
  -25.5137  -14.7386   21.1106 N   0  0  0  0  0  0  0  0  0  0  0  0
  -21.9561  -20.2236   21.6526 N   0  0  0  0  0  0  0  0  0  0  0  0
  -31.9748  -28.0908   16.6337 N   0  3  0  0  0  0  0  0  0  0  0  0
  -22.4790  -23.1827   23.6621 N   0  3  0  0  0  0  0  0  0  0  0  0
  -23.0070  -26.4923   26.3205 O   0  0  0  0  0  0  0  0  0  0  0  0
  -25.7217  -16.4920   19.5925 O   0  0  0  0  0  0  0  0  0  0  0  0
  -22.5697  -17.4589   22.0869 O   0  0  0  0  0  0  0  0  0  0  0  0
  -23.2922  -22.0666   21.2106 O   0  0  0  0  0  0  0  0  0  0  0  0
  -28.2733  -30.1381   19.2328 O   0  0  0  0  0  0  0  0  0  0  0  0
  -16.4171  -26.8281   22.1918 O   0  0  0  0  0  0  0  0  0  0  0  0
  -29.8259  -21.0572   19.5851 O   0  0  0  0  0  0  0  0  0  1  0  0
  -15.0343  -25.3137   17.0734 F   0  0  0  0  0  0  0  0  0  0  0  0
  -16.8474  -28.5189   20.0474 F   0  0  0  0  0  0  0  0  0  0  0  0
  1  2  1  0  0  0  0
  1  5  2  0  0  0  0
  2  6  2  0  0  0  0
  3  8  2  0  0  0  0
  3 18  1  0  0  0  0
  4  9  1  0  0  0  0
  4 18  2  0  0  0  0
  5 20  1  0  0  0  0
  6 22  1  0  0  0  0
  7 10  2  0  0  0  0
  7 21  1  0  0  0  0
  8 27  1  0  0  0  0
  9 27  2  0  0  0  0
 10 28  1  0  0  0  0
 11 12  2  0  0  0  0
 11 29  1  0  0  0  0
 12 30  1  0  0  0  0
 13 23  1  0  0  0  0
 13 28  2  0  0  0  0
 14 24  1  0  0  0  0
 14 25  2  0  0  0  0
 15 24  2  0  0  0  0
 15 26  1  0  0  0  0
 16 25  1  0  0  0  0
 16 26  2  0  0  0  0
 17 30  2  0  0  0  0
 17 31  1  0  0  0  0
 18 32  1  0  0  0  0
 19 32  1  0  0  0  0
 19 33  2  0  0  0  0
 19 34  1  0  0  0  0
 20 22  2  0  0  0  0
 20 39  1  0  0  0  0
 21 23  2  0  0  0  0
 21 40  1  0  0  0  0
 22 52  1  0  0  0  0
 23 41  1  0  0  0  0
 24 60  1  0  0  0  0
 25 72  1  0  0  0  0
 26 73  1  0  0  0  0
 27 83  1  0  0  0  0
 28 84  1  0  0  0  0
 29 31  2  0  0  0  0
 29 83  1  0  0  0  0
 30 85  1  0  0  0  0
 31 86  1  0  0  0  0
 32 66  2  0  0  0  0
 33 67  1  0  0  0  0
 33 70  1  0  0  0  0
 34 71  1  0  0  0  0
 34 78  2  0  0  0  0
 35 53  1  0  0  0  0
 35 74  1  0  0  0  0
 35 79  2  0  0  0  0
 36 63  1  0  0  0  0
 36 68  1  0  0  0  0
 36 80  2  0  0  0  0
 37 64  1  0  0  0  0
 37 75  1  0  0  0  0
 37 81  2  0  0  0  0
 38 69  1  0  0  0  0
 38 72  1  0  0  0  0
 38 82  2  0  0  0  0
 39 42  1  0  0  0  0
 40 53  1  0  0  0  0
 41 68  1  0  0  0  0
 42 46  1  0  0  0  0
 43 47  1  0  0  0  0
 43 48  1  0  0  0  0
 44 45  1  0  0  0  0
 44 50  1  0  0  0  0
 45 51  1  0  0  0  0
 46 52  1  0  0  0  0
 47 54  1  0  0  0  0
 48 69  1  0  0  0  0
 49 54  1  0  0  0  0
 49 69  1  0  0  0  0
 50 76  1  0  0  0  0
 51 76  1  0  0  0  0
 52 74  1  0  0  0  0
 53 68  1  0  0  0  0
 54 67  1  0  0  0  0
 55 64  1  0  0  0  0
 56 65  1  0  0  0  0
 57 65  1  0  0  0  0
 58 65  1  0  0  0  0
 59 77  1  0  0  0  0
 60 76  1  0  0  0  0
 61 62  1  0  0  0  0
 61 73  1  0  0  0  0
 62 84  1  0  0  0  0
 63 65  1  0  0  0  0
 63 75  1  0  0  0  0
 64 77  1  0  0  0  0
 66 67  1  0  0  0  0
M  CHG  2  76   1  77   1
M  ISO  4  38 100  62 101  72 100  84 101
M  END
> <Batch ID>
0011

> <Smiles>
CNC(C)C(=O)NC(C(=O)N1Cc2cc([101O:1][101CH2:1]CNc3cc(CN4CCCC4)cc([100NH:0][100C:0](=O)N4CCCC(n5nc(-c6ccc(Oc7ccc(F)cc7F)cc6)c(C(N)=O)c5N)C4)c3)ccc2CC1C(=O)NC1CCCc2ccccc21)C(C)(C)C

> <Shape>
0.222

> <Color>
0.065

> <Negative vol penalty>
0.000

$$$$
